FFF.pdb
     RDKit          3D

 34 36  0  0  1  0  0  0  0  0999 V2000
   28.6250  -20.6871  -14.7588 N   0  0  0  0  0  0  0  0  0  0  0  0
   27.6091  -19.8721  -14.1578 C   0  0  1  0  0  0  0  0  0  0  0  0
   26.7929  -19.2175  -15.2520 C   0  0  0  0  0  0  0  0  0  0  0  0
   27.5054  -17.9722  -15.6414 C   0  0  0  0  0  0  0  0  0  0  0  0
   27.4336  -16.8286  -14.8750 C   0  0  0  0  0  0  0  0  0  0  0  0
   28.1135  -15.6690  -15.2628 C   0  0  0  0  0  0  0  0  0  0  0  0
   28.8640  -15.6339  -16.4043 C   0  0  0  0  0  0  0  0  0  0  0  0
   28.9408  -16.7726  -17.1758 C   0  0  0  0  0  0  0  0  0  0  0  0
   28.2631  -17.9294  -16.7898 C   0  0  0  0  0  0  0  0  0  0  0  0
   26.7954  -20.6440  -13.2199 C   0  0  0  0  0  0  0  0  0  0  0  0
   26.6024  -21.8658  -13.4306 O   0  0  0  0  0  0  0  0  0  0  0  0
   26.2259  -20.0278  -12.0814 N   0  0  0  0  0  0  0  0  0  0  0  0
   25.3170  -20.8784  -11.2324 C   0  0  1  0  0  0  0  0  0  0  0  0
   25.4279  -20.3747   -9.8317 C   0  0  0  0  0  0  0  0  0  0  0  0
   26.7185  -20.6677   -9.2110 C   0  0  0  0  0  0  0  0  0  0  0  0
   26.9937  -20.1744   -7.9248 C   0  0  0  0  0  0  0  0  0  0  0  0
   28.1620  -20.4574   -7.2599 C   0  0  0  0  0  0  0  0  0  0  0  0
   29.1293  -21.2505   -7.8365 C   0  0  0  0  0  0  0  0  0  0  0  0
   28.8803  -21.7440   -9.0965 C   0  0  0  0  0  0  0  0  0  0  0  0
   27.6999  -21.4578   -9.7685 C   0  0  0  0  0  0  0  0  0  0  0  0
   23.9994  -20.6469  -11.7963 C   0  0  0  0  0  0  0  0  0  0  0  0
   23.7149  -19.5448  -12.3217 O   0  0  0  0  0  0  0  0  0  0  0  0
   22.9884  -21.6346  -11.7930 N   0  0  0  0  0  0  0  0  0  0  0  0
   21.7619  -21.3821  -12.5474 C   0  0  1  0  0  0  0  0  0  0  0  0
   22.2415  -21.3403  -14.0140 C   0  0  0  0  0  0  0  0  0  0  0  0
   22.8070  -22.6207  -14.4552 C   0  0  0  0  0  0  0  0  0  0  0  0
   21.9903  -23.6607  -14.9038 C   0  0  0  0  0  0  0  0  0  0  0  0
   22.4691  -24.8607  -15.3297 C   0  0  0  0  0  0  0  0  0  0  0  0
   23.8199  -25.1016  -15.3343 C   0  0  0  0  0  0  0  0  0  0  0  0
   24.6495  -24.1007  -14.8998 C   0  0  0  0  0  0  0  0  0  0  0  0
   24.1658  -22.8946  -14.4719 C   0  0  0  0  0  0  0  0  0  0  0  0
   20.7596  -22.4203  -12.4094 C   0  0  0  0  0  0  0  0  0  0  0  0
   19.4841  -22.3129  -12.9230 O   0  0  0  0  0  0  0  0  0  0  0  0
   20.9964  -23.5165  -11.7935 O   0  0  0  0  0  0  0  0  0  0  0  0
  2  1  1  6
  3  2  1  0
  4  3  1  0
  4  5  2  0
  6  5  1  0
  7  6  2  0
  8  9  2  0
  8  7  1  0
  9  4  1  0
 10 11  2  0
 10  2  1  0
 12 10  1  0
 13 14  1  1
 13 12  1  0
 15 16  2  0
 15 14  1  0
 17 16  1  0
 18 17  2  0
 19 18  1  0
 19 20  2  0
 20 15  1  0
 21 13  1  0
 22 21  2  0
 23 21  1  0
 24 23  1  0
 24 25  1  6
 25 26  1  0
 26 31  1  0
 27 26  2  0
 27 28  1  0
 28 29  2  0
 29 30  1  0
 31 30  2  0
 32 33  1  0
 32 24  1  0
 34 32  2  0
M  END
$$$$
