FFF.pdb
     RDKit          3D

 34 36  0  0  1  0  0  0  0  0999 V2000
   22.7220  -10.8866  -19.4854 N   0  0  0  0  0  0  0  0  0  0  0  0
   21.8184  -10.3127  -18.5305 C   0  0  1  0  0  0  0  0  0  0  0  0
   21.9809  -11.0300  -17.2072 C   0  0  0  0  0  0  0  0  0  0  0  0
   21.4356  -12.4015  -17.3851 C   0  0  0  0  0  0  0  0  0  0  0  0
   20.0787  -12.6392  -17.4340 C   0  0  0  0  0  0  0  0  0  0  0  0
   19.5902  -13.9393  -17.6024 C   0  0  0  0  0  0  0  0  0  0  0  0
   20.4362  -15.0058  -17.7227 C   0  0  0  0  0  0  0  0  0  0  0  0
   21.7937  -14.7767  -17.6749 C   0  0  0  0  0  0  0  0  0  0  0  0
   22.2817  -13.4804  -17.5070 C   0  0  0  0  0  0  0  0  0  0  0  0
   22.0058   -8.8666  -18.4251 C   0  0  0  0  0  0  0  0  0  0  0  0
   23.1566   -8.3823  -18.5513 O   0  0  0  0  0  0  0  0  0  0  0  0
   20.9055   -8.0116  -18.1831 N   0  0  0  0  0  0  0  0  0  0  0  0
   21.1867   -6.5314  -18.1662 C   0  0  1  0  0  0  0  0  0  0  0  0
   20.3656   -5.9171  -19.2509 C   0  0  0  0  0  0  0  0  0  0  0  0
   20.4515   -4.4583  -19.2870 C   0  0  0  0  0  0  0  0  0  0  0  0
   21.4950   -3.8457  -20.0006 C   0  0  0  0  0  0  0  0  0  0  0  0
   21.6045   -2.4819  -20.1230 C   0  0  0  0  0  0  0  0  0  0  0  0
   20.6797   -1.6433  -19.5410 C   0  0  0  0  0  0  0  0  0  0  0  0
   19.6493   -2.2226  -18.8368 C   0  0  0  0  0  0  0  0  0  0  0  0
   19.5387   -3.6006  -18.7129 C   0  0  0  0  0  0  0  0  0  0  0  0
   20.7540   -6.1117  -16.8455 C   0  0  0  0  0  0  0  0  0  0  0  0
   19.6837   -6.5449  -16.3572 O   0  0  0  0  0  0  0  0  0  0  0  0
   21.5050   -5.2174  -16.0496 N   0  0  0  0  0  0  0  0  0  0  0  0
   21.0175   -4.8958  -14.7094 C   0  0  1  0  0  0  0  0  0  0  0  0
   22.1970   -5.2843  -13.7925 C   0  0  0  0  0  0  0  0  0  0  0  0
   22.4227   -6.7339  -13.7540 C   0  0  0  0  0  0  0  0  0  0  0  0
   23.2904   -7.3591  -14.6518 C   0  0  0  0  0  0  0  0  0  0  0  0
   23.5371   -8.6969  -14.6489 C   0  0  0  0  0  0  0  0  0  0  0  0
   22.9207   -9.5097  -13.7313 C   0  0  0  0  0  0  0  0  0  0  0  0
   22.0625   -8.9269  -12.8353 C   0  0  0  0  0  0  0  0  0  0  0  0
   21.8159   -7.5812  -12.8400 C   0  0  0  0  0  0  0  0  0  0  0  0
   20.7115   -3.4924  -14.5134 C   0  0  0  0  0  0  0  0  0  0  0  0
   21.0984   -2.5040  -15.3942 O   0  0  0  0  0  0  0  0  0  0  0  0
   20.0554   -3.0750  -13.4974 O   0  0  0  0  0  0  0  0  0  0  0  0
  2  1  1  6
  3  2  1  0
  4  3  1  0
  4  5  2  0
  6  5  1  0
  7  6  2  0
  8  9  2  0
  8  7  1  0
  9  4  1  0
 10 11  2  0
 10  2  1  0
 12 10  1  0
 13 14  1  6
 13 12  1  0
 15 16  2  0
 15 14  1  0
 17 16  1  0
 18 17  2  0
 19 18  1  0
 19 20  2  0
 20 15  1  0
 21 13  1  0
 22 21  2  0
 23 21  1  0
 24 23  1  0
 24 25  1  1
 25 26  1  0
 26 31  1  0
 27 26  2  0
 27 28  1  0
 28 29  2  0
 29 30  1  0
 31 30  2  0
 32 33  1  0
 32 24  1  0
 34 32  2  0
M  END
$$$$
