IKI.pdb
     RDKit          3D

 26 25  0  0  1  0  0  0  0  0999 V2000
    5.9893  -10.6721   26.8859 C   0  0  0  0  0  0  0  0  0  0  0  0
    5.5338  -11.9497   26.2515 C   0  0  0  0  0  0  0  0  0  0  0  0
    6.7162  -12.8931   25.9940 C   0  0  2  0  0  0  0  0  0  0  0  0
    7.7177  -12.1540   25.1766 C   0  0  0  0  0  0  0  0  0  0  0  0
    6.1757  -14.1516   25.3588 C   0  0  2  0  0  0  0  0  0  0  0  0
    5.1357  -14.6296   26.2861 N   0  0  0  0  0  0  0  0  0  0  0  0
    7.1998  -15.2213   25.2102 C   0  0  0  0  0  0  0  0  0  0  0  0
    7.5690  -15.8499   26.2359 O   0  0  0  0  0  0  0  0  0  0  0  0
    7.7749  -15.5642   23.9745 N   0  0  0  0  0  0  0  0  0  0  0  0
    8.8604  -16.4523   23.6980 C   0  0  1  0  0  0  0  0  0  0  0  0
    9.1433  -16.6431   22.1993 C   0  0  0  0  0  0  0  0  0  0  0  0
   10.3303  -17.5166   21.9643 C   0  0  0  0  0  0  0  0  0  0  0  0
   10.5140  -17.6994   20.4717 C   0  0  0  0  0  0  0  0  0  0  0  0
   11.5212  -18.7950   20.1585 C   0  0  0  0  0  0  0  0  0  0  0  0
   11.7885  -18.8728   18.7441 N   0  0  0  0  0  0  0  0  0  0  0  0
   10.1059  -16.1986   24.4032 C   0  0  0  0  0  0  0  0  0  0  0  0
   10.9998  -15.5042   23.8536 O   0  0  0  0  0  0  0  0  0  0  0  0
   10.7145  -14.8348   29.7455 C   0  0  0  0  0  0  0  0  0  0  0  0
   10.8202  -15.8196   28.6355 C   0  0  0  0  0  0  0  0  0  0  0  0
   11.5436  -15.3837   27.4170 C   0  0  2  0  0  0  0  0  0  0  0  0
   11.2208  -13.9988   26.9632 C   0  0  0  0  0  0  0  0  0  0  0  0
   11.6921  -16.4261   26.3759 C   0  0  2  0  0  0  0  0  0  0  0  0
   10.4077  -16.6869   25.7089 N   0  0  0  0  0  0  0  0  0  0  0  0
   12.2446  -17.7213   26.7534 C   0  0  0  0  0  0  0  0  0  0  0  0
   13.5382  -17.9785   27.1863 O   0  0  0  0  0  0  0  0  0  0  0  0
   11.5349  -18.7924   26.7088 O   0  0  0  0  0  0  0  0  0  0  0  0
  2  1  1  0
  2  3  1  0
  3  4  1  6
  5  3  1  0
  5  6  1  1
  7  8  2  0
  7  5  1  0
  9  7  1  0
 10  9  1  0
 10 11  1  6
 12 13  1  0
 12 11  1  0
 13 14  1  0
 14 15  1  0
 16 23  1  0
 16 10  1  0
 17 16  2  0
 19 18  1  0
 19 20  1  0
 20 21  1  6
 20 22  1  0
 22 23  1  1
 22 24  1  0
 24 25  1  0
 26 24  2  0
M  END
$$$$
