IKI.pdb
     RDKit          3D

 26 25  0  0  1  0  0  0  0  0999 V2000
    7.8122  -11.8448   18.2672 C   0  0  0  0  0  0  0  0  0  0  0  0
    8.0875  -13.3128   18.3747 C   0  0  0  0  0  0  0  0  0  0  0  0
    7.7004  -13.8494   19.7591 C   0  0  2  0  0  0  0  0  0  0  0  0
    8.4041  -13.0240   20.7794 C   0  0  0  0  0  0  0  0  0  0  0  0
    8.0265  -15.3231   19.7932 C   0  0  2  0  0  0  0  0  0  0  0  0
    7.2020  -15.9201   18.7284 N   0  0  0  0  0  0  0  0  0  0  0  0
    7.6704  -15.9741   21.0834 C   0  0  0  0  0  0  0  0  0  0  0  0
    6.4543  -16.0873   21.3867 O   0  0  0  0  0  0  0  0  0  0  0  0
    8.6310  -16.4707   21.9811 N   0  0  0  0  0  0  0  0  0  0  0  0
    8.4585  -16.9451   23.3185 C   0  0  1  0  0  0  0  0  0  0  0  0
    8.8846  -18.4080   23.5208 C   0  0  0  0  0  0  0  0  0  0  0  0
    8.0913  -19.3412   22.6682 C   0  0  0  0  0  0  0  0  0  0  0  0
    8.5434  -20.7602   22.9463 C   0  0  0  0  0  0  0  0  0  0  0  0
    7.8659  -21.7584   22.0203 C   0  0  0  0  0  0  0  0  0  0  0  0
    8.3942  -23.0869   22.2050 N   0  0  0  0  0  0  0  0  0  0  0  0
    9.0151  -16.1215   24.3791 C   0  0  0  0  0  0  0  0  0  0  0  0
   10.1943  -15.6940   24.2786 O   0  0  0  0  0  0  0  0  0  0  0  0
    6.0650  -12.3006   26.5474 C   0  0  0  0  0  0  0  0  0  0  0  0
    7.1422  -13.2136   26.0791 C   0  0  0  0  0  0  0  0  0  0  0  0
    7.9222  -13.9229   27.1215 C   0  0  2  0  0  0  0  0  0  0  0  0
    8.3348  -13.0726   28.2769 C   0  0  0  0  0  0  0  0  0  0  0  0
    8.9099  -14.8970   26.6036 C   0  0  2  0  0  0  0  0  0  0  0  0
    8.3122  -15.7454   25.5617 N   0  0  0  0  0  0  0  0  0  0  0  0
    9.5769  -15.7880   27.5452 C   0  0  0  0  0  0  0  0  0  0  0  0
   10.7126  -15.5077   28.2924 O   0  0  0  0  0  0  0  0  0  0  0  0
    9.1409  -16.9768   27.7680 O   0  0  0  0  0  0  0  0  0  0  0  0
  2  1  1  0
  2  3  1  0
  3  4  1  1
  5  3  1  0
  5  6  1  6
  7  8  2  0
  7  5  1  0
  9  7  1  0
 10  9  1  0
 10 11  1  6
 12 13  1  0
 12 11  1  0
 13 14  1  0
 14 15  1  0
 16 23  1  0
 16 10  1  0
 17 16  2  0
 19 18  1  0
 19 20  1  0
 20 21  1  6
 20 22  1  0
 22 23  1  6
 22 24  1  0
 24 25  1  0
 26 24  2  0
M  END
$$$$
