IKI.pdb
     RDKit          3D

 26 25  0  0  1  0  0  0  0  0999 V2000
    5.5991  -10.7940   26.2262 C   0  0  0  0  0  0  0  0  0  0  0  0
    5.3253  -12.0817   25.5127 C   0  0  0  0  0  0  0  0  0  0  0  0
    6.5655  -12.9852   25.5039 C   0  0  2  0  0  0  0  0  0  0  0  0
    7.6489  -12.2628   24.7814 C   0  0  0  0  0  0  0  0  0  0  0  0
    6.1690  -14.3114   24.9013 C   0  0  2  0  0  0  0  0  0  0  0  0
    5.0634  -14.7974   25.7448 N   0  0  0  0  0  0  0  0  0  0  0  0
    7.2620  -15.3212   24.9324 C   0  0  0  0  0  0  0  0  0  0  0  0
    7.5511  -15.8640   26.0303 O   0  0  0  0  0  0  0  0  0  0  0  0
    7.9879  -15.6990   23.7897 N   0  0  0  0  0  0  0  0  0  0  0  0
    9.1456  -16.5314   23.6885 C   0  0  1  0  0  0  0  0  0  0  0  0
    9.7503  -16.5891   22.2766 C   0  0  0  0  0  0  0  0  0  0  0  0
    8.8450  -17.2794   21.3117 C   0  0  0  0  0  0  0  0  0  0  0  0
    9.4745  -17.2350   19.9344 C   0  0  0  0  0  0  0  0  0  0  0  0
    8.6080  -17.9319   18.8969 C   0  0  0  0  0  0  0  0  0  0  0  0
    9.2574  -17.9679   17.6104 N   0  0  0  0  0  0  0  0  0  0  0  0
   10.1992  -16.3039   24.6639 C   0  0  0  0  0  0  0  0  0  0  0  0
   11.1262  -15.4955   24.3986 O   0  0  0  0  0  0  0  0  0  0  0  0
    9.6890  -13.8287   28.8598 C   0  0  0  0  0  0  0  0  0  0  0  0
   10.2835  -14.5982   27.7338 C   0  0  0  0  0  0  0  0  0  0  0  0
   10.8714  -15.9197   28.0595 C   0  0  2  0  0  0  0  0  0  0  0  0
   11.7066  -15.9418   29.2965 C   0  0  0  0  0  0  0  0  0  0  0  0
   11.3607  -16.6872   26.8916 C   0  0  2  0  0  0  0  0  0  0  0  0
   10.2707  -16.9413   25.9378 N   0  0  0  0  0  0  0  0  0  0  0  0
   12.0301  -17.9620   27.1201 C   0  0  0  0  0  0  0  0  0  0  0  0
   11.4613  -19.2256   27.0375 O   0  0  0  0  0  0  0  0  0  0  0  0
   13.2742  -18.0190   27.4390 O   0  0  0  0  0  0  0  0  0  0  0  0
  2  1  1  0
  2  3  1  0
  3  4  1  6
  5  3  1  0
  5  6  1  1
  7  8  2  0
  7  5  1  0
  9  7  1  0
 10  9  1  0
 10 11  1  6
 12 13  1  0
 12 11  1  0
 13 14  1  0
 14 15  1  0
 16 23  1  0
 16 10  1  0
 17 16  2  0
 19 18  1  0
 19 20  1  0
 20 21  1  1
 20 22  1  0
 22 23  1  6
 22 24  1  0
 24 25  1  0
 26 24  2  0
M  END
$$$$
