IKI.pdb
     RDKit          3D

 26 25  0  0  1  0  0  0  0  0999 V2000
    9.3416  -12.9442   18.2588 C   0  0  0  0  0  0  0  0  0  0  0  0
    7.9235  -13.4150   18.1595 C   0  0  0  0  0  0  0  0  0  0  0  0
    7.3874  -13.8522   19.5291 C   0  0  2  0  0  0  0  0  0  0  0  0
    7.8148  -12.8357   20.5300 C   0  0  0  0  0  0  0  0  0  0  0  0
    7.8783  -15.2552   19.7931 C   0  0  2  0  0  0  0  0  0  0  0  0
    7.3255  -16.0650   18.6936 N   0  0  0  0  0  0  0  0  0  0  0  0
    7.3885  -15.8164   21.0816 C   0  0  0  0  0  0  0  0  0  0  0  0
    6.2060  -15.5716   21.4358 O   0  0  0  0  0  0  0  0  0  0  0  0
    8.1863  -16.6102   21.9234 N   0  0  0  0  0  0  0  0  0  0  0  0
    7.9705  -16.9819   23.2868 C   0  0  1  0  0  0  0  0  0  0  0  0
    8.2322  -18.4685   23.5765 C   0  0  0  0  0  0  0  0  0  0  0  0
    7.9929  -18.8062   25.0103 C   0  0  0  0  0  0  0  0  0  0  0  0
    8.2879  -20.2771   25.2212 C   0  0  0  0  0  0  0  0  0  0  0  0
    7.9949  -20.7108   26.6491 C   0  0  0  0  0  0  0  0  0  0  0  0
    6.5926  -20.5838   26.9583 N   0  0  0  0  0  0  0  0  0  0  0  0
    8.6222  -16.1639   24.2964 C   0  0  0  0  0  0  0  0  0  0  0  0
    9.8729  -16.0283   24.2725 O   0  0  0  0  0  0  0  0  0  0  0  0
    6.0334  -11.9531   27.3315 C   0  0  0  0  0  0  0  0  0  0  0  0
    6.6408  -13.2780   27.0330 C   0  0  0  0  0  0  0  0  0  0  0  0
    7.9656  -13.2752   26.3674 C   0  0  2  0  0  0  0  0  0  0  0  0
    8.0565  -12.3952   25.1651 C   0  0  0  0  0  0  0  0  0  0  0  0
    8.6289  -14.5972   26.2975 C   0  0  2  0  0  0  0  0  0  0  0  0
    7.9389  -15.4798   25.3448 N   0  0  0  0  0  0  0  0  0  0  0  0
    8.8078  -15.3585   27.5279 C   0  0  0  0  0  0  0  0  0  0  0  0
    9.6280  -15.0277   28.5978 O   0  0  0  0  0  0  0  0  0  0  0  0
    8.1848  -16.4650   27.7289 O   0  0  0  0  0  0  0  0  0  0  0  0
  2  1  1  0
  2  3  1  0
  3  4  1  1
  5  3  1  0
  5  6  1  6
  7  8  2  0
  7  5  1  0
  9  7  1  0
 10  9  1  0
 10 11  1  6
 12 13  1  0
 12 11  1  0
 13 14  1  0
 14 15  1  0
 16 23  1  0
 16 10  1  0
 17 16  2  0
 19 18  1  0
 19 20  1  0
 20 21  1  6
 20 22  1  0
 22 23  1  6
 22 24  1  0
 24 25  1  0
 26 24  2  0
M  END
$$$$
