IKI.pdb
     RDKit          3D

 26 25  0  0  1  0  0  0  0  0999 V2000
    7.6732  -12.0212   18.1947 C   0  0  0  0  0  0  0  0  0  0  0  0
    7.9971  -13.4812   18.2699 C   0  0  0  0  0  0  0  0  0  0  0  0
    7.8179  -14.0160   19.6969 C   0  0  2  0  0  0  0  0  0  0  0  0
    8.6533  -13.1807   20.6035 C   0  0  0  0  0  0  0  0  0  0  0  0
    8.1590  -15.4867   19.6874 C   0  0  2  0  0  0  0  0  0  0  0  0
    7.1639  -16.1023   18.7925 N   0  0  0  0  0  0  0  0  0  0  0  0
    8.0442  -16.1252   21.0269 C   0  0  0  0  0  0  0  0  0  0  0  0
    6.9056  -16.2212   21.5541 O   0  0  0  0  0  0  0  0  0  0  0  0
    9.1507  -16.6285   21.7323 N   0  0  0  0  0  0  0  0  0  0  0  0
    9.2385  -17.0488   23.0958 C   0  0  1  0  0  0  0  0  0  0  0  0
   10.2429  -18.1877   23.3336 C   0  0  0  0  0  0  0  0  0  0  0  0
   10.2632  -18.6222   24.7612 C   0  0  0  0  0  0  0  0  0  0  0  0
   11.3655  -19.6452   24.9444 C   0  0  0  0  0  0  0  0  0  0  0  0
   11.3660  -20.2264   26.3498 C   0  0  0  0  0  0  0  0  0  0  0  0
   10.1347  -20.9217   26.6300 N   0  0  0  0  0  0  0  0  0  0  0  0
    9.4371  -16.0052   24.0881 C   0  0  0  0  0  0  0  0  0  0  0  0
   10.5091  -15.3463   24.0893 O   0  0  0  0  0  0  0  0  0  0  0  0
    6.7428  -11.2022   26.4102 C   0  0  0  0  0  0  0  0  0  0  0  0
    7.7350  -12.2871   26.6378 C   0  0  0  0  0  0  0  0  0  0  0  0
    7.6074  -13.5016   25.7970 C   0  0  2  0  0  0  0  0  0  0  0  0
    6.2103  -14.0003   25.6314 C   0  0  0  0  0  0  0  0  0  0  0  0
    8.6732  -14.5101   25.9960 C   0  0  2  0  0  0  0  0  0  0  0  0
    8.4865  -15.6548   25.0919 N   0  0  0  0  0  0  0  0  0  0  0  0
    8.8836  -15.0546   27.3319 C   0  0  0  0  0  0  0  0  0  0  0  0
    8.7431  -16.3797   27.7205 O   0  0  0  0  0  0  0  0  0  0  0  0
    9.2334  -14.3037   28.3151 O   0  0  0  0  0  0  0  0  0  0  0  0
  2  1  1  0
  2  3  1  0
  3  4  1  1
  5  3  1  0
  5  6  1  6
  7  8  2  0
  7  5  1  0
  9  7  1  0
 10  9  1  0
 10 11  1  6
 12 13  1  0
 12 11  1  0
 13 14  1  0
 14 15  1  0
 16 23  1  0
 16 10  1  0
 17 16  2  0
 19 18  1  0
 19 20  1  0
 20 21  1  1
 20 22  1  0
 22 23  1  6
 22 24  1  0
 24 25  1  0
 26 24  2  0
M  END
$$$$
