IKI.pdb
     RDKit          3D

 26 25  0  0  1  0  0  0  0  0999 V2000
    7.6043  -12.7081   18.1497 C   0  0  0  0  0  0  0  0  0  0  0  0
    7.6510  -14.1654   18.4913 C   0  0  0  0  0  0  0  0  0  0  0  0
    7.2317  -14.4072   19.9473 C   0  0  2  0  0  0  0  0  0  0  0  0
    8.1115  -13.5785   20.8172 C   0  0  0  0  0  0  0  0  0  0  0  0
    7.2924  -15.8932   20.2069 C   0  0  2  0  0  0  0  0  0  0  0  0
    6.3449  -16.4862   19.2475 N   0  0  0  0  0  0  0  0  0  0  0  0
    6.8639  -16.2674   21.5822 C   0  0  0  0  0  0  0  0  0  0  0  0
    5.6931  -15.9854   21.9472 O   0  0  0  0  0  0  0  0  0  0  0  0
    7.7073  -16.9240   22.4948 N   0  0  0  0  0  0  0  0  0  0  0  0
    7.5922  -17.0321   23.9155 C   0  0  1  0  0  0  0  0  0  0  0  0
    7.8314  -18.4517   24.4540 C   0  0  0  0  0  0  0  0  0  0  0  0
    6.8087  -19.4161   23.9529 C   0  0  0  0  0  0  0  0  0  0  0  0
    7.0781  -20.7753   24.5654 C   0  0  0  0  0  0  0  0  0  0  0  0
    7.1773  -20.7000   26.0811 C   0  0  0  0  0  0  0  0  0  0  0  0
    7.2934  -22.0130   26.6648 N   0  0  0  0  0  0  0  0  0  0  0  0
    8.3486  -16.0745   24.7055 C   0  0  0  0  0  0  0  0  0  0  0  0
    9.5524  -15.8469   24.4186 O   0  0  0  0  0  0  0  0  0  0  0  0
    6.2291  -11.5298   27.6128 C   0  0  0  0  0  0  0  0  0  0  0  0
    6.6474  -12.8919   27.1853 C   0  0  0  0  0  0  0  0  0  0  0  0
    7.9161  -12.9977   26.4254 C   0  0  2  0  0  0  0  0  0  0  0  0
    7.9007  -12.3275   25.0917 C   0  0  0  0  0  0  0  0  0  0  0  0
    8.5902  -14.3126   26.5211 C   0  0  2  0  0  0  0  0  0  0  0  0
    7.8217  -15.3479   25.8139 N   0  0  0  0  0  0  0  0  0  0  0  0
    8.9050  -14.8454   27.8411 C   0  0  0  0  0  0  0  0  0  0  0  0
    8.4625  -16.0458   28.3797 O   0  0  0  0  0  0  0  0  0  0  0  0
    9.6600  -14.2045   28.6609 O   0  0  0  0  0  0  0  0  0  0  0  0
  2  1  1  0
  2  3  1  0
  3  4  1  1
  5  3  1  0
  5  6  1  6
  7  8  2  0
  7  5  1  0
  9  7  1  0
 10  9  1  0
 10 11  1  1
 12 13  1  0
 12 11  1  0
 13 14  1  0
 14 15  1  0
 16 23  1  0
 16 10  1  0
 17 16  2  0
 19 18  1  0
 19 20  1  0
 20 21  1  6
 20 22  1  0
 22 23  1  1
 22 24  1  0
 24 25  1  0
 26 24  2  0
M  END
$$$$
