IKI.pdb
     RDKit          3D

 26 25  0  0  1  0  0  0  0  0999 V2000
    7.6736  -12.0058   18.9174 C   0  0  0  0  0  0  0  0  0  0  0  0
    7.6939  -13.4981   19.0392 C   0  0  0  0  0  0  0  0  0  0  0  0
    7.6738  -13.9345   20.5101 C   0  0  2  0  0  0  0  0  0  0  0  0
    8.8294  -13.2883   21.1917 C   0  0  0  0  0  0  0  0  0  0  0  0
    7.6725  -15.4438   20.5462 C   0  0  2  0  0  0  0  0  0  0  0  0
    6.4110  -15.8389   19.8961 N   0  0  0  0  0  0  0  0  0  0  0  0
    7.6826  -15.9985   21.9273 C   0  0  0  0  0  0  0  0  0  0  0  0
    6.6696  -15.8272   22.6539 O   0  0  0  0  0  0  0  0  0  0  0  0
    8.7731  -16.7078   22.4594 N   0  0  0  0  0  0  0  0  0  0  0  0
    9.0011  -17.1409   23.8025 C   0  0  1  0  0  0  0  0  0  0  0  0
    9.8748  -18.4007   23.9113 C   0  0  0  0  0  0  0  0  0  0  0  0
   10.0953  -18.8037   25.3313 C   0  0  0  0  0  0  0  0  0  0  0  0
   11.0209  -20.0026   25.3604 C   0  0  0  0  0  0  0  0  0  0  0  0
   11.2117  -20.5321   26.7732 C   0  0  0  0  0  0  0  0  0  0  0  0
   11.9110  -21.7926   26.7707 N   0  0  0  0  0  0  0  0  0  0  0  0
    9.4725  -16.1353   24.7404 C   0  0  0  0  0  0  0  0  0  0  0  0
   10.5161  -15.4831   24.4782 O   0  0  0  0  0  0  0  0  0  0  0  0
    6.3921  -12.3971   26.4069 C   0  0  0  0  0  0  0  0  0  0  0  0
    7.5279  -13.3076   26.1001 C   0  0  0  0  0  0  0  0  0  0  0  0
    8.3119  -13.8154   27.2516 C   0  0  2  0  0  0  0  0  0  0  0  0
    8.6567  -12.7836   28.2736 C   0  0  0  0  0  0  0  0  0  0  0  0
    9.3547  -14.8076   26.9043 C   0  0  2  0  0  0  0  0  0  0  0  0
    8.8285  -15.8162   25.9723 N   0  0  0  0  0  0  0  0  0  0  0  0
   10.0210  -15.5312   27.9804 C   0  0  0  0  0  0  0  0  0  0  0  0
   11.1689  -15.1421   28.6569 O   0  0  0  0  0  0  0  0  0  0  0  0
    9.5723  -16.6566   28.4106 O   0  0  0  0  0  0  0  0  0  0  0  0
  2  1  1  0
  2  3  1  0
  3  4  1  1
  5  3  1  0
  5  6  1  1
  7  8  2  0
  7  5  1  0
  9  7  1  0
 10  9  1  0
 10 11  1  6
 12 13  1  0
 12 11  1  0
 13 14  1  0
 14 15  1  0
 16 23  1  0
 16 10  1  0
 17 16  2  0
 19 18  1  0
 19 20  1  0
 20 21  1  6
 20 22  1  0
 22 23  1  6
 22 24  1  0
 24 25  1  0
 26 24  2  0
M  END
$$$$
