IKI.pdb
     RDKit          3D

 26 25  0  0  1  0  0  0  0  0999 V2000
    5.5549  -10.6271   26.1692 C   0  0  0  0  0  0  0  0  0  0  0  0
    5.1847  -12.0315   25.8044 C   0  0  0  0  0  0  0  0  0  0  0  0
    6.4338  -12.8992   25.6017 C   0  0  2  0  0  0  0  0  0  0  0  0
    7.2843  -12.2383   24.5733 C   0  0  0  0  0  0  0  0  0  0  0  0
    5.9772  -14.2953   25.2528 C   0  0  2  0  0  0  0  0  0  0  0  0
    5.0731  -14.6850   26.3486 N   0  0  0  0  0  0  0  0  0  0  0  0
    7.0917  -15.2798   25.1912 C   0  0  0  0  0  0  0  0  0  0  0  0
    7.5898  -15.6957   26.2693 O   0  0  0  0  0  0  0  0  0  0  0  0
    7.6149  -15.7691   23.9819 N   0  0  0  0  0  0  0  0  0  0  0  0
    8.7302  -16.6365   23.7648 C   0  0  1  0  0  0  0  0  0  0  0  0
    9.0241  -16.9146   22.2820 C   0  0  0  0  0  0  0  0  0  0  0  0
   10.1301  -17.9018   22.1099 C   0  0  0  0  0  0  0  0  0  0  0  0
   10.3587  -18.1255   20.6292 C   0  0  0  0  0  0  0  0  0  0  0  0
   11.4399  -19.1649   20.3773 C   0  0  0  0  0  0  0  0  0  0  0  0
   11.0138  -20.4767   20.7966 N   0  0  0  0  0  0  0  0  0  0  0  0
    9.9643  -16.2961   24.4534 C   0  0  0  0  0  0  0  0  0  0  0  0
   10.7643  -15.4804   23.9261 O   0  0  0  0  0  0  0  0  0  0  0  0
   10.6012  -15.3891   29.9167 C   0  0  0  0  0  0  0  0  0  0  0  0
   10.7877  -16.2307   28.7042 C   0  0  0  0  0  0  0  0  0  0  0  0
   11.4021  -15.5795   27.5223 C   0  0  2  0  0  0  0  0  0  0  0  0
   10.8989  -14.2033   27.2379 C   0  0  0  0  0  0  0  0  0  0  0  0
   11.6282  -16.4764   26.3660 C   0  0  2  0  0  0  0  0  0  0  0  0
   10.3554  -16.8268   25.7182 N   0  0  0  0  0  0  0  0  0  0  0  0
   12.3544  -17.7229   26.5762 C   0  0  0  0  0  0  0  0  0  0  0  0
   13.7119  -17.8608   26.8310 O   0  0  0  0  0  0  0  0  0  0  0  0
   11.7588  -18.8615   26.5358 O   0  0  0  0  0  0  0  0  0  0  0  0
  2  1  1  0
  2  3  1  0
  3  4  1  6
  5  3  1  0
  5  6  1  1
  7  8  2  0
  7  5  1  0
  9  7  1  0
 10  9  1  0
 10 11  1  6
 12 13  1  0
 12 11  1  0
 13 14  1  0
 14 15  1  0
 16 23  1  0
 16 10  1  0
 17 16  2  0
 19 18  1  0
 19 20  1  0
 20 21  1  6
 20 22  1  0
 22 23  1  1
 22 24  1  0
 24 25  1  0
 26 24  2  0
M  END
$$$$
