IKI.pdb
     RDKit          3D

 26 25  0  0  1  0  0  0  0  0999 V2000
    8.2209  -12.2977   18.5450 C   0  0  0  0  0  0  0  0  0  0  0  0
    8.0971  -13.7772   18.7400 C   0  0  0  0  0  0  0  0  0  0  0  0
    7.5327  -14.1081   20.1280 C   0  0  2  0  0  0  0  0  0  0  0  0
    8.3656  -13.3986   21.1382 C   0  0  0  0  0  0  0  0  0  0  0  0
    7.4988  -15.6109   20.2688 C   0  0  2  0  0  0  0  0  0  0  0  0
    6.6225  -16.0755   19.1796 N   0  0  0  0  0  0  0  0  0  0  0  0
    6.9217  -16.0669   21.5626 C   0  0  0  0  0  0  0  0  0  0  0  0
    5.8385  -15.5588   21.9527 O   0  0  0  0  0  0  0  0  0  0  0  0
    7.5306  -17.0421   22.3711 N   0  0  0  0  0  0  0  0  0  0  0  0
    7.3489  -17.3029   23.7648 C   0  0  1  0  0  0  0  0  0  0  0  0
    7.4533  -18.7899   24.1395 C   0  0  0  0  0  0  0  0  0  0  0  0
    7.1947  -19.0170   25.5916 C   0  0  0  0  0  0  0  0  0  0  0  0
    7.3974  -20.4864   25.8996 C   0  0  0  0  0  0  0  0  0  0  0  0
    7.1247  -20.7975   27.3630 C   0  0  0  0  0  0  0  0  0  0  0  0
    8.2634  -20.4794   28.1877 N   0  0  0  0  0  0  0  0  0  0  0  0
    8.1450  -16.5085   24.6858 C   0  0  0  0  0  0  0  0  0  0  0  0
    9.3975  -16.4900   24.5664 O   0  0  0  0  0  0  0  0  0  0  0  0
    6.2459  -11.7402   26.1417 C   0  0  0  0  0  0  0  0  0  0  0  0
    7.1274  -12.8946   25.8200 C   0  0  0  0  0  0  0  0  0  0  0  0
    7.7257  -13.6226   26.9646 C   0  0  2  0  0  0  0  0  0  0  0  0
    8.3463  -12.7481   28.0029 C   0  0  0  0  0  0  0  0  0  0  0  0
    8.4416  -14.8675   26.6037 C   0  0  2  0  0  0  0  0  0  0  0  0
    7.6063  -15.7226   25.7471 N   0  0  0  0  0  0  0  0  0  0  0  0
    8.9595  -15.7141   27.6717 C   0  0  0  0  0  0  0  0  0  0  0  0
    8.3489  -16.8379   28.2111 O   0  0  0  0  0  0  0  0  0  0  0  0
   10.0892  -15.4688   28.2343 O   0  0  0  0  0  0  0  0  0  0  0  0
  2  1  1  0
  2  3  1  0
  3  4  1  1
  5  3  1  0
  5  6  1  6
  7  8  2  0
  7  5  1  0
  9  7  1  0
 10  9  1  0
 10 11  1  6
 12 13  1  0
 12 11  1  0
 13 14  1  0
 14 15  1  0
 16 23  1  0
 16 10  1  0
 17 16  2  0
 19 18  1  0
 19 20  1  0
 20 21  1  6
 20 22  1  0
 22 23  1  1
 22 24  1  0
 24 25  1  0
 26 24  2  0
M  END
$$$$
