IKI.pdb
     RDKit          3D

 26 25  0  0  1  0  0  0  0  0999 V2000
    7.0043  -13.0497   17.3247 C   0  0  0  0  0  0  0  0  0  0  0  0
    7.9977  -13.8402   18.1188 C   0  0  0  0  0  0  0  0  0  0  0  0
    7.4821  -14.1125   19.5381 C   0  0  2  0  0  0  0  0  0  0  0  0
    7.2655  -12.7976   20.2029 C   0  0  0  0  0  0  0  0  0  0  0  0
    8.4730  -15.0209   20.2253 C   0  0  2  0  0  0  0  0  0  0  0  0
    8.3835  -16.2998   19.4998 N   0  0  0  0  0  0  0  0  0  0  0  0
    8.1480  -15.2693   21.6564 C   0  0  0  0  0  0  0  0  0  0  0  0
    8.1472  -14.2951   22.4529 O   0  0  0  0  0  0  0  0  0  0  0  0
    7.8401  -16.5443   22.1613 N   0  0  0  0  0  0  0  0  0  0  0  0
    7.5370  -16.9366   23.5021 C   0  0  1  0  0  0  0  0  0  0  0  0
    7.5251  -18.4582   23.7188 C   0  0  0  0  0  0  0  0  0  0  0  0
    7.2376  -18.8155   25.1390 C   0  0  0  0  0  0  0  0  0  0  0  0
    7.1768  -20.3243   25.2600 C   0  0  0  0  0  0  0  0  0  0  0  0
    6.6934  -20.7596   26.6347 C   0  0  0  0  0  0  0  0  0  0  0  0
    6.4597  -22.1813   26.6823 N   0  0  0  0  0  0  0  0  0  0  0  0
    8.3053  -16.2974   24.5577 C   0  0  0  0  0  0  0  0  0  0  0  0
    9.5545  -16.4449   24.5922 O   0  0  0  0  0  0  0  0  0  0  0  0
    6.4747  -11.4787   25.8984 C   0  0  0  0  0  0  0  0  0  0  0  0
    7.2992  -12.6863   25.6242 C   0  0  0  0  0  0  0  0  0  0  0  0
    7.8779  -13.3852   26.7967 C   0  0  2  0  0  0  0  0  0  0  0  0
    8.5191  -12.4878   27.8024 C   0  0  0  0  0  0  0  0  0  0  0  0
    8.5628  -14.6603   26.4845 C   0  0  2  0  0  0  0  0  0  0  0  0
    7.7422  -15.4904   25.5901 N   0  0  0  0  0  0  0  0  0  0  0  0
    8.9886  -15.5161   27.5854 C   0  0  0  0  0  0  0  0  0  0  0  0
   10.1417  -15.3794   28.3459 O   0  0  0  0  0  0  0  0  0  0  0  0
    8.2886  -16.5280   27.9581 O   0  0  0  0  0  0  0  0  0  0  0  0
  2  1  1  0
  2  3  1  0
  3  4  1  1
  5  3  1  0
  5  6  1  6
  7  8  2  0
  7  5  1  0
  9  7  1  0
 10  9  1  0
 10 11  1  6
 12 13  1  0
 12 11  1  0
 13 14  1  0
 14 15  1  0
 16 23  1  0
 16 10  1  0
 17 16  2  0
 19 18  1  0
 19 20  1  0
 20 21  1  6
 20 22  1  0
 22 23  1  6
 22 24  1  0
 24 25  1  0
 26 24  2  0
M  END
$$$$
