IKI.pdb
     RDKit          3D

 26 25  0  0  1  0  0  0  0  0999 V2000
    7.6908  -12.1661   18.9573 C   0  0  0  0  0  0  0  0  0  0  0  0
    7.6010  -13.6516   19.1239 C   0  0  0  0  0  0  0  0  0  0  0  0
    7.6373  -14.0463   20.6062 C   0  0  2  0  0  0  0  0  0  0  0  0
    8.8680  -13.4577   21.2032 C   0  0  0  0  0  0  0  0  0  0  0  0
    7.5434  -15.5509   20.6880 C   0  0  2  0  0  0  0  0  0  0  0  0
    6.2293  -15.8822   20.1107 N   0  0  0  0  0  0  0  0  0  0  0  0
    7.5868  -16.0673   22.0833 C   0  0  0  0  0  0  0  0  0  0  0  0
    6.6306  -15.7989   22.8561 O   0  0  0  0  0  0  0  0  0  0  0  0
    8.6480  -16.8438   22.5795 N   0  0  0  0  0  0  0  0  0  0  0  0
    8.9508  -17.2034   23.9295 C   0  0  1  0  0  0  0  0  0  0  0  0
    9.8006  -18.4775   24.0594 C   0  0  0  0  0  0  0  0  0  0  0  0
    9.9988  -18.8707   25.4854 C   0  0  0  0  0  0  0  0  0  0  0  0
   10.7633  -20.1779   25.5295 C   0  0  0  0  0  0  0  0  0  0  0  0
   10.8765  -20.7160   26.9474 C   0  0  0  0  0  0  0  0  0  0  0  0
   11.4027  -22.0580   26.9584 N   0  0  0  0  0  0  0  0  0  0  0  0
    9.5035  -16.1576   24.7743 C   0  0  0  0  0  0  0  0  0  0  0  0
   10.5301  -15.5345   24.3988 O   0  0  0  0  0  0  0  0  0  0  0  0
    6.2260  -12.5748   26.5157 C   0  0  0  0  0  0  0  0  0  0  0  0
    7.4306  -13.3563   26.1264 C   0  0  0  0  0  0  0  0  0  0  0  0
    8.3732  -13.7227   27.2106 C   0  0  2  0  0  0  0  0  0  0  0  0
    8.7058  -12.6103   28.1487 C   0  0  0  0  0  0  0  0  0  0  0  0
    9.4758  -14.6210   26.7985 C   0  0  2  0  0  0  0  0  0  0  0  0
    8.9602  -15.7663   26.0337 N   0  0  0  0  0  0  0  0  0  0  0  0
   10.3622  -15.1596   27.8229 C   0  0  0  0  0  0  0  0  0  0  0  0
   11.4877  -14.5451   28.3544 O   0  0  0  0  0  0  0  0  0  0  0  0
   10.1608  -16.3179   28.3432 O   0  0  0  0  0  0  0  0  0  0  0  0
  2  1  1  0
  2  3  1  0
  3  4  1  6
  5  3  1  0
  5  6  1  1
  7  8  2  0
  7  5  1  0
  9  7  1  0
 10  9  1  0
 10 11  1  6
 12 13  1  0
 12 11  1  0
 13 14  1  0
 14 15  1  0
 16 23  1  0
 16 10  1  0
 17 16  2  0
 19 18  1  0
 19 20  1  0
 20 21  1  6
 20 22  1  0
 22 23  1  1
 22 24  1  0
 24 25  1  0
 26 24  2  0
M  END
$$$$
