YGK.pdb
     RDKit          3D

 26 26  0  0  1  0  0  0  0  0999 V2000
   31.5352  -20.6892    2.4419 O   0  0  0  0  0  0  0  0  0  0  0  0
   32.3048  -21.3972    3.3777 C   0  0  0  0  0  0  0  0  0  0  0  0
   33.4775  -20.8074    3.7912 C   0  0  0  0  0  0  0  0  0  0  0  0
   34.2407  -21.4953    4.7107 C   0  0  0  0  0  0  0  0  0  0  0  0
   33.8468  -22.7271    5.1992 C   0  0  0  0  0  0  0  0  0  0  0  0
   34.7280  -23.4074    6.1648 C   0  0  0  0  0  0  0  0  0  0  0  0
   35.8579  -24.0751    5.4378 C   0  0  2  0  0  0  0  0  0  0  0  0
   35.2605  -24.9996    4.4755 N   0  0  0  0  0  0  0  0  0  0  0  0
   36.7383  -24.7646    6.3783 C   0  0  0  0  0  0  0  0  0  0  0  0
   37.4565  -24.1649    7.2107 O   0  0  0  0  0  0  0  0  0  0  0  0
   32.6741  -23.2738    4.7594 C   0  0  0  0  0  0  0  0  0  0  0  0
   31.8718  -22.6066    3.8269 C   0  0  0  0  0  0  0  0  0  0  0  0
   36.7989  -26.1970    6.3655 N   0  0  0  0  0  0  0  0  0  0  0  0
   37.6992  -26.9322    7.1774 C   0  0  0  0  0  0  0  0  0  0  0  0
   38.6384  -27.8272    6.4585 C   0  0  0  0  0  0  0  0  0  0  0  0
   38.1919  -28.5456    5.4857 O   0  0  0  0  0  0  0  0  0  0  0  0
   40.0031  -27.9816    6.7312 N   0  0  0  0  0  0  0  0  0  0  0  0
   40.8790  -28.8042    5.8990 C   0  0  1  0  0  0  0  0  0  0  0  0
   40.7007  -28.4737    4.4509 C   0  0  0  0  0  0  0  0  0  0  0  0
   41.5832  -29.3232    3.5869 C   0  0  0  0  0  0  0  0  0  0  0  0
   41.3770  -29.0134    2.1063 C   0  0  0  0  0  0  0  0  0  0  0  0
   42.2644  -29.8291    1.2200 C   0  0  0  0  0  0  0  0  0  0  0  0
   42.1120  -29.5480   -0.1709 N   0  0  0  0  0  0  0  0  0  0  0  0
   42.2590  -28.7530    6.3367 C   0  0  0  0  0  0  0  0  0  0  0  0
   43.1739  -29.7494    6.2008 O   0  0  0  0  0  0  0  0  0  0  0  0
   42.6604  -27.6730    6.9104 O   0  0  0  0  0  0  0  0  0  0  0  0
  1  2  1  0
  2 12  2  0
  2  3  1  0
  3  4  2  0
  4  5  1  0
  5  6  1  0
  6  7  1  0
  7  8  1  6
  7  9  1  0
  9 10  2  0
 11  5  2  0
 12 11  1  0
 13  9  1  0
 13 14  1  0
 15 14  1  0
 15 17  1  0
 16 15  2  0
 18 17  1  0
 18 24  1  0
 18 19  1  6
 20 19  1  0
 21 20  1  0
 21 22  1  0
 23 22  1  0
 24 26  2  0
 24 25  1  0
M  END
$$$$
