YGK.pdb
     RDKit          3D

 26 26  0  0  1  0  0  0  0  0999 V2000
   21.8055  -18.4272  -22.7510 O   0  0  0  0  0  0  0  0  0  0  0  0
   22.1932  -18.7385  -21.4387 C   0  0  0  0  0  0  0  0  0  0  0  0
   21.6211  -17.9978  -20.4297 C   0  0  0  0  0  0  0  0  0  0  0  0
   21.9956  -18.2963  -19.1366 C   0  0  0  0  0  0  0  0  0  0  0  0
   22.9081  -19.2978  -18.8618 C   0  0  0  0  0  0  0  0  0  0  0  0
   23.2710  -19.5420  -17.4546 C   0  0  0  0  0  0  0  0  0  0  0  0
   24.2007  -18.4660  -16.9761 C   0  0  2  0  0  0  0  0  0  0  0  0
   25.4508  -18.6195  -17.7188 N   0  0  0  0  0  0  0  0  0  0  0  0
   24.4099  -18.5712  -15.5339 C   0  0  0  0  0  0  0  0  0  0  0  0
   23.4824  -18.4747  -14.6979 O   0  0  0  0  0  0  0  0  0  0  0  0
   23.4501  -20.0069  -19.8965 C   0  0  0  0  0  0  0  0  0  0  0  0
   23.0955  -19.7341  -21.2225 C   0  0  0  0  0  0  0  0  0  0  0  0
   25.7327  -18.7955  -15.0285 N   0  0  0  0  0  0  0  0  0  0  0  0
   26.0337  -18.7912  -13.6430 C   0  0  0  0  0  0  0  0  0  0  0  0
   25.1943  -19.6713  -12.7940 C   0  0  0  0  0  0  0  0  0  0  0  0
   24.4553  -20.5624  -13.3612 O   0  0  0  0  0  0  0  0  0  0  0  0
   25.1151  -19.6381  -11.3965 N   0  0  0  0  0  0  0  0  0  0  0  0
   24.3952  -20.6529  -10.6293 C   0  0  1  0  0  0  0  0  0  0  0  0
   24.6098  -20.4609   -9.1613 C   0  0  0  0  0  0  0  0  0  0  0  0
   26.0411  -20.1333   -8.8596 C   0  0  0  0  0  0  0  0  0  0  0  0
   26.2392  -19.8156   -7.3795 C   0  0  0  0  0  0  0  0  0  0  0  0
   27.6724  -19.5621   -7.0335 C   0  0  0  0  0  0  0  0  0  0  0  0
   27.8995  -19.3144   -5.6464 N   0  0  0  0  0  0  0  0  0  0  0  0
   22.9979  -20.7342  -11.0023 C   0  0  0  0  0  0  0  0  0  0  0  0
   22.2136  -21.8411  -10.9117 O   0  0  0  0  0  0  0  0  0  0  0  0
   22.4439  -19.6689  -11.4658 O   0  0  0  0  0  0  0  0  0  0  0  0
  1  2  1  0
  2 12  2  0
  2  3  1  0
  3  4  2  0
  4  5  1  0
  5  6  1  0
  6  7  1  0
  7  8  1  6
  7  9  1  0
  9 10  2  0
 11  5  2  0
 12 11  1  0
 13  9  1  0
 13 14  1  0
 15 14  1  0
 15 17  1  0
 16 15  2  0
 18 17  1  0
 18 24  1  0
 18 19  1  1
 20 19  1  0
 21 20  1  0
 21 22  1  0
 23 22  1  0
 24 26  2  0
 24 25  1  0
M  END
$$$$
