YGK.pdb
     RDKit          3D

 26 26  0  0  1  0  0  0  0  0999 V2000
   29.5898  -19.0617   -5.1633 O   0  0  0  0  0  0  0  0  0  0  0  0
   28.5003  -19.3514   -5.9989 C   0  0  0  0  0  0  0  0  0  0  0  0
   28.1330  -20.6735   -6.1049 C   0  0  0  0  0  0  0  0  0  0  0  0
   27.0634  -20.9684   -6.9237 C   0  0  0  0  0  0  0  0  0  0  0  0
   26.3857  -19.9788   -7.6111 C   0  0  0  0  0  0  0  0  0  0  0  0
   25.2655  -20.3780   -8.4815 C   0  0  0  0  0  0  0  0  0  0  0  0
   25.7936  -20.8481   -9.8048 C   0  0  2  0  0  0  0  0  0  0  0  0
   26.6627  -19.7906  -10.3187 N   0  0  0  0  0  0  0  0  0  0  0  0
   24.6946  -21.1411  -10.7221 C   0  0  0  0  0  0  0  0  0  0  0  0
   23.9392  -22.1314  -10.5927 O   0  0  0  0  0  0  0  0  0  0  0  0
   26.7865  -18.6795   -7.4749 C   0  0  0  0  0  0  0  0  0  0  0  0
   27.8674  -18.3400   -6.6535 C   0  0  0  0  0  0  0  0  0  0  0  0
   24.4508  -20.2659  -11.8313 N   0  0  0  0  0  0  0  0  0  0  0  0
   23.4674  -20.5348  -12.8166 C   0  0  0  0  0  0  0  0  0  0  0  0
   22.3718  -21.4472  -12.4077 C   0  0  0  0  0  0  0  0  0  0  0  0
   22.5775  -22.2711  -11.4378 O   0  0  0  0  0  0  0  0  0  0  0  0
   21.0957  -21.5127  -12.9801 N   0  0  0  0  0  0  0  0  0  0  0  0
   20.1149  -22.5244  -12.5917 C   0  0  1  0  0  0  0  0  0  0  0  0
   19.9540  -22.5655  -11.1049 C   0  0  0  0  0  0  0  0  0  0  0  0
   18.9611  -23.6107  -10.6944 C   0  0  0  0  0  0  0  0  0  0  0  0
   18.8655  -23.7211   -9.1747 C   0  0  0  0  0  0  0  0  0  0  0  0
   17.8981  -24.7743   -8.7353 C   0  0  0  0  0  0  0  0  0  0  0  0
   17.8962  -25.0096   -7.3276 N   0  0  0  0  0  0  0  0  0  0  0  0
   18.8621  -22.3764  -13.3036 C   0  0  0  0  0  0  0  0  0  0  0  0
   18.2009  -21.2075  -13.5154 O   0  0  0  0  0  0  0  0  0  0  0  0
   18.3182  -23.4428  -13.7766 O   0  0  0  0  0  0  0  0  0  0  0  0
  1  2  1  0
  2 12  2  0
  2  3  1  0
  3  4  2  0
  4  5  1  0
  5  6  1  0
  6  7  1  0
  7  8  1  6
  7  9  1  0
  9 10  2  0
 11  5  2  0
 12 11  1  0
 13  9  1  0
 13 14  1  0
 15 14  1  0
 15 17  1  0
 16 15  2  0
 18 17  1  0
 18 24  1  0
 18 19  1  1
 20 19  1  0
 21 20  1  0
 21 22  1  0
 23 22  1  0
 24 26  2  0
 24 25  1  0
M  END
$$$$
