YGK.pdb
     RDKit          3D

 26 26  0  0  1  0  0  0  0  0999 V2000
   22.9258  -15.3277  -23.4716 O   0  0  0  0  0  0  0  0  0  0  0  0
   22.4323  -14.4470  -22.4968 C   0  0  0  0  0  0  0  0  0  0  0  0
   21.0753  -14.4704  -22.2683 C   0  0  0  0  0  0  0  0  0  0  0  0
   20.5808  -13.6086  -21.3122 C   0  0  0  0  0  0  0  0  0  0  0  0
   21.4113  -12.7550  -20.6103 C   0  0  0  0  0  0  0  0  0  0  0  0
   20.8026  -11.8505  -19.6188 C   0  0  0  0  0  0  0  0  0  0  0  0
   21.0071  -12.3998  -18.2378 C   0  0  2  0  0  0  0  0  0  0  0  0
   20.3926  -13.7262  -18.2096 N   0  0  0  0  0  0  0  0  0  0  0  0
   20.4217  -11.5091  -17.2383 C   0  0  0  0  0  0  0  0  0  0  0  0
   19.3200  -11.7294  -16.6852 O   0  0  0  0  0  0  0  0  0  0  0  0
   22.7526  -12.7669  -20.8715 C   0  0  0  0  0  0  0  0  0  0  0  0
   23.2928  -13.6269  -21.8343 C   0  0  0  0  0  0  0  0  0  0  0  0
   21.1251  -10.3194  -16.8569 N   0  0  0  0  0  0  0  0  0  0  0  0
   20.5733   -9.3522  -15.9794 C   0  0  0  0  0  0  0  0  0  0  0  0
   21.4675   -8.2290  -15.6067 C   0  0  0  0  0  0  0  0  0  0  0  0
   22.6117   -8.1243  -16.1912 O   0  0  0  0  0  0  0  0  0  0  0  0
   21.1944   -7.2370  -14.6570 N   0  0  0  0  0  0  0  0  0  0  0  0
   21.9554   -5.9911  -14.5861 C   0  0  1  0  0  0  0  0  0  0  0  0
   22.1601   -5.4149  -15.9514 C   0  0  0  0  0  0  0  0  0  0  0  0
   22.9506   -4.1427  -15.8914 C   0  0  0  0  0  0  0  0  0  0  0  0
   23.1465   -3.5432  -17.2817 C   0  0  0  0  0  0  0  0  0  0  0  0
   23.8510   -2.2239  -17.2440 C   0  0  0  0  0  0  0  0  0  0  0  0
   23.9105   -1.5615  -18.5068 N   0  0  0  0  0  0  0  0  0  0  0  0
   21.3838   -5.0516  -13.6432 C   0  0  0  0  0  0  0  0  0  0  0  0
   22.0647   -4.0861  -12.9705 O   0  0  0  0  0  0  0  0  0  0  0  0
   20.1201   -5.1356  -13.4133 O   0  0  0  0  0  0  0  0  0  0  0  0
  1  2  1  0
  2 12  2  0
  2  3  1  0
  3  4  2  0
  4  5  1  0
  5  6  1  0
  6  7  1  0
  7  8  1  6
  7  9  1  0
  9 10  2  0
 11  5  2  0
 12 11  1  0
 13  9  1  0
 13 14  1  0
 15 14  1  0
 15 17  1  0
 16 15  2  0
 18 17  1  0
 18 24  1  0
 18 19  1  6
 20 19  1  0
 21 20  1  0
 21 22  1  0
 23 22  1  0
 24 26  2  0
 24 25  1  0
M  END
$$$$
