YGK.pdb
     RDKit          3D

 26 26  0  0  1  0  0  0  0  0999 V2000
   28.6010  -18.4684   -4.1042 O   0  0  0  0  0  0  0  0  0  0  0  0
   28.1820  -19.2056   -5.2223 C   0  0  0  0  0  0  0  0  0  0  0  0
   28.9822  -19.1470   -6.3405 C   0  0  0  0  0  0  0  0  0  0  0  0
   28.5789  -19.8681   -7.4444 C   0  0  0  0  0  0  0  0  0  0  0  0
   27.4191  -20.6202   -7.4317 C   0  0  0  0  0  0  0  0  0  0  0  0
   27.0468  -21.3468   -8.6585 C   0  0  0  0  0  0  0  0  0  0  0  0
   26.2635  -20.4438   -9.5652 C   0  0  2  0  0  0  0  0  0  0  0  0
   24.9060  -20.3703   -9.0270 N   0  0  0  0  0  0  0  0  0  0  0  0
   26.2774  -20.9527  -10.9348 C   0  0  0  0  0  0  0  0  0  0  0  0
   25.5576  -21.9020  -11.3207 O   0  0  0  0  0  0  0  0  0  0  0  0
   26.6561  -20.6482   -6.2983 C   0  0  0  0  0  0  0  0  0  0  0  0
   27.0317  -19.9298   -5.1575 C   0  0  0  0  0  0  0  0  0  0  0  0
   27.1498  -20.3513  -11.9008 N   0  0  0  0  0  0  0  0  0  0  0  0
   27.2931  -20.8524  -13.2193 C   0  0  0  0  0  0  0  0  0  0  0  0
   26.0872  -20.7706  -14.0790 C   0  0  0  0  0  0  0  0  0  0  0  0
   26.1872  -21.0921  -15.3234 O   0  0  0  0  0  0  0  0  0  0  0  0
   24.8092  -20.3687  -13.6718 N   0  0  0  0  0  0  0  0  0  0  0  0
   23.6446  -20.4559  -14.5507 C   0  0  1  0  0  0  0  0  0  0  0  0
   22.3780  -20.4704  -13.7548 C   0  0  0  0  0  0  0  0  0  0  0  0
   21.1792  -20.6122  -14.6436 C   0  0  0  0  0  0  0  0  0  0  0  0
   19.8840  -20.6115  -13.8353 C   0  0  0  0  0  0  0  0  0  0  0  0
   18.6717  -20.7899  -14.6936 C   0  0  0  0  0  0  0  0  0  0  0  0
   17.4376  -20.6718  -13.9865 N   0  0  0  0  0  0  0  0  0  0  0  0
   23.6626  -19.4447  -15.5878 C   0  0  0  0  0  0  0  0  0  0  0  0
   23.3446  -19.6405  -16.8951 O   0  0  0  0  0  0  0  0  0  0  0  0
   24.0145  -18.2536  -15.2499 O   0  0  0  0  0  0  0  0  0  0  0  0
  1  2  1  0
  2 12  2  0
  2  3  1  0
  3  4  2  0
  4  5  1  0
  5  6  1  0
  6  7  1  0
  7  8  1  1
  7  9  1  0
  9 10  2  0
 11  5  2  0
 12 11  1  0
 13  9  1  0
 13 14  1  0
 15 14  1  0
 15 17  1  0
 16 15  2  0
 18 17  1  0
 18 24  1  0
 18 19  1  1
 20 19  1  0
 21 20  1  0
 21 22  1  0
 23 22  1  0
 24 26  2  0
 24 25  1  0
M  END
$$$$
