YGK.pdb
     RDKit          3D

 26 26  0  0  1  0  0  0  0  0999 V2000
   26.6780  -20.1229   -7.3310 O   0  0  0  0  0  0  0  0  0  0  0  0
   26.2896  -20.5944   -8.5944 C   0  0  0  0  0  0  0  0  0  0  0  0
   27.2430  -21.2631   -9.3279 C   0  0  0  0  0  0  0  0  0  0  0  0
   26.8709  -21.7303  -10.5707 C   0  0  0  0  0  0  0  0  0  0  0  0
   25.5936  -21.5367  -11.0626 C   0  0  0  0  0  0  0  0  0  0  0  0
   25.2805  -22.0494  -12.4082 C   0  0  0  0  0  0  0  0  0  0  0  0
   25.8049  -21.1023  -13.4469 C   0  0  2  0  0  0  0  0  0  0  0  0
   25.9123  -19.7891  -12.8132 N   0  0  0  0  0  0  0  0  0  0  0  0
   24.9204  -21.0731  -14.6095 C   0  0  0  0  0  0  0  0  0  0  0  0
   24.7258  -22.0657  -15.3479 O   0  0  0  0  0  0  0  0  0  0  0  0
   24.6803  -20.8666  -10.2982 C   0  0  0  0  0  0  0  0  0  0  0  0
   25.0194  -20.3771   -9.0318 C   0  0  0  0  0  0  0  0  0  0  0  0
   24.2314  -19.8599  -14.9400 N   0  0  0  0  0  0  0  0  0  0  0  0
   23.4346  -19.7253  -16.1050 C   0  0  0  0  0  0  0  0  0  0  0  0
   22.0491  -20.2456  -16.0072 C   0  0  0  0  0  0  0  0  0  0  0  0
   21.8512  -21.3859  -15.4394 O   0  0  0  0  0  0  0  0  0  0  0  0
   20.8941  -19.6111  -16.4806 N   0  0  0  0  0  0  0  0  0  0  0  0
   19.5650  -20.2043  -16.3469 C   0  0  1  0  0  0  0  0  0  0  0  0
   18.5336  -19.3545  -17.0192 C   0  0  0  0  0  0  0  0  0  0  0  0
   17.4163  -19.0113  -16.0807 C   0  0  0  0  0  0  0  0  0  0  0  0
   16.3213  -18.2153  -16.7865 C   0  0  0  0  0  0  0  0  0  0  0  0
   15.1286  -17.9813  -15.9141 C   0  0  0  0  0  0  0  0  0  0  0  0
   14.0412  -17.3382  -16.5781 N   0  0  0  0  0  0  0  0  0  0  0  0
   19.5368  -21.5892  -16.7707 C   0  0  0  0  0  0  0  0  0  0  0  0
   20.2337  -22.1166  -17.8122 O   0  0  0  0  0  0  0  0  0  0  0  0
   18.7837  -22.3973  -16.1100 O   0  0  0  0  0  0  0  0  0  0  0  0
  1  2  1  0
  2 12  2  0
  2  3  1  0
  3  4  2  0
  4  5  1  0
  5  6  1  0
  6  7  1  0
  7  8  1  1
  7  9  1  0
  9 10  2  0
 11  5  2  0
 12 11  1  0
 13  9  1  0
 13 14  1  0
 15 14  1  0
 15 17  1  0
 16 15  2  0
 18 17  1  0
 18 24  1  0
 18 19  1  6
 20 19  1  0
 21 20  1  0
 21 22  1  0
 23 22  1  0
 24 26  2  0
 24 25  1  0
M  END
$$$$
