YGK.pdb
     RDKit          3D

 26 26  0  0  1  0  0  0  0  0999 V2000
   22.8085  -21.2047   -8.6945 O   0  0  0  0  0  0  0  0  0  0  0  0
   23.7952  -20.9015   -9.6451 C   0  0  0  0  0  0  0  0  0  0  0  0
   23.3601  -20.4408  -10.8668 C   0  0  0  0  0  0  0  0  0  0  0  0
   24.3222  -20.1400  -11.8077 C   0  0  0  0  0  0  0  0  0  0  0  0
   25.6693  -20.2937  -11.5380 C   0  0  0  0  0  0  0  0  0  0  0  0
   26.6342  -19.9692  -12.6035 C   0  0  0  0  0  0  0  0  0  0  0  0
   26.1266  -20.4788  -13.9203 C   0  0  2  0  0  0  0  0  0  0  0  0
   26.1739  -21.9389  -13.8608 N   0  0  0  0  0  0  0  0  0  0  0  0
   26.9330  -19.9540  -15.0199 C   0  0  0  0  0  0  0  0  0  0  0  0
   27.0751  -18.7298  -15.2424 O   0  0  0  0  0  0  0  0  0  0  0  0
   26.0542  -20.7545  -10.3105 C   0  0  0  0  0  0  0  0  0  0  0  0
   25.1080  -21.0706   -9.3290 C   0  0  0  0  0  0  0  0  0  0  0  0
   27.6032  -20.8664  -15.8998 N   0  0  0  0  0  0  0  0  0  0  0  0
   28.3628  -20.4345  -17.0162 C   0  0  0  0  0  0  0  0  0  0  0  0
   27.5851  -19.9331  -18.1754 C   0  0  0  0  0  0  0  0  0  0  0  0
   26.3967  -20.3920  -18.3728 O   0  0  0  0  0  0  0  0  0  0  0  0
   28.0162  -18.9835  -19.1097 N   0  0  0  0  0  0  0  0  0  0  0  0
   27.1910  -18.5706  -20.2433 C   0  0  1  0  0  0  0  0  0  0  0  0
   27.5354  -17.1795  -20.6726 C   0  0  0  0  0  0  0  0  0  0  0  0
   26.5347  -16.1887  -20.1589 C   0  0  0  0  0  0  0  0  0  0  0  0
   26.8943  -14.7657  -20.5789 C   0  0  0  0  0  0  0  0  0  0  0  0
   25.9511  -13.7469  -20.0216 C   0  0  0  0  0  0  0  0  0  0  0  0
   26.3298  -12.3973  -20.2901 N   0  0  0  0  0  0  0  0  0  0  0  0
   27.2236  -19.5330  -21.3254 C   0  0  0  0  0  0  0  0  0  0  0  0
   26.1875  -19.8357  -22.1520 O   0  0  0  0  0  0  0  0  0  0  0  0
   28.3269  -20.1650  -21.5251 O   0  0  0  0  0  0  0  0  0  0  0  0
  1  2  1  0
  2 12  2  0
  2  3  1  0
  3  4  2  0
  4  5  1  0
  5  6  1  0
  6  7  1  0
  7  8  1  1
  7  9  1  0
  9 10  2  0
 11  5  2  0
 12 11  1  0
 13  9  1  0
 13 14  1  0
 15 14  1  0
 15 17  1  0
 16 15  2  0
 18 17  1  0
 18 24  1  0
 18 19  1  6
 20 19  1  0
 21 20  1  0
 21 22  1  0
 23 22  1  0
 24 26  2  0
 24 25  1  0
M  END
$$$$
