YGK.pdb
     RDKit          3D

 26 26  0  0  1  0  0  0  0  0999 V2000
   23.0326  -15.8636  -23.5355 O   0  0  0  0  0  0  0  0  0  0  0  0
   23.0008  -16.2833  -22.1968 C   0  0  0  0  0  0  0  0  0  0  0  0
   24.0217  -15.8458  -21.3841 C   0  0  0  0  0  0  0  0  0  0  0  0
   23.9991  -16.2529  -20.0669 C   0  0  0  0  0  0  0  0  0  0  0  0
   22.9938  -17.0671  -19.5795 C   0  0  0  0  0  0  0  0  0  0  0  0
   23.0521  -17.4743  -18.1645 C   0  0  0  0  0  0  0  0  0  0  0  0
   23.6518  -18.8452  -18.0552 C   0  0  2  0  0  0  0  0  0  0  0  0
   22.7667  -19.7581  -18.7769 N   0  0  0  0  0  0  0  0  0  0  0  0
   23.8027  -19.2301  -16.6538 C   0  0  0  0  0  0  0  0  0  0  0  0
   24.4465  -18.5507  -15.8218 O   0  0  0  0  0  0  0  0  0  0  0  0
   22.0006  -17.4768  -20.4241 C   0  0  0  0  0  0  0  0  0  0  0  0
   21.9884  -17.0850  -21.7675 C   0  0  0  0  0  0  0  0  0  0  0  0
   23.1926  -20.4404  -16.1862 N   0  0  0  0  0  0  0  0  0  0  0  0
   23.2213  -20.8356  -14.8249 C   0  0  0  0  0  0  0  0  0  0  0  0
   21.9015  -20.9845  -14.1646 C   0  0  0  0  0  0  0  0  0  0  0  0
   20.8478  -20.5665  -14.7785 O   0  0  0  0  0  0  0  0  0  0  0  0
   21.6683  -21.5487  -12.9045 N   0  0  0  0  0  0  0  0  0  0  0  0
   20.3208  -21.8015  -12.3978 C   0  0  1  0  0  0  0  0  0  0  0  0
   20.3647  -22.6729  -11.1825 C   0  0  0  0  0  0  0  0  0  0  0  0
   18.9842  -23.0110  -10.7061 C   0  0  0  0  0  0  0  0  0  0  0  0
   19.0256  -23.9286   -9.4866 C   0  0  0  0  0  0  0  0  0  0  0  0
   17.6609  -24.3315   -9.0247 C   0  0  0  0  0  0  0  0  0  0  0  0
   17.6654  -25.2333   -7.9185 N   0  0  0  0  0  0  0  0  0  0  0  0
   19.5688  -20.5786  -12.2039 C   0  0  0  0  0  0  0  0  0  0  0  0
   18.2435  -20.4114  -12.4567 O   0  0  0  0  0  0  0  0  0  0  0  0
   20.2067  -19.5538  -11.7573 O   0  0  0  0  0  0  0  0  0  0  0  0
  1  2  1  0
  2 12  2  0
  2  3  1  0
  3  4  2  0
  4  5  1  0
  5  6  1  0
  6  7  1  0
  7  8  1  6
  7  9  1  0
  9 10  2  0
 11  5  2  0
 12 11  1  0
 13  9  1  0
 13 14  1  0
 15 14  1  0
 15 17  1  0
 16 15  2  0
 18 17  1  0
 18 24  1  0
 18 19  1  1
 20 19  1  0
 21 20  1  0
 21 22  1  0
 23 22  1  0
 24 26  2  0
 24 25  1  0
M  END
$$$$
