YGK.pdb
     RDKit          3D

 26 26  0  0  1  0  0  0  0  0999 V2000
   19.2227  -12.3491    1.7895 O   0  0  0  0  0  0  0  0  0  0  0  0
   18.8835  -12.9137    3.0286 C   0  0  0  0  0  0  0  0  0  0  0  0
   18.5085  -14.2379    3.0261 C   0  0  0  0  0  0  0  0  0  0  0  0
   18.1735  -14.8019    4.2390 C   0  0  0  0  0  0  0  0  0  0  0  0
   18.2116  -14.0699    5.4111 C   0  0  0  0  0  0  0  0  0  0  0  0
   17.8196  -14.7401    6.6636 C   0  0  0  0  0  0  0  0  0  0  0  0
   16.3549  -15.0636    6.6293 C   0  0  2  0  0  0  0  0  0  0  0  0
   15.6351  -13.7913    6.6586 N   0  0  0  0  0  0  0  0  0  0  0  0
   15.9908  -15.9192    7.7563 C   0  0  0  0  0  0  0  0  0  0  0  0
   15.8418  -15.4895    8.9231 O   0  0  0  0  0  0  0  0  0  0  0  0
   18.5901  -12.7577    5.3646 C   0  0  0  0  0  0  0  0  0  0  0  0
   18.9377  -12.1493    4.1532 C   0  0  0  0  0  0  0  0  0  0  0  0
   15.7894  -17.3221    7.5393 N   0  0  0  0  0  0  0  0  0  0  0  0
   15.5151  -18.2281    8.5947 C   0  0  0  0  0  0  0  0  0  0  0  0
   16.4802  -19.3421    8.7608 C   0  0  0  0  0  0  0  0  0  0  0  0
   17.5051  -19.3990    7.9809 O   0  0  0  0  0  0  0  0  0  0  0  0
   16.3959  -20.3731    9.7045 N   0  0  0  0  0  0  0  0  0  0  0  0
   17.3767  -21.4548    9.7711 C   0  0  1  0  0  0  0  0  0  0  0  0
   17.7212  -21.7731   11.1916 C   0  0  0  0  0  0  0  0  0  0  0  0
   18.4978  -20.6586   11.8254 C   0  0  0  0  0  0  0  0  0  0  0  0
   18.8711  -20.9905   13.2681 C   0  0  0  0  0  0  0  0  0  0  0  0
   19.6068  -19.8756   13.9418 C   0  0  0  0  0  0  0  0  0  0  0  0
   19.9540  -20.1464   15.2994 N   0  0  0  0  0  0  0  0  0  0  0  0
   16.9693  -22.6133    9.0028 C   0  0  0  0  0  0  0  0  0  0  0  0
   17.8032  -23.4878    8.3797 O   0  0  0  0  0  0  0  0  0  0  0  0
   15.7069  -22.8384    8.8919 O   0  0  0  0  0  0  0  0  0  0  0  0
  1  2  1  0
  2 12  2  0
  2  3  1  0
  3  4  2  0
  4  5  1  0
  5  6  1  0
  6  7  1  0
  7  8  1  1
  7  9  1  0
  9 10  2  0
 11  5  2  0
 12 11  1  0
 13  9  1  0
 13 14  1  0
 15 14  1  0
 15 17  1  0
 16 15  2  0
 18 17  1  0
 18 24  1  0
 18 19  1  1
 20 19  1  0
 21 20  1  0
 21 22  1  0
 23 22  1  0
 24 26  2  0
 24 25  1  0
M  END
$$$$
