YGK.pdb
     RDKit          3D

 26 26  0  0  1  0  0  0  0  0999 V2000
   25.9957   -2.5668  -19.6286 O   0  0  0  0  0  0  0  0  0  0  0  0
   25.4698   -3.3356  -18.5790 C   0  0  0  0  0  0  0  0  0  0  0  0
   24.7049   -4.4247  -18.9295 C   0  0  0  0  0  0  0  0  0  0  0  0
   24.1837   -5.1865  -17.9051 C   0  0  0  0  0  0  0  0  0  0  0  0
   24.4180   -4.8719  -16.5795 C   0  0  0  0  0  0  0  0  0  0  0  0
   23.8090   -5.7245  -15.5433 C   0  0  0  0  0  0  0  0  0  0  0  0
   22.4549   -5.1911  -15.1785 C   0  0  2  0  0  0  0  0  0  0  0  0
   22.6709   -3.9817  -14.3857 N   0  0  0  0  0  0  0  0  0  0  0  0
   21.6890   -6.1936  -14.4414 C   0  0  0  0  0  0  0  0  0  0  0  0
   21.7092   -6.2902  -13.1930 O   0  0  0  0  0  0  0  0  0  0  0  0
   25.1838   -3.7805  -16.2796 C   0  0  0  0  0  0  0  0  0  0  0  0
   25.7305   -2.9825  -17.2909 C   0  0  0  0  0  0  0  0  0  0  0  0
   20.8676   -7.1221  -15.1617 N   0  0  0  0  0  0  0  0  0  0  0  0
   20.1306   -8.1495  -14.5202 C   0  0  0  0  0  0  0  0  0  0  0  0
   19.3481   -9.0401  -15.4116 C   0  0  0  0  0  0  0  0  0  0  0  0
   19.1586   -8.6845  -16.6361 O   0  0  0  0  0  0  0  0  0  0  0  0
   18.7737  -10.2664  -15.0551 N   0  0  0  0  0  0  0  0  0  0  0  0
   17.6950  -10.8791  -15.8280 C   0  0  1  0  0  0  0  0  0  0  0  0
   17.0131  -11.9480  -15.0340 C   0  0  0  0  0  0  0  0  0  0  0  0
   17.0992  -13.2760  -15.7240 C   0  0  0  0  0  0  0  0  0  0  0  0
   16.3702  -14.3611  -14.9354 C   0  0  0  0  0  0  0  0  0  0  0  0
   16.2377  -15.6381  -15.7035 C   0  0  0  0  0  0  0  0  0  0  0  0
   15.6216  -16.6957  -14.9693 N   0  0  0  0  0  0  0  0  0  0  0  0
   16.7828   -9.8948  -16.3732 C   0  0  0  0  0  0  0  0  0  0  0  0
   16.5045   -9.7124  -17.6915 O   0  0  0  0  0  0  0  0  0  0  0  0
   16.1821   -9.1170  -15.5420 O   0  0  0  0  0  0  0  0  0  0  0  0
  1  2  1  0
  2 12  2  0
  2  3  1  0
  3  4  2  0
  4  5  1  0
  5  6  1  0
  6  7  1  0
  7  8  1  1
  7  9  1  0
  9 10  2  0
 11  5  2  0
 12 11  1  0
 13  9  1  0
 13 14  1  0
 15 14  1  0
 15 17  1  0
 16 15  2  0
 18 17  1  0
 18 24  1  0
 18 19  1  1
 20 19  1  0
 21 20  1  0
 21 22  1  0
 23 22  1  0
 24 26  2  0
 24 25  1  0
M  END
$$$$
