AYS.pdb
     RDKit          3D

 24 24  0  0  1  0  0  0  0  0999 V2000
   30.3304  -20.4045  -11.9055 C   0  0  0  0  0  0  0  0  0  0  0  0
   30.1858  -21.0277  -10.5169 C   0  0  2  0  0  0  0  0  0  0  0  0
   30.8923  -22.2731  -10.4242 N   0  0  0  0  0  0  0  0  0  0  0  0
   28.7462  -21.2331  -10.2206 C   0  0  0  0  0  0  0  0  0  0  0  0
   28.2330  -22.3723  -10.3820 O   0  0  0  0  0  0  0  0  0  0  0  0
   28.7603  -20.3934   -3.5373 O   0  0  0  0  0  0  0  0  0  0  0  0
   28.0563  -20.2241   -4.7260 C   0  0  0  0  0  0  0  0  0  0  0  0
   28.3265  -19.1108   -5.5012 C   0  0  0  0  0  0  0  0  0  0  0  0
   27.6463  -18.8984   -6.7004 C   0  0  0  0  0  0  0  0  0  0  0  0
   26.6946  -19.7991   -7.1265 C   0  0  0  0  0  0  0  0  0  0  0  0
   25.9673  -19.5704   -8.4107 C   0  0  0  0  0  0  0  0  0  0  0  0
   26.5363  -20.4291   -9.5176 C   0  0  2  0  0  0  0  0  0  0  0  0
   27.9271  -20.1686   -9.7560 N   0  0  0  0  0  0  0  0  0  0  0  0
   25.7244  -20.2092  -10.7346 C   0  0  0  0  0  0  0  0  0  0  0  0
   25.9156  -19.1774  -11.4476 O   0  0  0  0  0  0  0  0  0  0  0  0
   26.4395  -20.8998   -6.3428 C   0  0  0  0  0  0  0  0  0  0  0  0
   27.1102  -21.1242   -5.1446 C   0  0  0  0  0  0  0  0  0  0  0  0
   24.3679  -23.3440  -12.5117 O   0  0  0  0  0  0  0  0  0  0  0  0
   24.3000  -22.1629  -13.2482 C   0  0  0  0  0  0  0  0  0  0  0  0
   23.9383  -21.0092  -12.3142 C   0  0  2  0  0  0  0  0  0  0  0  0
   24.7356  -21.1587  -11.0945 N   0  0  0  0  0  0  0  0  0  0  0  0
   22.5103  -21.0921  -11.9493 C   0  0  0  0  0  0  0  0  0  0  0  0
   21.6374  -20.9943  -12.8272 O   0  0  0  0  0  0  0  0  0  0  0  0
   22.1874  -21.2792  -10.6189 O   0  0  0  0  0  0  0  0  0  0  0  0
  2  1  1  6
  2  4  1  0
  2  3  1  0
  4  5  2  0
  6  7  1  0
  7  8  2  0
  7 17  1  0
  8  9  1  0
  9 10  2  0
 10 11  1  0
 12 11  1  1
 12 14  1  0
 13 12  1  0
 13  4  1  0
 14 15  2  0
 16 10  1  0
 17 16  2  0
 18 19  1  0
 20 19  1  6
 20 22  1  0
 21 20  1  0
 21 14  1  0
 22 23  2  0
 22 24  1  0
M  END
$$$$
