AYS.pdb
     RDKit          3D

 24 24  0  0  1  0  0  0  0  0999 V2000
   22.2981  -24.3250  -15.9393 C   0  0  0  0  0  0  0  0  0  0  0  0
   21.8105  -22.9125  -15.6155 C   0  0  2  0  0  0  0  0  0  0  0  0
   22.8805  -21.9591  -15.6842 N   0  0  0  0  0  0  0  0  0  0  0  0
   21.2035  -22.9032  -14.2613 C   0  0  0  0  0  0  0  0  0  0  0  0
   21.9465  -22.9493  -13.2449 O   0  0  0  0  0  0  0  0  0  0  0  0
   20.3592  -16.4974  -13.7384 O   0  0  0  0  0  0  0  0  0  0  0  0
   19.8427  -17.7536  -13.4344 C   0  0  0  0  0  0  0  0  0  0  0  0
   19.2836  -18.5025  -14.4540 C   0  0  0  0  0  0  0  0  0  0  0  0
   18.7532  -19.7670  -14.1978 C   0  0  0  0  0  0  0  0  0  0  0  0
   18.7812  -20.2848  -12.9211 C   0  0  0  0  0  0  0  0  0  0  0  0
   18.2131  -21.6388  -12.6483 C   0  0  0  0  0  0  0  0  0  0  0  0
   19.2795  -22.7058  -12.7500 C   0  0  2  0  0  0  0  0  0  0  0  0
   19.7948  -22.8432  -14.0822 N   0  0  0  0  0  0  0  0  0  0  0  0
   18.7081  -23.9769  -12.2533 C   0  0  0  0  0  0  0  0  0  0  0  0
   18.1995  -24.8057  -13.0682 O   0  0  0  0  0  0  0  0  0  0  0  0
   19.3411  -19.5259  -11.9204 C   0  0  0  0  0  0  0  0  0  0  0  0
   19.8736  -18.2633  -12.1617 C   0  0  0  0  0  0  0  0  0  0  0  0
   18.7256  -24.5596   -8.2164 O   0  0  0  0  0  0  0  0  0  0  0  0
   18.9567  -25.7195   -8.9537 C   0  0  0  0  0  0  0  0  0  0  0  0
   18.3334  -25.5655  -10.3400 C   0  0  2  0  0  0  0  0  0  0  0  0
   18.7347  -24.2579  -10.8645 N   0  0  0  0  0  0  0  0  0  0  0  0
   16.8614  -25.5907  -10.2303 C   0  0  0  0  0  0  0  0  0  0  0  0
   16.2084  -24.5457  -10.3845 O   0  0  0  0  0  0  0  0  0  0  0  0
   16.2490  -26.7982   -9.9548 O   0  0  0  0  0  0  0  0  0  0  0  0
  2  1  1  1
  2  4  1  0
  2  3  1  0
  4  5  2  0
  6  7  1  0
  7  8  2  0
  7 17  1  0
  8  9  1  0
  9 10  2  0
 10 11  1  0
 12 11  1  6
 12 14  1  0
 13 12  1  0
 13  4  1  0
 14 15  2  0
 16 10  1  0
 17 16  2  0
 18 19  1  0
 20 19  1  1
 20 22  1  0
 21 20  1  0
 21 14  1  0
 22 23  2  0
 22 24  1  0
M  END
$$$$
