AYS.pdb
     RDKit          3D

 24 24  0  0  1  0  0  0  0  0999 V2000
   24.6416  -10.6473  -14.6953 C   0  0  0  0  0  0  0  0  0  0  0  0
   23.3635  -11.2124  -15.3156 C   0  0  2  0  0  0  0  0  0  0  0  0
   23.6517  -12.0293  -16.4594 N   0  0  0  0  0  0  0  0  0  0  0  0
   22.4695  -10.0918  -15.6996 C   0  0  0  0  0  0  0  0  0  0  0  0
   22.6555   -9.4924  -16.7921 O   0  0  0  0  0  0  0  0  0  0  0  0
   15.7968   -5.1724  -17.7965 O   0  0  0  0  0  0  0  0  0  0  0  0
   16.5902   -6.0693  -17.0871 C   0  0  0  0  0  0  0  0  0  0  0  0
   17.4048   -6.9342  -17.7953 C   0  0  0  0  0  0  0  0  0  0  0  0
   18.2177   -7.8507  -17.1282 C   0  0  0  0  0  0  0  0  0  0  0  0
   18.2173   -7.9038  -15.7513 C   0  0  0  0  0  0  0  0  0  0  0  0
   19.0881   -8.8856  -15.0384 C   0  0  0  0  0  0  0  0  0  0  0  0
   20.5502   -8.6123  -15.3101 C   0  0  2  0  0  0  0  0  0  0  0  0
   21.4016   -9.6756  -14.8591 N   0  0  0  0  0  0  0  0  0  0  0  0
   20.9039   -7.3242  -14.6739 C   0  0  0  0  0  0  0  0  0  0  0  0
   21.0983   -7.2669  -13.4215 O   0  0  0  0  0  0  0  0  0  0  0  0
   17.4011   -7.0363  -15.0642 C   0  0  0  0  0  0  0  0  0  0  0  0
   16.5853   -6.1172  -15.7167 C   0  0  0  0  0  0  0  0  0  0  0  0
   23.7334   -4.9790  -15.4929 O   0  0  0  0  0  0  0  0  0  0  0  0
   22.5448   -4.3087  -15.7761 C   0  0  0  0  0  0  0  0  0  0  0  0
   21.4283   -4.8751  -14.9005 C   0  0  2  0  0  0  0  0  0  0  0  0
   21.0230   -6.1606  -15.4741 N   0  0  0  0  0  0  0  0  0  0  0  0
   20.2648   -3.9667  -14.9268 C   0  0  0  0  0  0  0  0  0  0  0  0
   19.5156   -3.9442  -15.9169 O   0  0  0  0  0  0  0  0  0  0  0  0
   20.0449   -3.1574  -13.8287 O   0  0  0  0  0  0  0  0  0  0  0  0
  2  1  1  6
  2  4  1  0
  2  3  1  0
  4  5  2  0
  6  7  1  0
  7  8  2  0
  7 17  1  0
  8  9  1  0
  9 10  2  0
 10 11  1  0
 12 11  1  1
 12 14  1  0
 13 12  1  0
 13  4  1  0
 14 15  2  0
 16 10  1  0
 17 16  2  0
 18 19  1  0
 20 19  1  6
 20 22  1  0
 21 20  1  0
 21 14  1  0
 22 23  2  0
 22 24  1  0
M  END
$$$$
