AYS.pdb
     RDKit          3D

 24 24  0  0  1  0  0  0  0  0999 V2000
   16.1011  -12.0473   10.4405 C   0  0  0  0  0  0  0  0  0  0  0  0
   15.7109  -11.5860    9.0360 C   0  0  2  0  0  0  0  0  0  0  0  0
   14.3725  -11.0696    9.0059 N   0  0  0  0  0  0  0  0  0  0  0  0
   15.8409  -12.7249    8.0934 C   0  0  0  0  0  0  0  0  0  0  0  0
   15.2253  -13.7993    8.3255 O   0  0  0  0  0  0  0  0  0  0  0  0
   17.3386  -18.0504    1.3755 O   0  0  0  0  0  0  0  0  0  0  0  0
   17.3007  -16.9274    2.1969 C   0  0  0  0  0  0  0  0  0  0  0  0
   18.4968  -16.3880    2.6343 C   0  0  0  0  0  0  0  0  0  0  0  0
   18.5092  -15.2629    3.4589 C   0  0  0  0  0  0  0  0  0  0  0  0
   17.3249  -14.6754    3.8476 C   0  0  0  0  0  0  0  0  0  0  0  0
   17.3397  -13.4709    4.7305 C   0  0  0  0  0  0  0  0  0  0  0  0
   16.7975  -13.7975    6.1037 C   0  0  2  0  0  0  0  0  0  0  0  0
   16.6486  -12.6321    6.9276 N   0  0  0  0  0  0  0  0  0  0  0  0
   17.6945  -14.7948    6.7278 C   0  0  0  0  0  0  0  0  0  0  0  0
   18.8296  -14.4395    7.1693 O   0  0  0  0  0  0  0  0  0  0  0  0
   16.1458  -15.2256    3.4029 C   0  0  0  0  0  0  0  0  0  0  0  0
   16.1188  -16.3473    2.5802 C   0  0  0  0  0  0  0  0  0  0  0  0
   18.0592  -16.6408    9.7043 O   0  0  0  0  0  0  0  0  0  0  0  0
   17.5997  -17.5572    8.7602 C   0  0  0  0  0  0  0  0  0  0  0  0
   18.1488  -17.1793    7.3854 C   0  0  2  0  0  0  0  0  0  0  0  0
   17.2748  -16.1448    6.8272 N   0  0  0  0  0  0  0  0  0  0  0  0
   18.1080  -18.3541    6.4924 C   0  0  0  0  0  0  0  0  0  0  0  0
   17.3019  -18.3900    5.5484 O   0  0  0  0  0  0  0  0  0  0  0  0
   18.9842  -19.3930    6.7416 O   0  0  0  0  0  0  0  0  0  0  0  0
  2  1  1  1
  2  4  1  0
  2  3  1  0
  4  5  2  0
  6  7  1  0
  7  8  2  0
  7 17  1  0
  8  9  1  0
  9 10  2  0
 10 11  1  0
 12 11  1  6
 12 14  1  0
 13 12  1  0
 13  4  1  0
 14 15  2  0
 16 10  1  0
 17 16  2  0
 18 19  1  0
 20 19  1  1
 20 22  1  0
 21 20  1  0
 21 14  1  0
 22 23  2  0
 22 24  1  0
M  END
$$$$
