AYS.pdb
     RDKit          3D

 24 24  0  0  1  0  0  0  0  0999 V2000
   27.4354  -24.7434  -16.5524 C   0  0  0  0  0  0  0  0  0  0  0  0
   27.3849  -23.3117  -17.0866 C   0  0  2  0  0  0  0  0  0  0  0  0
   28.5231  -23.0178  -17.9093 N   0  0  0  0  0  0  0  0  0  0  0  0
   27.3213  -22.3657  -15.9448 C   0  0  0  0  0  0  0  0  0  0  0  0
   28.3719  -22.0851  -15.3087 O   0  0  0  0  0  0  0  0  0  0  0  0
   28.9317  -16.7653  -18.5637 O   0  0  0  0  0  0  0  0  0  0  0  0
   28.0753  -17.4410  -17.6991 C   0  0  0  0  0  0  0  0  0  0  0  0
   28.3046  -17.3509  -16.3380 C   0  0  0  0  0  0  0  0  0  0  0  0
   27.4732  -18.0106  -15.4327 C   0  0  0  0  0  0  0  0  0  0  0  0
   26.4110  -18.7615  -15.8871 C   0  0  0  0  0  0  0  0  0  0  0  0
   25.5219  -19.4672  -14.9166 C   0  0  0  0  0  0  0  0  0  0  0  0
   26.1196  -20.7908  -14.4957 C   0  0  2  0  0  0  0  0  0  0  0  0
   26.0955  -21.7649  -15.5491 N   0  0  0  0  0  0  0  0  0  0  0  0
   25.3912  -21.2651  -13.2984 C   0  0  0  0  0  0  0  0  0  0  0  0
   24.4087  -22.0576  -13.4256 O   0  0  0  0  0  0  0  0  0  0  0  0
   26.1988  -18.8394  -17.2434 C   0  0  0  0  0  0  0  0  0  0  0  0
   27.0199  -18.1867  -18.1576 C   0  0  0  0  0  0  0  0  0  0  0  0
   24.9607  -20.7002   -8.4743 O   0  0  0  0  0  0  0  0  0  0  0  0
   25.7156  -20.4800   -9.6248 C   0  0  0  0  0  0  0  0  0  0  0  0
   25.0275  -21.1508  -10.8126 C   0  0  2  0  0  0  0  0  0  0  0  0
   25.8005  -20.8274  -12.0141 N   0  0  0  0  0  0  0  0  0  0  0  0
   23.6661  -20.6035  -10.9742 C   0  0  0  0  0  0  0  0  0  0  0  0
   23.4828  -19.5845  -11.6600 O   0  0  0  0  0  0  0  0  0  0  0  0
   22.6226  -21.2555  -10.3455 O   0  0  0  0  0  0  0  0  0  0  0  0
  2  1  1  1
  2  4  1  0
  2  3  1  0
  4  5  2  0
  6  7  1  0
  7  8  2  0
  7 17  1  0
  8  9  1  0
  9 10  2  0
 10 11  1  0
 12 11  1  6
 12 14  1  0
 13 12  1  0
 13  4  1  0
 14 15  2  0
 16 10  1  0
 17 16  2  0
 18 19  1  0
 20 19  1  1
 20 22  1  0
 21 20  1  0
 21 14  1  0
 22 23  2  0
 22 24  1  0
M  END
$$$$
