AYS.pdb
     RDKit          3D

 24 24  0  0  1  0  0  0  0  0999 V2000
   26.1585  -10.8943  -15.6563 C   0  0  0  0  0  0  0  0  0  0  0  0
   24.7386  -11.4455  -15.7905 C   0  0  2  0  0  0  0  0  0  0  0  0
   24.6512  -12.4216  -16.8385 N   0  0  0  0  0  0  0  0  0  0  0  0
   23.8022  -10.3251  -16.0558 C   0  0  0  0  0  0  0  0  0  0  0  0
   23.6846   -9.8751  -17.2267 O   0  0  0  0  0  0  0  0  0  0  0  0
   18.3648  -13.2791  -17.8517 O   0  0  0  0  0  0  0  0  0  0  0  0
   18.9398  -12.2680  -17.0873 C   0  0  0  0  0  0  0  0  0  0  0  0
   19.0089  -10.9939  -17.6213 C   0  0  0  0  0  0  0  0  0  0  0  0
   19.5763   -9.9483  -16.8929 C   0  0  0  0  0  0  0  0  0  0  0  0
   20.0759  -10.1751  -15.6289 C   0  0  0  0  0  0  0  0  0  0  0  0
   20.6831   -9.0547  -14.8503 C   0  0  0  0  0  0  0  0  0  0  0  0
   22.0712   -8.7320  -15.3555 C   0  0  2  0  0  0  0  0  0  0  0  0
   23.0298   -9.7437  -15.0140 N   0  0  0  0  0  0  0  0  0  0  0  0
   22.4607   -7.4094  -14.8192 C   0  0  0  0  0  0  0  0  0  0  0  0
   22.9495   -7.3164  -13.6521 O   0  0  0  0  0  0  0  0  0  0  0  0
   19.9985  -11.4480  -15.1146 C   0  0  0  0  0  0  0  0  0  0  0  0
   19.4352  -12.5002  -15.8299 C   0  0  0  0  0  0  0  0  0  0  0  0
   22.8279   -2.6618  -15.8763 O   0  0  0  0  0  0  0  0  0  0  0  0
   22.4619   -3.9400  -16.2939 C   0  0  0  0  0  0  0  0  0  0  0  0
   22.7101   -4.9298  -15.1568 C   0  0  2  0  0  0  0  0  0  0  0  0
   22.2832   -6.2527  -15.6186 N   0  0  0  0  0  0  0  0  0  0  0  0
   21.8911   -4.5593  -13.9858 C   0  0  0  0  0  0  0  0  0  0  0  0
   20.7062   -4.9245  -13.9151 O   0  0  0  0  0  0  0  0  0  0  0  0
   22.4813   -3.8050  -12.9900 O   0  0  0  0  0  0  0  0  0  0  0  0
  2  1  1  6
  2  4  1  0
  2  3  1  0
  4  5  2  0
  6  7  1  0
  7  8  2  0
  7 17  1  0
  8  9  1  0
  9 10  2  0
 10 11  1  0
 12 11  1  1
 12 14  1  0
 13 12  1  0
 13  4  1  0
 14 15  2  0
 16 10  1  0
 17 16  2  0
 18 19  1  0
 20 19  1  6
 20 22  1  0
 21 20  1  0
 21 14  1  0
 22 23  2  0
 22 24  1  0
M  END
$$$$
