AYS.pdb
     RDKit          3D

 24 24  0  0  1  0  0  0  0  0999 V2000
   28.6946  -17.4683  -16.2196 C   0  0  0  0  0  0  0  0  0  0  0  0
   27.5962  -18.4632  -16.5957 C   0  0  2  0  0  0  0  0  0  0  0  0
   26.9110  -18.0618  -17.7908 N   0  0  0  0  0  0  0  0  0  0  0  0
   26.6358  -18.5799  -15.4703 C   0  0  0  0  0  0  0  0  0  0  0  0
   26.1970  -17.5377  -14.9149 O   0  0  0  0  0  0  0  0  0  0  0  0
   19.8631  -19.9992  -10.4861 O   0  0  0  0  0  0  0  0  0  0  0  0
   20.8521  -20.1179  -11.4582 C   0  0  0  0  0  0  0  0  0  0  0  0
   21.7608  -21.1554  -11.3531 C   0  0  0  0  0  0  0  0  0  0  0  0
   22.7696  -21.3150  -12.3032 C   0  0  0  0  0  0  0  0  0  0  0  0
   22.8712  -20.4372  -13.3605 C   0  0  0  0  0  0  0  0  0  0  0  0
   23.9517  -20.6094  -14.3770 C   0  0  0  0  0  0  0  0  0  0  0  0
   25.2121  -19.8871  -13.9575 C   0  0  2  0  0  0  0  0  0  0  0  0
   26.1964  -19.8474  -15.0009 N   0  0  0  0  0  0  0  0  0  0  0  0
   25.7356  -20.5439  -12.7395 C   0  0  0  0  0  0  0  0  0  0  0  0
   26.1549  -21.7401  -12.7936 O   0  0  0  0  0  0  0  0  0  0  0  0
   21.9590  -19.4121  -13.4485 C   0  0  0  0  0  0  0  0  0  0  0  0
   20.9479  -19.2410  -12.5081 C   0  0  0  0  0  0  0  0  0  0  0  0
   26.9835  -19.9248   -8.0926 O   0  0  0  0  0  0  0  0  0  0  0  0
   26.4374  -19.3617   -9.2445 C   0  0  0  0  0  0  0  0  0  0  0  0
   26.1636  -20.4675  -10.2625 C   0  0  2  0  0  0  0  0  0  0  0  0
   25.7641  -19.8266  -11.5176 N   0  0  0  0  0  0  0  0  0  0  0  0
   25.0457  -21.3103   -9.7944 C   0  0  0  0  0  0  0  0  0  0  0  0
   23.8737  -20.9832  -10.0429 O   0  0  0  0  0  0  0  0  0  0  0  0
   25.3466  -22.4557   -9.0825 O   0  0  0  0  0  0  0  0  0  0  0  0
  2  1  1  1
  2  4  1  0
  2  3  1  0
  4  5  2  0
  6  7  1  0
  7  8  2  0
  7 17  1  0
  8  9  1  0
  9 10  2  0
 10 11  1  0
 12 11  1  6
 12 14  1  0
 13 12  1  0
 13  4  1  0
 14 15  2  0
 16 10  1  0
 17 16  2  0
 18 19  1  0
 20 19  1  1
 20 22  1  0
 21 20  1  0
 21 14  1  0
 22 23  2  0
 22 24  1  0
M  END
$$$$
