AYS.pdb
     RDKit          3D

 24 24  0  0  1  0  0  0  0  0999 V2000
   27.1819  -18.2934  -15.1419 C   0  0  0  0  0  0  0  0  0  0  0  0
   27.8361  -19.4367  -14.3657 C   0  0  2  0  0  0  0  0  0  0  0  0
   28.6307  -20.2673  -15.2245 N   0  0  0  0  0  0  0  0  0  0  0  0
   26.7817  -20.2453  -13.7047 C   0  0  0  0  0  0  0  0  0  0  0  0
   26.3384  -21.2774  -14.2752 O   0  0  0  0  0  0  0  0  0  0  0  0
   29.9350  -20.6407   -7.6012 O   0  0  0  0  0  0  0  0  0  0  0  0
   28.7410  -20.6101   -8.3158 C   0  0  0  0  0  0  0  0  0  0  0  0
   27.6669  -19.9238   -7.7786 C   0  0  0  0  0  0  0  0  0  0  0  0
   26.4500  -19.8653   -8.4580 C   0  0  0  0  0  0  0  0  0  0  0  0
   26.3052  -20.4930   -9.6761 C   0  0  0  0  0  0  0  0  0  0  0  0
   25.0017  -20.4294  -10.4023 C   0  0  0  0  0  0  0  0  0  0  0  0
   25.1926  -20.6697  -11.8829 C   0  0  2  0  0  0  0  0  0  0  0  0
   26.2565  -19.8809  -12.4353 N   0  0  0  0  0  0  0  0  0  0  0  0
   23.9062  -20.4016  -12.5626 C   0  0  0  0  0  0  0  0  0  0  0  0
   23.6079  -19.2195  -12.9137 O   0  0  0  0  0  0  0  0  0  0  0  0
   27.3838  -21.1703  -10.1943 C   0  0  0  0  0  0  0  0  0  0  0  0
   28.6033  -21.2369   -9.5276 C   0  0  0  0  0  0  0  0  0  0  0  0
   20.7390  -22.2873  -15.5381 O   0  0  0  0  0  0  0  0  0  0  0  0
   21.8987  -22.3572  -14.7685 C   0  0  0  0  0  0  0  0  0  0  0  0
   21.8332  -21.3025  -13.6652 C   0  0  2  0  0  0  0  0  0  0  0  0
   23.0148  -21.4737  -12.8165 N   0  0  0  0  0  0  0  0  0  0  0  0
   20.6305  -21.5212  -12.8374 C   0  0  0  0  0  0  0  0  0  0  0  0
   20.7102  -22.1769  -11.7858 O   0  0  0  0  0  0  0  0  0  0  0  0
   19.4351  -20.9789  -13.2687 O   0  0  0  0  0  0  0  0  0  0  0  0
  2  1  1  6
  2  4  1  0
  2  3  1  0
  4  5  2  0
  6  7  1  0
  7  8  2  0
  7 17  1  0
  8  9  1  0
  9 10  2  0
 10 11  1  0
 12 11  1  1
 12 14  1  0
 13 12  1  0
 13  4  1  0
 14 15  2  0
 16 10  1  0
 17 16  2  0
 18 19  1  0
 20 19  1  6
 20 22  1  0
 21 20  1  0
 21 14  1  0
 22 23  2  0
 22 24  1  0
M  END
$$$$
