MAA.pdb
     RDKit          3D

 19 18  0  0  1  0  0  0  0  0999 V2000
   27.1573  -16.5319  -14.8845 C   0  0  0  0  0  0  0  0  0  0  0  0
   26.4229  -14.9869  -15.3605 S   0  0  0  0  0  0  0  0  0  0  0  0
   26.0554  -14.8475  -17.0873 C   0  0  0  0  0  0  0  0  0  0  0  0
   25.5578  -13.5133  -17.4809 C   0  0  0  0  0  0  0  0  0  0  0  0
   24.4907  -12.9675  -16.6006 C   0  0  2  0  0  0  0  0  0  0  0  0
   23.3302  -13.9075  -16.6909 N   0  0  0  0  0  0  0  0  0  0  0  0
   24.0336  -11.6532  -17.1834 C   0  0  0  0  0  0  0  0  0  0  0  0
   24.7819  -10.6644  -17.3465 O   0  0  0  0  0  0  0  0  0  0  0  0
   21.2295  -10.3637  -19.2182 C   0  0  0  0  0  0  0  0  0  0  0  0
   22.2576  -10.1554  -18.0999 C   0  0  2  0  0  0  0  0  0  0  0  0
   22.6847  -11.4735  -17.5872 N   0  0  0  0  0  0  0  0  0  0  0  0
   21.5472   -9.4538  -17.0081 C   0  0  0  0  0  0  0  0  0  0  0  0
   20.8092  -10.0803  -16.2120 O   0  0  0  0  0  0  0  0  0  0  0  0
   19.4900   -7.6869  -16.0583 C   0  0  0  0  0  0  0  0  0  0  0  0
   20.9585   -7.3772  -15.8045 C   0  0  2  0  0  0  0  0  0  0  0  0
   21.6936   -8.0554  -16.8483 N   0  0  0  0  0  0  0  0  0  0  0  0
   21.3670   -7.8588  -14.4648 C   0  0  0  0  0  0  0  0  0  0  0  0
   21.0380   -7.1526  -13.3324 O   0  0  0  0  0  0  0  0  0  0  0  0
   22.0207   -8.9281  -14.3962 O   0  0  0  0  0  0  0  0  0  0  0  0
  2  1  1  0
  3  2  1  0
  4  5  1  0
  4  3  1  0
  5  6  1  6
  7  5  1  0
  7 11  1  0
  8  7  2  0
 10 12  1  0
 10  9  1  6
 10 11  1  0
 12 16  1  0
 13 12  2  0
 15 14  1  6
 16 15  1  0
 17 18  1  0
 17 15  1  0
 19 17  2  0
M  END
$$$$
