MAA.pdb
     RDKit          3D

 19 18  0  0  1  0  0  0  0  0999 V2000
   27.7576  -13.2831  -14.9973 C   0  0  0  0  0  0  0  0  0  0  0  0
   26.8716  -14.8104  -14.8106 S   0  0  0  0  0  0  0  0  0  0  0  0
   25.6943  -15.1399  -16.0920 C   0  0  0  0  0  0  0  0  0  0  0  0
   24.8419  -13.9802  -16.4253 C   0  0  0  0  0  0  0  0  0  0  0  0
   23.7377  -14.2780  -17.3758 C   0  0  2  0  0  0  0  0  0  0  0  0
   24.3742  -14.7017  -18.6618 N   0  0  0  0  0  0  0  0  0  0  0  0
   23.0045  -12.9895  -17.6559 C   0  0  0  0  0  0  0  0  0  0  0  0
   23.4636  -12.0649  -18.3620 O   0  0  0  0  0  0  0  0  0  0  0  0
   19.5162  -11.6758  -17.1479 C   0  0  0  0  0  0  0  0  0  0  0  0
   21.0135  -11.4993  -17.4274 C   0  0  2  0  0  0  0  0  0  0  0  0
   21.7141  -12.7608  -17.1107 N   0  0  0  0  0  0  0  0  0  0  0  0
   21.4931  -10.4660  -16.4835 C   0  0  0  0  0  0  0  0  0  0  0  0
   21.9326  -10.7800  -15.3524 O   0  0  0  0  0  0  0  0  0  0  0  0
   22.2097   -6.8518  -16.7880 C   0  0  0  0  0  0  0  0  0  0  0  0
   22.0144   -8.1093  -15.9529 C   0  0  2  0  0  0  0  0  0  0  0  0
   21.4613   -9.0993  -16.8492 N   0  0  0  0  0  0  0  0  0  0  0  0
   21.0978   -7.8435  -14.8202 C   0  0  0  0  0  0  0  0  0  0  0  0
   21.5713   -7.3269  -13.6377 O   0  0  0  0  0  0  0  0  0  0  0  0
   19.8796   -8.1038  -14.9734 O   0  0  0  0  0  0  0  0  0  0  0  0
  2  1  1  0
  3  2  1  0
  4  5  1  0
  4  3  1  0
  5  6  1  6
  7  5  1  0
  7 11  1  0
  8  7  2  0
 10 12  1  0
 10  9  1  1
 10 11  1  0
 12 16  1  0
 13 12  2  0
 15 14  1  6
 16 15  1  0
 17 18  1  0
 17 15  1  0
 19 17  2  0
M  END
$$$$
