MAA.pdb
     RDKit          3D

 19 18  0  0  1  0  0  0  0  0999 V2000
   20.8572  -14.6002    1.4594 C   0  0  0  0  0  0  0  0  0  0  0  0
   19.1858  -15.1737    1.6329 S   0  0  0  0  0  0  0  0  0  0  0  0
   18.1749  -14.1843    2.6985 C   0  0  0  0  0  0  0  0  0  0  0  0
   18.5113  -14.3230    4.1304 C   0  0  0  0  0  0  0  0  0  0  0  0
   17.7663  -13.4044    5.0318 C   0  0  2  0  0  0  0  0  0  0  0  0
   18.1804  -12.0124    4.6719 N   0  0  0  0  0  0  0  0  0  0  0  0
   18.2416  -13.6497    6.4425 C   0  0  0  0  0  0  0  0  0  0  0  0
   19.1872  -13.0303    6.9778 O   0  0  0  0  0  0  0  0  0  0  0  0
   17.1377  -15.7377    9.3891 C   0  0  0  0  0  0  0  0  0  0  0  0
   18.1512  -14.8955    8.6051 C   0  0  2  0  0  0  0  0  0  0  0  0
   17.6142  -14.6303    7.2546 N   0  0  0  0  0  0  0  0  0  0  0  0
   19.3603  -15.7348    8.4545 C   0  0  0  0  0  0  0  0  0  0  0  0
   19.4176  -16.6321    7.5812 O   0  0  0  0  0  0  0  0  0  0  0  0
   22.7923  -15.5719    9.7989 C   0  0  0  0  0  0  0  0  0  0  0  0
   21.6652  -16.3330    9.1155 C   0  0  2  0  0  0  0  0  0  0  0  0
   20.4757  -15.5330    9.3016 N   0  0  0  0  0  0  0  0  0  0  0  0
   21.5048  -17.6762    9.7188 C   0  0  0  0  0  0  0  0  0  0  0  0
   22.1523  -18.7673    9.1902 O   0  0  0  0  0  0  0  0  0  0  0  0
   20.7617  -17.7863   10.7243 O   0  0  0  0  0  0  0  0  0  0  0  0
  2  1  1  0
  3  2  1  0
  4  5  1  0
  4  3  1  0
  5  6  1  6
  7  5  1  0
  7 11  1  0
  8  7  2  0
 10 12  1  0
 10  9  1  1
 10 11  1  0
 12 16  1  0
 13 12  2  0
 15 14  1  1
 16 15  1  0
 17 18  1  0
 17 15  1  0
 19 17  2  0
M  END
$$$$
