MAA.pdb
     RDKit          3D

 19 18  0  0  1  0  0  0  0  0999 V2000
   22.9846    7.9776   -0.6313 C   0  0  0  0  0  0  0  0  0  0  0  0
   21.3304    7.4887   -1.0527 S   0  0  0  0  0  0  0  0  0  0  0  0
   21.1643    6.7617   -2.6590 C   0  0  0  0  0  0  0  0  0  0  0  0
   22.4430    6.2937   -3.2322 C   0  0  0  0  0  0  0  0  0  0  0  0
   22.3359    5.7320   -4.6050 C   0  0  2  0  0  0  0  0  0  0  0  0
   20.9026    5.8582   -5.0151 N   0  0  0  0  0  0  0  0  0  0  0  0
   22.6393    4.2561   -4.5289 C   0  0  0  0  0  0  0  0  0  0  0  0
   21.7986    3.3865   -4.2106 O   0  0  0  0  0  0  0  0  0  0  0  0
   25.2799    1.9924   -5.8507 C   0  0  0  0  0  0  0  0  0  0  0  0
   24.1784    2.3130   -4.8333 C   0  0  2  0  0  0  0  0  0  0  0  0
   23.9397    3.7709   -4.8259 N   0  0  0  0  0  0  0  0  0  0  0  0
   24.7152    1.9355   -3.5074 C   0  0  0  0  0  0  0  0  0  0  0  0
   25.3582    2.7584   -2.8140 O   0  0  0  0  0  0  0  0  0  0  0  0
   24.5081   -1.1196   -1.4038 C   0  0  0  0  0  0  0  0  0  0  0  0
   25.0285    0.2798   -1.6996 C   0  0  2  0  0  0  0  0  0  0  0  0
   24.5077    0.6302   -3.0017 N   0  0  0  0  0  0  0  0  0  0  0  0
   26.5096    0.2950   -1.6954 C   0  0  0  0  0  0  0  0  0  0  0  0
   27.2110    0.2163   -0.5160 O   0  0  0  0  0  0  0  0  0  0  0  0
   27.1018    0.3817   -2.7986 O   0  0  0  0  0  0  0  0  0  0  0  0
  2  1  1  0
  3  2  1  0
  4  5  1  0
  4  3  1  0
  5  6  1  1
  7  5  1  0
  7 11  1  0
  8  7  2  0
 10 12  1  0
 10  9  1  6
 10 11  1  0
 12 16  1  0
 13 12  2  0
 15 14  1  6
 16 15  1  0
 17 18  1  0
 17 15  1  0
 19 17  2  0
M  END
$$$$
