MAA.pdb
     RDKit          3D

 19 18  0  0  1  0  0  0  0  0999 V2000
   14.4890  -14.8548  -16.6513 C   0  0  0  0  0  0  0  0  0  0  0  0
   15.4656  -13.7584  -15.6528 S   0  0  0  0  0  0  0  0  0  0  0  0
   16.5492  -12.6979  -16.5680 C   0  0  0  0  0  0  0  0  0  0  0  0
   17.4544  -11.8991  -15.7164 C   0  0  0  0  0  0  0  0  0  0  0  0
   18.4000  -11.0294  -16.4655 C   0  0  2  0  0  0  0  0  0  0  0  0
   19.3876  -11.9346  -17.1317 N   0  0  0  0  0  0  0  0  0  0  0  0
   19.1699  -10.2068  -15.4623 C   0  0  0  0  0  0  0  0  0  0  0  0
   18.6395   -9.3994  -14.6680 O   0  0  0  0  0  0  0  0  0  0  0  0
   22.7514  -10.0217  -14.2686 C   0  0  0  0  0  0  0  0  0  0  0  0
   21.2991   -9.5354  -14.3429 C   0  0  2  0  0  0  0  0  0  0  0  0
   20.5823  -10.3163  -15.3720 N   0  0  0  0  0  0  0  0  0  0  0  0
   21.3550   -8.1292  -14.7993 C   0  0  0  0  0  0  0  0  0  0  0  0
   21.6014   -7.8490  -15.9959 O   0  0  0  0  0  0  0  0  0  0  0  0
   19.9069   -5.0530  -14.0652 C   0  0  0  0  0  0  0  0  0  0  0  0
   21.2569   -5.7054  -14.3274 C   0  0  2  0  0  0  0  0  0  0  0  0
   21.1293   -7.0749  -13.8828 N   0  0  0  0  0  0  0  0  0  0  0  0
   22.3274   -5.0007  -13.5849 C   0  0  0  0  0  0  0  0  0  0  0  0
   22.8920   -5.5602  -12.4636 O   0  0  0  0  0  0  0  0  0  0  0  0
   22.7014   -3.8807  -14.0102 O   0  0  0  0  0  0  0  0  0  0  0  0
  2  1  1  0
  3  2  1  0
  4  5  1  0
  4  3  1  0
  5  6  1  1
  7  5  1  0
  7 11  1  0
  8  7  2  0
 10 12  1  0
 10  9  1  6
 10 11  1  0
 12 16  1  0
 13 12  2  0
 15 14  1  1
 16 15  1  0
 17 18  1  0
 17 15  1  0
 19 17  2  0
M  END
$$$$
