MAA.pdb
     RDKit          3D

 19 18  0  0  1  0  0  0  0  0999 V2000
   21.0093  -13.2907    7.2852 C   0  0  0  0  0  0  0  0  0  0  0  0
   20.7977  -12.0711    6.0123 S   0  0  0  0  0  0  0  0  0  0  0  0
   19.2809  -12.2062    5.1081 C   0  0  0  0  0  0  0  0  0  0  0  0
   18.4432  -13.3496    5.5246 C   0  0  0  0  0  0  0  0  0  0  0  0
   17.1596  -13.4769    4.7846 C   0  0  2  0  0  0  0  0  0  0  0  0
   16.2670  -12.3793    5.2715 N   0  0  0  0  0  0  0  0  0  0  0  0
   16.5139  -14.7777    5.1932 C   0  0  0  0  0  0  0  0  0  0  0  0
   15.8423  -14.9253    6.2380 O   0  0  0  0  0  0  0  0  0  0  0  0
   16.0100  -18.1841    3.6426 C   0  0  0  0  0  0  0  0  0  0  0  0
   15.9991  -17.1915    4.8112 C   0  0  2  0  0  0  0  0  0  0  0  0
   16.6444  -15.9342    4.3806 N   0  0  0  0  0  0  0  0  0  0  0  0
   16.8381  -17.7904    5.8725 C   0  0  0  0  0  0  0  0  0  0  0  0
   18.0848  -17.6616    5.8584 O   0  0  0  0  0  0  0  0  0  0  0  0
   16.1584  -19.1339    9.2128 C   0  0  0  0  0  0  0  0  0  0  0  0
   17.0634  -19.0401    7.9926 C   0  0  2  0  0  0  0  0  0  0  0  0
   16.2382  -18.5217    6.9250 N   0  0  0  0  0  0  0  0  0  0  0  0
   17.6088  -20.3730    7.6466 C   0  0  0  0  0  0  0  0  0  0  0  0
   18.6306  -20.9275    8.3798 O   0  0  0  0  0  0  0  0  0  0  0  0
   17.1104  -20.9780    6.6663 O   0  0  0  0  0  0  0  0  0  0  0  0
  2  1  1  0
  3  2  1  0
  4  5  1  0
  4  3  1  0
  5  6  1  1
  7  5  1  0
  7 11  1  0
  8  7  2  0
 10 12  1  0
 10  9  1  6
 10 11  1  0
 12 16  1  0
 13 12  2  0
 15 14  1  1
 16 15  1  0
 17 18  1  0
 17 15  1  0
 19 17  2  0
M  END
$$$$
