MAA.pdb
     RDKit          3D

 19 18  0  0  1  0  0  0  0  0999 V2000
   20.0578   -8.7205  -21.4898 C   0  0  0  0  0  0  0  0  0  0  0  0
   18.7665   -9.9227  -21.2887 S   0  0  0  0  0  0  0  0  0  0  0  0
   18.9320  -10.9479  -19.8542 C   0  0  0  0  0  0  0  0  0  0  0  0
   19.0385  -10.1875  -18.5920 C   0  0  0  0  0  0  0  0  0  0  0  0
   19.2970  -11.0215  -17.3882 C   0  0  2  0  0  0  0  0  0  0  0  0
   18.0407  -11.7855  -17.1114 N   0  0  0  0  0  0  0  0  0  0  0  0
   19.5107  -10.0947  -16.2171 C   0  0  0  0  0  0  0  0  0  0  0  0
   18.5820   -9.5737  -15.5611 O   0  0  0  0  0  0  0  0  0  0  0  0
   22.3223   -9.2069  -13.9333 C   0  0  0  0  0  0  0  0  0  0  0  0
   20.9957   -8.8712  -14.6250 C   0  0  2  0  0  0  0  0  0  0  0  0
   20.8231   -9.7604  -15.7921 N   0  0  0  0  0  0  0  0  0  0  0  0
   21.1283   -7.4859  -15.1273 C   0  0  0  0  0  0  0  0  0  0  0  0
   21.6706   -7.2499  -16.2324 O   0  0  0  0  0  0  0  0  0  0  0  0
   19.6462   -4.2596  -14.1647 C   0  0  0  0  0  0  0  0  0  0  0  0
   20.7159   -5.0605  -14.8936 C   0  0  2  0  0  0  0  0  0  0  0  0
   20.6405   -6.4017  -14.3597 N   0  0  0  0  0  0  0  0  0  0  0  0
   22.0543   -4.4691  -14.6641 C   0  0  0  0  0  0  0  0  0  0  0  0
   22.5534   -3.5074  -15.5098 O   0  0  0  0  0  0  0  0  0  0  0  0
   22.7160   -4.8722  -13.6767 O   0  0  0  0  0  0  0  0  0  0  0  0
  2  1  1  0
  3  2  1  0
  4  5  1  0
  4  3  1  0
  5  6  1  1
  7  5  1  0
  7 11  1  0
  8  7  2  0
 10 12  1  0
 10  9  1  6
 10 11  1  0
 12 16  1  0
 13 12  2  0
 15 14  1  1
 16 15  1  0
 17 18  1  0
 17 15  1  0
 19 17  2  0
M  END
$$$$
