MAA.pdb
     RDKit          3D

 19 18  0  0  1  0  0  0  0  0999 V2000
   29.0094  -20.2963   -8.6833 C   0  0  0  0  0  0  0  0  0  0  0  0
   27.3339  -19.8096   -8.3534 S   0  0  0  0  0  0  0  0  0  0  0  0
   26.1087  -20.9510   -8.9300 C   0  0  0  0  0  0  0  0  0  0  0  0
   26.1061  -21.1259  -10.3970 C   0  0  0  0  0  0  0  0  0  0  0  0
   25.2499  -20.1580  -11.1330 C   0  0  2  0  0  0  0  0  0  0  0  0
   23.8379  -20.6321  -10.9911 N   0  0  0  0  0  0  0  0  0  0  0  0
   25.5959  -20.2512  -12.5984 C   0  0  0  0  0  0  0  0  0  0  0  0
   25.1413  -21.1257  -13.3685 O   0  0  0  0  0  0  0  0  0  0  0  0
   27.5619  -18.1530  -15.0602 C   0  0  0  0  0  0  0  0  0  0  0  0
   26.6921  -19.3483  -14.6528 C   0  0  2  0  0  0  0  0  0  0  0  0
   26.4852  -19.3165  -13.1903 N   0  0  0  0  0  0  0  0  0  0  0  0
   27.4770  -20.5610  -14.9725 C   0  0  0  0  0  0  0  0  0  0  0  0
   28.4750  -20.8828  -14.2858 O   0  0  0  0  0  0  0  0  0  0  0  0
   26.9351  -23.5665  -16.9613 C   0  0  0  0  0  0  0  0  0  0  0  0
   27.9035  -22.5422  -16.3868 C   0  0  2  0  0  0  0  0  0  0  0  0
   27.1074  -21.3790  -16.0665 N   0  0  0  0  0  0  0  0  0  0  0  0
   28.9572  -22.2126  -17.3741 C   0  0  0  0  0  0  0  0  0  0  0  0
   28.9522  -21.0063  -18.0328 O   0  0  0  0  0  0  0  0  0  0  0  0
   29.8516  -23.0664  -17.5896 O   0  0  0  0  0  0  0  0  0  0  0  0
  2  1  1  0
  3  2  1  0
  4  5  1  0
  4  3  1  0
  5  6  1  6
  7  5  1  0
  7 11  1  0
  8  7  2  0
 10 12  1  0
 10  9  1  1
 10 11  1  0
 12 16  1  0
 13 12  2  0
 15 14  1  6
 16 15  1  0
 17 18  1  0
 17 15  1  0
 19 17  2  0
M  END
$$$$
