MAA.pdb
     RDKit          3D

 19 18  0  0  1  0  0  0  0  0999 V2000
   28.5176  -12.6506  -15.3388 C   0  0  0  0  0  0  0  0  0  0  0  0
   26.9854  -11.7538  -15.3090 S   0  0  0  0  0  0  0  0  0  0  0  0
   26.5591  -10.9737  -16.8407 C   0  0  0  0  0  0  0  0  0  0  0  0
   25.3118  -10.1845  -16.7762 C   0  0  0  0  0  0  0  0  0  0  0  0
   24.1497  -10.9119  -16.2001 C   0  0  2  0  0  0  0  0  0  0  0  0
   23.7916  -11.9946  -17.1686 N   0  0  0  0  0  0  0  0  0  0  0  0
   22.9797   -9.9604  -16.1577 C   0  0  0  0  0  0  0  0  0  0  0  0
   22.3090   -9.6341  -17.1617 O   0  0  0  0  0  0  0  0  0  0  0  0
   20.8481   -8.4171  -13.4749 C   0  0  0  0  0  0  0  0  0  0  0  0
   21.3745   -8.5081  -14.9121 C   0  0  2  0  0  0  0  0  0  0  0  0
   22.5731   -9.3715  -14.9318 N   0  0  0  0  0  0  0  0  0  0  0  0
   21.7958   -7.1404  -15.2873 C   0  0  0  0  0  0  0  0  0  0  0  0
   22.9610   -6.7391  -15.0585 O   0  0  0  0  0  0  0  0  0  0  0  0
   20.2444   -4.4455  -17.2971 C   0  0  0  0  0  0  0  0  0  0  0  0
   21.3364   -4.9695  -16.3752 C   0  0  2  0  0  0  0  0  0  0  0  0
   20.8808   -6.2616  -15.9143 N   0  0  0  0  0  0  0  0  0  0  0  0
   21.5473   -4.0418  -15.2400 C   0  0  0  0  0  0  0  0  0  0  0  0
   22.4422   -3.0030  -15.3366 O   0  0  0  0  0  0  0  0  0  0  0  0
   20.8855   -4.2333  -14.1909 O   0  0  0  0  0  0  0  0  0  0  0  0
  2  1  1  0
  3  2  1  0
  4  5  1  0
  4  3  1  0
  5  6  1  6
  7  5  1  0
  7 11  1  0
  8  7  2  0
 10 12  1  0
 10  9  1  1
 10 11  1  0
 12 16  1  0
 13 12  2  0
 15 14  1  6
 16 15  1  0
 17 18  1  0
 17 15  1  0
 19 17  2  0
M  END
$$$$
