MAA.pdb
     RDKit          3D

 19 18  0  0  1  0  0  0  0  0999 V2000
   28.0643  -11.9809  -15.6688 C   0  0  0  0  0  0  0  0  0  0  0  0
   26.8673  -13.2584  -15.3720 S   0  0  0  0  0  0  0  0  0  0  0  0
   25.5540  -13.3266  -16.5581 C   0  0  0  0  0  0  0  0  0  0  0  0
   25.1413  -12.0004  -17.0615 C   0  0  0  0  0  0  0  0  0  0  0  0
   24.2104  -11.2623  -16.1670 C   0  0  2  0  0  0  0  0  0  0  0  0
   23.0565  -12.1746  -15.8933 N   0  0  0  0  0  0  0  0  0  0  0  0
   23.6627  -10.0848  -16.9349 C   0  0  0  0  0  0  0  0  0  0  0  0
   24.3714   -9.1676  -17.4047 O   0  0  0  0  0  0  0  0  0  0  0  0
   20.4724   -9.1566  -18.6293 C   0  0  0  0  0  0  0  0  0  0  0  0
   21.7624   -8.7773  -17.8924 C   0  0  2  0  0  0  0  0  0  0  0  0
   22.2678   -9.9608  -17.1667 N   0  0  0  0  0  0  0  0  0  0  0  0
   21.3831   -7.7589  -16.8886 C   0  0  0  0  0  0  0  0  0  0  0  0
   20.9043   -6.6549  -17.2393 O   0  0  0  0  0  0  0  0  0  0  0  0
   20.8745   -7.7402  -13.2574 C   0  0  0  0  0  0  0  0  0  0  0  0
   21.2205   -7.0007  -14.5421 C   0  0  2  0  0  0  0  0  0  0  0  0
   21.5578   -8.0209  -15.5090 N   0  0  0  0  0  0  0  0  0  0  0  0
   22.3579   -6.0784  -14.3203 C   0  0  0  0  0  0  0  0  0  0  0  0
   22.2298   -4.9890  -13.4920 O   0  0  0  0  0  0  0  0  0  0  0  0
   23.4386   -6.3219  -14.9105 O   0  0  0  0  0  0  0  0  0  0  0  0
  2  1  1  0
  3  2  1  0
  4  5  1  0
  4  3  1  0
  5  6  1  6
  7  5  1  0
  7 11  1  0
  8  7  2  0
 10 12  1  0
 10  9  1  1
 10 11  1  0
 12 16  1  0
 13 12  2  0
 15 14  1  1
 16 15  1  0
 17 18  1  0
 17 15  1  0
 19 17  2  0
M  END
$$$$
