MAA.pdb
     RDKit          3D

 19 18  0  0  1  0  0  0  0  0999 V2000
   18.7557  -15.4030  -14.1653 C   0  0  0  0  0  0  0  0  0  0  0  0
   17.7780  -15.7139  -15.6145 S   0  0  0  0  0  0  0  0  0  0  0  0
   18.5702  -15.2927  -17.1414 C   0  0  0  0  0  0  0  0  0  0  0  0
   19.4060  -14.0773  -17.0592 C   0  0  0  0  0  0  0  0  0  0  0  0
   20.0707  -13.6971  -18.3340 C   0  0  2  0  0  0  0  0  0  0  0  0
   21.3006  -14.5410  -18.4508 N   0  0  0  0  0  0  0  0  0  0  0  0
   20.5335  -12.2667  -18.2091 C   0  0  0  0  0  0  0  0  0  0  0  0
   21.6433  -11.9309  -17.7401 O   0  0  0  0  0  0  0  0  0  0  0  0
   19.2870   -8.8951  -19.3616 C   0  0  0  0  0  0  0  0  0  0  0  0
   20.2065   -9.8141  -18.5486 C   0  0  2  0  0  0  0  0  0  0  0  0
   19.6997  -11.1992  -18.6336 N   0  0  0  0  0  0  0  0  0  0  0  0
   20.0917   -9.3758  -17.1402 C   0  0  0  0  0  0  0  0  0  0  0  0
   19.2072   -9.8482  -16.3881 O   0  0  0  0  0  0  0  0  0  0  0  0
   22.1607   -7.2246  -14.9386 C   0  0  0  0  0  0  0  0  0  0  0  0
   20.9161   -8.0539  -15.2219 C   0  0  2  0  0  0  0  0  0  0  0  0
   20.9863   -8.4101  -16.6211 N   0  0  0  0  0  0  0  0  0  0  0  0
   19.6929   -7.2709  -14.9311 C   0  0  0  0  0  0  0  0  0  0  0  0
   18.9014   -6.7973  -15.9501 O   0  0  0  0  0  0  0  0  0  0  0  0
   19.4029   -7.0543  -13.7293 O   0  0  0  0  0  0  0  0  0  0  0  0
  2  1  1  0
  3  2  1  0
  4  5  1  0
  4  3  1  0
  5  6  1  1
  7  5  1  0
  7 11  1  0
  8  7  2  0
 10 12  1  0
 10  9  1  6
 10 11  1  0
 12 16  1  0
 13 12  2  0
 15 14  1  6
 16 15  1  0
 17 18  1  0
 17 15  1  0
 19 17  2  0
M  END
$$$$
