MAA.pdb
     RDKit          3D

 19 18  0  0  1  0  0  0  0  0999 V2000
   24.2646  -10.9011  -16.5206 C   0  0  0  0  0  0  0  0  0  0  0  0
   23.9322  -10.5602  -14.8100 S   0  0  0  0  0  0  0  0  0  0  0  0
   22.2780  -10.9261  -14.2944 C   0  0  0  0  0  0  0  0  0  0  0  0
   21.3048   -9.8668  -14.6314 C   0  0  0  0  0  0  0  0  0  0  0  0
   19.8876  -10.2167  -14.3472 C   0  0  2  0  0  0  0  0  0  0  0  0
   19.4628  -11.1942  -15.3972 N   0  0  0  0  0  0  0  0  0  0  0  0
   19.0533   -8.9753  -14.5439 C   0  0  0  0  0  0  0  0  0  0  0  0
   18.5946   -8.6108  -15.6489 O   0  0  0  0  0  0  0  0  0  0  0  0
   17.3946   -6.4335  -12.3018 C   0  0  0  0  0  0  0  0  0  0  0  0
   17.8695   -6.9613  -13.6608 C   0  0  2  0  0  0  0  0  0  0  0  0
   18.7403   -8.1348  -13.4437 N   0  0  0  0  0  0  0  0  0  0  0  0
   18.6958   -5.8887  -14.2571 C   0  0  0  0  0  0  0  0  0  0  0  0
   19.9061   -5.7643  -13.9558 O   0  0  0  0  0  0  0  0  0  0  0  0
   18.1522   -3.4540  -16.9927 C   0  0  0  0  0  0  0  0  0  0  0  0
   18.9658   -4.0001  -15.8279 C   0  0  2  0  0  0  0  0  0  0  0  0
   18.1250   -4.9829  -15.1824 N   0  0  0  0  0  0  0  0  0  0  0  0
   19.3289   -2.9110  -14.8921 C   0  0  0  0  0  0  0  0  0  0  0  0
   20.4551   -2.1509  -15.0994 O   0  0  0  0  0  0  0  0  0  0  0  0
   18.5786   -2.7048  -13.9073 O   0  0  0  0  0  0  0  0  0  0  0  0
  2  1  1  0
  3  2  1  0
  4  5  1  0
  4  3  1  0
  5  6  1  6
  7  5  1  0
  7 11  1  0
  8  7  2  0
 10 12  1  0
 10  9  1  1
 10 11  1  0
 12 16  1  0
 13 12  2  0
 15 14  1  6
 16 15  1  0
 17 18  1  0
 17 15  1  0
 19 17  2  0
M  END
$$$$
