MAA.pdb
     RDKit          3D

 19 18  0  0  1  0  0  0  0  0999 V2000
   26.7461  -20.1793   -5.8826 C   0  0  0  0  0  0  0  0  0  0  0  0
   26.8652  -19.6749   -7.5809 S   0  0  0  0  0  0  0  0  0  0  0  0
   25.6986  -20.4520   -8.6632 C   0  0  0  0  0  0  0  0  0  0  0  0
   25.8061  -20.0066  -10.0677 C   0  0  0  0  0  0  0  0  0  0  0  0
   25.9652  -21.1077  -11.0545 C   0  0  2  0  0  0  0  0  0  0  0  0
   27.2200  -21.8376  -10.6922 N   0  0  0  0  0  0  0  0  0  0  0  0
   26.1972  -20.4878  -12.4102 C   0  0  0  0  0  0  0  0  0  0  0  0
   27.2613  -19.9228  -12.7461 O   0  0  0  0  0  0  0  0  0  0  0  0
   24.5508  -20.7562  -15.7581 C   0  0  0  0  0  0  0  0  0  0  0  0
   25.4992  -20.0657  -14.7706 C   0  0  2  0  0  0  0  0  0  0  0  0
   25.1813  -20.5192  -13.4010 N   0  0  0  0  0  0  0  0  0  0  0  0
   25.1993  -18.6191  -14.8494 C   0  0  0  0  0  0  0  0  0  0  0  0
   24.3022  -18.1070  -14.1393 O   0  0  0  0  0  0  0  0  0  0  0  0
   26.6294  -15.6011  -15.1563 C   0  0  0  0  0  0  0  0  0  0  0  0
   25.5539  -16.4003  -15.8783 C   0  0  2  0  0  0  0  0  0  0  0  0
   25.9275  -17.7893  -15.7347 N   0  0  0  0  0  0  0  0  0  0  0  0
   25.4871  -16.0104  -17.3056 C   0  0  0  0  0  0  0  0  0  0  0  0
   24.8809  -14.8373  -17.6873 O   0  0  0  0  0  0  0  0  0  0  0  0
   25.9995  -16.7820  -18.1526 O   0  0  0  0  0  0  0  0  0  0  0  0
  2  1  1  0
  3  2  1  0
  4  5  1  0
  4  3  1  0
  5  6  1  1
  7  5  1  0
  7 11  1  0
  8  7  2  0
 10 12  1  0
 10  9  1  6
 10 11  1  0
 12 16  1  0
 13 12  2  0
 15 14  1  1
 16 15  1  0
 17 18  1  0
 17 15  1  0
 19 17  2  0
M  END
$$$$
