MPL.pdb
     RDKit          3D

 24 24  0  0  1  0  0  0  0  0999 V2000
   21.6248  -19.2373  -10.7495 C   0  0  0  0  0  0  0  0  0  0  0  0
   21.8599  -19.0011  -12.5245 S   0  0  0  0  0  0  0  0  0  0  0  0
   23.2130  -20.1207  -13.0875 C   0  0  0  0  0  0  0  0  0  0  0  0
   24.0591  -20.5395  -11.9386 C   0  0  0  0  0  0  0  0  0  0  0  0
   25.2123  -21.3956  -12.3412 C   0  0  2  0  0  0  0  0  0  0  0  0
   24.7642  -22.6197  -12.9955 N   0  0  0  0  0  0  0  0  0  0  0  0
   26.1939  -21.7181  -11.3113 C   0  0  0  0  0  0  0  0  0  0  0  0
   25.8490  -22.6045  -10.4590 O   0  0  0  0  0  0  0  0  0  0  0  0
   27.4822  -21.1554  -11.1567 N   0  0  0  0  0  0  0  0  0  0  0  0
   28.2865  -20.2864  -11.9551 C   0  0  0  0  0  0  0  0  0  0  0  0
   29.6715  -20.9404  -11.8326 C   0  0  0  0  0  0  0  0  0  0  0  0
   29.6791  -21.7042  -10.5506 C   0  0  0  0  0  0  0  0  0  0  0  0
   28.3354  -21.3967   -9.9763 C   0  0  1  0  0  0  0  0  0  0  0  0
   28.3378  -20.1973   -9.0838 C   0  0  0  0  0  0  0  0  0  0  0  0
   27.6494  -19.1924   -9.3032 O   0  0  0  0  0  0  0  0  0  0  0  0
   27.7619  -19.7525   -3.8338 C   0  0  0  0  0  0  0  0  0  0  0  0
   26.8646  -20.0092   -5.0051 C   0  0  2  0  0  0  0  0  0  0  0  0
   25.6536  -20.8383   -4.6837 C   0  0  0  0  0  0  0  0  0  0  0  0
   27.5352  -20.3613   -6.2696 C   0  0  0  0  0  0  0  0  0  0  0  0
   28.7894  -19.6903   -6.6548 C   0  0  2  0  0  0  0  0  0  0  0  0
   29.1801  -20.2587   -7.9492 N   0  0  0  0  0  0  0  0  0  0  0  0
   29.9393  -19.7848   -5.7662 C   0  0  0  0  0  0  0  0  0  0  0  0
   30.5631  -20.8907   -5.6657 O   0  0  0  0  0  0  0  0  0  0  0  0
   30.4646  -18.7679   -4.9809 O   0  0  0  0  0  0  0  0  0  0  0  0
  1  2  1  0
  3  2  1  0
  4  3  1  0
  5  6  1  1
  5  4  1  0
  7  5  1  0
  8  7  2  0
  9 10  1  0
  9  7  1  0
 11 10  1  0
 12 13  1  0
 12 11  1  0
 13  9  1  0
 13 14  1  1
 14 15  2  0
 17 16  1  1
 18 17  1  0
 19 17  1  0
 20 19  1  1
 20 21  1  0
 21 14  1  0
 22 24  1  0
 22 20  1  0
 23 22  2  0
M  END
$$$$
