MPL.pdb
     RDKit          3D

 24 24  0  0  1  0  0  0  0  0999 V2000
   21.1906  -18.5169  -15.9579 C   0  0  0  0  0  0  0  0  0  0  0  0
   20.9603  -20.1799  -15.2925 S   0  0  0  0  0  0  0  0  0  0  0  0
   22.5172  -21.1334  -15.5545 C   0  0  0  0  0  0  0  0  0  0  0  0
   23.3498  -20.4978  -16.6100 C   0  0  0  0  0  0  0  0  0  0  0  0
   24.6559  -21.1868  -16.8202 C   0  0  2  0  0  0  0  0  0  0  0  0
   24.4842  -22.4493  -17.5299 N   0  0  0  0  0  0  0  0  0  0  0  0
   25.4973  -21.3918  -15.6461 C   0  0  0  0  0  0  0  0  0  0  0  0
   25.7577  -22.6046  -15.3418 O   0  0  0  0  0  0  0  0  0  0  0  0
   26.0531  -20.3940  -14.8120 N   0  0  0  0  0  0  0  0  0  0  0  0
   26.0032  -18.9668  -14.8054 C   0  0  0  0  0  0  0  0  0  0  0  0
   27.4629  -18.6035  -14.4921 C   0  0  0  0  0  0  0  0  0  0  0  0
   28.0521  -19.7641  -13.7623 C   0  0  0  0  0  0  0  0  0  0  0  0
   26.8927  -20.6965  -13.6359 C   0  0  1  0  0  0  0  0  0  0  0  0
   26.1124  -20.4973  -12.3762 C   0  0  0  0  0  0  0  0  0  0  0  0
   25.0156  -19.9246  -12.3461 O   0  0  0  0  0  0  0  0  0  0  0  0
   27.7317  -19.4568   -6.7338 C   0  0  0  0  0  0  0  0  0  0  0  0
   26.6443  -20.0565   -7.5710 C   0  0  2  0  0  0  0  0  0  0  0  0
   25.7382  -20.9941   -6.8248 C   0  0  0  0  0  0  0  0  0  0  0  0
   27.0410  -20.5196   -8.9129 C   0  0  0  0  0  0  0  0  0  0  0  0
   26.0148  -20.9202   -9.8917 C   0  0  2  0  0  0  0  0  0  0  0  0
   26.6931  -21.0025  -11.1896 N   0  0  0  0  0  0  0  0  0  0  0  0
   24.8381  -20.0792  -10.0613 C   0  0  0  0  0  0  0  0  0  0  0  0
   23.6840  -20.5631   -9.8243 O   0  0  0  0  0  0  0  0  0  0  0  0
   24.8205  -18.7516  -10.4657 O   0  0  0  0  0  0  0  0  0  0  0  0
  1  2  1  0
  3  2  1  0
  4  3  1  0
  5  6  1  1
  5  4  1  0
  7  5  1  0
  8  7  2  0
  9 10  1  0
  9  7  1  0
 11 10  1  0
 12 13  1  0
 12 11  1  0
 13  9  1  0
 13 14  1  1
 14 15  2  0
 17 16  1  1
 18 17  1  0
 19 17  1  0
 20 19  1  1
 20 21  1  0
 21 14  1  0
 22 24  1  0
 22 20  1  0
 23 22  2  0
M  END
$$$$
