MPL.pdb
     RDKit          3D

 24 24  0  0  1  0  0  0  0  0999 V2000
   23.9308  -16.0309  -14.7201 C   0  0  0  0  0  0  0  0  0  0  0  0
   25.4320  -15.2572  -15.3599 S   0  0  0  0  0  0  0  0  0  0  0  0
   26.8007  -16.4912  -15.2862 C   0  0  0  0  0  0  0  0  0  0  0  0
   26.4072  -17.6616  -14.4578 C   0  0  0  0  0  0  0  0  0  0  0  0
   27.0119  -18.9418  -14.9273 C   0  0  2  0  0  0  0  0  0  0  0  0
   26.4593  -19.3519  -16.2133 N   0  0  0  0  0  0  0  0  0  0  0  0
   26.9906  -20.0679  -14.0001 C   0  0  0  0  0  0  0  0  0  0  0  0
   26.0281  -20.8960  -14.1379 O   0  0  0  0  0  0  0  0  0  0  0  0
   27.9192  -20.3391  -12.9683 N   0  0  0  0  0  0  0  0  0  0  0  0
   29.0593  -19.6495  -12.4546 C   0  0  0  0  0  0  0  0  0  0  0  0
   30.0630  -20.7981  -12.2687 C   0  0  0  0  0  0  0  0  0  0  0  0
   29.2657  -22.0474  -12.0945 C   0  0  0  0  0  0  0  0  0  0  0  0
   27.8592  -21.5467  -12.1211 C   0  0  1  0  0  0  0  0  0  0  0  0
   27.3313  -21.2035  -10.7651 C   0  0  0  0  0  0  0  0  0  0  0  0
   28.0581  -20.8445   -9.8299 O   0  0  0  0  0  0  0  0  0  0  0  0
   26.7053  -21.2367   -6.7204 C   0  0  0  0  0  0  0  0  0  0  0  0
   27.0273  -20.1217   -7.6671 C   0  0  2  0  0  0  0  0  0  0  0  0
   27.5659  -18.8860   -7.0035 C   0  0  0  0  0  0  0  0  0  0  0  0
   26.0385  -19.8693   -8.7306 C   0  0  0  0  0  0  0  0  0  0  0  0
   25.2784  -20.9880   -9.3160 C   0  0  2  0  0  0  0  0  0  0  0  0
   25.9318  -21.3084  -10.5894 N   0  0  0  0  0  0  0  0  0  0  0  0
   23.8576  -20.8102   -9.5815 C   0  0  0  0  0  0  0  0  0  0  0  0
   23.4832  -20.3766  -10.7190 O   0  0  0  0  0  0  0  0  0  0  0  0
   22.8127  -21.0710   -8.7059 O   0  0  0  0  0  0  0  0  0  0  0  0
  1  2  1  0
  3  2  1  0
  4  3  1  0
  5  6  1  6
  5  4  1  0
  7  5  1  0
  8  7  2  0
  9 10  1  0
  9  7  1  0
 11 10  1  0
 12 13  1  0
 12 11  1  0
 13  9  1  0
 13 14  1  1
 14 15  2  0
 17 16  1  1
 18 17  1  0
 19 17  1  0
 20 19  1  6
 20 21  1  0
 21 14  1  0
 22 24  1  0
 22 20  1  0
 23 22  2  0
M  END
$$$$
