MPL.pdb
     RDKit          3D

 24 24  0  0  1  0  0  0  0  0999 V2000
   23.3744  -24.1623  -19.1361 C   0  0  0  0  0  0  0  0  0  0  0  0
   23.7686  -23.0183  -20.4768 S   0  0  0  0  0  0  0  0  0  0  0  0
   25.2471  -22.0314  -19.9854 C   0  0  0  0  0  0  0  0  0  0  0  0
   25.5695  -22.2494  -18.5502 C   0  0  0  0  0  0  0  0  0  0  0  0
   26.9595  -21.8428  -18.1934 C   0  0  2  0  0  0  0  0  0  0  0  0
   27.9241  -22.8796  -18.5423 N   0  0  0  0  0  0  0  0  0  0  0  0
   27.1916  -21.3941  -16.8248 C   0  0  0  0  0  0  0  0  0  0  0  0
   27.8370  -22.1958  -16.0685 O   0  0  0  0  0  0  0  0  0  0  0  0
   26.7793  -20.1701  -16.2484 N   0  0  0  0  0  0  0  0  0  0  0  0
   25.9919  -19.0723  -16.7109 C   0  0  0  0  0  0  0  0  0  0  0  0
   26.7988  -17.8695  -16.1978 C   0  0  0  0  0  0  0  0  0  0  0  0
   27.5809  -18.3427  -15.0183 C   0  0  0  0  0  0  0  0  0  0  0  0
   27.1352  -19.7607  -14.8753 C   0  0  1  0  0  0  0  0  0  0  0  0
   25.9594  -19.9187  -13.9655 C   0  0  0  0  0  0  0  0  0  0  0  0
   24.8052  -20.0884  -14.3789 O   0  0  0  0  0  0  0  0  0  0  0  0
   23.9927  -20.7818   -8.9491 C   0  0  0  0  0  0  0  0  0  0  0  0
   25.4705  -20.9884   -9.0773 C   0  0  2  0  0  0  0  0  0  0  0  0
   26.2420  -20.7197   -7.8164 C   0  0  0  0  0  0  0  0  0  0  0  0
   26.0937  -20.4632  -10.3054 C   0  0  0  0  0  0  0  0  0  0  0  0
   25.3828  -20.5517  -11.5932 C   0  0  2  0  0  0  0  0  0  0  0  0
   26.2259  -19.8650  -12.5774 N   0  0  0  0  0  0  0  0  0  0  0  0
   24.0413  -19.9943  -11.6958 C   0  0  0  0  0  0  0  0  0  0  0  0
   23.8961  -18.7395  -11.8586 O   0  0  0  0  0  0  0  0  0  0  0  0
   22.8459  -20.6973  -11.6382 O   0  0  0  0  0  0  0  0  0  0  0  0
  1  2  1  0
  3  2  1  0
  4  3  1  0
  5  6  1  1
  5  4  1  0
  7  5  1  0
  8  7  2  0
  9 10  1  0
  9  7  1  0
 11 10  1  0
 12 13  1  0
 12 11  1  0
 13  9  1  0
 13 14  1  1
 14 15  2  0
 17 16  1  1
 18 17  1  0
 19 17  1  0
 20 19  1  1
 20 21  1  0
 21 14  1  0
 22 24  1  0
 22 20  1  0
 23 22  2  0
M  END
$$$$
