MPL.pdb
     RDKit          3D

 24 24  0  0  1  0  0  0  0  0999 V2000
   21.2750  -20.4649  -11.8114 C   0  0  0  0  0  0  0  0  0  0  0  0
   21.0964  -20.9808  -13.5329 S   0  0  0  0  0  0  0  0  0  0  0  0
   22.7003  -21.6957  -14.0967 C   0  0  0  0  0  0  0  0  0  0  0  0
   23.6695  -21.7615  -12.9709 C   0  0  0  0  0  0  0  0  0  0  0  0
   24.9799  -22.3587  -13.3598 C   0  0  2  0  0  0  0  0  0  0  0  0
   24.8130  -23.7018  -13.9032 N   0  0  0  0  0  0  0  0  0  0  0  0
   26.0353  -22.3621  -12.3525 C   0  0  0  0  0  0  0  0  0  0  0  0
   26.1795  -23.4434  -11.6882 O   0  0  0  0  0  0  0  0  0  0  0  0
   26.9125  -21.2993  -12.0346 N   0  0  0  0  0  0  0  0  0  0  0  0
   27.1748  -20.0224  -12.6179 C   0  0  0  0  0  0  0  0  0  0  0  0
   28.7086  -19.9573  -12.5533 C   0  0  0  0  0  0  0  0  0  0  0  0
   29.1345  -20.8514  -11.4370 C   0  0  0  0  0  0  0  0  0  0  0  0
   27.8326  -21.3259  -10.8803 C   0  0  1  0  0  0  0  0  0  0  0  0
   27.3114  -20.4569   -9.7810 C   0  0  0  0  0  0  0  0  0  0  0  0
   26.2719  -19.7928   -9.8821 O   0  0  0  0  0  0  0  0  0  0  0  0
   28.2683  -21.8819   -4.8172 C   0  0  0  0  0  0  0  0  0  0  0  0
   29.1931  -21.0908   -5.6899 C   0  0  2  0  0  0  0  0  0  0  0  0
   30.5557  -20.8648   -5.0987 C   0  0  0  0  0  0  0  0  0  0  0  0
   28.6067  -19.9136   -6.3555 C   0  0  0  0  0  0  0  0  0  0  0  0
   27.4820  -20.0767   -7.2936 C   0  0  2  0  0  0  0  0  0  0  0  0
   28.0737  -20.4233   -8.5901 N   0  0  0  0  0  0  0  0  0  0  0  0
   26.5761  -18.9567   -7.5072 C   0  0  0  0  0  0  0  0  0  0  0  0
   25.5914  -18.7891   -6.7169 O   0  0  0  0  0  0  0  0  0  0  0  0
   26.6608  -18.0032   -8.5123 O   0  0  0  0  0  0  0  0  0  0  0  0
  1  2  1  0
  3  2  1  0
  4  3  1  0
  5  6  1  1
  5  4  1  0
  7  5  1  0
  8  7  2  0
  9 10  1  0
  9  7  1  0
 11 10  1  0
 12 13  1  0
 12 11  1  0
 13  9  1  0
 13 14  1  1
 14 15  2  0
 17 16  1  1
 18 17  1  0
 19 17  1  0
 20 19  1  1
 20 21  1  0
 21 14  1  0
 22 24  1  0
 22 20  1  0
 23 22  2  0
M  END
$$$$
