MPL.pdb
     RDKit          3D

 24 24  0  0  1  0  0  0  0  0999 V2000
   22.6773  -14.0050  -14.2858 C   0  0  0  0  0  0  0  0  0  0  0  0
   21.4061  -15.2805  -14.4223 S   0  0  0  0  0  0  0  0  0  0  0  0
   22.0534  -16.6365  -15.4917 C   0  0  0  0  0  0  0  0  0  0  0  0
   22.7397  -16.0790  -16.6873 C   0  0  0  0  0  0  0  0  0  0  0  0
   23.2926  -17.1306  -17.5892 C   0  0  2  0  0  0  0  0  0  0  0  0
   22.2295  -17.9126  -18.2102 N   0  0  0  0  0  0  0  0  0  0  0  0
   24.3002  -18.0252  -17.0299 C   0  0  0  0  0  0  0  0  0  0  0  0
   23.9453  -19.2400  -16.8585 O   0  0  0  0  0  0  0  0  0  0  0  0
   25.6234  -17.6913  -16.6586 N   0  0  0  0  0  0  0  0  0  0  0  0
   26.3458  -16.4633  -16.5620 C   0  0  0  0  0  0  0  0  0  0  0  0
   27.7001  -16.8468  -17.1782 C   0  0  0  0  0  0  0  0  0  0  0  0
   27.8551  -18.3206  -17.0029 C   0  0  0  0  0  0  0  0  0  0  0  0
   26.6252  -18.6927  -16.2423 C   0  0  1  0  0  0  0  0  0  0  0  0
   26.8153  -18.6513  -14.7599 C   0  0  0  0  0  0  0  0  0  0  0  0
   26.8306  -17.5972  -14.1115 O   0  0  0  0  0  0  0  0  0  0  0  0
   26.4634  -20.9003   -9.8404 C   0  0  0  0  0  0  0  0  0  0  0  0
   25.4144  -20.3097  -10.7314 C   0  0  2  0  0  0  0  0  0  0  0  0
   24.0096  -20.7077  -10.3773 C   0  0  0  0  0  0  0  0  0  0  0  0
   25.7121  -20.3166  -12.1749 C   0  0  0  0  0  0  0  0  0  0  0  0
   27.0727  -20.0123  -12.6523 C   0  0  2  0  0  0  0  0  0  0  0  0
   26.9813  -19.8973  -14.1116 N   0  0  0  0  0  0  0  0  0  0  0  0
   28.1493  -20.9450  -12.3496 C   0  0  0  0  0  0  0  0  0  0  0  0
   28.2790  -21.9998  -13.0516 O   0  0  0  0  0  0  0  0  0  0  0  0
   29.0976  -20.8169  -11.3441 O   0  0  0  0  0  0  0  0  0  0  0  0
  1  2  1  0
  3  2  1  0
  4  3  1  0
  5  6  1  1
  5  4  1  0
  7  5  1  0
  8  7  2  0
  9 10  1  0
  9  7  1  0
 11 10  1  0
 12 13  1  0
 12 11  1  0
 13  9  1  0
 13 14  1  1
 14 15  2  0
 17 16  1  1
 18 17  1  0
 19 17  1  0
 20 19  1  6
 20 21  1  0
 21 14  1  0
 22 24  1  0
 22 20  1  0
 23 22  2  0
M  END
$$$$
