MPL.pdb
     RDKit          3D

 24 24  0  0  1  0  0  0  0  0999 V2000
   23.5201  -16.1115  -16.0258 C   0  0  0  0  0  0  0  0  0  0  0  0
   22.1162  -17.1465  -16.4941 S   0  0  0  0  0  0  0  0  0  0  0  0
   22.6480  -18.9115  -16.4354 C   0  0  0  0  0  0  0  0  0  0  0  0
   23.8332  -19.1311  -17.3061 C   0  0  0  0  0  0  0  0  0  0  0  0
   24.3963  -20.5078  -17.1934 C   0  0  2  0  0  0  0  0  0  0  0  0
   23.4323  -21.5146  -17.6228 N   0  0  0  0  0  0  0  0  0  0  0  0
   24.9680  -20.8901  -15.9068 C   0  0  0  0  0  0  0  0  0  0  0  0
   24.3569  -21.8116  -15.2677 O   0  0  0  0  0  0  0  0  0  0  0  0
   26.1230  -20.3506  -15.2941 N   0  0  0  0  0  0  0  0  0  0  0  0
   27.0256  -19.2977  -15.6348 C   0  0  0  0  0  0  0  0  0  0  0  0
   28.3855  -19.9295  -15.2994 C   0  0  0  0  0  0  0  0  0  0  0  0
   28.1346  -20.9767  -14.2663 C   0  0  0  0  0  0  0  0  0  0  0  0
   26.6684  -20.8467  -14.0150 C   0  0  1  0  0  0  0  0  0  0  0  0
   26.3434  -19.8952  -12.9085 C   0  0  0  0  0  0  0  0  0  0  0  0
   26.1189  -18.6929  -13.0975 O   0  0  0  0  0  0  0  0  0  0  0  0
   22.1311  -19.0739  -10.7160 C   0  0  0  0  0  0  0  0  0  0  0  0
   22.6389  -20.4810  -10.7877 C   0  0  2  0  0  0  0  0  0  0  0  0
   22.4092  -21.2835   -9.5386 C   0  0  0  0  0  0  0  0  0  0  0  0
   23.9679  -20.6595  -11.3997 C   0  0  0  0  0  0  0  0  0  0  0  0
   25.1766  -20.1993  -10.6933 C   0  0  2  0  0  0  0  0  0  0  0  0
   26.3018  -20.4385  -11.6032 N   0  0  0  0  0  0  0  0  0  0  0  0
   25.5121  -20.7990   -9.4094 C   0  0  0  0  0  0  0  0  0  0  0  0
   25.9619  -21.9900   -9.3737 O   0  0  0  0  0  0  0  0  0  0  0  0
   25.3990  -20.2016   -8.1616 O   0  0  0  0  0  0  0  0  0  0  0  0
  1  2  1  0
  3  2  1  0
  4  3  1  0
  5  6  1  1
  5  4  1  0
  7  5  1  0
  8  7  2  0
  9 10  1  0
  9  7  1  0
 11 10  1  0
 12 13  1  0
 12 11  1  0
 13  9  1  0
 13 14  1  1
 14 15  2  0
 17 16  1  1
 18 17  1  0
 19 17  1  0
 20 19  1  6
 20 21  1  0
 21 14  1  0
 22 24  1  0
 22 20  1  0
 23 22  2  0
M  END
$$$$
