MPL.pdb
     RDKit          3D

 24 24  0  0  1  0  0  0  0  0999 V2000
   26.0316  -14.5343  -15.1413 C   0  0  0  0  0  0  0  0  0  0  0  0
   24.2565  -14.8664  -15.1295 S   0  0  0  0  0  0  0  0  0  0  0  0
   23.9935  -16.6458  -15.5368 C   0  0  0  0  0  0  0  0  0  0  0  0
   24.5969  -16.9765  -16.8550 C   0  0  0  0  0  0  0  0  0  0  0  0
   24.5081  -18.4266  -17.1930 C   0  0  2  0  0  0  0  0  0  0  0  0
   23.1213  -18.8596  -17.3222 N   0  0  0  0  0  0  0  0  0  0  0  0
   25.2368  -19.3560  -16.3364 C   0  0  0  0  0  0  0  0  0  0  0  0
   24.5632  -20.3287  -15.8555 O   0  0  0  0  0  0  0  0  0  0  0  0
   26.6048  -19.2944  -15.9830 N   0  0  0  0  0  0  0  0  0  0  0  0
   27.6223  -18.3028  -16.1281 C   0  0  0  0  0  0  0  0  0  0  0  0
   28.8245  -19.1500  -16.5731 C   0  0  0  0  0  0  0  0  0  0  0  0
   28.5931  -20.5334  -16.0638 C   0  0  0  0  0  0  0  0  0  0  0  0
   27.3161  -20.3945  -15.3023 C   0  0  1  0  0  0  0  0  0  0  0  0
   27.5249  -20.0632  -13.8595 C   0  0  0  0  0  0  0  0  0  0  0  0
   27.9037  -18.9508  -13.4712 O   0  0  0  0  0  0  0  0  0  0  0  0
   25.1279  -19.9081   -9.3450 C   0  0  0  0  0  0  0  0  0  0  0  0
   24.5359  -19.7931  -10.7159 C   0  0  2  0  0  0  0  0  0  0  0  0
   23.1618  -20.3865  -10.8455 C   0  0  0  0  0  0  0  0  0  0  0  0
   25.4431  -20.0870  -11.8397 C   0  0  0  0  0  0  0  0  0  0  0  0
   26.6909  -20.8361  -11.6082 C   0  0  2  0  0  0  0  0  0  0  0  0
   27.2653  -21.0990  -12.9319 N   0  0  0  0  0  0  0  0  0  0  0  0
   26.6280  -22.1040  -10.8947 C   0  0  0  0  0  0  0  0  0  0  0  0
   27.1488  -22.1962   -9.7360 O   0  0  0  0  0  0  0  0  0  0  0  0
   26.0394  -23.2783  -11.3432 O   0  0  0  0  0  0  0  0  0  0  0  0
  1  2  1  0
  3  2  1  0
  4  3  1  0
  5  6  1  1
  5  4  1  0
  7  5  1  0
  8  7  2  0
  9 10  1  0
  9  7  1  0
 11 10  1  0
 12 13  1  0
 12 11  1  0
 13  9  1  0
 13 14  1  1
 14 15  2  0
 17 16  1  1
 18 17  1  0
 19 17  1  0
 20 19  1  6
 20 21  1  0
 21 14  1  0
 22 24  1  0
 22 20  1  0
 23 22  2  0
M  END
$$$$
