MPL.pdb
     RDKit          3D

 24 24  0  0  1  0  0  0  0  0999 V2000
   24.0506  -15.2086  -15.2264 C   0  0  0  0  0  0  0  0  0  0  0  0
   23.0869  -16.6971  -14.8839 S   0  0  0  0  0  0  0  0  0  0  0  0
   23.9855  -18.1474  -15.5843 C   0  0  0  0  0  0  0  0  0  0  0  0
   25.3642  -17.7643  -15.9890 C   0  0  0  0  0  0  0  0  0  0  0  0
   26.1297  -18.8895  -16.5997 C   0  0  2  0  0  0  0  0  0  0  0  0
   25.5406  -19.3092  -17.8662 N   0  0  0  0  0  0  0  0  0  0  0  0
   26.3798  -20.0571  -15.7615 C   0  0  0  0  0  0  0  0  0  0  0  0
   25.8030  -21.1406  -16.1144 O   0  0  0  0  0  0  0  0  0  0  0  0
   27.1901  -20.1165  -14.6039 N   0  0  0  0  0  0  0  0  0  0  0  0
   27.7724  -19.1310  -13.7500 C   0  0  0  0  0  0  0  0  0  0  0  0
   29.1806  -19.7034  -13.5253 C   0  0  0  0  0  0  0  0  0  0  0  0
   29.0867  -21.1790  -13.7269 C   0  0  0  0  0  0  0  0  0  0  0  0
   27.6307  -21.3837  -13.9875 C   0  0  1  0  0  0  0  0  0  0  0  0
   26.8439  -21.6579  -12.7461 C   0  0  0  0  0  0  0  0  0  0  0  0
   27.2835  -22.3295  -11.8041 O   0  0  0  0  0  0  0  0  0  0  0  0
   26.3671  -19.2560   -8.2815 C   0  0  0  0  0  0  0  0  0  0  0  0
   25.6854  -20.3133   -9.0942 C   0  0  2  0  0  0  0  0  0  0  0  0
   25.9563  -21.7167   -8.6313 C   0  0  0  0  0  0  0  0  0  0  0  0
   25.7194  -20.1288  -10.5561 C   0  0  0  0  0  0  0  0  0  0  0  0
   24.8277  -20.9188  -11.4235 C   0  0  2  0  0  0  0  0  0  0  0  0
   25.5434  -21.1048  -12.6901 N   0  0  0  0  0  0  0  0  0  0  0  0
   23.5055  -20.3948  -11.7365 C   0  0  0  0  0  0  0  0  0  0  0  0
   23.3839  -19.4989  -12.6335 O   0  0  0  0  0  0  0  0  0  0  0  0
   22.3051  -20.7728  -11.1510 O   0  0  0  0  0  0  0  0  0  0  0  0
  1  2  1  0
  3  2  1  0
  4  3  1  0
  5  6  1  6
  5  4  1  0
  7  5  1  0
  8  7  2  0
  9 10  1  0
  9  7  1  0
 11 10  1  0
 12 13  1  0
 12 11  1  0
 13  9  1  0
 13 14  1  1
 14 15  2  0
 17 16  1  1
 18 17  1  0
 19 17  1  0
 20 19  1  1
 20 21  1  0
 21 14  1  0
 22 24  1  0
 22 20  1  0
 23 22  2  0
M  END
$$$$
