MPL.pdb
     RDKit          3D

 24 24  0  0  1  0  0  0  0  0999 V2000
   10.1644  -23.9198    1.2093 C   0  0  0  0  0  0  0  0  0  0  0  0
   11.4557  -24.7036    0.2194 S   0  0  0  0  0  0  0  0  0  0  0  0
   12.4101  -23.3830   -0.6447 C   0  0  0  0  0  0  0  0  0  0  0  0
   13.1715  -22.5613    0.3332 C   0  0  0  0  0  0  0  0  0  0  0  0
   14.0255  -21.5230   -0.3130 C   0  0  2  0  0  0  0  0  0  0  0  0
   14.6754  -22.0386   -1.5126 N   0  0  0  0  0  0  0  0  0  0  0  0
   15.0082  -20.8502    0.5296 C   0  0  0  0  0  0  0  0  0  0  0  0
   16.2352  -21.0448    0.2331 O   0  0  0  0  0  0  0  0  0  0  0  0
   14.7477  -20.0085    1.6359 N   0  0  0  0  0  0  0  0  0  0  0  0
   13.5595  -19.6133    2.3224 C   0  0  0  0  0  0  0  0  0  0  0  0
   13.8050  -18.1114    2.5349 C   0  0  0  0  0  0  0  0  0  0  0  0
   15.2833  -17.9079    2.5277 C   0  0  0  0  0  0  0  0  0  0  0  0
   15.8064  -19.2988    2.3810 C   0  0  1  0  0  0  0  0  0  0  0  0
   16.0600  -19.9730    3.6911 C   0  0  0  0  0  0  0  0  0  0  0  0
   15.2098  -20.6602    4.2713 O   0  0  0  0  0  0  0  0  0  0  0  0
   20.9842  -21.2583    6.8186 C   0  0  0  0  0  0  0  0  0  0  0  0
   19.8211  -21.8992    6.1261 C   0  0  2  0  0  0  0  0  0  0  0  0
   20.0684  -23.3148    5.6881 C   0  0  0  0  0  0  0  0  0  0  0  0
   19.1138  -21.0630    5.1397 C   0  0  0  0  0  0  0  0  0  0  0  0
   17.7821  -20.5148    5.4523 C   0  0  2  0  0  0  0  0  0  0  0  0
   17.3439  -19.7891    4.2554 N   0  0  0  0  0  0  0  0  0  0  0  0
   17.6405  -19.6164    6.5896 C   0  0  0  0  0  0  0  0  0  0  0  0
   17.7364  -18.3592    6.4094 O   0  0  0  0  0  0  0  0  0  0  0  0
   17.3995  -19.9802    7.9072 O   0  0  0  0  0  0  0  0  0  0  0  0
  1  2  1  0
  3  2  1  0
  4  3  1  0
  5  6  1  6
  5  4  1  0
  7  5  1  0
  8  7  2  0
  9 10  1  0
  9  7  1  0
 11 10  1  0
 12 13  1  0
 12 11  1  0
 13  9  1  0
 13 14  1  1
 14 15  2  0
 17 16  1  6
 18 17  1  0
 19 17  1  0
 20 19  1  6
 20 21  1  0
 21 14  1  0
 22 24  1  0
 22 20  1  0
 23 22  2  0
M  END
$$$$
