MPL.pdb
     RDKit          3D

 24 24  0  0  1  0  0  0  0  0999 V2000
   21.6868  -18.5805  -12.2605 C   0  0  0  0  0  0  0  0  0  0  0  0
   21.5996  -19.9252  -11.0582 S   0  0  0  0  0  0  0  0  0  0  0  0
   22.9725  -21.1071  -11.4047 C   0  0  0  0  0  0  0  0  0  0  0  0
   23.5769  -20.8328  -12.7354 C   0  0  0  0  0  0  0  0  0  0  0  0
   24.7149  -21.7407  -13.0605 C   0  0  2  0  0  0  0  0  0  0  0  0
   24.2437  -23.0392  -13.5285 N   0  0  0  0  0  0  0  0  0  0  0  0
   25.7328  -21.9271  -12.0322 C   0  0  0  0  0  0  0  0  0  0  0  0
   25.7117  -23.0429  -11.4112 O   0  0  0  0  0  0  0  0  0  0  0  0
   26.7369  -21.0068  -11.6511 N   0  0  0  0  0  0  0  0  0  0  0  0
   27.0267  -19.6537  -12.0039 C   0  0  0  0  0  0  0  0  0  0  0  0
   28.5540  -19.6926  -12.1679 C   0  0  0  0  0  0  0  0  0  0  0  0
   29.0518  -20.8234  -11.3310 C   0  0  0  0  0  0  0  0  0  0  0  0
   27.8045  -21.3273  -10.6830 C   0  0  1  0  0  0  0  0  0  0  0  0
   27.5225  -20.6785   -9.3659 C   0  0  0  0  0  0  0  0  0  0  0  0
   26.5966  -19.8753   -9.1947 O   0  0  0  0  0  0  0  0  0  0  0  0
   28.2256  -21.3129   -3.8333 C   0  0  0  0  0  0  0  0  0  0  0  0
   29.3263  -20.7453   -4.6755 C   0  0  2  0  0  0  0  0  0  0  0  0
   29.6785  -19.3212   -4.3513 C   0  0  0  0  0  0  0  0  0  0  0  0
   29.2640  -21.0526   -6.1157 C   0  0  0  0  0  0  0  0  0  0  0  0
   28.0870  -20.6544   -6.9079 C   0  0  2  0  0  0  0  0  0  0  0  0
   28.3786  -21.0285   -8.2958 N   0  0  0  0  0  0  0  0  0  0  0  0
   27.6767  -19.2571   -6.9044 C   0  0  0  0  0  0  0  0  0  0  0  0
   28.2615  -18.4315   -7.6781 O   0  0  0  0  0  0  0  0  0  0  0  0
   26.6772  -18.6895   -6.1264 O   0  0  0  0  0  0  0  0  0  0  0  0
  1  2  1  0
  3  2  1  0
  4  3  1  0
  5  6  1  1
  5  4  1  0
  7  5  1  0
  8  7  2  0
  9 10  1  0
  9  7  1  0
 11 10  1  0
 12 13  1  0
 12 11  1  0
 13  9  1  0
 13 14  1  1
 14 15  2  0
 17 16  1  6
 18 17  1  0
 19 17  1  0
 20 19  1  1
 20 21  1  0
 21 14  1  0
 22 24  1  0
 22 20  1  0
 23 22  2  0
M  END
$$$$
