FTV.pdb
     RDKit          3D

 26 26  0  0  1  0  0  0  0  0999 V2000
   30.6950  -21.7319  -16.2743 N   0  0  0  0  0  0  0  0  0  0  0  0
   29.8316  -22.1220  -15.1928 C   0  0  1  0  0  0  0  0  0  0  0  0
   30.3879  -21.6269  -13.8694 C   0  0  0  0  0  0  0  0  0  0  0  0
   31.5450  -22.3980  -13.4073 C   0  0  0  0  0  0  0  0  0  0  0  0
   31.9215  -23.5370  -14.0777 C   0  0  0  0  0  0  0  0  0  0  0  0
   33.0087  -24.2574  -13.6398 C   0  0  0  0  0  0  0  0  0  0  0  0
   33.7265  -23.8339  -12.5199 C   0  0  0  0  0  0  0  0  0  0  0  0
   33.3489  -22.6984  -11.8537 C   0  0  0  0  0  0  0  0  0  0  0  0
   32.2612  -21.9696  -12.2844 C   0  0  0  0  0  0  0  0  0  0  0  0
   28.4903  -21.4656  -15.3460 C   0  0  0  0  0  0  0  0  0  0  0  0
   28.2862  -20.6409  -16.2737 O   0  0  0  0  0  0  0  0  0  0  0  0
   24.1585  -20.9497  -16.0754 C   0  0  0  0  0  0  0  0  0  0  0  0
   25.5992  -21.3737  -15.9722 C   0  0  1  0  0  0  0  0  0  0  0  0
   26.3698  -20.8500  -17.0131 O   0  0  0  0  0  0  0  0  0  0  0  0
   26.1565  -21.0310  -14.6231 C   0  0  2  0  0  0  0  0  0  0  0  0
   27.4126  -21.7386  -14.4704 N   0  0  0  0  0  0  0  0  0  0  0  0
   25.1978  -21.4118  -13.5362 C   0  0  0  0  0  0  0  0  0  0  0  0
   24.8006  -22.5917  -13.4838 O   0  0  0  0  0  0  0  0  0  0  0  0
   26.0323  -20.3699   -9.9380 C   0  0  0  0  0  0  0  0  0  0  0  0
   24.6062  -20.0604  -10.2351 C   0  0  2  0  0  0  0  0  0  0  0  0
   23.7990  -20.5235   -9.0129 C   0  0  0  0  0  0  0  0  0  0  0  0
   24.0105  -20.7194  -11.4178 C   0  0  2  0  0  0  0  0  0  0  0  0
   24.7700  -20.4471  -12.6094 N   0  0  0  0  0  0  0  0  0  0  0  0
   22.5689  -20.4545  -11.6351 C   0  0  0  0  0  0  0  0  0  0  0  0
   21.6378  -21.3643  -11.1876 O   0  0  0  0  0  0  0  0  0  0  0  0
   22.1604  -19.4108  -12.2192 O   0  0  0  0  0  0  0  0  0  0  0  0
  2 10  1  0
  2  1  1  6
  3  2  1  0
  4  3  1  0
  5  4  2  0
  6  5  1  0
  7  6  2  0
  7  8  1  0
  8  9  2  0
  9  4  1  0
 10 11  2  0
 13 12  1  1
 13 14  1  0
 15 13  1  0
 16 10  1  0
 15 16  1  1
 17 15  1  0
 17 18  2  0
 20 19  1  1
 20 22  1  0
 21 20  1  0
 22 23  1  6
 23 17  1  0
 24 25  1  0
 24 22  1  0
 26 24  2  0
M  END
$$$$
