FTV.pdb
     RDKit          3D

 26 26  0  0  1  0  0  0  0  0999 V2000
   25.5582  -20.9512   -7.4583 N   0  0  0  0  0  0  0  0  0  0  0  0
   26.4449  -20.1802   -8.2868 C   0  0  1  0  0  0  0  0  0  0  0  0
   27.8839  -20.3747   -7.8423 C   0  0  0  0  0  0  0  0  0  0  0  0
   28.1361  -19.8914   -6.4822 C   0  0  0  0  0  0  0  0  0  0  0  0
   28.3356  -20.7897   -5.4617 C   0  0  0  0  0  0  0  0  0  0  0  0
   28.5720  -20.3308   -4.1864 C   0  0  0  0  0  0  0  0  0  0  0  0
   28.6092  -18.9592   -3.9297 C   0  0  0  0  0  0  0  0  0  0  0  0
   28.4100  -18.0662   -4.9488 C   0  0  0  0  0  0  0  0  0  0  0  0
   28.1724  -18.5157   -6.2298 C   0  0  0  0  0  0  0  0  0  0  0  0
   26.3819  -20.6744   -9.7029 C   0  0  0  0  0  0  0  0  0  0  0  0
   26.5594  -21.8925   -9.9617 O   0  0  0  0  0  0  0  0  0  0  0  0
   25.1848  -22.5064  -11.1861 C   0  0  0  0  0  0  0  0  0  0  0  0
   24.8276  -21.3439  -12.0731 C   0  0  1  0  0  0  0  0  0  0  0  0
   23.6185  -20.7552  -11.6949 O   0  0  0  0  0  0  0  0  0  0  0  0
   25.9515  -20.3529  -12.1256 C   0  0  2  0  0  0  0  0  0  0  0  0
   26.1247  -19.8092  -10.7929 N   0  0  0  0  0  0  0  0  0  0  0  0
   25.6566  -19.2617  -13.1093 C   0  0  0  0  0  0  0  0  0  0  0  0
   24.8073  -18.4027  -12.8035 O   0  0  0  0  0  0  0  0  0  0  0  0
   28.7678  -17.9697  -15.3600 C   0  0  0  0  0  0  0  0  0  0  0  0
   27.4836  -18.0599  -16.1084 C   0  0  2  0  0  0  0  0  0  0  0  0
   27.3729  -16.7701  -16.9355 C   0  0  0  0  0  0  0  0  0  0  0  0
   26.2460  -18.1619  -15.3047 C   0  0  2  0  0  0  0  0  0  0  0  0
   26.3321  -19.2265  -14.3403 N   0  0  0  0  0  0  0  0  0  0  0  0
   24.9877  -18.2504  -16.0822 C   0  0  0  0  0  0  0  0  0  0  0  0
   24.2164  -17.1234  -16.2536 O   0  0  0  0  0  0  0  0  0  0  0  0
   24.5963  -19.3342  -16.6015 O   0  0  0  0  0  0  0  0  0  0  0  0
  2 10  1  0
  2  1  1  1
  3  2  1  0
  4  3  1  0
  5  4  2  0
  6  5  1  0
  7  6  2  0
  7  8  1  0
  8  9  2  0
  9  4  1  0
 10 11  2  0
 13 12  1  1
 13 14  1  0
 15 13  1  0
 16 10  1  0
 15 16  1  1
 17 15  1  0
 17 18  2  0
 20 19  1  1
 20 22  1  0
 21 20  1  0
 22 23  1  6
 23 17  1  0
 24 25  1  0
 24 22  1  0
 26 24  2  0
M  END
$$$$
