FTV.pdb
     RDKit          3D

 26 26  0  0  1  0  0  0  0  0999 V2000
   23.2970  -21.6904  -20.7289 N   0  0  0  0  0  0  0  0  0  0  0  0
   21.9954  -21.1004  -20.5708 C   0  0  1  0  0  0  0  0  0  0  0  0
   21.1757  -21.2856  -21.8357 C   0  0  0  0  0  0  0  0  0  0  0  0
   21.7037  -20.5355  -22.9783 C   0  0  0  0  0  0  0  0  0  0  0  0
   22.4163  -21.1874  -23.9559 C   0  0  0  0  0  0  0  0  0  0  0  0
   22.9099  -20.4785  -25.0266 C   0  0  0  0  0  0  0  0  0  0  0  0
   22.6883  -19.1034  -25.1202 C   0  0  0  0  0  0  0  0  0  0  0  0
   21.9778  -18.4563  -24.1444 C   0  0  0  0  0  0  0  0  0  0  0  0
   21.4790  -19.1574  -23.0677 C   0  0  0  0  0  0  0  0  0  0  0  0
   21.2402  -21.8095  -19.4844 C   0  0  0  0  0  0  0  0  0  0  0  0
   21.8012  -22.6986  -18.7936 O   0  0  0  0  0  0  0  0  0  0  0  0
   21.4295  -22.2759  -16.9049 C   0  0  0  0  0  0  0  0  0  0  0  0
   20.0218  -21.7492  -16.8242 C   0  0  1  0  0  0  0  0  0  0  0  0
   19.9957  -20.3729  -16.5865 O   0  0  0  0  0  0  0  0  0  0  0  0
   19.2428  -22.1306  -18.0473 C   0  0  2  0  0  0  0  0  0  0  0  0
   19.8870  -21.5164  -19.1916 N   0  0  0  0  0  0  0  0  0  0  0  0
   17.8180  -21.6800  -17.9357 C   0  0  0  0  0  0  0  0  0  0  0  0
   17.5290  -20.5303  -18.3197 O   0  0  0  0  0  0  0  0  0  0  0  0
   14.8361  -24.7003  -17.3061 C   0  0  0  0  0  0  0  0  0  0  0  0
   14.6061  -23.3270  -17.8340 C   0  0  2  0  0  0  0  0  0  0  0  0
   14.8997  -23.3876  -19.3407 C   0  0  0  0  0  0  0  0  0  0  0  0
   15.4471  -22.2457  -17.2760 C   0  0  2  0  0  0  0  0  0  0  0  0
   16.8478  -22.5479  -17.4083 N   0  0  0  0  0  0  0  0  0  0  0  0
   15.1209  -21.8370  -15.8895 C   0  0  0  0  0  0  0  0  0  0  0  0
   13.9537  -21.1506  -15.6423 O   0  0  0  0  0  0  0  0  0  0  0  0
   15.8825  -22.1025  -14.9164 O   0  0  0  0  0  0  0  0  0  0  0  0
  2 10  1  0
  2  1  1  6
  3  2  1  0
  4  3  1  0
  5  4  2  0
  6  5  1  0
  7  6  2  0
  7  8  1  0
  8  9  2  0
  9  4  1  0
 10 11  2  0
 13 12  1  6
 13 14  1  0
 15 13  1  0
 16 10  1  0
 15 16  1  6
 17 15  1  0
 17 18  2  0
 20 19  1  1
 20 22  1  0
 21 20  1  0
 22 23  1  1
 23 17  1  0
 24 25  1  0
 24 22  1  0
 26 24  2  0
M  END
$$$$
