FTV.pdb
     RDKit          3D

 26 26  0  0  1  0  0  0  0  0999 V2000
   28.7857  -21.6895  -17.4210 N   0  0  0  0  0  0  0  0  0  0  0  0
   28.9488  -21.7767  -15.9951 C   0  0  1  0  0  0  0  0  0  0  0  0
   30.2320  -21.0859  -15.5683 C   0  0  0  0  0  0  0  0  0  0  0  0
   30.4098  -21.0502  -14.1143 C   0  0  0  0  0  0  0  0  0  0  0  0
   29.9764  -19.9608  -13.3974 C   0  0  0  0  0  0  0  0  0  0  0  0
   30.1457  -19.9322  -12.0324 C   0  0  0  0  0  0  0  0  0  0  0  0
   30.7547  -21.0043  -11.3780 C   0  0  0  0  0  0  0  0  0  0  0  0
   31.1856  -22.0888  -12.0950 C   0  0  0  0  0  0  0  0  0  0  0  0
   31.0207  -22.1272  -13.4628 C   0  0  0  0  0  0  0  0  0  0  0  0
   27.8369  -21.0399  -15.3065 C   0  0  0  0  0  0  0  0  0  0  0  0
   27.3683  -19.9835  -15.8033 O   0  0  0  0  0  0  0  0  0  0  0  0
   25.3415  -20.2380  -15.7896 C   0  0  0  0  0  0  0  0  0  0  0  0
   24.9975  -20.9137  -14.4893 C   0  0  1  0  0  0  0  0  0  0  0  0
   24.5940  -22.2371  -14.6834 O   0  0  0  0  0  0  0  0  0  0  0  0
   26.1337  -20.8017  -13.5175 C   0  0  2  0  0  0  0  0  0  0  0  0
   27.2743  -21.4906  -14.0887 N   0  0  0  0  0  0  0  0  0  0  0  0
   25.7644  -21.3959  -12.1924 C   0  0  0  0  0  0  0  0  0  0  0  0
   26.5645  -22.1848  -11.6537 O   0  0  0  0  0  0  0  0  0  0  0  0
   26.7033  -20.3050   -9.7132 C   0  0  0  0  0  0  0  0  0  0  0  0
   25.2502  -20.0414   -9.5218 C   0  0  2  0  0  0  0  0  0  0  0  0
   24.9904  -20.1251   -8.0101 C   0  0  0  0  0  0  0  0  0  0  0  0
   24.3084  -20.9786  -10.1718 C   0  0  2  0  0  0  0  0  0  0  0  0
   24.5414  -21.0588  -11.5896 N   0  0  0  0  0  0  0  0  0  0  0  0
   22.8744  -20.7431   -9.8820 C   0  0  0  0  0  0  0  0  0  0  0  0
   22.2495  -21.4859   -8.9061 O   0  0  0  0  0  0  0  0  0  0  0  0
   22.1999  -19.8731  -10.5029 O   0  0  0  0  0  0  0  0  0  0  0  0
  2 10  1  0
  2  1  1  6
  3  2  1  0
  4  3  1  0
  5  4  2  0
  6  5  1  0
  7  6  2  0
  7  8  1  0
  8  9  2  0
  9  4  1  0
 10 11  2  0
 13 12  1  6
 13 14  1  0
 15 13  1  0
 16 10  1  0
 15 16  1  6
 17 15  1  0
 17 18  2  0
 20 19  1  1
 20 22  1  0
 21 20  1  0
 22 23  1  6
 23 17  1  0
 24 25  1  0
 24 22  1  0
 26 24  2  0
M  END
$$$$
