FTV.pdb
     RDKit          3D

 26 26  0  0  1  0  0  0  0  0999 V2000
   28.3550  -21.9037   -8.7836 N   0  0  0  0  0  0  0  0  0  0  0  0
   27.3517  -20.8893   -8.9611 C   0  0  1  0  0  0  0  0  0  0  0  0
   27.8955  -19.5325   -8.5494 C   0  0  0  0  0  0  0  0  0  0  0  0
   28.1176  -19.4157   -7.1058 C   0  0  0  0  0  0  0  0  0  0  0  0
   29.2499  -19.9517   -6.5410 C   0  0  0  0  0  0  0  0  0  0  0  0
   29.4536  -19.8394   -5.1850 C   0  0  0  0  0  0  0  0  0  0  0  0
   28.5150  -19.1842   -4.3861 C   0  0  0  0  0  0  0  0  0  0  0  0
   27.3874  -18.6510   -4.9517 C   0  0  0  0  0  0  0  0  0  0  0  0
   27.1739  -18.7582   -6.3091 C   0  0  0  0  0  0  0  0  0  0  0  0
   26.9991  -20.7666  -10.4151 C   0  0  0  0  0  0  0  0  0  0  0  0
   27.8953  -20.8263  -11.2958 O   0  0  0  0  0  0  0  0  0  0  0  0
   24.8195  -22.9738  -12.1186 C   0  0  0  0  0  0  0  0  0  0  0  0
   25.6579  -21.9358  -12.8153 C   0  0  1  0  0  0  0  0  0  0  0  0
   25.5127  -21.9981  -14.2034 O   0  0  0  0  0  0  0  0  0  0  0  0
   25.3663  -20.5687  -12.2732 C   0  0  2  0  0  0  0  0  0  0  0  0
   25.6669  -20.5815  -10.8550 N   0  0  0  0  0  0  0  0  0  0  0  0
   23.9344  -20.1945  -12.5084 C   0  0  0  0  0  0  0  0  0  0  0  0
   23.1271  -20.3222  -11.5679 O   0  0  0  0  0  0  0  0  0  0  0  0
   23.3475  -17.2316  -15.3823 C   0  0  0  0  0  0  0  0  0  0  0  0
   22.3214  -18.3080  -15.3047 C   0  0  2  0  0  0  0  0  0  0  0  0
   20.9576  -17.6177  -15.4580 C   0  0  0  0  0  0  0  0  0  0  0  0
   22.2672  -19.0923  -14.0519 C   0  0  2  0  0  0  0  0  0  0  0  0
   23.5332  -19.7137  -13.7656 N   0  0  0  0  0  0  0  0  0  0  0  0
   21.1616  -20.0750  -13.9635 C   0  0  0  0  0  0  0  0  0  0  0  0
   20.0715  -19.7989  -13.1697 O   0  0  0  0  0  0  0  0  0  0  0  0
   21.1832  -21.1663  -14.6006 O   0  0  0  0  0  0  0  0  0  0  0  0
  2 10  1  0
  2  1  1  6
  3  2  1  0
  4  3  1  0
  5  4  2  0
  6  5  1  0
  7  6  2  0
  7  8  1  0
  8  9  2  0
  9  4  1  0
 10 11  2  0
 13 12  1  1
 13 14  1  0
 15 13  1  0
 16 10  1  0
 15 16  1  1
 17 15  1  0
 17 18  2  0
 20 19  1  1
 20 22  1  0
 21 20  1  0
 22 23  1  6
 23 17  1  0
 24 25  1  0
 24 22  1  0
 26 24  2  0
M  END
$$$$
