FTV.pdb
     RDKit          3D

 26 26  0  0  1  0  0  0  0  0999 V2000
   18.7576  -12.3489  -16.4889 N   0  0  0  0  0  0  0  0  0  0  0  0
   18.5704  -11.1379  -17.2409 C   0  0  1  0  0  0  0  0  0  0  0  0
   17.1091  -10.9734  -17.6200 C   0  0  0  0  0  0  0  0  0  0  0  0
   16.6695  -11.9262  -18.6427 C   0  0  0  0  0  0  0  0  0  0  0  0
   15.9648  -13.0478  -18.2768 C   0  0  0  0  0  0  0  0  0  0  0  0
   15.5543  -13.9392  -19.2409 C   0  0  0  0  0  0  0  0  0  0  0  0
   15.8519  -13.7062  -20.5847 C   0  0  0  0  0  0  0  0  0  0  0  0
   16.5543  -12.5875  -20.9465 C   0  0  0  0  0  0  0  0  0  0  0  0
   16.9701  -11.6883  -19.9883 C   0  0  0  0  0  0  0  0  0  0  0  0
   18.9104   -9.9489  -16.3898 C   0  0  0  0  0  0  0  0  0  0  0  0
   18.9843  -10.0602  -15.1390 O   0  0  0  0  0  0  0  0  0  0  0  0
   21.6021   -6.7734  -14.8773 C   0  0  0  0  0  0  0  0  0  0  0  0
   20.9715   -7.9472  -15.5774 C   0  0  1  0  0  0  0  0  0  0  0  0
   20.9462   -9.0833  -14.7650 O   0  0  0  0  0  0  0  0  0  0  0  0
   19.6111   -7.5867  -16.0946 C   0  0  2  0  0  0  0  0  0  0  0  0
   19.1591   -8.6709  -16.9444 N   0  0  0  0  0  0  0  0  0  0  0  0
   19.6534   -6.2975  -16.8573 C   0  0  0  0  0  0  0  0  0  0  0  0
   20.3070   -6.2581  -17.9174 O   0  0  0  0  0  0  0  0  0  0  0  0
   16.6809   -4.6817  -18.2772 C   0  0  0  0  0  0  0  0  0  0  0  0
   17.3584   -3.6942  -17.3920 C   0  0  2  0  0  0  0  0  0  0  0  0
   17.2816   -2.3409  -18.1147 C   0  0  0  0  0  0  0  0  0  0  0  0
   18.7851   -3.9374  -17.0865 C   0  0  2  0  0  0  0  0  0  0  0  0
   18.9662   -5.1730  -16.3714 N   0  0  0  0  0  0  0  0  0  0  0  0
   19.4895   -2.8237  -16.4088 C   0  0  0  0  0  0  0  0  0  0  0  0
   20.2957   -1.9846  -17.1441 O   0  0  0  0  0  0  0  0  0  0  0  0
   19.3718   -2.6133  -15.1681 O   0  0  0  0  0  0  0  0  0  0  0  0
  2 10  1  0
  2  1  1  1
  3  2  1  0
  4  3  1  0
  5  4  2  0
  6  5  1  0
  7  6  2  0
  7  8  1  0
  8  9  2  0
  9  4  1  0
 10 11  2  0
 13 12  1  1
 13 14  1  0
 15 13  1  0
 16 10  1  0
 15 16  1  6
 17 15  1  0
 17 18  2  0
 20 19  1  6
 20 22  1  0
 21 20  1  0
 22 23  1  1
 23 17  1  0
 24 25  1  0
 24 22  1  0
 26 24  2  0
M  END
$$$$
