FTV.pdb
     RDKit          3D

 26 26  0  0  1  0  0  0  0  0999 V2000
   16.6105   -9.7603  -15.3373 N   0  0  0  0  0  0  0  0  0  0  0  0
   17.7559   -9.9281  -14.4847 C   0  0  1  0  0  0  0  0  0  0  0  0
   19.0220  -10.0309  -15.3169 C   0  0  0  0  0  0  0  0  0  0  0  0
   19.0416  -11.2064  -16.1914 C   0  0  0  0  0  0  0  0  0  0  0  0
   18.8838  -11.0541  -17.5480 C   0  0  0  0  0  0  0  0  0  0  0  0
   18.9029  -12.1610  -18.3648 C   0  0  0  0  0  0  0  0  0  0  0  0
   19.0818  -13.4332  -17.8187 C   0  0  0  0  0  0  0  0  0  0  0  0
   19.2389  -13.5820  -16.4663 C   0  0  0  0  0  0  0  0  0  0  0  0
   19.2212  -12.4794  -15.6395 C   0  0  0  0  0  0  0  0  0  0  0  0
   17.9313   -8.7150  -13.6181 C   0  0  0  0  0  0  0  0  0  0  0  0
   18.9570   -8.5861  -12.9013 O   0  0  0  0  0  0  0  0  0  0  0  0
   18.6475   -5.3425  -14.2342 C   0  0  0  0  0  0  0  0  0  0  0  0
   17.3245   -5.3232  -13.5166 C   0  0  1  0  0  0  0  0  0  0  0  0
   16.2579   -5.1396  -14.4000 O   0  0  0  0  0  0  0  0  0  0  0  0
   17.1609   -6.5529  -12.6745 C   0  0  2  0  0  0  0  0  0  0  0  0
   16.9689   -7.6786  -13.5676 N   0  0  0  0  0  0  0  0  0  0  0  0
   15.9966   -6.4113  -11.7419 C   0  0  0  0  0  0  0  0  0  0  0  0
   14.8917   -6.8612  -12.1019 O   0  0  0  0  0  0  0  0  0  0  0  0
   15.4535   -7.7031   -8.2815 C   0  0  0  0  0  0  0  0  0  0  0  0
   15.3909   -6.2155   -8.2561 C   0  0  2  0  0  0  0  0  0  0  0  0
   14.2409   -5.8467   -7.3067 C   0  0  0  0  0  0  0  0  0  0  0  0
   15.1215   -5.5347   -9.5414 C   0  0  2  0  0  0  0  0  0  0  0  0
   16.1680   -5.7834  -10.4973 N   0  0  0  0  0  0  0  0  0  0  0  0
   14.8244   -4.0863   -9.4443 C   0  0  0  0  0  0  0  0  0  0  0  0
   13.5182   -3.6689   -9.3254 O   0  0  0  0  0  0  0  0  0  0  0  0
   15.7376   -3.2127   -9.4633 O   0  0  0  0  0  0  0  0  0  0  0  0
  2 10  1  0
  2  1  1  6
  3  2  1  0
  4  3  1  0
  5  4  2  0
  6  5  1  0
  7  6  2  0
  7  8  1  0
  8  9  2  0
  9  4  1  0
 10 11  2  0
 13 12  1  6
 13 14  1  0
 15 13  1  0
 16 10  1  0
 15 16  1  6
 17 15  1  0
 17 18  2  0
 20 19  1  6
 20 22  1  0
 21 20  1  0
 22 23  1  6
 23 17  1  0
 24 25  1  0
 24 22  1  0
 26 24  2  0
M  END
$$$$
