FTV.pdb
     RDKit          3D

 26 26  0  0  1  0  0  0  0  0999 V2000
   24.4338  -22.2554  -13.2910 N   0  0  0  0  0  0  0  0  0  0  0  0
   24.6115  -21.1295  -12.4146 C   0  0  1  0  0  0  0  0  0  0  0  0
   23.2862  -20.7367  -11.7858 C   0  0  0  0  0  0  0  0  0  0  0  0
   22.3563  -20.1252  -12.7389 C   0  0  0  0  0  0  0  0  0  0  0  0
   22.6262  -18.8818  -13.2582 C   0  0  0  0  0  0  0  0  0  0  0  0
   21.7499  -18.3120  -14.1526 C   0  0  0  0  0  0  0  0  0  0  0  0
   20.5917  -18.9930  -14.5313 C   0  0  0  0  0  0  0  0  0  0  0  0
   20.3252  -20.2321  -14.0121 C   0  0  0  0  0  0  0  0  0  0  0  0
   21.1968  -20.8116  -13.1154 C   0  0  0  0  0  0  0  0  0  0  0  0
   25.5120  -21.5056  -11.2739 C   0  0  0  0  0  0  0  0  0  0  0  0
   25.3724  -22.6103  -10.6887 O   0  0  0  0  0  0  0  0  0  0  0  0
   29.8530  -21.3778   -9.2641 C   0  0  0  0  0  0  0  0  0  0  0  0
   28.8500  -20.8849  -10.2724 C   0  0  1  0  0  0  0  0  0  0  0  0
   29.0619  -21.4483  -11.5330 O   0  0  0  0  0  0  0  0  0  0  0  0
   27.4513  -21.1041   -9.7786 C   0  0  2  0  0  0  0  0  0  0  0  0
   26.5410  -20.6510  -10.8120 N   0  0  0  0  0  0  0  0  0  0  0  0
   27.2134  -20.3611   -8.4992 C   0  0  0  0  0  0  0  0  0  0  0  0
   26.3967  -19.4199   -8.5044 O   0  0  0  0  0  0  0  0  0  0  0  0
   27.6853  -22.0639   -4.5864 C   0  0  0  0  0  0  0  0  0  0  0  0
   28.4320  -20.8384   -4.9840 C   0  0  2  0  0  0  0  0  0  0  0  0
   28.4781  -19.9371   -3.7408 C   0  0  0  0  0  0  0  0  0  0  0  0
   27.8555  -20.0292   -6.0797 C   0  0  2  0  0  0  0  0  0  0  0  0
   27.9044  -20.7325   -7.3342 N   0  0  0  0  0  0  0  0  0  0  0  0
   28.4054  -18.6600   -6.2170 C   0  0  0  0  0  0  0  0  0  0  0  0
   27.7628  -17.6074   -5.6058 O   0  0  0  0  0  0  0  0  0  0  0  0
   29.4559  -18.4236   -6.8788 O   0  0  0  0  0  0  0  0  0  0  0  0
  2 10  1  0
  2  1  1  6
  3  2  1  0
  4  3  1  0
  5  4  2  0
  6  5  1  0
  7  6  2  0
  7  8  1  0
  8  9  2  0
  9  4  1  0
 10 11  2  0
 13 12  1  1
 13 14  1  0
 15 13  1  0
 16 10  1  0
 15 16  1  6
 17 15  1  0
 17 18  2  0
 20 19  1  1
 20 22  1  0
 21 20  1  0
 22 23  1  6
 23 17  1  0
 24 25  1  0
 24 22  1  0
 26 24  2  0
M  END
$$$$
