FTV.pdb
     RDKit          3D

 26 26  0  0  1  0  0  0  0  0999 V2000
   25.7786  -21.7508  -17.7741 N   0  0  0  0  0  0  0  0  0  0  0  0
   24.4827  -21.1553  -17.9560 C   0  0  1  0  0  0  0  0  0  0  0  0
   23.8278  -21.6930  -19.2162 C   0  0  0  0  0  0  0  0  0  0  0  0
   24.5555  -21.3401  -20.4381 C   0  0  0  0  0  0  0  0  0  0  0  0
   24.4746  -20.0632  -20.9393 C   0  0  0  0  0  0  0  0  0  0  0  0
   25.1597  -19.7369  -22.0869 C   0  0  0  0  0  0  0  0  0  0  0  0
   25.9337  -20.6980  -22.7395 C   0  0  0  0  0  0  0  0  0  0  0  0
   26.0125  -21.9699  -22.2376 C   0  0  0  0  0  0  0  0  0  0  0  0
   25.3299  -22.3068  -21.0887 C   0  0  0  0  0  0  0  0  0  0  0  0
   23.5768  -21.5445  -16.8241 C   0  0  0  0  0  0  0  0  0  0  0  0
   23.8142  -22.5749  -16.1426 O   0  0  0  0  0  0  0  0  0  0  0  0
   23.0935  -19.6078  -13.9171 C   0  0  0  0  0  0  0  0  0  0  0  0
   21.6955  -19.9045  -14.3898 C   0  0  1  0  0  0  0  0  0  0  0  0
   21.1053  -18.7919  -14.9943 O   0  0  0  0  0  0  0  0  0  0  0  0
   21.6826  -21.1102  -15.2809 C   0  0  2  0  0  0  0  0  0  0  0  0
   22.4344  -20.7848  -16.4769 N   0  0  0  0  0  0  0  0  0  0  0  0
   20.2789  -21.5038  -15.6275 C   0  0  0  0  0  0  0  0  0  0  0  0
   19.8849  -21.3231  -16.7958 O   0  0  0  0  0  0  0  0  0  0  0  0
   18.4824  -24.8763  -14.3174 C   0  0  0  0  0  0  0  0  0  0  0  0
   17.7163  -23.6298  -14.0399 C   0  0  2  0  0  0  0  0  0  0  0  0
   16.2445  -23.9499  -14.3419 C   0  0  0  0  0  0  0  0  0  0  0  0
   18.0685  -22.4357  -14.8387 C   0  0  2  0  0  0  0  0  0  0  0  0
   19.4443  -22.0609  -14.6448 N   0  0  0  0  0  0  0  0  0  0  0  0
   17.1713  -21.2688  -14.6683 C   0  0  0  0  0  0  0  0  0  0  0  0
   16.0986  -21.1095  -15.5160 O   0  0  0  0  0  0  0  0  0  0  0  0
   17.3564  -20.4087  -13.7610 O   0  0  0  0  0  0  0  0  0  0  0  0
  2 10  1  0
  2  1  1  1
  3  2  1  0
  4  3  1  0
  5  4  2  0
  6  5  1  0
  7  6  2  0
  7  8  1  0
  8  9  2  0
  9  4  1  0
 10 11  2  0
 13 12  1  6
 13 14  1  0
 15 13  1  0
 16 10  1  0
 15 16  1  6
 17 15  1  0
 17 18  2  0
 20 19  1  6
 20 22  1  0
 21 20  1  0
 22 23  1  1
 23 17  1  0
 24 25  1  0
 24 22  1  0
 26 24  2  0
M  END
$$$$
