FTV.pdb
     RDKit          3D

 26 26  0  0  1  0  0  0  0  0999 V2000
   28.5818  -20.6987   -9.8782 N   0  0  0  0  0  0  0  0  0  0  0  0
   27.2480  -21.2269   -9.7832 C   0  0  1  0  0  0  0  0  0  0  0  0
   26.5419  -20.6594   -8.5644 C   0  0  0  0  0  0  0  0  0  0  0  0
   27.4576  -20.3408   -7.4657 C   0  0  0  0  0  0  0  0  0  0  0  0
   27.3930  -19.1118   -6.8543 C   0  0  0  0  0  0  0  0  0  0  0  0
   28.2550  -18.8176   -5.8232 C   0  0  0  0  0  0  0  0  0  0  0  0
   29.1911  -19.7626   -5.3996 C   0  0  0  0  0  0  0  0  0  0  0  0
   29.2531  -20.9866   -6.0108 C   0  0  0  0  0  0  0  0  0  0  0  0
   28.3941  -21.2912   -7.0447 C   0  0  0  0  0  0  0  0  0  0  0  0
   26.4379  -20.7884  -10.9685 C   0  0  0  0  0  0  0  0  0  0  0  0
   26.9910  -20.2152  -11.9421 O   0  0  0  0  0  0  0  0  0  0  0  0
   26.3483  -21.5140  -13.4509 C   0  0  0  0  0  0  0  0  0  0  0  0
   24.8522  -21.6314  -13.3334 C   0  0  1  0  0  0  0  0  0  0  0  0
   24.4502  -22.9534  -13.1276 O   0  0  0  0  0  0  0  0  0  0  0  0
   24.3300  -20.7063  -12.2754 C   0  0  2  0  0  0  0  0  0  0  0  0
   25.0400  -20.9954  -11.0450 N   0  0  0  0  0  0  0  0  0  0  0  0
   22.8537  -20.8851  -12.0902 C   0  0  0  0  0  0  0  0  0  0  0  0
   22.3888  -20.8126  -10.9364 O   0  0  0  0  0  0  0  0  0  0  0  0
   20.6670  -18.3980  -13.8418 C   0  0  0  0  0  0  0  0  0  0  0  0
   20.3139  -19.4693  -12.8696 C   0  0  2  0  0  0  0  0  0  0  0  0
   21.1226  -19.1814  -11.5956 C   0  0  0  0  0  0  0  0  0  0  0  0
   20.6194  -20.8610  -13.2666 C   0  0  2  0  0  0  0  0  0  0  0  0
   22.0321  -21.1275  -13.2033 N   0  0  0  0  0  0  0  0  0  0  0  0
   20.0561  -21.2896  -14.5685 C   0  0  0  0  0  0  0  0  0  0  0  0
   18.7151  -21.5853  -14.6622 O   0  0  0  0  0  0  0  0  0  0  0  0
   20.7703  -21.3905  -15.6063 O   0  0  0  0  0  0  0  0  0  0  0  0
  2 10  1  0
  2  1  1  6
  3  2  1  0
  4  3  1  0
  5  4  2  0
  6  5  1  0
  7  6  2  0
  7  8  1  0
  8  9  2  0
  9  4  1  0
 10 11  2  0
 13 12  1  1
 13 14  1  0
 15 13  1  0
 16 10  1  0
 15 16  1  1
 17 15  1  0
 17 18  2  0
 20 19  1  6
 20 22  1  0
 21 20  1  0
 22 23  1  6
 23 17  1  0
 24 25  1  0
 24 22  1  0
 26 24  2  0
M  END
$$$$
