FTV.pdb
     RDKit          3D

 26 26  0  0  1  0  0  0  0  0999 V2000
   33.9644  -28.5994  -18.5019 N   0  0  0  0  0  0  0  0  0  0  0  0
   32.8092  -28.0761  -19.1792 C   0  0  1  0  0  0  0  0  0  0  0  0
   32.5626  -28.8403  -20.4681 C   0  0  0  0  0  0  0  0  0  0  0  0
   33.5625  -28.5616  -21.5023 C   0  0  0  0  0  0  0  0  0  0  0  0
   33.5363  -27.3642  -22.1759 C   0  0  0  0  0  0  0  0  0  0  0  0
   34.4774  -27.1074  -23.1461 C   0  0  0  0  0  0  0  0  0  0  0  0
   35.4546  -28.0583  -23.4452 C   0  0  0  0  0  0  0  0  0  0  0  0
   35.4783  -29.2509  -22.7722 C   0  0  0  0  0  0  0  0  0  0  0  0
   34.5400  -29.5178  -21.7986 C   0  0  0  0  0  0  0  0  0  0  0  0
   31.5839  -28.2843  -18.3373 C   0  0  0  0  0  0  0  0  0  0  0  0
   31.5952  -29.1095  -17.3879 O   0  0  0  0  0  0  0  0  0  0  0  0
   27.4050  -26.4021  -16.6581 C   0  0  0  0  0  0  0  0  0  0  0  0
   28.6338  -26.3357  -17.5250 C   0  0  1  0  0  0  0  0  0  0  0  0
   29.5226  -25.3495  -17.0903 O   0  0  0  0  0  0  0  0  0  0  0  0
   29.2836  -27.6831  -17.6266 C   0  0  2  0  0  0  0  0  0  0  0  0
   30.3810  -27.5754  -18.5678 N   0  0  0  0  0  0  0  0  0  0  0  0
   28.2988  -28.7190  -18.0765 C   0  0  0  0  0  0  0  0  0  0  0  0
   28.0179  -28.7816  -19.2889 O   0  0  0  0  0  0  0  0  0  0  0  0
   26.6268  -31.5762  -15.1044 C   0  0  0  0  0  0  0  0  0  0  0  0
   26.9247  -31.7871  -16.5481 C   0  0  2  0  0  0  0  0  0  0  0  0
   28.3995  -32.2092  -16.6287 C   0  0  0  0  0  0  0  0  0  0  0  0
   26.7626  -30.6203  -17.4426 C   0  0  2  0  0  0  0  0  0  0  0  0
   27.7181  -29.5882  -17.1384 N   0  0  0  0  0  0  0  0  0  0  0  0
   25.3906  -30.0663  -17.5236 C   0  0  0  0  0  0  0  0  0  0  0  0
   24.4559  -30.6855  -18.3221 O   0  0  0  0  0  0  0  0  0  0  0  0
   25.0446  -29.0375  -16.8761 O   0  0  0  0  0  0  0  0  0  0  0  0
  2 10  1  0
  2  1  1  1
  3  2  1  0
  4  3  1  0
  5  4  2  0
  6  5  1  0
  7  6  2  0
  7  8  1  0
  8  9  2  0
  9  4  1  0
 10 11  2  0
 13 12  1  1
 13 14  1  0
 15 13  1  0
 16 10  1  0
 15 16  1  6
 17 15  1  0
 17 18  2  0
 20 19  1  1
 20 22  1  0
 21 20  1  0
 22 23  1  1
 23 17  1  0
 24 25  1  0
 24 22  1  0
 26 24  2  0
M  END
$$$$
