FTV.pdb
     RDKit          3D

 26 26  0  0  1  0  0  0  0  0999 V2000
   26.6922  -24.2761  -17.9997 N   0  0  0  0  0  0  0  0  0  0  0  0
   27.2200  -25.3150  -17.1575 C   0  0  1  0  0  0  0  0  0  0  0  0
   26.1075  -26.2465  -16.7095 C   0  0  0  0  0  0  0  0  0  0  0  0
   25.0577  -25.5642  -15.9483 C   0  0  0  0  0  0  0  0  0  0  0  0
   23.7510  -25.6349  -16.3679 C   0  0  0  0  0  0  0  0  0  0  0  0
   22.7691  -24.9925  -15.6497 C   0  0  0  0  0  0  0  0  0  0  0  0
   23.0978  -24.2721  -14.5001 C   0  0  0  0  0  0  0  0  0  0  0  0
   24.4009  -24.2033  -14.0843 C   0  0  0  0  0  0  0  0  0  0  0  0
   25.3921  -24.8433  -14.7968 C   0  0  0  0  0  0  0  0  0  0  0  0
   28.1805  -26.1666  -17.9358 C   0  0  0  0  0  0  0  0  0  0  0  0
   27.9726  -26.4141  -19.1515 O   0  0  0  0  0  0  0  0  0  0  0  0
   32.5419  -27.4343  -19.1172 C   0  0  0  0  0  0  0  0  0  0  0  0
   31.4662  -26.6384  -18.4279 C   0  0  1  0  0  0  0  0  0  0  0  0
   31.1428  -25.4796  -19.1379 O   0  0  0  0  0  0  0  0  0  0  0  0
   30.2652  -27.4943  -18.1576 C   0  0  2  0  0  0  0  0  0  0  0  0
   29.3432  -26.7207  -17.3494 N   0  0  0  0  0  0  0  0  0  0  0  0
   30.6566  -28.7576  -17.4530 C   0  0  0  0  0  0  0  0  0  0  0  0
   30.9760  -28.6899  -16.2504 O   0  0  0  0  0  0  0  0  0  0  0  0
   29.3647  -32.4674  -19.0967 C   0  0  0  0  0  0  0  0  0  0  0  0
   29.8727  -32.2164  -17.7195 C   0  0  2  0  0  0  0  0  0  0  0  0
   28.6926  -31.6427  -16.9207 C   0  0  0  0  0  0  0  0  0  0  0  0
   30.9904  -31.2572  -17.5827 C   0  0  2  0  0  0  0  0  0  0  0  0
   30.6568  -29.9772  -18.1494 N   0  0  0  0  0  0  0  0  0  0  0  0
   32.3021  -31.7331  -18.0815 C   0  0  0  0  0  0  0  0  0  0  0  0
   33.1950  -32.3029  -17.2025 O   0  0  0  0  0  0  0  0  0  0  0  0
   32.6309  -31.6364  -19.2980 O   0  0  0  0  0  0  0  0  0  0  0  0
  2 10  1  0
  2  1  1  6
  3  2  1  0
  4  3  1  0
  5  4  2  0
  6  5  1  0
  7  6  2  0
  7  8  1  0
  8  9  2  0
  9  4  1  0
 10 11  2  0
 13 12  1  6
 13 14  1  0
 15 13  1  0
 16 10  1  0
 15 16  1  1
 17 15  1  0
 17 18  2  0
 20 19  1  6
 20 22  1  0
 21 20  1  0
 22 23  1  6
 23 17  1  0
 24 25  1  0
 24 22  1  0
 26 24  2  0
M  END
$$$$
