FTV.pdb
     RDKit          3D

 26 26  0  0  1  0  0  0  0  0999 V2000
   28.4165  -21.4434   -8.7756 N   0  0  0  0  0  0  0  0  0  0  0  0
   27.1367  -20.8381   -8.5250 C   0  0  1  0  0  0  0  0  0  0  0  0
   27.3082  -19.5469   -7.7443 C   0  0  0  0  0  0  0  0  0  0  0  0
   27.9287  -19.7463   -6.4320 C   0  0  0  0  0  0  0  0  0  0  0  0
   29.2955  -19.6851   -6.3037 C   0  0  0  0  0  0  0  0  0  0  0  0
   29.8731  -19.8731   -5.0693 C   0  0  0  0  0  0  0  0  0  0  0  0
   29.0752  -20.1248   -3.9519 C   0  0  0  0  0  0  0  0  0  0  0  0
   27.7131  -20.1852   -4.0827 C   0  0  0  0  0  0  0  0  0  0  0  0
   27.1247  -19.9983   -5.3150 C   0  0  0  0  0  0  0  0  0  0  0  0
   26.4905  -20.4505   -9.8233 C   0  0  0  0  0  0  0  0  0  0  0  0
   27.1774  -19.9607  -10.7563 O   0  0  0  0  0  0  0  0  0  0  0  0
   26.6888  -21.1921  -12.3213 C   0  0  0  0  0  0  0  0  0  0  0  0
   25.1925  -21.3562  -12.3169 C   0  0  1  0  0  0  0  0  0  0  0  0
   24.8161  -22.6744  -12.0478 O   0  0  0  0  0  0  0  0  0  0  0  0
   24.5555  -20.3787  -11.3753 C   0  0  2  0  0  0  0  0  0  0  0  0
   25.1040  -20.6149  -10.0543 N   0  0  0  0  0  0  0  0  0  0  0  0
   23.0654  -20.5378  -11.3670 C   0  0  0  0  0  0  0  0  0  0  0  0
   22.4481  -20.2767  -10.3166 O   0  0  0  0  0  0  0  0  0  0  0  0
   21.4109  -18.3028  -11.7756 C   0  0  0  0  0  0  0  0  0  0  0  0
   21.0431  -19.0405  -13.0158 C   0  0  2  0  0  0  0  0  0  0  0  0
   19.5852  -18.6679  -13.3248 C   0  0  0  0  0  0  0  0  0  0  0  0
   21.1062  -20.5172  -12.9600 C   0  0  2  0  0  0  0  0  0  0  0  0
   22.4006  -20.9719  -12.5256 N   0  0  0  0  0  0  0  0  0  0  0  0
   20.6838  -21.2193  -14.1947 C   0  0  0  0  0  0  0  0  0  0  0  0
   19.4901  -21.9044  -14.2099 O   0  0  0  0  0  0  0  0  0  0  0  0
   21.3864  -21.2077  -15.2452 O   0  0  0  0  0  0  0  0  0  0  0  0
  2 10  1  0
  2  1  1  6
  3  2  1  0
  4  3  1  0
  5  4  2  0
  6  5  1  0
  7  6  2  0
  7  8  1  0
  8  9  2  0
  9  4  1  0
 10 11  2  0
 13 12  1  1
 13 14  1  0
 15 13  1  0
 16 10  1  0
 15 16  1  1
 17 15  1  0
 17 18  2  0
 20 19  1  1
 20 22  1  0
 21 20  1  0
 22 23  1  6
 23 17  1  0
 24 25  1  0
 24 22  1  0
 26 24  2  0
M  END
$$$$
