FTV.pdb
     RDKit          3D

 26 26  0  0  1  0  0  0  0  0999 V2000
   29.4678  -19.9629  -13.4424 N   0  0  0  0  0  0  0  0  0  0  0  0
   28.3972  -20.7774  -12.9349 C   0  0  1  0  0  0  0  0  0  0  0  0
   28.4761  -20.8681  -11.4211 C   0  0  0  0  0  0  0  0  0  0  0  0
   29.7708  -21.3583  -10.9409 C   0  0  0  0  0  0  0  0  0  0  0  0
   30.3151  -22.4986  -11.4813 C   0  0  0  0  0  0  0  0  0  0  0  0
   31.5310  -22.9547  -11.0270 C   0  0  0  0  0  0  0  0  0  0  0  0
   32.2091  -22.2629  -10.0219 C   0  0  0  0  0  0  0  0  0  0  0  0
   31.6642  -21.1268   -9.4852 C   0  0  0  0  0  0  0  0  0  0  0  0
   30.4467  -20.6616   -9.9334 C   0  0  0  0  0  0  0  0  0  0  0  0
   27.0756  -20.1340  -13.2395 C   0  0  0  0  0  0  0  0  0  0  0  0
   27.0282  -19.0099  -13.8021 O   0  0  0  0  0  0  0  0  0  0  0  0
   25.8325  -19.1932  -15.2496 C   0  0  0  0  0  0  0  0  0  0  0  0
   24.6338  -19.9980  -14.8239 C   0  0  1  0  0  0  0  0  0  0  0  0
   24.5782  -21.2312  -15.4779 O   0  0  0  0  0  0  0  0  0  0  0  0
   24.5958  -20.1426  -13.3320 C   0  0  2  0  0  0  0  0  0  0  0  0
   25.8439  -20.7504  -12.9143 N   0  0  0  0  0  0  0  0  0  0  0  0
   23.4290  -20.9808  -12.9057 C   0  0  0  0  0  0  0  0  0  0  0  0
   23.6183  -21.8682  -12.0518 O   0  0  0  0  0  0  0  0  0  0  0  0
   21.9797  -20.6873  -10.5096 C   0  0  0  0  0  0  0  0  0  0  0  0
   20.9101  -20.2797  -11.4623 C   0  0  2  0  0  0  0  0  0  0  0  0
   19.5743  -20.6278  -10.7883 C   0  0  0  0  0  0  0  0  0  0  0  0
   20.9070  -20.9379  -12.7869 C   0  0  2  0  0  0  0  0  0  0  0  0
   22.1617  -20.7551  -13.4675 N   0  0  0  0  0  0  0  0  0  0  0  0
   19.7688  -20.5878  -13.6688 C   0  0  0  0  0  0  0  0  0  0  0  0
   18.7105  -21.4599  -13.7875 O   0  0  0  0  0  0  0  0  0  0  0  0
   19.7339  -19.5046  -14.3189 O   0  0  0  0  0  0  0  0  0  0  0  0
  2 10  1  0
  2  1  1  1
  3  2  1  0
  4  3  1  0
  5  4  2  0
  6  5  1  0
  7  6  2  0
  7  8  1  0
  8  9  2  0
  9  4  1  0
 10 11  2  0
 13 12  1  1
 13 14  1  0
 15 13  1  0
 16 10  1  0
 15 16  1  6
 17 15  1  0
 17 18  2  0
 20 19  1  1
 20 22  1  0
 21 20  1  0
 22 23  1  6
 23 17  1  0
 24 25  1  0
 24 22  1  0
 26 24  2  0
M  END
$$$$
