PFQ.pdb
     RDKit          3D

 28 29  0  0  1  0  0  0  0  0999 V2000
   26.5177  -19.4961  -14.7396 N   0  0  0  0  0  0  0  0  0  0  0  0
   27.8250  -19.0719  -15.1688 C   0  0  0  0  0  0  0  0  0  0  0  0
   28.7502  -19.7167  -14.1873 C   0  0  0  0  0  0  0  0  0  0  0  0
   27.9582  -20.8342  -13.5610 C   0  0  0  0  0  0  0  0  0  0  0  0
   26.6971  -20.8844  -14.3968 C   0  0  1  0  0  0  0  0  0  0  0  0
   25.5964  -21.3139  -13.5169 C   0  0  0  0  0  0  0  0  0  0  0  0
   25.6312  -22.4764  -13.0271 O   0  0  0  0  0  0  0  0  0  0  0  0
   24.5467  -20.4020  -13.2595 N   0  0  0  0  0  0  0  0  0  0  0  0
   23.4745  -20.7780  -12.3636 C   0  0  1  0  0  0  0  0  0  0  0  0
   23.3204  -19.6856  -11.3258 C   0  0  0  0  0  0  0  0  0  0  0  0
   24.2972  -19.8399  -10.2224 C   0  0  0  0  0  0  0  0  0  0  0  0
   24.1783  -20.8660   -9.3082 C   0  0  0  0  0  0  0  0  0  0  0  0
   25.0918  -21.0106   -8.2762 C   0  0  0  0  0  0  0  0  0  0  0  0
   26.1506  -20.1441   -8.1176 C   0  0  0  0  0  0  0  0  0  0  0  0
   26.2771  -19.1141   -9.0281 C   0  0  0  0  0  0  0  0  0  0  0  0
   25.3647  -18.9754  -10.0531 C   0  0  0  0  0  0  0  0  0  0  0  0
   22.2447  -20.9201  -13.1847 C   0  0  0  0  0  0  0  0  0  0  0  0
   22.0076  -20.2002  -14.1896 O   0  0  0  0  0  0  0  0  0  0  0  0
   17.5989  -25.4702  -13.0032 N   0  0  0  0  0  0  0  0  0  0  0  0
   17.2750  -24.5354  -14.0156 C   0  0  0  0  0  0  0  0  0  0  0  0
   16.2366  -24.7248  -14.6900 O   0  0  0  0  0  0  0  0  0  0  0  0
   18.1313  -23.3598  -14.2823 C   0  0  0  0  0  0  0  0  0  0  0  0
   19.2819  -23.2897  -13.3060 C   0  0  0  0  0  0  0  0  0  0  0  0
   20.0365  -21.9968  -13.6290 C   0  0  2  0  0  0  0  0  0  0  0  0
   21.2602  -21.9061  -12.8538 N   0  0  0  0  0  0  0  0  0  0  0  0
   19.1780  -20.8049  -13.4369 C   0  0  0  0  0  0  0  0  0  0  0  0
   19.1413  -20.2665  -12.3036 O   0  0  0  0  0  0  0  0  0  0  0  0
   18.4092  -20.2452  -14.4364 O   0  0  0  0  0  0  0  0  0  0  0  0
  1  5  1  0
  2  3  1  0
  2  1  1  0
  3  4  1  0
  4  5  1  0
  5  6  1  1
  6  7  2  0
  8  9  1  0
  8  6  1  0
  9 17  1  0
 10 11  1  0
  9 10  1  1
 11 12  2  0
 12 13  1  0
 14 13  2  0
 15 14  1  0
 16 15  2  0
 16 11  1  0
 17 18  2  0
 20 19  1  0
 20 21  2  0
 22 23  1  0
 22 20  1  0
 24 23  1  1
 24 26  1  0
 25 24  1  0
 25 17  1  0
 26 27  2  0
 26 28  1  0
M  END
$$$$
