PFQ.pdb
     RDKit          3D

 28 29  0  0  1  0  0  0  0  0999 V2000
   27.1712  -19.6663  -13.5863 N   0  0  0  0  0  0  0  0  0  0  0  0
   27.8878  -19.4350  -14.8137 C   0  0  0  0  0  0  0  0  0  0  0  0
   29.1362  -20.2422  -14.6563 C   0  0  0  0  0  0  0  0  0  0  0  0
   28.8351  -21.2430  -13.5718 C   0  0  0  0  0  0  0  0  0  0  0  0
   27.3486  -21.0751  -13.3396 C   0  0  1  0  0  0  0  0  0  0  0  0
   27.0854  -21.3563  -11.9178 C   0  0  0  0  0  0  0  0  0  0  0  0
   27.1231  -22.5536  -11.5203 O   0  0  0  0  0  0  0  0  0  0  0  0
   26.8012  -20.2695  -11.0589 N   0  0  0  0  0  0  0  0  0  0  0  0
   26.5836  -20.5086   -9.6485 C   0  0  1  0  0  0  0  0  0  0  0  0
   27.3820  -19.4860   -8.8668 C   0  0  0  0  0  0  0  0  0  0  0  0
   27.3187  -19.7431   -7.4090 C   0  0  0  0  0  0  0  0  0  0  0  0
   28.1982  -20.6168   -6.8040 C   0  0  0  0  0  0  0  0  0  0  0  0
   28.1393  -20.8574   -5.4406 C   0  0  0  0  0  0  0  0  0  0  0  0
   27.2082  -20.2407   -4.6344 C   0  0  0  0  0  0  0  0  0  0  0  0
   26.3240  -19.3648   -5.2316 C   0  0  0  0  0  0  0  0  0  0  0  0
   26.3876  -19.1294   -6.5892 C   0  0  0  0  0  0  0  0  0  0  0  0
   25.1267  -20.3630   -9.3973 C   0  0  0  0  0  0  0  0  0  0  0  0
   24.3798  -19.6420  -10.1091 O   0  0  0  0  0  0  0  0  0  0  0  0
   21.4239  -24.2265   -6.5740 N   0  0  0  0  0  0  0  0  0  0  0  0
   20.5581  -23.1297   -6.8001 C   0  0  0  0  0  0  0  0  0  0  0  0
   19.3245  -23.3434   -6.8379 O   0  0  0  0  0  0  0  0  0  0  0  0
   21.0821  -21.7599   -6.9889 C   0  0  0  0  0  0  0  0  0  0  0  0
   22.5914  -21.7395   -6.9290 C   0  0  0  0  0  0  0  0  0  0  0  0
   23.0654  -21.2439   -8.2983 C   0  0  2  0  0  0  0  0  0  0  0  0
   24.5045  -21.0552   -8.3090 N   0  0  0  0  0  0  0  0  0  0  0  0
   22.3496  -20.0132   -8.7077 C   0  0  0  0  0  0  0  0  0  0  0  0
   22.7733  -18.9058   -8.2959 O   0  0  0  0  0  0  0  0  0  0  0  0
   21.2355  -20.0096   -9.5214 O   0  0  0  0  0  0  0  0  0  0  0  0
  1  5  1  0
  2  3  1  0
  2  1  1  0
  3  4  1  0
  4  5  1  0
  5  6  1  1
  6  7  2  0
  8  9  1  0
  8  6  1  0
  9 17  1  0
 10 11  1  0
  9 10  1  1
 11 12  2  0
 12 13  1  0
 14 13  2  0
 15 14  1  0
 16 15  2  0
 16 11  1  0
 17 18  2  0
 20 19  1  0
 20 21  2  0
 22 23  1  0
 22 20  1  0
 24 23  1  1
 24 26  1  0
 25 24  1  0
 25 17  1  0
 26 27  2  0
 26 28  1  0
M  END
$$$$
