PFQ.pdb
     RDKit          3D

 28 29  0  0  1  0  0  0  0  0999 V2000
   27.5369  -19.3109  -13.2209 N   0  0  0  0  0  0  0  0  0  0  0  0
   28.0325  -19.0954  -14.5555 C   0  0  0  0  0  0  0  0  0  0  0  0
   29.0016  -20.2148  -14.7621 C   0  0  0  0  0  0  0  0  0  0  0  0
   28.6460  -21.2516  -13.7291 C   0  0  0  0  0  0  0  0  0  0  0  0
   27.3471  -20.7376  -13.1460 C   0  0  1  0  0  0  0  0  0  0  0  0
   27.3004  -21.1480  -11.7319 C   0  0  0  0  0  0  0  0  0  0  0  0
   27.0207  -22.3479  -11.4587 O   0  0  0  0  0  0  0  0  0  0  0  0
   27.5718  -20.1767  -10.7407 N   0  0  0  0  0  0  0  0  0  0  0  0
   27.4792  -20.5351   -9.3419 C   0  0  1  0  0  0  0  0  0  0  0  0
   28.6325  -19.8817   -8.6090 C   0  0  0  0  0  0  0  0  0  0  0  0
   28.4581  -19.9577   -7.1396 C   0  0  0  0  0  0  0  0  0  0  0  0
   29.1307  -20.9030   -6.3934 C   0  0  0  0  0  0  0  0  0  0  0  0
   28.9678  -20.9742   -5.0191 C   0  0  0  0  0  0  0  0  0  0  0  0
   28.1344  -20.1121   -4.3415 C   0  0  0  0  0  0  0  0  0  0  0  0
   27.4572  -19.1628   -5.0805 C   0  0  0  0  0  0  0  0  0  0  0  0
   27.6234  -19.0969   -6.4482 C   0  0  0  0  0  0  0  0  0  0  0  0
   26.1714  -20.0352   -8.8453 C   0  0  0  0  0  0  0  0  0  0  0  0
   25.7551  -18.8693   -9.0725 O   0  0  0  0  0  0  0  0  0  0  0  0
   23.2677  -20.9670  -12.1722 N   0  0  0  0  0  0  0  0  0  0  0  0
   22.3760  -20.1718  -11.4132 C   0  0  0  0  0  0  0  0  0  0  0  0
   21.6309  -19.3686  -12.0205 O   0  0  0  0  0  0  0  0  0  0  0  0
   22.3141  -20.2752   -9.9395 C   0  0  0  0  0  0  0  0  0  0  0  0
   23.3052  -21.2906   -9.4213 C   0  0  0  0  0  0  0  0  0  0  0  0
   23.8766  -20.7059   -8.1264 C   0  0  2  0  0  0  0  0  0  0  0  0
   25.3160  -20.8835   -8.0710 N   0  0  0  0  0  0  0  0  0  0  0  0
   23.2091  -21.2754   -6.9328 C   0  0  0  0  0  0  0  0  0  0  0  0
   23.7936  -22.1832   -6.2926 O   0  0  0  0  0  0  0  0  0  0  0  0
   21.9730  -20.8655   -6.4775 O   0  0  0  0  0  0  0  0  0  0  0  0
  1  5  1  0
  2  3  1  0
  2  1  1  0
  3  4  1  0
  4  5  1  0
  5  6  1  1
  6  7  2  0
  8  9  1  0
  8  6  1  0
  9 17  1  0
 10 11  1  0
  9 10  1  1
 11 12  2  0
 12 13  1  0
 14 13  2  0
 15 14  1  0
 16 15  2  0
 16 11  1  0
 17 18  2  0
 20 19  1  0
 20 21  2  0
 22 23  1  0
 22 20  1  0
 24 23  1  6
 24 26  1  0
 25 24  1  0
 25 17  1  0
 26 27  2  0
 26 28  1  0
M  END
$$$$
