PFQ.pdb
     RDKit          3D

 28 29  0  0  1  0  0  0  0  0999 V2000
   27.6504  -20.0429  -16.8262 N   0  0  0  0  0  0  0  0  0  0  0  0
   28.6343  -19.8968  -17.8674 C   0  0  0  0  0  0  0  0  0  0  0  0
   29.6358  -20.9647  -17.5652 C   0  0  0  0  0  0  0  0  0  0  0  0
   28.9244  -21.9420  -16.6667 C   0  0  0  0  0  0  0  0  0  0  0  0
   27.4867  -21.4692  -16.6995 C   0  0  1  0  0  0  0  0  0  0  0  0
   26.8873  -21.7750  -15.3890 C   0  0  0  0  0  0  0  0  0  0  0  0
   26.4912  -22.9520  -15.1642 O   0  0  0  0  0  0  0  0  0  0  0  0
   26.7821  -20.7334  -14.4383 N   0  0  0  0  0  0  0  0  0  0  0  0
   26.1591  -20.9919  -13.1583 C   0  0  1  0  0  0  0  0  0  0  0  0
   27.0131  -20.3575  -12.0801 C   0  0  0  0  0  0  0  0  0  0  0  0
   26.3409  -20.3939  -10.7601 C   0  0  0  0  0  0  0  0  0  0  0  0
   26.4558  -21.4940   -9.9357 C   0  0  0  0  0  0  0  0  0  0  0  0
   25.8273  -21.5282   -8.7011 C   0  0  0  0  0  0  0  0  0  0  0  0
   25.0662  -20.4750   -8.2448 C   0  0  0  0  0  0  0  0  0  0  0  0
   24.9458  -19.3699   -9.0635 C   0  0  0  0  0  0  0  0  0  0  0  0
   25.5737  -19.3417  -10.2913 C   0  0  0  0  0  0  0  0  0  0  0  0
   24.8030  -20.3865  -13.1988 C   0  0  0  0  0  0  0  0  0  0  0  0
   24.5966  -19.1972  -13.5555 O   0  0  0  0  0  0  0  0  0  0  0  0
   20.0145  -22.6828  -16.0396 N   0  0  0  0  0  0  0  0  0  0  0  0
   19.4775  -21.5620  -15.3621 C   0  0  0  0  0  0  0  0  0  0  0  0
   18.3513  -21.1392  -15.7113 O   0  0  0  0  0  0  0  0  0  0  0  0
   20.2157  -20.8961  -14.2675 C   0  0  0  0  0  0  0  0  0  0  0  0
   21.5500  -21.5613  -14.0251 C   0  0  0  0  0  0  0  0  0  0  0  0
   22.3218  -20.6362  -13.0798 C   0  0  2  0  0  0  0  0  0  0  0  0
   23.6535  -21.1540  -12.8242 N   0  0  0  0  0  0  0  0  0  0  0  0
   21.5759  -20.4009  -11.8217 C   0  0  0  0  0  0  0  0  0  0  0  0
   20.7593  -19.4487  -11.7757 O   0  0  0  0  0  0  0  0  0  0  0  0
   21.7250  -21.1713  -10.6870 O   0  0  0  0  0  0  0  0  0  0  0  0
  1  5  1  0
  2  3  1  0
  2  1  1  0
  3  4  1  0
  4  5  1  0
  5  6  1  1
  6  7  2  0
  8  9  1  0
  8  6  1  0
  9 17  1  0
 10 11  1  0
  9 10  1  1
 11 12  2  0
 12 13  1  0
 14 13  2  0
 15 14  1  0
 16 15  2  0
 16 11  1  0
 17 18  2  0
 20 19  1  0
 20 21  2  0
 22 23  1  0
 22 20  1  0
 24 23  1  6
 24 26  1  0
 25 24  1  0
 25 17  1  0
 26 27  2  0
 26 28  1  0
M  END
$$$$
