PFQ.pdb
     RDKit          3D

 28 29  0  0  1  0  0  0  0  0999 V2000
   27.8187  -19.5993  -13.1708 N   0  0  0  0  0  0  0  0  0  0  0  0
   28.3411  -19.5053  -14.5093 C   0  0  0  0  0  0  0  0  0  0  0  0
   29.1266  -20.7664  -14.6758 C   0  0  0  0  0  0  0  0  0  0  0  0
   28.6161  -21.7027  -13.6123 C   0  0  0  0  0  0  0  0  0  0  0  0
   27.4117  -20.9767  -13.0518 C   0  0  1  0  0  0  0  0  0  0  0  0
   27.3029  -21.3297  -11.6257 C   0  0  0  0  0  0  0  0  0  0  0  0
   26.8345  -22.4599  -11.3157 O   0  0  0  0  0  0  0  0  0  0  0  0
   27.7293  -20.3841  -10.6646 N   0  0  0  0  0  0  0  0  0  0  0  0
   27.5143  -20.6454   -9.2578 C   0  0  1  0  0  0  0  0  0  0  0  0
   28.6583  -20.0263   -8.4817 C   0  0  0  0  0  0  0  0  0  0  0  0
   28.4134  -20.0707   -7.0210 C   0  0  0  0  0  0  0  0  0  0  0  0
   27.6968  -19.0744   -6.3913 C   0  0  0  0  0  0  0  0  0  0  0  0
   27.4676  -19.1157   -5.0253 C   0  0  0  0  0  0  0  0  0  0  0  0
   27.9406  -20.1444   -4.2410 C   0  0  0  0  0  0  0  0  0  0  0  0
   28.6589  -21.1459   -4.8630 C   0  0  0  0  0  0  0  0  0  0  0  0
   28.8837  -21.0991   -6.2230 C   0  0  0  0  0  0  0  0  0  0  0  0
   26.2148  -20.0273   -8.8891 C   0  0  0  0  0  0  0  0  0  0  0  0
   25.9921  -18.7928   -8.9922 O   0  0  0  0  0  0  0  0  0  0  0  0
   22.9201  -20.2619  -12.8392 N   0  0  0  0  0  0  0  0  0  0  0  0
   21.8776  -20.1073  -11.8943 C   0  0  0  0  0  0  0  0  0  0  0  0
   20.7838  -19.6394  -12.2863 O   0  0  0  0  0  0  0  0  0  0  0  0
   22.0601  -20.4841  -10.4761 C   0  0  0  0  0  0  0  0  0  0  0  0
   23.4847  -20.9053  -10.2021 C   0  0  0  0  0  0  0  0  0  0  0  0
   23.7711  -20.5188   -8.7482 C   0  0  2  0  0  0  0  0  0  0  0  0
   25.1419  -20.8345   -8.3907 N   0  0  0  0  0  0  0  0  0  0  0  0
   22.8047  -21.1486   -7.8187 C   0  0  0  0  0  0  0  0  0  0  0  0
   21.5774  -21.0063   -8.0399 O   0  0  0  0  0  0  0  0  0  0  0  0
   23.1744  -21.8887   -6.7147 O   0  0  0  0  0  0  0  0  0  0  0  0
  1  5  1  0
  2  3  1  0
  2  1  1  0
  3  4  1  0
  4  5  1  0
  5  6  1  1
  6  7  2  0
  8  9  1  0
  8  6  1  0
  9 17  1  0
 10 11  1  0
  9 10  1  1
 11 12  2  0
 12 13  1  0
 14 13  2  0
 15 14  1  0
 16 15  2  0
 16 11  1  0
 17 18  2  0
 20 19  1  0
 20 21  2  0
 22 23  1  0
 22 20  1  0
 24 23  1  6
 24 26  1  0
 25 24  1  0
 25 17  1  0
 26 27  2  0
 26 28  1  0
M  END
$$$$
