PFQ.pdb
     RDKit          3D

 28 29  0  0  1  0  0  0  0  0999 V2000
   27.0807  -18.7205  -15.9920 N   0  0  0  0  0  0  0  0  0  0  0  0
   28.1183  -18.2163  -16.8538 C   0  0  0  0  0  0  0  0  0  0  0  0
   29.2746  -19.1270  -16.5916 C   0  0  0  0  0  0  0  0  0  0  0  0
   28.6816  -20.3610  -15.9640 C   0  0  0  0  0  0  0  0  0  0  0  0
   27.1900  -20.1522  -16.1162 C   0  0  1  0  0  0  0  0  0  0  0  0
   26.5309  -20.7915  -14.9642 C   0  0  0  0  0  0  0  0  0  0  0  0
   26.5064  -22.0518  -14.9035 O   0  0  0  0  0  0  0  0  0  0  0  0
   25.9534  -19.9625  -13.9748 N   0  0  0  0  0  0  0  0  0  0  0  0
   25.3222  -20.5604  -12.8182 C   0  0  1  0  0  0  0  0  0  0  0  0
   26.0156  -20.0366  -11.5776 C   0  0  0  0  0  0  0  0  0  0  0  0
   27.4293  -20.4762  -11.5162 C   0  0  0  0  0  0  0  0  0  0  0  0
   28.4229  -19.7601  -12.1507 C   0  0  0  0  0  0  0  0  0  0  0  0
   29.7452  -20.1709  -12.0934 C   0  0  0  0  0  0  0  0  0  0  0  0
   30.1242  -21.3029  -11.4064 C   0  0  0  0  0  0  0  0  0  0  0  0
   29.1360  -22.0257  -10.7683 C   0  0  0  0  0  0  0  0  0  0  0  0
   27.8218  -21.6117  -10.8291 C   0  0  0  0  0  0  0  0  0  0  0  0
   23.8907  -20.1644  -12.8445 C   0  0  0  0  0  0  0  0  0  0  0  0
   23.5119  -18.9878  -13.0815 O   0  0  0  0  0  0  0  0  0  0  0  0
   21.1619  -18.5250  -15.9771 N   0  0  0  0  0  0  0  0  0  0  0  0
   20.0905  -19.4462  -15.8912 C   0  0  0  0  0  0  0  0  0  0  0  0
   18.9826  -19.1169  -16.3739 O   0  0  0  0  0  0  0  0  0  0  0  0
   20.2597  -20.7681  -15.2505 C   0  0  0  0  0  0  0  0  0  0  0  0
   21.6668  -20.9470  -14.7309 C   0  0  0  0  0  0  0  0  0  0  0  0
   21.5567  -20.9745  -13.2037 C   0  0  2  0  0  0  0  0  0  0  0  0
   22.8647  -21.1319  -12.5947 N   0  0  0  0  0  0  0  0  0  0  0  0
   20.6114  -22.0194  -12.7464 C   0  0  0  0  0  0  0  0  0  0  0  0
   19.5363  -21.6628  -12.2054 O   0  0  0  0  0  0  0  0  0  0  0  0
   20.8423  -23.3730  -12.8799 O   0  0  0  0  0  0  0  0  0  0  0  0
  1  5  1  0
  2  3  1  0
  2  1  1  0
  3  4  1  0
  4  5  1  0
  5  6  1  1
  6  7  2  0
  8  9  1  0
  8  6  1  0
  9 17  1  0
 10 11  1  0
  9 10  1  1
 11 12  2  0
 12 13  1  0
 14 13  2  0
 15 14  1  0
 16 15  2  0
 16 11  1  0
 17 18  2  0
 20 19  1  0
 20 21  2  0
 22 23  1  0
 22 20  1  0
 24 23  1  6
 24 26  1  0
 25 24  1  0
 25 17  1  0
 26 27  2  0
 26 28  1  0
M  END
$$$$
