PFQ.pdb
     RDKit          3D

 28 29  0  0  1  0  0  0  0  0999 V2000
   28.0440  -20.6261  -17.0961 N   0  0  0  0  0  0  0  0  0  0  0  0
   29.0484  -20.6691  -18.1269 C   0  0  0  0  0  0  0  0  0  0  0  0
   29.8852  -21.8528  -17.7615 C   0  0  0  0  0  0  0  0  0  0  0  0
   29.0338  -22.6767  -16.8317 C   0  0  0  0  0  0  0  0  0  0  0  0
   27.6782  -22.0074  -16.9084 C   0  0  1  0  0  0  0  0  0  0  0  0
   27.0291  -22.1641  -15.5953 C   0  0  0  0  0  0  0  0  0  0  0  0
   26.5476  -23.2896  -15.2884 O   0  0  0  0  0  0  0  0  0  0  0  0
   26.9742  -21.0435  -14.7345 N   0  0  0  0  0  0  0  0  0  0  0  0
   26.4230  -21.1880  -13.4045 C   0  0  1  0  0  0  0  0  0  0  0  0
   27.2658  -20.3660  -12.4515 C   0  0  0  0  0  0  0  0  0  0  0  0
   26.6994  -20.3677  -11.0823 C   0  0  0  0  0  0  0  0  0  0  0  0
   27.1949  -21.2125  -10.1109 C   0  0  0  0  0  0  0  0  0  0  0  0
   26.6655  -21.2143   -8.8302 C   0  0  0  0  0  0  0  0  0  0  0  0
   25.6297  -20.3801   -8.4721 C   0  0  0  0  0  0  0  0  0  0  0  0
   25.1277  -19.5312   -9.4382 C   0  0  0  0  0  0  0  0  0  0  0  0
   25.6589  -19.5341  -10.7111 C   0  0  0  0  0  0  0  0  0  0  0  0
   25.0233  -20.6924  -13.4523 C   0  0  0  0  0  0  0  0  0  0  0  0
   24.7041  -19.5986  -13.9869 O   0  0  0  0  0  0  0  0  0  0  0  0
   20.0700  -23.8772  -15.1447 N   0  0  0  0  0  0  0  0  0  0  0  0
   19.5888  -22.5861  -14.8206 C   0  0  0  0  0  0  0  0  0  0  0  0
   18.4136  -22.2920  -15.1389 O   0  0  0  0  0  0  0  0  0  0  0  0
   20.4403  -21.5982  -14.1238 C   0  0  0  0  0  0  0  0  0  0  0  0
   21.8270  -22.1466  -13.8824 C   0  0  0  0  0  0  0  0  0  0  0  0
   22.5808  -21.0686  -13.0982 C   0  0  2  0  0  0  0  0  0  0  0  0
   23.9606  -21.4611  -12.8772 N   0  0  0  0  0  0  0  0  0  0  0  0
   21.8946  -20.7430  -11.8263 C   0  0  0  0  0  0  0  0  0  0  0  0
   22.3434  -21.2286  -10.7593 O   0  0  0  0  0  0  0  0  0  0  0  0
   20.7823  -19.9312  -11.7418 O   0  0  0  0  0  0  0  0  0  0  0  0
  1  5  1  0
  2  3  1  0
  2  1  1  0
  3  4  1  0
  4  5  1  0
  5  6  1  1
  6  7  2  0
  8  9  1  0
  8  6  1  0
  9 17  1  0
 10 11  1  0
  9 10  1  1
 11 12  2  0
 12 13  1  0
 14 13  2  0
 15 14  1  0
 16 15  2  0
 16 11  1  0
 17 18  2  0
 20 19  1  0
 20 21  2  0
 22 23  1  0
 22 20  1  0
 24 23  1  1
 24 26  1  0
 25 24  1  0
 25 17  1  0
 26 27  2  0
 26 28  1  0
M  END
$$$$
