PFQ.pdb
     RDKit          3D

 28 29  0  0  1  0  0  0  0  0999 V2000
   27.9814  -19.1501  -13.3317 N   0  0  0  0  0  0  0  0  0  0  0  0
   28.5262  -18.9861  -14.6544 C   0  0  0  0  0  0  0  0  0  0  0  0
   29.3623  -20.2098  -14.8509 C   0  0  0  0  0  0  0  0  0  0  0  0
   28.8669  -21.2040  -13.8338 C   0  0  0  0  0  0  0  0  0  0  0  0
   27.6250  -20.5453  -13.2724 C   0  0  1  0  0  0  0  0  0  0  0  0
   27.5015  -20.9558  -11.8630 C   0  0  0  0  0  0  0  0  0  0  0  0
   27.2191  -22.1585  -11.6052 O   0  0  0  0  0  0  0  0  0  0  0  0
   27.7053  -19.9814  -10.8586 N   0  0  0  0  0  0  0  0  0  0  0  0
   27.5129  -20.3340   -9.4686 C   0  0  1  0  0  0  0  0  0  0  0  0
   28.5179  -19.5599   -8.6409 C   0  0  0  0  0  0  0  0  0  0  0  0
   28.3350  -19.8054   -7.1911 C   0  0  0  0  0  0  0  0  0  0  0  0
   29.1031  -20.7395   -6.5275 C   0  0  0  0  0  0  0  0  0  0  0  0
   28.9324  -20.9692   -5.1716 C   0  0  0  0  0  0  0  0  0  0  0  0
   27.9963  -20.2815   -4.4314 C   0  0  0  0  0  0  0  0  0  0  0  0
   27.2232  -19.3447   -5.0876 C   0  0  0  0  0  0  0  0  0  0  0  0
   27.3978  -19.1206   -6.4373 C   0  0  0  0  0  0  0  0  0  0  0  0
   26.1194  -19.9648   -9.1099 C   0  0  0  0  0  0  0  0  0  0  0  0
   25.6418  -18.8189   -9.3170 O   0  0  0  0  0  0  0  0  0  0  0  0
   22.6509  -21.2224  -12.6333 N   0  0  0  0  0  0  0  0  0  0  0  0
   21.6427  -21.1305  -11.6440 C   0  0  0  0  0  0  0  0  0  0  0  0
   20.4704  -20.8848  -12.0103 O   0  0  0  0  0  0  0  0  0  0  0  0
   21.9505  -21.3172  -10.2098 C   0  0  0  0  0  0  0  0  0  0  0  0
   23.4203  -21.5941   -9.9982 C   0  0  0  0  0  0  0  0  0  0  0  0
   23.8156  -20.8453   -8.7223 C   0  0  2  0  0  0  0  0  0  0  0  0
   25.2478  -20.9239   -8.5005 N   0  0  0  0  0  0  0  0  0  0  0  0
   23.0531  -21.3318   -7.5491 C   0  0  0  0  0  0  0  0  0  0  0  0
   23.6733  -21.9226   -6.6315 O   0  0  0  0  0  0  0  0  0  0  0  0
   21.6905  -21.1739   -7.4017 O   0  0  0  0  0  0  0  0  0  0  0  0
  1  5  1  0
  2  3  1  0
  2  1  1  0
  3  4  1  0
  4  5  1  0
  5  6  1  1
  6  7  2  0
  8  9  1  0
  8  6  1  0
  9 17  1  0
 10 11  1  0
  9 10  1  1
 11 12  2  0
 12 13  1  0
 14 13  2  0
 15 14  1  0
 16 15  2  0
 16 11  1  0
 17 18  2  0
 20 19  1  0
 20 21  2  0
 22 23  1  0
 22 20  1  0
 24 23  1  6
 24 26  1  0
 25 24  1  0
 25 17  1  0
 26 27  2  0
 26 28  1  0
M  END
$$$$
