PFQ.pdb
     RDKit          3D

 28 29  0  0  1  0  0  0  0  0999 V2000
   27.7147  -20.6640  -16.8470 N   0  0  0  0  0  0  0  0  0  0  0  0
   28.7257  -20.7499  -17.8687 C   0  0  0  0  0  0  0  0  0  0  0  0
   29.5361  -21.9414  -17.4703 C   0  0  0  0  0  0  0  0  0  0  0  0
   28.6616  -22.7272  -16.5290 C   0  0  0  0  0  0  0  0  0  0  0  0
   27.3201  -22.0332  -16.6314 C   0  0  1  0  0  0  0  0  0  0  0  0
   26.6583  -22.1476  -15.3203 C   0  0  0  0  0  0  0  0  0  0  0  0
   26.1359  -23.2508  -14.9999 O   0  0  0  0  0  0  0  0  0  0  0  0
   26.6376  -21.0130  -14.4765 N   0  0  0  0  0  0  0  0  0  0  0  0
   26.0617  -21.1147  -13.1530 C   0  0  1  0  0  0  0  0  0  0  0  0
   27.0295  -20.4938  -12.1671 C   0  0  0  0  0  0  0  0  0  0  0  0
   26.4386  -20.3940  -10.8120 C   0  0  0  0  0  0  0  0  0  0  0  0
   26.4849  -21.4600   -9.9378 C   0  0  0  0  0  0  0  0  0  0  0  0
   25.9325  -21.3669   -8.6703 C   0  0  0  0  0  0  0  0  0  0  0  0
   25.3175  -20.2160   -8.2295 C   0  0  0  0  0  0  0  0  0  0  0  0
   25.2666  -19.1441   -9.0981 C   0  0  0  0  0  0  0  0  0  0  0  0
   25.8183  -19.2429  -10.3584 C   0  0  0  0  0  0  0  0  0  0  0  0
   24.7706  -20.3803  -13.1776 C   0  0  0  0  0  0  0  0  0  0  0  0
   24.6045  -19.3125  -13.8228 O   0  0  0  0  0  0  0  0  0  0  0  0
   20.5208  -22.5957  -16.1114 N   0  0  0  0  0  0  0  0  0  0  0  0
   19.8410  -21.5146  -15.5008 C   0  0  0  0  0  0  0  0  0  0  0  0
   18.7149  -21.1929  -15.9451 O   0  0  0  0  0  0  0  0  0  0  0  0
   20.4327  -20.7738  -14.3661 C   0  0  0  0  0  0  0  0  0  0  0  0
   21.8212  -21.2776  -14.0496 C   0  0  0  0  0  0  0  0  0  0  0  0
   22.2993  -20.4751  -12.8361 C   0  0  2  0  0  0  0  0  0  0  0  0
   23.6403  -20.8737  -12.4496 N   0  0  0  0  0  0  0  0  0  0  0  0
   21.3491  -20.5840  -11.7048 C   0  0  0  0  0  0  0  0  0  0  0  0
   21.5159  -21.5022  -10.8655 O   0  0  0  0  0  0  0  0  0  0  0  0
   20.2821  -19.7300  -11.5154 O   0  0  0  0  0  0  0  0  0  0  0  0
  1  5  1  0
  2  3  1  0
  2  1  1  0
  3  4  1  0
  4  5  1  0
  5  6  1  1
  6  7  2  0
  8  9  1  0
  8  6  1  0
  9 17  1  0
 10 11  1  0
  9 10  1  1
 11 12  2  0
 12 13  1  0
 14 13  2  0
 15 14  1  0
 16 15  2  0
 16 11  1  0
 17 18  2  0
 20 19  1  0
 20 21  2  0
 22 23  1  0
 22 20  1  0
 24 23  1  6
 24 26  1  0
 25 24  1  0
 25 17  1  0
 26 27  2  0
 26 28  1  0
M  END
$$$$
