PFQ.pdb
     RDKit          3D

 28 29  0  0  1  0  0  0  0  0999 V2000
   23.4062  -20.7589  -11.0228 N   0  0  0  0  0  0  0  0  0  0  0  0
   23.5728  -21.3467   -9.7190 C   0  0  0  0  0  0  0  0  0  0  0  0
   25.0531  -21.5081   -9.5862 C   0  0  0  0  0  0  0  0  0  0  0  0
   25.6532  -20.5777  -10.6072 C   0  0  0  0  0  0  0  0  0  0  0  0
   24.4638  -19.7831  -11.1026 C   0  0  1  0  0  0  0  0  0  0  0  0
   24.7098  -19.4475  -12.5158 C   0  0  0  0  0  0  0  0  0  0  0  0
   23.7255  -19.3837  -13.3031 O   0  0  0  0  0  0  0  0  0  0  0  0
   26.0414  -19.2110  -12.9286 N   0  0  0  0  0  0  0  0  0  0  0  0
   26.3111  -18.8410  -14.3012 C   0  0  1  0  0  0  0  0  0  0  0  0
   27.5341  -17.9476  -14.3186 C   0  0  0  0  0  0  0  0  0  0  0  0
   27.9963  -17.6826  -15.7012 C   0  0  0  0  0  0  0  0  0  0  0  0
   28.9210  -18.5055  -16.3100 C   0  0  0  0  0  0  0  0  0  0  0  0
   29.3533  -18.2579  -17.6031 C   0  0  0  0  0  0  0  0  0  0  0  0
   28.8837  -17.1885  -18.3330 C   0  0  0  0  0  0  0  0  0  0  0  0
   27.9579  -16.3597  -17.7314 C   0  0  0  0  0  0  0  0  0  0  0  0
   27.5315  -16.6113  -16.4441 C   0  0  0  0  0  0  0  0  0  0  0  0
   26.5496  -20.0976  -15.0568 C   0  0  0  0  0  0  0  0  0  0  0  0
   27.1308  -21.0955  -14.5562 O   0  0  0  0  0  0  0  0  0  0  0  0
   25.5985  -24.4032  -14.6790 N   0  0  0  0  0  0  0  0  0  0  0  0
   25.0121  -24.6587  -15.9418 C   0  0  0  0  0  0  0  0  0  0  0  0
   24.9502  -25.8447  -16.3399 O   0  0  0  0  0  0  0  0  0  0  0  0
   24.4815  -23.5633  -16.7814 C   0  0  0  0  0  0  0  0  0  0  0  0
   24.7132  -22.2181  -16.1344 C   0  0  0  0  0  0  0  0  0  0  0  0
   25.8038  -21.5302  -16.9606 C   0  0  2  0  0  0  0  0  0  0  0  0
   26.1156  -20.2214  -16.4159 N   0  0  0  0  0  0  0  0  0  0  0  0
   25.4320  -21.4520  -18.3925 C   0  0  0  0  0  0  0  0  0  0  0  0
   24.6325  -20.5561  -18.7582 O   0  0  0  0  0  0  0  0  0  0  0  0
   25.9149  -22.3116  -19.3575 O   0  0  0  0  0  0  0  0  0  0  0  0
  1  5  1  0
  2  3  1  0
  2  1  1  0
  3  4  1  0
  4  5  1  0
  5  6  1  6
  6  7  2  0
  8  9  1  0
  8  6  1  0
  9 17  1  0
 10 11  1  0
  9 10  1  1
 11 12  2  0
 12 13  1  0
 14 13  2  0
 15 14  1  0
 16 15  2  0
 16 11  1  0
 17 18  2  0
 20 19  1  0
 20 21  2  0
 22 23  1  0
 22 20  1  0
 24 23  1  1
 24 26  1  0
 25 24  1  0
 25 17  1  0
 26 27  2  0
 26 28  1  0
M  END
$$$$
