PFQ.pdb
     RDKit          3D

 28 29  0  0  1  0  0  0  0  0999 V2000
   24.7186  -11.3046  -20.0366 N   0  0  0  0  0  0  0  0  0  0  0  0
   25.1837  -12.2372  -21.0302 C   0  0  0  0  0  0  0  0  0  0  0  0
   24.5489  -13.5306  -20.6313 C   0  0  0  0  0  0  0  0  0  0  0  0
   23.4014  -13.1556  -19.7306 C   0  0  0  0  0  0  0  0  0  0  0  0
   23.3305  -11.6489  -19.8585 C   0  0  1  0  0  0  0  0  0  0  0  0
   22.8588  -11.1143  -18.5693 C   0  0  0  0  0  0  0  0  0  0  0  0
   21.7548  -11.5208  -18.1128 O   0  0  0  0  0  0  0  0  0  0  0  0
   23.6663  -10.1666  -17.8987 N   0  0  0  0  0  0  0  0  0  0  0  0
   23.1937   -9.5633  -16.6714 C   0  0  1  0  0  0  0  0  0  0  0  0
   24.2678   -9.7328  -15.6170 C   0  0  0  0  0  0  0  0  0  0  0  0
   24.3955  -11.1461  -15.1907 C   0  0  0  0  0  0  0  0  0  0  0  0
   25.4124  -11.9434  -15.6733 C   0  0  0  0  0  0  0  0  0  0  0  0
   25.5322  -13.2652  -15.2748 C   0  0  0  0  0  0  0  0  0  0  0  0
   24.6491  -13.8381  -14.3865 C   0  0  0  0  0  0  0  0  0  0  0  0
   23.6282  -13.0473  -13.8984 C   0  0  0  0  0  0  0  0  0  0  0  0
   23.5143  -11.7324  -14.2989 C   0  0  0  0  0  0  0  0  0  0  0  0
   22.9388   -8.1278  -16.9566 C   0  0  0  0  0  0  0  0  0  0  0  0
   23.4282   -7.5319  -17.9514 O   0  0  0  0  0  0  0  0  0  0  0  0
   21.1952   -3.0268  -20.0477 N   0  0  0  0  0  0  0  0  0  0  0  0
   21.6227   -3.9399  -19.0542 C   0  0  0  0  0  0  0  0  0  0  0  0
   22.8424   -4.2170  -18.9861 O   0  0  0  0  0  0  0  0  0  0  0  0
   20.6652   -4.5594  -18.1130 C   0  0  0  0  0  0  0  0  0  0  0  0
   21.0291   -5.9983  -17.8321 C   0  0  0  0  0  0  0  0  0  0  0  0
   21.7217   -6.0038  -16.4663 C   0  0  2  0  0  0  0  0  0  0  0  0
   22.1060   -7.3514  -16.0879 N   0  0  0  0  0  0  0  0  0  0  0  0
   20.8806   -5.3635  -15.4285 C   0  0  0  0  0  0  0  0  0  0  0  0
   20.1376   -6.0896  -14.7241 O   0  0  0  0  0  0  0  0  0  0  0  0
   20.8636   -4.0053  -15.1866 O   0  0  0  0  0  0  0  0  0  0  0  0
  1  5  1  0
  2  3  1  0
  2  1  1  0
  3  4  1  0
  4  5  1  0
  5  6  1  1
  6  7  2  0
  8  9  1  0
  8  6  1  0
  9 17  1  0
 10 11  1  0
  9 10  1  1
 11 12  2  0
 12 13  1  0
 14 13  2  0
 15 14  1  0
 16 15  2  0
 16 11  1  0
 17 18  2  0
 20 19  1  0
 20 21  2  0
 22 23  1  0
 22 20  1  0
 24 23  1  6
 24 26  1  0
 25 24  1  0
 25 17  1  0
 26 27  2  0
 26 28  1  0
M  END
$$$$
