PFQ.pdb
     RDKit          3D

 28 29  0  0  1  0  0  0  0  0999 V2000
   23.5755  -11.6166  -17.1961 N   0  0  0  0  0  0  0  0  0  0  0  0
   23.9285  -12.9843  -17.4759 C   0  0  0  0  0  0  0  0  0  0  0  0
   24.4953  -13.4787  -16.1840 C   0  0  0  0  0  0  0  0  0  0  0  0
   23.9968  -12.5222  -15.1328 C   0  0  0  0  0  0  0  0  0  0  0  0
   22.9927  -11.6699  -15.8790 C   0  0  1  0  0  0  0  0  0  0  0  0
   23.0194  -10.3239  -15.2811 C   0  0  0  0  0  0  0  0  0  0  0  0
   22.5888  -10.1756  -14.1041 O   0  0  0  0  0  0  0  0  0  0  0  0
   23.5276   -9.2546  -16.0545 N   0  0  0  0  0  0  0  0  0  0  0  0
   23.5458   -7.9169  -15.5032 C   0  0  1  0  0  0  0  0  0  0  0  0
   24.9516   -7.3693  -15.6373 C   0  0  0  0  0  0  0  0  0  0  0  0
   25.3775   -7.3012  -17.0549 C   0  0  0  0  0  0  0  0  0  0  0  0
   26.0482   -8.3521  -17.6453 C   0  0  0  0  0  0  0  0  0  0  0  0
   26.4464   -8.2887  -18.9711 C   0  0  0  0  0  0  0  0  0  0  0  0
   26.1931   -7.1833  -19.7528 C   0  0  0  0  0  0  0  0  0  0  0  0
   25.5223   -6.1269  -19.1699 C   0  0  0  0  0  0  0  0  0  0  0  0
   25.1284   -6.1959  -17.8499 C   0  0  0  0  0  0  0  0  0  0  0  0
   22.5743   -7.1069  -16.2823 C   0  0  0  0  0  0  0  0  0  0  0  0
   22.1365   -7.4619  -17.4077 O   0  0  0  0  0  0  0  0  0  0  0  0
   18.5151   -7.4363  -18.3619 N   0  0  0  0  0  0  0  0  0  0  0  0
   17.9031   -6.2673  -17.8493 C   0  0  0  0  0  0  0  0  0  0  0  0
   16.8438   -5.8668  -18.3846 O   0  0  0  0  0  0  0  0  0  0  0  0
   18.4877   -5.5266  -16.7109 C   0  0  0  0  0  0  0  0  0  0  0  0
   19.6938   -6.2453  -16.1534 C   0  0  0  0  0  0  0  0  0  0  0  0
   20.8729   -5.2800  -16.3054 C   0  0  2  0  0  0  0  0  0  0  0  0
   22.0889   -5.8618  -15.7674 N   0  0  0  0  0  0  0  0  0  0  0  0
   20.5790   -3.9636  -15.6928 C   0  0  0  0  0  0  0  0  0  0  0  0
   21.2596   -3.5947  -14.7047 O   0  0  0  0  0  0  0  0  0  0  0  0
   19.5941   -3.1103  -16.1458 O   0  0  0  0  0  0  0  0  0  0  0  0
  1  5  1  0
  2  3  1  0
  2  1  1  0
  3  4  1  0
  4  5  1  0
  5  6  1  1
  6  7  2  0
  8  9  1  0
  8  6  1  0
  9 17  1  0
 10 11  1  0
  9 10  1  6
 11 12  2  0
 12 13  1  0
 14 13  2  0
 15 14  1  0
 16 15  2  0
 16 11  1  0
 17 18  2  0
 20 19  1  0
 20 21  2  0
 22 23  1  0
 22 20  1  0
 24 23  1  1
 24 26  1  0
 25 24  1  0
 25 17  1  0
 26 27  2  0
 26 28  1  0
M  END
$$$$
