PFQ.pdb
     RDKit          3D

 28 29  0  0  1  0  0  0  0  0999 V2000
   19.8153  -11.3212  -19.5031 N   0  0  0  0  0  0  0  0  0  0  0  0
   19.8310  -12.5813  -20.1997 C   0  0  0  0  0  0  0  0  0  0  0  0
   19.3829  -13.5658  -19.1678 C   0  0  0  0  0  0  0  0  0  0  0  0
   18.6939  -12.7506  -18.1052 C   0  0  0  0  0  0  0  0  0  0  0  0
   18.6057  -11.3706  -18.7212 C   0  0  1  0  0  0  0  0  0  0  0  0
   18.6939  -10.3881  -17.6270 C   0  0  0  0  0  0  0  0  0  0  0  0
   17.7333  -10.3003  -16.8132 O   0  0  0  0  0  0  0  0  0  0  0  0
   19.8540   -9.5846  -17.5369 N   0  0  0  0  0  0  0  0  0  0  0  0
   19.9635   -8.5998  -16.4826 C   0  0  1  0  0  0  0  0  0  0  0  0
   21.2474   -8.8611  -15.7228 C   0  0  0  0  0  0  0  0  0  0  0  0
   21.4566   -7.8647  -14.6463 C   0  0  0  0  0  0  0  0  0  0  0  0
   22.1016   -6.6719  -14.8995 C   0  0  0  0  0  0  0  0  0  0  0  0
   22.2972   -5.7397  -13.8929 C   0  0  0  0  0  0  0  0  0  0  0  0
   21.8606   -5.9597  -12.6053 C   0  0  0  0  0  0  0  0  0  0  0  0
   21.2141   -7.1510  -12.3430 C   0  0  0  0  0  0  0  0  0  0  0  0
   21.0224   -8.0748  -13.3491 C   0  0  0  0  0  0  0  0  0  0  0  0
   19.9816   -7.2627  -17.1297 C   0  0  0  0  0  0  0  0  0  0  0  0
   20.7196   -6.9895  -18.1120 O   0  0  0  0  0  0  0  0  0  0  0  0
   16.1733   -6.5649  -17.2930 N   0  0  0  0  0  0  0  0  0  0  0  0
   16.5296   -6.2234  -18.6197 C   0  0  0  0  0  0  0  0  0  0  0  0
   16.0177   -6.8743  -19.5595 O   0  0  0  0  0  0  0  0  0  0  0  0
   17.4811   -5.1280  -18.9050 C   0  0  0  0  0  0  0  0  0  0  0  0
   17.8437   -4.3777  -17.6450 C   0  0  0  0  0  0  0  0  0  0  0  0
   19.2281   -4.8847  -17.2308 C   0  0  2  0  0  0  0  0  0  0  0  0
   19.1387   -6.2105  -16.6468 N   0  0  0  0  0  0  0  0  0  0  0  0
   19.9056   -3.9313  -16.3216 C   0  0  0  0  0  0  0  0  0  0  0  0
   20.1150   -2.7612  -16.7248 O   0  0  0  0  0  0  0  0  0  0  0  0
   20.3243   -4.2536  -15.0472 O   0  0  0  0  0  0  0  0  0  0  0  0
  1  5  1  0
  2  3  1  0
  2  1  1  0
  3  4  1  0
  4  5  1  0
  5  6  1  1
  6  7  2  0
  8  9  1  0
  8  6  1  0
  9 17  1  0
 10 11  1  0
  9 10  1  6
 11 12  2  0
 12 13  1  0
 14 13  2  0
 15 14  1  0
 16 15  2  0
 16 11  1  0
 17 18  2  0
 20 19  1  0
 20 21  2  0
 22 23  1  0
 22 20  1  0
 24 23  1  1
 24 26  1  0
 25 24  1  0
 25 17  1  0
 26 27  2  0
 26 28  1  0
M  END
$$$$
