PFQ.pdb
     RDKit          3D

 28 29  0  0  1  0  0  0  0  0999 V2000
   27.4437  -20.5776  -16.5087 N   0  0  0  0  0  0  0  0  0  0  0  0
   28.4179  -20.6941  -17.5626 C   0  0  0  0  0  0  0  0  0  0  0  0
   29.2566  -21.8597  -17.1468 C   0  0  0  0  0  0  0  0  0  0  0  0
   28.4265  -22.6160  -16.1432 C   0  0  0  0  0  0  0  0  0  0  0  0
   27.0739  -21.9412  -16.2240 C   0  0  1  0  0  0  0  0  0  0  0  0
   26.4615  -22.0093  -14.8859 C   0  0  0  0  0  0  0  0  0  0  0  0
   25.6784  -22.9643  -14.6263 O   0  0  0  0  0  0  0  0  0  0  0  0
   26.7791  -20.9988  -13.9490 N   0  0  0  0  0  0  0  0  0  0  0  0
   26.1969  -21.0406  -12.6251 C   0  0  1  0  0  0  0  0  0  0  0  0
   27.2596  -20.6276  -11.6279 C   0  0  0  0  0  0  0  0  0  0  0  0
   26.6943  -20.4526  -10.2695 C   0  0  0  0  0  0  0  0  0  0  0  0
   26.5737  -21.5232   -9.4081 C   0  0  0  0  0  0  0  0  0  0  0  0
   26.0452  -21.3597   -8.1375 C   0  0  0  0  0  0  0  0  0  0  0  0
   25.6199  -20.1318   -7.6809 C   0  0  0  0  0  0  0  0  0  0  0  0
   25.7370  -19.0548   -8.5366 C   0  0  0  0  0  0  0  0  0  0  0  0
   26.2638  -19.2238   -9.8000 C   0  0  0  0  0  0  0  0  0  0  0  0
   25.0524  -20.0934  -12.6177 C   0  0  0  0  0  0  0  0  0  0  0  0
   25.0288  -19.0457  -13.3147 O   0  0  0  0  0  0  0  0  0  0  0  0
   21.5470  -22.5215  -15.7720 N   0  0  0  0  0  0  0  0  0  0  0  0
   20.6159  -21.6079  -15.2223 C   0  0  0  0  0  0  0  0  0  0  0  0
   19.4946  -21.4996  -15.7698 O   0  0  0  0  0  0  0  0  0  0  0  0
   20.9443  -20.7948  -14.0317 C   0  0  0  0  0  0  0  0  0  0  0  0
   22.3501  -21.0707  -13.5528 C   0  0  0  0  0  0  0  0  0  0  0  0
   22.5725  -20.1637  -12.3391 C   0  0  2  0  0  0  0  0  0  0  0  0
   23.9064  -20.3452  -11.7967 N   0  0  0  0  0  0  0  0  0  0  0  0
   21.5298  -20.3719  -11.3076 C   0  0  0  0  0  0  0  0  0  0  0  0
   20.5469  -19.5917  -11.2799 O   0  0  0  0  0  0  0  0  0  0  0  0
   21.5732  -21.3801  -10.3668 O   0  0  0  0  0  0  0  0  0  0  0  0
  1  5  1  0
  2  3  1  0
  2  1  1  0
  3  4  1  0
  4  5  1  0
  5  6  1  1
  6  7  2  0
  8  9  1  0
  8  6  1  0
  9 17  1  0
 10 11  1  0
  9 10  1  1
 11 12  2  0
 12 13  1  0
 14 13  2  0
 15 14  1  0
 16 15  2  0
 16 11  1  0
 17 18  2  0
 20 19  1  0
 20 21  2  0
 22 23  1  0
 22 20  1  0
 24 23  1  6
 24 26  1  0
 25 24  1  0
 25 17  1  0
 26 27  2  0
 26 28  1  0
M  END
$$$$
