NPN.pdb
     RDKit          3D

 24 24  0  0  1  0  0  0  0  0999 V2000
   20.2622  -14.0181  -18.7385 N   0  0  0  0  0  0  0  0  0  0  0  0
   19.6330  -12.7725  -18.9615 C   0  0  0  0  0  0  0  0  0  0  0  0
   19.3682  -12.4357  -20.1506 O   0  0  0  0  0  0  0  0  0  0  0  0
   19.2537  -11.8172  -17.8949 C   0  0  0  0  0  0  0  0  0  0  0  0
   19.6367  -12.4294  -16.5420 C   0  0  2  0  0  0  0  0  0  0  0  0
   18.5732  -13.2287  -16.0175 N   0  0  0  0  0  0  0  0  0  0  0  0
   20.0689  -11.3666  -15.6037 C   0  0  0  0  0  0  0  0  0  0  0  0
   19.0986  -10.7372  -15.0439 O   0  0  0  0  0  0  0  0  0  0  0  0
   21.4051  -11.0295  -15.3099 N   0  0  0  0  0  0  0  0  0  0  0  0
   22.5668  -11.6885  -15.8505 C   0  0  0  0  0  0  0  0  0  0  0  0
   23.7812  -10.9589  -15.3239 C   0  0  0  0  0  0  0  0  0  0  0  0
   23.2649  -10.3609  -14.0272 C   0  0  0  0  0  0  0  0  0  0  0  0
   21.8445   -9.9912  -14.4394 C   0  0  1  0  0  0  0  0  0  0  0  0
   21.9675   -8.6701  -15.1154 C   0  0  0  0  0  0  0  0  0  0  0  0
   22.2741   -8.6959  -16.3348 O   0  0  0  0  0  0  0  0  0  0  0  0
   20.2037   -4.3335  -17.5732 N   0  0  0  0  0  0  0  0  0  0  0  0
   20.0312   -4.5428  -16.1724 C   0  0  0  0  0  0  0  0  0  0  0  0
   19.6802   -3.5383  -15.5109 O   0  0  0  0  0  0  0  0  0  0  0  0
   20.2539   -5.8602  -15.5539 C   0  0  0  0  0  0  0  0  0  0  0  0
   21.6743   -6.1480  -15.1820 C   0  0  2  0  0  0  0  0  0  0  0  0
   21.7649   -7.4400  -14.4849 N   0  0  0  0  0  0  0  0  0  0  0  0
   22.2763   -5.1113  -14.2920 C   0  0  0  0  0  0  0  0  0  0  0  0
   22.4478   -5.2233  -12.9372 O   0  0  0  0  0  0  0  0  0  0  0  0
   22.6561   -4.0332  -14.8730 O   0  0  0  0  0  0  0  0  0  0  0  0
  2  3  2  0
  2  1  1  0
  4  2  1  0
  5  6  1  1
  5  4  1  0
  7  5  1  0
  8  7  2  0
  9 13  1  0
  9  7  1  0
 10 11  1  0
 10  9  1  0
 11 12  1  0
 12 13  1  0
 14 15  2  0
 13 14  1  6
 16 17  1  0
 17 18  2  0
 17 19  1  0
 20 19  1  1
 20 21  1  0
 20 22  1  0
 21 14  1  0
 22 23  1  0
 24 22  2  0
M  END
$$$$
