NPN.pdb
     RDKit          3D

 24 24  0  0  1  0  0  0  0  0999 V2000
   19.1214  -25.0285   -7.8392 N   0  0  0  0  0  0  0  0  0  0  0  0
   17.9366  -24.4064   -7.3849 C   0  0  0  0  0  0  0  0  0  0  0  0
   17.4141  -23.5079   -8.1041 O   0  0  0  0  0  0  0  0  0  0  0  0
   17.2492  -24.7301   -6.1133 C   0  0  0  0  0  0  0  0  0  0  0  0
   17.2385  -26.2545   -5.9465 C   0  0  2  0  0  0  0  0  0  0  0  0
   16.5291  -26.8857   -7.0157 N   0  0  0  0  0  0  0  0  0  0  0  0
   16.7047  -26.6194   -4.6128 C   0  0  0  0  0  0  0  0  0  0  0  0
   15.4275  -26.5181   -4.5154 O   0  0  0  0  0  0  0  0  0  0  0  0
   17.4750  -27.0455   -3.5127 N   0  0  0  0  0  0  0  0  0  0  0  0
   18.9096  -27.1806   -3.5050 C   0  0  0  0  0  0  0  0  0  0  0  0
   19.3130  -27.5925   -2.1078 C   0  0  0  0  0  0  0  0  0  0  0  0
   18.0631  -28.2892   -1.5999 C   0  0  0  0  0  0  0  0  0  0  0  0
   16.9842  -27.4137   -2.2272 C   0  0  1  0  0  0  0  0  0  0  0  0
   16.8356  -26.2569   -1.3013 C   0  0  0  0  0  0  0  0  0  0  0  0
   17.4664  -25.2135   -1.6095 O   0  0  0  0  0  0  0  0  0  0  0  0
   13.5552  -22.9741    1.0862 N   0  0  0  0  0  0  0  0  0  0  0  0
   13.5193  -23.4760   -0.2490 C   0  0  0  0  0  0  0  0  0  0  0  0
   12.6847  -22.9356   -1.0116 O   0  0  0  0  0  0  0  0  0  0  0  0
   14.4113  -24.5602   -0.6921 C   0  0  0  0  0  0  0  0  0  0  0  0
   15.3054  -25.1133    0.3725 C   0  0  2  0  0  0  0  0  0  0  0  0
   16.0543  -26.2693   -0.1433 N   0  0  0  0  0  0  0  0  0  0  0  0
   14.5694  -25.5597    1.5925 C   0  0  0  0  0  0  0  0  0  0  0  0
   14.5101  -26.8447    2.0643 O   0  0  0  0  0  0  0  0  0  0  0  0
   13.9477  -24.6396    2.2338 O   0  0  0  0  0  0  0  0  0  0  0  0
  2  3  2  0
  2  1  1  0
  4  2  1  0
  5  6  1  6
  5  4  1  0
  7  5  1  0
  8  7  2  0
  9 13  1  0
  9  7  1  0
 10 11  1  0
 10  9  1  0
 11 12  1  0
 12 13  1  0
 14 15  2  0
 13 14  1  1
 16 17  1  0
 17 18  2  0
 17 19  1  0
 20 19  1  6
 20 21  1  0
 20 22  1  0
 21 14  1  0
 22 23  1  0
 24 22  2  0
M  END
$$$$
