NPN.pdb
     RDKit          3D

 24 24  0  0  1  0  0  0  0  0999 V2000
   24.3449  -12.3057  -20.8125 N   0  0  0  0  0  0  0  0  0  0  0  0
   24.1892  -12.2603  -19.4086 C   0  0  0  0  0  0  0  0  0  0  0  0
   24.5800  -13.2502  -18.7268 O   0  0  0  0  0  0  0  0  0  0  0  0
   23.5953  -11.1265  -18.6629 C   0  0  0  0  0  0  0  0  0  0  0  0
   22.3698  -11.6423  -17.8987 C   0  0  2  0  0  0  0  0  0  0  0  0
   21.3791  -12.1516  -18.7954 N   0  0  0  0  0  0  0  0  0  0  0  0
   21.8418  -10.5842  -17.0051 C   0  0  0  0  0  0  0  0  0  0  0  0
   21.0744   -9.7380  -17.5934 O   0  0  0  0  0  0  0  0  0  0  0  0
   22.1186  -10.4634  -15.6288 N   0  0  0  0  0  0  0  0  0  0  0  0
   22.9662  -11.3483  -14.8707 C   0  0  0  0  0  0  0  0  0  0  0  0
   23.0346  -10.8048  -13.4619 C   0  0  0  0  0  0  0  0  0  0  0  0
   21.7283  -10.0396  -13.3443 C   0  0  0  0  0  0  0  0  0  0  0  0
   21.6201   -9.4595  -14.7499 C   0  0  1  0  0  0  0  0  0  0  0  0
   22.4579   -8.2286  -14.7278 C   0  0  0  0  0  0  0  0  0  0  0  0
   23.5785   -8.3086  -15.2932 O   0  0  0  0  0  0  0  0  0  0  0  0
   22.7124   -3.1978  -16.0211 N   0  0  0  0  0  0  0  0  0  0  0  0
   22.1863   -4.3069  -16.7486 C   0  0  0  0  0  0  0  0  0  0  0  0
   21.9135   -4.0887  -17.9519 O   0  0  0  0  0  0  0  0  0  0  0  0
   21.9815   -5.6202  -16.1156 C   0  0  0  0  0  0  0  0  0  0  0  0
   22.3731   -5.6907  -14.6732 C   0  0  2  0  0  0  0  0  0  0  0  0
   22.0752   -7.0250  -14.1307 N   0  0  0  0  0  0  0  0  0  0  0  0
   21.6706   -4.6884  -13.8182 C   0  0  0  0  0  0  0  0  0  0  0  0
   20.3923   -4.8032  -13.3385 O   0  0  0  0  0  0  0  0  0  0  0  0
   22.3461   -3.6390  -13.5235 O   0  0  0  0  0  0  0  0  0  0  0  0
  2  3  2  0
  2  1  1  0
  4  2  1  0
  5  6  1  6
  5  4  1  0
  7  5  1  0
  8  7  2  0
  9 13  1  0
  9  7  1  0
 10 11  1  0
 10  9  1  0
 11 12  1  0
 12 13  1  0
 14 15  2  0
 13 14  1  1
 16 17  1  0
 17 18  2  0
 17 19  1  0
 20 19  1  6
 20 21  1  0
 20 22  1  0
 21 14  1  0
 22 23  1  0
 24 22  2  0
M  END
$$$$
