NPN.pdb
     RDKit          3D

 24 24  0  0  1  0  0  0  0  0999 V2000
   35.3180  -29.1767    4.5656 N   0  0  0  0  0  0  0  0  0  0  0  0
   35.4516  -28.5765    3.2931 C   0  0  0  0  0  0  0  0  0  0  0  0
   34.4607  -28.5999    2.5090 O   0  0  0  0  0  0  0  0  0  0  0  0
   36.6803  -27.9123    2.7997 C   0  0  0  0  0  0  0  0  0  0  0  0
   37.7338  -27.9608    3.9131 C   0  0  2  0  0  0  0  0  0  0  0  0
   37.9407  -29.2999    4.3700 N   0  0  0  0  0  0  0  0  0  0  0  0
   37.3630  -27.0340    5.0088 C   0  0  0  0  0  0  0  0  0  0  0  0
   36.7466  -27.5986    5.9847 O   0  0  0  0  0  0  0  0  0  0  0  0
   37.6335  -25.6516    5.0367 N   0  0  0  0  0  0  0  0  0  0  0  0
   38.2635  -24.9062    3.9766 C   0  0  0  0  0  0  0  0  0  0  0  0
   38.2881  -23.4561    4.4022 C   0  0  0  0  0  0  0  0  0  0  0  0
   38.2704  -23.5609    5.9169 C   0  0  0  0  0  0  0  0  0  0  0  0
   37.3371  -24.7522    6.1009 C   0  0  1  0  0  0  0  0  0  0  0  0
   35.9626  -24.1844    6.0250 C   0  0  0  0  0  0  0  0  0  0  0  0
   35.2920  -24.4859    5.0047 O   0  0  0  0  0  0  0  0  0  0  0  0
   31.6919  -26.1955    8.3328 N   0  0  0  0  0  0  0  0  0  0  0  0
   32.5500  -25.1297    8.7371 C   0  0  0  0  0  0  0  0  0  0  0  0
   32.1266  -24.4159    9.6758 O   0  0  0  0  0  0  0  0  0  0  0  0
   33.8491  -24.8930    8.0860 C   0  0  0  0  0  0  0  0  0  0  0  0
   34.0347  -23.5137    7.5365 C   0  0  2  0  0  0  0  0  0  0  0  0
   35.3954  -23.3598    6.9997 N   0  0  0  0  0  0  0  0  0  0  0  0
   33.8247  -22.4380    8.5503 C   0  0  0  0  0  0  0  0  0  0  0  0
   34.6577  -22.1568    9.6012 O   0  0  0  0  0  0  0  0  0  0  0  0
   32.7646  -21.7324    8.3999 O   0  0  0  0  0  0  0  0  0  0  0  0
  2  3  2  0
  2  1  1  0
  4  2  1  0
  5  6  1  1
  5  4  1  0
  7  5  1  0
  8  7  2  0
  9 13  1  0
  9  7  1  0
 10 11  1  0
 10  9  1  0
 11 12  1  0
 12 13  1  0
 14 15  2  0
 13 14  1  6
 16 17  1  0
 17 18  2  0
 17 19  1  0
 20 19  1  1
 20 21  1  0
 20 22  1  0
 21 14  1  0
 22 23  1  0
 24 22  2  0
M  END
$$$$
