NPN.pdb
     RDKit          3D

 24 24  0  0  1  0  0  0  0  0999 V2000
   19.5654  -13.3751  -19.2486 N   0  0  0  0  0  0  0  0  0  0  0  0
   19.2682  -12.0135  -19.4832 C   0  0  0  0  0  0  0  0  0  0  0  0
   19.0908  -11.6324  -20.6751 O   0  0  0  0  0  0  0  0  0  0  0  0
   19.1465  -10.9834  -18.4257 C   0  0  0  0  0  0  0  0  0  0  0  0
   19.3769  -11.6580  -17.0678 C   0  0  2  0  0  0  0  0  0  0  0  0
   18.1887  -12.3049  -16.6047 N   0  0  0  0  0  0  0  0  0  0  0  0
   19.9103  -10.6769  -16.0933 C   0  0  0  0  0  0  0  0  0  0  0  0
   19.0348   -9.8426  -15.6591 O   0  0  0  0  0  0  0  0  0  0  0  0
   21.2442  -10.6134  -15.6441 N   0  0  0  0  0  0  0  0  0  0  0  0
   22.3201  -11.4489  -16.1139 C   0  0  0  0  0  0  0  0  0  0  0  0
   23.5804  -10.9901  -15.4168 C   0  0  0  0  0  0  0  0  0  0  0  0
   23.0399  -10.3768  -14.1372 C   0  0  0  0  0  0  0  0  0  0  0  0
   21.7649   -9.7249  -14.6600 C   0  0  1  0  0  0  0  0  0  0  0  0
   22.1996   -8.4158  -15.2211 C   0  0  0  0  0  0  0  0  0  0  0  0
   22.4130   -8.3853  -16.4601 O   0  0  0  0  0  0  0  0  0  0  0  0
   20.8378   -3.3639  -15.5018 N   0  0  0  0  0  0  0  0  0  0  0  0
   20.0183   -4.5293  -15.5802 C   0  0  0  0  0  0  0  0  0  0  0  0
   18.8268   -4.3355  -15.9160 O   0  0  0  0  0  0  0  0  0  0  0  0
   20.5496   -5.8700  -15.2837 C   0  0  0  0  0  0  0  0  0  0  0  0
   21.9976   -5.9034  -14.9081 C   0  0  2  0  0  0  0  0  0  0  0  0
   22.3764   -7.2540  -14.4658 N   0  0  0  0  0  0  0  0  0  0  0  0
   22.3478   -4.9537  -13.8106 C   0  0  0  0  0  0  0  0  0  0  0  0
   21.8212   -4.9652  -12.5457 O   0  0  0  0  0  0  0  0  0  0  0  0
   23.2192   -4.0605  -14.1059 O   0  0  0  0  0  0  0  0  0  0  0  0
  2  3  2  0
  2  1  1  0
  4  2  1  0
  5  6  1  1
  5  4  1  0
  7  5  1  0
  8  7  2  0
  9 13  1  0
  9  7  1  0
 10 11  1  0
 10  9  1  0
 11 12  1  0
 12 13  1  0
 14 15  2  0
 13 14  1  6
 16 17  1  0
 17 18  2  0
 17 19  1  0
 20 19  1  1
 20 21  1  0
 20 22  1  0
 21 14  1  0
 22 23  1  0
 24 22  2  0
M  END
$$$$
