NPN.pdb
     RDKit          3D

 24 24  0  0  1  0  0  0  0  0999 V2000
   23.9158  -20.4999   -8.3094 N   0  0  0  0  0  0  0  0  0  0  0  0
   24.7481  -21.0949   -9.2843 C   0  0  0  0  0  0  0  0  0  0  0  0
   25.6780  -21.8586   -8.8975 O   0  0  0  0  0  0  0  0  0  0  0  0
   24.6137  -20.8906  -10.7452 C   0  0  0  0  0  0  0  0  0  0  0  0
   25.9295  -20.3051  -11.2724 C   0  0  2  0  0  0  0  0  0  0  0  0
   26.6144  -19.5738  -10.2522 N   0  0  0  0  0  0  0  0  0  0  0  0
   25.6778  -19.4931  -12.4865 C   0  0  0  0  0  0  0  0  0  0  0  0
   24.5730  -18.8378  -12.4573 O   0  0  0  0  0  0  0  0  0  0  0  0
   26.5326  -19.4058  -13.6032 N   0  0  0  0  0  0  0  0  0  0  0  0
   27.7402  -20.1702  -13.7874 C   0  0  0  0  0  0  0  0  0  0  0  0
   28.2950  -19.8101  -15.1465 C   0  0  0  0  0  0  0  0  0  0  0  0
   27.7428  -18.4125  -15.3638 C   0  0  0  0  0  0  0  0  0  0  0  0
   26.3613  -18.5602  -14.7366 C   0  0  1  0  0  0  0  0  0  0  0  0
   25.5145  -19.1675  -15.8004 C   0  0  0  0  0  0  0  0  0  0  0  0
   25.6834  -20.3957  -16.0119 O   0  0  0  0  0  0  0  0  0  0  0  0
   20.6126  -20.7087  -15.4598 N   0  0  0  0  0  0  0  0  0  0  0  0
   21.0801  -19.3611  -15.4252 C   0  0  0  0  0  0  0  0  0  0  0  0
   20.1927  -18.4764  -15.4355 O   0  0  0  0  0  0  0  0  0  0  0  0
   22.5165  -19.0414  -15.3797 C   0  0  0  0  0  0  0  0  0  0  0  0
   23.1647  -18.8690  -16.7172 C   0  0  2  0  0  0  0  0  0  0  0  0
   24.5695  -18.4655  -16.5525 N   0  0  0  0  0  0  0  0  0  0  0  0
   22.4972  -17.8430  -17.5721 C   0  0  0  0  0  0  0  0  0  0  0  0
   21.5417  -18.0930  -18.5217 O   0  0  0  0  0  0  0  0  0  0  0  0
   22.8707  -16.6315  -17.3795 O   0  0  0  0  0  0  0  0  0  0  0  0
  2  3  2  0
  2  1  1  0
  4  2  1  0
  5  6  1  1
  5  4  1  0
  7  5  1  0
  8  7  2  0
  9 13  1  0
  9  7  1  0
 10 11  1  0
 10  9  1  0
 11 12  1  0
 12 13  1  0
 14 15  2  0
 13 14  1  6
 16 17  1  0
 17 18  2  0
 17 19  1  0
 20 19  1  1
 20 21  1  0
 20 22  1  0
 21 14  1  0
 22 23  1  0
 24 22  2  0
M  END
$$$$
