NPN.pdb
     RDKit          3D

 24 24  0  0  1  0  0  0  0  0999 V2000
   23.9417  -14.2130  -20.1938 N   0  0  0  0  0  0  0  0  0  0  0  0
   23.0359  -13.1283  -20.2169 C   0  0  0  0  0  0  0  0  0  0  0  0
   22.1955  -13.0653  -21.1587 O   0  0  0  0  0  0  0  0  0  0  0  0
   22.9940  -12.0440  -19.2085 C   0  0  0  0  0  0  0  0  0  0  0  0
   23.2200  -12.6649  -17.8245 C   0  0  2  0  0  0  0  0  0  0  0  0
   22.1975  -13.6144  -17.5116 N   0  0  0  0  0  0  0  0  0  0  0  0
   23.3441  -11.6005  -16.8006 C   0  0  0  0  0  0  0  0  0  0  0  0
   22.2305  -11.2729  -16.2495 O   0  0  0  0  0  0  0  0  0  0  0  0
   24.5441  -10.9669  -16.4215 N   0  0  0  0  0  0  0  0  0  0  0  0
   25.8457  -11.2571  -16.9672 C   0  0  0  0  0  0  0  0  0  0  0  0
   26.8234  -10.2984  -16.3273 C   0  0  0  0  0  0  0  0  0  0  0  0
   26.1467   -9.9762  -15.0067 C   0  0  0  0  0  0  0  0  0  0  0  0
   24.6873   -9.9391  -15.4457 C   0  0  1  0  0  0  0  0  0  0  0  0
   24.4823   -8.5715  -15.9980 C   0  0  0  0  0  0  0  0  0  0  0  0
   24.7489   -8.4187  -17.2175 O   0  0  0  0  0  0  0  0  0  0  0  0
   21.4758   -4.3626  -16.7995 N   0  0  0  0  0  0  0  0  0  0  0  0
   21.2288   -5.7359  -17.0974 C   0  0  0  0  0  0  0  0  0  0  0  0
   20.2333   -5.9652  -17.8230 O   0  0  0  0  0  0  0  0  0  0  0  0
   22.0955   -6.8078  -16.5801 C   0  0  0  0  0  0  0  0  0  0  0  0
   23.2922   -6.3350  -15.8165 C   0  0  2  0  0  0  0  0  0  0  0  0
   24.0218   -7.4820  -15.2547 N   0  0  0  0  0  0  0  0  0  0  0  0
   22.9517   -5.4193  -14.6874 C   0  0  0  0  0  0  0  0  0  0  0  0
   22.2965   -5.7769  -13.5384 O   0  0  0  0  0  0  0  0  0  0  0  0
   23.3157   -4.1985  -14.8333 O   0  0  0  0  0  0  0  0  0  0  0  0
  2  3  2  0
  2  1  1  0
  4  2  1  0
  5  6  1  1
  5  4  1  0
  7  5  1  0
  8  7  2  0
  9 13  1  0
  9  7  1  0
 10 11  1  0
 10  9  1  0
 11 12  1  0
 12 13  1  0
 14 15  2  0
 13 14  1  6
 16 17  1  0
 17 18  2  0
 17 19  1  0
 20 19  1  1
 20 21  1  0
 20 22  1  0
 21 14  1  0
 22 23  1  0
 24 22  2  0
M  END
$$$$
