NPN.pdb
     RDKit          3D

 24 24  0  0  1  0  0  0  0  0999 V2000
   22.4567  -22.0815  -16.6685 N   0  0  0  0  0  0  0  0  0  0  0  0
   21.4298  -21.2537  -16.1611 C   0  0  0  0  0  0  0  0  0  0  0  0
   20.3079  -21.7753  -15.9031 O   0  0  0  0  0  0  0  0  0  0  0  0
   21.5679  -19.8014  -15.9042 C   0  0  0  0  0  0  0  0  0  0  0  0
   22.7831  -19.5873  -14.9935 C   0  0  2  0  0  0  0  0  0  0  0  0
   22.6544  -20.3295  -13.7780 N   0  0  0  0  0  0  0  0  0  0  0  0
   22.9976  -18.1396  -14.7589 C   0  0  0  0  0  0  0  0  0  0  0  0
   22.2154  -17.6317  -13.8750 O   0  0  0  0  0  0  0  0  0  0  0  0
   23.9549  -17.3386  -15.4127 N   0  0  0  0  0  0  0  0  0  0  0  0
   24.8363  -17.7857  -16.4612 C   0  0  0  0  0  0  0  0  0  0  0  0
   25.6372  -16.5867  -16.9145 C   0  0  0  0  0  0  0  0  0  0  0  0
   25.6320  -15.7052  -15.6782 C   0  0  0  0  0  0  0  0  0  0  0  0
   24.2210  -15.9621  -15.1613 C   0  0  1  0  0  0  0  0  0  0  0  0
   23.3478  -15.0424  -15.9419 C   0  0  0  0  0  0  0  0  0  0  0  0
   22.9130  -15.4840  -17.0363 O   0  0  0  0  0  0  0  0  0  0  0  0
   19.8559  -11.1873  -17.0160 N   0  0  0  0  0  0  0  0  0  0  0  0
   20.3908  -11.0257  -15.7031 C   0  0  0  0  0  0  0  0  0  0  0  0
   19.9153  -10.0791  -15.0340 O   0  0  0  0  0  0  0  0  0  0  0  0
   21.4350  -11.9208  -15.1777 C   0  0  0  0  0  0  0  0  0  0  0  0
   21.9359  -12.9415  -16.1505 C   0  0  2  0  0  0  0  0  0  0  0  0
   22.9958  -13.7536  -15.5337 N   0  0  0  0  0  0  0  0  0  0  0  0
   22.4931  -12.3458  -17.4010 C   0  0  0  0  0  0  0  0  0  0  0  0
   21.7935  -12.1132  -18.5559 O   0  0  0  0  0  0  0  0  0  0  0  0
   23.7367  -12.0354  -17.3621 O   0  0  0  0  0  0  0  0  0  0  0  0
  2  3  2  0
  2  1  1  0
  4  2  1  0
  5  6  1  1
  5  4  1  0
  7  5  1  0
  8  7  2  0
  9 13  1  0
  9  7  1  0
 10 11  1  0
 10  9  1  0
 11 12  1  0
 12 13  1  0
 14 15  2  0
 13 14  1  6
 16 17  1  0
 17 18  2  0
 17 19  1  0
 20 19  1  1
 20 21  1  0
 20 22  1  0
 21 14  1  0
 22 23  1  0
 24 22  2  0
M  END
$$$$
