NPN.pdb
     RDKit          3D

 24 24  0  0  1  0  0  0  0  0999 V2000
   15.5682  -12.7066  -17.9604 N   0  0  0  0  0  0  0  0  0  0  0  0
   16.4517  -11.7392  -17.4306 C   0  0  0  0  0  0  0  0  0  0  0  0
   17.1333  -11.0414  -18.2343 O   0  0  0  0  0  0  0  0  0  0  0  0
   16.6438  -11.4750  -15.9857 C   0  0  0  0  0  0  0  0  0  0  0  0
   18.1456  -11.5361  -15.6809 C   0  0  2  0  0  0  0  0  0  0  0  0
   18.6295  -12.8805  -15.7375 N   0  0  0  0  0  0  0  0  0  0  0  0
   18.4309  -10.8803  -14.3827 C   0  0  0  0  0  0  0  0  0  0  0  0
   18.1419  -11.6005  -13.3585 O   0  0  0  0  0  0  0  0  0  0  0  0
   18.9695   -9.5885  -14.2204 N   0  0  0  0  0  0  0  0  0  0  0  0
   19.3605   -8.7101  -15.2936 C   0  0  0  0  0  0  0  0  0  0  0  0
   19.8138   -7.4115  -14.6669 C   0  0  0  0  0  0  0  0  0  0  0  0
   20.2651   -7.8560  -13.2869 C   0  0  0  0  0  0  0  0  0  0  0  0
   19.2207   -8.9249  -12.9853 C   0  0  1  0  0  0  0  0  0  0  0  0
   18.0401   -8.1794  -12.4677 C   0  0  0  0  0  0  0  0  0  0  0  0
   17.2668   -7.6932  -13.3323 O   0  0  0  0  0  0  0  0  0  0  0  0
   13.8276   -7.8537   -8.6235 N   0  0  0  0  0  0  0  0  0  0  0  0
   15.1205   -7.2607   -8.5110 C   0  0  0  0  0  0  0  0  0  0  0  0
   15.1823   -6.2158   -7.8223 O   0  0  0  0  0  0  0  0  0  0  0  0
   16.3007   -7.8482   -9.1664 C   0  0  0  0  0  0  0  0  0  0  0  0
   16.5001   -7.4342  -10.5904 C   0  0  2  0  0  0  0  0  0  0  0  0
   17.7542   -7.9983  -11.1124 N   0  0  0  0  0  0  0  0  0  0  0  0
   16.5595   -5.9538  -10.7750 C   0  0  0  0  0  0  0  0  0  0  0  0
   15.4801   -5.1238  -10.9280 O   0  0  0  0  0  0  0  0  0  0  0  0
   17.7353   -5.4424  -10.7880 O   0  0  0  0  0  0  0  0  0  0  0  0
  2  3  2  0
  2  1  1  0
  4  2  1  0
  5  6  1  1
  5  4  1  0
  7  5  1  0
  8  7  2  0
  9 13  1  0
  9  7  1  0
 10 11  1  0
 10  9  1  0
 11 12  1  0
 12 13  1  0
 14 15  2  0
 13 14  1  6
 16 17  1  0
 17 18  2  0
 17 19  1  0
 20 19  1  1
 20 21  1  0
 20 22  1  0
 21 14  1  0
 22 23  1  0
 24 22  2  0
M  END
$$$$
