NPN.pdb
     RDKit          3D

 24 24  0  0  1  0  0  0  0  0999 V2000
   20.5999  -14.9566  -19.0557 N   0  0  0  0  0  0  0  0  0  0  0  0
   20.1673  -13.6412  -19.3382 C   0  0  0  0  0  0  0  0  0  0  0  0
   19.8436  -13.3555  -20.5260 O   0  0  0  0  0  0  0  0  0  0  0  0
   20.0620  -12.5554  -18.3360 C   0  0  0  0  0  0  0  0  0  0  0  0
   20.4386  -13.1284  -16.9643 C   0  0  2  0  0  0  0  0  0  0  0  0
   19.4238  -14.0101  -16.4769 N   0  0  0  0  0  0  0  0  0  0  0  0
   20.7440  -12.0298  -16.0174 C   0  0  0  0  0  0  0  0  0  0  0  0
   19.7065  -11.3999  -15.5955 O   0  0  0  0  0  0  0  0  0  0  0  0
   22.0319  -11.6610  -15.5811 N   0  0  0  0  0  0  0  0  0  0  0  0
   23.2623  -12.2785  -16.0069 C   0  0  0  0  0  0  0  0  0  0  0  0
   24.3936  -11.5248  -15.3461 C   0  0  0  0  0  0  0  0  0  0  0  0
   23.7281  -10.9635  -14.1020 C   0  0  0  0  0  0  0  0  0  0  0  0
   22.3481  -10.6261  -14.6548 C   0  0  1  0  0  0  0  0  0  0  0  0
   22.5020   -9.2907  -15.2955 C   0  0  0  0  0  0  0  0  0  0  0  0
   22.6190   -9.2850  -16.5477 O   0  0  0  0  0  0  0  0  0  0  0  0
   20.4883   -4.5508  -16.0289 N   0  0  0  0  0  0  0  0  0  0  0  0
   19.8085   -5.7986  -15.9000 C   0  0  0  0  0  0  0  0  0  0  0  0
   18.5956   -5.7930  -16.2147 O   0  0  0  0  0  0  0  0  0  0  0  0
   20.4982   -7.0101  -15.4266 C   0  0  0  0  0  0  0  0  0  0  0  0
   21.9450   -6.8207  -15.0952 C   0  0  2  0  0  0  0  0  0  0  0  0
   22.5214   -8.0798  -14.5993 N   0  0  0  0  0  0  0  0  0  0  0  0
   22.1839   -5.7747  -14.0570 C   0  0  0  0  0  0  0  0  0  0  0  0
   22.8453   -4.5909  -14.2529 O   0  0  0  0  0  0  0  0  0  0  0  0
   21.7191   -6.0338  -12.8903 O   0  0  0  0  0  0  0  0  0  0  0  0
  2  3  2  0
  2  1  1  0
  4  2  1  0
  5  6  1  1
  5  4  1  0
  7  5  1  0
  8  7  2  0
  9 13  1  0
  9  7  1  0
 10 11  1  0
 10  9  1  0
 11 12  1  0
 12 13  1  0
 14 15  2  0
 13 14  1  6
 16 17  1  0
 17 18  2  0
 17 19  1  0
 20 19  1  1
 20 21  1  0
 20 22  1  0
 21 14  1  0
 22 23  1  0
 24 22  2  0
M  END
$$$$
