NPN.pdb
     RDKit          3D

 24 24  0  0  1  0  0  0  0  0999 V2000
   19.1777  -12.7618  -19.0103 N   0  0  0  0  0  0  0  0  0  0  0  0
   18.7288  -11.4217  -19.0139 C   0  0  0  0  0  0  0  0  0  0  0  0
   18.4452  -10.8844  -20.1222 O   0  0  0  0  0  0  0  0  0  0  0  0
   18.5619  -10.5858  -17.8025 C   0  0  0  0  0  0  0  0  0  0  0  0
   18.9636  -11.4223  -16.5815 C   0  0  2  0  0  0  0  0  0  0  0  0
   17.8744  -12.2308  -16.1287 N   0  0  0  0  0  0  0  0  0  0  0  0
   19.5055  -10.5453  -15.5165 C   0  0  0  0  0  0  0  0  0  0  0  0
   18.6044   -9.9872  -14.7902 O   0  0  0  0  0  0  0  0  0  0  0  0
   20.8721  -10.3051  -15.2721 N   0  0  0  0  0  0  0  0  0  0  0  0
   21.9639  -10.8985  -16.0016 C   0  0  0  0  0  0  0  0  0  0  0  0
   23.2424  -10.3075  -15.4534 C   0  0  0  0  0  0  0  0  0  0  0  0
   22.8435   -9.9231  -14.0396 C   0  0  0  0  0  0  0  0  0  0  0  0
   21.4155   -9.4444  -14.2757 C   0  0  1  0  0  0  0  0  0  0  0  0
   21.5490   -8.0320  -14.7281 C   0  0  0  0  0  0  0  0  0  0  0  0
   21.8293   -7.8612  -15.9422 O   0  0  0  0  0  0  0  0  0  0  0  0
   20.6477   -2.8052  -14.9784 N   0  0  0  0  0  0  0  0  0  0  0  0
   19.5978   -3.6486  -14.5071 C   0  0  0  0  0  0  0  0  0  0  0  0
   18.4608   -3.1248  -14.4540 O   0  0  0  0  0  0  0  0  0  0  0  0
   19.8458   -5.0449  -14.1114 C   0  0  0  0  0  0  0  0  0  0  0  0
   21.2340   -5.5363  -14.3766 C   0  0  2  0  0  0  0  0  0  0  0  0
   21.3828   -6.9196  -13.8995 N   0  0  0  0  0  0  0  0  0  0  0  0
   22.2907   -4.7143  -13.7156 C   0  0  0  0  0  0  0  0  0  0  0  0
   23.0445   -3.7442  -14.3222 O   0  0  0  0  0  0  0  0  0  0  0  0
   22.4886   -4.9596  -12.4726 O   0  0  0  0  0  0  0  0  0  0  0  0
  2  3  2  0
  2  1  1  0
  4  2  1  0
  5  6  1  1
  5  4  1  0
  7  5  1  0
  8  7  2  0
  9 13  1  0
  9  7  1  0
 10 11  1  0
 10  9  1  0
 11 12  1  0
 12 13  1  0
 14 15  2  0
 13 14  1  6
 16 17  1  0
 17 18  2  0
 17 19  1  0
 20 19  1  1
 20 21  1  0
 20 22  1  0
 21 14  1  0
 22 23  1  0
 24 22  2  0
M  END
$$$$
