NPN.pdb
     RDKit          3D

 24 24  0  0  1  0  0  0  0  0999 V2000
   29.2480  -19.3425  -15.8041 N   0  0  0  0  0  0  0  0  0  0  0  0
   27.9765  -18.7512  -15.9801 C   0  0  0  0  0  0  0  0  0  0  0  0
   27.9081  -17.6322  -16.5638 O   0  0  0  0  0  0  0  0  0  0  0  0
   26.6992  -19.3494  -15.5276 C   0  0  0  0  0  0  0  0  0  0  0  0
   27.0100  -20.6844  -14.8398 C   0  0  2  0  0  0  0  0  0  0  0  0
   27.5070  -21.6441  -15.7763 N   0  0  0  0  0  0  0  0  0  0  0  0
   25.8191  -21.1693  -14.1025 C   0  0  0  0  0  0  0  0  0  0  0  0
   25.0033  -21.8550  -14.8203 O   0  0  0  0  0  0  0  0  0  0  0  0
   25.5496  -20.9336  -12.7398 N   0  0  0  0  0  0  0  0  0  0  0  0
   26.4091  -20.2135  -11.8349 C   0  0  0  0  0  0  0  0  0  0  0  0
   25.6976  -20.1417  -10.5033 C   0  0  0  0  0  0  0  0  0  0  0  0
   24.7971  -21.3634  -10.5488 C   0  0  0  0  0  0  0  0  0  0  0  0
   24.3958  -21.3565  -12.0195 C   0  0  1  0  0  0  0  0  0  0  0  0
   23.2622  -20.3949  -12.1083 C   0  0  0  0  0  0  0  0  0  0  0  0
   23.5698  -19.1863  -12.2705 O   0  0  0  0  0  0  0  0  0  0  0  0
   20.0622  -18.6125  -15.0933 N   0  0  0  0  0  0  0  0  0  0  0  0
   20.8957  -19.7237  -15.4194 C   0  0  0  0  0  0  0  0  0  0  0  0
   21.2047  -19.8363  -16.6285 O   0  0  0  0  0  0  0  0  0  0  0  0
   21.3582  -20.6716  -14.3922 C   0  0  0  0  0  0  0  0  0  0  0  0
   20.8855  -20.3742  -13.0041 C   0  0  2  0  0  0  0  0  0  0  0  0
   21.9149  -20.7546  -12.0247 N   0  0  0  0  0  0  0  0  0  0  0  0
   19.6279  -21.0914  -12.6392 C   0  0  0  0  0  0  0  0  0  0  0  0
   19.4870  -22.4495  -12.5248 O   0  0  0  0  0  0  0  0  0  0  0  0
   18.6074  -20.3465  -12.4200 O   0  0  0  0  0  0  0  0  0  0  0  0
  2  3  2  0
  2  1  1  0
  4  2  1  0
  5  6  1  6
  5  4  1  0
  7  5  1  0
  8  7  2  0
  9 13  1  0
  9  7  1  0
 10 11  1  0
 10  9  1  0
 11 12  1  0
 12 13  1  0
 14 15  2  0
 13 14  1  1
 16 17  1  0
 17 18  2  0
 17 19  1  0
 20 19  1  6
 20 21  1  0
 20 22  1  0
 21 14  1  0
 22 23  1  0
 24 22  2  0
M  END
$$$$
