NPN.pdb
     RDKit          3D

 24 24  0  0  1  0  0  0  0  0999 V2000
   19.8957  -13.4131  -19.5350 N   0  0  0  0  0  0  0  0  0  0  0  0
   18.9417  -12.5035  -19.0253 C   0  0  0  0  0  0  0  0  0  0  0  0
   17.7471  -12.5949  -19.4278 O   0  0  0  0  0  0  0  0  0  0  0  0
   19.2368  -11.4360  -18.0416 C   0  0  0  0  0  0  0  0  0  0  0  0
   19.4114  -12.0863  -16.6637 C   0  0  2  0  0  0  0  0  0  0  0  0
   18.1912  -12.6822  -16.2158 N   0  0  0  0  0  0  0  0  0  0  0  0
   19.9542  -11.1012  -15.6984 C   0  0  0  0  0  0  0  0  0  0  0  0
   19.0542  -10.4130  -15.0920 O   0  0  0  0  0  0  0  0  0  0  0  0
   21.3205  -10.8911  -15.4258 N   0  0  0  0  0  0  0  0  0  0  0  0
   22.4093  -11.6203  -16.0251 C   0  0  0  0  0  0  0  0  0  0  0  0
   23.6931  -11.0199  -15.4998 C   0  0  0  0  0  0  0  0  0  0  0  0
   23.2592  -10.4399  -14.1653 C   0  0  0  0  0  0  0  0  0  0  0  0
   21.8664   -9.9339  -14.5233 C   0  0  1  0  0  0  0  0  0  0  0  0
   22.0860   -8.5985  -15.1446 C   0  0  0  0  0  0  0  0  0  0  0  0
   22.0075   -8.5493  -16.3989 O   0  0  0  0  0  0  0  0  0  0  0  0
   20.7673   -3.5361  -15.3502 N   0  0  0  0  0  0  0  0  0  0  0  0
   19.9365   -4.6961  -15.3504 C   0  0  0  0  0  0  0  0  0  0  0  0
   18.7239   -4.4974  -15.5959 O   0  0  0  0  0  0  0  0  0  0  0  0
   20.4801   -6.0371  -15.0787 C   0  0  0  0  0  0  0  0  0  0  0  0
   21.9565   -6.0803  -14.8399 C   0  0  2  0  0  0  0  0  0  0  0  0
   22.3651   -7.4320  -14.4284 N   0  0  0  0  0  0  0  0  0  0  0  0
   22.4149   -5.1289  -13.7845 C   0  0  0  0  0  0  0  0  0  0  0  0
   22.1434   -5.2299  -12.4453 O   0  0  0  0  0  0  0  0  0  0  0  0
   23.1216   -4.1412  -14.1960 O   0  0  0  0  0  0  0  0  0  0  0  0
  2  3  2  0
  2  1  1  0
  4  2  1  0
  5  6  1  1
  5  4  1  0
  7  5  1  0
  8  7  2  0
  9 13  1  0
  9  7  1  0
 10 11  1  0
 10  9  1  0
 11 12  1  0
 12 13  1  0
 14 15  2  0
 13 14  1  6
 16 17  1  0
 17 18  2  0
 17 19  1  0
 20 19  1  1
 20 21  1  0
 20 22  1  0
 21 14  1  0
 22 23  1  0
 24 22  2  0
M  END
$$$$
