NPN.pdb
     RDKit          3D

 24 24  0  0  1  0  0  0  0  0999 V2000
   29.2997  -18.4642  -15.7110 N   0  0  0  0  0  0  0  0  0  0  0  0
   28.1297  -18.7355  -16.4558 C   0  0  0  0  0  0  0  0  0  0  0  0
   28.1225  -18.4576  -17.6888 O   0  0  0  0  0  0  0  0  0  0  0  0
   26.8933  -19.3289  -15.8961 C   0  0  0  0  0  0  0  0  0  0  0  0
   27.2508  -20.6805  -15.2658 C   0  0  2  0  0  0  0  0  0  0  0  0
   27.7800  -21.5815  -16.2421 N   0  0  0  0  0  0  0  0  0  0  0  0
   26.0781  -21.2375  -14.5506 C   0  0  0  0  0  0  0  0  0  0  0  0
   25.2844  -21.9173  -15.2981 O   0  0  0  0  0  0  0  0  0  0  0  0
   25.8033  -21.0721  -13.1786 N   0  0  0  0  0  0  0  0  0  0  0  0
   26.6504  -20.3832  -12.2383 C   0  0  0  0  0  0  0  0  0  0  0  0
   25.9363  -20.3869  -10.9062 C   0  0  0  0  0  0  0  0  0  0  0  0
   25.0551  -21.6189  -11.0124 C   0  0  0  0  0  0  0  0  0  0  0  0
   24.6554  -21.5473  -12.4818 C   0  0  1  0  0  0  0  0  0  0  0  0
   23.5070  -20.6004  -12.5263 C   0  0  0  0  0  0  0  0  0  0  0  0
   23.7962  -19.3768  -12.5569 O   0  0  0  0  0  0  0  0  0  0  0  0
   20.8864  -18.7028  -16.6897 N   0  0  0  0  0  0  0  0  0  0  0  0
   20.4888  -19.4993  -15.5746 C   0  0  0  0  0  0  0  0  0  0  0  0
   19.2554  -19.5645  -15.3642 O   0  0  0  0  0  0  0  0  0  0  0  0
   21.4740  -20.1966  -14.7315 C   0  0  0  0  0  0  0  0  0  0  0  0
   21.1019  -20.3019  -13.2861 C   0  0  2  0  0  0  0  0  0  0  0  0
   22.1651  -20.9886  -12.5368 N   0  0  0  0  0  0  0  0  0  0  0  0
   19.8305  -21.0495  -13.0539 C   0  0  0  0  0  0  0  0  0  0  0  0
   18.6308  -20.4935  -12.6949 O   0  0  0  0  0  0  0  0  0  0  0  0
   19.8970  -22.3205  -13.2106 O   0  0  0  0  0  0  0  0  0  0  0  0
  2  3  2  0
  2  1  1  0
  4  2  1  0
  5  6  1  6
  5  4  1  0
  7  5  1  0
  8  7  2  0
  9 13  1  0
  9  7  1  0
 10 11  1  0
 10  9  1  0
 11 12  1  0
 12 13  1  0
 14 15  2  0
 13 14  1  1
 16 17  1  0
 17 18  2  0
 17 19  1  0
 20 19  1  6
 20 21  1  0
 20 22  1  0
 21 14  1  0
 22 23  1  0
 24 22  2  0
M  END
$$$$
