DDP.pdb
     RDKit          3D

 24 24  0  0  1  0  0  0  0  0999 V2000
    9.2133  -15.5692   20.0437 N   0  0  0  0  0  0  0  0  0  0  0  0
    8.5430  -14.3521   20.3924 C   0  0  1  0  0  0  0  0  0  0  0  0
    7.6357  -13.9236   19.2489 C   0  0  0  0  0  0  0  0  0  0  0  0
    8.3384  -13.9989   17.9513 C   0  0  0  0  0  0  0  0  0  0  0  0
    9.5246  -14.4111   17.9077 O   0  0  0  0  0  0  0  0  0  0  0  0
    7.6798  -14.5892   21.6000 C   0  0  0  0  0  0  0  0  0  0  0  0
    6.6151  -13.9638   21.7725 O   0  0  0  0  0  0  0  0  0  0  0  0
    7.7259  -13.6270   16.7736 O   0  0  0  0  0  0  0  0  0  0  0  0
    8.0813  -15.5367   22.5570 N   0  0  0  0  0  0  0  0  0  0  0  0
    7.3479  -15.7578   23.8158 C   0  0  1  0  0  0  0  0  0  0  0  0
    7.4721  -17.2593   24.0612 C   0  0  0  0  0  0  0  0  0  0  0  0
    6.8664  -17.6734   25.3421 C   0  0  0  0  0  0  0  0  0  0  0  0
    7.6143  -18.1019   26.2501 O   0  0  0  0  0  0  0  0  0  0  0  0
    8.1164  -15.0783   24.8883 C   0  0  0  0  0  0  0  0  0  0  0  0
    9.3417  -15.4023   25.0441 O   0  0  0  0  0  0  0  0  0  0  0  0
    5.5078  -17.6139   25.5966 O   0  0  0  0  0  0  0  0  0  0  0  0
    7.5825  -14.0842   25.7586 N   0  0  0  0  0  0  0  0  0  0  0  0
    6.2198  -13.6126   25.6877 C   0  0  0  0  0  0  0  0  0  0  0  0
    6.2799  -12.2230   26.3295 C   0  0  0  0  0  0  0  0  0  0  0  0
    7.2397  -12.5466   27.4852 C   0  0  0  0  0  0  0  0  0  0  0  0
    8.2646  -13.3871   26.7886 C   0  0  1  0  0  0  0  0  0  0  0  0
    8.9946  -14.2797   27.7232 C   0  0  0  0  0  0  0  0  0  0  0  0
    8.8267  -15.6515   27.7921 O   0  0  0  0  0  0  0  0  0  0  0  0
    9.8214  -13.7468   28.5045 O   0  0  0  0  0  0  0  0  0  0  0  0
  2  1  1  6
  3  2  1  0
  3  4  1  0
  4  8  1  0
  5  4  2  0
  6  7  2  0
  6  2  1  0
  9  6  1  0
 10 14  1  0
 10  9  1  0
 10 11  1  1
 12 16  1  0
 12 11  1  0
 13 12  2  0
 14 17  1  0
 15 14  2  0
 17 21  1  0
 17 18  1  0
 18 19  1  0
 20 19  1  0
 21 20  1  0
 21 22  1  1
 22 24  2  0
 22 23  1  0
M  END
$$$$
