DDP.pdb
     RDKit          3D

 24 24  0  0  1  0  0  0  0  0999 V2000
    7.7977  -15.9937   19.5181 N   0  0  0  0  0  0  0  0  0  0  0  0
    8.3587  -15.0005   20.3847 C   0  0  1  0  0  0  0  0  0  0  0  0
    8.3125  -13.6421   19.7012 C   0  0  0  0  0  0  0  0  0  0  0  0
    9.3528  -13.5325   18.6577 C   0  0  0  0  0  0  0  0  0  0  0  0
   10.5217  -13.9254   18.8990 O   0  0  0  0  0  0  0  0  0  0  0  0
    7.5340  -14.9126   21.6384 C   0  0  0  0  0  0  0  0  0  0  0  0
    6.3629  -14.4853   21.6189 O   0  0  0  0  0  0  0  0  0  0  0  0
    9.0776  -13.0070   17.4134 O   0  0  0  0  0  0  0  0  0  0  0  0
    8.0949  -15.3208   22.8605 N   0  0  0  0  0  0  0  0  0  0  0  0
    7.3166  -15.3933   24.1096 C   0  0  1  0  0  0  0  0  0  0  0  0
    7.3010  -16.8803   24.4538 C   0  0  0  0  0  0  0  0  0  0  0  0
    6.3610  -17.6446   23.6104 C   0  0  0  0  0  0  0  0  0  0  0  0
    5.1483  -17.3341   23.6281 O   0  0  0  0  0  0  0  0  0  0  0  0
    8.1181  -14.7141   25.1579 C   0  0  0  0  0  0  0  0  0  0  0  0
    9.3619  -14.9928   25.2351 O   0  0  0  0  0  0  0  0  0  0  0  0
    6.7489  -18.6932   22.7953 O   0  0  0  0  0  0  0  0  0  0  0  0
    7.5967  -13.7675   26.0867 N   0  0  0  0  0  0  0  0  0  0  0  0
    6.3054  -13.1380   25.9419 C   0  0  0  0  0  0  0  0  0  0  0  0
    6.4368  -11.8436   26.7506 C   0  0  0  0  0  0  0  0  0  0  0  0
    7.2260  -12.4004   27.9458 C   0  0  0  0  0  0  0  0  0  0  0  0
    8.2296  -13.2708   27.2549 C   0  0  1  0  0  0  0  0  0  0  0  0
    8.7574  -14.3387   28.1405 C   0  0  0  0  0  0  0  0  0  0  0  0
    9.6767  -14.1355   29.1545 O   0  0  0  0  0  0  0  0  0  0  0  0
    8.3367  -15.5071   27.9513 O   0  0  0  0  0  0  0  0  0  0  0  0
  2  1  1  6
  3  2  1  0
  3  4  1  0
  4  8  1  0
  5  4  2  0
  6  7  2  0
  6  2  1  0
  9  6  1  0
 10 14  1  0
 10  9  1  0
 10 11  1  1
 12 16  1  0
 12 11  1  0
 13 12  2  0
 14 17  1  0
 15 14  2  0
 17 21  1  0
 17 18  1  0
 18 19  1  0
 20 19  1  0
 21 20  1  0
 21 22  1  1
 22 24  2  0
 22 23  1  0
M  END
$$$$
