DDP.pdb
     RDKit          3D

 24 24  0  0  1  0  0  0  0  0999 V2000
    9.2061  -15.3397   19.7058 N   0  0  0  0  0  0  0  0  0  0  0  0
    8.8588  -14.0680   20.2665 C   0  0  1  0  0  0  0  0  0  0  0  0
    8.1105  -13.2414   19.2315 C   0  0  0  0  0  0  0  0  0  0  0  0
    8.0706  -13.9294   17.9245 C   0  0  0  0  0  0  0  0  0  0  0  0
    8.6513  -15.0347   17.7838 O   0  0  0  0  0  0  0  0  0  0  0  0
    7.9414  -14.2764   21.4390 C   0  0  0  0  0  0  0  0  0  0  0  0
    6.7655  -13.8621   21.4276 O   0  0  0  0  0  0  0  0  0  0  0  0
    7.4082  -13.3901   16.8425 O   0  0  0  0  0  0  0  0  0  0  0  0
    8.4192  -14.9529   22.5743 N   0  0  0  0  0  0  0  0  0  0  0  0
    7.5821  -15.2105   23.7593 C   0  0  1  0  0  0  0  0  0  0  0  0
    7.7043  -16.7156   23.9823 C   0  0  0  0  0  0  0  0  0  0  0  0
    6.9265  -17.4964   23.0001 C   0  0  0  0  0  0  0  0  0  0  0  0
    5.7074  -17.6858   23.2123 O   0  0  0  0  0  0  0  0  0  0  0  0
    8.2452  -14.5467   24.9091 C   0  0  0  0  0  0  0  0  0  0  0  0
    9.4923  -14.7582   25.0847 O   0  0  0  0  0  0  0  0  0  0  0  0
    7.4746  -18.0345   21.8493 O   0  0  0  0  0  0  0  0  0  0  0  0
    7.5871  -13.6847   25.8334 N   0  0  0  0  0  0  0  0  0  0  0  0
    6.2852  -13.1076   25.5958 C   0  0  0  0  0  0  0  0  0  0  0  0
    6.2695  -11.8613   26.4864 C   0  0  0  0  0  0  0  0  0  0  0  0
    6.9661  -12.4544   27.7211 C   0  0  0  0  0  0  0  0  0  0  0  0
    8.0762  -13.2330   27.0859 C   0  0  1  0  0  0  0  0  0  0  0  0
    8.5699  -14.3284   27.9575 C   0  0  0  0  0  0  0  0  0  0  0  0
    8.3068  -15.6718   27.7562 O   0  0  0  0  0  0  0  0  0  0  0  0
    9.2755  -14.0072   28.9459 O   0  0  0  0  0  0  0  0  0  0  0  0
  2  1  1  6
  3  2  1  0
  3  4  1  0
  4  8  1  0
  5  4  2  0
  6  7  2  0
  6  2  1  0
  9  6  1  0
 10 14  1  0
 10  9  1  0
 10 11  1  1
 12 16  1  0
 12 11  1  0
 13 12  2  0
 14 17  1  0
 15 14  2  0
 17 21  1  0
 17 18  1  0
 18 19  1  0
 20 19  1  0
 21 20  1  0
 21 22  1  1
 22 24  2  0
 22 23  1  0
M  END
$$$$
