DDP.pdb
     RDKit          3D

 24 24  0  0  1  0  0  0  0  0999 V2000
    9.3684  -16.7270   19.7336 N   0  0  0  0  0  0  0  0  0  0  0  0
   10.0505  -16.5421   20.9797 C   0  0  1  0  0  0  0  0  0  0  0  0
   11.1316  -15.4842   20.8174 C   0  0  0  0  0  0  0  0  0  0  0  0
   12.3446  -16.0503   20.1919 C   0  0  0  0  0  0  0  0  0  0  0  0
   12.8356  -17.1177   20.6375 O   0  0  0  0  0  0  0  0  0  0  0  0
    9.0749  -16.0480   22.0111 C   0  0  0  0  0  0  0  0  0  0  0  0
    8.3000  -15.1006   21.7734 O   0  0  0  0  0  0  0  0  0  0  0  0
   12.9612  -15.4371   19.1222 O   0  0  0  0  0  0  0  0  0  0  0  0
    9.0347  -16.6671   23.2720 N   0  0  0  0  0  0  0  0  0  0  0  0
    8.0177  -16.3415   24.2873 C   0  0  1  0  0  0  0  0  0  0  0  0
    7.5664  -17.7017   24.8129 C   0  0  0  0  0  0  0  0  0  0  0  0
    6.5477  -17.5864   25.8749 C   0  0  0  0  0  0  0  0  0  0  0  0
    6.0551  -16.4609   26.1160 O   0  0  0  0  0  0  0  0  0  0  0  0
    8.7223  -15.6587   25.4008 C   0  0  0  0  0  0  0  0  0  0  0  0
    9.7843  -16.1999   25.8587 O   0  0  0  0  0  0  0  0  0  0  0  0
    6.1038  -18.6613   26.6245 O   0  0  0  0  0  0  0  0  0  0  0  0
    8.2974  -14.4357   25.9961 N   0  0  0  0  0  0  0  0  0  0  0  0
    7.2259  -13.6238   25.4695 C   0  0  0  0  0  0  0  0  0  0  0  0
    7.5271  -12.2235   26.0126 C   0  0  0  0  0  0  0  0  0  0  0  0
    7.9707  -12.6189   27.4298 C   0  0  0  0  0  0  0  0  0  0  0  0
    8.8394  -13.8048   27.1451 C   0  0  1  0  0  0  0  0  0  0  0  0
    8.9614  -14.7107   28.3145 C   0  0  0  0  0  0  0  0  0  0  0  0
    9.6418  -14.4028   29.4794 O   0  0  0  0  0  0  0  0  0  0  0  0
    8.4061  -15.8347   28.2355 O   0  0  0  0  0  0  0  0  0  0  0  0
  2  1  1  6
  3  2  1  0
  3  4  1  0
  4  8  1  0
  5  4  2  0
  6  7  2  0
  6  2  1  0
  9  6  1  0
 10 14  1  0
 10  9  1  0
 10 11  1  1
 12 16  1  0
 12 11  1  0
 13 12  2  0
 14 17  1  0
 15 14  2  0
 17 21  1  0
 17 18  1  0
 18 19  1  0
 20 19  1  0
 21 20  1  0
 21 22  1  1
 22 24  2  0
 22 23  1  0
M  END
$$$$
