DDP.pdb
     RDKit          3D

 24 24  0  0  1  0  0  0  0  0999 V2000
    9.3113  -16.8622   20.6620 N   0  0  0  0  0  0  0  0  0  0  0  0
    8.6917  -15.5783   20.5215 C   0  0  1  0  0  0  0  0  0  0  0  0
    7.8137  -15.5687   19.2791 C   0  0  0  0  0  0  0  0  0  0  0  0
    8.5737  -15.9889   18.0837 C   0  0  0  0  0  0  0  0  0  0  0  0
    9.7783  -16.3276   18.1979 O   0  0  0  0  0  0  0  0  0  0  0  0
    7.8086  -15.3206   21.7104 C   0  0  0  0  0  0  0  0  0  0  0  0
    6.9543  -14.4124   21.7025 O   0  0  0  0  0  0  0  0  0  0  0  0
    7.9955  -16.0216   16.8327 O   0  0  0  0  0  0  0  0  0  0  0  0
    7.9484  -16.1206   22.8572 N   0  0  0  0  0  0  0  0  0  0  0  0
    7.1899  -15.8760   24.0966 C   0  0  1  0  0  0  0  0  0  0  0  0
    7.0379  -17.2609   24.7204 C   0  0  0  0  0  0  0  0  0  0  0  0
    5.9081  -18.0174   24.1456 C   0  0  0  0  0  0  0  0  0  0  0  0
    5.9171  -19.2666   24.2278 O   0  0  0  0  0  0  0  0  0  0  0  0
    8.0721  -15.0904   24.9950 C   0  0  0  0  0  0  0  0  0  0  0  0
    9.3009  -15.4290   25.0735 O   0  0  0  0  0  0  0  0  0  0  0  0
    4.8317  -17.4179   23.5161 O   0  0  0  0  0  0  0  0  0  0  0  0
    7.6442  -13.9791   25.7776 N   0  0  0  0  0  0  0  0  0  0  0  0
    6.3296  -13.3911   25.6737 C   0  0  0  0  0  0  0  0  0  0  0  0
    6.5262  -11.9624   26.1902 C   0  0  0  0  0  0  0  0  0  0  0  0
    7.4686  -12.2717   27.3640 C   0  0  0  0  0  0  0  0  0  0  0  0
    8.4020  -13.2611   26.7379 C   0  0  1  0  0  0  0  0  0  0  0  0
    9.0601  -14.1327   27.7431 C   0  0  0  0  0  0  0  0  0  0  0  0
   10.0917  -13.7333   28.5743 O   0  0  0  0  0  0  0  0  0  0  0  0
    8.6476  -15.3151   27.8416 O   0  0  0  0  0  0  0  0  0  0  0  0
  2  1  1  1
  3  2  1  0
  3  4  1  0
  4  8  1  0
  5  4  2  0
  6  7  2  0
  6  2  1  0
  9  6  1  0
 10 14  1  0
 10  9  1  0
 10 11  1  1
 12 16  1  0
 12 11  1  0
 13 12  2  0
 14 17  1  0
 15 14  2  0
 17 21  1  0
 17 18  1  0
 18 19  1  0
 20 19  1  0
 21 20  1  0
 21 22  1  1
 22 24  2  0
 22 23  1  0
M  END
$$$$
