DDP.pdb
     RDKit          3D

 24 24  0  0  1  0  0  0  0  0999 V2000
   11.0798  -17.9238   14.0534 N   0  0  0  0  0  0  0  0  0  0  0  0
   11.4898  -17.2981   15.2750 C   0  0  1  0  0  0  0  0  0  0  0  0
   12.4885  -16.1914   14.9713 C   0  0  0  0  0  0  0  0  0  0  0  0
   13.7982  -16.7472   14.5725 C   0  0  0  0  0  0  0  0  0  0  0  0
   14.1891  -16.6309   13.3841 O   0  0  0  0  0  0  0  0  0  0  0  0
   10.2949  -16.6702   15.9365 C   0  0  0  0  0  0  0  0  0  0  0  0
    9.5894  -15.8298   15.3444 O   0  0  0  0  0  0  0  0  0  0  0  0
   14.6139  -17.3965   15.4744 O   0  0  0  0  0  0  0  0  0  0  0  0
    9.9648  -17.0377   17.2521 N   0  0  0  0  0  0  0  0  0  0  0  0
    8.7648  -16.5337   17.9429 C   0  0  1  0  0  0  0  0  0  0  0  0
    8.1206  -17.7854   18.5329 C   0  0  0  0  0  0  0  0  0  0  0  0
    7.3648  -18.5581   17.5275 C   0  0  0  0  0  0  0  0  0  0  0  0
    6.7885  -17.9407   16.6033 O   0  0  0  0  0  0  0  0  0  0  0  0
    9.2372  -15.7104   19.0839 C   0  0  0  0  0  0  0  0  0  0  0  0
   10.2453  -16.1284   19.7470 O   0  0  0  0  0  0  0  0  0  0  0  0
    7.2571  -19.9373   17.5502 O   0  0  0  0  0  0  0  0  0  0  0  0
    8.6447  -14.4804   19.4922 N   0  0  0  0  0  0  0  0  0  0  0  0
    7.5695  -13.8375   18.7744 C   0  0  0  0  0  0  0  0  0  0  0  0
    7.6862  -12.3656   19.1823 C   0  0  0  0  0  0  0  0  0  0  0  0
    8.0066  -12.5663   20.6719 C   0  0  0  0  0  0  0  0  0  0  0  0
    9.0016  -13.6835   20.6100 C   0  0  1  0  0  0  0  0  0  0  0  0
    9.0751  -14.4468   21.8808 C   0  0  0  0  0  0  0  0  0  0  0  0
    9.7288  -14.0138   23.0209 O   0  0  0  0  0  0  0  0  0  0  0  0
    8.5021  -15.5641   21.9180 O   0  0  0  0  0  0  0  0  0  0  0  0
  2  1  1  6
  3  2  1  0
  3  4  1  0
  4  8  1  0
  5  4  2  0
  6  7  2  0
  6  2  1  0
  9  6  1  0
 10 14  1  0
 10  9  1  0
 10 11  1  1
 12 16  1  0
 12 11  1  0
 13 12  2  0
 14 17  1  0
 15 14  2  0
 17 21  1  0
 17 18  1  0
 18 19  1  0
 20 19  1  0
 21 20  1  0
 21 22  1  1
 22 24  2  0
 22 23  1  0
M  END
$$$$
