DDP.pdb
     RDKit          3D

 24 24  0  0  1  0  0  0  0  0999 V2000
    7.9792  -17.4912   20.0550 N   0  0  0  0  0  0  0  0  0  0  0  0
    8.3488  -16.1870   20.5183 C   0  0  1  0  0  0  0  0  0  0  0  0
    8.0723  -15.1614   19.4292 C   0  0  0  0  0  0  0  0  0  0  0  0
    8.9936  -15.3326   18.2867 C   0  0  0  0  0  0  0  0  0  0  0  0
    9.9867  -16.0947   18.3954 O   0  0  0  0  0  0  0  0  0  0  0  0
    7.5087  -15.8277   21.7120 C   0  0  0  0  0  0  0  0  0  0  0  0
    6.3841  -15.3050   21.5833 O   0  0  0  0  0  0  0  0  0  0  0  0
    8.7949  -14.6750   17.0916 O   0  0  0  0  0  0  0  0  0  0  0  0
    8.0013  -16.0861   23.0025 N   0  0  0  0  0  0  0  0  0  0  0  0
    7.2012  -15.8645   24.2199 C   0  0  1  0  0  0  0  0  0  0  0  0
    7.0164  -17.2623   24.8044 C   0  0  0  0  0  0  0  0  0  0  0  0
    6.1299  -18.1061   23.9791 C   0  0  0  0  0  0  0  0  0  0  0  0
    6.6014  -19.1405   23.4546 O   0  0  0  0  0  0  0  0  0  0  0  0
    8.0572  -15.1081   25.1674 C   0  0  0  0  0  0  0  0  0  0  0  0
    9.2842  -15.4473   25.2675 O   0  0  0  0  0  0  0  0  0  0  0  0
    4.7966  -17.8149   23.7511 O   0  0  0  0  0  0  0  0  0  0  0  0
    7.6058  -14.0243   25.9750 N   0  0  0  0  0  0  0  0  0  0  0  0
    6.2765  -13.4673   25.8895 C   0  0  0  0  0  0  0  0  0  0  0  0
    6.4402  -12.0451   26.4348 C   0  0  0  0  0  0  0  0  0  0  0  0
    7.3959  -12.3551   27.5975 C   0  0  0  0  0  0  0  0  0  0  0  0
    8.3504  -13.3078   26.9467 C   0  0  1  0  0  0  0  0  0  0  0  0
    9.0351  -14.1833   27.9304 C   0  0  0  0  0  0  0  0  0  0  0  0
    8.8058  -15.5410   28.0672 O   0  0  0  0  0  0  0  0  0  0  0  0
    9.8810  -13.6487   28.6898 O   0  0  0  0  0  0  0  0  0  0  0  0
  2  1  1  6
  3  2  1  0
  3  4  1  0
  4  8  1  0
  5  4  2  0
  6  7  2  0
  6  2  1  0
  9  6  1  0
 10 14  1  0
 10  9  1  0
 10 11  1  1
 12 16  1  0
 12 11  1  0
 13 12  2  0
 14 17  1  0
 15 14  2  0
 17 21  1  0
 17 18  1  0
 18 19  1  0
 20 19  1  0
 21 20  1  0
 21 22  1  1
 22 24  2  0
 22 23  1  0
M  END
$$$$
