DDP.pdb
     RDKit          3D

 24 24  0  0  1  0  0  0  0  0999 V2000
    9.4982  -16.2674   20.0387 N   0  0  0  0  0  0  0  0  0  0  0  0
    8.6984  -15.0867   20.1744 C   0  0  1  0  0  0  0  0  0  0  0  0
    7.8328  -14.9116   18.9357 C   0  0  0  0  0  0  0  0  0  0  0  0
    8.5467  -15.3484   17.7180 C   0  0  0  0  0  0  0  0  0  0  0  0
    9.7313  -15.7584   17.8031 O   0  0  0  0  0  0  0  0  0  0  0  0
    7.7831  -15.2404   21.3569 C   0  0  0  0  0  0  0  0  0  0  0  0
    6.5456  -15.1444   21.2394 O   0  0  0  0  0  0  0  0  0  0  0  0
    7.9463  -15.3201   16.4774 O   0  0  0  0  0  0  0  0  0  0  0  0
    8.3337  -15.4977   22.6239 N   0  0  0  0  0  0  0  0  0  0  0  0
    7.5087  -15.6484   23.8355 C   0  0  1  0  0  0  0  0  0  0  0  0
    7.6206  -17.1310   24.1811 C   0  0  0  0  0  0  0  0  0  0  0  0
    7.0123  -17.4532   25.4869 C   0  0  0  0  0  0  0  0  0  0  0  0
    5.7646  -17.4379   25.5893 O   0  0  0  0  0  0  0  0  0  0  0  0
    8.1913  -14.8981   24.9189 C   0  0  0  0  0  0  0  0  0  0  0  0
    9.4196  -15.1619   25.1478 O   0  0  0  0  0  0  0  0  0  0  0  0
    7.7502  -17.7735   26.6126 O   0  0  0  0  0  0  0  0  0  0  0  0
    7.5716  -13.8985   25.7235 N   0  0  0  0  0  0  0  0  0  0  0  0
    6.2601  -13.3588   25.4530 C   0  0  0  0  0  0  0  0  0  0  0  0
    6.2803  -11.9884   26.1373 C   0  0  0  0  0  0  0  0  0  0  0  0
    7.0291  -12.3846   27.4195 C   0  0  0  0  0  0  0  0  0  0  0  0
    8.1124  -13.2589   26.8682 C   0  0  1  0  0  0  0  0  0  0  0  0
    8.6438  -14.2070   27.8792 C   0  0  0  0  0  0  0  0  0  0  0  0
    9.4682  -13.8521   28.9323 O   0  0  0  0  0  0  0  0  0  0  0  0
    8.3193  -15.4152   27.7655 O   0  0  0  0  0  0  0  0  0  0  0  0
  2  1  1  6
  3  2  1  0
  3  4  1  0
  4  8  1  0
  5  4  2  0
  6  7  2  0
  6  2  1  0
  9  6  1  0
 10 14  1  0
 10  9  1  0
 10 11  1  1
 12 16  1  0
 12 11  1  0
 13 12  2  0
 14 17  1  0
 15 14  2  0
 17 21  1  0
 17 18  1  0
 18 19  1  0
 20 19  1  0
 21 20  1  0
 21 22  1  1
 22 24  2  0
 22 23  1  0
M  END
$$$$
