DDP.pdb
     RDKit          3D

 24 24  0  0  1  0  0  0  0  0999 V2000
    6.8031  -15.8269   19.6177 N   0  0  0  0  0  0  0  0  0  0  0  0
    7.6150  -14.9906   20.4505 C   0  0  1  0  0  0  0  0  0  0  0  0
    7.5823  -13.5628   19.9264 C   0  0  0  0  0  0  0  0  0  0  0  0
    8.3702  -13.4311   18.6833 C   0  0  0  0  0  0  0  0  0  0  0  0
    9.0131  -14.4177   18.2451 O   0  0  0  0  0  0  0  0  0  0  0  0
    7.0519  -14.9816   21.8443 C   0  0  0  0  0  0  0  0  0  0  0  0
    5.9556  -14.4458   22.1003 O   0  0  0  0  0  0  0  0  0  0  0  0
    8.4220  -12.2459   17.9812 O   0  0  0  0  0  0  0  0  0  0  0  0
    7.7768  -15.5903   22.8829 N   0  0  0  0  0  0  0  0  0  0  0  0
    7.2049  -15.8302   24.2195 C   0  0  1  0  0  0  0  0  0  0  0  0
    7.3661  -17.3334   24.4300 C   0  0  0  0  0  0  0  0  0  0  0  0
    6.8032  -17.7863   25.7174 C   0  0  0  0  0  0  0  0  0  0  0  0
    7.3375  -18.7578   26.2988 O   0  0  0  0  0  0  0  0  0  0  0  0
    8.0958  -15.1575   25.1975 C   0  0  0  0  0  0  0  0  0  0  0  0
    9.3486  -15.3952   25.1283 O   0  0  0  0  0  0  0  0  0  0  0  0
    5.7095  -17.1921   26.3215 O   0  0  0  0  0  0  0  0  0  0  0  0
    7.6510  -14.2598   26.2108 N   0  0  0  0  0  0  0  0  0  0  0  0
    6.2705  -13.8735   26.3824 C   0  0  0  0  0  0  0  0  0  0  0  0
    6.3548  -12.5285   27.1105 C   0  0  0  0  0  0  0  0  0  0  0  0
    7.4985  -12.8652   28.0802 C   0  0  0  0  0  0  0  0  0  0  0  0
    8.4463  -13.5898   27.1754 C   0  0  1  0  0  0  0  0  0  0  0  0
    9.3594  -14.4933   27.9192 C   0  0  0  0  0  0  0  0  0  0  0  0
   10.3715  -14.0680   28.7615 O   0  0  0  0  0  0  0  0  0  0  0  0
    9.1976  -15.7300   27.7693 O   0  0  0  0  0  0  0  0  0  0  0  0
  2  1  1  6
  3  2  1  0
  3  4  1  0
  4  8  1  0
  5  4  2  0
  6  7  2  0
  6  2  1  0
  9  6  1  0
 10 14  1  0
 10  9  1  0
 10 11  1  1
 12 16  1  0
 12 11  1  0
 13 12  2  0
 14 17  1  0
 15 14  2  0
 17 21  1  0
 17 18  1  0
 18 19  1  0
 20 19  1  0
 21 20  1  0
 21 22  1  1
 22 24  2  0
 22 23  1  0
M  END
$$$$
