DDP.pdb
     RDKit          3D

 24 24  0  0  1  0  0  0  0  0999 V2000
    7.6455  -13.8723   18.8955 N   0  0  0  0  0  0  0  0  0  0  0  0
    8.6135  -14.3143   19.8546 C   0  0  1  0  0  0  0  0  0  0  0  0
    9.8018  -13.3645   19.8551 C   0  0  0  0  0  0  0  0  0  0  0  0
   10.9508  -13.9455   20.5800 C   0  0  0  0  0  0  0  0  0  0  0  0
   11.0838  -15.1935   20.6397 O   0  0  0  0  0  0  0  0  0  0  0  0
    8.0012  -14.2853   21.2272 C   0  0  0  0  0  0  0  0  0  0  0  0
    7.4055  -13.2763   21.6534 O   0  0  0  0  0  0  0  0  0  0  0  0
   11.8923  -13.1517   21.1996 O   0  0  0  0  0  0  0  0  0  0  0  0
    8.1023  -15.4204   22.0495 N   0  0  0  0  0  0  0  0  0  0  0  0
    7.3114  -15.5844   23.2819 C   0  0  1  0  0  0  0  0  0  0  0  0
    7.2204  -17.0967   23.4683 C   0  0  0  0  0  0  0  0  0  0  0  0
    6.4888  -17.4708   24.6947 C   0  0  0  0  0  0  0  0  0  0  0  0
    7.1342  -17.9350   25.6618 O   0  0  0  0  0  0  0  0  0  0  0  0
    8.1367  -15.0590   24.3979 C   0  0  0  0  0  0  0  0  0  0  0  0
    9.3543  -15.4369   24.4715 O   0  0  0  0  0  0  0  0  0  0  0  0
    5.1190  -17.3361   24.8354 O   0  0  0  0  0  0  0  0  0  0  0  0
    7.6657  -14.1574   25.3958 N   0  0  0  0  0  0  0  0  0  0  0  0
    6.3183  -13.6399   25.4293 C   0  0  0  0  0  0  0  0  0  0  0  0
    6.4466  -12.3368   26.2244 C   0  0  0  0  0  0  0  0  0  0  0  0
    7.4321  -12.8215   27.2993 C   0  0  0  0  0  0  0  0  0  0  0  0
    8.4044  -13.6057   26.4737 C   0  0  1  0  0  0  0  0  0  0  0  0
    9.1336  -14.6226   27.2721 C   0  0  0  0  0  0  0  0  0  0  0  0
   10.1696  -14.3412   28.1452 O   0  0  0  0  0  0  0  0  0  0  0  0
    8.7814  -15.8214   27.1417 O   0  0  0  0  0  0  0  0  0  0  0  0
  2  1  1  6
  3  2  1  0
  3  4  1  0
  4  8  1  0
  5  4  2  0
  6  7  2  0
  6  2  1  0
  9  6  1  0
 10 14  1  0
 10  9  1  0
 10 11  1  1
 12 16  1  0
 12 11  1  0
 13 12  2  0
 14 17  1  0
 15 14  2  0
 17 21  1  0
 17 18  1  0
 18 19  1  0
 20 19  1  0
 21 20  1  0
 21 22  1  1
 22 24  2  0
 22 23  1  0
M  END
$$$$
