DDP.pdb
     RDKit          3D

 24 24  0  0  1  0  0  0  0  0999 V2000
    7.1396  -16.0982   19.5138 N   0  0  0  0  0  0  0  0  0  0  0  0
    7.9024  -15.2727   20.4019 C   0  0  1  0  0  0  0  0  0  0  0  0
    7.8836  -13.8350   19.9049 C   0  0  0  0  0  0  0  0  0  0  0  0
    8.7230  -13.6746   18.6995 C   0  0  0  0  0  0  0  0  0  0  0  0
    8.3090  -12.9774   17.7397 O   0  0  0  0  0  0  0  0  0  0  0  0
    7.2713  -15.2958   21.7661 C   0  0  0  0  0  0  0  0  0  0  0  0
    6.1071  -14.8902   21.9520 O   0  0  0  0  0  0  0  0  0  0  0  0
    9.9605  -14.2728   18.5942 O   0  0  0  0  0  0  0  0  0  0  0  0
    8.0095  -15.7851   22.8572 N   0  0  0  0  0  0  0  0  0  0  0  0
    7.4197  -15.9852   24.1926 C   0  0  1  0  0  0  0  0  0  0  0  0
    7.6532  -17.4650   24.4856 C   0  0  0  0  0  0  0  0  0  0  0  0
    7.2025  -17.8502   25.8375 C   0  0  0  0  0  0  0  0  0  0  0  0
    8.0370  -18.3373   26.6335 O   0  0  0  0  0  0  0  0  0  0  0  0
    8.2518  -15.2169   25.1517 C   0  0  0  0  0  0  0  0  0  0  0  0
    9.4885  -15.5199   25.2480 O   0  0  0  0  0  0  0  0  0  0  0  0
    5.8990  -17.7018   26.2769 O   0  0  0  0  0  0  0  0  0  0  0  0
    7.7672  -14.1591   25.9745 N   0  0  0  0  0  0  0  0  0  0  0  0
    6.4836  -13.5261   25.7838 C   0  0  0  0  0  0  0  0  0  0  0  0
    6.6546  -12.1495   26.4335 C   0  0  0  0  0  0  0  0  0  0  0  0
    7.4611  -12.5788   27.6691 C   0  0  0  0  0  0  0  0  0  0  0  0
    8.4343  -13.5425   27.0638 C   0  0  1  0  0  0  0  0  0  0  0  0
    8.9641  -14.5103   28.0567 C   0  0  0  0  0  0  0  0  0  0  0  0
    8.6298  -15.8523   28.1017 O   0  0  0  0  0  0  0  0  0  0  0  0
    9.7721  -14.0748   28.9143 O   0  0  0  0  0  0  0  0  0  0  0  0
  2  1  1  6
  3  2  1  0
  3  4  1  0
  4  8  1  0
  5  4  2  0
  6  7  2  0
  6  2  1  0
  9  6  1  0
 10 14  1  0
 10  9  1  0
 10 11  1  1
 12 16  1  0
 12 11  1  0
 13 12  2  0
 14 17  1  0
 15 14  2  0
 17 21  1  0
 17 18  1  0
 18 19  1  0
 20 19  1  0
 21 20  1  0
 21 22  1  1
 22 24  2  0
 22 23  1  0
M  END
$$$$
