DDP.pdb
     RDKit          3D

 24 24  0  0  1  0  0  0  0  0999 V2000
   10.3394  -16.0784   15.3826 N   0  0  0  0  0  0  0  0  0  0  0  0
    9.0624  -15.4332   15.4537 C   0  0  1  0  0  0  0  0  0  0  0  0
    8.1865  -15.9071   14.3037 C   0  0  0  0  0  0  0  0  0  0  0  0
    8.8635  -15.7210   13.0036 C   0  0  0  0  0  0  0  0  0  0  0  0
    9.6112  -16.6256   12.5549 O   0  0  0  0  0  0  0  0  0  0  0  0
    8.3826  -15.8180   16.7381 C   0  0  0  0  0  0  0  0  0  0  0  0
    7.2338  -15.4184   17.0121 O   0  0  0  0  0  0  0  0  0  0  0  0
    8.6980  -14.5727   12.2590 O   0  0  0  0  0  0  0  0  0  0  0  0
    9.0565  -16.6467   17.6513 N   0  0  0  0  0  0  0  0  0  0  0  0
    8.5041  -16.9898   18.9736 C   0  0  1  0  0  0  0  0  0  0  0  0
    9.0338  -18.3952   19.2460 C   0  0  0  0  0  0  0  0  0  0  0  0
    8.5586  -18.9372   20.5342 C   0  0  0  0  0  0  0  0  0  0  0  0
    7.3261  -19.0566   20.7184 O   0  0  0  0  0  0  0  0  0  0  0  0
    9.1481  -16.0854   19.9585 C   0  0  0  0  0  0  0  0  0  0  0  0
   10.3576  -16.3258   20.2906 O   0  0  0  0  0  0  0  0  0  0  0  0
    9.4064  -19.3234   21.5572 O   0  0  0  0  0  0  0  0  0  0  0  0
    8.5110  -14.9620   20.5606 N   0  0  0  0  0  0  0  0  0  0  0  0
    7.2284  -14.4522   20.1367 C   0  0  0  0  0  0  0  0  0  0  0  0
    7.2452  -12.9914   20.5974 C   0  0  0  0  0  0  0  0  0  0  0  0
    7.9164  -13.1910   21.9653 C   0  0  0  0  0  0  0  0  0  0  0  0
    9.0062  -14.1577   21.6189 C   0  0  1  0  0  0  0  0  0  0  0  0
    9.4616  -14.9419   22.7940 C   0  0  0  0  0  0  0  0  0  0  0  0
    9.0381  -16.2244   23.0947 O   0  0  0  0  0  0  0  0  0  0  0  0
   10.2893  -14.3978   23.5665 O   0  0  0  0  0  0  0  0  0  0  0  0
  2  1  1  6
  3  2  1  0
  3  4  1  0
  4  8  1  0
  5  4  2  0
  6  7  2  0
  6  2  1  0
  9  6  1  0
 10 14  1  0
 10  9  1  0
 10 11  1  1
 12 16  1  0
 12 11  1  0
 13 12  2  0
 14 17  1  0
 15 14  2  0
 17 21  1  0
 17 18  1  0
 18 19  1  0
 20 19  1  0
 21 20  1  0
 21 22  1  1
 22 24  2  0
 22 23  1  0
M  END
$$$$
