DDP.pdb
     RDKit          3D

 24 24  0  0  1  0  0  0  0  0999 V2000
    9.3623  -17.2657   20.5674 N   0  0  0  0  0  0  0  0  0  0  0  0
    8.6975  -16.0079   20.3990 C   0  0  1  0  0  0  0  0  0  0  0  0
    7.8771  -16.0320   19.1181 C   0  0  0  0  0  0  0  0  0  0  0  0
    8.6939  -16.4708   17.9677 C   0  0  0  0  0  0  0  0  0  0  0  0
    9.4604  -15.6533   17.3993 O   0  0  0  0  0  0  0  0  0  0  0  0
    7.7517  -15.7888   21.5466 C   0  0  0  0  0  0  0  0  0  0  0  0
    6.5602  -15.4741   21.3576 O   0  0  0  0  0  0  0  0  0  0  0  0
    8.6409  -17.7641   17.4935 O   0  0  0  0  0  0  0  0  0  0  0  0
    8.2202  -15.9415   22.8627 N   0  0  0  0  0  0  0  0  0  0  0  0
    7.3539  -15.7681   24.0420 C   0  0  1  0  0  0  0  0  0  0  0  0
    7.2427  -17.1712   24.6328 C   0  0  0  0  0  0  0  0  0  0  0  0
    6.2885  -18.0206   23.8932 C   0  0  0  0  0  0  0  0  0  0  0  0
    5.0620  -17.8381   24.0656 O   0  0  0  0  0  0  0  0  0  0  0  0
    8.1119  -14.9458   25.0175 C   0  0  0  0  0  0  0  0  0  0  0  0
    9.3619  -15.1720   25.1477 O   0  0  0  0  0  0  0  0  0  0  0  0
    6.6775  -19.0151   23.0134 O   0  0  0  0  0  0  0  0  0  0  0  0
    7.5421  -13.9159   25.8208 N   0  0  0  0  0  0  0  0  0  0  0  0
    6.1890  -13.4383   25.6612 C   0  0  0  0  0  0  0  0  0  0  0  0
    6.2275  -12.0258   26.2527 C   0  0  0  0  0  0  0  0  0  0  0  0
    7.1233  -12.3116   27.4682 C   0  0  0  0  0  0  0  0  0  0  0  0
    8.1757  -13.1848   26.8581 C   0  0  1  0  0  0  0  0  0  0  0  0
    8.8485  -14.0461   27.8625 C   0  0  0  0  0  0  0  0  0  0  0  0
    9.7512  -13.5925   28.8079 O   0  0  0  0  0  0  0  0  0  0  0  0
    8.5755  -15.2722   27.8482 O   0  0  0  0  0  0  0  0  0  0  0  0
  2  1  1  1
  3  2  1  0
  3  4  1  0
  4  8  1  0
  5  4  2  0
  6  7  2  0
  6  2  1  0
  9  6  1  0
 10 14  1  0
 10  9  1  0
 10 11  1  1
 12 16  1  0
 12 11  1  0
 13 12  2  0
 14 17  1  0
 15 14  2  0
 17 21  1  0
 17 18  1  0
 18 19  1  0
 20 19  1  0
 21 20  1  0
 21 22  1  1
 22 24  2  0
 22 23  1  0
M  END
$$$$
