DDP.pdb
     RDKit          3D

 24 24  0  0  1  0  0  0  0  0999 V2000
    8.9649  -15.7816   20.4130 N   0  0  0  0  0  0  0  0  0  0  0  0
    8.4363  -14.4759   20.6735 C   0  0  1  0  0  0  0  0  0  0  0  0
    7.4742  -14.0839   19.5622 C   0  0  0  0  0  0  0  0  0  0  0  0
    8.1443  -14.0965   18.2453 C   0  0  0  0  0  0  0  0  0  0  0  0
    8.7316  -15.1364   17.8546 O   0  0  0  0  0  0  0  0  0  0  0  0
    7.6635  -14.5015   21.9627 C   0  0  0  0  0  0  0  0  0  0  0  0
    6.8678  -13.5898   22.2632 O   0  0  0  0  0  0  0  0  0  0  0  0
    8.1449  -12.9904   17.4226 O   0  0  0  0  0  0  0  0  0  0  0  0
    7.8414  -15.5765   22.8500 N   0  0  0  0  0  0  0  0  0  0  0  0
    7.1856  -15.6387   24.1681 C   0  0  1  0  0  0  0  0  0  0  0  0
    7.1517  -17.1286   24.4980 C   0  0  0  0  0  0  0  0  0  0  0  0
    6.2012  -17.8729   23.6485 C   0  0  0  0  0  0  0  0  0  0  0  0
    4.9833  -17.5920   23.7201 O   0  0  0  0  0  0  0  0  0  0  0  0
    8.1080  -15.0004   25.1399 C   0  0  0  0  0  0  0  0  0  0  0  0
    9.3139  -15.4184   25.1842 O   0  0  0  0  0  0  0  0  0  0  0  0
    6.5846  -18.8715   22.7710 O   0  0  0  0  0  0  0  0  0  0  0  0
    7.7428  -13.9484   26.0290 N   0  0  0  0  0  0  0  0  0  0  0  0
    6.4498  -13.3062   26.0141 C   0  0  0  0  0  0  0  0  0  0  0  0
    6.7141  -11.9373   26.6489 C   0  0  0  0  0  0  0  0  0  0  0  0
    7.6725  -12.3840   27.7640 C   0  0  0  0  0  0  0  0  0  0  0  0
    8.5512  -13.3469   27.0274 C   0  0  1  0  0  0  0  0  0  0  0  0
    9.1996  -14.3279   27.9330 C   0  0  0  0  0  0  0  0  0  0  0  0
    8.8760  -15.6717   27.9970 O   0  0  0  0  0  0  0  0  0  0  0  0
   10.1050  -13.9026   28.6929 O   0  0  0  0  0  0  0  0  0  0  0  0
  2  1  1  6
  3  2  1  0
  3  4  1  0
  4  8  1  0
  5  4  2  0
  6  7  2  0
  6  2  1  0
  9  6  1  0
 10 14  1  0
 10  9  1  0
 10 11  1  1
 12 16  1  0
 12 11  1  0
 13 12  2  0
 14 17  1  0
 15 14  2  0
 17 21  1  0
 17 18  1  0
 18 19  1  0
 20 19  1  0
 21 20  1  0
 21 22  1  1
 22 24  2  0
 22 23  1  0
M  END
$$$$
