DDP.pdb
     RDKit          3D

 24 24  0  0  1  0  0  0  0  0999 V2000
    9.2703  -15.2937   20.1098 N   0  0  0  0  0  0  0  0  0  0  0  0
    8.6101  -14.0359   20.2950 C   0  0  1  0  0  0  0  0  0  0  0  0
    7.6845  -13.7673   19.1178 C   0  0  0  0  0  0  0  0  0  0  0  0
    8.3949  -13.9252   17.8318 C   0  0  0  0  0  0  0  0  0  0  0  0
    9.4578  -14.5937   17.7847 O   0  0  0  0  0  0  0  0  0  0  0  0
    7.7671  -14.0961   21.5381 C   0  0  0  0  0  0  0  0  0  0  0  0
    6.9677  -13.1841   21.8277 O   0  0  0  0  0  0  0  0  0  0  0  0
    7.9220  -13.3558   16.6689 O   0  0  0  0  0  0  0  0  0  0  0  0
    7.8820  -15.2046   22.3940 N   0  0  0  0  0  0  0  0  0  0  0  0
    7.1459  -15.3087   23.6663 C   0  0  1  0  0  0  0  0  0  0  0  0
    7.1093  -16.8072   23.9547 C   0  0  0  0  0  0  0  0  0  0  0  0
    6.1255  -17.5192   23.1154 C   0  0  0  0  0  0  0  0  0  0  0  0
    4.9360  -17.5774   23.5013 O   0  0  0  0  0  0  0  0  0  0  0  0
    7.9980  -14.6871   24.7103 C   0  0  0  0  0  0  0  0  0  0  0  0
    9.2313  -15.0158   24.7505 O   0  0  0  0  0  0  0  0  0  0  0  0
    6.4478  -18.1306   21.9168 O   0  0  0  0  0  0  0  0  0  0  0  0
    7.5365  -13.7437   25.6734 N   0  0  0  0  0  0  0  0  0  0  0  0
    6.2628  -13.0701   25.5813 C   0  0  0  0  0  0  0  0  0  0  0  0
    6.4611  -11.7978   26.4111 C   0  0  0  0  0  0  0  0  0  0  0  0
    7.2675  -12.4046   27.5701 C   0  0  0  0  0  0  0  0  0  0  0  0
    8.2205  -13.2923   26.8312 C   0  0  1  0  0  0  0  0  0  0  0  0
    8.7396  -14.3948   27.6785 C   0  0  0  0  0  0  0  0  0  0  0  0
    9.7066  -14.2455   28.6568 O   0  0  0  0  0  0  0  0  0  0  0  0
    8.2641  -15.5421   27.4896 O   0  0  0  0  0  0  0  0  0  0  0  0
  2  1  1  6
  3  2  1  0
  3  4  1  0
  4  8  1  0
  5  4  2  0
  6  7  2  0
  6  2  1  0
  9  6  1  0
 10 14  1  0
 10  9  1  0
 10 11  1  1
 12 16  1  0
 12 11  1  0
 13 12  2  0
 14 17  1  0
 15 14  2  0
 17 21  1  0
 17 18  1  0
 18 19  1  0
 20 19  1  0
 21 20  1  0
 21 22  1  1
 22 24  2  0
 22 23  1  0
M  END
$$$$
