WLM.pdb
     RDKit          3D

 31 32  0  0  1  0  0  0  0  0999 V2000
    6.1910  -18.2860   23.9283 N   0  0  0  0  0  0  0  0  0  0  0  0
    6.7122  -16.9367   23.8892 C   0  0  1  0  0  0  0  0  0  0  0  0
    7.2670  -16.5688   25.2477 C   0  0  0  0  0  0  0  0  0  0  0  0
    6.6514  -15.3798   25.8417 C   0  0  0  0  0  0  0  0  0  0  0  0
    5.3761  -15.3398   26.3806 C   0  0  0  0  0  0  0  0  0  0  0  0
    5.1518  -14.0980   26.8295 N   0  0  0  0  0  0  0  0  0  0  0  0
    6.2516  -13.3221   26.5970 C   0  0  0  0  0  0  0  0  0  0  0  0
    6.5201  -11.9926   26.8667 C   0  0  0  0  0  0  0  0  0  0  0  0
    7.7520  -11.4954   26.4990 C   0  0  0  0  0  0  0  0  0  0  0  0
    8.6849  -12.3173   25.8774 C   0  0  0  0  0  0  0  0  0  0  0  0
    8.4288  -13.6434   25.6037 C   0  0  0  0  0  0  0  0  0  0  0  0
    7.1855  -14.1360   25.9772 C   0  0  0  0  0  0  0  0  0  0  0  0
    7.8399  -16.8995   22.9428 C   0  0  0  0  0  0  0  0  0  0  0  0
    8.4011  -17.9389   22.5933 O   0  0  0  0  0  0  0  0  0  0  0  0
    8.3261  -12.3502   19.7889 C   0  0  0  0  0  0  0  0  0  0  0  0
    8.0299  -13.7332   20.4247 C   0  0  1  0  0  0  0  0  0  0  0  0
    7.2249  -14.4494   19.3840 C   0  0  0  0  0  0  0  0  0  0  0  0
    9.3524  -14.3014   20.7488 C   0  0  0  0  0  0  0  0  0  0  0  0
    9.4470  -15.4938   21.6101 C   0  0  2  0  0  0  0  0  0  0  0  0
    8.2908  -15.6629   22.4243 N   0  0  0  0  0  0  0  0  0  0  0  0
   10.7233  -15.6274   22.3447 C   0  0  0  0  0  0  0  0  0  0  0  0
   11.8580  -15.5431   21.7995 O   0  0  0  0  0  0  0  0  0  0  0  0
    9.1330  -14.4494   28.1637 C   0  0  0  0  0  0  0  0  0  0  0  0
   10.8071  -13.8531   27.8672 S   0  0  0  0  0  0  0  0  0  0  0  0
   11.3716  -14.1600   26.1877 C   0  0  0  0  0  0  0  0  0  0  0  0
   11.6211  -15.6394   26.0058 C   0  0  0  0  0  0  0  0  0  0  0  0
   11.8840  -15.9931   24.5616 C   0  0  2  0  0  0  0  0  0  0  0  0
   10.7229  -15.8652   23.7483 N   0  0  0  0  0  0  0  0  0  0  0  0
   12.4648  -17.3754   24.5036 C   0  0  0  0  0  0  0  0  0  0  0  0
   13.5502  -17.5976   25.0926 O   0  0  0  0  0  0  0  0  0  0  0  0
   11.8604  -18.4026   23.8357 O   0  0  0  0  0  0  0  0  0  0  0  0
  2 13  1  0
  2  1  1  1
  3  2  1  0
  4  3  1  0
  4  5  2  0
  6  5  1  0
  7 12  2  0
  7  6  1  0
  8  7  1  0
  9 10  1  0
  9  8  2  0
 10 11  2  0
 11 12  1  0
 12  4  1  0
 13 14  2  0
 16 15  1  6
 17 16  1  0
 18 16  1  0
 19 18  1  1
 20 19  1  0
 20 13  1  0
 21 19  1  0
 21 22  2  0
 23 24  1  0
 25 26  1  0
 25 24  1  0
 27 26  1  1
 27 28  1  0
 27 29  1  0
 28 21  1  0
 29 30  2  0
 29 31  1  0
M  END
$$$$
