WLM.pdb
     RDKit          3D

 31 32  0  0  1  0  0  0  0  0999 V2000
    6.5032  -18.4682   24.0309 N   0  0  0  0  0  0  0  0  0  0  0  0
    6.8320  -17.0607   23.9615 C   0  0  1  0  0  0  0  0  0  0  0  0
    7.2238  -16.5640   25.3357 C   0  0  0  0  0  0  0  0  0  0  0  0
    6.3893  -15.4684   25.8345 C   0  0  0  0  0  0  0  0  0  0  0  0
    5.2252  -15.6359   26.5659 C   0  0  0  0  0  0  0  0  0  0  0  0
    4.7330  -14.4230   26.8501 N   0  0  0  0  0  0  0  0  0  0  0  0
    5.5484  -13.4633   26.3212 C   0  0  0  0  0  0  0  0  0  0  0  0
    5.4821  -12.0820   26.3352 C   0  0  0  0  0  0  0  0  0  0  0  0
    6.4819  -11.3813   25.6953 C   0  0  0  0  0  0  0  0  0  0  0  0
    7.5180  -12.0563   25.0604 C   0  0  0  0  0  0  0  0  0  0  0  0
    7.5947  -13.4321   25.0400 C   0  0  0  0  0  0  0  0  0  0  0  0
    6.5836  -14.1301   25.6867 C   0  0  0  0  0  0  0  0  0  0  0  0
    8.0127  -16.8996   23.0962 C   0  0  0  0  0  0  0  0  0  0  0  0
    8.7034  -17.8722   22.7888 O   0  0  0  0  0  0  0  0  0  0  0  0
    8.2856  -11.9247   20.5699 C   0  0  0  0  0  0  0  0  0  0  0  0
    7.9902  -13.3924   20.9737 C   0  0  1  0  0  0  0  0  0  0  0  0
    7.0586  -13.8845   19.9088 C   0  0  0  0  0  0  0  0  0  0  0  0
    9.3110  -14.0451   21.0541 C   0  0  0  0  0  0  0  0  0  0  0  0
    9.4416  -15.3572   21.7129 C   0  0  2  0  0  0  0  0  0  0  0  0
    8.3656  -15.6196   22.6083 N   0  0  0  0  0  0  0  0  0  0  0  0
   10.7778  -15.6338   22.2826 C   0  0  0  0  0  0  0  0  0  0  0  0
   11.8456  -15.6056   21.6111 O   0  0  0  0  0  0  0  0  0  0  0  0
   11.5560  -13.4290   28.8683 C   0  0  0  0  0  0  0  0  0  0  0  0
   11.8618  -15.0454   28.1337 S   0  0  0  0  0  0  0  0  0  0  0  0
   12.0093  -14.9829   26.3426 C   0  0  0  0  0  0  0  0  0  0  0  0
   12.0266  -16.3903   25.7921 C   0  0  0  0  0  0  0  0  0  0  0  0
   12.1164  -16.4047   24.2850 C   0  0  2  0  0  0  0  0  0  0  0  0
   10.9181  -15.9547   23.6624 N   0  0  0  0  0  0  0  0  0  0  0  0
   12.5003  -17.7853   23.8398 C   0  0  0  0  0  0  0  0  0  0  0  0
   13.6072  -18.2496   24.2051 O   0  0  0  0  0  0  0  0  0  0  0  0
   11.6940  -18.5579   23.0526 O   0  0  0  0  0  0  0  0  0  0  0  0
  2 13  1  0
  2  1  1  1
  3  2  1  0
  4  3  1  0
  4  5  2  0
  6  5  1  0
  7 12  2  0
  7  6  1  0
  8  7  1  0
  9 10  1  0
  9  8  2  0
 10 11  2  0
 11 12  1  0
 12  4  1  0
 13 14  2  0
 16 15  1  6
 17 16  1  0
 18 16  1  0
 19 18  1  1
 20 19  1  0
 20 13  1  0
 21 19  1  0
 21 22  2  0
 23 24  1  0
 25 26  1  0
 25 24  1  0
 27 26  1  1
 27 28  1  0
 27 29  1  0
 28 21  1  0
 29 30  2  0
 29 31  1  0
M  END
$$$$
