WLM.pdb
     RDKit          3D

 31 32  0  0  1  0  0  0  0  0999 V2000
    6.2767  -18.7588   23.8534 N   0  0  0  0  0  0  0  0  0  0  0  0
    6.6676  -17.3667   23.7973 C   0  0  1  0  0  0  0  0  0  0  0  0
    7.1954  -16.9343   25.1475 C   0  0  0  0  0  0  0  0  0  0  0  0
    6.5909  -15.7014   25.6576 C   0  0  0  0  0  0  0  0  0  0  0  0
    5.3270  -15.6179   26.2177 C   0  0  0  0  0  0  0  0  0  0  0  0
    5.1107  -14.3441   26.5710 N   0  0  0  0  0  0  0  0  0  0  0  0
    6.2048  -13.5899   26.2550 C   0  0  0  0  0  0  0  0  0  0  0  0
    6.4774  -12.2433   26.4125 C   0  0  0  0  0  0  0  0  0  0  0  0
    7.7010  -11.7777   25.9811 C   0  0  0  0  0  0  0  0  0  0  0  0
    8.6217  -12.6471   25.4078 C   0  0  0  0  0  0  0  0  0  0  0  0
    8.3613  -13.9906   25.2458 C   0  0  0  0  0  0  0  0  0  0  0  0
    7.1265  -14.4511   25.6828 C   0  0  0  0  0  0  0  0  0  0  0  0
    7.7794  -17.2326   22.8410 C   0  0  0  0  0  0  0  0  0  0  0  0
    8.4699  -18.2073   22.5400 O   0  0  0  0  0  0  0  0  0  0  0  0
    8.0960  -12.3873   19.9027 C   0  0  0  0  0  0  0  0  0  0  0  0
    7.8196  -13.8491   20.3399 C   0  0  1  0  0  0  0  0  0  0  0  0
    7.2462  -14.4949   19.1159 C   0  0  0  0  0  0  0  0  0  0  0  0
    9.1183  -14.3631   20.8156 C   0  0  0  0  0  0  0  0  0  0  0  0
    9.1957  -15.6977   21.4364 C   0  0  2  0  0  0  0  0  0  0  0  0
    8.0654  -15.9763   22.2569 N   0  0  0  0  0  0  0  0  0  0  0  0
   10.4925  -16.0094   22.0749 C   0  0  0  0  0  0  0  0  0  0  0  0
   11.6105  -15.7003   21.5784 O   0  0  0  0  0  0  0  0  0  0  0  0
   11.0881  -14.4947   29.6414 C   0  0  0  0  0  0  0  0  0  0  0  0
   10.1903  -15.0124   28.1676 S   0  0  0  0  0  0  0  0  0  0  0  0
   11.2781  -15.5094   26.8247 C   0  0  0  0  0  0  0  0  0  0  0  0
   10.4489  -15.8438   25.6063 C   0  0  0  0  0  0  0  0  0  0  0  0
   11.3052  -16.3051   24.4514 C   0  0  2  0  0  0  0  0  0  0  0  0
   10.5330  -16.6958   23.3213 N   0  0  0  0  0  0  0  0  0  0  0  0
   12.2039  -17.4073   24.9299 C   0  0  0  0  0  0  0  0  0  0  0  0
   12.9995  -17.1698   25.8705 O   0  0  0  0  0  0  0  0  0  0  0  0
   12.1917  -18.6594   24.3833 O   0  0  0  0  0  0  0  0  0  0  0  0
  2 13  1  0
  2  1  1  1
  3  2  1  0
  4  3  1  0
  4  5  2  0
  6  5  1  0
  7 12  2  0
  7  6  1  0
  8  7  1  0
  9 10  1  0
  9  8  2  0
 10 11  2  0
 11 12  1  0
 12  4  1  0
 13 14  2  0
 16 15  1  6
 17 16  1  0
 18 16  1  0
 19 18  1  1
 20 19  1  0
 20 13  1  0
 21 19  1  0
 21 22  2  0
 23 24  1  0
 25 26  1  0
 25 24  1  0
 27 26  1  1
 27 28  1  0
 27 29  1  0
 28 21  1  0
 29 30  2  0
 29 31  1  0
M  END
$$$$
