WLM.pdb
     RDKit          3D

 31 32  0  0  1  0  0  0  0  0999 V2000
    6.8307  -17.8482   22.1621 N   0  0  0  0  0  0  0  0  0  0  0  0
    6.7854  -17.8583   23.6083 C   0  0  1  0  0  0  0  0  0  0  0  0
    7.3785  -19.1509   24.1243 C   0  0  0  0  0  0  0  0  0  0  0  0
    6.4458  -20.2802   24.1168 C   0  0  0  0  0  0  0  0  0  0  0  0
    5.7728  -20.7526   25.2314 C   0  0  0  0  0  0  0  0  0  0  0  0
    5.0111  -21.7867   24.8515 N   0  0  0  0  0  0  0  0  0  0  0  0
    5.1693  -22.0035   23.5123 C   0  0  0  0  0  0  0  0  0  0  0  0
    4.6145  -22.9348   22.6535 C   0  0  0  0  0  0  0  0  0  0  0  0
    4.9861  -22.8915   21.3269 C   0  0  0  0  0  0  0  0  0  0  0  0
    5.8915  -21.9354   20.8813 C   0  0  0  0  0  0  0  0  0  0  0  0
    6.4508  -21.0025   21.7274 C   0  0  0  0  0  0  0  0  0  0  0  0
    6.0711  -21.0534   23.0620 C   0  0  0  0  0  0  0  0  0  0  0  0
    7.6379  -16.7670   24.1094 C   0  0  0  0  0  0  0  0  0  0  0  0
    8.7579  -16.5759   23.6333 O   0  0  0  0  0  0  0  0  0  0  0  0
    5.7027  -12.1209   26.5862 C   0  0  0  0  0  0  0  0  0  0  0  0
    6.5834  -12.9840   25.6460 C   0  0  1  0  0  0  0  0  0  0  0  0
    7.4600  -11.9886   24.9499 C   0  0  0  0  0  0  0  0  0  0  0  0
    7.2547  -13.9569   26.5293 C   0  0  0  0  0  0  0  0  0  0  0  0
    8.0035  -15.0835   25.9442 C   0  0  2  0  0  0  0  0  0  0  0  0
    7.1753  -15.9246   25.1474 N   0  0  0  0  0  0  0  0  0  0  0  0
    8.8637  -15.8169   26.8974 C   0  0  0  0  0  0  0  0  0  0  0  0
    8.4208  -16.4684   27.8830 O   0  0  0  0  0  0  0  0  0  0  0  0
   12.7101  -15.4015   23.9369 C   0  0  0  0  0  0  0  0  0  0  0  0
   13.2976  -17.0507   24.3624 S   0  0  0  0  0  0  0  0  0  0  0  0
   12.5140  -17.7127   25.8393 C   0  0  0  0  0  0  0  0  0  0  0  0
   12.5541  -16.6738   26.9360 C   0  0  0  0  0  0  0  0  0  0  0  0
   11.2035  -16.4868   27.5847 C   0  0  2  0  0  0  0  0  0  0  0  0
   10.2780  -15.8176   26.7352 N   0  0  0  0  0  0  0  0  0  0  0  0
   11.3923  -15.7705   28.8897 C   0  0  0  0  0  0  0  0  0  0  0  0
   12.1994  -16.2445   29.7252 O   0  0  0  0  0  0  0  0  0  0  0  0
   10.7214  -14.6231   29.2057 O   0  0  0  0  0  0  0  0  0  0  0  0
  2 13  1  0
  2  1  1  6
  3  2  1  0
  4  3  1  0
  4  5  2  0
  6  5  1  0
  7 12  2  0
  7  6  1  0
  8  7  1  0
  9 10  1  0
  9  8  2  0
 10 11  2  0
 11 12  1  0
 12  4  1  0
 13 14  2  0
 16 15  1  1
 17 16  1  0
 18 16  1  0
 19 18  1  1
 20 19  1  0
 20 13  1  0
 21 19  1  0
 21 22  2  0
 23 24  1  0
 25 26  1  0
 25 24  1  0
 27 26  1  6
 27 28  1  0
 27 29  1  0
 28 21  1  0
 29 30  2  0
 29 31  1  0
M  END
$$$$
