WLM.pdb
     RDKit          3D

 31 32  0  0  1  0  0  0  0  0999 V2000
   12.4216  -15.4453   18.2033 N   0  0  0  0  0  0  0  0  0  0  0  0
   13.0827  -15.2842   19.4804 C   0  0  1  0  0  0  0  0  0  0  0  0
   13.9756  -14.0637   19.4376 C   0  0  0  0  0  0  0  0  0  0  0  0
   15.0752  -14.1623   18.4750 C   0  0  0  0  0  0  0  0  0  0  0  0
   15.3281  -13.2413   17.4719 C   0  0  0  0  0  0  0  0  0  0  0  0
   16.4059  -13.6517   16.7908 N   0  0  0  0  0  0  0  0  0  0  0  0
   16.8659  -14.8217   17.3247 C   0  0  0  0  0  0  0  0  0  0  0  0
   17.9319  -15.6363   16.9890 C   0  0  0  0  0  0  0  0  0  0  0  0
   18.1355  -16.7748   17.7388 C   0  0  0  0  0  0  0  0  0  0  0  0
   17.2872  -17.0811   18.7965 C   0  0  0  0  0  0  0  0  0  0  0  0
   16.2220  -16.2772   19.1404 C   0  0  0  0  0  0  0  0  0  0  0  0
   16.0241  -15.1325   18.3799 C   0  0  0  0  0  0  0  0  0  0  0  0
   12.0583  -15.0283   20.5070 C   0  0  0  0  0  0  0  0  0  0  0  0
   12.3824  -14.7069   21.6511 O   0  0  0  0  0  0  0  0  0  0  0  0
    7.1245  -13.2902   18.7044 C   0  0  0  0  0  0  0  0  0  0  0  0
    8.5435  -13.4160   19.3170 C   0  0  1  0  0  0  0  0  0  0  0  0
    8.8947  -12.0159   19.7172 C   0  0  0  0  0  0  0  0  0  0  0  0
    8.4093  -14.4039   20.4047 C   0  0  0  0  0  0  0  0  0  0  0  0
    9.6130  -14.9074   21.0905 C   0  0  2  0  0  0  0  0  0  0  0  0
   10.6860  -15.1504   20.1860 N   0  0  0  0  0  0  0  0  0  0  0  0
    9.3672  -16.0129   22.0411 C   0  0  0  0  0  0  0  0  0  0  0  0
    8.5138  -15.9627   22.9691 O   0  0  0  0  0  0  0  0  0  0  0  0
   12.9185  -22.4793   22.3606 C   0  0  0  0  0  0  0  0  0  0  0  0
   12.3445  -21.2588   21.1660 S   0  0  0  0  0  0  0  0  0  0  0  0
   11.8718  -19.7011   21.9300 C   0  0  0  0  0  0  0  0  0  0  0  0
   10.3677  -19.6463   22.0662 C   0  0  0  0  0  0  0  0  0  0  0  0
    9.9096  -18.3796   22.7484 C   0  0  2  0  0  0  0  0  0  0  0  0
   10.1110  -17.2228   21.9439 N   0  0  0  0  0  0  0  0  0  0  0  0
   10.6010  -18.2719   24.0759 C   0  0  0  0  0  0  0  0  0  0  0  0
   10.4090  -19.1712   24.9294 O   0  0  0  0  0  0  0  0  0  0  0  0
   11.4312  -17.2344   24.3936 O   0  0  0  0  0  0  0  0  0  0  0  0
  2 13  1  0
  2  1  1  6
  3  2  1  0
  4  3  1  0
  4  5  2  0
  6  5  1  0
  7 12  2  0
  7  6  1  0
  8  7  1  0
  9 10  1  0
  9  8  2  0
 10 11  2  0
 11 12  1  0
 12  4  1  0
 13 14  2  0
 16 15  1  1
 17 16  1  0
 18 16  1  0
 19 18  1  6
 20 19  1  0
 20 13  1  0
 21 19  1  0
 21 22  2  0
 23 24  1  0
 25 26  1  0
 25 24  1  0
 27 26  1  6
 27 28  1  0
 27 29  1  0
 28 21  1  0
 29 30  2  0
 29 31  1  0
M  END
$$$$
