WLM.pdb
     RDKit          3D

 31 32  0  0  1  0  0  0  0  0999 V2000
    6.3292  -18.3571   24.2834 N   0  0  0  0  0  0  0  0  0  0  0  0
    6.7360  -16.9799   24.1052 C   0  0  1  0  0  0  0  0  0  0  0  0
    7.2403  -16.4270   25.4200 C   0  0  0  0  0  0  0  0  0  0  0  0
    6.4161  -15.3475   25.9687 C   0  0  0  0  0  0  0  0  0  0  0  0
    5.2968  -15.5375   26.7621 C   0  0  0  0  0  0  0  0  0  0  0  0
    4.8006  -14.3342   27.0783 N   0  0  0  0  0  0  0  0  0  0  0  0
    5.5695  -13.3588   26.5099 C   0  0  0  0  0  0  0  0  0  0  0  0
    5.4807  -11.9790   26.5336 C   0  0  0  0  0  0  0  0  0  0  0  0
    6.4319  -11.2589   25.8431 C   0  0  0  0  0  0  0  0  0  0  0  0
    7.4428  -11.9139   25.1494 C   0  0  0  0  0  0  0  0  0  0  0  0
    7.5415  -13.2881   25.1185 C   0  0  0  0  0  0  0  0  0  0  0  0
    6.5793  -14.0056   25.8165 C   0  0  0  0  0  0  0  0  0  0  0  0
    7.8689  -16.9461   23.1649 C   0  0  0  0  0  0  0  0  0  0  0  0
    8.5700  -17.9438   22.9901 O   0  0  0  0  0  0  0  0  0  0  0  0
    8.5659  -12.1019   20.7258 C   0  0  0  0  0  0  0  0  0  0  0  0
    7.9309  -13.5074   20.8869 C   0  0  1  0  0  0  0  0  0  0  0  0
    6.7880  -13.5057   19.9186 C   0  0  0  0  0  0  0  0  0  0  0  0
    9.0259  -14.4598   20.6202 C   0  0  0  0  0  0  0  0  0  0  0  0
    9.2224  -15.6188   21.5093 C   0  0  2  0  0  0  0  0  0  0  0  0
    8.1631  -15.7610   22.4507 N   0  0  0  0  0  0  0  0  0  0  0  0
   10.5721  -15.7210   22.1045 C   0  0  0  0  0  0  0  0  0  0  0  0
   11.6399  -15.6548   21.4356 O   0  0  0  0  0  0  0  0  0  0  0  0
   11.2301  -14.4865   28.5216 C   0  0  0  0  0  0  0  0  0  0  0  0
   10.4114  -15.9680   27.9042 S   0  0  0  0  0  0  0  0  0  0  0  0
   11.2486  -16.6900   26.4860 C   0  0  0  0  0  0  0  0  0  0  0  0
   11.8548  -15.5882   25.6479 C   0  0  0  0  0  0  0  0  0  0  0  0
   11.9703  -15.9837   24.1954 C   0  0  2  0  0  0  0  0  0  0  0  0
   10.7266  -15.9048   23.5077 N   0  0  0  0  0  0  0  0  0  0  0  0
   12.5727  -17.3558   24.1175 C   0  0  0  0  0  0  0  0  0  0  0  0
   11.8567  -18.3060   23.7191 O   0  0  0  0  0  0  0  0  0  0  0  0
   13.8693  -17.6134   24.4627 O   0  0  0  0  0  0  0  0  0  0  0  0
  2 13  1  0
  2  1  1  1
  3  2  1  0
  4  3  1  0
  4  5  2  0
  6  5  1  0
  7 12  2  0
  7  6  1  0
  8  7  1  0
  9 10  1  0
  9  8  2  0
 10 11  2  0
 11 12  1  0
 12  4  1  0
 13 14  2  0
 16 15  1  6
 17 16  1  0
 18 16  1  0
 19 18  1  1
 20 19  1  0
 20 13  1  0
 21 19  1  0
 21 22  2  0
 23 24  1  0
 25 26  1  0
 25 24  1  0
 27 26  1  1
 27 28  1  0
 27 29  1  0
 28 21  1  0
 29 30  2  0
 29 31  1  0
M  END
$$$$
