WLM.pdb
     RDKit          3D

 31 32  0  0  1  0  0  0  0  0999 V2000
    7.9114  -20.0209   20.1784 N   0  0  0  0  0  0  0  0  0  0  0  0
    7.2426  -19.1402   21.1116 C   0  0  1  0  0  0  0  0  0  0  0  0
    7.2900  -19.7423   22.4986 C   0  0  0  0  0  0  0  0  0  0  0  0
    6.7975  -18.8523   23.5526 C   0  0  0  0  0  0  0  0  0  0  0  0
    5.6245  -18.1196   23.4795 C   0  0  0  0  0  0  0  0  0  0  0  0
    5.4948  -17.4252   24.6176 N   0  0  0  0  0  0  0  0  0  0  0  0
    6.5569  -17.6861   25.4358 C   0  0  0  0  0  0  0  0  0  0  0  0
    6.8874  -17.2274   26.6979 C   0  0  0  0  0  0  0  0  0  0  0  0
    8.0545  -17.6895   27.2675 C   0  0  0  0  0  0  0  0  0  0  0  0
    8.8634  -18.5885   26.5822 C   0  0  0  0  0  0  0  0  0  0  0  0
    8.5444  -19.0525   25.3244 C   0  0  0  0  0  0  0  0  0  0  0  0
    7.3673  -18.5819   24.7580 C   0  0  0  0  0  0  0  0  0  0  0  0
    7.9875  -17.8712   21.1710 C   0  0  0  0  0  0  0  0  0  0  0  0
    9.2154  -17.8586   21.0741 O   0  0  0  0  0  0  0  0  0  0  0  0
    6.8986  -12.9779   18.6619 C   0  0  0  0  0  0  0  0  0  0  0  0
    7.8564  -14.0276   19.2825 C   0  0  1  0  0  0  0  0  0  0  0  0
    9.1888  -13.3431   19.2981 C   0  0  0  0  0  0  0  0  0  0  0  0
    7.2666  -14.3629   20.5928 C   0  0  0  0  0  0  0  0  0  0  0  0
    7.9136  -15.3711   21.4516 C   0  0  2  0  0  0  0  0  0  0  0  0
    7.2952  -16.6493   21.3410 N   0  0  0  0  0  0  0  0  0  0  0  0
    8.1504  -14.9373   22.8452 C   0  0  0  0  0  0  0  0  0  0  0  0
    7.2273  -14.6619   23.6600 O   0  0  0  0  0  0  0  0  0  0  0  0
    6.9085  -11.5542   27.2968 C   0  0  0  0  0  0  0  0  0  0  0  0
    7.5422  -13.1613   27.8083 S   0  0  0  0  0  0  0  0  0  0  0  0
    9.0163  -13.6521   26.9029 C   0  0  0  0  0  0  0  0  0  0  0  0
    8.6228  -14.1176   25.5200 C   0  0  0  0  0  0  0  0  0  0  0  0
    9.8276  -14.4614   24.6772 C   0  0  2  0  0  0  0  0  0  0  0  0
    9.4783  -14.8084   23.3417 N   0  0  0  0  0  0  0  0  0  0  0  0
   10.5969  -15.5529   25.3616 C   0  0  0  0  0  0  0  0  0  0  0  0
   10.0046  -16.6234   25.6400 O   0  0  0  0  0  0  0  0  0  0  0  0
   11.9162  -15.4292   25.6943 O   0  0  0  0  0  0  0  0  0  0  0  0
  2 13  1  0
  2  1  1  6
  3  2  1  0
  4  3  1  0
  4  5  2  0
  6  5  1  0
  7 12  2  0
  7  6  1  0
  8  7  1  0
  9 10  1  0
  9  8  2  0
 10 11  2  0
 11 12  1  0
 12  4  1  0
 13 14  2  0
 16 15  1  1
 17 16  1  0
 18 16  1  0
 19 18  1  1
 20 19  1  0
 20 13  1  0
 21 19  1  0
 21 22  2  0
 23 24  1  0
 25 26  1  0
 25 24  1  0
 27 26  1  1
 27 28  1  0
 27 29  1  0
 28 21  1  0
 29 30  2  0
 29 31  1  0
M  END
$$$$
