WLM.pdb
     RDKit          3D

 31 32  0  0  1  0  0  0  0  0999 V2000
    6.4338  -18.7724   23.8532 N   0  0  0  0  0  0  0  0  0  0  0  0
    6.7651  -17.3660   23.7745 C   0  0  1  0  0  0  0  0  0  0  0  0
    7.1798  -16.8664   25.1408 C   0  0  0  0  0  0  0  0  0  0  0  0
    6.4698  -15.6616   25.5765 C   0  0  0  0  0  0  0  0  0  0  0  0
    5.1780  -15.6467   26.0760 C   0  0  0  0  0  0  0  0  0  0  0  0
    4.8595  -14.3795   26.3709 N   0  0  0  0  0  0  0  0  0  0  0  0
    5.9136  -13.5626   26.0759 C   0  0  0  0  0  0  0  0  0  0  0  0
    6.0867  -12.1957   26.1945 C   0  0  0  0  0  0  0  0  0  0  0  0
    7.2949  -11.6614   25.8011 C   0  0  0  0  0  0  0  0  0  0  0  0
    8.2984  -12.4841   25.3027 C   0  0  0  0  0  0  0  0  0  0  0  0
    8.1376  -13.8472   25.1800 C   0  0  0  0  0  0  0  0  0  0  0  0
    6.9176  -14.3770   25.5784 C   0  0  0  0  0  0  0  0  0  0  0  0
    7.9324  -17.2106   22.8902 C   0  0  0  0  0  0  0  0  0  0  0  0
    8.7749  -18.1047   22.7993 O   0  0  0  0  0  0  0  0  0  0  0  0
    8.0396  -12.4490   19.8303 C   0  0  0  0  0  0  0  0  0  0  0  0
    7.8691  -13.9397   20.2219 C   0  0  1  0  0  0  0  0  0  0  0  0
    7.4577  -14.6083   18.9462 C   0  0  0  0  0  0  0  0  0  0  0  0
    9.1691  -14.3410   20.7930 C   0  0  0  0  0  0  0  0  0  0  0  0
    9.2999  -15.6405   21.4763 C   0  0  2  0  0  0  0  0  0  0  0  0
    8.0970  -16.0266   22.1338 N   0  0  0  0  0  0  0  0  0  0  0  0
   10.5122  -15.7819   22.3109 C   0  0  0  0  0  0  0  0  0  0  0  0
   11.6839  -15.8201   21.8443 O   0  0  0  0  0  0  0  0  0  0  0  0
   11.2577  -13.4184   28.6516 C   0  0  0  0  0  0  0  0  0  0  0  0
   11.7385  -15.1547   28.6393 S   0  0  0  0  0  0  0  0  0  0  0  0
   12.2483  -15.7276   27.0128 C   0  0  0  0  0  0  0  0  0  0  0  0
   11.1023  -15.5619   26.0416 C   0  0  0  0  0  0  0  0  0  0  0  0
   11.4961  -15.9443   24.6350 C   0  0  2  0  0  0  0  0  0  0  0  0
   10.4020  -15.8843   23.7265 N   0  0  0  0  0  0  0  0  0  0  0  0
   12.1304  -17.3038   24.6664 C   0  0  0  0  0  0  0  0  0  0  0  0
   13.1642  -17.4700   25.3578 O   0  0  0  0  0  0  0  0  0  0  0  0
   11.6286  -18.3687   23.9730 O   0  0  0  0  0  0  0  0  0  0  0  0
  2 13  1  0
  2  1  1  1
  3  2  1  0
  4  3  1  0
  4  5  2  0
  6  5  1  0
  7 12  2  0
  7  6  1  0
  8  7  1  0
  9 10  1  0
  9  8  2  0
 10 11  2  0
 11 12  1  0
 12  4  1  0
 13 14  2  0
 16 15  1  6
 17 16  1  0
 18 16  1  0
 19 18  1  1
 20 19  1  0
 20 13  1  0
 21 19  1  0
 21 22  2  0
 23 24  1  0
 25 26  1  0
 25 24  1  0
 27 26  1  1
 27 28  1  0
 27 29  1  0
 28 21  1  0
 29 30  2  0
 29 31  1  0
M  END
$$$$
