WLM.pdb
     RDKit          3D

 31 32  0  0  1  0  0  0  0  0999 V2000
    5.8794  -19.6034   24.2022 N   0  0  0  0  0  0  0  0  0  0  0  0
    6.7063  -18.5463   24.7431 C   0  0  1  0  0  0  0  0  0  0  0  0
    7.8116  -19.1478   25.5829 C   0  0  0  0  0  0  0  0  0  0  0  0
    7.6420  -18.9480   27.0240 C   0  0  0  0  0  0  0  0  0  0  0  0
    6.8812  -19.7616   27.8472 C   0  0  0  0  0  0  0  0  0  0  0  0
    6.9571  -19.2802   29.0949 N   0  0  0  0  0  0  0  0  0  0  0  0
    7.7508  -18.1687   29.1086 C   0  0  0  0  0  0  0  0  0  0  0  0
    8.1379  -17.3204   30.1299 C   0  0  0  0  0  0  0  0  0  0  0  0
    8.9634  -16.2630   29.8128 C   0  0  0  0  0  0  0  0  0  0  0  0
    9.3853  -16.0688   28.5027 C   0  0  0  0  0  0  0  0  0  0  0  0
    9.0063  -16.9073   27.4768 C   0  0  0  0  0  0  0  0  0  0  0  0
    8.1746  -17.9697   27.8049 C   0  0  0  0  0  0  0  0  0  0  0  0
    7.3550  -17.8426   23.6238 C   0  0  0  0  0  0  0  0  0  0  0  0
    7.8973  -18.4733   22.7152 O   0  0  0  0  0  0  0  0  0  0  0  0
    6.5566  -12.4946   21.2331 C   0  0  0  0  0  0  0  0  0  0  0  0
    7.0251  -13.9683   21.1178 C   0  0  1  0  0  0  0  0  0  0  0  0
    8.0098  -13.9519   19.9891 C   0  0  0  0  0  0  0  0  0  0  0  0
    7.5505  -14.3130   22.4528 C   0  0  0  0  0  0  0  0  0  0  0  0
    8.1414  -15.6429   22.6872 C   0  0  2  0  0  0  0  0  0  0  0  0
    7.3608  -16.4286   23.5826 N   0  0  0  0  0  0  0  0  0  0  0  0
    9.5862  -15.6319   23.0014 C   0  0  0  0  0  0  0  0  0  0  0  0
   10.4561  -15.0703   22.2804 O   0  0  0  0  0  0  0  0  0  0  0  0
    9.6700  -12.9889   27.9469 C   0  0  0  0  0  0  0  0  0  0  0  0
   11.1285  -14.0466   27.9331 S   0  0  0  0  0  0  0  0  0  0  0  0
   11.6828  -14.4516   26.2711 C   0  0  0  0  0  0  0  0  0  0  0  0
   11.5828  -15.9447   26.0597 C   0  0  0  0  0  0  0  0  0  0  0  0
   11.4293  -16.2980   24.5998 C   0  0  2  0  0  0  0  0  0  0  0  0
   10.0715  -16.2783   24.1733 N   0  0  0  0  0  0  0  0  0  0  0  0
   12.0784  -17.6290   24.3568 C   0  0  0  0  0  0  0  0  0  0  0  0
   13.2942  -17.7655   24.6349 O   0  0  0  0  0  0  0  0  0  0  0  0
   11.3998  -18.6987   23.8451 O   0  0  0  0  0  0  0  0  0  0  0  0
  2 13  1  0
  2  1  1  6
  3  2  1  0
  4  3  1  0
  4  5  2  0
  6  5  1  0
  7 12  2  0
  7  6  1  0
  8  7  1  0
  9 10  1  0
  9  8  2  0
 10 11  2  0
 11 12  1  0
 12  4  1  0
 13 14  2  0
 16 15  1  1
 17 16  1  0
 18 16  1  0
 19 18  1  1
 20 19  1  0
 20 13  1  0
 21 19  1  0
 21 22  2  0
 23 24  1  0
 25 26  1  0
 25 24  1  0
 27 26  1  1
 27 28  1  0
 27 29  1  0
 28 21  1  0
 29 30  2  0
 29 31  1  0
M  END
$$$$
