WLM.pdb
     RDKit          3D

 31 32  0  0  1  0  0  0  0  0999 V2000
    6.7303  -17.4398   24.9298 N   0  0  0  0  0  0  0  0  0  0  0  0
    7.2184  -16.2038   24.3573 C   0  0  1  0  0  0  0  0  0  0  0  0
    8.3823  -15.6913   25.1768 C   0  0  0  0  0  0  0  0  0  0  0  0
    7.9873  -14.9050   26.3477 C   0  0  0  0  0  0  0  0  0  0  0  0
    8.1897  -15.2938   27.6616 C   0  0  0  0  0  0  0  0  0  0  0  0
    7.7065  -14.3331   28.4600 N   0  0  0  0  0  0  0  0  0  0  0  0
    7.1914  -13.3224   27.6992 C   0  0  0  0  0  0  0  0  0  0  0  0
    6.5861  -12.1257   28.0370 C   0  0  0  0  0  0  0  0  0  0  0  0
    6.1649  -11.3039   27.0137 C   0  0  0  0  0  0  0  0  0  0  0  0
    6.3499  -11.6802   25.6884 C   0  0  0  0  0  0  0  0  0  0  0  0
    6.9516  -12.8699   25.3396 C   0  0  0  0  0  0  0  0  0  0  0  0
    7.3727  -13.6917   26.3765 C   0  0  0  0  0  0  0  0  0  0  0  0
    7.7374  -16.4873   23.0086 C   0  0  0  0  0  0  0  0  0  0  0  0
    7.7083  -17.6311   22.5521 O   0  0  0  0  0  0  0  0  0  0  0  0
    8.4172  -11.9525   19.7543 C   0  0  0  0  0  0  0  0  0  0  0  0
    7.8841  -13.1957   20.5124 C   0  0  1  0  0  0  0  0  0  0  0  0
    6.4800  -13.3534   20.0148 C   0  0  0  0  0  0  0  0  0  0  0  0
    8.8293  -14.2814   20.1885 C   0  0  0  0  0  0  0  0  0  0  0  0
    8.7156  -15.5813   20.8740 C   0  0  2  0  0  0  0  0  0  0  0  0
    8.2768  -15.4427   22.2218 N   0  0  0  0  0  0  0  0  0  0  0  0
    9.8854  -16.4712   20.7120 C   0  0  0  0  0  0  0  0  0  0  0  0
   10.0625  -17.2212   19.7130 O   0  0  0  0  0  0  0  0  0  0  0  0
   15.0366  -14.0041   18.6635 C   0  0  0  0  0  0  0  0  0  0  0  0
   14.4581  -15.6862   18.9500 S   0  0  0  0  0  0  0  0  0  0  0  0
   13.2458  -15.7928   20.2738 C   0  0  0  0  0  0  0  0  0  0  0  0
   12.8950  -17.2427   20.5160 C   0  0  0  0  0  0  0  0  0  0  0  0
   12.0037  -17.4127   21.7229 C   0  0  2  0  0  0  0  0  0  0  0  0
   10.8959  -16.5190   21.7135 N   0  0  0  0  0  0  0  0  0  0  0  0
   12.8383  -17.2647   22.9611 C   0  0  0  0  0  0  0  0  0  0  0  0
   13.8667  -17.9733   23.0821 O   0  0  0  0  0  0  0  0  0  0  0  0
   12.5246  -16.3900   23.9626 O   0  0  0  0  0  0  0  0  0  0  0  0
  2 13  1  0
  2  1  1  1
  3  2  1  0
  4  3  1  0
  4  5  2  0
  6  5  1  0
  7 12  2  0
  7  6  1  0
  8  7  1  0
  9 10  1  0
  9  8  2  0
 10 11  2  0
 11 12  1  0
 12  4  1  0
 13 14  2  0
 16 15  1  6
 17 16  1  0
 18 16  1  0
 19 18  1  1
 20 19  1  0
 20 13  1  0
 21 19  1  0
 21 22  2  0
 23 24  1  0
 25 26  1  0
 25 24  1  0
 27 26  1  6
 27 28  1  0
 27 29  1  0
 28 21  1  0
 29 30  2  0
 29 31  1  0
M  END
$$$$
