WLM.pdb
     RDKit          3D

 31 32  0  0  1  0  0  0  0  0999 V2000
    6.3263  -18.4776   24.2850 N   0  0  0  0  0  0  0  0  0  0  0  0
    6.8245  -17.1244   24.1638 C   0  0  1  0  0  0  0  0  0  0  0  0
    7.3537  -16.6582   25.5022 C   0  0  0  0  0  0  0  0  0  0  0  0
    6.7481  -15.4141   25.9828 C   0  0  0  0  0  0  0  0  0  0  0  0
    5.4516  -15.3018   26.4568 C   0  0  0  0  0  0  0  0  0  0  0  0
    5.2448  -14.0258   26.8077 N   0  0  0  0  0  0  0  0  0  0  0  0
    6.3770  -13.2983   26.5744 C   0  0  0  0  0  0  0  0  0  0  0  0
    6.6731  -11.9608   26.7639 C   0  0  0  0  0  0  0  0  0  0  0  0
    7.9349  -11.5241   26.4212 C   0  0  0  0  0  0  0  0  0  0  0  0
    8.8696  -12.4128   25.9027 C   0  0  0  0  0  0  0  0  0  0  0  0
    8.5861  -13.7474   25.7096 C   0  0  0  0  0  0  0  0  0  0  0  0
    7.3129  -14.1787   26.0571 C   0  0  0  0  0  0  0  0  0  0  0  0
    7.9645  -17.1288   23.2316 C   0  0  0  0  0  0  0  0  0  0  0  0
    8.5858  -18.1679   23.0041 O   0  0  0  0  0  0  0  0  0  0  0  0
    8.4170  -12.5990   20.0098 C   0  0  0  0  0  0  0  0  0  0  0  0
    8.0864  -13.9736   20.6467 C   0  0  1  0  0  0  0  0  0  0  0  0
    7.1510  -14.6148   19.6680 C   0  0  0  0  0  0  0  0  0  0  0  0
    9.3918  -14.6316   20.8467 C   0  0  0  0  0  0  0  0  0  0  0  0
    9.4945  -15.8009   21.7382 C   0  0  2  0  0  0  0  0  0  0  0  0
    8.3579  -15.9331   22.5860 N   0  0  0  0  0  0  0  0  0  0  0  0
   10.7877  -15.9302   22.4433 C   0  0  0  0  0  0  0  0  0  0  0  0
   11.9068  -15.9313   21.8606 O   0  0  0  0  0  0  0  0  0  0  0  0
    9.6321  -14.0184   28.5231 C   0  0  0  0  0  0  0  0  0  0  0  0
   11.3313  -13.9241   27.9317 S   0  0  0  0  0  0  0  0  0  0  0  0
   11.4925  -14.3617   26.1950 C   0  0  0  0  0  0  0  0  0  0  0  0
   11.8163  -15.8332   26.0772 C   0  0  0  0  0  0  0  0  0  0  0  0
   11.9986  -16.2567   24.6395 C   0  0  2  0  0  0  0  0  0  0  0  0
   10.8233  -16.0635   23.8602 N   0  0  0  0  0  0  0  0  0  0  0  0
   12.4651  -17.6827   24.6142 C   0  0  0  0  0  0  0  0  0  0  0  0
   11.7504  -18.5397   24.0407 O   0  0  0  0  0  0  0  0  0  0  0  0
   13.6363  -18.0865   25.1901 O   0  0  0  0  0  0  0  0  0  0  0  0
  2 13  1  0
  2  1  1  1
  3  2  1  0
  4  3  1  0
  4  5  2  0
  6  5  1  0
  7 12  2  0
  7  6  1  0
  8  7  1  0
  9 10  1  0
  9  8  2  0
 10 11  2  0
 11 12  1  0
 12  4  1  0
 13 14  2  0
 16 15  1  6
 17 16  1  0
 18 16  1  0
 19 18  1  1
 20 19  1  0
 20 13  1  0
 21 19  1  0
 21 22  2  0
 23 24  1  0
 25 26  1  0
 25 24  1  0
 27 26  1  1
 27 28  1  0
 27 29  1  0
 28 21  1  0
 29 30  2  0
 29 31  1  0
M  END
$$$$
