RSK.pdb
     RDKit          3D

 27 26  0  0  1  0  0  0  0  0999 V2000
   24.6986  -29.7177  -17.0764 N   0  0  0  0  0  0  0  0  0  0  0  0
   23.5549  -30.2035  -17.7438 C   0  0  0  0  0  0  0  0  0  0  0  0
   23.6532  -30.9210  -18.7919 N   0  0  0  0  0  0  0  0  0  0  0  0
   22.2683  -29.8820  -17.2688 N   0  0  0  0  0  0  0  0  0  0  0  0
   21.9654  -28.8190  -16.3465 C   0  0  0  0  0  0  0  0  0  0  0  0
   22.9666  -27.7336  -16.2647 C   0  0  0  0  0  0  0  0  0  0  0  0
   22.7503  -26.5661  -15.4033 C   0  0  0  0  0  0  0  0  0  0  0  0
   21.5691  -25.7035  -15.6509 C   0  0  2  0  0  0  0  0  0  0  0  0
   21.5335  -24.8670  -16.7731 N   0  0  0  0  0  0  0  0  0  0  0  0
   21.2240  -24.9697  -14.3742 C   0  0  0  0  0  0  0  0  0  0  0  0
   21.8106  -25.3577  -13.3363 O   0  0  0  0  0  0  0  0  0  0  0  0
   22.8869  -31.3491  -19.3447 O   0  0  0  0  0  0  0  0  0  0  0  0
   20.5652  -21.0371  -13.8266 C   0  0  0  0  0  0  0  0  0  0  0  0
   19.5037  -21.8461  -13.4108 C   0  0  2  0  0  0  0  0  0  0  0  0
   19.9915  -23.2288  -13.0497 N   0  0  0  0  0  0  0  0  0  0  0  0
   20.3114  -23.9131  -14.2917 C   0  0  0  0  0  0  0  0  0  0  0  0
   18.9897  -23.9790  -12.2467 O   0  0  0  0  0  0  0  0  0  0  0  0
   18.0485  -24.6451  -12.7010 N   0  0  0  0  0  0  0  0  0  0  0  0
   19.1305  -23.9234  -10.8317 C   0  0  1  0  0  0  0  0  0  0  0  0
   18.2021  -24.5528   -9.9369 C   0  0  0  0  0  0  0  0  0  0  0  0
   18.6450  -24.8331   -8.5597 C   0  0  0  0  0  0  0  0  0  0  0  0
   17.8006  -25.5386   -7.5997 C   0  0  0  0  0  0  0  0  0  0  0  0
   18.3359  -25.7718   -6.2266 C   0  0  0  0  0  0  0  0  0  0  0  0
   17.2376  -26.4454   -5.3951 N   0  0  0  0  0  0  0  0  0  0  0  0
   17.7801  -26.7974   -4.1053 C   0  0  0  0  0  0  0  0  0  0  0  0
   16.8396  -23.9930  -10.0400 O   0  0  0  0  0  0  0  0  0  0  0  0
   16.7108  -22.7558  -10.1451 O   0  0  0  0  0  0  0  0  0  0  0  0
  2  3  2  0
  2  1  1  0
  4  5  1  0
  4  2  1  0
  6  5  1  0
  7  6  1  0
  8  7  1  0
  8 10  1  0
  8  9  1  6
 10 11  2  0
 14 13  1  1
 13 12  1  0
 15 14  1  0
 15 10  1  0
 16 17  2  0
 16 14  1  0
 18 16  1  0
 19 25  1  0
 19 18  1  0
 19 20  1  1
 21 20  1  0
 22 21  1  0
 23 24  1  0
 23 22  1  0
 25 27  1  0
 26 25  2  0
M  END
$$$$
