RSK.pdb
     RDKit          3D

 27 26  0  0  1  0  0  0  0  0999 V2000
   17.8511  -19.1464    0.8745 N   0  0  0  0  0  0  0  0  0  0  0  0
   16.5368  -19.3792    1.3306 C   0  0  0  0  0  0  0  0  0  0  0  0
   15.8796  -20.4068    0.9634 N   0  0  0  0  0  0  0  0  0  0  0  0
   15.9136  -18.4571    2.1939 N   0  0  0  0  0  0  0  0  0  0  0  0
   16.5269  -17.8558    3.3492 C   0  0  0  0  0  0  0  0  0  0  0  0
   16.0707  -18.3679    4.6595 C   0  0  0  0  0  0  0  0  0  0  0  0
   16.4484  -17.6978    5.9085 C   0  0  0  0  0  0  0  0  0  0  0  0
   15.8523  -18.1700    7.1821 C   0  0  2  0  0  0  0  0  0  0  0  0
   14.5100  -17.8974    7.4727 N   0  0  0  0  0  0  0  0  0  0  0  0
   16.7754  -17.7978    8.3210 C   0  0  0  0  0  0  0  0  0  0  0  0
   16.4517  -16.7875    8.9889 O   0  0  0  0  0  0  0  0  0  0  0  0
   14.9157  -20.6770    1.2356 O   0  0  0  0  0  0  0  0  0  0  0  0
   20.2025  -18.9454   11.4639 C   0  0  0  0  0  0  0  0  0  0  0  0
   19.3796  -19.2919   10.3882 C   0  0  2  0  0  0  0  0  0  0  0  0
   18.8677  -18.0579    9.6843 N   0  0  0  0  0  0  0  0  0  0  0  0
   17.9374  -18.4994    8.6583 C   0  0  0  0  0  0  0  0  0  0  0  0
   19.9744  -17.2441    9.1147 O   0  0  0  0  0  0  0  0  0  0  0  0
   20.5086  -17.4194    8.0102 N   0  0  0  0  0  0  0  0  0  0  0  0
   20.4575  -16.1702    9.9136 C   0  0  1  0  0  0  0  0  0  0  0  0
   21.5469  -15.3310    9.5041 C   0  0  0  0  0  0  0  0  0  0  0  0
   21.2577  -13.9210    9.1883 C   0  0  0  0  0  0  0  0  0  0  0  0
   22.2802  -13.0134    8.6754 C   0  0  0  0  0  0  0  0  0  0  0  0
   21.8991  -11.5942    8.4172 C   0  0  0  0  0  0  0  0  0  0  0  0
   23.1077  -10.8812    7.7990 N   0  0  0  0  0  0  0  0  0  0  0  0
   22.7739   -9.4926    7.5937 C   0  0  0  0  0  0  0  0  0  0  0  0
   22.7650  -15.5402   10.3123 O   0  0  0  0  0  0  0  0  0  0  0  0
   22.6418  -15.9987   11.4667 O   0  0  0  0  0  0  0  0  0  0  0  0
  2  3  2  0
  2  1  1  0
  4  5  1  0
  4  2  1  0
  6  5  1  0
  7  6  1  0
  8  7  1  0
  8 10  1  0
  8  9  1  1
 10 11  2  0
 14 13  1  1
 13 12  1  0
 15 14  1  0
 15 10  1  0
 16 17  2  0
 16 14  1  0
 18 16  1  0
 19 25  1  0
 19 18  1  0
 19 20  1  1
 21 20  1  0
 22 21  1  0
 23 24  1  0
 23 22  1  0
 25 27  1  0
 26 25  2  0
M  END
$$$$
