RSK.pdb
     RDKit          3D

 27 26  0  0  1  0  0  0  0  0999 V2000
   28.9236  -20.2846  -11.7419 N   0  0  0  0  0  0  0  0  0  0  0  0
   29.0132  -21.2770  -10.7436 C   0  0  0  0  0  0  0  0  0  0  0  0
   30.1391  -21.7368  -10.3646 N   0  0  0  0  0  0  0  0  0  0  0  0
   27.8435  -21.7980  -10.1566 N   0  0  0  0  0  0  0  0  0  0  0  0
   26.4990  -21.4844  -10.5648 C   0  0  0  0  0  0  0  0  0  0  0  0
   26.3720  -20.6969  -11.8102 C   0  0  0  0  0  0  0  0  0  0  0  0
   25.2717  -20.9371  -12.7500 C   0  0  0  0  0  0  0  0  0  0  0  0
   25.5329  -21.7467  -13.9652 C   0  0  2  0  0  0  0  0  0  0  0  0
   26.5262  -21.3539  -14.8705 N   0  0  0  0  0  0  0  0  0  0  0  0
   24.2158  -22.0421  -14.6477 C   0  0  0  0  0  0  0  0  0  0  0  0
   23.6792  -21.0850  -15.2542 O   0  0  0  0  0  0  0  0  0  0  0  0
   30.3201  -22.4811   -9.6650 O   0  0  0  0  0  0  0  0  0  0  0  0
   22.0627  -25.4858  -13.9427 C   0  0  0  0  0  0  0  0  0  0  0  0
   22.0960  -25.0474  -15.2697 C   0  0  1  0  0  0  0  0  0  0  0  0
   22.3371  -23.5583  -15.3374 N   0  0  0  0  0  0  0  0  0  0  0  0
   23.5824  -23.2890  -14.6377 C   0  0  0  0  0  0  0  0  0  0  0  0
   21.2027  -22.7853  -14.7655 O   0  0  0  0  0  0  0  0  0  0  0  0
   21.0625  -22.4793  -13.5728 N   0  0  0  0  0  0  0  0  0  0  0  0
   20.1924  -22.3622  -15.6741 C   0  0  1  0  0  0  0  0  0  0  0  0
   19.0716  -21.5640  -15.2672 C   0  0  0  0  0  0  0  0  0  0  0  0
   18.6188  -20.4904  -16.1692 C   0  0  0  0  0  0  0  0  0  0  0  0
   19.2407  -19.1692  -16.1793 C   0  0  0  0  0  0  0  0  0  0  0  0
   20.1047  -18.8046  -17.3397 C   0  0  0  0  0  0  0  0  0  0  0  0
   20.7231  -17.4296  -17.0599 N   0  0  0  0  0  0  0  0  0  0  0  0
   21.6148  -17.0913  -18.1425 C   0  0  0  0  0  0  0  0  0  0  0  0
   17.9825  -22.3669  -14.6757 O   0  0  0  0  0  0  0  0  0  0  0  0
   17.9080  -23.5776  -14.9703 O   0  0  0  0  0  0  0  0  0  0  0  0
  2  3  2  0
  2  1  1  0
  4  5  1  0
  4  2  1  0
  6  5  1  0
  7  6  1  0
  8  7  1  0
  8 10  1  0
  8  9  1  6
 10 11  2  0
 14 13  1  6
 13 12  1  0
 15 14  1  0
 15 10  1  0
 16 17  2  0
 16 14  1  0
 18 16  1  0
 19 25  1  0
 19 18  1  0
 19 20  1  1
 21 20  1  0
 22 21  1  0
 23 24  1  0
 23 22  1  0
 25 27  1  0
 26 25  2  0
M  END
$$$$
