RSK.pdb
     RDKit          3D

 27 26  0  0  1  0  0  0  0  0999 V2000
   23.7530  -18.6339  -20.4695 N   0  0  0  0  0  0  0  0  0  0  0  0
   22.6648  -17.7429  -20.3614 C   0  0  0  0  0  0  0  0  0  0  0  0
   21.8224  -17.6071  -21.3073 N   0  0  0  0  0  0  0  0  0  0  0  0
   22.5013  -16.9632  -19.1998 N   0  0  0  0  0  0  0  0  0  0  0  0
   22.9284  -17.3424  -17.8783 C   0  0  0  0  0  0  0  0  0  0  0  0
   22.2483  -18.5191  -17.2954 C   0  0  0  0  0  0  0  0  0  0  0  0
   22.4846  -18.9192  -15.9041 C   0  0  0  0  0  0  0  0  0  0  0  0
   23.2864  -20.1383  -15.6367 C   0  0  2  0  0  0  0  0  0  0  0  0
   23.7173  -20.9422  -16.6989 N   0  0  0  0  0  0  0  0  0  0  0  0
   22.6093  -20.9387  -14.5463 C   0  0  0  0  0  0  0  0  0  0  0  0
   22.2752  -22.1096  -14.8448 O   0  0  0  0  0  0  0  0  0  0  0  0
   20.9915  -16.9867  -21.3356 O   0  0  0  0  0  0  0  0  0  0  0  0
   21.5635  -21.4122   -9.8416 C   0  0  0  0  0  0  0  0  0  0  0  0
   22.1375  -20.6929  -10.8940 C   0  0  2  0  0  0  0  0  0  0  0  0
   21.6986  -21.2495  -12.2273 N   0  0  0  0  0  0  0  0  0  0  0  0
   22.3430  -20.4562  -13.2609 C   0  0  0  0  0  0  0  0  0  0  0  0
   20.2184  -21.2473  -12.3701 O   0  0  0  0  0  0  0  0  0  0  0  0
   19.5314  -20.3011  -12.7808 N   0  0  0  0  0  0  0  0  0  0  0  0
   19.5368  -22.4408  -12.0011 C   0  0  2  0  0  0  0  0  0  0  0  0
   18.1092  -22.5079  -11.8734 C   0  0  0  0  0  0  0  0  0  0  0  0
   17.5433  -23.4321  -10.8749 C   0  0  0  0  0  0  0  0  0  0  0  0
   16.1036  -23.5913  -10.6905 C   0  0  0  0  0  0  0  0  0  0  0  0
   15.6242  -24.6590   -9.7651 C   0  0  0  0  0  0  0  0  0  0  0  0
   14.0914  -24.6189   -9.7446 N   0  0  0  0  0  0  0  0  0  0  0  0
   13.6115  -25.6314   -8.8356 C   0  0  0  0  0  0  0  0  0  0  0  0
   17.4687  -21.1779  -11.9091 O   0  0  0  0  0  0  0  0  0  0  0  0
   17.7978  -20.3355  -11.0487 O   0  0  0  0  0  0  0  0  0  0  0  0
  2  3  2  0
  2  1  1  0
  4  5  1  0
  4  2  1  0
  6  5  1  0
  7  6  1  0
  8  7  1  0
  8 10  1  0
  8  9  1  6
 10 11  2  0
 14 13  1  1
 13 12  1  0
 15 14  1  0
 15 10  1  0
 16 17  2  0
 16 14  1  0
 18 16  1  0
 19 25  1  0
 19 18  1  0
 19 20  1  1
 21 20  1  0
 22 21  1  0
 23 24  1  0
 23 22  1  0
 25 27  1  0
 26 25  2  0
M  END
$$$$
