RSK.pdb
     RDKit          3D

 27 26  0  0  1  0  0  0  0  0999 V2000
   18.2047  -24.4014   -5.8416 N   0  0  0  0  0  0  0  0  0  0  0  0
   18.1477  -25.6761   -6.4428 C   0  0  0  0  0  0  0  0  0  0  0  0
   17.5899  -26.6609   -5.8582 N   0  0  0  0  0  0  0  0  0  0  0  0
   18.7323  -25.8893   -7.7065 N   0  0  0  0  0  0  0  0  0  0  0  0
   19.3333  -24.8697   -8.5261 C   0  0  0  0  0  0  0  0  0  0  0  0
   18.5327  -24.4220   -9.6861 C   0  0  0  0  0  0  0  0  0  0  0  0
   18.9836  -23.3152  -10.5366 C   0  0  0  0  0  0  0  0  0  0  0  0
   19.1702  -21.9754   -9.9278 C   0  0  2  0  0  0  0  0  0  0  0  0
   18.1196  -21.3698   -9.2279 N   0  0  0  0  0  0  0  0  0  0  0  0
   19.7843  -21.0525  -10.9568 C   0  0  0  0  0  0  0  0  0  0  0  0
   19.0073  -20.2306  -11.4977 O   0  0  0  0  0  0  0  0  0  0  0  0
   17.0025  -26.6443   -5.0033 O   0  0  0  0  0  0  0  0  0  0  0  0
   23.4920  -21.7225  -12.7125 C   0  0  0  0  0  0  0  0  0  0  0  0
   23.1872  -20.4074  -12.3494 C   0  0  1  0  0  0  0  0  0  0  0  0
   21.6936  -20.1859  -12.3380 N   0  0  0  0  0  0  0  0  0  0  0  0
   21.1329  -21.0673  -11.3272 C   0  0  0  0  0  0  0  0  0  0  0  0
   21.0869  -20.4208  -13.6752 O   0  0  0  0  0  0  0  0  0  0  0  0
   20.1799  -21.2266  -13.9281 N   0  0  0  0  0  0  0  0  0  0  0  0
   21.5975  -19.6481  -14.7557 C   0  0  1  0  0  0  0  0  0  0  0  0
   20.7859  -19.2415  -15.8668 C   0  0  0  0  0  0  0  0  0  0  0  0
   19.5885  -18.4279  -15.5922 C   0  0  0  0  0  0  0  0  0  0  0  0
   18.3269  -18.6381  -16.2969 C   0  0  0  0  0  0  0  0  0  0  0  0
   17.4339  -19.7394  -15.8323 C   0  0  0  0  0  0  0  0  0  0  0  0
   16.2216  -19.7972  -16.7696 N   0  0  0  0  0  0  0  0  0  0  0  0
   15.3636  -20.8804  -16.3544 C   0  0  0  0  0  0  0  0  0  0  0  0
   21.5848  -18.7849  -17.0217 O   0  0  0  0  0  0  0  0  0  0  0  0
   21.1153  -18.9381  -18.1682 O   0  0  0  0  0  0  0  0  0  0  0  0
  2  3  2  0
  2  1  1  0
  4  5  1  0
  4  2  1  0
  6  5  1  0
  7  6  1  0
  8  7  1  0
  8 10  1  0
  8  9  1  6
 10 11  2  0
 14 13  1  1
 13 12  1  0
 15 14  1  0
 15 10  1  0
 16 17  2  0
 16 14  1  0
 18 16  1  0
 19 25  1  0
 19 18  1  0
 19 20  1  6
 21 20  1  0
 22 21  1  0
 23 24  1  0
 23 22  1  0
 25 27  1  0
 26 25  2  0
M  END
$$$$
