RSK.pdb
     RDKit          3D

 27 26  0  0  1  0  0  0  0  0999 V2000
   28.9357   -9.5726  -23.4275 N   0  0  0  0  0  0  0  0  0  0  0  0
   29.2074  -10.9369  -23.6607 C   0  0  0  0  0  0  0  0  0  0  0  0
   30.2273  -11.3052  -24.3292 N   0  0  0  0  0  0  0  0  0  0  0  0
   28.3333  -11.9265  -23.1700 N   0  0  0  0  0  0  0  0  0  0  0  0
   27.3234  -11.7183  -22.1654 C   0  0  0  0  0  0  0  0  0  0  0  0
   27.5606  -12.3852  -20.8670 C   0  0  0  0  0  0  0  0  0  0  0  0
   26.5622  -12.3316  -19.7936 C   0  0  0  0  0  0  0  0  0  0  0  0
   26.8340  -13.0545  -18.5272 C   0  0  2  0  0  0  0  0  0  0  0  0
   26.8209  -14.4544  -18.5010 N   0  0  0  0  0  0  0  0  0  0  0  0
   25.9884  -12.4499  -17.4285 C   0  0  0  0  0  0  0  0  0  0  0  0
   25.0055  -13.1292  -17.0485 O   0  0  0  0  0  0  0  0  0  0  0  0
   30.5299  -12.2731  -24.5477 O   0  0  0  0  0  0  0  0  0  0  0  0
   27.3705   -9.5348  -14.9663 C   0  0  0  0  0  0  0  0  0  0  0  0
   26.3182  -10.3772  -14.5957 C   0  0  1  0  0  0  0  0  0  0  0  0
   25.4120  -10.6538  -15.7714 N   0  0  0  0  0  0  0  0  0  0  0  0
   26.2363  -11.2094  -16.8320 C   0  0  0  0  0  0  0  0  0  0  0  0
   24.6889   -9.4324  -16.2147 O   0  0  0  0  0  0  0  0  0  0  0  0
   25.0912   -8.6178  -17.0576 N   0  0  0  0  0  0  0  0  0  0  0  0
   23.4230   -9.1833  -15.6143 C   0  0  1  0  0  0  0  0  0  0  0  0
   22.6206   -8.0414  -15.9472 C   0  0  0  0  0  0  0  0  0  0  0  0
   21.2819   -8.2747  -16.5172 C   0  0  0  0  0  0  0  0  0  0  0  0
   20.3967   -7.1775  -16.8978 C   0  0  0  0  0  0  0  0  0  0  0  0
   19.0711   -7.5144  -17.4941 C   0  0  0  0  0  0  0  0  0  0  0  0
   18.3461   -6.2021  -17.8160 N   0  0  0  0  0  0  0  0  0  0  0  0
   17.1832   -6.4974  -18.6174 C   0  0  0  0  0  0  0  0  0  0  0  0
   22.6714   -6.9863  -14.9154 O   0  0  0  0  0  0  0  0  0  0  0  0
   22.7921   -7.3274  -13.7207 O   0  0  0  0  0  0  0  0  0  0  0  0
  2  3  2  0
  2  1  1  0
  4  5  1  0
  4  2  1  0
  6  5  1  0
  7  6  1  0
  8  7  1  0
  8 10  1  0
  8  9  1  6
 10 11  2  0
 14 13  1  1
 13 12  1  0
 15 14  1  0
 15 10  1  0
 16 17  2  0
 16 14  1  0
 18 16  1  0
 19 25  1  0
 19 18  1  0
 19 20  1  1
 21 20  1  0
 22 21  1  0
 23 24  1  0
 23 22  1  0
 25 27  1  0
 26 25  2  0
M  END
$$$$
