RSK.pdb
     RDKit          3D

 27 26  0  0  1  0  0  0  0  0999 V2000
   29.7769  -36.1763  -15.2651 N   0  0  0  0  0  0  0  0  0  0  0  0
   29.0320  -36.2375  -16.4613 C   0  0  0  0  0  0  0  0  0  0  0  0
   28.2261  -37.1965  -16.6924 N   0  0  0  0  0  0  0  0  0  0  0  0
   29.1844  -35.2376  -17.4417 N   0  0  0  0  0  0  0  0  0  0  0  0
   30.0506  -34.0930  -17.3328 C   0  0  0  0  0  0  0  0  0  0  0  0
   29.4981  -32.9360  -16.5958 C   0  0  0  0  0  0  0  0  0  0  0  0
   30.2354  -31.6710  -16.5077 C   0  0  0  0  0  0  0  0  0  0  0  0
   29.6812  -30.4716  -17.1821 C   0  0  2  0  0  0  0  0  0  0  0  0
   28.2969  -30.3296  -17.3363 N   0  0  0  0  0  0  0  0  0  0  0  0
   30.4309  -30.2491  -18.4768 C   0  0  0  0  0  0  0  0  0  0  0  0
   29.7290  -30.0494  -19.4962 O   0  0  0  0  0  0  0  0  0  0  0  0
   27.6678  -37.3664  -17.5501 O   0  0  0  0  0  0  0  0  0  0  0  0
   34.5583  -30.4225  -18.6543 C   0  0  0  0  0  0  0  0  0  0  0  0
   33.9074  -29.5225  -19.5032 C   0  0  1  0  0  0  0  0  0  0  0  0
   32.5218  -30.0146  -19.8469 N   0  0  0  0  0  0  0  0  0  0  0  0
   31.8246  -30.2551  -18.5943 C   0  0  0  0  0  0  0  0  0  0  0  0
   32.5605  -31.2312  -20.7012 O   0  0  0  0  0  0  0  0  0  0  0  0
   32.5072  -32.4018  -20.2980 N   0  0  0  0  0  0  0  0  0  0  0  0
   32.6677  -31.0256  -22.1053 C   0  0  1  0  0  0  0  0  0  0  0  0
   32.6212  -32.1041  -23.0504 C   0  0  0  0  0  0  0  0  0  0  0  0
   31.9269  -31.8775  -24.3303 C   0  0  0  0  0  0  0  0  0  0  0  0
   30.5447  -31.4109  -24.3933 C   0  0  0  0  0  0  0  0  0  0  0  0
   29.9166  -31.2437  -25.7363 C   0  0  0  0  0  0  0  0  0  0  0  0
   28.4865  -30.7292  -25.5328 N   0  0  0  0  0  0  0  0  0  0  0  0
   27.8452  -30.6154  -26.8203 C   0  0  0  0  0  0  0  0  0  0  0  0
   33.9096  -32.8154  -23.1703 O   0  0  0  0  0  0  0  0  0  0  0  0
   33.9672  -33.8231  -23.9048 O   0  0  0  0  0  0  0  0  0  0  0  0
  2  3  2  0
  2  1  1  0
  4  5  1  0
  4  2  1  0
  6  5  1  0
  7  6  1  0
  8  7  1  0
  8 10  1  0
  8  9  1  6
 10 11  2  0
 14 13  1  6
 13 12  1  0
 15 14  1  0
 15 10  1  0
 16 17  2  0
 16 14  1  0
 18 16  1  0
 19 25  1  0
 19 18  1  0
 19 20  1  6
 21 20  1  0
 22 21  1  0
 23 24  1  0
 23 22  1  0
 25 27  1  0
 26 25  2  0
M  END
$$$$
