RSK.pdb
     RDKit          3D

 27 26  0  0  1  0  0  0  0  0999 V2000
   15.2492  -13.6900  -14.6058 N   0  0  0  0  0  0  0  0  0  0  0  0
   14.1680  -13.0217  -15.2173 C   0  0  0  0  0  0  0  0  0  0  0  0
   12.9994  -13.5286  -15.2349 N   0  0  0  0  0  0  0  0  0  0  0  0
   14.3692  -11.7768  -15.8449 N   0  0  0  0  0  0  0  0  0  0  0  0
   15.6156  -11.0575  -15.8821 C   0  0  0  0  0  0  0  0  0  0  0  0
   16.1040  -10.5493  -14.5819 C   0  0  0  0  0  0  0  0  0  0  0  0
   16.5014   -9.1470  -14.4170 C   0  0  0  0  0  0  0  0  0  0  0  0
   17.8875   -8.8423  -13.9853 C   0  0  2  0  0  0  0  0  0  0  0  0
   18.8935   -9.8065  -14.1222 N   0  0  0  0  0  0  0  0  0  0  0  0
   17.8464   -8.2461  -12.5958 C   0  0  0  0  0  0  0  0  0  0  0  0
   17.3537   -8.9685  -11.6973 O   0  0  0  0  0  0  0  0  0  0  0  0
   12.1385  -13.1295  -15.6541 O   0  0  0  0  0  0  0  0  0  0  0  0
   18.2863   -4.1696  -11.8949 C   0  0  0  0  0  0  0  0  0  0  0  0
   18.8701   -5.0429  -10.9727 C   0  0  1  0  0  0  0  0  0  0  0  0
   18.1472   -6.3685  -10.9562 N   0  0  0  0  0  0  0  0  0  0  0  0
   18.3138   -6.9689  -12.2695 C   0  0  0  0  0  0  0  0  0  0  0  0
   16.7127   -6.2144  -10.5961 O   0  0  0  0  0  0  0  0  0  0  0  0
   15.7560   -6.2954  -11.3798 N   0  0  0  0  0  0  0  0  0  0  0  0
   16.4195   -5.9513   -9.2287 C   0  0  1  0  0  0  0  0  0  0  0  0
   15.0906   -5.6781   -8.7615 C   0  0  0  0  0  0  0  0  0  0  0  0
   14.3385   -6.7738   -8.1250 C   0  0  0  0  0  0  0  0  0  0  0  0
   12.9884   -6.5882   -7.6004 C   0  0  0  0  0  0  0  0  0  0  0  0
   12.3427   -7.7320   -6.8927 C   0  0  0  0  0  0  0  0  0  0  0  0
   10.9963   -7.2506   -6.3385 N   0  0  0  0  0  0  0  0  0  0  0  0
   10.3103   -8.3718   -5.7435 C   0  0  0  0  0  0  0  0  0  0  0  0
   14.9841   -4.3787   -8.0682 O   0  0  0  0  0  0  0  0  0  0  0  0
   15.9932   -3.9300   -7.4863 O   0  0  0  0  0  0  0  0  0  0  0  0
  2  3  2  0
  2  1  1  0
  4  5  1  0
  4  2  1  0
  6  5  1  0
  7  6  1  0
  8  7  1  0
  8 10  1  0
  8  9  1  1
 10 11  2  0
 14 13  1  1
 13 12  1  0
 15 14  1  0
 15 10  1  0
 16 17  2  0
 16 14  1  0
 18 16  1  0
 19 25  1  0
 19 18  1  0
 19 20  1  6
 21 20  1  0
 22 21  1  0
 23 24  1  0
 23 22  1  0
 25 27  1  0
 26 25  2  0
M  END
$$$$
