RSK.pdb
     RDKit          3D

 27 26  0  0  1  0  0  0  0  0999 V2000
   25.3633  -21.6368   -8.0106 N   0  0  0  0  0  0  0  0  0  0  0  0
   24.1295  -21.4909   -8.6784 C   0  0  0  0  0  0  0  0  0  0  0  0
   23.0442  -21.3137   -8.0353 N   0  0  0  0  0  0  0  0  0  0  0  0
   24.0731  -21.5605  -10.0841 N   0  0  0  0  0  0  0  0  0  0  0  0
   25.2146  -21.6253  -10.9588 C   0  0  0  0  0  0  0  0  0  0  0  0
   25.9075  -20.3428  -11.2081 C   0  0  0  0  0  0  0  0  0  0  0  0
   26.9949  -20.2466  -12.1879 C   0  0  0  0  0  0  0  0  0  0  0  0
   26.6622  -20.2937  -13.6327 C   0  0  2  0  0  0  0  0  0  0  0  0
   27.0958  -21.3685  -14.4184 N   0  0  0  0  0  0  0  0  0  0  0  0
   26.9937  -18.9552  -14.2542 C   0  0  0  0  0  0  0  0  0  0  0  0
   28.2067  -18.6389  -14.2740 O   0  0  0  0  0  0  0  0  0  0  0  0
   22.0915  -21.1728   -8.4208 O   0  0  0  0  0  0  0  0  0  0  0  0
   26.7524  -17.4270  -17.6444 C   0  0  0  0  0  0  0  0  0  0  0  0
   27.3938  -17.0356  -16.4656 C   0  0  1  0  0  0  0  0  0  0  0  0
   26.3901  -16.7861  -15.3654 N   0  0  0  0  0  0  0  0  0  0  0  0
   26.0471  -18.0769  -14.7914 C   0  0  0  0  0  0  0  0  0  0  0  0
   25.1885  -16.0649  -15.8628 O   0  0  0  0  0  0  0  0  0  0  0  0
   24.2028  -16.5859  -16.4039 N   0  0  0  0  0  0  0  0  0  0  0  0
   25.1758  -14.6513  -15.6991 C   0  0  1  0  0  0  0  0  0  0  0  0
   24.0893  -13.8303  -16.1512 C   0  0  0  0  0  0  0  0  0  0  0  0
   24.0531  -12.4232  -15.7154 C   0  0  0  0  0  0  0  0  0  0  0  0
   23.0100  -11.9091  -14.8323 C   0  0  0  0  0  0  0  0  0  0  0  0
   22.9953  -10.4474  -14.5333 C   0  0  0  0  0  0  0  0  0  0  0  0
   21.7762  -10.1537  -13.6507 N   0  0  0  0  0  0  0  0  0  0  0  0
   21.8176   -8.7697  -13.2454 C   0  0  0  0  0  0  0  0  0  0  0  0
   23.7711  -14.0378  -17.5781 O   0  0  0  0  0  0  0  0  0  0  0  0
   24.7037  -14.3070  -18.3629 O   0  0  0  0  0  0  0  0  0  0  0  0
  2  3  2  0
  2  1  1  0
  4  5  1  0
  4  2  1  0
  6  5  1  0
  7  6  1  0
  8  7  1  0
  8 10  1  0
  8  9  1  6
 10 11  2  0
 14 13  1  1
 13 12  1  0
 15 14  1  0
 15 10  1  0
 16 17  2  0
 16 14  1  0
 18 16  1  0
 19 25  1  0
 19 18  1  0
 19 20  1  6
 21 20  1  0
 22 21  1  0
 23 24  1  0
 23 22  1  0
 25 27  1  0
 26 25  2  0
M  END
$$$$
