RSK.pdb
     RDKit          3D

 27 26  0  0  1  0  0  0  0  0999 V2000
   16.9838  -31.5170   -4.0935 N   0  0  0  0  0  0  0  0  0  0  0  0
   17.4812  -31.6036   -2.7764 C   0  0  0  0  0  0  0  0  0  0  0  0
   18.3065  -32.5128   -2.4376 N   0  0  0  0  0  0  0  0  0  0  0  0
   17.0521  -30.6874   -1.7963 N   0  0  0  0  0  0  0  0  0  0  0  0
   16.1375  -29.5987   -2.0211 C   0  0  0  0  0  0  0  0  0  0  0  0
   16.7093  -28.4033   -2.6779 C   0  0  0  0  0  0  0  0  0  0  0  0
   15.9307  -27.1675   -2.8135 C   0  0  0  0  0  0  0  0  0  0  0  0
   16.5389  -26.0128   -3.5186 C   0  0  2  0  0  0  0  0  0  0  0  0
   17.9040  -26.0197   -3.8297 N   0  0  0  0  0  0  0  0  0  0  0  0
   16.1124  -24.7377   -2.8258 C   0  0  0  0  0  0  0  0  0  0  0  0
   16.9272  -24.2540   -2.0049 O   0  0  0  0  0  0  0  0  0  0  0  0
   18.7442  -32.6615   -1.5089 O   0  0  0  0  0  0  0  0  0  0  0  0
   12.3836  -23.2442   -3.3497 C   0  0  0  0  0  0  0  0  0  0  0  0
   13.3707  -22.2601   -3.2427 C   0  0  1  0  0  0  0  0  0  0  0  0
   14.5717  -22.7835   -2.4918 N   0  0  0  0  0  0  0  0  0  0  0  0
   14.8928  -24.0890   -3.0446 C   0  0  0  0  0  0  0  0  0  0  0  0
   14.3259  -22.8481   -1.0267 O   0  0  0  0  0  0  0  0  0  0  0  0
   14.0088  -23.8624   -0.3891 N   0  0  0  0  0  0  0  0  0  0  0  0
   14.4698  -21.6341   -0.2982 C   0  0  1  0  0  0  0  0  0  0  0  0
   14.3938  -21.5779    1.1336 C   0  0  0  0  0  0  0  0  0  0  0  0
   15.4270  -20.8141    1.8551 C   0  0  0  0  0  0  0  0  0  0  0  0
   15.3985  -20.6450    3.3052 C   0  0  0  0  0  0  0  0  0  0  0  0
   16.5477  -19.9526    3.9578 C   0  0  0  0  0  0  0  0  0  0  0  0
   16.3487  -20.0269    5.4765 N   0  0  0  0  0  0  0  0  0  0  0  0
   17.5007  -19.4497    6.1256 C   0  0  0  0  0  0  0  0  0  0  0  0
   13.0182  -21.3628    1.6252 O   0  0  0  0  0  0  0  0  0  0  0  0
   12.7209  -21.7799    2.7636 O   0  0  0  0  0  0  0  0  0  0  0  0
  2  3  2  0
  2  1  1  0
  4  5  1  0
  4  2  1  0
  6  5  1  0
  7  6  1  0
  8  7  1  0
  8 10  1  0
  8  9  1  1
 10 11  2  0
 14 13  1  6
 13 12  1  0
 15 14  1  0
 15 10  1  0
 16 17  2  0
 16 14  1  0
 18 16  1  0
 19 25  1  0
 19 18  1  0
 19 20  1  1
 21 20  1  0
 22 21  1  0
 23 24  1  0
 23 22  1  0
 25 27  1  0
 26 25  2  0
M  END
$$$$
