RSK.pdb
     RDKit          3D

 27 26  0  0  1  0  0  0  0  0999 V2000
   21.0812  -15.8758  -22.3689 N   0  0  0  0  0  0  0  0  0  0  0  0
   20.7383  -14.9821  -23.4048 C   0  0  0  0  0  0  0  0  0  0  0  0
   20.2576  -15.3989  -24.5084 N   0  0  0  0  0  0  0  0  0  0  0  0
   20.9438  -13.5981  -23.2423 N   0  0  0  0  0  0  0  0  0  0  0  0
   21.5087  -12.9740  -22.0745 C   0  0  0  0  0  0  0  0  0  0  0  0
   20.5363  -12.4369  -21.0982 C   0  0  0  0  0  0  0  0  0  0  0  0
   20.9837  -11.7881  -19.8611 C   0  0  0  0  0  0  0  0  0  0  0  0
   22.0004  -12.4698  -19.0231 C   0  0  2  0  0  0  0  0  0  0  0  0
   21.8325  -13.8143  -18.6703 N   0  0  0  0  0  0  0  0  0  0  0  0
   22.3150  -11.5959  -17.8294 C   0  0  0  0  0  0  0  0  0  0  0  0
   21.4355  -11.5382  -16.9378 O   0  0  0  0  0  0  0  0  0  0  0  0
   19.9341  -14.8338  -25.3159 O   0  0  0  0  0  0  0  0  0  0  0  0
   25.4948   -8.6667  -15.5790 C   0  0  0  0  0  0  0  0  0  0  0  0
   25.1861   -9.5452  -16.6216 C   0  0  2  0  0  0  0  0  0  0  0  0
   23.7318   -9.9482  -16.5715 N   0  0  0  0  0  0  0  0  0  0  0  0
   23.4996  -10.8692  -17.6720 C   0  0  0  0  0  0  0  0  0  0  0  0
   22.8264   -8.7703  -16.6354 O   0  0  0  0  0  0  0  0  0  0  0  0
   22.4497   -8.2010  -17.6698 N   0  0  0  0  0  0  0  0  0  0  0  0
   22.3540   -8.2567  -15.3952 C   0  0  1  0  0  0  0  0  0  0  0  0
   21.5352   -7.0817  -15.3065 C   0  0  0  0  0  0  0  0  0  0  0  0
   20.1135   -7.1956  -15.6768 C   0  0  0  0  0  0  0  0  0  0  0  0
   19.2063   -6.0520  -15.6401 C   0  0  0  0  0  0  0  0  0  0  0  0
   17.7915   -6.2592  -16.0664 C   0  0  0  0  0  0  0  0  0  0  0  0
   17.0225   -4.9566  -15.8153 N   0  0  0  0  0  0  0  0  0  0  0  0
   15.6668   -5.1192  -16.2817 C   0  0  0  0  0  0  0  0  0  0  0  0
   21.7876   -6.3001  -14.0794 O   0  0  0  0  0  0  0  0  0  0  0  0
   22.4267   -6.8382  -13.1519 O   0  0  0  0  0  0  0  0  0  0  0  0
  2  3  2  0
  2  1  1  0
  4  5  1  0
  4  2  1  0
  6  5  1  0
  7  6  1  0
  8  7  1  0
  8 10  1  0
  8  9  1  1
 10 11  2  0
 14 13  1  1
 13 12  1  0
 15 14  1  0
 15 10  1  0
 16 17  2  0
 16 14  1  0
 18 16  1  0
 19 25  1  0
 19 18  1  0
 19 20  1  1
 21 20  1  0
 22 21  1  0
 23 24  1  0
 23 22  1  0
 25 27  1  0
 26 25  2  0
M  END
$$$$
