RSK.pdb
     RDKit          3D

 27 26  0  0  1  0  0  0  0  0999 V2000
   23.6414  -20.3995  -20.0781 N   0  0  0  0  0  0  0  0  0  0  0  0
   24.0342  -19.0449  -20.0962 C   0  0  0  0  0  0  0  0  0  0  0  0
   23.9692  -18.3496  -21.1617 N   0  0  0  0  0  0  0  0  0  0  0  0
   24.5310  -18.4365  -18.9270 N   0  0  0  0  0  0  0  0  0  0  0  0
   24.6990  -19.0926  -17.6567 C   0  0  0  0  0  0  0  0  0  0  0  0
   23.4724  -19.6654  -17.0613 C   0  0  0  0  0  0  0  0  0  0  0  0
   23.5047  -20.3362  -15.7572 C   0  0  0  0  0  0  0  0  0  0  0  0
   24.2343  -19.6906  -14.6385 C   0  0  2  0  0  0  0  0  0  0  0  0
   25.5907  -19.3718  -14.7762 N   0  0  0  0  0  0  0  0  0  0  0  0
   23.9482  -20.4534  -13.3641 C   0  0  0  0  0  0  0  0  0  0  0  0
   23.0811  -21.3555  -13.4412 O   0  0  0  0  0  0  0  0  0  0  0  0
   24.2508  -17.3601  -21.2944 O   0  0  0  0  0  0  0  0  0  0  0  0
   24.8679  -21.0026   -8.6041 C   0  0  0  0  0  0  0  0  0  0  0  0
   25.1585  -20.3988   -9.8309 C   0  0  1  0  0  0  0  0  0  0  0  0
   24.2587  -20.9334  -10.9193 N   0  0  0  0  0  0  0  0  0  0  0  0
   24.5801  -20.2124  -12.1399 C   0  0  0  0  0  0  0  0  0  0  0  0
   22.8204  -20.8057  -10.5636 O   0  0  0  0  0  0  0  0  0  0  0  0
   22.1400  -19.7739  -10.6553 N   0  0  0  0  0  0  0  0  0  0  0  0
   22.1742  -21.9759  -10.0757 C   0  0  1  0  0  0  0  0  0  0  0  0
   20.7787  -22.0070   -9.7433 C   0  0  0  0  0  0  0  0  0  0  0  0
   19.8285  -22.4614  -10.7738 C   0  0  0  0  0  0  0  0  0  0  0  0
   18.3853  -22.4691  -10.5516 C   0  0  0  0  0  0  0  0  0  0  0  0
   17.5005  -22.8967  -11.6743 C   0  0  0  0  0  0  0  0  0  0  0  0
   16.0523  -22.8858  -11.1705 N   0  0  0  0  0  0  0  0  0  0  0  0
   15.1761  -23.2255  -12.2652 C   0  0  0  0  0  0  0  0  0  0  0  0
   20.5244  -22.5497   -8.3937 O   0  0  0  0  0  0  0  0  0  0  0  0
   21.4420  -23.1713   -7.8195 O   0  0  0  0  0  0  0  0  0  0  0  0
  2  3  2  0
  2  1  1  0
  4  5  1  0
  4  2  1  0
  6  5  1  0
  7  6  1  0
  8  7  1  0
  8 10  1  0
  8  9  1  6
 10 11  2  0
 14 13  1  6
 13 12  1  0
 15 14  1  0
 15 10  1  0
 16 17  2  0
 16 14  1  0
 18 16  1  0
 19 25  1  0
 19 18  1  0
 19 20  1  1
 21 20  1  0
 22 21  1  0
 23 24  1  0
 23 22  1  0
 25 27  1  0
 26 25  2  0
M  END
$$$$
