RSK.pdb
     RDKit          3D

 27 26  0  0  1  0  0  0  0  0999 V2000
   21.8766  -20.7127  -10.6668 N   0  0  0  0  0  0  0  0  0  0  0  0
   22.2069  -21.1441   -9.3652 C   0  0  0  0  0  0  0  0  0  0  0  0
   21.3343  -21.1831   -8.4380 N   0  0  0  0  0  0  0  0  0  0  0  0
   23.5285  -21.5239   -9.0596 N   0  0  0  0  0  0  0  0  0  0  0  0
   24.6535  -21.4052   -9.9499 C   0  0  0  0  0  0  0  0  0  0  0  0
   25.2459  -20.0547  -10.0616 C   0  0  0  0  0  0  0  0  0  0  0  0
   26.3302  -19.7787  -11.0100 C   0  0  0  0  0  0  0  0  0  0  0  0
   26.8604  -20.8922  -11.8343 C   0  0  2  0  0  0  0  0  0  0  0  0
   28.1735  -21.3407  -11.6472 N   0  0  0  0  0  0  0  0  0  0  0  0
   26.5477  -20.6156  -13.2880 C   0  0  0  0  0  0  0  0  0  0  0  0
   27.1933  -19.6854  -13.8263 O   0  0  0  0  0  0  0  0  0  0  0  0
   21.4612  -21.4952   -7.4569 O   0  0  0  0  0  0  0  0  0  0  0  0
   26.8712  -22.8531  -15.9629 C   0  0  0  0  0  0  0  0  0  0  0  0
   25.5788  -22.3694  -16.1865 C   0  0  2  0  0  0  0  0  0  0  0  0
   25.3576  -21.0688  -15.4519 N   0  0  0  0  0  0  0  0  0  0  0  0
   25.6038  -21.3208  -14.0416 C   0  0  0  0  0  0  0  0  0  0  0  0
   23.9943  -20.5232  -15.6868 O   0  0  0  0  0  0  0  0  0  0  0  0
   23.0092  -20.6939  -14.9544 N   0  0  0  0  0  0  0  0  0  0  0  0
   23.8119  -19.7356  -16.8580 C   0  0  1  0  0  0  0  0  0  0  0  0
   22.5533  -19.1368  -17.1988 C   0  0  0  0  0  0  0  0  0  0  0  0
   22.5580  -17.9827  -18.1150 C   0  0  0  0  0  0  0  0  0  0  0  0
   23.3097  -16.7643  -17.8272 C   0  0  0  0  0  0  0  0  0  0  0  0
   23.2709  -15.6581  -18.8276 C   0  0  0  0  0  0  0  0  0  0  0  0
   24.1829  -14.5313  -18.3277 N   0  0  0  0  0  0  0  0  0  0  0  0
   24.1558  -13.4516  -19.2843 C   0  0  0  0  0  0  0  0  0  0  0  0
   21.5017  -20.1354  -17.4772 O   0  0  0  0  0  0  0  0  0  0  0  0
   21.8255  -21.1975  -18.0475 O   0  0  0  0  0  0  0  0  0  0  0  0
  2  3  2  0
  2  1  1  0
  4  5  1  0
  4  2  1  0
  6  5  1  0
  7  6  1  0
  8  7  1  0
  8 10  1  0
  8  9  1  6
 10 11  2  0
 14 13  1  6
 13 12  1  0
 15 14  1  0
 15 10  1  0
 16 17  2  0
 16 14  1  0
 18 16  1  0
 19 25  1  0
 19 18  1  0
 19 20  1  6
 21 20  1  0
 22 21  1  0
 23 24  1  0
 23 22  1  0
 25 27  1  0
 26 25  2  0
M  END
$$$$
