NRY.pdb
     RDKit          3D

 32 32  0  0  1  0  0  0  0  0999 V2000
   27.2841  -15.5638  -21.6619 N   0  0  0  0  0  0  0  0  0  0  0  0
   26.8022  -15.6564  -20.3355 C   0  0  0  0  0  0  0  0  0  0  0  0
   27.0325  -14.7604  -19.4987 O   0  0  0  0  0  0  0  0  0  0  0  0
   26.0094  -16.8363  -19.9276 C   0  0  0  0  0  0  0  0  0  0  0  0
   26.2122  -17.0205  -18.4386 C   0  0  2  0  0  0  0  0  0  0  0  0
   27.5753  -17.3208  -18.1201 N   0  0  0  0  0  0  0  0  0  0  0  0
   25.3281  -18.1088  -17.8983 C   0  0  0  0  0  0  0  0  0  0  0  0
   24.0876  -18.1108  -18.2019 O   0  0  0  0  0  0  0  0  0  0  0  0
   26.9624  -25.6642  -16.4385 N   0  0  0  0  0  0  0  0  0  0  0  0
   26.0360  -25.3419  -17.4569 C   0  0  0  0  0  0  0  0  0  0  0  0
   25.0018  -26.1106  -17.6637 N   0  0  0  0  0  0  0  0  0  0  0  0
   26.1534  -24.2082  -18.2963 N   0  0  0  0  0  0  0  0  0  0  0  0
   26.5527  -22.9189  -17.7692 C   0  0  0  0  0  0  0  0  0  0  0  0
   25.7949  -22.5619  -16.4965 C   0  0  0  0  0  0  0  0  0  0  0  0
   26.1172  -21.1797  -16.0404 C   0  0  0  0  0  0  0  0  0  0  0  0
   25.1208  -20.1845  -16.5285 C   0  0  2  0  0  0  0  0  0  0  0  0
   25.9326  -19.0808  -17.0726 N   0  0  0  0  0  0  0  0  0  0  0  0
   24.1353  -19.6812  -15.5911 C   0  0  0  0  0  0  0  0  0  0  0  0
   24.5428  -19.0973  -14.5295 O   0  0  0  0  0  0  0  0  0  0  0  0
   24.3121  -25.9570  -18.4140 O   0  0  0  0  0  0  0  0  0  0  0  0
   18.6088  -17.2950  -19.7515 C   0  0  0  0  0  0  0  0  0  0  0  0
   19.2554  -17.4609  -18.5341 C   0  0  0  0  0  0  0  0  0  0  0  0
   18.5741  -17.8334  -17.4135 C   0  0  0  0  0  0  0  0  0  0  0  0
   19.2654  -17.9837  -16.2310 C   0  0  0  0  0  0  0  0  0  0  0  0
   20.6212  -17.7729  -16.1301 C   0  0  0  0  0  0  0  0  0  0  0  0
   21.3789  -17.9186  -14.8774 C   0  0  1  0  0  0  0  0  0  0  0  0
   21.8198  -19.3301  -14.6744 N   0  0  0  0  0  0  0  0  0  0  0  0
   22.7423  -19.7581  -15.7229 C   0  0  0  0  0  0  0  0  0  0  0  0
   20.6881  -20.2528  -14.6654 O   0  0  0  0  0  0  0  0  0  0  0  0
   20.6056  -21.1450  -15.5361 C   0  0  0  0  0  0  0  0  0  0  0  0
   21.2869  -17.3951  -17.2861 C   0  0  0  0  0  0  0  0  0  0  0  0
   20.6092  -17.2432  -18.4666 O   0  0  0  0  0  0  0  0  0  0  0  0
  2  3  2  0
  2  1  1  0
  4  2  1  0
  5  4  1  0
  5  6  1  6
  7  5  1  0
  7  8  2  0
  9 10  1  0
 10 12  1  0
 11 10  2  0
 12 13  1  0
 13 14  1  0
 14 15  1  0
 16 17  1  0
 16 15  1  1
 17  7  1  0
 18 16  1  0
 19 18  2  0
 20 21  1  0
 21 22  2  0
 21 31  1  0
 22 23  1  0
 23 24  2  0
 24 25  1  0
 26 25  1  1
 26 27  1  0
 27 18  1  0
 28 26  1  0
 28 32  1  0
 29 28  2  0
 30 24  1  0
 31 30  2  0
M  END
$$$$
