NRY.pdb
     RDKit          3D

 32 32  0  0  1  0  0  0  0  0999 V2000
   25.9969  -15.3484  -18.3868 N   0  0  0  0  0  0  0  0  0  0  0  0
   26.4955  -15.7994  -17.1427 C   0  0  0  0  0  0  0  0  0  0  0  0
   26.8450  -14.9956  -16.2551 O   0  0  0  0  0  0  0  0  0  0  0  0
   26.6066  -17.2512  -16.8837 C   0  0  0  0  0  0  0  0  0  0  0  0
   26.1323  -17.9673  -18.1305 C   0  0  2  0  0  0  0  0  0  0  0  0
   25.5712  -17.0595  -19.0848 N   0  0  0  0  0  0  0  0  0  0  0  0
   25.1173  -19.0247  -17.7993 C   0  0  0  0  0  0  0  0  0  0  0  0
   23.8793  -18.7120  -17.7725 O   0  0  0  0  0  0  0  0  0  0  0  0
   27.2083  -27.4319  -17.7167 N   0  0  0  0  0  0  0  0  0  0  0  0
   27.3680  -26.4392  -16.7225 C   0  0  0  0  0  0  0  0  0  0  0  0
   28.3937  -26.4835  -15.9168 N   0  0  0  0  0  0  0  0  0  0  0  0
   26.4655  -25.3654  -16.5316 N   0  0  0  0  0  0  0  0  0  0  0  0
   25.3535  -25.1466  -17.4345 C   0  0  0  0  0  0  0  0  0  0  0  0
   24.5950  -23.8662  -17.1076 C   0  0  0  0  0  0  0  0  0  0  0  0
   25.4247  -22.6577  -17.3786 C   0  0  0  0  0  0  0  0  0  0  0  0
   24.6567  -21.3966  -17.1749 C   0  0  2  0  0  0  0  0  0  0  0  0
   25.6018  -20.3232  -17.5328 N   0  0  0  0  0  0  0  0  0  0  0  0
   24.0722  -21.1501  -15.8708 C   0  0  0  0  0  0  0  0  0  0  0  0
   24.8164  -20.6749  -14.9465 O   0  0  0  0  0  0  0  0  0  0  0  0
   28.5521  -25.8129  -15.1503 O   0  0  0  0  0  0  0  0  0  0  0  0
   19.5290  -18.5478   -9.0159 C   0  0  0  0  0  0  0  0  0  0  0  0
   20.1937  -18.8138  -10.2054 C   0  0  0  0  0  0  0  0  0  0  0  0
   21.5518  -18.9243  -10.2502 C   0  0  0  0  0  0  0  0  0  0  0  0
   22.1606  -19.1895  -11.4576 C   0  0  0  0  0  0  0  0  0  0  0  0
   21.4544  -19.3483  -12.6276 C   0  0  0  0  0  0  0  0  0  0  0  0
   22.0826  -19.6230  -13.9294 C   0  0  1  0  0  0  0  0  0  0  0  0
   22.2319  -21.0905  -14.1576 N   0  0  0  0  0  0  0  0  0  0  0  0
   22.7402  -21.3742  -15.4972 C   0  0  0  0  0  0  0  0  0  0  0  0
   20.9617  -21.7931  -13.9992 O   0  0  0  0  0  0  0  0  0  0  0  0
   20.1933  -21.9176  -14.9765 C   0  0  0  0  0  0  0  0  0  0  0  0
   20.0750  -19.2304  -12.5509 C   0  0  0  0  0  0  0  0  0  0  0  0
   19.4601  -18.9674  -11.3557 O   0  0  0  0  0  0  0  0  0  0  0  0
  2  3  2  0
  2  1  1  0
  4  2  1  0
  5  4  1  0
  5  6  1  6
  7  5  1  0
  7  8  2  0
  9 10  1  0
 10 12  1  0
 11 10  2  0
 12 13  1  0
 13 14  1  0
 14 15  1  0
 16 17  1  0
 16 15  1  1
 17  7  1  0
 18 16  1  0
 19 18  2  0
 20 21  1  0
 21 22  2  0
 21 31  1  0
 22 23  1  0
 23 24  2  0
 24 25  1  0
 26 25  1  1
 26 27  1  0
 27 18  1  0
 28 26  1  0
 28 32  1  0
 29 28  2  0
 30 24  1  0
 31 30  2  0
M  END
$$$$
