NRY.pdb
     RDKit          3D

 32 32  0  0  1  0  0  0  0  0999 V2000
   25.1665  -34.1956   -7.5355 N   0  0  0  0  0  0  0  0  0  0  0  0
   25.1093  -33.3119   -6.4329 C   0  0  0  0  0  0  0  0  0  0  0  0
   26.0416  -33.2460   -5.6067 O   0  0  0  0  0  0  0  0  0  0  0  0
   23.9236  -32.4469   -6.2513 C   0  0  0  0  0  0  0  0  0  0  0  0
   23.0522  -33.0953   -5.1966 C   0  0  2  0  0  0  0  0  0  0  0  0
   22.0244  -33.9042   -5.7789 N   0  0  0  0  0  0  0  0  0  0  0  0
   22.4221  -32.0659   -4.3014 C   0  0  0  0  0  0  0  0  0  0  0  0
   23.1712  -31.2353   -3.6850 O   0  0  0  0  0  0  0  0  0  0  0  0
   16.6213  -26.1203   -3.8454 N   0  0  0  0  0  0  0  0  0  0  0  0
   17.4035  -26.3188   -5.0065 C   0  0  0  0  0  0  0  0  0  0  0  0
   17.6096  -25.3278   -5.8302 N   0  0  0  0  0  0  0  0  0  0  0  0
   17.9985  -27.5561   -5.3514 N   0  0  0  0  0  0  0  0  0  0  0  0
   18.1744  -28.6070   -4.3695 C   0  0  0  0  0  0  0  0  0  0  0  0
   18.9304  -29.8010   -4.9390 C   0  0  0  0  0  0  0  0  0  0  0  0
   18.9841  -30.9270   -3.9635 C   0  0  0  0  0  0  0  0  0  0  0  0
   20.3367  -31.0741   -3.3551 C   0  0  2  0  0  0  0  0  0  0  0  0
   21.0149  -32.0793   -4.1936 N   0  0  0  0  0  0  0  0  0  0  0  0
   20.4250  -31.4336   -1.9529 C   0  0  0  0  0  0  0  0  0  0  0  0
   20.4132  -32.6721   -1.6368 O   0  0  0  0  0  0  0  0  0  0  0  0
   18.1904  -25.3968   -6.6789 O   0  0  0  0  0  0  0  0  0  0  0  0
   17.2108  -25.6845    1.2516 C   0  0  0  0  0  0  0  0  0  0  0  0
   17.7601  -26.9590    1.2161 C   0  0  0  0  0  0  0  0  0  0  0  0
   18.7499  -27.2811    0.3356 C   0  0  0  0  0  0  0  0  0  0  0  0
   19.2596  -28.5613    0.3432 C   0  0  0  0  0  0  0  0  0  0  0  0
   18.8110  -29.5354    1.2051 C   0  0  0  0  0  0  0  0  0  0  0  0
   19.3335  -30.9106    1.2257 C   0  0  2  0  0  0  0  0  0  0  0  0
   20.6430  -31.0012    0.5151 N   0  0  0  0  0  0  0  0  0  0  0  0
   20.5319  -30.5506   -0.8699 C   0  0  0  0  0  0  0  0  0  0  0  0
   21.1577  -32.3676    0.5047 O   0  0  0  0  0  0  0  0  0  0  0  0
   21.4185  -32.9261   -0.5821 C   0  0  0  0  0  0  0  0  0  0  0  0
   17.8041  -29.1784    2.0888 C   0  0  0  0  0  0  0  0  0  0  0  0
   17.2908  -27.9086    2.0896 O   0  0  0  0  0  0  0  0  0  0  0  0
  2  3  2  0
  2  1  1  0
  4  2  1  0
  5  4  1  0
  5  6  1  6
  7  5  1  0
  7  8  2  0
  9 10  1  0
 10 12  1  0
 11 10  2  0
 12 13  1  0
 13 14  1  0
 14 15  1  0
 16 17  1  0
 16 15  1  6
 17  7  1  0
 18 16  1  0
 19 18  2  0
 20 21  1  0
 21 22  2  0
 21 31  1  0
 22 23  1  0
 23 24  2  0
 24 25  1  0
 26 25  1  1
 26 27  1  0
 27 18  1  0
 28 26  1  0
 28 32  1  0
 29 28  2  0
 30 24  1  0
 31 30  2  0
M  END
$$$$
