NRY.pdb
     RDKit          3D

 32 32  0  0  1  0  0  0  0  0999 V2000
   26.9595  -15.5387  -19.0708 N   0  0  0  0  0  0  0  0  0  0  0  0
   25.5537  -15.6856  -19.0225 C   0  0  0  0  0  0  0  0  0  0  0  0
   24.7974  -14.8678  -19.5839 O   0  0  0  0  0  0  0  0  0  0  0  0
   24.9639  -16.8293  -18.2936 C   0  0  0  0  0  0  0  0  0  0  0  0
   25.7226  -18.0698  -18.7152 C   0  0  2  0  0  0  0  0  0  0  0  0
   25.4882  -18.3959  -20.0894 N   0  0  0  0  0  0  0  0  0  0  0  0
   25.3578  -19.2495  -17.8589 C   0  0  0  0  0  0  0  0  0  0  0  0
   24.3395  -19.9540  -18.1716 O   0  0  0  0  0  0  0  0  0  0  0  0
   30.4553  -23.9646  -16.1648 N   0  0  0  0  0  0  0  0  0  0  0  0
   29.9814  -23.8584  -17.4927 C   0  0  0  0  0  0  0  0  0  0  0  0
   30.7759  -24.1306  -18.4916 N   0  0  0  0  0  0  0  0  0  0  0  0
   28.6637  -23.4645  -17.8279 N   0  0  0  0  0  0  0  0  0  0  0  0
   27.7510  -22.9563  -16.8237 C   0  0  0  0  0  0  0  0  0  0  0  0
   28.1379  -21.5594  -16.3540 C   0  0  0  0  0  0  0  0  0  0  0  0
   27.2037  -21.0594  -15.3054 C   0  0  0  0  0  0  0  0  0  0  0  0
   25.8827  -20.6694  -15.8749 C   0  0  2  0  0  0  0  0  0  0  0  0
   26.1771  -19.5128  -16.7403 N   0  0  0  0  0  0  0  0  0  0  0  0
   24.8023  -20.3608  -14.9580 C   0  0  0  0  0  0  0  0  0  0  0  0
   25.0173  -19.5193  -14.0201 O   0  0  0  0  0  0  0  0  0  0  0  0
   30.4952  -24.0734  -19.4817 O   0  0  0  0  0  0  0  0  0  0  0  0
   19.7354  -17.9312  -19.2552 C   0  0  0  0  0  0  0  0  0  0  0  0
   20.2953  -18.2116  -18.0162 C   0  0  0  0  0  0  0  0  0  0  0  0
   19.5798  -18.8382  -17.0393 C   0  0  0  0  0  0  0  0  0  0  0  0
   20.1847  -19.0923  -15.8275 C   0  0  0  0  0  0  0  0  0  0  0  0
   21.4868  -18.7393  -15.5577 C   0  0  0  0  0  0  0  0  0  0  0  0
   22.1508  -18.9923  -14.2694 C   0  0  1  0  0  0  0  0  0  0  0  0
   22.4437  -20.4448  -14.0891 N   0  0  0  0  0  0  0  0  0  0  0  0
   23.5056  -20.8915  -14.9871 C   0  0  0  0  0  0  0  0  0  0  0  0
   21.2643  -21.2682  -14.3410 O   0  0  0  0  0  0  0  0  0  0  0  0
   21.2603  -22.0740  -15.2957 C   0  0  0  0  0  0  0  0  0  0  0  0
   22.1891  -18.1038  -16.5702 C   0  0  0  0  0  0  0  0  0  0  0  0
   21.5973  -17.8467  -17.7783 O   0  0  0  0  0  0  0  0  0  0  0  0
  2  3  2  0
  2  1  1  0
  4  2  1  0
  5  4  1  0
  5  6  1  6
  7  5  1  0
  7  8  2  0
  9 10  1  0
 10 12  1  0
 11 10  2  0
 12 13  1  0
 13 14  1  0
 14 15  1  0
 16 17  1  0
 16 15  1  1
 17  7  1  0
 18 16  1  0
 19 18  2  0
 20 21  1  0
 21 22  2  0
 21 31  1  0
 22 23  1  0
 23 24  2  0
 24 25  1  0
 26 25  1  1
 26 27  1  0
 27 18  1  0
 28 26  1  0
 28 32  1  0
 29 28  2  0
 30 24  1  0
 31 30  2  0
M  END
$$$$
