NRY.pdb
     RDKit          3D

 32 32  0  0  1  0  0  0  0  0999 V2000
   22.7756  -21.8023  -23.7572 N   0  0  0  0  0  0  0  0  0  0  0  0
   23.0116  -20.9811  -22.6303 C   0  0  0  0  0  0  0  0  0  0  0  0
   22.8691  -19.7432  -22.6897 O   0  0  0  0  0  0  0  0  0  0  0  0
   23.4356  -21.5968  -21.3543 C   0  0  0  0  0  0  0  0  0  0  0  0
   23.7326  -20.4693  -20.3885 C   0  0  2  0  0  0  0  0  0  0  0  0
   24.9709  -19.8190  -20.6940 N   0  0  0  0  0  0  0  0  0  0  0  0
   23.7711  -20.9625  -18.9696 C   0  0  0  0  0  0  0  0  0  0  0  0
   22.7511  -21.5648  -18.4923 O   0  0  0  0  0  0  0  0  0  0  0  0
   30.3204  -23.6521  -15.6311 N   0  0  0  0  0  0  0  0  0  0  0  0
   29.3163  -24.5467  -16.0677 C   0  0  0  0  0  0  0  0  0  0  0  0
   29.1855  -25.7104  -15.4917 N   0  0  0  0  0  0  0  0  0  0  0  0
   28.4130  -24.2618  -17.1197 N   0  0  0  0  0  0  0  0  0  0  0  0
   27.9227  -22.9175  -17.3481 C   0  0  0  0  0  0  0  0  0  0  0  0
   27.0395  -22.4294  -16.2065 C   0  0  0  0  0  0  0  0  0  0  0  0
   26.4812  -21.0765  -16.4903 C   0  0  0  0  0  0  0  0  0  0  0  0
   25.0288  -21.1304  -16.8206 C   0  0  2  0  0  0  0  0  0  0  0  0
   24.9537  -20.7260  -18.2364 N   0  0  0  0  0  0  0  0  0  0  0  0
   24.1106  -20.3482  -16.0155 C   0  0  0  0  0  0  0  0  0  0  0  0
   24.3884  -19.1212  -15.7886 O   0  0  0  0  0  0  0  0  0  0  0  0
   28.4991  -26.4221  -15.7827 O   0  0  0  0  0  0  0  0  0  0  0  0
   17.6750  -15.7156  -12.7784 C   0  0  0  0  0  0  0  0  0  0  0  0
   18.6748  -16.4381  -13.4154 C   0  0  0  0  0  0  0  0  0  0  0  0
   19.9908  -16.2445  -13.1166 C   0  0  0  0  0  0  0  0  0  0  0  0
   20.9425  -16.9889  -13.7793 C   0  0  0  0  0  0  0  0  0  0  0  0
   20.6217  -17.9246  -14.7355 C   0  0  0  0  0  0  0  0  0  0  0  0
   21.6201  -18.7246  -15.4620 C   0  0  1  0  0  0  0  0  0  0  0  0
   22.0247  -19.9268  -14.6752 N   0  0  0  0  0  0  0  0  0  0  0  0
   22.9116  -20.7957  -15.4446 C   0  0  0  0  0  0  0  0  0  0  0  0
   20.8675  -20.7158  -14.2622 O   0  0  0  0  0  0  0  0  0  0  0  0
   20.0998  -20.2791  -13.3786 C   0  0  0  0  0  0  0  0  0  0  0  0
   19.2756  -18.0995  -15.0179 C   0  0  0  0  0  0  0  0  0  0  0  0
   18.3218  -17.3649  -14.3649 O   0  0  0  0  0  0  0  0  0  0  0  0
  2  3  2  0
  2  1  1  0
  4  2  1  0
  5  4  1  0
  5  6  1  6
  7  5  1  0
  7  8  2  0
  9 10  1  0
 10 12  1  0
 11 10  2  0
 12 13  1  0
 13 14  1  0
 14 15  1  0
 16 17  1  0
 16 15  1  1
 17  7  1  0
 18 16  1  0
 19 18  2  0
 20 21  1  0
 21 22  2  0
 21 31  1  0
 22 23  1  0
 23 24  2  0
 24 25  1  0
 26 25  1  1
 26 27  1  0
 27 18  1  0
 28 26  1  0
 28 32  1  0
 29 28  2  0
 30 24  1  0
 31 30  2  0
M  END
$$$$
