NRY.pdb
     RDKit          3D

 32 32  0  0  1  0  0  0  0  0999 V2000
   17.0278  -14.2961  -14.0459 N   0  0  0  0  0  0  0  0  0  0  0  0
   17.5285  -14.2350  -15.3671 C   0  0  0  0  0  0  0  0  0  0  0  0
   17.1406  -15.0325  -16.2443 O   0  0  0  0  0  0  0  0  0  0  0  0
   18.5318  -13.2076  -15.7207 C   0  0  0  0  0  0  0  0  0  0  0  0
   17.7871  -12.0532  -16.3570 C   0  0  2  0  0  0  0  0  0  0  0  0
   17.2425  -12.4092  -17.6323 N   0  0  0  0  0  0  0  0  0  0  0  0
   18.6766  -10.8529  -16.5181 C   0  0  0  0  0  0  0  0  0  0  0  0
   19.6010  -10.8772  -17.3990 O   0  0  0  0  0  0  0  0  0  0  0  0
   14.8523   -3.9831  -13.4745 N   0  0  0  0  0  0  0  0  0  0  0  0
   14.5924   -4.5042  -14.7630 C   0  0  0  0  0  0  0  0  0  0  0  0
   13.5346   -4.1161  -15.4213 N   0  0  0  0  0  0  0  0  0  0  0  0
   15.4244   -5.4481  -15.4116 N   0  0  0  0  0  0  0  0  0  0  0  0
   16.6360   -5.9391  -14.7868 C   0  0  0  0  0  0  0  0  0  0  0  0
   17.3345   -6.9899  -15.6409 C   0  0  0  0  0  0  0  0  0  0  0  0
   18.5553   -7.5161  -14.9663 C   0  0  0  0  0  0  0  0  0  0  0  0
   19.2569   -8.5350  -15.7977 C   0  0  2  0  0  0  0  0  0  0  0  0
   18.4328   -9.7508  -15.6706 N   0  0  0  0  0  0  0  0  0  0  0  0
   20.6467   -8.8255  -15.5024 C   0  0  0  0  0  0  0  0  0  0  0  0
   20.9214   -9.4948  -14.4485 O   0  0  0  0  0  0  0  0  0  0  0  0
   13.2978   -4.4390  -16.3710 O   0  0  0  0  0  0  0  0  0  0  0  0
   29.0069  -11.2119  -15.8514 C   0  0  0  0  0  0  0  0  0  0  0  0
   27.6515  -10.9522  -16.0027 C   0  0  0  0  0  0  0  0  0  0  0  0
   26.7456  -11.3365  -15.0591 C   0  0  0  0  0  0  0  0  0  0  0  0
   25.4119  -11.0533  -15.2596 C   0  0  0  0  0  0  0  0  0  0  0  0
   24.9509  -10.3963  -16.3770 C   0  0  0  0  0  0  0  0  0  0  0  0
   23.5318  -10.0908  -16.6169 C   0  0  1  0  0  0  0  0  0  0  0  0
   23.1260   -8.8324  -15.9242 N   0  0  0  0  0  0  0  0  0  0  0  0
   21.7588   -8.4501  -16.2679 C   0  0  0  0  0  0  0  0  0  0  0  0
   24.0057   -7.7191  -16.2690 O   0  0  0  0  0  0  0  0  0  0  0  0
   25.1670   -7.6783  -15.8100 C   0  0  0  0  0  0  0  0  0  0  0  0
   25.8954  -10.0179  -17.3189 C   0  0  0  0  0  0  0  0  0  0  0  0
   27.2234  -10.2943  -17.1290 O   0  0  0  0  0  0  0  0  0  0  0  0
  2  3  2  0
  2  1  1  0
  4  2  1  0
  5  4  1  0
  5  6  1  6
  7  5  1  0
  7  8  2  0
  9 10  1  0
 10 12  1  0
 11 10  2  0
 12 13  1  0
 13 14  1  0
 14 15  1  0
 16 17  1  0
 16 15  1  1
 17  7  1  0
 18 16  1  0
 19 18  2  0
 20 21  1  0
 21 22  2  0
 21 31  1  0
 22 23  1  0
 23 24  2  0
 24 25  1  0
 26 25  1  1
 26 27  1  0
 27 18  1  0
 28 26  1  0
 28 32  1  0
 29 28  2  0
 30 24  1  0
 31 30  2  0
M  END
$$$$
