NRY.pdb
     RDKit          3D

 32 32  0  0  1  0  0  0  0  0999 V2000
   27.8390  -17.5242  -17.9280 N   0  0  0  0  0  0  0  0  0  0  0  0
   26.4868  -17.8990  -17.7517 C   0  0  0  0  0  0  0  0  0  0  0  0
   25.5586  -17.2234  -18.2396 O   0  0  0  0  0  0  0  0  0  0  0  0
   26.1615  -19.1144  -16.9745 C   0  0  0  0  0  0  0  0  0  0  0  0
   27.4651  -19.6666  -16.4381 C   0  0  2  0  0  0  0  0  0  0  0  0
   28.2093  -20.3528  -17.4505 N   0  0  0  0  0  0  0  0  0  0  0  0
   27.2286  -20.5981  -15.2829 C   0  0  0  0  0  0  0  0  0  0  0  0
   26.8102  -21.7823  -15.5142 O   0  0  0  0  0  0  0  0  0  0  0  0
   32.8154  -22.7997  -10.5895 N   0  0  0  0  0  0  0  0  0  0  0  0
   31.7968  -22.2206   -9.7980 C   0  0  0  0  0  0  0  0  0  0  0  0
   32.0648  -21.8139   -8.5872 N   0  0  0  0  0  0  0  0  0  0  0  0
   30.4631  -22.0448  -10.2386 N   0  0  0  0  0  0  0  0  0  0  0  0
   30.0820  -22.3113  -11.6109 C   0  0  0  0  0  0  0  0  0  0  0  0
   29.6121  -21.0521  -12.3286 C   0  0  0  0  0  0  0  0  0  0  0  0
   28.2744  -20.6131  -11.8386 C   0  0  0  0  0  0  0  0  0  0  0  0
   27.1911  -20.9345  -12.8104 C   0  0  2  0  0  0  0  0  0  0  0  0
   27.4876  -20.0991  -13.9883 N   0  0  0  0  0  0  0  0  0  0  0  0
   25.8146  -20.7565  -12.3900 C   0  0  0  0  0  0  0  0  0  0  0  0
   25.5674  -19.9487  -11.4305 O   0  0  0  0  0  0  0  0  0  0  0  0
   31.3766  -21.3625   -7.9668 O   0  0  0  0  0  0  0  0  0  0  0  0
   17.6517  -18.7762  -10.9511 C   0  0  0  0  0  0  0  0  0  0  0  0
   18.9472  -19.0010  -11.3967 C   0  0  0  0  0  0  0  0  0  0  0  0
   19.2159  -19.2238  -12.7146 C   0  0  0  0  0  0  0  0  0  0  0  0
   20.5202  -19.4414  -13.1026 C   0  0  0  0  0  0  0  0  0  0  0  0
   21.5700  -19.4442  -12.2134 C   0  0  0  0  0  0  0  0  0  0  0  0
   22.9687  -19.6826  -12.6026 C   0  0  1  0  0  0  0  0  0  0  0  0
   23.3280  -21.1251  -12.4679 N   0  0  0  0  0  0  0  0  0  0  0  0
   24.6870  -21.3836  -12.9368 C   0  0  0  0  0  0  0  0  0  0  0  0
   22.4192  -21.9805  -13.2260 O   0  0  0  0  0  0  0  0  0  0  0  0
   21.3572  -22.3788  -12.7022 C   0  0  0  0  0  0  0  0  0  0  0  0
   21.2660  -19.2148  -10.8802 C   0  0  0  0  0  0  0  0  0  0  0  0
   19.9731  -18.9971  -10.4843 O   0  0  0  0  0  0  0  0  0  0  0  0
  2  3  2  0
  2  1  1  0
  4  2  1  0
  5  4  1  0
  5  6  1  6
  7  5  1  0
  7  8  2  0
  9 10  1  0
 10 12  1  0
 11 10  2  0
 12 13  1  0
 13 14  1  0
 14 15  1  0
 16 17  1  0
 16 15  1  1
 17  7  1  0
 18 16  1  0
 19 18  2  0
 20 21  1  0
 21 22  2  0
 21 31  1  0
 22 23  1  0
 23 24  2  0
 24 25  1  0
 26 25  1  1
 26 27  1  0
 27 18  1  0
 28 26  1  0
 28 32  1  0
 29 28  2  0
 30 24  1  0
 31 30  2  0
M  END
$$$$
