NRY.pdb
     RDKit          3D

 32 32  0  0  1  0  0  0  0  0999 V2000
   27.6290  -18.6080  -19.3227 N   0  0  0  0  0  0  0  0  0  0  0  0
   27.9562  -19.4515  -20.4096 C   0  0  0  0  0  0  0  0  0  0  0  0
   28.5552  -19.0131  -21.4122 O   0  0  0  0  0  0  0  0  0  0  0  0
   27.5833  -20.8818  -20.3617 C   0  0  0  0  0  0  0  0  0  0  0  0
   26.9339  -21.1317  -19.0172 C   0  0  2  0  0  0  0  0  0  0  0  0
   27.9032  -21.2321  -17.9683 N   0  0  0  0  0  0  0  0  0  0  0  0
   26.0988  -22.3808  -19.0385 C   0  0  0  0  0  0  0  0  0  0  0  0
   25.0138  -22.3923  -19.7120 O   0  0  0  0  0  0  0  0  0  0  0  0
   31.4979  -26.2316  -15.9081 N   0  0  0  0  0  0  0  0  0  0  0  0
   30.5047  -25.2252  -15.9021 C   0  0  0  0  0  0  0  0  0  0  0  0
   30.7205  -24.1009  -15.2756 N   0  0  0  0  0  0  0  0  0  0  0  0
   29.2515  -25.3538  -16.5476 N   0  0  0  0  0  0  0  0  0  0  0  0
   28.9341  -26.5168  -17.3515 C   0  0  0  0  0  0  0  0  0  0  0  0
   27.6958  -26.2968  -18.2115 C   0  0  0  0  0  0  0  0  0  0  0  0
   26.5951  -25.6650  -17.4295 C   0  0  0  0  0  0  0  0  0  0  0  0
   25.7842  -24.7314  -18.2616 C   0  0  2  0  0  0  0  0  0  0  0  0
   26.5724  -23.4861  -18.2996 N   0  0  0  0  0  0  0  0  0  0  0  0
   24.4179  -24.4602  -17.8581 C   0  0  0  0  0  0  0  0  0  0  0  0
   24.1906  -23.4517  -17.1061 O   0  0  0  0  0  0  0  0  0  0  0  0
   30.0506  -23.3179  -15.2523 O   0  0  0  0  0  0  0  0  0  0  0  0
   16.3534  -22.1733  -16.4128 C   0  0  0  0  0  0  0  0  0  0  0  0
   17.6011  -22.5326  -16.9046 C   0  0  0  0  0  0  0  0  0  0  0  0
   17.7316  -23.4354  -17.9177 C   0  0  0  0  0  0  0  0  0  0  0  0
   18.9940  -23.7561  -18.3677 C   0  0  0  0  0  0  0  0  0  0  0  0
   20.1359  -23.2024  -17.8364 C   0  0  0  0  0  0  0  0  0  0  0  0
   21.4939  -23.5356  -18.2942 C   0  0  1  0  0  0  0  0  0  0  0  0
   21.9362  -24.8556  -17.7558 N   0  0  0  0  0  0  0  0  0  0  0  0
   23.2803  -25.1969  -18.2148 C   0  0  0  0  0  0  0  0  0  0  0  0
   21.0355  -25.9319  -18.1589 O   0  0  0  0  0  0  0  0  0  0  0  0
   21.1819  -26.4823  -19.2709 C   0  0  0  0  0  0  0  0  0  0  0  0
   19.9716  -22.2876  -16.8076 C   0  0  0  0  0  0  0  0  0  0  0  0
   18.7214  -21.9618  -16.3532 O   0  0  0  0  0  0  0  0  0  0  0  0
  2  3  2  0
  2  1  1  0
  4  2  1  0
  5  4  1  0
  5  6  1  1
  7  5  1  0
  7  8  2  0
  9 10  1  0
 10 12  1  0
 11 10  2  0
 12 13  1  0
 13 14  1  0
 14 15  1  0
 16 17  1  0
 16 15  1  1
 17  7  1  0
 18 16  1  0
 19 18  2  0
 20 21  1  0
 21 22  2  0
 21 31  1  0
 22 23  1  0
 23 24  2  0
 24 25  1  0
 26 25  1  1
 26 27  1  0
 27 18  1  0
 28 26  1  0
 28 32  1  0
 29 28  2  0
 30 24  1  0
 31 30  2  0
M  END
$$$$
