NRY.pdb
     RDKit          3D

 32 32  0  0  1  0  0  0  0  0999 V2000
   29.1886  -23.5825  -19.0028 N   0  0  0  0  0  0  0  0  0  0  0  0
   29.9051  -23.0743  -17.8945 C   0  0  0  0  0  0  0  0  0  0  0  0
   31.0649  -23.4579  -17.6419 O   0  0  0  0  0  0  0  0  0  0  0  0
   29.2716  -22.0684  -17.0147 C   0  0  0  0  0  0  0  0  0  0  0  0
   27.8714  -21.8311  -17.5393 C   0  0  2  0  0  0  0  0  0  0  0  0
   27.8843  -21.2018  -18.8252 N   0  0  0  0  0  0  0  0  0  0  0  0
   27.0672  -20.9917  -16.5872 C   0  0  0  0  0  0  0  0  0  0  0  0
   26.7963  -19.7833  -16.8994 O   0  0  0  0  0  0  0  0  0  0  0  0
   21.9132  -17.3961  -14.5766 N   0  0  0  0  0  0  0  0  0  0  0  0
   21.4309  -17.7361  -15.8616 C   0  0  0  0  0  0  0  0  0  0  0  0
   20.9584  -16.8069  -16.6468 N   0  0  0  0  0  0  0  0  0  0  0  0
   21.4228  -19.0554  -16.3745 N   0  0  0  0  0  0  0  0  0  0  0  0
   22.1386  -20.1260  -15.7105 C   0  0  0  0  0  0  0  0  0  0  0  0
   23.6438  -20.0267  -15.9252 C   0  0  0  0  0  0  0  0  0  0  0  0
   24.3319  -21.2955  -15.5523 C   0  0  0  0  0  0  0  0  0  0  0  0
   25.4943  -21.0558  -14.6507 C   0  0  2  0  0  0  0  0  0  0  0  0
   26.6521  -21.6001  -15.3832 N   0  0  0  0  0  0  0  0  0  0  0  0
   25.4425  -21.5917  -13.3042 C   0  0  0  0  0  0  0  0  0  0  0  0
   24.3754  -22.1822  -12.9212 O   0  0  0  0  0  0  0  0  0  0  0  0
   20.5640  -16.9896  -17.5813 O   0  0  0  0  0  0  0  0  0  0  0  0
   26.3784  -19.3895   -4.9128 C   0  0  0  0  0  0  0  0  0  0  0  0
   26.6358  -19.5977   -6.2611 C   0  0  0  0  0  0  0  0  0  0  0  0
   27.3537  -18.6996   -6.9936 C   0  0  0  0  0  0  0  0  0  0  0  0
   27.5800  -18.9559   -8.3286 C   0  0  0  0  0  0  0  0  0  0  0  0
   27.1103  -20.0848   -8.9592 C   0  0  0  0  0  0  0  0  0  0  0  0
   27.3316  -20.3754  -10.3844 C   0  0  2  0  0  0  0  0  0  0  0  0
   26.2228  -21.2026  -10.9451 N   0  0  0  0  0  0  0  0  0  0  0  0
   26.4635  -21.5406  -12.3456 C   0  0  0  0  0  0  0  0  0  0  0  0
   24.9392  -20.5114  -10.8624 O   0  0  0  0  0  0  0  0  0  0  0  0
   24.6936  -19.5603  -11.6345 C   0  0  0  0  0  0  0  0  0  0  0  0
   26.3837  -20.9796   -8.1887 C   0  0  0  0  0  0  0  0  0  0  0  0
   26.1535  -20.7345   -6.8611 O   0  0  0  0  0  0  0  0  0  0  0  0
  2  3  2  0
  2  1  1  0
  4  2  1  0
  5  4  1  0
  5  6  1  6
  7  5  1  0
  7  8  2  0
  9 10  1  0
 10 12  1  0
 11 10  2  0
 12 13  1  0
 13 14  1  0
 14 15  1  0
 16 17  1  0
 16 15  1  6
 17  7  1  0
 18 16  1  0
 19 18  2  0
 20 21  1  0
 21 22  2  0
 21 31  1  0
 22 23  1  0
 23 24  2  0
 24 25  1  0
 26 25  1  1
 26 27  1  0
 27 18  1  0
 28 26  1  0
 28 32  1  0
 29 28  2  0
 30 24  1  0
 31 30  2  0
M  END
$$$$
