NRY.pdb
     RDKit          3D

 32 32  0  0  1  0  0  0  0  0999 V2000
   28.6288  -27.6077  -16.9371 N   0  0  0  0  0  0  0  0  0  0  0  0
   29.1800  -26.3818  -17.3767 C   0  0  0  0  0  0  0  0  0  0  0  0
   30.4132  -26.1948  -17.3926 O   0  0  0  0  0  0  0  0  0  0  0  0
   28.2812  -25.2972  -17.8274 C   0  0  0  0  0  0  0  0  0  0  0  0
   26.8631  -25.7371  -17.5314 C   0  0  2  0  0  0  0  0  0  0  0  0
   26.2487  -26.3531  -18.6684 N   0  0  0  0  0  0  0  0  0  0  0  0
   26.0166  -24.5809  -17.0790 C   0  0  0  0  0  0  0  0  0  0  0  0
   26.3595  -23.9297  -16.0353 O   0  0  0  0  0  0  0  0  0  0  0  0
   23.3068  -18.5863  -20.6254 N   0  0  0  0  0  0  0  0  0  0  0  0
   24.3715  -18.1597  -19.7985 C   0  0  0  0  0  0  0  0  0  0  0  0
   24.6944  -16.8961  -19.7525 N   0  0  0  0  0  0  0  0  0  0  0  0
   25.1380  -19.0335  -18.9905 N   0  0  0  0  0  0  0  0  0  0  0  0
   25.0321  -20.4722  -19.1263 C   0  0  0  0  0  0  0  0  0  0  0  0
   23.7129  -21.0026  -18.5787 C   0  0  0  0  0  0  0  0  0  0  0  0
   23.6270  -22.4854  -18.7069 C   0  0  0  0  0  0  0  0  0  0  0  0
   23.9845  -23.1770  -17.4359 C   0  0  2  0  0  0  0  0  0  0  0  0
   24.8728  -24.2788  -17.8487 N   0  0  0  0  0  0  0  0  0  0  0  0
   22.9106  -23.6723  -16.5966 C   0  0  0  0  0  0  0  0  0  0  0  0
   22.3045  -24.7421  -16.9461 O   0  0  0  0  0  0  0  0  0  0  0  0
   25.4651  -16.5200  -19.1807 O   0  0  0  0  0  0  0  0  0  0  0  0
   17.0945  -25.1431  -10.1545 C   0  0  0  0  0  0  0  0  0  0  0  0
   18.1920  -24.7258  -10.8953 C   0  0  0  0  0  0  0  0  0  0  0  0
   19.2216  -25.5736  -11.1779 C   0  0  0  0  0  0  0  0  0  0  0  0
   20.2867  -25.1071  -11.9174 C   0  0  0  0  0  0  0  0  0  0  0  0
   20.3581  -23.8155  -12.3859 C   0  0  0  0  0  0  0  0  0  0  0  0
   21.4883  -23.2927  -13.1695 C   0  0  1  0  0  0  0  0  0  0  0  0
   21.3720  -23.6770  -14.6071 N   0  0  0  0  0  0  0  0  0  0  0  0
   22.4502  -23.0977  -15.4042 C   0  0  0  0  0  0  0  0  0  0  0  0
   20.1024  -23.2405  -15.1812 O   0  0  0  0  0  0  0  0  0  0  0  0
   19.1434  -24.0384  -15.2500 C   0  0  0  0  0  0  0  0  0  0  0  0
   19.2965  -22.9768  -12.0828 C   0  0  0  0  0  0  0  0  0  0  0  0
   18.2330  -23.4305  -11.3488 O   0  0  0  0  0  0  0  0  0  0  0  0
  2  3  2  0
  2  1  1  0
  4  2  1  0
  5  4  1  0
  5  6  1  6
  7  5  1  0
  7  8  2  0
  9 10  1  0
 10 12  1  0
 11 10  2  0
 12 13  1  0
 13 14  1  0
 14 15  1  0
 16 17  1  0
 16 15  1  6
 17  7  1  0
 18 16  1  0
 19 18  2  0
 20 21  1  0
 21 22  2  0
 21 31  1  0
 22 23  1  0
 23 24  2  0
 24 25  1  0
 26 25  1  1
 26 27  1  0
 27 18  1  0
 28 26  1  0
 28 32  1  0
 29 28  2  0
 30 24  1  0
 31 30  2  0
M  END
$$$$
