NRY.pdb
     RDKit          3D

 32 32  0  0  1  0  0  0  0  0999 V2000
   29.5143  -18.9867  -19.3980 N   0  0  0  0  0  0  0  0  0  0  0  0
   29.5518  -20.0584  -18.4759 C   0  0  0  0  0  0  0  0  0  0  0  0
   30.1064  -21.1388  -18.7608 O   0  0  0  0  0  0  0  0  0  0  0  0
   28.9229  -19.9002  -17.1468 C   0  0  0  0  0  0  0  0  0  0  0  0
   28.3438  -18.5026  -17.0876 C   0  0  2  0  0  0  0  0  0  0  0  0
   29.3639  -17.5097  -16.9352 N   0  0  0  0  0  0  0  0  0  0  0  0
   27.3541  -18.3695  -15.9647 C   0  0  0  0  0  0  0  0  0  0  0  0
   27.7000  -17.7547  -14.9001 O   0  0  0  0  0  0  0  0  0  0  0  0
   19.5292  -19.6162  -14.5140 N   0  0  0  0  0  0  0  0  0  0  0  0
   19.8449  -19.6564  -15.8917 C   0  0  0  0  0  0  0  0  0  0  0  0
   19.2341  -20.5025  -16.6754 N   0  0  0  0  0  0  0  0  0  0  0  0
   20.8080  -18.8177  -16.5023 N   0  0  0  0  0  0  0  0  0  0  0  0
   21.4175  -17.7200  -15.7790 C   0  0  0  0  0  0  0  0  0  0  0  0
   22.6452  -18.1644  -14.9936 C   0  0  0  0  0  0  0  0  0  0  0  0
   23.8230  -18.3563  -15.8871 C   0  0  0  0  0  0  0  0  0  0  0  0
   25.0372  -18.7705  -15.1284 C   0  0  2  0  0  0  0  0  0  0  0  0
   26.0787  -18.9424  -16.1576 N   0  0  0  0  0  0  0  0  0  0  0  0
   24.9529  -19.9465  -14.2841 C   0  0  0  0  0  0  0  0  0  0  0  0
   25.3823  -21.0603  -14.7415 O   0  0  0  0  0  0  0  0  0  0  0  0
   19.4135  -20.5816  -17.6873 O   0  0  0  0  0  0  0  0  0  0  0  0
   25.8896  -18.5381   -6.5571 C   0  0  0  0  0  0  0  0  0  0  0  0
   25.8588  -19.2532   -7.7466 C   0  0  0  0  0  0  0  0  0  0  0  0
   25.3768  -20.5275   -7.7965 C   0  0  0  0  0  0  0  0  0  0  0  0
   25.3694  -21.1917   -9.0039 C   0  0  0  0  0  0  0  0  0  0  0  0
   25.8300  -20.6226  -10.1686 C   0  0  0  0  0  0  0  0  0  0  0  0
   25.8401  -21.3148  -11.4669 C   0  0  1  0  0  0  0  0  0  0  0  0
   24.5172  -21.2021  -12.1489 N   0  0  0  0  0  0  0  0  0  0  0  0
   24.4443  -20.0028  -12.9795 C   0  0  0  0  0  0  0  0  0  0  0  0
   23.4178  -21.1532  -11.1891 O   0  0  0  0  0  0  0  0  0  0  0  0
   22.7346  -20.1132  -11.0778 C   0  0  0  0  0  0  0  0  0  0  0  0
   26.3140  -19.3259  -10.0868 C   0  0  0  0  0  0  0  0  0  0  0  0
   26.3256  -18.6569   -8.8918 O   0  0  0  0  0  0  0  0  0  0  0  0
  2  3  2  0
  2  1  1  0
  4  2  1  0
  5  4  1  0
  5  6  1  1
  7  5  1  0
  7  8  2  0
  9 10  1  0
 10 12  1  0
 11 10  2  0
 12 13  1  0
 13 14  1  0
 14 15  1  0
 16 17  1  0
 16 15  1  6
 17  7  1  0
 18 16  1  0
 19 18  2  0
 20 21  1  0
 21 22  2  0
 21 31  1  0
 22 23  1  0
 23 24  2  0
 24 25  1  0
 26 25  1  6
 26 27  1  0
 27 18  1  0
 28 26  1  0
 28 32  1  0
 29 28  2  0
 30 24  1  0
 31 30  2  0
M  END
$$$$
