NRY.pdb
     RDKit          3D

 32 32  0  0  1  0  0  0  0  0999 V2000
   29.2743  -27.4990  -17.9347 N   0  0  0  0  0  0  0  0  0  0  0  0
   29.7782  -26.3242  -17.3297 C   0  0  0  0  0  0  0  0  0  0  0  0
   30.9696  -26.2410  -16.9695 O   0  0  0  0  0  0  0  0  0  0  0  0
   28.8794  -25.1691  -17.1177 C   0  0  0  0  0  0  0  0  0  0  0  0
   27.4656  -25.6481  -17.3699 C   0  0  2  0  0  0  0  0  0  0  0  0
   27.2800  -26.0694  -18.7255 N   0  0  0  0  0  0  0  0  0  0  0  0
   26.4612  -24.5791  -17.0435 C   0  0  0  0  0  0  0  0  0  0  0  0
   26.0234  -23.8298  -17.9805 O   0  0  0  0  0  0  0  0  0  0  0  0
   19.1057  -25.1113  -13.9194 N   0  0  0  0  0  0  0  0  0  0  0  0
   20.2097  -25.3087  -13.0583 C   0  0  0  0  0  0  0  0  0  0  0  0
   20.1398  -26.1942  -12.1022 N   0  0  0  0  0  0  0  0  0  0  0  0
   21.4254  -24.5911  -13.1616 N   0  0  0  0  0  0  0  0  0  0  0  0
   21.6567  -23.6528  -14.2413 C   0  0  0  0  0  0  0  0  0  0  0  0
   22.7909  -24.1006  -15.1549 C   0  0  0  0  0  0  0  0  0  0  0  0
   24.1080  -24.0353  -14.4597 C   0  0  0  0  0  0  0  0  0  0  0  0
   25.1485  -23.3733  -15.2968 C   0  0  2  0  0  0  0  0  0  0  0  0
   26.0548  -24.4652  -15.6967 N   0  0  0  0  0  0  0  0  0  0  0  0
   25.8965  -22.2722  -14.7213 C   0  0  0  0  0  0  0  0  0  0  0  0
   26.9701  -22.5318  -14.0778 O   0  0  0  0  0  0  0  0  0  0  0  0
   20.9077  -26.3911  -11.4435 O   0  0  0  0  0  0  0  0  0  0  0  0
   23.3693  -21.2516   -9.0026 C   0  0  0  0  0  0  0  0  0  0  0  0
   24.3232  -20.9831   -9.9750 C   0  0  0  0  0  0  0  0  0  0  0  0
   25.3911  -20.1756   -9.7178 C   0  0  0  0  0  0  0  0  0  0  0  0
   26.3084  -19.9425  -10.7193 C   0  0  0  0  0  0  0  0  0  0  0  0
   26.1936  -20.4917  -11.9755 C   0  0  0  0  0  0  0  0  0  0  0  0
   27.1550  -20.2504  -13.0628 C   0  0  2  0  0  0  0  0  0  0  0  0
   26.4579  -19.8535  -14.3215 N   0  0  0  0  0  0  0  0  0  0  0  0
   25.5704  -20.9114  -14.7976 C   0  0  0  0  0  0  0  0  0  0  0  0
   27.4055  -19.5456  -15.3890 O   0  0  0  0  0  0  0  0  0  0  0  0
   27.2923  -20.1028  -16.5015 C   0  0  0  0  0  0  0  0  0  0  0  0
   25.0975  -21.3085  -12.2073 C   0  0  0  0  0  0  0  0  0  0  0  0
   24.1802  -21.5468  -11.2186 O   0  0  0  0  0  0  0  0  0  0  0  0
  2  3  2  0
  2  1  1  0
  4  2  1  0
  5  4  1  0
  5  6  1  6
  7  5  1  0
  7  8  2  0
  9 10  1  0
 10 12  1  0
 11 10  2  0
 12 13  1  0
 13 14  1  0
 14 15  1  0
 16 17  1  0
 16 15  1  1
 17  7  1  0
 18 16  1  0
 19 18  2  0
 20 21  1  0
 21 22  2  0
 21 31  1  0
 22 23  1  0
 23 24  2  0
 24 25  1  0
 26 25  1  1
 26 27  1  0
 27 18  1  0
 28 26  1  0
 28 32  1  0
 29 28  2  0
 30 24  1  0
 31 30  2  0
M  END
$$$$
