NRY.pdb
     RDKit          3D

 32 32  0  0  1  0  0  0  0  0999 V2000
   22.4100  -38.2979   -8.7228 N   0  0  0  0  0  0  0  0  0  0  0  0
   23.2949  -37.6903   -7.8020 C   0  0  0  0  0  0  0  0  0  0  0  0
   23.0974  -37.7586   -6.5722 O   0  0  0  0  0  0  0  0  0  0  0  0
   24.4790  -36.9585   -8.3016 C   0  0  0  0  0  0  0  0  0  0  0  0
   24.5053  -37.1212   -9.8066 C   0  0  2  0  0  0  0  0  0  0  0  0
   25.5209  -38.0393  -10.2252 N   0  0  0  0  0  0  0  0  0  0  0  0
   24.7189  -35.8021  -10.4941 C   0  0  0  0  0  0  0  0  0  0  0  0
   25.7104  -35.0746  -10.1499 O   0  0  0  0  0  0  0  0  0  0  0  0
   23.4033  -31.0777  -17.0651 N   0  0  0  0  0  0  0  0  0  0  0  0
   24.6959  -31.6276  -17.2272 C   0  0  0  0  0  0  0  0  0  0  0  0
   25.6302  -30.9325  -17.8163 N   0  0  0  0  0  0  0  0  0  0  0  0
   25.0615  -32.9207  -16.7823 N   0  0  0  0  0  0  0  0  0  0  0  0
   24.1514  -33.7338  -16.0012 C   0  0  0  0  0  0  0  0  0  0  0  0
   24.1503  -33.3381  -14.5298 C   0  0  0  0  0  0  0  0  0  0  0  0
   24.0649  -34.5344  -13.6443 C   0  0  0  0  0  0  0  0  0  0  0  0
   23.9509  -34.1575  -12.2068 C   0  0  2  0  0  0  0  0  0  0  0  0
   23.7941  -35.4401  -11.4970 N   0  0  0  0  0  0  0  0  0  0  0  0
   22.9074  -33.2276  -11.8201 C   0  0  0  0  0  0  0  0  0  0  0  0
   21.7052  -33.6551  -11.7413 O   0  0  0  0  0  0  0  0  0  0  0  0
   26.6014  -31.2572  -17.9330 O   0  0  0  0  0  0  0  0  0  0  0  0
   18.2064  -26.1255   -9.5916 C   0  0  0  0  0  0  0  0  0  0  0  0
   19.2099  -27.0744   -9.7334 C   0  0  0  0  0  0  0  0  0  0  0  0
   19.2487  -28.1891   -8.9494 C   0  0  0  0  0  0  0  0  0  0  0  0
   20.2673  -29.0989   -9.1324 C   0  0  0  0  0  0  0  0  0  0  0  0
   21.2535  -28.9312  -10.0769 C   0  0  0  0  0  0  0  0  0  0  0  0
   22.3553  -29.8839  -10.2846 C   0  0  1  0  0  0  0  0  0  0  0  0
   21.9513  -30.9827  -11.2106 N   0  0  0  0  0  0  0  0  0  0  0  0
   23.0719  -31.8718  -11.5063 C   0  0  0  0  0  0  0  0  0  0  0  0
   21.4429  -30.4618  -12.4765 O   0  0  0  0  0  0  0  0  0  0  0  0
   22.2066  -30.3631  -13.4604 C   0  0  0  0  0  0  0  0  0  0  0  0
   21.1878  -27.7884  -10.8591 C   0  0  0  0  0  0  0  0  0  0  0  0
   20.1794  -26.8780  -10.6855 O   0  0  0  0  0  0  0  0  0  0  0  0
  2  3  2  0
  2  1  1  0
  4  2  1  0
  5  4  1  0
  5  6  1  1
  7  5  1  0
  7  8  2  0
  9 10  1  0
 10 12  1  0
 11 10  2  0
 12 13  1  0
 13 14  1  0
 14 15  1  0
 16 17  1  0
 16 15  1  6
 17  7  1  0
 18 16  1  0
 19 18  2  0
 20 21  1  0
 21 22  2  0
 21 31  1  0
 22 23  1  0
 23 24  2  0
 24 25  1  0
 26 25  1  1
 26 27  1  0
 27 18  1  0
 28 26  1  0
 28 32  1  0
 29 28  2  0
 30 24  1  0
 31 30  2  0
M  END
$$$$
