NRY.pdb
     RDKit          3D

 32 32  0  0  1  0  0  0  0  0999 V2000
   26.0461  -15.7051  -21.2341 N   0  0  0  0  0  0  0  0  0  0  0  0
   25.4253  -16.4227  -20.1854 C   0  0  0  0  0  0  0  0  0  0  0  0
   26.0584  -16.7517  -19.1623 O   0  0  0  0  0  0  0  0  0  0  0  0
   23.9979  -16.7925  -20.2991 C   0  0  0  0  0  0  0  0  0  0  0  0
   23.8761  -18.2443  -19.8873 C   0  0  2  0  0  0  0  0  0  0  0  0
   24.4759  -19.1218  -20.8463 N   0  0  0  0  0  0  0  0  0  0  0  0
   22.4389  -18.6367  -19.6906 C   0  0  0  0  0  0  0  0  0  0  0  0
   21.5900  -18.3687  -20.6063 O   0  0  0  0  0  0  0  0  0  0  0  0
   16.6569  -24.5181  -16.2066 N   0  0  0  0  0  0  0  0  0  0  0  0
   17.9421  -23.9290  -16.2280 C   0  0  0  0  0  0  0  0  0  0  0  0
   18.8176  -24.3082  -17.1185 N   0  0  0  0  0  0  0  0  0  0  0  0
   18.3617  -22.9247  -15.3230 N   0  0  0  0  0  0  0  0  0  0  0  0
   19.5823  -22.1754  -15.5425 C   0  0  0  0  0  0  0  0  0  0  0  0
   19.5018  -21.3037  -16.7895 C   0  0  0  0  0  0  0  0  0  0  0  0
   20.8042  -20.6356  -17.0719 C   0  0  0  0  0  0  0  0  0  0  0  0
   20.7174  -19.7155  -18.2413 C   0  0  2  0  0  0  0  0  0  0  0  0
   22.1077  -19.2894  -18.4838 N   0  0  0  0  0  0  0  0  0  0  0  0
   19.8385  -18.5658  -18.1483 C   0  0  0  0  0  0  0  0  0  0  0  0
   20.1595  -17.6123  -17.3597 O   0  0  0  0  0  0  0  0  0  0  0  0
   19.7584  -23.8977  -17.2110 O   0  0  0  0  0  0  0  0  0  0  0  0
   13.6681  -12.4020  -19.0803 C   0  0  0  0  0  0  0  0  0  0  0  0
   14.5500  -13.4537  -19.2897 C   0  0  0  0  0  0  0  0  0  0  0  0
   15.8640  -13.2316  -19.5775 C   0  0  0  0  0  0  0  0  0  0  0  0
   16.6958  -14.3121  -19.7761 C   0  0  0  0  0  0  0  0  0  0  0  0
   16.2564  -15.6134  -19.6969 C   0  0  0  0  0  0  0  0  0  0  0  0
   17.1233  -16.7823  -19.9135 C   0  0  2  0  0  0  0  0  0  0  0  0
   17.7771  -17.2123  -18.6424 N   0  0  0  0  0  0  0  0  0  0  0  0
   18.6421  -18.3707  -18.8514 C   0  0  0  0  0  0  0  0  0  0  0  0
   16.7936  -17.5625  -17.6215 O   0  0  0  0  0  0  0  0  0  0  0  0
   16.4158  -18.7474  -17.5017 C   0  0  0  0  0  0  0  0  0  0  0  0
   14.9155  -15.8080  -19.4027 C   0  0  0  0  0  0  0  0  0  0  0  0
   14.0804  -14.7409  -19.2032 O   0  0  0  0  0  0  0  0  0  0  0  0
  2  3  2  0
  2  1  1  0
  4  2  1  0
  5  4  1  0
  5  6  1  6
  7  5  1  0
  7  8  2  0
  9 10  1  0
 10 12  1  0
 11 10  2  0
 12 13  1  0
 13 14  1  0
 14 15  1  0
 16 17  1  0
 16 15  1  1
 17  7  1  0
 18 16  1  0
 19 18  2  0
 20 21  1  0
 21 22  2  0
 21 31  1  0
 22 23  1  0
 23 24  2  0
 24 25  1  0
 26 25  1  6
 26 27  1  0
 27 18  1  0
 28 26  1  0
 28 32  1  0
 29 28  2  0
 30 24  1  0
 31 30  2  0
M  END
$$$$
