NRY.pdb
     RDKit          3D

 32 32  0  0  1  0  0  0  0  0999 V2000
   22.7846  -13.8374  -18.1919 N   0  0  0  0  0  0  0  0  0  0  0  0
   22.2038  -13.8360  -16.9025 C   0  0  0  0  0  0  0  0  0  0  0  0
   22.3758  -12.8835  -16.1157 O   0  0  0  0  0  0  0  0  0  0  0  0
   21.3755  -14.9837  -16.4737 C   0  0  0  0  0  0  0  0  0  0  0  0
   21.5032  -16.0523  -17.5386 C   0  0  2  0  0  0  0  0  0  0  0  0
   20.5549  -15.8669  -18.5950 N   0  0  0  0  0  0  0  0  0  0  0  0
   21.3302  -17.4265  -16.9557 C   0  0  0  0  0  0  0  0  0  0  0  0
   20.1641  -17.8112  -16.6048 O   0  0  0  0  0  0  0  0  0  0  0  0
   25.1956  -24.1159  -15.7329 N   0  0  0  0  0  0  0  0  0  0  0  0
   24.0658  -24.3314  -14.9105 C   0  0  0  0  0  0  0  0  0  0  0  0
   24.1177  -25.2140  -13.9506 N   0  0  0  0  0  0  0  0  0  0  0  0
   22.8416  -23.6361  -15.0585 N   0  0  0  0  0  0  0  0  0  0  0  0
   22.7300  -22.4851  -15.9315 C   0  0  0  0  0  0  0  0  0  0  0  0
   23.8459  -21.4756  -15.6923 C   0  0  0  0  0  0  0  0  0  0  0  0
   23.6437  -20.2389  -16.4998 C   0  0  0  0  0  0  0  0  0  0  0  0
   22.4224  -19.4934  -16.0824 C   0  0  2  0  0  0  0  0  0  0  0  0
   22.4879  -18.2238  -16.8288 N   0  0  0  0  0  0  0  0  0  0  0  0
   22.2173  -19.2458  -14.6683 C   0  0  0  0  0  0  0  0  0  0  0  0
   23.1789  -18.7488  -13.9883 O   0  0  0  0  0  0  0  0  0  0  0  0
   23.3307  -25.4236  -13.3190 O   0  0  0  0  0  0  0  0  0  0  0  0
   14.8173  -18.9783  -13.7325 C   0  0  0  0  0  0  0  0  0  0  0  0
   16.1355  -18.8125  -13.3296 C   0  0  0  0  0  0  0  0  0  0  0  0
   17.0435  -18.1708  -14.1185 C   0  0  0  0  0  0  0  0  0  0  0  0
   18.3392  -18.0340  -13.6697 C   0  0  0  0  0  0  0  0  0  0  0  0
   18.7600  -18.5194  -12.4531 C   0  0  0  0  0  0  0  0  0  0  0  0
   20.1393  -18.3930  -11.9567 C   0  0  1  0  0  0  0  0  0  0  0  0
   21.0038  -19.4919  -12.4792 N   0  0  0  0  0  0  0  0  0  0  0  0
   21.0458  -19.4908  -13.9393 C   0  0  0  0  0  0  0  0  0  0  0  0
   20.5322  -20.8032  -12.0428 O   0  0  0  0  0  0  0  0  0  0  0  0
   20.1614  -21.6444  -12.8889 C   0  0  0  0  0  0  0  0  0  0  0  0
   17.8144  -19.1670  -11.6729 C   0  0  0  0  0  0  0  0  0  0  0  0
   16.5240  -19.3082  -12.1096 O   0  0  0  0  0  0  0  0  0  0  0  0
  2  3  2  0
  2  1  1  0
  4  2  1  0
  5  4  1  0
  5  6  1  6
  7  5  1  0
  7  8  2  0
  9 10  1  0
 10 12  1  0
 11 10  2  0
 12 13  1  0
 13 14  1  0
 14 15  1  0
 16 17  1  0
 16 15  1  1
 17  7  1  0
 18 16  1  0
 19 18  2  0
 20 21  1  0
 21 22  2  0
 21 31  1  0
 22 23  1  0
 23 24  2  0
 24 25  1  0
 26 25  1  1
 26 27  1  0
 27 18  1  0
 28 26  1  0
 28 32  1  0
 29 28  2  0
 30 24  1  0
 31 30  2  0
M  END
$$$$
