NRY.pdb
     RDKit          3D

 32 32  0  0  1  0  0  0  0  0999 V2000
   30.3514  -26.2979  -18.2559 N   0  0  0  0  0  0  0  0  0  0  0  0
   31.1163  -25.5844  -17.3041 C   0  0  0  0  0  0  0  0  0  0  0  0
   32.1202  -26.0937  -16.7667 O   0  0  0  0  0  0  0  0  0  0  0  0
   30.7226  -24.2074  -16.9354 C   0  0  0  0  0  0  0  0  0  0  0  0
   29.4934  -23.8591  -17.7476 C   0  0  2  0  0  0  0  0  0  0  0  0
   29.8178  -23.5910  -19.1160 N   0  0  0  0  0  0  0  0  0  0  0  0
   28.7757  -22.6723  -17.1691 C   0  0  0  0  0  0  0  0  0  0  0  0
   29.1939  -22.1655  -16.0740 O   0  0  0  0  0  0  0  0  0  0  0  0
   23.8222  -20.5215  -21.8322 N   0  0  0  0  0  0  0  0  0  0  0  0
   22.9679  -20.6949  -20.7190 C   0  0  0  0  0  0  0  0  0  0  0  0
   21.9125  -21.4559  -20.8201 N   0  0  0  0  0  0  0  0  0  0  0  0
   23.1816  -20.0819  -19.4610 N   0  0  0  0  0  0  0  0  0  0  0  0
   24.2215  -19.0904  -19.2734 C   0  0  0  0  0  0  0  0  0  0  0  0
   25.1610  -19.4563  -18.1310 C   0  0  0  0  0  0  0  0  0  0  0  0
   26.0684  -20.5768  -18.5100 C   0  0  0  0  0  0  0  0  0  0  0  0
   26.9200  -21.0156  -17.3683 C   0  0  2  0  0  0  0  0  0  0  0  0
   27.6625  -22.1803  -17.8837 N   0  0  0  0  0  0  0  0  0  0  0  0
   26.2728  -21.3368  -16.1109 C   0  0  0  0  0  0  0  0  0  0  0  0
   25.7035  -22.4748  -15.9888 O   0  0  0  0  0  0  0  0  0  0  0  0
   21.2267  -21.5916  -20.0628 O   0  0  0  0  0  0  0  0  0  0  0  0
   22.9263  -21.3309   -7.9883 C   0  0  0  0  0  0  0  0  0  0  0  0
   23.6952  -21.0361   -9.1060 C   0  0  0  0  0  0  0  0  0  0  0  0
   25.0099  -21.3898   -9.1765 C   0  0  0  0  0  0  0  0  0  0  0  0
   25.7268  -21.0725  -10.3098 C   0  0  0  0  0  0  0  0  0  0  0  0
   25.1714  -20.4100  -11.3800 C   0  0  0  0  0  0  0  0  0  0  0  0
   25.9186  -20.0529  -12.5961 C   0  0  1  0  0  0  0  0  0  0  0  0
   25.5289  -20.9236  -13.7442 N   0  0  0  0  0  0  0  0  0  0  0  0
   26.2032  -20.5188  -14.9751 C   0  0  0  0  0  0  0  0  0  0  0  0
   24.0893  -20.8859  -13.9854 O   0  0  0  0  0  0  0  0  0  0  0  0
   23.3636  -21.8129  -13.5671 C   0  0  0  0  0  0  0  0  0  0  0  0
   23.8327  -20.0633  -11.2795 C   0  0  0  0  0  0  0  0  0  0  0  0
   23.1112  -20.3742  -10.1576 O   0  0  0  0  0  0  0  0  0  0  0  0
  2  3  2  0
  2  1  1  0
  4  2  1  0
  5  4  1  0
  5  6  1  6
  7  5  1  0
  7  8  2  0
  9 10  1  0
 10 12  1  0
 11 10  2  0
 12 13  1  0
 13 14  1  0
 14 15  1  0
 16 17  1  0
 16 15  1  6
 17  7  1  0
 18 16  1  0
 19 18  2  0
 20 21  1  0
 21 22  2  0
 21 31  1  0
 22 23  1  0
 23 24  2  0
 24 25  1  0
 26 25  1  1
 26 27  1  0
 27 18  1  0
 28 26  1  0
 28 32  1  0
 29 28  2  0
 30 24  1  0
 31 30  2  0
M  END
$$$$
