LLC.pdb
     RDKit          3D

 23 22  0  0  1  0  0  0  0  0999 V2000
   15.8766  -14.0921  -18.2014 C   0  0  0  0  0  0  0  0  0  0  0  0
   16.6225  -14.8177  -17.1250 C   0  0  2  0  0  0  0  0  0  0  0  0
   15.6416  -15.5611  -16.2458 C   0  0  0  0  0  0  0  0  0  0  0  0
   17.4439  -13.8510  -16.3008 C   0  0  0  0  0  0  0  0  0  0  0  0
   18.3505  -13.0077  -17.1410 C   0  0  2  0  0  0  0  0  0  0  0  0
   19.3548  -13.8365  -17.7355 N   0  0  0  0  0  0  0  0  0  0  0  0
   19.0120  -12.0256  -16.2296 C   0  0  0  0  0  0  0  0  0  0  0  0
   18.3460  -11.5473  -15.2811 O   0  0  0  0  0  0  0  0  0  0  0  0
   24.8077  -10.2127  -15.1116 C   0  0  0  0  0  0  0  0  0  0  0  0
   23.3322  -10.0542  -14.8056 C   0  0  2  0  0  0  0  0  0  0  0  0
   23.1021  -10.1811  -13.3512 C   0  0  0  0  0  0  0  0  0  0  0  0
   22.4314  -10.7637  -15.7267 C   0  0  0  0  0  0  0  0  0  0  0  0
   20.9712  -10.5780  -15.6620 C   0  0  2  0  0  0  0  0  0  0  0  0
   20.3646  -11.6663  -16.4633 N   0  0  0  0  0  0  0  0  0  0  0  0
   20.3711   -9.3224  -16.0454 C   0  0  0  0  0  0  0  0  0  0  0  0
   20.2829   -9.0447  -17.3040 O   0  0  0  0  0  0  0  0  0  0  0  0
   19.8397   -8.3204  -15.2032 N   0  0  0  0  0  0  0  0  0  0  0  0
   19.4112   -7.0268  -15.7128 C   0  0  1  0  0  0  0  0  0  0  0  0
   17.8877   -6.9910  -15.5436 C   0  0  0  0  0  0  0  0  0  0  0  0
   17.2801   -5.3247  -15.9223 S   0  0  0  0  0  0  0  0  0  0  0  0
   19.9308   -5.8778  -14.9528 C   0  0  0  0  0  0  0  0  0  0  0  0
   20.0282   -4.6448  -15.6012 O   0  0  0  0  0  0  0  0  0  0  0  0
   20.2996   -5.9001  -13.7626 O   0  0  0  0  0  0  0  0  0  0  0  0
  2  1  1  6
  2  3  1  0
  4  5  1  0
  4  2  1  0
  5  7  1  0
  5  6  1  1
  7  8  2  0
 10  9  1  1
 11 10  1  0
 12 10  1  0
 13 12  1  6
 14 13  1  0
 14  7  1  0
 15 17  1  0
 15 13  1  0
 16 15  2  0
 18 21  1  0
 18 17  1  0
 18 19  1  1
 20 19  1  0
 21 22  1  0
 23 21  2  0
M  END
$$$$
