LLC.pdb
     RDKit          3D

 23 22  0  0  1  0  0  0  0  0999 V2000
   19.0180  -22.2902   -9.8095 C   0  0  0  0  0  0  0  0  0  0  0  0
   18.2995  -23.4911  -10.3416 C   0  0  2  0  0  0  0  0  0  0  0  0
   17.2383  -23.0488  -11.3243 C   0  0  0  0  0  0  0  0  0  0  0  0
   17.6776  -24.2838   -9.2131 C   0  0  0  0  0  0  0  0  0  0  0  0
   18.5703  -25.3800   -8.7225 C   0  0  2  0  0  0  0  0  0  0  0  0
   18.7752  -26.3316   -9.7720 N   0  0  0  0  0  0  0  0  0  0  0  0
   17.8636  -26.0532   -7.5911 C   0  0  0  0  0  0  0  0  0  0  0  0
   17.0164  -26.9384   -7.8572 O   0  0  0  0  0  0  0  0  0  0  0  0
   19.1417  -26.9311   -1.6630 C   0  0  0  0  0  0  0  0  0  0  0  0
   18.0895  -27.0568   -2.7461 C   0  0  2  0  0  0  0  0  0  0  0  0
   17.5243  -28.4224   -2.7444 C   0  0  0  0  0  0  0  0  0  0  0  0
   18.4534  -26.4459   -4.0336 C   0  0  0  0  0  0  0  0  0  0  0  0
   17.4820  -26.3538   -5.1374 C   0  0  2  0  0  0  0  0  0  0  0  0
   18.1703  -25.6733   -6.2589 N   0  0  0  0  0  0  0  0  0  0  0  0
   16.1930  -25.7364   -4.9343 C   0  0  0  0  0  0  0  0  0  0  0  0
   16.1517  -24.4656   -4.7055 O   0  0  0  0  0  0  0  0  0  0  0  0
   14.9215  -26.3515   -4.9595 N   0  0  0  0  0  0  0  0  0  0  0  0
   13.6995  -25.6171   -4.6693 C   0  0  1  0  0  0  0  0  0  0  0  0
   12.5744  -26.3702   -5.3889 C   0  0  0  0  0  0  0  0  0  0  0  0
   12.9408  -26.4453   -7.1634 S   0  0  0  0  0  0  0  0  0  0  0  0
   13.3302  -25.6013   -3.2441 C   0  0  0  0  0  0  0  0  0  0  0  0
   12.5297  -24.5556   -2.7793 O   0  0  0  0  0  0  0  0  0  0  0  0
   13.6700  -26.4483   -2.3954 O   0  0  0  0  0  0  0  0  0  0  0  0
  2  1  1  1
  2  3  1  0
  4  5  1  0
  4  2  1  0
  5  7  1  0
  5  6  1  6
  7  8  2  0
 10  9  1  1
 11 10  1  0
 12 10  1  0
 13 12  1  1
 14 13  1  0
 14  7  1  0
 15 17  1  0
 15 13  1  0
 16 15  2  0
 18 21  1  0
 18 17  1  0
 18 19  1  6
 20 19  1  0
 21 22  1  0
 23 21  2  0
M  END
$$$$
