LLC.pdb
     RDKit          3D

 23 22  0  0  1  0  0  0  0  0999 V2000
   26.8239  -17.6399  -18.0260 C   0  0  0  0  0  0  0  0  0  0  0  0
   27.5394  -17.7675  -16.7171 C   0  0  2  0  0  0  0  0  0  0  0  0
   28.9819  -18.1478  -16.9665 C   0  0  0  0  0  0  0  0  0  0  0  0
   26.8651  -18.7986  -15.8391 C   0  0  0  0  0  0  0  0  0  0  0  0
   25.3894  -18.5781  -15.7255 C   0  0  2  0  0  0  0  0  0  0  0  0
   25.1443  -17.3629  -15.0096 N   0  0  0  0  0  0  0  0  0  0  0  0
   24.8301  -19.7212  -14.9425 C   0  0  0  0  0  0  0  0  0  0  0  0
   25.0121  -20.8855  -15.3709 O   0  0  0  0  0  0  0  0  0  0  0  0
   25.8437  -22.0627  -11.5516 C   0  0  0  0  0  0  0  0  0  0  0  0
   25.3294  -20.7060  -11.1148 C   0  0  2  0  0  0  0  0  0  0  0  0
   25.6791  -20.4657   -9.6990 C   0  0  0  0  0  0  0  0  0  0  0  0
   23.9671  -20.3873  -11.5686 C   0  0  0  0  0  0  0  0  0  0  0  0
   23.5613  -20.5910  -12.9701 C   0  0  2  0  0  0  0  0  0  0  0  0
   24.1148  -19.4568  -13.7460 N   0  0  0  0  0  0  0  0  0  0  0  0
   22.1704  -20.7619  -13.3165 C   0  0  0  0  0  0  0  0  0  0  0  0
   21.3670  -19.7666  -13.1348 O   0  0  0  0  0  0  0  0  0  0  0  0
   21.5435  -21.9080  -13.8543 N   0  0  0  0  0  0  0  0  0  0  0  0
   20.1230  -21.9394  -14.1673 C   0  0  1  0  0  0  0  0  0  0  0  0
   19.9582  -22.9896  -15.2722 C   0  0  0  0  0  0  0  0  0  0  0  0
   21.0396  -22.5699  -16.6662 S   0  0  0  0  0  0  0  0  0  0  0  0
   19.2704  -22.3857  -13.0530 C   0  0  0  0  0  0  0  0  0  0  0  0
   17.8846  -22.3291  -13.2161 O   0  0  0  0  0  0  0  0  0  0  0  0
   19.6744  -22.8178  -11.9561 O   0  0  0  0  0  0  0  0  0  0  0  0
  2  1  1  6
  2  3  1  0
  4  5  1  0
  4  2  1  0
  5  7  1  0
  5  6  1  1
  7  8  2  0
 10  9  1  1
 11 10  1  0
 12 10  1  0
 13 12  1  1
 14 13  1  0
 14  7  1  0
 15 17  1  0
 15 13  1  0
 16 15  2  0
 18 21  1  0
 18 17  1  0
 18 19  1  6
 20 19  1  0
 21 22  1  0
 23 21  2  0
M  END
$$$$
