LLC.pdb
     RDKit          3D

 23 22  0  0  1  0  0  0  0  0999 V2000
   16.4451  -12.6666  -18.6816 C   0  0  0  0  0  0  0  0  0  0  0  0
   17.0458  -13.2311  -17.4318 C   0  0  2  0  0  0  0  0  0  0  0  0
   15.9867  -13.9868  -16.6607 C   0  0  0  0  0  0  0  0  0  0  0  0
   17.6357  -12.1295  -16.5790 C   0  0  0  0  0  0  0  0  0  0  0  0
   18.5842  -11.2593  -17.3420 C   0  0  2  0  0  0  0  0  0  0  0  0
   19.7823  -11.9917  -17.6198 N   0  0  0  0  0  0  0  0  0  0  0  0
   18.9209  -10.0969  -16.4656 C   0  0  0  0  0  0  0  0  0  0  0  0
   17.9848   -9.4823  -15.9014 O   0  0  0  0  0  0  0  0  0  0  0  0
   21.2656   -9.3545  -12.5088 C   0  0  0  0  0  0  0  0  0  0  0  0
   22.1042   -9.7102  -13.7196 C   0  0  2  0  0  0  0  0  0  0  0  0
   23.4726  -10.0746  -13.2963 C   0  0  0  0  0  0  0  0  0  0  0  0
   21.9385   -8.8099  -14.8709 C   0  0  0  0  0  0  0  0  0  0  0  0
   20.6107   -8.5538  -15.4558 C   0  0  2  0  0  0  0  0  0  0  0  0
   20.2802   -9.7259  -16.2993 N   0  0  0  0  0  0  0  0  0  0  0  0
   20.3577   -7.3481  -16.2081 C   0  0  0  0  0  0  0  0  0  0  0  0
   20.8416   -7.2585  -17.4026 O   0  0  0  0  0  0  0  0  0  0  0  0
   19.6199   -6.2123  -15.8067 N   0  0  0  0  0  0  0  0  0  0  0  0
   19.5368   -5.0129  -16.6261 C   0  0  1  0  0  0  0  0  0  0  0  0
   18.1176   -4.9967  -17.2065 C   0  0  0  0  0  0  0  0  0  0  0  0
   17.8576   -3.4487  -18.1147 S   0  0  0  0  0  0  0  0  0  0  0  0
   19.6807   -3.7567  -15.8716 C   0  0  0  0  0  0  0  0  0  0  0  0
   20.3607   -2.6965  -16.4748 O   0  0  0  0  0  0  0  0  0  0  0  0
   19.2454   -3.5442  -14.7233 O   0  0  0  0  0  0  0  0  0  0  0  0
  2  1  1  6
  2  3  1  0
  4  5  1  0
  4  2  1  0
  5  7  1  0
  5  6  1  1
  7  8  2  0
 10  9  1  1
 11 10  1  0
 12 10  1  0
 13 12  1  6
 14 13  1  0
 14  7  1  0
 15 17  1  0
 15 13  1  0
 16 15  2  0
 18 21  1  0
 18 17  1  0
 18 19  1  1
 20 19  1  0
 21 22  1  0
 23 21  2  0
M  END
$$$$
