LLC.pdb
     RDKit          3D

 23 22  0  0  1  0  0  0  0  0999 V2000
   17.8494  -12.7095  -21.1850 C   0  0  0  0  0  0  0  0  0  0  0  0
   16.8375  -12.4539  -20.1115 C   0  0  2  0  0  0  0  0  0  0  0  0
   15.7818  -11.5033  -20.6304 C   0  0  0  0  0  0  0  0  0  0  0  0
   17.5016  -11.8840  -18.8775 C   0  0  0  0  0  0  0  0  0  0  0  0
   18.6022  -12.7577  -18.3632 C   0  0  2  0  0  0  0  0  0  0  0  0
   18.0398  -13.9427  -17.7901 N   0  0  0  0  0  0  0  0  0  0  0  0
   19.3110  -11.9929  -17.2930 C   0  0  0  0  0  0  0  0  0  0  0  0
   18.7267  -11.8153  -16.1980 O   0  0  0  0  0  0  0  0  0  0  0  0
   25.0766  -11.0110  -15.6644 C   0  0  0  0  0  0  0  0  0  0  0  0
   23.6388  -10.5674  -15.4853 C   0  0  2  0  0  0  0  0  0  0  0  0
   23.2690  -10.6199  -14.0554 C   0  0  0  0  0  0  0  0  0  0  0  0
   22.6978  -11.1093  -16.4774 C   0  0  0  0  0  0  0  0  0  0  0  0
   21.2895  -10.6779  -16.5102 C   0  0  2  0  0  0  0  0  0  0  0  0
   20.6149  -11.4942  -17.5462 N   0  0  0  0  0  0  0  0  0  0  0  0
   20.9492   -9.2896  -16.7115 C   0  0  0  0  0  0  0  0  0  0  0  0
   21.2587   -8.7403  -17.8391 O   0  0  0  0  0  0  0  0  0  0  0  0
   20.2928   -8.4172  -15.8150 N   0  0  0  0  0  0  0  0  0  0  0  0
   20.0522   -7.0177  -16.1319 C   0  0  1  0  0  0  0  0  0  0  0  0
   18.5785   -6.7575  -15.7980 C   0  0  0  0  0  0  0  0  0  0  0  0
   17.5373   -7.9060  -16.7392 S   0  0  0  0  0  0  0  0  0  0  0  0
   20.8271   -6.0723  -15.3112 C   0  0  0  0  0  0  0  0  0  0  0  0
   20.7658   -4.7142  -15.6304 O   0  0  0  0  0  0  0  0  0  0  0  0
   21.5470   -6.3735  -14.3395 O   0  0  0  0  0  0  0  0  0  0  0  0
  2  1  1  6
  2  3  1  0
  4  5  1  0
  4  2  1  0
  5  7  1  0
  5  6  1  1
  7  8  2  0
 10  9  1  1
 11 10  1  0
 12 10  1  0
 13 12  1  6
 14 13  1  0
 14  7  1  0
 15 17  1  0
 15 13  1  0
 16 15  2  0
 18 21  1  0
 18 17  1  0
 18 19  1  1
 20 19  1  0
 21 22  1  0
 23 21  2  0
M  END
$$$$
