LLC.pdb
     RDKit          3D

 23 22  0  0  1  0  0  0  0  0999 V2000
   17.9416  -14.6794  -15.1686 C   0  0  0  0  0  0  0  0  0  0  0  0
   18.6414  -13.9738  -16.2884 C   0  0  2  0  0  0  0  0  0  0  0  0
   19.4080  -14.9804  -17.1171 C   0  0  0  0  0  0  0  0  0  0  0  0
   19.5750  -12.9124  -15.7493 C   0  0  0  0  0  0  0  0  0  0  0  0
   19.9781  -11.9194  -16.7935 C   0  0  2  0  0  0  0  0  0  0  0  0
   20.9593  -12.5068  -17.6544 N   0  0  0  0  0  0  0  0  0  0  0  0
   20.5920  -10.7562  -16.0845 C   0  0  0  0  0  0  0  0  0  0  0  0
   20.0399  -10.3322  -15.0416 O   0  0  0  0  0  0  0  0  0  0  0  0
   24.3275  -10.3402  -14.0074 C   0  0  0  0  0  0  0  0  0  0  0  0
   24.6104  -10.1303  -15.4811 C   0  0  2  0  0  0  0  0  0  0  0  0
   26.0675  -10.1677  -15.7255 C   0  0  0  0  0  0  0  0  0  0  0  0
   23.8157   -9.0684  -16.1168 C   0  0  0  0  0  0  0  0  0  0  0  0
   22.3564   -8.9900  -15.9298 C   0  0  2  0  0  0  0  0  0  0  0  0
   21.7731  -10.1703  -16.6089 N   0  0  0  0  0  0  0  0  0  0  0  0
   21.6254   -7.8108  -16.3280 C   0  0  0  0  0  0  0  0  0  0  0  0
   21.4432   -7.5998  -17.5894 O   0  0  0  0  0  0  0  0  0  0  0  0
   21.0532   -6.8216  -15.4974 N   0  0  0  0  0  0  0  0  0  0  0  0
   20.4642   -5.6044  -16.0346 C   0  0  1  0  0  0  0  0  0  0  0  0
   18.9617   -5.6997  -15.7442 C   0  0  0  0  0  0  0  0  0  0  0  0
   18.1754   -4.1089  -16.1183 S   0  0  0  0  0  0  0  0  0  0  0  0
   20.9269   -4.3706  -15.3778 C   0  0  0  0  0  0  0  0  0  0  0  0
   20.7864   -3.1626  -16.0643 O   0  0  0  0  0  0  0  0  0  0  0  0
   21.4422   -4.2990  -14.2453 O   0  0  0  0  0  0  0  0  0  0  0  0
  2  1  1  1
  2  3  1  0
  4  5  1  0
  4  2  1  0
  5  7  1  0
  5  6  1  6
  7  8  2  0
 10  9  1  1
 11 10  1  0
 12 10  1  0
 13 12  1  6
 14 13  1  0
 14  7  1  0
 15 17  1  0
 15 13  1  0
 16 15  2  0
 18 21  1  0
 18 17  1  0
 18 19  1  1
 20 19  1  0
 21 22  1  0
 23 21  2  0
M  END
$$$$
