LLC.pdb
     RDKit          3D

 23 22  0  0  1  0  0  0  0  0999 V2000
   18.6140  -12.2935  -20.0860 C   0  0  0  0  0  0  0  0  0  0  0  0
   17.3511  -11.6113  -19.6604 C   0  0  2  0  0  0  0  0  0  0  0  0
   16.6628  -11.0238  -20.8724 C   0  0  0  0  0  0  0  0  0  0  0  0
   17.6454  -10.5304  -18.6438 C   0  0  0  0  0  0  0  0  0  0  0  0
   18.4337  -11.0389  -17.4780 C   0  0  2  0  0  0  0  0  0  0  0  0
   17.5726  -11.7842  -16.6108 N   0  0  0  0  0  0  0  0  0  0  0  0
   18.9497   -9.8472  -16.7389 C   0  0  0  0  0  0  0  0  0  0  0  0
   18.1264   -9.1025  -16.1560 O   0  0  0  0  0  0  0  0  0  0  0  0
   21.4133   -9.2398  -13.0006 C   0  0  0  0  0  0  0  0  0  0  0  0
   22.2186   -9.7223  -14.1900 C   0  0  2  0  0  0  0  0  0  0  0  0
   23.5398  -10.2091  -13.7408 C   0  0  0  0  0  0  0  0  0  0  0  0
   22.1529   -8.8517  -15.3737 C   0  0  0  0  0  0  0  0  0  0  0  0
   20.8604   -8.4398  -15.9486 C   0  0  2  0  0  0  0  0  0  0  0  0
   20.3459   -9.5958  -16.7191 N   0  0  0  0  0  0  0  0  0  0  0  0
   20.7619   -7.2520  -16.7630 C   0  0  0  0  0  0  0  0  0  0  0  0
   21.3365   -7.2531  -17.9201 O   0  0  0  0  0  0  0  0  0  0  0  0
   20.0923   -6.0451  -16.4616 N   0  0  0  0  0  0  0  0  0  0  0  0
   20.1411   -4.8903  -17.3452 C   0  0  1  0  0  0  0  0  0  0  0  0
   18.6858   -4.5835  -17.7182 C   0  0  0  0  0  0  0  0  0  0  0  0
   18.6247   -3.0547  -18.6918 S   0  0  0  0  0  0  0  0  0  0  0  0
   20.6636   -3.6684  -16.7114 C   0  0  0  0  0  0  0  0  0  0  0  0
   20.3087   -3.4064  -15.3864 O   0  0  0  0  0  0  0  0  0  0  0  0
   21.4072   -2.8286  -17.2544 O   0  0  0  0  0  0  0  0  0  0  0  0
  2  1  1  6
  2  3  1  0
  4  5  1  0
  4  2  1  0
  5  7  1  0
  5  6  1  1
  7  8  2  0
 10  9  1  1
 11 10  1  0
 12 10  1  0
 13 12  1  6
 14 13  1  0
 14  7  1  0
 15 17  1  0
 15 13  1  0
 16 15  2  0
 18 21  1  0
 18 17  1  0
 18 19  1  1
 20 19  1  0
 21 22  1  0
 23 21  2  0
M  END
$$$$
