LLC.pdb
     RDKit          3D

 23 22  0  0  1  0  0  0  0  0999 V2000
   25.6959  -31.1651   -8.6519 C   0  0  0  0  0  0  0  0  0  0  0  0
   25.1192  -32.5241   -8.4029 C   0  0  2  0  0  0  0  0  0  0  0  0
   23.8048  -32.3865   -7.6673 C   0  0  0  0  0  0  0  0  0  0  0  0
   26.0840  -33.3751   -7.6068 C   0  0  0  0  0  0  0  0  0  0  0  0
   27.3780  -33.5984   -8.3242 C   0  0  2  0  0  0  0  0  0  0  0  0
   27.1543  -34.4476   -9.4547 N   0  0  0  0  0  0  0  0  0  0  0  0
   28.2974  -34.2928   -7.3728 C   0  0  0  0  0  0  0  0  0  0  0  0
   28.0956  -35.5049   -7.1233 O   0  0  0  0  0  0  0  0  0  0  0  0
   34.0327  -33.2634   -5.4460 C   0  0  0  0  0  0  0  0  0  0  0  0
   32.7919  -34.1218   -5.3063 C   0  0  2  0  0  0  0  0  0  0  0  0
   33.1448  -35.5482   -5.4646 C   0  0  0  0  0  0  0  0  0  0  0  0
   31.6040  -33.6075   -6.0047 C   0  0  0  0  0  0  0  0  0  0  0  0
   30.2915  -34.2615   -5.8632 C   0  0  2  0  0  0  0  0  0  0  0  0
   29.3637  -33.5649   -6.7844 N   0  0  0  0  0  0  0  0  0  0  0  0
   29.6646  -34.3818   -4.5684 C   0  0  0  0  0  0  0  0  0  0  0  0
   29.1926  -33.3142   -4.0147 O   0  0  0  0  0  0  0  0  0  0  0  0
   29.4821  -35.5510   -3.7968 N   0  0  0  0  0  0  0  0  0  0  0  0
   28.9209  -35.5142   -2.4551 C   0  0  1  0  0  0  0  0  0  0  0  0
   27.8172  -36.5783   -2.4308 C   0  0  0  0  0  0  0  0  0  0  0  0
   26.1990  -35.7684   -2.5513 S   0  0  0  0  0  0  0  0  0  0  0  0
   29.8703  -35.8903   -1.3944 C   0  0  0  0  0  0  0  0  0  0  0  0
   29.5128  -35.6418   -0.0675 O   0  0  0  0  0  0  0  0  0  0  0  0
   30.9847  -36.4198   -1.5703 O   0  0  0  0  0  0  0  0  0  0  0  0
  2  1  1  1
  2  3  1  0
  4  5  1  0
  4  2  1  0
  5  7  1  0
  5  6  1  6
  7  8  2  0
 10  9  1  6
 11 10  1  0
 12 10  1  0
 13 12  1  1
 14 13  1  0
 14  7  1  0
 15 17  1  0
 15 13  1  0
 16 15  2  0
 18 21  1  0
 18 17  1  0
 18 19  1  6
 20 19  1  0
 21 22  1  0
 23 21  2  0
M  END
$$$$
