LLC.pdb
     RDKit          3D

 23 22  0  0  1  0  0  0  0  0999 V2000
   17.2947  -12.6449  -20.5060 C   0  0  0  0  0  0  0  0  0  0  0  0
   16.2439  -12.4825  -19.4520 C   0  0  2  0  0  0  0  0  0  0  0  0
   15.0721  -11.7153  -20.0229 C   0  0  0  0  0  0  0  0  0  0  0  0
   16.8065  -11.7664  -18.2439 C   0  0  0  0  0  0  0  0  0  0  0  0
   18.0143  -12.4493  -17.6836 C   0  0  2  0  0  0  0  0  0  0  0  0
   17.6207  -13.6782  -17.0639 N   0  0  0  0  0  0  0  0  0  0  0  0
   18.5902  -11.5458  -16.6421 C   0  0  0  0  0  0  0  0  0  0  0  0
   17.9535  -11.3815  -15.5745 O   0  0  0  0  0  0  0  0  0  0  0  0
   24.0451  -10.1435  -14.5833 C   0  0  0  0  0  0  0  0  0  0  0  0
   22.6140   -9.6523  -14.6662 C   0  0  2  0  0  0  0  0  0  0  0  0
   22.0951   -9.3789  -13.3096 C   0  0  0  0  0  0  0  0  0  0  0  0
   21.7623  -10.3899  -15.6116 C   0  0  0  0  0  0  0  0  0  0  0  0
   20.3761   -9.9691  -15.8800 C   0  0  2  0  0  0  0  0  0  0  0  0
   19.8317  -10.9055  -16.8907 N   0  0  0  0  0  0  0  0  0  0  0  0
   20.0836   -8.6159  -16.2887 C   0  0  0  0  0  0  0  0  0  0  0  0
   20.4942   -8.2240  -17.4492 O   0  0  0  0  0  0  0  0  0  0  0  0
   19.3769   -7.6252  -15.5710 N   0  0  0  0  0  0  0  0  0  0  0  0
   19.1601   -6.2889  -16.1038 C   0  0  1  0  0  0  0  0  0  0  0  0
   17.6982   -5.9444  -15.7953 C   0  0  0  0  0  0  0  0  0  0  0  0
   16.6172   -7.2044  -16.5253 S   0  0  0  0  0  0  0  0  0  0  0  0
   19.9687   -5.2432  -15.4553 C   0  0  0  0  0  0  0  0  0  0  0  0
   19.8870   -3.9404  -15.9513 O   0  0  0  0  0  0  0  0  0  0  0  0
   20.7345   -5.4123  -14.4867 O   0  0  0  0  0  0  0  0  0  0  0  0
  2  1  1  6
  2  3  1  0
  4  5  1  0
  4  2  1  0
  5  7  1  0
  5  6  1  1
  7  8  2  0
 10  9  1  1
 11 10  1  0
 12 10  1  0
 13 12  1  6
 14 13  1  0
 14  7  1  0
 15 17  1  0
 15 13  1  0
 16 15  2  0
 18 21  1  0
 18 17  1  0
 18 19  1  1
 20 19  1  0
 21 22  1  0
 23 21  2  0
M  END
$$$$
