LLC.pdb
     RDKit          3D

 23 22  0  0  1  0  0  0  0  0999 V2000
   28.0150  -15.8996  -15.6676 C   0  0  0  0  0  0  0  0  0  0  0  0
   27.4042  -16.6530  -16.8081 C   0  0  2  0  0  0  0  0  0  0  0  0
   26.4832  -15.7362  -17.5819 C   0  0  0  0  0  0  0  0  0  0  0  0
   26.6461  -17.8613  -16.3040 C   0  0  0  0  0  0  0  0  0  0  0  0
   27.4524  -18.6881  -15.3526 C   0  0  2  0  0  0  0  0  0  0  0  0
   28.4102  -19.4584  -16.0863 N   0  0  0  0  0  0  0  0  0  0  0  0
   26.5076  -19.6198  -14.6655 C   0  0  0  0  0  0  0  0  0  0  0  0
   26.2256  -20.7057  -15.2252 O   0  0  0  0  0  0  0  0  0  0  0  0
   25.9805  -22.2319  -10.4748 C   0  0  0  0  0  0  0  0  0  0  0  0
   26.1888  -20.7368  -10.3432 C   0  0  2  0  0  0  0  0  0  0  0  0
   26.3027  -20.3669   -8.9169 C   0  0  0  0  0  0  0  0  0  0  0  0
   25.3385  -19.9161  -11.2189 C   0  0  0  0  0  0  0  0  0  0  0  0
   25.1704  -20.2429  -12.6456 C   0  0  2  0  0  0  0  0  0  0  0  0
   25.9617  -19.2502  -13.4091 N   0  0  0  0  0  0  0  0  0  0  0  0
   23.8534  -20.3413  -13.2282 C   0  0  0  0  0  0  0  0  0  0  0  0
   23.2279  -19.2483  -13.5167 O   0  0  0  0  0  0  0  0  0  0  0  0
   23.1290  -21.5119  -13.5456 N   0  0  0  0  0  0  0  0  0  0  0  0
   21.7756  -21.4654  -14.0775 C   0  0  1  0  0  0  0  0  0  0  0  0
   21.5015  -22.8594  -14.6541 C   0  0  0  0  0  0  0  0  0  0  0  0
   19.7867  -22.9412  -15.2388 S   0  0  0  0  0  0  0  0  0  0  0  0
   20.7362  -21.2356  -13.0603 C   0  0  0  0  0  0  0  0  0  0  0  0
   19.5866  -20.5367  -13.4348 O   0  0  0  0  0  0  0  0  0  0  0  0
   20.7844  -21.6125  -11.8734 O   0  0  0  0  0  0  0  0  0  0  0  0
  2  1  1  1
  2  3  1  0
  4  5  1  0
  4  2  1  0
  5  7  1  0
  5  6  1  6
  7  8  2  0
 10  9  1  1
 11 10  1  0
 12 10  1  0
 13 12  1  1
 14 13  1  0
 14  7  1  0
 15 17  1  0
 15 13  1  0
 16 15  2  0
 18 21  1  0
 18 17  1  0
 18 19  1  1
 20 19  1  0
 21 22  1  0
 23 21  2  0
M  END
$$$$
