LLC.pdb
     RDKit          3D

 23 22  0  0  1  0  0  0  0  0999 V2000
   20.0690  -16.8308  -17.8452 C   0  0  0  0  0  0  0  0  0  0  0  0
   19.1122  -16.0619  -18.7025 C   0  0  2  0  0  0  0  0  0  0  0  0
   19.0559  -16.6860  -20.0791 C   0  0  0  0  0  0  0  0  0  0  0  0
   19.5284  -14.6105  -18.7966 C   0  0  0  0  0  0  0  0  0  0  0  0
   19.5297  -13.9269  -17.4655 C   0  0  2  0  0  0  0  0  0  0  0  0
   18.3110  -14.2256  -16.7767 N   0  0  0  0  0  0  0  0  0  0  0  0
   19.5909  -12.4564  -17.7233 C   0  0  0  0  0  0  0  0  0  0  0  0
   20.5606  -12.0036  -18.3767 O   0  0  0  0  0  0  0  0  0  0  0  0
   17.7490   -7.2777  -17.9172 C   0  0  0  0  0  0  0  0  0  0  0  0
   17.0926   -8.4515  -18.6152 C   0  0  2  0  0  0  0  0  0  0  0  0
   15.7291   -8.0822  -19.0495 C   0  0  0  0  0  0  0  0  0  0  0  0
   17.2956   -9.7519  -17.9584 C   0  0  0  0  0  0  0  0  0  0  0  0
   18.6240  -10.1633  -17.4720 C   0  0  2  0  0  0  0  0  0  0  0  0
   18.5572  -11.6223  -17.2245 N   0  0  0  0  0  0  0  0  0  0  0  0
   19.2201   -9.5197  -16.3256 C   0  0  0  0  0  0  0  0  0  0  0  0
   18.6786   -9.7068  -15.1677 O   0  0  0  0  0  0  0  0  0  0  0  0
   20.3616   -8.6880  -16.2920 N   0  0  0  0  0  0  0  0  0  0  0  0
   20.8594   -8.1050  -15.0555 C   0  0  1  0  0  0  0  0  0  0  0  0
   22.0886   -8.9338  -14.6639 C   0  0  0  0  0  0  0  0  0  0  0  0
   22.8408   -8.2255  -13.1735 S   0  0  0  0  0  0  0  0  0  0  0  0
   21.3324   -6.7174  -15.1915 C   0  0  0  0  0  0  0  0  0  0  0  0
   21.8658   -6.3171  -16.4185 O   0  0  0  0  0  0  0  0  0  0  0  0
   21.3020   -5.8480  -14.2990 O   0  0  0  0  0  0  0  0  0  0  0  0
  2  1  1  1
  2  3  1  0
  4  5  1  0
  4  2  1  0
  5  7  1  0
  5  6  1  6
  7  8  2  0
 10  9  1  1
 11 10  1  0
 12 10  1  0
 13 12  1  1
 14 13  1  0
 14  7  1  0
 15 17  1  0
 15 13  1  0
 16 15  2  0
 18 21  1  0
 18 17  1  0
 18 19  1  6
 20 19  1  0
 21 22  1  0
 23 21  2  0
M  END
$$$$
