YDN.pdb
     RDKit          3D

 29 29  0  0  1  0  0  0  0  0999 V2000
   30.0983  -11.2259  -16.5671 O   0  0  0  0  0  0  0  0  0  0  0  0
   28.8374  -10.6511  -16.4773 C   0  0  0  0  0  0  0  0  0  0  0  0
   28.0863  -10.8122  -15.3255 C   0  0  0  0  0  0  0  0  0  0  0  0
   26.8177  -10.2472  -15.2061 C   0  0  0  0  0  0  0  0  0  0  0  0
   26.2728   -9.5104  -16.2326 C   0  0  0  0  0  0  0  0  0  0  0  0
   24.9281   -8.8999  -16.1261 C   0  0  0  0  0  0  0  0  0  0  0  0
   23.8213   -9.9252  -16.1561 C   0  0  2  0  0  0  0  0  0  0  0  0
   24.1255  -11.0695  -16.9585 N   0  0  0  0  0  0  0  0  0  0  0  0
   22.6093   -9.2151  -16.7062 C   0  0  0  0  0  0  0  0  0  0  0  0
   22.1791   -9.4220  -17.8655 O   0  0  0  0  0  0  0  0  0  0  0  0
   27.0355   -9.3570  -17.3801 C   0  0  0  0  0  0  0  0  0  0  0  0
   28.2912   -9.9098  -17.5125 C   0  0  0  0  0  0  0  0  0  0  0  0
   21.9390   -8.2936  -15.9001 N   0  0  0  0  0  0  0  0  0  0  0  0
   20.6146   -7.6931  -16.2928 C   0  0  1  0  0  0  0  0  0  0  0  0
   19.5710   -8.5377  -15.6518 C   0  0  0  0  0  0  0  0  0  0  0  0
   18.2061   -8.2007  -15.9428 C   0  0  0  0  0  0  0  0  0  0  0  0
   17.1829   -8.6624  -15.4387 O   0  0  0  0  0  0  0  0  0  0  0  0
   20.7331   -6.3140  -15.8340 C   0  0  0  0  0  0  0  0  0  0  0  0
   21.1698   -6.1070  -14.6447 O   0  0  0  0  0  0  0  0  0  0  0  0
   17.9624   -7.2076  -16.9382 O   0  0  0  0  0  0  0  0  0  0  0  0
   23.1297   -3.2395  -18.5448 N   0  0  0  0  0  0  0  0  0  0  0  0
   22.4868   -3.1753  -17.2854 C   0  0  0  0  0  0  0  0  0  0  0  0
   23.2208   -3.3177  -16.2423 O   0  0  0  0  0  0  0  0  0  0  0  0
   21.0660   -2.9602  -17.0403 C   0  0  0  0  0  0  0  0  0  0  0  0
   20.5135   -3.8515  -15.9593 C   0  0  2  0  0  0  0  0  0  0  0  0
   20.4160   -5.1887  -16.5863 N   0  0  0  0  0  0  0  0  0  0  0  0
   19.1738   -3.4774  -15.5018 C   0  0  0  0  0  0  0  0  0  0  0  0
   18.2011   -4.2415  -15.7241 O   0  0  0  0  0  0  0  0  0  0  0  0
   18.9022   -2.3112  -14.8244 O   0  0  0  0  0  0  0  0  0  0  0  0
  2 12  2  0
  2  1  1  0
  3  2  1  0
  4  5  1  0
  4  3  2  0
  5 11  2  0
  6  5  1  0
  7  9  1  0
  7  6  1  0
  7  8  1  6
  9 10  2  0
 11 12  1  0
 13 14  1  0
 13  9  1  0
 14 18  1  0
 14 15  1  1
 16 15  1  0
 16 17  2  0
 18 26  1  0
 18 19  2  0
 20 16  1  0
 21 22  1  0
 22 24  1  0
 23 22  2  0
 25 24  1  6
 25 27  1  0
 26 25  1  0
 27 28  2  0
 27 29  1  0
M  END
$$$$
