YDN.pdb
     RDKit          3D

 29 29  0  0  1  0  0  0  0  0999 V2000
   21.9851   -9.6617    6.6277 O   0  0  0  0  0  0  0  0  0  0  0  0
   21.2915  -10.8636    6.6803 C   0  0  0  0  0  0  0  0  0  0  0  0
   20.2614  -11.1052    5.7874 C   0  0  0  0  0  0  0  0  0  0  0  0
   19.5473  -12.3019    5.8158 C   0  0  0  0  0  0  0  0  0  0  0  0
   19.8461  -13.2814    6.7349 C   0  0  0  0  0  0  0  0  0  0  0  0
   19.1018  -14.5605    6.7813 C   0  0  0  0  0  0  0  0  0  0  0  0
   17.6299  -14.3659    7.0515 C   0  0  2  0  0  0  0  0  0  0  0  0
   17.3614  -13.4316    8.1006 N   0  0  0  0  0  0  0  0  0  0  0  0
   17.0897  -15.7257    7.4189 C   0  0  0  0  0  0  0  0  0  0  0  0
   16.7933  -16.0339    8.5975 O   0  0  0  0  0  0  0  0  0  0  0  0
   20.8797  -13.0265    7.6230 C   0  0  0  0  0  0  0  0  0  0  0  0
   21.5945  -11.8481    7.6068 C   0  0  0  0  0  0  0  0  0  0  0  0
   16.9113  -16.6787    6.4148 N   0  0  0  0  0  0  0  0  0  0  0  0
   16.3751  -18.0574    6.6986 C   0  0  1  0  0  0  0  0  0  0  0  0
   15.6987  -18.5031    5.4508 C   0  0  0  0  0  0  0  0  0  0  0  0
   14.7870  -19.6053    5.5747 C   0  0  0  0  0  0  0  0  0  0  0  0
   14.5895  -20.3247    6.5534 O   0  0  0  0  0  0  0  0  0  0  0  0
   17.5652  -18.7913    7.1126 C   0  0  0  0  0  0  0  0  0  0  0  0
   18.7101  -18.3514    6.7335 O   0  0  0  0  0  0  0  0  0  0  0  0
   13.9895  -19.9416    4.4401 O   0  0  0  0  0  0  0  0  0  0  0  0
   21.2217  -21.3455    9.7565 N   0  0  0  0  0  0  0  0  0  0  0  0
   20.7703  -20.0044    9.7194 C   0  0  0  0  0  0  0  0  0  0  0  0
   21.4382  -19.1401   10.3931 O   0  0  0  0  0  0  0  0  0  0  0  0
   19.6177  -19.4908    8.9894 C   0  0  0  0  0  0  0  0  0  0  0  0
   18.8593  -20.5652    8.2554 C   0  0  2  0  0  0  0  0  0  0  0  0
   17.5670  -19.9379    7.8986 N   0  0  0  0  0  0  0  0  0  0  0  0
   18.5685  -21.7510    9.0638 C   0  0  0  0  0  0  0  0  0  0  0  0
   17.4911  -21.8204    9.7070 O   0  0  0  0  0  0  0  0  0  0  0  0
   19.4214  -22.8254    9.1678 O   0  0  0  0  0  0  0  0  0  0  0  0
  2 12  2  0
  2  1  1  0
  3  2  1  0
  4  5  1  0
  4  3  2  0
  5 11  2  0
  6  5  1  0
  7  9  1  0
  7  6  1  0
  7  8  1  1
  9 10  2  0
 11 12  1  0
 13 14  1  0
 13  9  1  0
 14 18  1  0
 14 15  1  6
 16 15  1  0
 16 17  2  0
 18 26  1  0
 18 19  2  0
 20 16  1  0
 21 22  1  0
 22 24  1  0
 23 22  2  0
 25 24  1  1
 25 27  1  0
 26 25  1  0
 27 28  2  0
 27 29  1  0
M  END
$$$$
