YDN.pdb
     RDKit          3D

 29 29  0  0  1  0  0  0  0  0999 V2000
   10.4419  -12.7589   -9.9955 O   0  0  0  0  0  0  0  0  0  0  0  0
   11.4610  -11.8168  -10.0400 C   0  0  0  0  0  0  0  0  0  0  0  0
   11.9145  -11.2353   -8.8683 C   0  0  0  0  0  0  0  0  0  0  0  0
   12.9358  -10.2868   -8.8813 C   0  0  0  0  0  0  0  0  0  0  0  0
   13.5252   -9.8993  -10.0628 C   0  0  0  0  0  0  0  0  0  0  0  0
   14.6127   -8.8952  -10.0993 C   0  0  0  0  0  0  0  0  0  0  0  0
   15.7856   -9.3404  -10.9381 C   0  0  2  0  0  0  0  0  0  0  0  0
   16.5517  -10.3879  -10.3369 N   0  0  0  0  0  0  0  0  0  0  0  0
   16.6464   -8.1172  -11.1345 C   0  0  0  0  0  0  0  0  0  0  0  0
   17.6940   -7.9209  -10.4742 O   0  0  0  0  0  0  0  0  0  0  0  0
   13.0615  -10.4893  -11.2286 C   0  0  0  0  0  0  0  0  0  0  0  0
   12.0526  -11.4284  -11.2311 C   0  0  0  0  0  0  0  0  0  0  0  0
   16.2679   -7.1666  -12.0839 N   0  0  0  0  0  0  0  0  0  0  0  0
   17.0704   -5.9175  -12.3377 C   0  0  1  0  0  0  0  0  0  0  0  0
   17.4017   -5.9262  -13.7880 C   0  0  0  0  0  0  0  0  0  0  0  0
   18.1495   -4.8042  -14.2812 C   0  0  0  0  0  0  0  0  0  0  0  0
   17.8170   -3.6198  -14.3098 O   0  0  0  0  0  0  0  0  0  0  0  0
   16.1874   -4.8599  -11.8600 C   0  0  0  0  0  0  0  0  0  0  0  0
   14.9740   -4.8491  -12.2790 O   0  0  0  0  0  0  0  0  0  0  0  0
   19.4496   -5.0523  -14.8148 O   0  0  0  0  0  0  0  0  0  0  0  0
   15.1418   -4.6110   -7.4040 N   0  0  0  0  0  0  0  0  0  0  0  0
   14.7667   -3.7315   -8.4478 C   0  0  0  0  0  0  0  0  0  0  0  0
   13.5557   -3.7992   -8.8673 O   0  0  0  0  0  0  0  0  0  0  0  0
   15.6143   -2.7439   -9.1045 C   0  0  0  0  0  0  0  0  0  0  0  0
   15.5528   -2.8214  -10.6073 C   0  0  2  0  0  0  0  0  0  0  0  0
   16.5495   -3.8527  -10.9729 N   0  0  0  0  0  0  0  0  0  0  0  0
   15.9295   -1.5800  -11.2864 C   0  0  0  0  0  0  0  0  0  0  0  0
   16.9203   -1.5660  -12.0593 O   0  0  0  0  0  0  0  0  0  0  0  0
   15.2500   -0.3941  -11.1300 O   0  0  0  0  0  0  0  0  0  0  0  0
  2 12  2  0
  2  1  1  0
  3  2  1  0
  4  5  1  0
  4  3  2  0
  5 11  2  0
  6  5  1  0
  7  9  1  0
  7  6  1  0
  7  8  1  1
  9 10  2  0
 11 12  1  0
 13 14  1  0
 13  9  1  0
 14 18  1  0
 14 15  1  6
 16 15  1  0
 16 17  2  0
 18 26  1  0
 18 19  2  0
 20 16  1  0
 21 22  1  0
 22 24  1  0
 23 22  2  0
 25 24  1  1
 25 27  1  0
 26 25  1  0
 27 28  2  0
 27 29  1  0
M  END
$$$$
