YDN.pdb
     RDKit          3D

 29 29  0  0  1  0  0  0  0  0999 V2000
   25.0066  -31.1832   -9.2916 O   0  0  0  0  0  0  0  0  0  0  0  0
   25.6201  -32.0800   -8.4269 C   0  0  0  0  0  0  0  0  0  0  0  0
   25.8507  -31.7206   -7.1100 C   0  0  0  0  0  0  0  0  0  0  0  0
   26.4644  -32.5992   -6.2188 C   0  0  0  0  0  0  0  0  0  0  0  0
   26.8602  -33.8536   -6.6229 C   0  0  0  0  0  0  0  0  0  0  0  0
   27.5117  -34.8033   -5.6924 C   0  0  0  0  0  0  0  0  0  0  0  0
   28.9541  -35.0677   -6.0489 C   0  0  2  0  0  0  0  0  0  0  0  0
   29.1171  -35.7622   -7.2885 N   0  0  0  0  0  0  0  0  0  0  0  0
   29.5199  -35.8893   -4.9172 C   0  0  0  0  0  0  0  0  0  0  0  0
   29.7102  -37.1247   -5.0149 O   0  0  0  0  0  0  0  0  0  0  0  0
   26.6232  -34.2006   -7.9440 C   0  0  0  0  0  0  0  0  0  0  0  0
   26.0176  -33.3424   -8.8365 C   0  0  0  0  0  0  0  0  0  0  0  0
   29.8449  -35.2567   -3.7162 N   0  0  0  0  0  0  0  0  0  0  0  0
   30.4381  -36.0008   -2.5486 C   0  0  1  0  0  0  0  0  0  0  0  0
   31.3713  -35.0515   -1.8841 C   0  0  0  0  0  0  0  0  0  0  0  0
   32.0247  -35.5218   -0.6954 C   0  0  0  0  0  0  0  0  0  0  0  0
   32.5736  -36.6067   -0.5057 O   0  0  0  0  0  0  0  0  0  0  0  0
   29.2610  -36.4182   -1.7959 C   0  0  0  0  0  0  0  0  0  0  0  0
   28.2051  -35.6919   -1.8715 O   0  0  0  0  0  0  0  0  0  0  0  0
   32.0642  -34.6492    0.4332 O   0  0  0  0  0  0  0  0  0  0  0  0
   24.4404  -38.6937   -1.4318 N   0  0  0  0  0  0  0  0  0  0  0  0
   25.7730  -38.9500   -1.0291 C   0  0  0  0  0  0  0  0  0  0  0  0
   25.9603  -39.8988   -0.1855 O   0  0  0  0  0  0  0  0  0  0  0  0
   26.9702  -38.2477   -1.4746 C   0  0  0  0  0  0  0  0  0  0  0  0
   27.8954  -37.8850   -0.3430 C   0  0  2  0  0  0  0  0  0  0  0  0
   29.1807  -37.5537   -0.9980 N   0  0  0  0  0  0  0  0  0  0  0  0
   28.1462  -38.9780    0.5987 C   0  0  0  0  0  0  0  0  0  0  0  0
   29.1983  -39.6584    0.5010 O   0  0  0  0  0  0  0  0  0  0  0  0
   27.2813  -39.3183    1.6129 O   0  0  0  0  0  0  0  0  0  0  0  0
  2 12  2  0
  2  1  1  0
  3  2  1  0
  4  5  1  0
  4  3  2  0
  5 11  2  0
  6  5  1  0
  7  9  1  0
  7  6  1  0
  7  8  1  6
  9 10  2  0
 11 12  1  0
 13 14  1  0
 13  9  1  0
 14 18  1  0
 14 15  1  1
 16 15  1  0
 16 17  2  0
 18 26  1  0
 18 19  2  0
 20 16  1  0
 21 22  1  0
 22 24  1  0
 23 22  2  0
 25 24  1  6
 25 27  1  0
 26 25  1  0
 27 28  2  0
 27 29  1  0
M  END
$$$$
