YDN.pdb
     RDKit          3D

 29 29  0  0  1  0  0  0  0  0999 V2000
    9.0061  -13.3449  -10.5460 O   0  0  0  0  0  0  0  0  0  0  0  0
   10.1145  -12.5488  -10.2893 C   0  0  0  0  0  0  0  0  0  0  0  0
   10.1900  -11.2764  -10.8296 C   0  0  0  0  0  0  0  0  0  0  0  0
   11.2897  -10.4543  -10.5897 C   0  0  0  0  0  0  0  0  0  0  0  0
   12.3359  -10.8844   -9.8062 C   0  0  0  0  0  0  0  0  0  0  0  0
   13.5126  -10.0270   -9.5368 C   0  0  0  0  0  0  0  0  0  0  0  0
   14.5364  -10.0820  -10.6441 C   0  0  2  0  0  0  0  0  0  0  0  0
   15.2179  -11.3366  -10.7286 N   0  0  0  0  0  0  0  0  0  0  0  0
   15.5216   -8.9763  -10.3568 C   0  0  0  0  0  0  0  0  0  0  0  0
   16.5104   -9.1377   -9.6030 O   0  0  0  0  0  0  0  0  0  0  0  0
   12.2475  -12.1605   -9.2714 C   0  0  0  0  0  0  0  0  0  0  0  0
   11.1665  -12.9845   -9.5000 C   0  0  0  0  0  0  0  0  0  0  0  0
   15.3305   -7.7268  -10.9488 N   0  0  0  0  0  0  0  0  0  0  0  0
   16.2542   -6.5646  -10.6936 C   0  0  1  0  0  0  0  0  0  0  0  0
   16.7888   -6.1617  -12.0222 C   0  0  0  0  0  0  0  0  0  0  0  0
   17.5989   -4.9768  -12.0543 C   0  0  0  0  0  0  0  0  0  0  0  0
   17.9324   -4.2557  -11.1145 O   0  0  0  0  0  0  0  0  0  0  0  0
   15.3950   -5.6111  -10.0016 C   0  0  0  0  0  0  0  0  0  0  0  0
   14.2314   -5.3783  -10.4913 O   0  0  0  0  0  0  0  0  0  0  0  0
   18.1011   -4.5467  -13.3190 O   0  0  0  0  0  0  0  0  0  0  0  0
   13.2709   -2.2526   -6.4435 N   0  0  0  0  0  0  0  0  0  0  0  0
   14.0537   -3.3275   -5.9584 C   0  0  0  0  0  0  0  0  0  0  0  0
   14.1066   -3.4894   -4.6864 O   0  0  0  0  0  0  0  0  0  0  0  0
   14.8133   -4.2836   -6.7546 C   0  0  0  0  0  0  0  0  0  0  0  0
   14.7414   -4.0070   -8.2332 C   0  0  2  0  0  0  0  0  0  0  0  0
   15.7296   -4.9282   -8.8378 N   0  0  0  0  0  0  0  0  0  0  0  0
   15.1209   -2.6427   -8.6059 C   0  0  0  0  0  0  0  0  0  0  0  0
   16.3031   -2.3953   -8.9531 O   0  0  0  0  0  0  0  0  0  0  0  0
   14.2429   -1.5836   -8.6016 O   0  0  0  0  0  0  0  0  0  0  0  0
  2 12  2  0
  2  1  1  0
  3  2  1  0
  4  5  1  0
  4  3  2  0
  5 11  2  0
  6  5  1  0
  7  9  1  0
  7  6  1  0
  7  8  1  1
  9 10  2  0
 11 12  1  0
 13 14  1  0
 13  9  1  0
 14 18  1  0
 14 15  1  6
 16 15  1  0
 16 17  2  0
 18 26  1  0
 18 19  2  0
 20 16  1  0
 21 22  1  0
 22 24  1  0
 23 22  2  0
 25 24  1  1
 25 27  1  0
 26 25  1  0
 27 28  2  0
 27 29  1  0
M  END
$$$$
