YDN.pdb
     RDKit          3D

 29 29  0  0  1  0  0  0  0  0999 V2000
   19.6879  -23.6738   -6.1134 O   0  0  0  0  0  0  0  0  0  0  0  0
   20.3533  -22.9329   -7.0811 C   0  0  0  0  0  0  0  0  0  0  0  0
   20.4718  -23.4281   -8.3685 C   0  0  0  0  0  0  0  0  0  0  0  0
   21.1340  -22.7075   -9.3610 C   0  0  0  0  0  0  0  0  0  0  0  0
   21.6910  -21.4789   -9.0897 C   0  0  0  0  0  0  0  0  0  0  0  0
   22.3969  -20.6958  -10.1293 C   0  0  0  0  0  0  0  0  0  0  0  0
   23.7889  -21.2121  -10.3995 C   0  0  2  0  0  0  0  0  0  0  0  0
   24.6925  -21.0136   -9.3087 N   0  0  0  0  0  0  0  0  0  0  0  0
   24.2793  -20.4715  -11.6189 C   0  0  0  0  0  0  0  0  0  0  0  0
   25.0437  -19.4809  -11.5399 O   0  0  0  0  0  0  0  0  0  0  0  0
   21.5651  -20.9949   -7.7966 C   0  0  0  0  0  0  0  0  0  0  0  0
   20.9133  -21.6961   -6.8050 C   0  0  0  0  0  0  0  0  0  0  0  0
   23.8706  -20.9001  -12.8828 N   0  0  0  0  0  0  0  0  0  0  0  0
   24.3896  -20.2764  -14.1519 C   0  0  1  0  0  0  0  0  0  0  0  0
   25.3410  -21.2591  -14.7369 C   0  0  0  0  0  0  0  0  0  0  0  0
   26.0502  -20.8421  -15.9135 C   0  0  0  0  0  0  0  0  0  0  0  0
   25.5868  -20.4508  -16.9842 O   0  0  0  0  0  0  0  0  0  0  0  0
   23.1698  -19.9992  -14.9014 C   0  0  0  0  0  0  0  0  0  0  0  0
   22.1926  -20.8247  -14.7942 O   0  0  0  0  0  0  0  0  0  0  0  0
   27.4765  -20.8703  -15.8771 O   0  0  0  0  0  0  0  0  0  0  0  0
   20.0695  -17.3640  -18.4180 N   0  0  0  0  0  0  0  0  0  0  0  0
   20.3877  -16.7894  -17.1640 C   0  0  0  0  0  0  0  0  0  0  0  0
   19.9321  -15.6140  -16.9231 O   0  0  0  0  0  0  0  0  0  0  0  0
   21.1834  -17.3943  -16.1030 C   0  0  0  0  0  0  0  0  0  0  0  0
   21.6868  -18.7692  -16.4556 C   0  0  2  0  0  0  0  0  0  0  0  0
   22.9690  -18.8995  -15.7279 N   0  0  0  0  0  0  0  0  0  0  0  0
   21.9646  -18.9575  -17.8809 C   0  0  0  0  0  0  0  0  0  0  0  0
   21.0255  -19.2305  -18.6702 O   0  0  0  0  0  0  0  0  0  0  0  0
   23.2221  -18.8514  -18.4286 O   0  0  0  0  0  0  0  0  0  0  0  0
  2 12  2  0
  2  1  1  0
  3  2  1  0
  4  5  1  0
  4  3  2  0
  5 11  2  0
  6  5  1  0
  7  9  1  0
  7  6  1  0
  7  8  1  1
  9 10  2  0
 11 12  1  0
 13 14  1  0
 13  9  1  0
 14 18  1  0
 14 15  1  6
 16 15  1  0
 16 17  2  0
 18 26  1  0
 18 19  2  0
 20 16  1  0
 21 22  1  0
 22 24  1  0
 23 22  2  0
 25 24  1  6
 25 27  1  0
 26 25  1  0
 27 28  2  0
 27 29  1  0
M  END
$$$$
