YDN.pdb
     RDKit          3D

 29 29  0  0  1  0  0  0  0  0999 V2000
   28.7574  -20.6565   -3.9510 O   0  0  0  0  0  0  0  0  0  0  0  0
   28.3348  -20.3699   -5.2423 C   0  0  0  0  0  0  0  0  0  0  0  0
   27.1364  -20.8850   -5.7062 C   0  0  0  0  0  0  0  0  0  0  0  0
   26.6861  -20.6148   -6.9974 C   0  0  0  0  0  0  0  0  0  0  0  0
   27.4216  -19.8256   -7.8515 C   0  0  0  0  0  0  0  0  0  0  0  0
   26.9611  -19.5243   -9.2261 C   0  0  0  0  0  0  0  0  0  0  0  0
   26.7777  -20.7672  -10.0621 C   0  0  2  0  0  0  0  0  0  0  0  0
   27.9334  -21.6090  -10.0935 N   0  0  0  0  0  0  0  0  0  0  0  0
   26.4481  -20.2887  -11.4543 C   0  0  0  0  0  0  0  0  0  0  0  0
   27.2512  -19.6116  -12.1388 O   0  0  0  0  0  0  0  0  0  0  0  0
   28.6195  -19.3164   -7.3743 C   0  0  0  0  0  0  0  0  0  0  0  0
   29.0775  -19.5750   -6.1002 C   0  0  0  0  0  0  0  0  0  0  0  0
   25.2060  -20.6083  -12.0052 N   0  0  0  0  0  0  0  0  0  0  0  0
   25.0228  -20.8811  -13.4752 C   0  0  1  0  0  0  0  0  0  0  0  0
   26.0079  -21.9395  -13.8255 C   0  0  0  0  0  0  0  0  0  0  0  0
   27.1572  -21.5214  -14.5777 C   0  0  0  0  0  0  0  0  0  0  0  0
   27.4368  -20.3917  -14.9774 O   0  0  0  0  0  0  0  0  0  0  0  0
   23.6091  -21.2264  -13.5690 C   0  0  0  0  0  0  0  0  0  0  0  0
   23.1904  -21.7749  -14.6514 O   0  0  0  0  0  0  0  0  0  0  0  0
   28.1224  -22.5130  -14.9264 O   0  0  0  0  0  0  0  0  0  0  0  0
   20.8266  -21.2957  -10.0936 N   0  0  0  0  0  0  0  0  0  0  0  0
   20.5582  -20.0557  -10.7213 C   0  0  0  0  0  0  0  0  0  0  0  0
   20.1276  -19.1017   -9.9788 O   0  0  0  0  0  0  0  0  0  0  0  0
   20.7216  -19.7392  -12.1349 C   0  0  0  0  0  0  0  0  0  0  0  0
   21.2364  -20.9012  -12.9427 C   0  0  2  0  0  0  0  0  0  0  0  0
   22.6645  -21.0158  -12.5710 N   0  0  0  0  0  0  0  0  0  0  0  0
   21.1701  -20.6990  -14.3915 C   0  0  0  0  0  0  0  0  0  0  0  0
   20.4522  -21.4525  -15.0958 O   0  0  0  0  0  0  0  0  0  0  0  0
   21.8615  -19.7093  -15.0512 O   0  0  0  0  0  0  0  0  0  0  0  0
  2 12  2  0
  2  1  1  0
  3  2  1  0
  4  5  1  0
  4  3  2  0
  5 11  2  0
  6  5  1  0
  7  9  1  0
  7  6  1  0
  7  8  1  6
  9 10  2  0
 11 12  1  0
 13 14  1  0
 13  9  1  0
 14 18  1  0
 14 15  1  1
 16 15  1  0
 16 17  2  0
 18 26  1  0
 18 19  2  0
 20 16  1  0
 21 22  1  0
 22 24  1  0
 23 22  2  0
 25 24  1  1
 25 27  1  0
 26 25  1  0
 27 28  2  0
 27 29  1  0
M  END
$$$$
