YDN.pdb
     RDKit          3D

 29 29  0  0  1  0  0  0  0  0999 V2000
   23.7726  -10.9729  -21.2601 O   0  0  0  0  0  0  0  0  0  0  0  0
   23.5000  -12.2266  -20.7287 C   0  0  0  0  0  0  0  0  0  0  0  0
   22.8398  -13.1720  -21.4949 C   0  0  0  0  0  0  0  0  0  0  0  0
   22.5525  -14.4385  -20.9888 C   0  0  0  0  0  0  0  0  0  0  0  0
   22.9178  -14.7876  -19.7089 C   0  0  0  0  0  0  0  0  0  0  0  0
   22.6243  -16.1279  -19.1523 C   0  0  0  0  0  0  0  0  0  0  0  0
   23.7813  -17.0850  -19.3033 C   0  0  2  0  0  0  0  0  0  0  0  0
   24.1490  -17.3247  -20.6645 N   0  0  0  0  0  0  0  0  0  0  0  0
   23.3451  -18.3732  -18.6507 C   0  0  0  0  0  0  0  0  0  0  0  0
   22.6861  -19.2463  -19.2634 O   0  0  0  0  0  0  0  0  0  0  0  0
   23.5782  -13.8316  -18.9527 C   0  0  0  0  0  0  0  0  0  0  0  0
   23.8690  -12.5753  -19.4396 C   0  0  0  0  0  0  0  0  0  0  0  0
   23.6845  -18.6069  -17.3171 N   0  0  0  0  0  0  0  0  0  0  0  0
   23.3657  -19.9035  -16.6198 C   0  0  1  0  0  0  0  0  0  0  0  0
   24.6621  -20.4327  -16.1174 C   0  0  0  0  0  0  0  0  0  0  0  0
   24.6366  -21.7459  -15.5375 C   0  0  0  0  0  0  0  0  0  0  0  0
   25.5881  -22.4421  -15.1852 O   0  0  0  0  0  0  0  0  0  0  0  0
   22.3762  -19.5044  -15.6258 C   0  0  0  0  0  0  0  0  0  0  0  0
   22.4836  -18.3387  -15.0988 O   0  0  0  0  0  0  0  0  0  0  0  0
   23.3643  -22.3567  -15.3265 O   0  0  0  0  0  0  0  0  0  0  0  0
   17.4535  -17.5045  -14.5641 N   0  0  0  0  0  0  0  0  0  0  0  0
   18.7754  -17.7975  -14.1512 C   0  0  0  0  0  0  0  0  0  0  0  0
   19.1185  -17.4282  -12.9710 O   0  0  0  0  0  0  0  0  0  0  0  0
   19.8011  -18.4830  -14.9278 C   0  0  0  0  0  0  0  0  0  0  0  0
   20.3339  -19.7138  -14.2428 C   0  0  2  0  0  0  0  0  0  0  0  0
   21.3084  -20.2856  -15.1989 N   0  0  0  0  0  0  0  0  0  0  0  0
   19.3206  -20.7369  -13.9772 C   0  0  0  0  0  0  0  0  0  0  0  0
   19.2939  -21.7851  -14.6700 O   0  0  0  0  0  0  0  0  0  0  0  0
   18.3689  -20.6232  -12.9904 O   0  0  0  0  0  0  0  0  0  0  0  0
  2 12  2  0
  2  1  1  0
  3  2  1  0
  4  5  1  0
  4  3  2  0
  5 11  2  0
  6  5  1  0
  7  9  1  0
  7  6  1  0
  7  8  1  6
  9 10  2  0
 11 12  1  0
 13 14  1  0
 13  9  1  0
 14 18  1  0
 14 15  1  1
 16 15  1  0
 16 17  2  0
 18 26  1  0
 18 19  2  0
 20 16  1  0
 21 22  1  0
 22 24  1  0
 23 22  2  0
 25 24  1  6
 25 27  1  0
 26 25  1  0
 27 28  2  0
 27 29  1  0
M  END
$$$$
