YDN.pdb
     RDKit          3D

 29 29  0  0  1  0  0  0  0  0999 V2000
   25.4904  -13.1626  -16.9302 O   0  0  0  0  0  0  0  0  0  0  0  0
   24.5812  -12.2131  -16.4829 C   0  0  0  0  0  0  0  0  0  0  0  0
   23.6761  -11.6537  -17.3686 C   0  0  0  0  0  0  0  0  0  0  0  0
   22.7517  -10.6985  -16.9491 C   0  0  0  0  0  0  0  0  0  0  0  0
   22.7113  -10.2823  -15.6382 C   0  0  0  0  0  0  0  0  0  0  0  0
   21.7364   -9.2706  -15.1708 C   0  0  0  0  0  0  0  0  0  0  0  0
   20.5466   -9.8881  -14.4777 C   0  0  2  0  0  0  0  0  0  0  0  0
   19.8223  -10.8080  -15.2990 N   0  0  0  0  0  0  0  0  0  0  0  0
   19.6547   -8.7394  -14.0767 C   0  0  0  0  0  0  0  0  0  0  0  0
   18.6144   -8.4445  -14.7114 O   0  0  0  0  0  0  0  0  0  0  0  0
   23.6231  -10.8504  -14.7619 C   0  0  0  0  0  0  0  0  0  0  0  0
   24.5429  -11.7958  -15.1623 C   0  0  0  0  0  0  0  0  0  0  0  0
   19.9949   -7.9741  -12.9601 N   0  0  0  0  0  0  0  0  0  0  0  0
   19.1415   -6.8311  -12.4763 C   0  0  1  0  0  0  0  0  0  0  0  0
   18.9165   -7.0683  -11.0250 C   0  0  0  0  0  0  0  0  0  0  0  0
   18.1527   -6.0748  -10.3243 C   0  0  0  0  0  0  0  0  0  0  0  0
   17.6287   -5.0573  -10.7763 O   0  0  0  0  0  0  0  0  0  0  0  0
   19.9249   -5.6589  -12.8486 C   0  0  0  0  0  0  0  0  0  0  0  0
   21.2035   -5.7322  -12.7599 O   0  0  0  0  0  0  0  0  0  0  0  0
   17.9531   -6.2536   -8.9226 O   0  0  0  0  0  0  0  0  0  0  0  0
   21.9433   -1.6522  -15.4438 N   0  0  0  0  0  0  0  0  0  0  0  0
   21.7672   -3.0220  -15.7539 C   0  0  0  0  0  0  0  0  0  0  0  0
   22.3722   -3.4725  -16.7922 O   0  0  0  0  0  0  0  0  0  0  0  0
   20.9664   -3.9891  -15.0133 C   0  0  0  0  0  0  0  0  0  0  0  0
   20.3218   -3.4022  -13.7852 C   0  0  2  0  0  0  0  0  0  0  0  0
   19.3996   -4.4549  -13.3036 N   0  0  0  0  0  0  0  0  0  0  0  0
   19.5266   -2.2000  -14.0432 C   0  0  0  0  0  0  0  0  0  0  0  0
   18.3162   -2.3078  -14.3634 O   0  0  0  0  0  0  0  0  0  0  0  0
   20.0319   -0.9235  -13.9549 O   0  0  0  0  0  0  0  0  0  0  0  0
  2 12  2  0
  2  1  1  0
  3  2  1  0
  4  5  1  0
  4  3  2  0
  5 11  2  0
  6  5  1  0
  7  9  1  0
  7  6  1  0
  7  8  1  6
  9 10  2  0
 11 12  1  0
 13 14  1  0
 13  9  1  0
 14 18  1  0
 14 15  1  1
 16 15  1  0
 16 17  2  0
 18 26  1  0
 18 19  2  0
 20 16  1  0
 21 22  1  0
 22 24  1  0
 23 22  2  0
 25 24  1  6
 25 27  1  0
 26 25  1  0
 27 28  2  0
 27 29  1  0
M  END
$$$$
