YDN.pdb
     RDKit          3D

 29 29  0  0  1  0  0  0  0  0999 V2000
   29.4445  -30.3097  -17.6655 O   0  0  0  0  0  0  0  0  0  0  0  0
   29.2722  -28.9459  -17.4690 C   0  0  0  0  0  0  0  0  0  0  0  0
   28.7004  -28.4848  -16.2956 C   0  0  0  0  0  0  0  0  0  0  0  0
   28.5146  -27.1219  -16.0700 C   0  0  0  0  0  0  0  0  0  0  0  0
   28.8955  -26.1918  -17.0098 C   0  0  0  0  0  0  0  0  0  0  0  0
   28.7093  -24.7395  -16.7898 C   0  0  0  0  0  0  0  0  0  0  0  0
   27.2696  -24.3724  -16.5255 C   0  0  2  0  0  0  0  0  0  0  0  0
   26.3898  -24.7024  -17.6038 N   0  0  0  0  0  0  0  0  0  0  0  0
   27.2561  -22.8834  -16.2838 C   0  0  0  0  0  0  0  0  0  0  0  0
   27.9659  -22.3400  -15.4047 O   0  0  0  0  0  0  0  0  0  0  0  0
   29.4667  -26.6671  -18.1802 C   0  0  0  0  0  0  0  0  0  0  0  0
   29.6566  -28.0116  -18.4171 C   0  0  0  0  0  0  0  0  0  0  0  0
   26.4256  -22.0771  -17.0637 N   0  0  0  0  0  0  0  0  0  0  0  0
   26.2067  -20.6174  -16.7633 C   0  0  1  0  0  0  0  0  0  0  0  0
   26.8905  -19.8644  -17.8490 C   0  0  0  0  0  0  0  0  0  0  0  0
   26.7406  -18.4367  -17.8313 C   0  0  0  0  0  0  0  0  0  0  0  0
   26.6038  -17.6967  -16.8576 O   0  0  0  0  0  0  0  0  0  0  0  0
   24.7540  -20.5138  -16.6904 C   0  0  0  0  0  0  0  0  0  0  0  0
   24.0563  -21.5365  -17.0301 O   0  0  0  0  0  0  0  0  0  0  0  0
   26.7456  -17.7504  -19.0824 O   0  0  0  0  0  0  0  0  0  0  0  0
   20.1156  -19.6588  -14.4122 N   0  0  0  0  0  0  0  0  0  0  0  0
   21.3592  -19.9096  -13.7843 C   0  0  0  0  0  0  0  0  0  0  0  0
   21.3330  -20.2943  -12.5603 O   0  0  0  0  0  0  0  0  0  0  0  0
   22.6817  -19.7797  -14.3834 C   0  0  0  0  0  0  0  0  0  0  0  0
   22.6338  -19.5354  -15.8687 C   0  0  2  0  0  0  0  0  0  0  0  0
   24.0502  -19.3899  -16.2729 N   0  0  0  0  0  0  0  0  0  0  0  0
   21.9352  -18.3066  -16.2508 C   0  0  0  0  0  0  0  0  0  0  0  0
   22.5254  -17.2002  -16.1681 O   0  0  0  0  0  0  0  0  0  0  0  0
   20.6379  -18.2830  -16.7082 O   0  0  0  0  0  0  0  0  0  0  0  0
  2 12  2  0
  2  1  1  0
  3  2  1  0
  4  5  1  0
  4  3  2  0
  5 11  2  0
  6  5  1  0
  7  9  1  0
  7  6  1  0
  7  8  1  6
  9 10  2  0
 11 12  1  0
 13 14  1  0
 13  9  1  0
 14 18  1  0
 14 15  1  6
 16 15  1  0
 16 17  2  0
 18 26  1  0
 18 19  2  0
 20 16  1  0
 21 22  1  0
 22 24  1  0
 23 22  2  0
 25 24  1  1
 25 27  1  0
 26 25  1  0
 27 28  2  0
 27 29  1  0
M  END
$$$$
