YDN.pdb
     RDKit          3D

 29 29  0  0  1  0  0  0  0  0999 V2000
   19.5747   -9.0251  -10.9675 O   0  0  0  0  0  0  0  0  0  0  0  0
   20.1857   -8.8936  -12.2075 C   0  0  0  0  0  0  0  0  0  0  0  0
   19.4249   -8.5850  -13.3222 C   0  0  0  0  0  0  0  0  0  0  0  0
   20.0099   -8.4467  -14.5798 C   0  0  0  0  0  0  0  0  0  0  0  0
   21.3650   -8.6132  -14.7509 C   0  0  0  0  0  0  0  0  0  0  0  0
   22.0072   -8.4688  -16.0772 C   0  0  0  0  0  0  0  0  0  0  0  0
   21.8675   -9.7077  -16.9275 C   0  0  2  0  0  0  0  0  0  0  0  0
   22.9273  -10.6498  -16.7410 N   0  0  0  0  0  0  0  0  0  0  0  0
   21.8446   -9.2312  -18.3587 C   0  0  0  0  0  0  0  0  0  0  0  0
   22.8912   -9.0808  -19.0325 O   0  0  0  0  0  0  0  0  0  0  0  0
   22.1150   -8.9219  -13.6265 C   0  0  0  0  0  0  0  0  0  0  0  0
   21.5505   -9.0619  -12.3769 C   0  0  0  0  0  0  0  0  0  0  0  0
   20.6173   -8.9461  -18.9592 N   0  0  0  0  0  0  0  0  0  0  0  0
   20.4984   -8.5826  -20.4161 C   0  0  1  0  0  0  0  0  0  0  0  0
   19.3796   -9.4009  -20.9566 C   0  0  0  0  0  0  0  0  0  0  0  0
   19.1010   -9.2592  -22.3579 C   0  0  0  0  0  0  0  0  0  0  0  0
   19.6634   -8.5337  -23.1773 O   0  0  0  0  0  0  0  0  0  0  0  0
   20.3112   -7.1370  -20.3773 C   0  0  0  0  0  0  0  0  0  0  0  0
   19.9130   -6.6074  -19.2777 O   0  0  0  0  0  0  0  0  0  0  0  0
   18.0437  -10.0428  -22.9098 O   0  0  0  0  0  0  0  0  0  0  0  0
   21.8793   -2.9147  -23.6329 N   0  0  0  0  0  0  0  0  0  0  0  0
   22.0801   -4.0607  -22.8266 C   0  0  0  0  0  0  0  0  0  0  0  0
   22.6470   -5.0733  -23.3746 O   0  0  0  0  0  0  0  0  0  0  0  0
   21.7115   -4.2178  -21.4251 C   0  0  0  0  0  0  0  0  0  0  0  0
   20.3422   -4.8170  -21.2401 C   0  0  2  0  0  0  0  0  0  0  0  0
   20.5363   -6.2705  -21.4409 N   0  0  0  0  0  0  0  0  0  0  0  0
   19.3527   -4.3622  -22.2190 C   0  0  0  0  0  0  0  0  0  0  0  0
   18.9784   -5.1363  -23.1355 O   0  0  0  0  0  0  0  0  0  0  0  0
   18.7892   -3.1074  -22.2003 O   0  0  0  0  0  0  0  0  0  0  0  0
  2 12  2  0
  2  1  1  0
  3  2  1  0
  4  5  1  0
  4  3  2  0
  5 11  2  0
  6  5  1  0
  7  9  1  0
  7  6  1  0
  7  8  1  6
  9 10  2  0
 11 12  1  0
 13 14  1  0
 13  9  1  0
 14 18  1  0
 14 15  1  1
 16 15  1  0
 16 17  2  0
 18 26  1  0
 18 19  2  0
 20 16  1  0
 21 22  1  0
 22 24  1  0
 23 22  2  0
 25 24  1  6
 25 27  1  0
 26 25  1  0
 27 28  2  0
 27 29  1  0
M  END
$$$$
