AQT.pdb
     RDKit          3D

 22 21  0  0  1  0  0  0  0  0999 V2000
    8.1778  -12.2645   19.4989 C   0  0  0  0  0  0  0  0  0  0  0  0
    8.2251  -13.7645   19.4756 C   0  0  2  0  0  0  0  0  0  0  0  0
    7.1990  -14.2738   18.5613 N   0  0  0  0  0  0  0  0  0  0  0  0
    8.0161  -14.3628   20.8163 C   0  0  0  0  0  0  0  0  0  0  0  0
    6.8264  -14.5822   21.1790 O   0  0  0  0  0  0  0  0  0  0  0  0
   11.7521  -18.4986   23.4933 N   0  0  0  0  0  0  0  0  0  0  0  0
   10.7491  -18.3919   24.4947 C   0  0  0  0  0  0  0  0  0  0  0  0
   10.7801  -19.2075   25.4490 O   0  0  0  0  0  0  0  0  0  0  0  0
    9.7276  -17.3287   24.3573 C   0  0  0  0  0  0  0  0  0  0  0  0
    9.9412  -16.4596   23.1652 C   0  0  0  0  0  0  0  0  0  0  0  0
    8.8861  -15.4272   22.9289 C   0  0  2  0  0  0  0  0  0  0  0  0
    9.0747  -14.6965   21.7001 N   0  0  0  0  0  0  0  0  0  0  0  0
    8.9272  -14.4984   24.1154 C   0  0  0  0  0  0  0  0  0  0  0  0
    9.9306  -13.7587   24.2777 O   0  0  0  0  0  0  0  0  0  0  0  0
    6.1414  -11.8994   25.5778 C   0  0  0  0  0  0  0  0  0  0  0  0
    6.6584  -12.9127   26.5453 C   0  0  1  0  0  0  0  0  0  0  0  0
    5.7461  -13.9641   26.6203 O   0  0  0  0  0  0  0  0  0  0  0  0
    7.9925  -13.4945   26.1557 C   0  0  2  0  0  0  0  0  0  0  0  0
    7.8846  -14.4248   25.0525 N   0  0  0  0  0  0  0  0  0  0  0  0
    8.5760  -14.1500   27.3626 C   0  0  0  0  0  0  0  0  0  0  0  0
    8.8542  -15.4901   27.3597 O   0  0  0  0  0  0  0  0  0  0  0  0
    8.8181  -13.4766   28.3959 O   0  0  0  0  0  0  0  0  0  0  0  0
  2  1  1  1
  2  4  1  0
  3  2  1  0
  4  5  2  0
  6  7  1  0
  7  8  2  0
  7  9  1  0
  9 10  1  0
 11 10  1  1
 11 13  1  0
 12 11  1  0
 12  4  1  0
 13 19  1  0
 14 13  2  0
 16 15  1  6
 16 17  1  0
 18 16  1  0
 18 19  1  6
 20 18  1  0
 21 20  1  0
 22 20  2  0
M  END
$$$$
