AQT.pdb
     RDKit          3D

 22 21  0  0  1  0  0  0  0  0999 V2000
    6.0397  -17.7773   19.5389 C   0  0  0  0  0  0  0  0  0  0  0  0
    7.1782  -17.2646   20.3718 C   0  0  2  0  0  0  0  0  0  0  0  0
    8.3016  -18.2031   20.2985 N   0  0  0  0  0  0  0  0  0  0  0  0
    6.8033  -17.0714   21.7935 C   0  0  0  0  0  0  0  0  0  0  0  0
    5.8359  -16.2986   22.0426 O   0  0  0  0  0  0  0  0  0  0  0  0
    8.4961  -20.5387   26.8504 N   0  0  0  0  0  0  0  0  0  0  0  0
    7.8342  -19.4454   27.4723 C   0  0  0  0  0  0  0  0  0  0  0  0
    7.6913  -19.4753   28.7194 O   0  0  0  0  0  0  0  0  0  0  0  0
    7.3521  -18.3361   26.6178 C   0  0  0  0  0  0  0  0  0  0  0  0
    7.6719  -18.5252   25.1742 C   0  0  0  0  0  0  0  0  0  0  0  0
    7.1486  -17.4653   24.2590 C   0  0  2  0  0  0  0  0  0  0  0  0
    7.4703  -17.7047   22.8738 N   0  0  0  0  0  0  0  0  0  0  0  0
    7.7463  -16.1642   24.7299 C   0  0  0  0  0  0  0  0  0  0  0  0
    8.8393  -15.7815   24.2408 O   0  0  0  0  0  0  0  0  0  0  0  0
    7.0786  -11.6438   26.4612 C   0  0  0  0  0  0  0  0  0  0  0  0
    6.5675  -13.0112   26.1462 C   0  0  1  0  0  0  0  0  0  0  0  0
    5.8328  -12.9512   24.9630 O   0  0  0  0  0  0  0  0  0  0  0  0
    7.6569  -14.0341   25.9542 C   0  0  2  0  0  0  0  0  0  0  0  0
    7.1290  -15.3569   25.6982 N   0  0  0  0  0  0  0  0  0  0  0  0
    8.5176  -14.0203   27.1732 C   0  0  0  0  0  0  0  0  0  0  0  0
    9.1964  -12.8873   27.5319 O   0  0  0  0  0  0  0  0  0  0  0  0
    8.6277  -15.0511   27.8840 O   0  0  0  0  0  0  0  0  0  0  0  0
  2  1  1  6
  2  4  1  0
  3  2  1  0
  4  5  2  0
  6  7  1  0
  7  8  2  0
  7  9  1  0
  9 10  1  0
 11 10  1  1
 11 13  1  0
 12 11  1  0
 12  4  1  0
 13 19  1  0
 14 13  2  0
 16 15  1  6
 16 17  1  0
 18 16  1  0
 18 19  1  1
 20 18  1  0
 21 20  1  0
 22 20  2  0
M  END
$$$$
