AQT.pdb
     RDKit          3D

 22 21  0  0  1  0  0  0  0  0999 V2000
    7.7932  -12.4224   19.6274 C   0  0  0  0  0  0  0  0  0  0  0  0
    8.2920  -13.1291   18.4008 C   0  0  2  0  0  0  0  0  0  0  0  0
    7.1746  -13.8047   17.7350 N   0  0  0  0  0  0  0  0  0  0  0  0
    9.3458  -14.1268   18.7061 C   0  0  0  0  0  0  0  0  0  0  0  0
    8.9849  -15.3261   18.8694 O   0  0  0  0  0  0  0  0  0  0  0  0
   15.4825  -13.8273   17.3224 N   0  0  0  0  0  0  0  0  0  0  0  0
   15.4492  -15.0108   18.1088 C   0  0  0  0  0  0  0  0  0  0  0  0
   16.5134  -15.6655   18.2334 O   0  0  0  0  0  0  0  0  0  0  0  0
   14.1662  -15.4039   18.7349 C   0  0  0  0  0  0  0  0  0  0  0  0
   13.0766  -14.4108   18.5148 C   0  0  0  0  0  0  0  0  0  0  0  0
   11.7492  -14.7780   19.0962 C   0  0  2  0  0  0  0  0  0  0  0  0
   10.7223  -13.8035   18.8221 N   0  0  0  0  0  0  0  0  0  0  0  0
   11.9623  -14.9275   20.5808 C   0  0  0  0  0  0  0  0  0  0  0  0
   12.5343  -14.0030   21.2121 O   0  0  0  0  0  0  0  0  0  0  0  0
    9.3103  -15.8948   23.3707 C   0  0  0  0  0  0  0  0  0  0  0  0
   10.5519  -16.7220   23.4365 C   0  0  1  0  0  0  0  0  0  0  0  0
   10.2990  -17.9546   22.8363 O   0  0  0  0  0  0  0  0  0  0  0  0
   11.7285  -16.1032   22.7273 C   0  0  2  0  0  0  0  0  0  0  0  0
   11.5457  -16.0636   21.2924 N   0  0  0  0  0  0  0  0  0  0  0  0
   12.9468  -16.8813   23.0976 C   0  0  0  0  0  0  0  0  0  0  0  0
   13.4074  -16.8797   24.3864 O   0  0  0  0  0  0  0  0  0  0  0  0
   13.5632  -17.5471   22.2277 O   0  0  0  0  0  0  0  0  0  0  0  0
  2  1  1  1
  2  4  1  0
  3  2  1  0
  4  5  2  0
  6  7  1  0
  7  8  2  0
  7  9  1  0
  9 10  1  0
 11 10  1  6
 11 13  1  0
 12 11  1  0
 12  4  1  0
 13 19  1  0
 14 13  2  0
 16 15  1  6
 16 17  1  0
 18 16  1  0
 18 19  1  6
 20 18  1  0
 21 20  1  0
 22 20  2  0
M  END
$$$$
