AQT.pdb
     RDKit          3D

 22 21  0  0  1  0  0  0  0  0999 V2000
    2.2006  -19.9880   21.7975 C   0  0  0  0  0  0  0  0  0  0  0  0
    3.6872  -19.9455   21.5950 C   0  0  2  0  0  0  0  0  0  0  0  0
    4.2538  -21.2753   21.8378 N   0  0  0  0  0  0  0  0  0  0  0  0
    4.3565  -18.9663   22.4851 C   0  0  0  0  0  0  0  0  0  0  0  0
    4.0342  -17.7512   22.3638 O   0  0  0  0  0  0  0  0  0  0  0  0
    7.6208  -20.0795   27.8237 N   0  0  0  0  0  0  0  0  0  0  0  0
    7.8479  -18.6878   27.6454 C   0  0  0  0  0  0  0  0  0  0  0  0
    8.4800  -18.0745   28.5404 O   0  0  0  0  0  0  0  0  0  0  0  0
    7.3286  -18.0413   26.4185 C   0  0  0  0  0  0  0  0  0  0  0  0
    6.5945  -18.9818   25.5249 C   0  0  0  0  0  0  0  0  0  0  0  0
    6.0031  -18.3675   24.2970 C   0  0  2  0  0  0  0  0  0  0  0  0
    5.3290  -19.3240   23.4542 N   0  0  0  0  0  0  0  0  0  0  0  0
    7.1423  -17.7129   23.5584 C   0  0  0  0  0  0  0  0  0  0  0  0
    7.9570  -18.4343   22.9289 O   0  0  0  0  0  0  0  0  0  0  0  0
    6.7863  -14.4951   21.2307 C   0  0  0  0  0  0  0  0  0  0  0  0
    7.9804  -14.4288   22.1252 C   0  0  1  0  0  0  0  0  0  0  0  0
    7.6956  -13.5711   23.1866 O   0  0  0  0  0  0  0  0  0  0  0  0
    8.3726  -15.7612   22.7091 C   0  0  2  0  0  0  0  0  0  0  0  0
    7.3325  -16.3222   23.5442 N   0  0  0  0  0  0  0  0  0  0  0  0
    9.6390  -15.5701   23.4751 C   0  0  0  0  0  0  0  0  0  0  0  0
    9.6801  -15.8122   24.8215 O   0  0  0  0  0  0  0  0  0  0  0  0
   10.6823  -15.1841   22.8901 O   0  0  0  0  0  0  0  0  0  0  0  0
  2  1  1  1
  2  4  1  0
  3  2  1  0
  4  5  2  0
  6  7  1  0
  7  8  2  0
  7  9  1  0
  9 10  1  0
 11 10  1  1
 11 13  1  0
 12 11  1  0
 12  4  1  0
 13 19  1  0
 14 13  2  0
 16 15  1  6
 16 17  1  0
 18 16  1  0
 18 19  1  1
 20 18  1  0
 21 20  1  0
 22 20  2  0
M  END
$$$$
