AQT.pdb
     RDKit          3D

 22 21  0  0  1  0  0  0  0  0999 V2000
    9.9869  -20.4998   18.2154 C   0  0  0  0  0  0  0  0  0  0  0  0
   10.2132  -19.2178   17.4684 C   0  0  2  0  0  0  0  0  0  0  0  0
   11.3253  -19.3868   16.5288 N   0  0  0  0  0  0  0  0  0  0  0  0
   10.5117  -18.0779   18.3688 C   0  0  0  0  0  0  0  0  0  0  0  0
   11.7240  -17.8495   18.6397 O   0  0  0  0  0  0  0  0  0  0  0  0
    6.6098  -13.3367   19.7822 N   0  0  0  0  0  0  0  0  0  0  0  0
    7.6429  -13.1025   18.8346 C   0  0  0  0  0  0  0  0  0  0  0  0
    7.5220  -12.1202   18.0617 O   0  0  0  0  0  0  0  0  0  0  0  0
    8.8000  -14.0264   18.8120 C   0  0  0  0  0  0  0  0  0  0  0  0
    8.7065  -15.1097   19.8316 C   0  0  0  0  0  0  0  0  0  0  0  0
    9.8063  -16.1214   19.7927 C   0  0  2  0  0  0  0  0  0  0  0  0
    9.5140  -17.2422   18.9336 N   0  0  0  0  0  0  0  0  0  0  0  0
   10.0150  -16.5772   21.2143 C   0  0  0  0  0  0  0  0  0  0  0  0
    9.0252  -16.9735   21.8803 O   0  0  0  0  0  0  0  0  0  0  0  0
   11.0315  -19.5171   22.6336 C   0  0  0  0  0  0  0  0  0  0  0  0
   11.9612  -18.4942   23.1988 C   0  0  1  0  0  0  0  0  0  0  0  0
   13.1352  -18.4944   22.4471 O   0  0  0  0  0  0  0  0  0  0  0  0
   11.4055  -17.0939   23.1748 C   0  0  2  0  0  0  0  0  0  0  0  0
   11.2769  -16.5773   21.8292 N   0  0  0  0  0  0  0  0  0  0  0  0
   12.2994  -16.2326   24.0030 C   0  0  0  0  0  0  0  0  0  0  0  0
   12.3210  -16.3611   25.3655 O   0  0  0  0  0  0  0  0  0  0  0  0
   13.0428  -15.3790   23.4566 O   0  0  0  0  0  0  0  0  0  0  0  0
  2  1  1  1
  2  4  1  0
  3  2  1  0
  4  5  2  0
  6  7  1  0
  7  8  2  0
  7  9  1  0
  9 10  1  0
 11 10  1  1
 11 13  1  0
 12 11  1  0
 12  4  1  0
 13 19  1  0
 14 13  2  0
 16 15  1  6
 16 17  1  0
 18 16  1  0
 18 19  1  6
 20 18  1  0
 21 20  1  0
 22 20  2  0
M  END
$$$$
