AQT.pdb
     RDKit          3D

 22 21  0  0  1  0  0  0  0  0999 V2000
    7.8817  -12.1936   19.7391 C   0  0  0  0  0  0  0  0  0  0  0  0
    8.1880  -13.6523   19.5625 C   0  0  2  0  0  0  0  0  0  0  0  0
    7.3407  -14.2070   18.5030 N   0  0  0  0  0  0  0  0  0  0  0  0
    7.9793  -14.4337   20.8055 C   0  0  0  0  0  0  0  0  0  0  0  0
    6.7976  -14.7802   21.0860 O   0  0  0  0  0  0  0  0  0  0  0  0
   11.7099  -18.6065   23.4941 N   0  0  0  0  0  0  0  0  0  0  0  0
   10.7433  -18.4519   24.5247 C   0  0  0  0  0  0  0  0  0  0  0  0
   10.8367  -19.1907   25.5357 O   0  0  0  0  0  0  0  0  0  0  0  0
    9.6842  -17.4320   24.3492 C   0  0  0  0  0  0  0  0  0  0  0  0
    9.8233  -16.6521   23.0865 C   0  0  0  0  0  0  0  0  0  0  0  0
    8.8243  -15.5561   22.8981 C   0  0  2  0  0  0  0  0  0  0  0  0
    9.0295  -14.8060   21.6837 N   0  0  0  0  0  0  0  0  0  0  0  0
    8.9420  -14.6617   24.1057 C   0  0  0  0  0  0  0  0  0  0  0  0
    9.9600  -13.9348   24.2307 O   0  0  0  0  0  0  0  0  0  0  0  0
    6.5312  -11.8536   25.4363 C   0  0  0  0  0  0  0  0  0  0  0  0
    6.8318  -12.8991   26.4594 C   0  0  1  0  0  0  0  0  0  0  0  0
    5.7846  -13.8191   26.4781 O   0  0  0  0  0  0  0  0  0  0  0  0
    8.1028  -13.6616   26.1889 C   0  0  2  0  0  0  0  0  0  0  0  0
    7.9556  -14.6065   25.1029 N   0  0  0  0  0  0  0  0  0  0  0  0
    8.5036  -14.3462   27.4528 C   0  0  0  0  0  0  0  0  0  0  0  0
    8.8343  -13.6176   28.5632 O   0  0  0  0  0  0  0  0  0  0  0  0
    8.5414  -15.6012   27.5102 O   0  0  0  0  0  0  0  0  0  0  0  0
  2  1  1  1
  2  4  1  0
  3  2  1  0
  4  5  2  0
  6  7  1  0
  7  8  2  0
  7  9  1  0
  9 10  1  0
 11 10  1  1
 11 13  1  0
 12 11  1  0
 12  4  1  0
 13 19  1  0
 14 13  2  0
 16 15  1  6
 16 17  1  0
 18 16  1  0
 18 19  1  6
 20 18  1  0
 21 20  1  0
 22 20  2  0
M  END
$$$$
