AQT.pdb
     RDKit          3D

 22 21  0  0  1  0  0  0  0  0999 V2000
    8.0098  -12.2296   19.3758 C   0  0  0  0  0  0  0  0  0  0  0  0
    8.3017  -13.6911   19.1980 C   0  0  2  0  0  0  0  0  0  0  0  0
    7.4435  -14.2383   18.1434 N   0  0  0  0  0  0  0  0  0  0  0  0
    8.0926  -14.4701   20.4425 C   0  0  0  0  0  0  0  0  0  0  0  0
    6.9203  -14.8681   20.6924 O   0  0  0  0  0  0  0  0  0  0  0  0
   10.5794  -19.8680   24.3304 N   0  0  0  0  0  0  0  0  0  0  0  0
   10.9078  -18.5139   24.0499 C   0  0  0  0  0  0  0  0  0  0  0  0
   12.1224  -18.2084   23.9607 O   0  0  0  0  0  0  0  0  0  0  0  0
    9.8030  -17.5427   23.8789 C   0  0  0  0  0  0  0  0  0  0  0  0
   10.0033  -16.6230   22.7230 C   0  0  0  0  0  0  0  0  0  0  0  0
    8.9394  -15.5896   22.5359 C   0  0  2  0  0  0  0  0  0  0  0  0
    9.1327  -14.7859   21.3543 N   0  0  0  0  0  0  0  0  0  0  0  0
    8.9576  -14.7318   23.7752 C   0  0  0  0  0  0  0  0  0  0  0  0
    9.8102  -13.8128   23.8697 O   0  0  0  0  0  0  0  0  0  0  0  0
    6.6912  -12.3860   27.3034 C   0  0  0  0  0  0  0  0  0  0  0  0
    6.6991  -13.4220   26.2279 C   0  0  1  0  0  0  0  0  0  0  0  0
    6.2263  -12.8458   25.0498 O   0  0  0  0  0  0  0  0  0  0  0  0
    8.0669  -13.9856   25.9418 C   0  0  2  0  0  0  0  0  0  0  0  0
    8.0561  -14.9178   24.8350 N   0  0  0  0  0  0  0  0  0  0  0  0
    8.5656  -14.6324   27.1907 C   0  0  0  0  0  0  0  0  0  0  0  0
    8.8024  -13.8860   28.3132 O   0  0  0  0  0  0  0  0  0  0  0  0
    8.7737  -15.8715   27.2241 O   0  0  0  0  0  0  0  0  0  0  0  0
  2  1  1  1
  2  4  1  0
  3  2  1  0
  4  5  2  0
  6  7  1  0
  7  8  2  0
  7  9  1  0
  9 10  1  0
 11 10  1  1
 11 13  1  0
 12 11  1  0
 12  4  1  0
 13 19  1  0
 14 13  2  0
 16 15  1  1
 16 17  1  0
 18 16  1  0
 18 19  1  6
 20 18  1  0
 21 20  1  0
 22 20  2  0
M  END
$$$$
