AQT.pdb
     RDKit          3D

 22 21  0  0  1  0  0  0  0  0999 V2000
    7.9451  -12.4609   19.7267 C   0  0  0  0  0  0  0  0  0  0  0  0
    8.4089  -13.2105   18.5119 C   0  0  2  0  0  0  0  0  0  0  0  0
    7.2721  -13.9031   17.8986 N   0  0  0  0  0  0  0  0  0  0  0  0
    9.4669  -14.2020   18.8227 C   0  0  0  0  0  0  0  0  0  0  0  0
    9.1114  -15.4023   18.9906 O   0  0  0  0  0  0  0  0  0  0  0  0
   15.5791  -14.3520   16.8969 N   0  0  0  0  0  0  0  0  0  0  0  0
   15.5912  -14.9594   18.1819 C   0  0  0  0  0  0  0  0  0  0  0  0
   16.6953  -15.0752   18.7686 O   0  0  0  0  0  0  0  0  0  0  0  0
   14.3056  -15.4199   18.7548 C   0  0  0  0  0  0  0  0  0  0  0  0
   13.2043  -14.4276   18.5993 C   0  0  0  0  0  0  0  0  0  0  0  0
   11.8806  -14.8491   19.1516 C   0  0  2  0  0  0  0  0  0  0  0  0
   10.8418  -13.8717   18.9392 N   0  0  0  0  0  0  0  0  0  0  0  0
   12.0927  -15.0931   20.6238 C   0  0  0  0  0  0  0  0  0  0  0  0
   12.6772  -14.2170   21.3103 O   0  0  0  0  0  0  0  0  0  0  0  0
    9.4470  -16.0667   23.4015 C   0  0  0  0  0  0  0  0  0  0  0  0
   10.6237  -16.9855   23.3671 C   0  0  1  0  0  0  0  0  0  0  0  0
   10.2717  -18.1350   22.6612 O   0  0  0  0  0  0  0  0  0  0  0  0
   11.8346  -16.3917   22.6953 C   0  0  2  0  0  0  0  0  0  0  0  0
   11.6619  -16.2656   21.2642 N   0  0  0  0  0  0  0  0  0  0  0  0
   13.0089  -17.2509   23.0262 C   0  0  0  0  0  0  0  0  0  0  0  0
   13.6748  -17.9275   22.0403 O   0  0  0  0  0  0  0  0  0  0  0  0
   13.3989  -17.3619   24.2159 O   0  0  0  0  0  0  0  0  0  0  0  0
  2  1  1  1
  2  4  1  0
  3  2  1  0
  4  5  2  0
  6  7  1  0
  7  8  2  0
  7  9  1  0
  9 10  1  0
 11 10  1  1
 11 13  1  0
 12 11  1  0
 12  4  1  0
 13 19  1  0
 14 13  2  0
 16 15  1  6
 16 17  1  0
 18 16  1  0
 18 19  1  6
 20 18  1  0
 21 20  1  0
 22 20  2  0
M  END
$$$$
