AQT.pdb
     RDKit          3D

 22 21  0  0  1  0  0  0  0  0999 V2000
    7.4320  -12.6681   19.4905 C   0  0  0  0  0  0  0  0  0  0  0  0
    8.2015  -13.1930   18.3136 C   0  0  2  0  0  0  0  0  0  0  0  0
    7.2757  -13.8003   17.3532 N   0  0  0  0  0  0  0  0  0  0  0  0
    9.2217  -14.1971   18.7009 C   0  0  0  0  0  0  0  0  0  0  0  0
    8.9206  -15.4166   18.5689 O   0  0  0  0  0  0  0  0  0  0  0  0
   15.3058  -13.7532   17.8392 N   0  0  0  0  0  0  0  0  0  0  0  0
   15.2853  -14.9206   18.6497 C   0  0  0  0  0  0  0  0  0  0  0  0
   16.3734  -15.5110   18.8600 O   0  0  0  0  0  0  0  0  0  0  0  0
   13.9868  -15.3736   19.1988 C   0  0  0  0  0  0  0  0  0  0  0  0
   12.8864  -14.3896   18.9920 C   0  0  0  0  0  0  0  0  0  0  0  0
   11.5385  -14.8280   19.4673 C   0  0  2  0  0  0  0  0  0  0  0  0
   10.5035  -13.8585   19.2062 N   0  0  0  0  0  0  0  0  0  0  0  0
   11.6719  -15.0828   20.9469 C   0  0  0  0  0  0  0  0  0  0  0  0
   11.7705  -14.1035   21.7290 O   0  0  0  0  0  0  0  0  0  0  0  0
   10.9972  -17.8599   24.9107 C   0  0  0  0  0  0  0  0  0  0  0  0
   10.9321  -17.6737   23.4305 C   0  0  1  0  0  0  0  0  0  0  0  0
    9.6121  -17.4033   23.0725 O   0  0  0  0  0  0  0  0  0  0  0  0
   11.7824  -16.5365   22.9265 C   0  0  2  0  0  0  0  0  0  0  0  0
   11.6906  -16.3766   21.4913 N   0  0  0  0  0  0  0  0  0  0  0  0
   13.1888  -16.7921   23.3548 C   0  0  0  0  0  0  0  0  0  0  0  0
   13.6692  -16.2558   24.5188 O   0  0  0  0  0  0  0  0  0  0  0  0
   13.9476  -17.5038   22.6495 O   0  0  0  0  0  0  0  0  0  0  0  0
  2  1  1  1
  2  4  1  0
  3  2  1  0
  4  5  2  0
  6  7  1  0
  7  8  2  0
  7  9  1  0
  9 10  1  0
 11 10  1  1
 11 13  1  0
 12 11  1  0
 12  4  1  0
 13 19  1  0
 14 13  2  0
 16 15  1  1
 16 17  1  0
 18 16  1  0
 18 19  1  6
 20 18  1  0
 21 20  1  0
 22 20  2  0
M  END
$$$$
