AQT.pdb
     RDKit          3D

 22 21  0  0  1  0  0  0  0  0999 V2000
    7.9733  -12.2714   19.3592 C   0  0  0  0  0  0  0  0  0  0  0  0
    8.2442  -13.4632   18.4881 C   0  0  2  0  0  0  0  0  0  0  0  0
    7.0832  -13.7186   17.6307 N   0  0  0  0  0  0  0  0  0  0  0  0
    8.5434  -14.6863   19.2715 C   0  0  0  0  0  0  0  0  0  0  0  0
    7.5738  -15.4355   19.5777 O   0  0  0  0  0  0  0  0  0  0  0  0
   10.5333  -20.2812   21.1364 N   0  0  0  0  0  0  0  0  0  0  0  0
   11.0144  -19.3060   20.2212 C   0  0  0  0  0  0  0  0  0  0  0  0
   10.7746  -19.4747   19.0002 O   0  0  0  0  0  0  0  0  0  0  0  0
   11.7686  -18.1496   20.7568 C   0  0  0  0  0  0  0  0  0  0  0  0
   11.4498  -16.8688   20.0642 C   0  0  0  0  0  0  0  0  0  0  0  0
   10.1417  -16.2484   20.4369 C   0  0  2  0  0  0  0  0  0  0  0  0
    9.8496  -15.0510   19.6883 N   0  0  0  0  0  0  0  0  0  0  0  0
   10.2173  -15.9515   21.9128 C   0  0  0  0  0  0  0  0  0  0  0  0
   10.8653  -14.9468   22.3014 O   0  0  0  0  0  0  0  0  0  0  0  0
    8.2691  -15.8919   26.3233 C   0  0  0  0  0  0  0  0  0  0  0  0
    8.2742  -16.3886   24.9150 C   0  0  1  0  0  0  0  0  0  0  0  0
    7.4250  -15.5852   24.1555 O   0  0  0  0  0  0  0  0  0  0  0  0
    9.6339  -16.3540   24.2669 C   0  0  2  0  0  0  0  0  0  0  0  0
    9.5902  -16.7557   22.8774 N   0  0  0  0  0  0  0  0  0  0  0  0
   10.5406  -17.2363   25.0582 C   0  0  0  0  0  0  0  0  0  0  0  0
   11.0864  -18.3573   24.4937 O   0  0  0  0  0  0  0  0  0  0  0  0
   10.8126  -16.9581   26.2534 O   0  0  0  0  0  0  0  0  0  0  0  0
  2  1  1  1
  2  4  1  0
  3  2  1  0
  4  5  2  0
  6  7  1  0
  7  8  2  0
  7  9  1  0
  9 10  1  0
 11 10  1  6
 11 13  1  0
 12 11  1  0
 12  4  1  0
 13 19  1  0
 14 13  2  0
 16 15  1  1
 16 17  1  0
 18 16  1  0
 18 19  1  6
 20 18  1  0
 21 20  1  0
 22 20  2  0
M  END
$$$$
