AQT.pdb
     RDKit          3D

 22 21  0  0  1  0  0  0  0  0999 V2000
    6.7742  -20.4509   20.1280 C   0  0  0  0  0  0  0  0  0  0  0  0
    5.7081  -21.2966   20.7610 C   0  0  2  0  0  0  0  0  0  0  0  0
    4.4399  -21.0987   20.0534 N   0  0  0  0  0  0  0  0  0  0  0  0
    5.5120  -20.9865   22.1979 C   0  0  0  0  0  0  0  0  0  0  0  0
    4.9933  -19.8724   22.4894 O   0  0  0  0  0  0  0  0  0  0  0  0
    5.1700  -25.4367   25.7693 N   0  0  0  0  0  0  0  0  0  0  0  0
    3.9692  -24.6974   25.5911 C   0  0  0  0  0  0  0  0  0  0  0  0
    2.8847  -25.3300   25.5746 O   0  0  0  0  0  0  0  0  0  0  0  0
    4.0640  -23.2278   25.4358 C   0  0  0  0  0  0  0  0  0  0  0  0
    5.4629  -22.7184   25.5094 C   0  0  0  0  0  0  0  0  0  0  0  0
    5.7591  -21.5349   24.6455 C   0  0  2  0  0  0  0  0  0  0  0  0
    5.8743  -21.8694   23.2476 N   0  0  0  0  0  0  0  0  0  0  0  0
    7.0457  -20.9432   25.1618 C   0  0  0  0  0  0  0  0  0  0  0  0
    8.1345  -21.3083   24.6505 O   0  0  0  0  0  0  0  0  0  0  0  0
    9.4850  -17.2060   27.0780 C   0  0  0  0  0  0  0  0  0  0  0  0
    8.2509  -17.8719   26.5643 C   0  0  1  0  0  0  0  0  0  0  0  0
    8.0265  -17.4470   25.2556 O   0  0  0  0  0  0  0  0  0  0  0  0
    8.3389  -19.3759   26.5458 C   0  0  2  0  0  0  0  0  0  0  0  0
    7.0786  -19.9953   26.1967 N   0  0  0  0  0  0  0  0  0  0  0  0
    8.8091  -19.8233   27.8895 C   0  0  0  0  0  0  0  0  0  0  0  0
   10.1189  -19.6674   28.2549 O   0  0  0  0  0  0  0  0  0  0  0  0
    8.0054  -20.3487   28.7006 O   0  0  0  0  0  0  0  0  0  0  0  0
  2  1  1  6
  2  4  1  0
  3  2  1  0
  4  5  2  0
  6  7  1  0
  7  8  2  0
  7  9  1  0
  9 10  1  0
 11 10  1  1
 11 13  1  0
 12 11  1  0
 12  4  1  0
 13 19  1  0
 14 13  2  0
 16 15  1  6
 16 17  1  0
 18 16  1  0
 18 19  1  1
 20 18  1  0
 21 20  1  0
 22 20  2  0
M  END
$$$$
