AQT.pdb
     RDKit          3D

 22 21  0  0  1  0  0  0  0  0999 V2000
    7.9709  -12.7549   17.4468 C   0  0  0  0  0  0  0  0  0  0  0  0
    8.5923  -14.0073   16.9006 C   0  0  2  0  0  0  0  0  0  0  0  0
    7.7059  -14.5957   15.8924 N   0  0  0  0  0  0  0  0  0  0  0  0
    8.8621  -15.0163   17.9533 C   0  0  0  0  0  0  0  0  0  0  0  0
    7.9353  -15.8258   18.2376 O   0  0  0  0  0  0  0  0  0  0  0  0
   14.1757  -17.9581   19.0433 N   0  0  0  0  0  0  0  0  0  0  0  0
   13.3815  -18.4911   20.0947 C   0  0  0  0  0  0  0  0  0  0  0  0
   13.8612  -19.4291   20.7781 O   0  0  0  0  0  0  0  0  0  0  0  0
   12.0380  -17.9125   20.3248 C   0  0  0  0  0  0  0  0  0  0  0  0
   11.7393  -16.7510   19.4394 C   0  0  0  0  0  0  0  0  0  0  0  0
   10.3845  -16.1442   19.6155 C   0  0  2  0  0  0  0  0  0  0  0  0
   10.0954  -15.1150   18.6476 N   0  0  0  0  0  0  0  0  0  0  0  0
   10.3469  -15.5875   21.0157 C   0  0  0  0  0  0  0  0  0  0  0  0
   11.0705  -14.5996   21.3001 O   0  0  0  0  0  0  0  0  0  0  0  0
    7.5118  -14.0642   23.1653 C   0  0  0  0  0  0  0  0  0  0  0  0
    8.1552  -15.2298   23.8418 C   0  0  1  0  0  0  0  0  0  0  0  0
    7.3729  -16.3621   23.6198 O   0  0  0  0  0  0  0  0  0  0  0  0
    9.5433  -15.5297   23.3385 C   0  0  2  0  0  0  0  0  0  0  0  0
    9.5321  -16.1300   22.0219 N   0  0  0  0  0  0  0  0  0  0  0  0
   10.2089  -16.4196   24.3345 C   0  0  0  0  0  0  0  0  0  0  0  0
   10.5282  -15.9516   25.5804 O   0  0  0  0  0  0  0  0  0  0  0  0
   10.4833  -17.6099   24.0385 O   0  0  0  0  0  0  0  0  0  0  0  0
  2  1  1  1
  2  4  1  0
  3  2  1  0
  4  5  2  0
  6  7  1  0
  7  8  2  0
  7  9  1  0
  9 10  1  0
 11 10  1  6
 11 13  1  0
 12 11  1  0
 12  4  1  0
 13 19  1  0
 14 13  2  0
 16 15  1  6
 16 17  1  0
 18 16  1  0
 18 19  1  6
 20 18  1  0
 21 20  1  0
 22 20  2  0
M  END
$$$$
