AQT.pdb
     RDKit          3D

 22 21  0  0  1  0  0  0  0  0999 V2000
    3.0542  -18.8869   22.8796 C   0  0  0  0  0  0  0  0  0  0  0  0
    3.4810  -18.5836   21.4729 C   0  0  2  0  0  0  0  0  0  0  0  0
    3.3358  -19.7850   20.6460 N   0  0  0  0  0  0  0  0  0  0  0  0
    4.8837  -18.1093   21.3920 C   0  0  0  0  0  0  0  0  0  0  0  0
    5.7983  -18.9784   21.4484 O   0  0  0  0  0  0  0  0  0  0  0  0
    6.8809  -12.3412   19.5665 N   0  0  0  0  0  0  0  0  0  0  0  0
    8.1121  -13.0193   19.7771 C   0  0  0  0  0  0  0  0  0  0  0  0
    9.1710  -12.4388   19.4327 O   0  0  0  0  0  0  0  0  0  0  0  0
    8.0775  -14.3674   20.3888 C   0  0  0  0  0  0  0  0  0  0  0  0
    6.6941  -14.8785   20.6059 C   0  0  0  0  0  0  0  0  0  0  0  0
    6.6021  -16.2906   21.0878 C   0  0  2  0  0  0  0  0  0  0  0  0
    5.2434  -16.7436   21.2561 N   0  0  0  0  0  0  0  0  0  0  0  0
    7.3493  -16.3427   22.3959 C   0  0  0  0  0  0  0  0  0  0  0  0
    6.8049  -15.8780   23.4294 O   0  0  0  0  0  0  0  0  0  0  0  0
   10.2895  -19.2085   23.2659 C   0  0  0  0  0  0  0  0  0  0  0  0
    9.4728  -18.4199   24.2361 C   0  0  1  0  0  0  0  0  0  0  0  0
   10.1344  -18.3994   25.4630 O   0  0  0  0  0  0  0  0  0  0  0  0
    9.2490  -16.9904   23.8157 C   0  0  2  0  0  0  0  0  0  0  0  0
    8.6361  -16.8921   22.5085 N   0  0  0  0  0  0  0  0  0  0  0  0
   10.5669  -16.2914   23.8506 C   0  0  0  0  0  0  0  0  0  0  0  0
   11.2682  -16.1884   25.0214 O   0  0  0  0  0  0  0  0  0  0  0  0
   11.0469  -15.7894   22.8030 O   0  0  0  0  0  0  0  0  0  0  0  0
  2  1  1  1
  2  4  1  0
  3  2  1  0
  4  5  2  0
  6  7  1  0
  7  8  2  0
  7  9  1  0
  9 10  1  0
 11 10  1  1
 11 13  1  0
 12 11  1  0
 12  4  1  0
 13 19  1  0
 14 13  2  0
 16 15  1  6
 16 17  1  0
 18 16  1  0
 18 19  1  6
 20 18  1  0
 21 20  1  0
 22 20  2  0
M  END
$$$$
