AQT.pdb
     RDKit          3D

 22 21  0  0  1  0  0  0  0  0999 V2000
    2.8638  -18.8171   22.8272 C   0  0  0  0  0  0  0  0  0  0  0  0
    3.3240  -18.5602   21.4218 C   0  0  2  0  0  0  0  0  0  0  0  0
    3.1420  -19.7713   20.6166 N   0  0  0  0  0  0  0  0  0  0  0  0
    4.7461  -18.1452   21.3540 C   0  0  0  0  0  0  0  0  0  0  0  0
    5.6201  -19.0567   21.3337 O   0  0  0  0  0  0  0  0  0  0  0  0
    7.0059  -12.5178   19.5055 N   0  0  0  0  0  0  0  0  0  0  0  0
    8.2044  -13.2482   19.7296 C   0  0  0  0  0  0  0  0  0  0  0  0
    9.2890  -12.7237   19.3757 O   0  0  0  0  0  0  0  0  0  0  0  0
    8.1074  -14.5818   20.3659 C   0  0  0  0  0  0  0  0  0  0  0  0
    6.7026  -15.0110   20.6191 C   0  0  0  0  0  0  0  0  0  0  0  0
    6.5452  -16.3890   21.1769 C   0  0  2  0  0  0  0  0  0  0  0  0
    5.1669  -16.7910   21.3115 N   0  0  0  0  0  0  0  0  0  0  0  0
    7.2350  -16.3862   22.5171 C   0  0  0  0  0  0  0  0  0  0  0  0
    6.6832  -15.8070   23.4870 O   0  0  0  0  0  0  0  0  0  0  0  0
    8.0914  -18.9641   25.0622 C   0  0  0  0  0  0  0  0  0  0  0  0
    9.3431  -18.2610   24.6509 C   0  0  1  0  0  0  0  0  0  0  0  0
   10.0059  -19.0450   23.7079 O   0  0  0  0  0  0  0  0  0  0  0  0
    9.1009  -16.9096   24.0300 C   0  0  2  0  0  0  0  0  0  0  0  0
    8.4758  -17.0076   22.7286 N   0  0  0  0  0  0  0  0  0  0  0  0
   10.4118  -16.2012   23.9501 C   0  0  0  0  0  0  0  0  0  0  0  0
   11.0766  -15.8388   25.0902 O   0  0  0  0  0  0  0  0  0  0  0  0
   10.9193  -15.9297   22.8327 O   0  0  0  0  0  0  0  0  0  0  0  0
  2  1  1  1
  2  4  1  0
  3  2  1  0
  4  5  2  0
  6  7  1  0
  7  8  2  0
  7  9  1  0
  9 10  1  0
 11 10  1  1
 11 13  1  0
 12 11  1  0
 12  4  1  0
 13 19  1  0
 14 13  2  0
 16 15  1  6
 16 17  1  0
 18 16  1  0
 18 19  1  6
 20 18  1  0
 21 20  1  0
 22 20  2  0
M  END
$$$$
