AQT.pdb
     RDKit          3D

 22 21  0  0  1  0  0  0  0  0999 V2000
    8.1720  -12.4508   19.2431 C   0  0  0  0  0  0  0  0  0  0  0  0
    8.2829  -13.9476   19.2436 C   0  0  2  0  0  0  0  0  0  0  0  0
    7.2957  -14.5133   18.3198 N   0  0  0  0  0  0  0  0  0  0  0  0
    8.0756  -14.5346   20.5896 C   0  0  0  0  0  0  0  0  0  0  0  0
    6.8852  -14.7210   20.9685 O   0  0  0  0  0  0  0  0  0  0  0  0
   11.9936  -18.4865   23.4212 N   0  0  0  0  0  0  0  0  0  0  0  0
   10.9481  -18.4280   24.3823 C   0  0  0  0  0  0  0  0  0  0  0  0
   11.0179  -19.1923   25.3761 O   0  0  0  0  0  0  0  0  0  0  0  0
    9.8392  -17.4724   24.1587 C   0  0  0  0  0  0  0  0  0  0  0  0
   10.0220  -16.6356   22.9387 C   0  0  0  0  0  0  0  0  0  0  0  0
    8.9464  -15.6284   22.6868 C   0  0  2  0  0  0  0  0  0  0  0  0
    9.1362  -14.8924   21.4613 N   0  0  0  0  0  0  0  0  0  0  0  0
    8.9472  -14.6998   23.8741 C   0  0  0  0  0  0  0  0  0  0  0  0
    9.8378  -13.8165   23.9582 O   0  0  0  0  0  0  0  0  0  0  0  0
    6.5989  -12.1077   27.1926 C   0  0  0  0  0  0  0  0  0  0  0  0
    6.6124  -13.2437   26.2234 C   0  0  1  0  0  0  0  0  0  0  0  0
    6.0813  -12.8031   25.0122 O   0  0  0  0  0  0  0  0  0  0  0  0
    7.9909  -13.7850   25.9460 C   0  0  2  0  0  0  0  0  0  0  0  0
    7.9886  -14.7810   24.8963 N   0  0  0  0  0  0  0  0  0  0  0  0
    8.5289  -14.3424   27.2213 C   0  0  0  0  0  0  0  0  0  0  0  0
    8.7685  -13.5235   28.2914 O   0  0  0  0  0  0  0  0  0  0  0  0
    8.7678  -15.5720   27.3256 O   0  0  0  0  0  0  0  0  0  0  0  0
  2  1  1  1
  2  4  1  0
  3  2  1  0
  4  5  2  0
  6  7  1  0
  7  8  2  0
  7  9  1  0
  9 10  1  0
 11 10  1  1
 11 13  1  0
 12 11  1  0
 12  4  1  0
 13 19  1  0
 14 13  2  0
 16 15  1  1
 16 17  1  0
 18 16  1  0
 18 19  1  6
 20 18  1  0
 21 20  1  0
 22 20  2  0
M  END
$$$$
