AQT.pdb
     RDKit          3D

 22 21  0  0  1  0  0  0  0  0999 V2000
    7.3228  -24.6003   20.5135 C   0  0  0  0  0  0  0  0  0  0  0  0
    7.3553  -23.4192   19.5879 C   0  0  2  0  0  0  0  0  0  0  0  0
    6.1663  -23.4343   18.7310 N   0  0  0  0  0  0  0  0  0  0  0  0
    8.5662  -23.3982   18.7321 C   0  0  0  0  0  0  0  0  0  0  0  0
    8.7481  -24.3758   17.9535 O   0  0  0  0  0  0  0  0  0  0  0  0
   10.0950  -21.8519   13.9127 N   0  0  0  0  0  0  0  0  0  0  0  0
   10.4426  -20.7578   14.7508 C   0  0  0  0  0  0  0  0  0  0  0  0
   11.2397  -19.8993   14.2987 O   0  0  0  0  0  0  0  0  0  0  0  0
    9.8474  -20.6917   16.1051 C   0  0  0  0  0  0  0  0  0  0  0  0
   10.8274  -20.9759   17.1918 C   0  0  0  0  0  0  0  0  0  0  0  0
   10.6638  -22.2975   17.8711 C   0  0  2  0  0  0  0  0  0  0  0  0
    9.5181  -22.3463   18.7455 N   0  0  0  0  0  0  0  0  0  0  0  0
   11.9361  -22.5391   18.6424 C   0  0  0  0  0  0  0  0  0  0  0  0
   11.9793  -22.2328   19.8609 O   0  0  0  0  0  0  0  0  0  0  0  0
   16.2748  -24.8316   19.1321 C   0  0  0  0  0  0  0  0  0  0  0  0
   15.1011  -24.4699   18.2826 C   0  0  1  0  0  0  0  0  0  0  0  0
   14.3147  -25.6065   18.1010 O   0  0  0  0  0  0  0  0  0  0  0  0
   14.2254  -23.4019   18.8850 C   0  0  2  0  0  0  0  0  0  0  0  0
   13.0819  -23.0956   18.0527 N   0  0  0  0  0  0  0  0  0  0  0  0
   15.0696  -22.1928   19.1131 C   0  0  0  0  0  0  0  0  0  0  0  0
   15.5815  -21.9266   20.3542 O   0  0  0  0  0  0  0  0  0  0  0  0
   15.3192  -21.4052   18.1658 O   0  0  0  0  0  0  0  0  0  0  0  0
  2  1  1  6
  2  4  1  0
  3  2  1  0
  4  5  2  0
  6  7  1  0
  7  8  2  0
  7  9  1  0
  9 10  1  0
 11 10  1  1
 11 13  1  0
 12 11  1  0
 12  4  1  0
 13 19  1  0
 14 13  2  0
 16 15  1  1
 16 17  1  0
 18 16  1  0
 18 19  1  6
 20 18  1  0
 21 20  1  0
 22 20  2  0
M  END
$$$$
