YHW.pdb
     RDKit          3D

 37 40  0  0  1  0  0  0  0  0999 V2000
   31.7540  -24.0080  -18.5864 O   0  0  0  0  0  0  0  0  0  0  0  0
   31.0817  -23.2176  -17.6768 C   0  0  0  0  0  0  0  0  0  0  0  0
   30.5722  -23.7029  -16.4930 C   0  0  0  0  0  0  0  0  0  0  0  0
   29.9167  -22.8817  -15.6292 C   0  0  0  0  0  0  0  0  0  0  0  0
   29.7122  -21.5172  -15.8652 C   0  0  0  0  0  0  0  0  0  0  0  0
   28.9914  -20.6833  -14.8814 C   0  0  0  0  0  0  0  0  0  0  0  0
   27.5122  -20.8163  -15.0719 C   0  0  2  0  0  0  0  0  0  0  0  0
   27.1126  -20.1524  -16.3006 N   0  0  0  0  0  0  0  0  0  0  0  0
   26.7966  -20.2499  -13.9038 C   0  0  0  0  0  0  0  0  0  0  0  0
   26.3268  -19.0784  -13.9263 O   0  0  0  0  0  0  0  0  0  0  0  0
   30.2219  -21.0380  -17.0463 C   0  0  0  0  0  0  0  0  0  0  0  0
   30.8876  -21.8616  -17.9282 C   0  0  0  0  0  0  0  0  0  0  0  0
   26.6060  -21.0035  -12.6999 N   0  0  0  0  0  0  0  0  0  0  0  0
   25.5296  -20.6274  -11.7679 C   0  0  1  0  0  0  0  0  0  0  0  0
   24.2422  -20.8716  -12.5314 C   0  0  0  0  0  0  0  0  0  0  0  0
   23.8862  -19.6723  -13.3469 C   0  0  0  0  0  0  0  0  0  0  0  0
   24.1961  -19.5115  -14.6750 C   0  0  0  0  0  0  0  0  0  0  0  0
   23.7303  -18.3213  -15.1106 N   0  0  0  0  0  0  0  0  0  0  0  0
   23.1283  -17.7294  -14.0660 C   0  0  0  0  0  0  0  0  0  0  0  0
   23.2274  -18.5581  -12.9954 N   0  0  0  0  0  0  0  0  0  0  0  0
   25.6222  -21.4595  -10.5372 C   0  0  0  0  0  0  0  0  0  0  0  0
   25.7797  -22.6854  -10.6123 O   0  0  0  0  0  0  0  0  0  0  0  0
   25.5315  -20.8622   -9.2596 N   0  0  0  0  0  0  0  0  0  0  0  0
   25.1066  -21.5453   -8.0472 C   0  0  1  0  0  0  0  0  0  0  0  0
   26.1732  -21.5880   -7.0271 C   0  0  0  0  0  0  0  0  0  0  0  0
   26.9904  -20.3709   -6.9930 C   0  0  0  0  0  0  0  0  0  0  0  0
   26.9172  -19.3160   -7.8811 C   0  0  0  0  0  0  0  0  0  0  0  0
   27.8206  -18.3826   -7.5947 N   0  0  0  0  0  0  0  0  0  0  0  0
   28.5089  -18.7913   -6.5184 C   0  0  0  0  0  0  0  0  0  0  0  0
   29.5353  -18.1764   -5.8190 C   0  0  0  0  0  0  0  0  0  0  0  0
   30.0758  -18.8007   -4.7057 C   0  0  0  0  0  0  0  0  0  0  0  0
   29.5788  -20.0221   -4.3189 C   0  0  0  0  0  0  0  0  0  0  0  0
   28.5612  -20.6432   -5.0050 C   0  0  0  0  0  0  0  0  0  0  0  0
   28.0224  -20.0175   -6.1186 C   0  0  0  0  0  0  0  0  0  0  0  0
   23.8091  -21.1454   -7.5576 C   0  0  0  0  0  0  0  0  0  0  0  0
   23.3136  -21.8135   -6.4169 O   0  0  0  0  0  0  0  0  0  0  0  0
   23.0977  -20.2571   -8.0666 O   0  0  0  0  0  0  0  0  0  0  0  0
  2  1  1  0
  3  2  2  0
  4  3  1  0
  5  4  2  0
  5 11  1  0
  6  5  1  0
  7  9  1  0
  7  6  1  0
  7  8  1  6
  9 10  2  0
 11 12  2  0
 12  2  1  0
 13 14  1  0
 13  9  1  0
 14 15  1  6
 15 16  1  0
 16 17  2  0
 18 17  1  0
 19 18  1  0
 20 19  2  0
 20 16  1  0
 21 23  1  0
 21 14  1  0
 22 21  2  0
 24 23  1  0
 24 35  1  0
 24 25  1  1
 26 25  1  0
 27 26  2  0
 28 27  1  0
 29 28  1  0
 29 34  2  0
 30 29  1  0
 31 30  2  0
 31 32  1  0
 32 33  2  0
 33 34  1  0
 34 26  1  0
 35 36  1  0
 37 35  2  0
M  END
$$$$
