YHW.pdb
     RDKit          3D

 37 40  0  0  1  0  0  0  0  0999 V2000
   32.6847  -27.8183  -18.2190 O   0  0  0  0  0  0  0  0  0  0  0  0
   32.0160  -26.7218  -17.7144 C   0  0  0  0  0  0  0  0  0  0  0  0
   32.5670  -25.4603  -17.6727 C   0  0  0  0  0  0  0  0  0  0  0  0
   31.8657  -24.4113  -17.1648 C   0  0  0  0  0  0  0  0  0  0  0  0
   30.5657  -24.5241  -16.6582 C   0  0  0  0  0  0  0  0  0  0  0  0
   29.8619  -23.3408  -16.1222 C   0  0  0  0  0  0  0  0  0  0  0  0
   28.8026  -22.8885  -17.0790 C   0  0  2  0  0  0  0  0  0  0  0  0
   29.4187  -22.2502  -18.2294 N   0  0  0  0  0  0  0  0  0  0  0  0
   27.8632  -21.9660  -16.3979 C   0  0  0  0  0  0  0  0  0  0  0  0
   28.1637  -20.7575  -16.1910 O   0  0  0  0  0  0  0  0  0  0  0  0
   30.0206  -25.7832  -16.7020 C   0  0  0  0  0  0  0  0  0  0  0  0
   30.7227  -26.8526  -17.2145 C   0  0  0  0  0  0  0  0  0  0  0  0
   26.5755  -22.4022  -15.9450 N   0  0  0  0  0  0  0  0  0  0  0  0
   25.6527  -21.4328  -15.3308 C   0  0  1  0  0  0  0  0  0  0  0  0
   24.5351  -21.2561  -16.3407 C   0  0  0  0  0  0  0  0  0  0  0  0
   25.0101  -20.4521  -17.5060 C   0  0  0  0  0  0  0  0  0  0  0  0
   25.1942  -20.9480  -18.7733 C   0  0  0  0  0  0  0  0  0  0  0  0
   25.6266  -19.9630  -19.5895 N   0  0  0  0  0  0  0  0  0  0  0  0
   25.7169  -18.8484  -18.8457 C   0  0  0  0  0  0  0  0  0  0  0  0
   25.3399  -19.1540  -17.5780 N   0  0  0  0  0  0  0  0  0  0  0  0
   25.1600  -21.9672  -14.0319 C   0  0  0  0  0  0  0  0  0  0  0  0
   25.4759  -23.1034  -13.6541 O   0  0  0  0  0  0  0  0  0  0  0  0
   24.3214  -21.1845  -13.2065 N   0  0  0  0  0  0  0  0  0  0  0  0
   23.9488  -21.5178  -11.8400 C   0  0  1  0  0  0  0  0  0  0  0  0
   25.1268  -21.7472  -10.9799 C   0  0  0  0  0  0  0  0  0  0  0  0
   25.6774  -20.5127  -10.4114 C   0  0  0  0  0  0  0  0  0  0  0  0
   26.0792  -19.3981  -11.1207 C   0  0  0  0  0  0  0  0  0  0  0  0
   26.5668  -18.4625  -10.3106 N   0  0  0  0  0  0  0  0  0  0  0  0
   26.5001  -18.9288   -9.0547 C   0  0  0  0  0  0  0  0  0  0  0  0
   26.8601  -18.3373   -7.8542 C   0  0  0  0  0  0  0  0  0  0  0  0
   26.6677  -19.0256   -6.6665 C   0  0  0  0  0  0  0  0  0  0  0  0
   26.1214  -20.2858   -6.7069 C   0  0  0  0  0  0  0  0  0  0  0  0
   25.7608  -20.8843   -7.8917 C   0  0  0  0  0  0  0  0  0  0  0  0
   25.9547  -20.1945   -9.0786 C   0  0  0  0  0  0  0  0  0  0  0  0
   22.9340  -20.6640  -11.2706 C   0  0  0  0  0  0  0  0  0  0  0  0
   22.4810  -19.5832  -12.0578 O   0  0  0  0  0  0  0  0  0  0  0  0
   22.4310  -20.8111  -10.1394 O   0  0  0  0  0  0  0  0  0  0  0  0
  2  1  1  0
  3  2  2  0
  4  3  1  0
  5  4  2  0
  5 11  1  0
  6  5  1  0
  7  9  1  0
  7  6  1  0
  7  8  1  6
  9 10  2  0
 11 12  2  0
 12  2  1  0
 13 14  1  0
 13  9  1  0
 14 15  1  6
 15 16  1  0
 16 17  2  0
 18 17  1  0
 19 18  1  0
 20 19  2  0
 20 16  1  0
 21 23  1  0
 21 14  1  0
 22 21  2  0
 24 23  1  0
 24 35  1  0
 24 25  1  1
 26 25  1  0
 27 26  2  0
 28 27  1  0
 29 28  1  0
 29 34  2  0
 30 29  1  0
 31 30  2  0
 31 32  1  0
 32 33  2  0
 33 34  1  0
 34 26  1  0
 35 36  1  0
 37 35  2  0
M  END
$$$$
