YHW.pdb
     RDKit          3D

 37 40  0  0  1  0  0  0  0  0999 V2000
   18.5656  -20.5602  -17.9416 O   0  0  0  0  0  0  0  0  0  0  0  0
   19.8556  -21.0496  -17.9208 C   0  0  0  0  0  0  0  0  0  0  0  0
   20.6890  -20.9226  -16.8318 C   0  0  0  0  0  0  0  0  0  0  0  0
   21.9535  -21.4229  -16.8615 C   0  0  0  0  0  0  0  0  0  0  0  0
   22.4954  -22.0880  -17.9676 C   0  0  0  0  0  0  0  0  0  0  0  0
   23.8779  -22.6076  -17.9300 C   0  0  0  0  0  0  0  0  0  0  0  0
   24.8554  -21.5031  -18.1882 C   0  0  2  0  0  0  0  0  0  0  0  0
   25.6408  -21.8078  -19.3716 N   0  0  0  0  0  0  0  0  0  0  0  0
   25.7278  -21.3101  -17.0054 C   0  0  0  0  0  0  0  0  0  0  0  0
   26.5881  -22.1731  -16.6760 O   0  0  0  0  0  0  0  0  0  0  0  0
   21.6609  -22.2124  -19.0505 C   0  0  0  0  0  0  0  0  0  0  0  0
   20.3781  -21.7090  -19.0306 C   0  0  0  0  0  0  0  0  0  0  0  0
   25.6349  -20.1390  -16.1847 N   0  0  0  0  0  0  0  0  0  0  0  0
   26.4340  -20.0489  -14.9510 C   0  0  1  0  0  0  0  0  0  0  0  0
   26.8131  -18.5854  -14.8315 C   0  0  0  0  0  0  0  0  0  0  0  0
   28.0090  -18.2878  -15.6748 C   0  0  0  0  0  0  0  0  0  0  0  0
   28.7111  -19.2250  -16.3919 C   0  0  0  0  0  0  0  0  0  0  0  0
   29.7310  -18.6284  -17.0457 N   0  0  0  0  0  0  0  0  0  0  0  0
   29.6773  -17.3203  -16.7458 C   0  0  0  0  0  0  0  0  0  0  0  0
   28.6262  -17.1204  -15.9105 N   0  0  0  0  0  0  0  0  0  0  0  0
   25.6215  -20.5175  -13.7952 C   0  0  0  0  0  0  0  0  0  0  0  0
   24.3910  -20.3799  -13.7892 O   0  0  0  0  0  0  0  0  0  0  0  0
   26.2432  -21.1287  -12.6829 N   0  0  0  0  0  0  0  0  0  0  0  0
   25.5499  -21.5974  -11.4926 C   0  0  1  0  0  0  0  0  0  0  0  0
   26.4848  -21.9727  -10.4131 C   0  0  0  0  0  0  0  0  0  0  0  0
   26.4929  -21.0207   -9.2977 C   0  0  0  0  0  0  0  0  0  0  0  0
   25.4506  -20.1957   -8.9239 C   0  0  0  0  0  0  0  0  0  0  0  0
   25.7920  -19.4259   -7.8943 N   0  0  0  0  0  0  0  0  0  0  0  0
   27.0579  -19.7193   -7.5619 C   0  0  0  0  0  0  0  0  0  0  0  0
   27.8643  -19.2150   -6.5539 C   0  0  0  0  0  0  0  0  0  0  0  0
   29.1510  -19.7058   -6.3957 C   0  0  0  0  0  0  0  0  0  0  0  0
   29.6000  -20.6867   -7.2468 C   0  0  0  0  0  0  0  0  0  0  0  0
   28.8100  -21.1949   -8.2516 C   0  0  0  0  0  0  0  0  0  0  0  0
   27.5237  -20.7022   -8.4087 C   0  0  0  0  0  0  0  0  0  0  0  0
   24.4413  -20.7704  -11.0802 C   0  0  0  0  0  0  0  0  0  0  0  0
   24.5668  -19.3773  -11.2715 O   0  0  0  0  0  0  0  0  0  0  0  0
   23.3862  -21.1951  -10.5697 O   0  0  0  0  0  0  0  0  0  0  0  0
  2  1  1  0
  3  2  2  0
  4  3  1  0
  5  4  2  0
  5 11  1  0
  6  5  1  0
  7  9  1  0
  7  6  1  0
  7  8  1  6
  9 10  2  0
 11 12  2  0
 12  2  1  0
 13 14  1  0
 13  9  1  0
 14 15  1  1
 15 16  1  0
 16 17  2  0
 18 17  1  0
 19 18  1  0
 20 19  2  0
 20 16  1  0
 21 23  1  0
 21 14  1  0
 22 21  2  0
 24 23  1  0
 24 35  1  0
 24 25  1  1
 26 25  1  0
 27 26  2  0
 28 27  1  0
 29 28  1  0
 29 34  2  0
 30 29  1  0
 31 30  2  0
 31 32  1  0
 32 33  2  0
 33 34  1  0
 34 26  1  0
 35 36  1  0
 37 35  2  0
M  END
$$$$
