YHW.pdb
     RDKit          3D

 37 40  0  0  1  0  0  0  0  0999 V2000
   17.6367  -22.9938  -14.5220 O   0  0  0  0  0  0  0  0  0  0  0  0
   18.5740  -21.9816  -14.4867 C   0  0  0  0  0  0  0  0  0  0  0  0
   18.5974  -20.9484  -15.3969 C   0  0  0  0  0  0  0  0  0  0  0  0
   19.5432  -19.9740  -15.3190 C   0  0  0  0  0  0  0  0  0  0  0  0
   20.5404  -19.9421  -14.3371 C   0  0  0  0  0  0  0  0  0  0  0  0
   21.5364  -18.8512  -14.3115 C   0  0  0  0  0  0  0  0  0  0  0  0
   22.4887  -18.9900  -15.4586 C   0  0  2  0  0  0  0  0  0  0  0  0
   23.3707  -20.1218  -15.2318 N   0  0  0  0  0  0  0  0  0  0  0  0
   23.2630  -17.7377  -15.6304 C   0  0  0  0  0  0  0  0  0  0  0  0
   24.2568  -17.4743  -14.8978 O   0  0  0  0  0  0  0  0  0  0  0  0
   20.5129  -20.9739  -13.4321 C   0  0  0  0  0  0  0  0  0  0  0  0
   19.5589  -21.9660  -13.5023 C   0  0  0  0  0  0  0  0  0  0  0  0
   22.9202  -16.7722  -16.6324 N   0  0  0  0  0  0  0  0  0  0  0  0
   23.7860  -15.5992  -16.8400 C   0  0  1  0  0  0  0  0  0  0  0  0
   24.0883  -15.5889  -18.3260 C   0  0  0  0  0  0  0  0  0  0  0  0
   25.2673  -16.4561  -18.6225 C   0  0  0  0  0  0  0  0  0  0  0  0
   26.0202  -17.1013  -17.6725 C   0  0  0  0  0  0  0  0  0  0  0  0
   27.0068  -17.8020  -18.2717 N   0  0  0  0  0  0  0  0  0  0  0  0
   26.8817  -17.6033  -19.5941 C   0  0  0  0  0  0  0  0  0  0  0  0
   25.8203  -16.7826  -19.8001 N   0  0  0  0  0  0  0  0  0  0  0  0
   23.0726  -14.3689  -16.4008 C   0  0  0  0  0  0  0  0  0  0  0  0
   21.8875  -14.1810  -16.7068 O   0  0  0  0  0  0  0  0  0  0  0  0
   23.7380  -13.3925  -15.6254 N   0  0  0  0  0  0  0  0  0  0  0  0
   23.1886  -12.0932  -15.2688 C   0  0  1  0  0  0  0  0  0  0  0  0
   24.0587  -11.3577  -14.3295 C   0  0  0  0  0  0  0  0  0  0  0  0
   23.5826  -10.0011  -14.0412 C   0  0  0  0  0  0  0  0  0  0  0  0
   22.6510   -9.6514  -13.0838 C   0  0  0  0  0  0  0  0  0  0  0  0
   22.4111   -8.3432  -13.1013 N   0  0  0  0  0  0  0  0  0  0  0  0
   23.1717   -7.7972  -14.0618 C   0  0  0  0  0  0  0  0  0  0  0  0
   23.3042   -6.4777  -14.4646 C   0  0  0  0  0  0  0  0  0  0  0  0
   24.1893   -6.1576  -15.4821 C   0  0  0  0  0  0  0  0  0  0  0  0
   24.9193   -7.1616  -16.0716 C   0  0  0  0  0  0  0  0  0  0  0  0
   24.7964   -8.4749  -15.6817 C   0  0  0  0  0  0  0  0  0  0  0  0
   23.9100   -8.7932  -14.6643 C   0  0  0  0  0  0  0  0  0  0  0  0
   22.7057  -11.3195  -16.3872 C   0  0  0  0  0  0  0  0  0  0  0  0
   23.5427  -11.2278  -17.5204 O   0  0  0  0  0  0  0  0  0  0  0  0
   21.6084  -10.7289  -16.4249 O   0  0  0  0  0  0  0  0  0  0  0  0
  2  1  1  0
  3  2  2  0
  4  3  1  0
  5  4  2  0
  5 11  1  0
  6  5  1  0
  7  9  1  0
  7  6  1  0
  7  8  1  1
  9 10  2  0
 11 12  2  0
 12  2  1  0
 13 14  1  0
 13  9  1  0
 14 15  1  6
 15 16  1  0
 16 17  2  0
 18 17  1  0
 19 18  1  0
 20 19  2  0
 20 16  1  0
 21 23  1  0
 21 14  1  0
 22 21  2  0
 24 23  1  0
 24 35  1  0
 24 25  1  6
 26 25  1  0
 27 26  2  0
 28 27  1  0
 29 28  1  0
 29 34  2  0
 30 29  1  0
 31 30  2  0
 31 32  1  0
 32 33  2  0
 33 34  1  0
 34 26  1  0
 35 36  1  0
 37 35  2  0
M  END
$$$$
