YHW.pdb
     RDKit          3D

 37 40  0  0  1  0  0  0  0  0999 V2000
   21.6352  -13.0774  -16.0998 O   0  0  0  0  0  0  0  0  0  0  0  0
   22.1362  -14.2817  -15.6495 C   0  0  0  0  0  0  0  0  0  0  0  0
   23.2233  -14.3752  -14.8091 C   0  0  0  0  0  0  0  0  0  0  0  0
   23.6790  -15.5874  -14.3933 C   0  0  0  0  0  0  0  0  0  0  0  0
   23.0982  -16.8030  -14.7738 C   0  0  0  0  0  0  0  0  0  0  0  0
   23.6453  -18.0844  -14.2826 C   0  0  0  0  0  0  0  0  0  0  0  0
   24.9462  -18.3876  -14.9592 C   0  0  2  0  0  0  0  0  0  0  0  0
   24.7206  -18.6288  -16.3738 N   0  0  0  0  0  0  0  0  0  0  0  0
   25.5928  -19.5564  -14.3163 C   0  0  0  0  0  0  0  0  0  0  0  0
   25.1577  -20.7279  -14.4943 O   0  0  0  0  0  0  0  0  0  0  0  0
   22.0150  -16.7048  -15.6113 C   0  0  0  0  0  0  0  0  0  0  0  0
   21.5455  -15.4814  -16.0383 C   0  0  0  0  0  0  0  0  0  0  0  0
   26.7375  -19.4103  -13.4666 N   0  0  0  0  0  0  0  0  0  0  0  0
   27.2909  -20.5902  -12.7810 C   0  0  1  0  0  0  0  0  0  0  0  0
   28.7427  -20.6549  -13.2149 C   0  0  0  0  0  0  0  0  0  0  0  0
   28.8362  -20.7778  -14.7002 C   0  0  0  0  0  0  0  0  0  0  0  0
   29.0338  -19.7252  -15.5596 C   0  0  0  0  0  0  0  0  0  0  0  0
   29.0722  -20.1766  -16.8317 N   0  0  0  0  0  0  0  0  0  0  0  0
   28.8999  -21.5076  -16.7810 C   0  0  0  0  0  0  0  0  0  0  0  0
   28.7568  -21.8665  -15.4797 N   0  0  0  0  0  0  0  0  0  0  0  0
   27.1490  -20.4239  -11.3087 C   0  0  0  0  0  0  0  0  0  0  0  0
   28.0125  -19.8258  -10.6531 O   0  0  0  0  0  0  0  0  0  0  0  0
   26.0232  -20.9472  -10.6334 N   0  0  0  0  0  0  0  0  0  0  0  0
   26.0375  -21.4900   -9.2835 C   0  0  1  0  0  0  0  0  0  0  0  0
   27.3662  -21.3761   -8.6498 C   0  0  0  0  0  0  0  0  0  0  0  0
   27.4455  -20.2951   -7.6621 C   0  0  0  0  0  0  0  0  0  0  0  0
   26.7556  -19.0997   -7.7063 C   0  0  0  0  0  0  0  0  0  0  0  0
   27.0786  -18.3197   -6.6785 N   0  0  0  0  0  0  0  0  0  0  0  0
   27.9823  -18.9729   -5.9330 C   0  0  0  0  0  0  0  0  0  0  0  0
   28.6141  -18.6046   -4.7557 C   0  0  0  0  0  0  0  0  0  0  0  0
   29.5054  -19.4791   -4.1539 C   0  0  0  0  0  0  0  0  0  0  0  0
   29.7436  -20.6982   -4.7418 C   0  0  0  0  0  0  0  0  0  0  0  0
   29.1237  -21.0752   -5.9104 C   0  0  0  0  0  0  0  0  0  0  0  0
   28.2331  -20.1989   -6.5111 C   0  0  0  0  0  0  0  0  0  0  0  0
   24.9295  -21.0726   -8.4582 C   0  0  0  0  0  0  0  0  0  0  0  0
   24.8172  -21.6608   -7.1797 O   0  0  0  0  0  0  0  0  0  0  0  0
   24.0686  -20.2345   -8.7909 O   0  0  0  0  0  0  0  0  0  0  0  0
  2  1  1  0
  3  2  2  0
  4  3  1  0
  5  4  2  0
  5 11  1  0
  6  5  1  0
  7  9  1  0
  7  6  1  0
  7  8  1  6
  9 10  2  0
 11 12  2  0
 12  2  1  0
 13 14  1  0
 13  9  1  0
 14 15  1  1
 15 16  1  0
 16 17  2  0
 18 17  1  0
 19 18  1  0
 20 19  2  0
 20 16  1  0
 21 23  1  0
 21 14  1  0
 22 21  2  0
 24 23  1  0
 24 35  1  0
 24 25  1  1
 26 25  1  0
 27 26  2  0
 28 27  1  0
 29 28  1  0
 29 34  2  0
 30 29  1  0
 31 30  2  0
 31 32  1  0
 32 33  2  0
 33 34  1  0
 34 26  1  0
 35 36  1  0
 37 35  2  0
M  END
$$$$
