YHW.pdb
     RDKit          3D

 37 40  0  0  1  0  0  0  0  0999 V2000
   22.1607  -22.7730  -21.5611 O   0  0  0  0  0  0  0  0  0  0  0  0
   22.6968  -22.9132  -20.2973 C   0  0  0  0  0  0  0  0  0  0  0  0
   23.3128  -21.8814  -19.6247 C   0  0  0  0  0  0  0  0  0  0  0  0
   23.8258  -22.0710  -18.3793 C   0  0  0  0  0  0  0  0  0  0  0  0
   23.7716  -23.2935  -17.6994 C   0  0  0  0  0  0  0  0  0  0  0  0
   24.3491  -23.4280  -16.3462 C   0  0  0  0  0  0  0  0  0  0  0  0
   25.8447  -23.4088  -16.4152 C   0  0  2  0  0  0  0  0  0  0  0  0
   26.3249  -24.6372  -17.0242 N   0  0  0  0  0  0  0  0  0  0  0  0
   26.4136  -23.2298  -15.0581 C   0  0  0  0  0  0  0  0  0  0  0  0
   26.4500  -24.1821  -14.2303 O   0  0  0  0  0  0  0  0  0  0  0  0
   23.1566  -24.3188  -18.3738 C   0  0  0  0  0  0  0  0  0  0  0  0
   22.6336  -24.1371  -19.6358 C   0  0  0  0  0  0  0  0  0  0  0  0
   26.9464  -21.9718  -14.6253 N   0  0  0  0  0  0  0  0  0  0  0  0
   27.4804  -21.8382  -13.2594 C   0  0  1  0  0  0  0  0  0  0  0  0
   28.4276  -20.6554  -13.3191 C   0  0  0  0  0  0  0  0  0  0  0  0
   27.7034  -19.4323  -13.7767 C   0  0  0  0  0  0  0  0  0  0  0  0
   26.3710  -19.3917  -14.1066 C   0  0  0  0  0  0  0  0  0  0  0  0
   26.0311  -18.1382  -14.4762 N   0  0  0  0  0  0  0  0  0  0  0  0
   27.1405  -17.3869  -14.3819 C   0  0  0  0  0  0  0  0  0  0  0  0
   28.1548  -18.1818  -13.9554 N   0  0  0  0  0  0  0  0  0  0  0  0
   26.3598  -21.6161  -12.3053 C   0  0  0  0  0  0  0  0  0  0  0  0
   25.2098  -21.4113  -12.7162 O   0  0  0  0  0  0  0  0  0  0  0  0
   26.5908  -21.6354  -10.9112 N   0  0  0  0  0  0  0  0  0  0  0  0
   25.5543  -21.5647   -9.8924 C   0  0  1  0  0  0  0  0  0  0  0  0
   26.1032  -21.6915   -8.5276 C   0  0  0  0  0  0  0  0  0  0  0  0
   26.5283  -20.4109   -7.9535 C   0  0  0  0  0  0  0  0  0  0  0  0
   26.0218  -19.1669   -8.2740 C   0  0  0  0  0  0  0  0  0  0  0  0
   26.6480  -18.2049   -7.6018 N   0  0  0  0  0  0  0  0  0  0  0  0
   27.5767  -18.7820   -6.8249 C   0  0  0  0  0  0  0  0  0  0  0  0
   28.4726  -18.2241   -5.9267 C   0  0  0  0  0  0  0  0  0  0  0  0
   29.3295  -19.0474   -5.2129 C   0  0  0  0  0  0  0  0  0  0  0  0
   29.2707  -20.4055   -5.4136 C   0  0  0  0  0  0  0  0  0  0  0  0
   28.3869  -20.9715   -6.3027 C   0  0  0  0  0  0  0  0  0  0  0  0
   27.5312  -20.1463   -7.0161 C   0  0  0  0  0  0  0  0  0  0  0  0
   24.6092  -20.4890  -10.0729 C   0  0  0  0  0  0  0  0  0  0  0  0
   23.3772  -20.5885   -9.3908 O   0  0  0  0  0  0  0  0  0  0  0  0
   24.8010  -19.4832  -10.7843 O   0  0  0  0  0  0  0  0  0  0  0  0
  2  1  1  0
  3  2  2  0
  4  3  1  0
  5  4  2  0
  5 11  1  0
  6  5  1  0
  7  9  1  0
  7  6  1  0
  7  8  1  1
  9 10  2  0
 11 12  2  0
 12  2  1  0
 13 14  1  0
 13  9  1  0
 14 15  1  6
 15 16  1  0
 16 17  2  0
 18 17  1  0
 19 18  1  0
 20 19  2  0
 20 16  1  0
 21 23  1  0
 21 14  1  0
 22 21  2  0
 24 23  1  0
 24 35  1  0
 24 25  1  1
 26 25  1  0
 27 26  2  0
 28 27  1  0
 29 28  1  0
 29 34  2  0
 30 29  1  0
 31 30  2  0
 31 32  1  0
 32 33  2  0
 33 34  1  0
 34 26  1  0
 35 36  1  0
 37 35  2  0
M  END
$$$$
