YHW.pdb
     RDKit          3D

 37 40  0  0  1  0  0  0  0  0999 V2000
   12.7448  -13.0323  -16.7242 O   0  0  0  0  0  0  0  0  0  0  0  0
   13.6227  -12.0106  -16.4248 C   0  0  0  0  0  0  0  0  0  0  0  0
   13.5145  -11.2361  -15.2913 C   0  0  0  0  0  0  0  0  0  0  0  0
   14.4064  -10.2399  -15.0417 C   0  0  0  0  0  0  0  0  0  0  0  0
   15.4752   -9.9294  -15.8906 C   0  0  0  0  0  0  0  0  0  0  0  0
   16.4077   -8.8333  -15.5562 C   0  0  0  0  0  0  0  0  0  0  0  0
   17.7515   -9.3862  -15.1949 C   0  0  2  0  0  0  0  0  0  0  0  0
   17.6519  -10.1598  -13.9694 N   0  0  0  0  0  0  0  0  0  0  0  0
   18.7321   -8.2840  -15.0503 C   0  0  0  0  0  0  0  0  0  0  0  0
   18.7945   -7.5946  -13.9946 O   0  0  0  0  0  0  0  0  0  0  0  0
   15.5791  -10.7042  -17.0190 C   0  0  0  0  0  0  0  0  0  0  0  0
   14.6806  -11.7159  -17.2812 C   0  0  0  0  0  0  0  0  0  0  0  0
   19.6510   -7.9518  -16.0986 N   0  0  0  0  0  0  0  0  0  0  0  0
   20.6321   -6.8731  -15.8925 C   0  0  1  0  0  0  0  0  0  0  0  0
   21.8586   -7.2991  -16.6763 C   0  0  0  0  0  0  0  0  0  0  0  0
   22.5556   -8.4219  -15.9810 C   0  0  0  0  0  0  0  0  0  0  0  0
   22.1987   -8.9207  -14.7524 C   0  0  0  0  0  0  0  0  0  0  0  0
   23.0281   -9.9305  -14.4122 N   0  0  0  0  0  0  0  0  0  0  0  0
   23.9066  -10.0725  -15.4182 C   0  0  0  0  0  0  0  0  0  0  0  0
   23.6126   -9.1503  -16.3699 N   0  0  0  0  0  0  0  0  0  0  0  0
   20.0683   -5.5857  -16.3826 C   0  0  0  0  0  0  0  0  0  0  0  0
   19.3797   -5.5470  -17.4111 O   0  0  0  0  0  0  0  0  0  0  0  0
   20.3104   -4.3835  -15.6803 N   0  0  0  0  0  0  0  0  0  0  0  0
   19.7701   -3.0820  -16.0425 C   0  0  1  0  0  0  0  0  0  0  0  0
   19.5086   -2.2370  -14.8602 C   0  0  0  0  0  0  0  0  0  0  0  0
   18.8429   -0.9724  -15.1885 C   0  0  0  0  0  0  0  0  0  0  0  0
   17.4799   -0.7672  -15.2707 C   0  0  0  0  0  0  0  0  0  0  0  0
   17.2024    0.4843  -15.6256 N   0  0  0  0  0  0  0  0  0  0  0  0
   18.3644    1.1350  -15.7853 C   0  0  0  0  0  0  0  0  0  0  0  0
   18.6185    2.4535  -16.1285 C   0  0  0  0  0  0  0  0  0  0  0  0
   19.9282    2.9009  -16.2066 C   0  0  0  0  0  0  0  0  0  0  0  0
   20.9503    2.0219  -15.9405 C   0  0  0  0  0  0  0  0  0  0  0  0
   20.7115    0.7108  -15.5997 C   0  0  0  0  0  0  0  0  0  0  0  0
   19.4009    0.2650  -15.5229 C   0  0  0  0  0  0  0  0  0  0  0  0
   20.4664   -2.4234  -17.1216 C   0  0  0  0  0  0  0  0  0  0  0  0
   19.6890   -1.6762  -18.0330 O   0  0  0  0  0  0  0  0  0  0  0  0
   21.6985   -2.4666  -17.3065 O   0  0  0  0  0  0  0  0  0  0  0  0
  2  1  1  0
  3  2  2  0
  4  3  1  0
  5  4  2  0
  5 11  1  0
  6  5  1  0
  7  9  1  0
  7  6  1  0
  7  8  1  1
  9 10  2  0
 11 12  2  0
 12  2  1  0
 13 14  1  0
 13  9  1  0
 14 15  1  6
 15 16  1  0
 16 17  2  0
 18 17  1  0
 19 18  1  0
 20 19  2  0
 20 16  1  0
 21 23  1  0
 21 14  1  0
 22 21  2  0
 24 23  1  0
 24 35  1  0
 24 25  1  1
 26 25  1  0
 27 26  2  0
 28 27  1  0
 29 28  1  0
 29 34  2  0
 30 29  1  0
 31 30  2  0
 31 32  1  0
 32 33  2  0
 33 34  1  0
 34 26  1  0
 35 36  1  0
 37 35  2  0
M  END
$$$$
