YHW.pdb
     RDKit          3D

 37 40  0  0  1  0  0  0  0  0999 V2000
   32.7798  -17.6533  -20.4598 O   0  0  0  0  0  0  0  0  0  0  0  0
   31.7508  -17.5113  -19.5513 C   0  0  0  0  0  0  0  0  0  0  0  0
   31.4885  -16.3306  -18.8929 C   0  0  0  0  0  0  0  0  0  0  0  0
   30.4612  -16.2421  -18.0057 C   0  0  0  0  0  0  0  0  0  0  0  0
   29.6119  -17.3115  -17.6982 C   0  0  0  0  0  0  0  0  0  0  0  0
   28.5137  -17.1440  -16.7242 C   0  0  0  0  0  0  0  0  0  0  0  0
   27.1882  -17.2879  -17.4056 C   0  0  2  0  0  0  0  0  0  0  0  0
   26.9152  -16.1062  -18.2052 N   0  0  0  0  0  0  0  0  0  0  0  0
   26.1215  -17.5084  -16.4002 C   0  0  0  0  0  0  0  0  0  0  0  0
   25.8146  -16.6160  -15.5617 O   0  0  0  0  0  0  0  0  0  0  0  0
   29.8771  -18.4862  -18.3571 C   0  0  0  0  0  0  0  0  0  0  0  0
   30.9155  -18.5863  -19.2578 C   0  0  0  0  0  0  0  0  0  0  0  0
   25.3923  -18.7403  -16.3343 N   0  0  0  0  0  0  0  0  0  0  0  0
   24.3324  -18.9063  -15.3255 C   0  0  1  0  0  0  0  0  0  0  0  0
   23.0318  -18.7378  -16.0870 C   0  0  0  0  0  0  0  0  0  0  0  0
   22.8344  -17.3076  -16.4684 C   0  0  0  0  0  0  0  0  0  0  0  0
   22.2074  -16.3702  -15.6849 C   0  0  0  0  0  0  0  0  0  0  0  0
   22.1982  -15.1784  -16.3195 N   0  0  0  0  0  0  0  0  0  0  0  0
   22.8153  -15.3572  -17.4990 C   0  0  0  0  0  0  0  0  0  0  0  0
   23.1999  -16.6563  -17.5827 N   0  0  0  0  0  0  0  0  0  0  0  0
   24.4482  -20.2506  -14.6970 C   0  0  0  0  0  0  0  0  0  0  0  0
   24.7355  -21.2447  -15.3771 O   0  0  0  0  0  0  0  0  0  0  0  0
   24.2314  -20.4146  -13.3102 N   0  0  0  0  0  0  0  0  0  0  0  0
   23.9041  -21.6744  -12.6598 C   0  0  1  0  0  0  0  0  0  0  0  0
   24.9348  -22.0841  -11.6852 C   0  0  0  0  0  0  0  0  0  0  0  0
   25.0578  -21.1625  -10.5512 C   0  0  0  0  0  0  0  0  0  0  0  0
   24.0161  -20.5484   -9.8845 C   0  0  0  0  0  0  0  0  0  0  0  0
   24.4665  -19.7433   -8.9262 N   0  0  0  0  0  0  0  0  0  0  0  0
   25.8065  -19.8035   -8.9329 C   0  0  0  0  0  0  0  0  0  0  0  0
   26.7403  -19.1735   -8.1255 C   0  0  0  0  0  0  0  0  0  0  0  0
   28.0905  -19.4216   -8.3177 C   0  0  0  0  0  0  0  0  0  0  0  0
   28.4743  -20.2913   -9.3099 C   0  0  0  0  0  0  0  0  0  0  0  0
   27.5575  -20.9221  -10.1184 C   0  0  0  0  0  0  0  0  0  0  0  0
   26.2076  -20.6722   -9.9252 C   0  0  0  0  0  0  0  0  0  0  0  0
   22.5440  -21.7685  -12.1861 C   0  0  0  0  0  0  0  0  0  0  0  0
   22.0440  -23.0587  -11.9060 O   0  0  0  0  0  0  0  0  0  0  0  0
   21.7825  -20.7977  -12.0075 O   0  0  0  0  0  0  0  0  0  0  0  0
  2  1  1  0
  3  2  2  0
  4  3  1  0
  5  4  2  0
  5 11  1  0
  6  5  1  0
  7  9  1  0
  7  6  1  0
  7  8  1  1
  9 10  2  0
 11 12  2  0
 12  2  1  0
 13 14  1  0
 13  9  1  0
 14 15  1  6
 15 16  1  0
 16 17  2  0
 18 17  1  0
 19 18  1  0
 20 19  2  0
 20 16  1  0
 21 23  1  0
 21 14  1  0
 22 21  2  0
 24 23  1  0
 24 35  1  0
 24 25  1  1
 26 25  1  0
 27 26  2  0
 28 27  1  0
 29 28  1  0
 29 34  2  0
 30 29  1  0
 31 30  2  0
 31 32  1  0
 32 33  2  0
 33 34  1  0
 34 26  1  0
 35 36  1  0
 37 35  2  0
M  END
$$$$
