YHW.pdb
     RDKit          3D

 37 40  0  0  1  0  0  0  0  0999 V2000
   30.2478  -20.0057   -3.4707 O   0  0  0  0  0  0  0  0  0  0  0  0
   29.3607  -20.0940   -4.5240 C   0  0  0  0  0  0  0  0  0  0  0  0
   28.6246  -19.0219   -4.9772 C   0  0  0  0  0  0  0  0  0  0  0  0
   27.7626  -19.1610   -6.0202 C   0  0  0  0  0  0  0  0  0  0  0  0
   27.5589  -20.3686   -6.6982 C   0  0  0  0  0  0  0  0  0  0  0  0
   26.6065  -20.4474   -7.8249 C   0  0  0  0  0  0  0  0  0  0  0  0
   27.3368  -20.7108   -9.1052 C   0  0  2  0  0  0  0  0  0  0  0  0
   28.5485  -19.9109   -9.1541 N   0  0  0  0  0  0  0  0  0  0  0  0
   26.4573  -20.4160  -10.2615 C   0  0  0  0  0  0  0  0  0  0  0  0
   26.0756  -19.2394  -10.5132 O   0  0  0  0  0  0  0  0  0  0  0  0
   28.2949  -21.4343   -6.2430 C   0  0  0  0  0  0  0  0  0  0  0  0
   29.1709  -21.3038   -5.1871 C   0  0  0  0  0  0  0  0  0  0  0  0
   26.0020  -21.4496  -11.1436 N   0  0  0  0  0  0  0  0  0  0  0  0
   25.2157  -21.0945  -12.3370 C   0  0  1  0  0  0  0  0  0  0  0  0
   25.7230  -22.0127  -13.4323 C   0  0  0  0  0  0  0  0  0  0  0  0
   26.8241  -21.3528  -14.1951 C   0  0  0  0  0  0  0  0  0  0  0  0
   27.3212  -20.1019  -13.9234 C   0  0  0  0  0  0  0  0  0  0  0  0
   28.3091  -19.8050  -14.7947 N   0  0  0  0  0  0  0  0  0  0  0  0
   28.4390  -20.8605  -15.6151 C   0  0  0  0  0  0  0  0  0  0  0  0
   27.5313  -21.7990  -15.2439 N   0  0  0  0  0  0  0  0  0  0  0  0
   23.7675  -21.2954  -12.0581 C   0  0  0  0  0  0  0  0  0  0  0  0
   23.3735  -22.2983  -11.4480 O   0  0  0  0  0  0  0  0  0  0  0  0
   22.8160  -20.3422  -12.4863 N   0  0  0  0  0  0  0  0  0  0  0  0
   21.3751  -20.4740  -12.3328 C   0  0  1  0  0  0  0  0  0  0  0  0
   20.7305  -19.1912  -11.9880 C   0  0  0  0  0  0  0  0  0  0  0  0
   19.2721  -19.2895  -11.8710 C   0  0  0  0  0  0  0  0  0  0  0  0
   18.5619  -19.5143  -10.7083 C   0  0  0  0  0  0  0  0  0  0  0  0
   17.2556  -19.5854  -10.9487 N   0  0  0  0  0  0  0  0  0  0  0  0
   17.0684  -19.4099  -12.2652 C   0  0  0  0  0  0  0  0  0  0  0  0
   15.9016  -19.3765  -13.0124 C   0  0  0  0  0  0  0  0  0  0  0  0
   15.9691  -19.1518  -14.3786 C   0  0  0  0  0  0  0  0  0  0  0  0
   17.1983  -18.9664  -14.9641 C   0  0  0  0  0  0  0  0  0  0  0  0
   18.3636  -18.9981  -14.2340 C   0  0  0  0  0  0  0  0  0  0  0  0
   18.2941  -19.2238  -12.8678 C   0  0  0  0  0  0  0  0  0  0  0  0
   20.7264  -21.2203  -13.3841 C   0  0  0  0  0  0  0  0  0  0  0  0
   19.7428  -22.1575  -13.0005 O   0  0  0  0  0  0  0  0  0  0  0  0
   20.9707  -21.0979  -14.6005 O   0  0  0  0  0  0  0  0  0  0  0  0
  2  1  1  0
  3  2  2  0
  4  3  1  0
  5  4  2  0
  5 11  1  0
  6  5  1  0
  7  9  1  0
  7  6  1  0
  7  8  1  6
  9 10  2  0
 11 12  2  0
 12  2  1  0
 13 14  1  0
 13  9  1  0
 14 15  1  6
 15 16  1  0
 16 17  2  0
 18 17  1  0
 19 18  1  0
 20 19  2  0
 20 16  1  0
 21 23  1  0
 21 14  1  0
 22 21  2  0
 24 23  1  0
 24 35  1  0
 24 25  1  6
 26 25  1  0
 27 26  2  0
 28 27  1  0
 29 28  1  0
 29 34  2  0
 30 29  1  0
 31 30  2  0
 31 32  1  0
 32 33  2  0
 33 34  1  0
 34 26  1  0
 35 36  1  0
 37 35  2  0
M  END
$$$$
