YHW.pdb
     RDKit          3D

 37 40  0  0  1  0  0  0  0  0999 V2000
   23.3327    3.9926  -16.8576 O   0  0  0  0  0  0  0  0  0  0  0  0
   22.9047    2.6815  -16.8119 C   0  0  0  0  0  0  0  0  0  0  0  0
   21.7298    2.2550  -17.3901 C   0  0  0  0  0  0  0  0  0  0  0  0
   21.3521    0.9503  -17.3169 C   0  0  0  0  0  0  0  0  0  0  0  0
   22.1035   -0.0362  -16.6677 C   0  0  0  0  0  0  0  0  0  0  0  0
   21.6327   -1.4361  -16.6280 C   0  0  0  0  0  0  0  0  0  0  0  0
   22.3781   -2.2636  -17.6289 C   0  0  2  0  0  0  0  0  0  0  0  0
   22.0307   -1.8396  -18.9742 N   0  0  0  0  0  0  0  0  0  0  0  0
   22.0732   -3.7003  -17.4280 C   0  0  0  0  0  0  0  0  0  0  0  0
   21.0252   -4.2216  -17.9008 O   0  0  0  0  0  0  0  0  0  0  0  0
   23.2737    0.3936  -16.0931 C   0  0  0  0  0  0  0  0  0  0  0  0
   23.6654    1.7132  -16.1615 C   0  0  0  0  0  0  0  0  0  0  0  0
   22.9511   -4.5601  -16.6908 N   0  0  0  0  0  0  0  0  0  0  0  0
   22.6050   -5.9813  -16.5203 C   0  0  1  0  0  0  0  0  0  0  0  0
   23.9335   -6.6958  -16.3641 C   0  0  0  0  0  0  0  0  0  0  0  0
   23.7184   -8.1659  -16.2138 C   0  0  0  0  0  0  0  0  0  0  0  0
   22.5126   -8.7999  -16.3865 C   0  0  0  0  0  0  0  0  0  0  0  0
   22.6615  -10.1261  -16.1801 N   0  0  0  0  0  0  0  0  0  0  0  0
   23.9537  -10.3334  -15.8781 C   0  0  0  0  0  0  0  0  0  0  0  0
   24.5910   -9.1352  -15.9004 N   0  0  0  0  0  0  0  0  0  0  0  0
   21.7336   -6.1424  -15.3244 C   0  0  0  0  0  0  0  0  0  0  0  0
   22.0857   -5.7043  -14.2210 O   0  0  0  0  0  0  0  0  0  0  0  0
   20.4870   -6.7998  -15.4290 N   0  0  0  0  0  0  0  0  0  0  0  0
   19.4735   -6.8382  -14.3858 C   0  0  1  0  0  0  0  0  0  0  0  0
   18.1470   -6.4183  -14.8800 C   0  0  0  0  0  0  0  0  0  0  0  0
   17.4782   -7.4449  -15.6858 C   0  0  0  0  0  0  0  0  0  0  0  0
   17.1421   -8.7172  -15.2675 C   0  0  0  0  0  0  0  0  0  0  0  0
   16.5788   -9.4137  -16.2509 N   0  0  0  0  0  0  0  0  0  0  0  0
   16.5269   -8.6271  -17.3361 C   0  0  0  0  0  0  0  0  0  0  0  0
   16.0189   -8.8717  -18.6022 C   0  0  0  0  0  0  0  0  0  0  0  0
   16.0607   -7.8724  -19.5620 C   0  0  0  0  0  0  0  0  0  0  0  0
   16.6081   -6.6553  -19.2343 C   0  0  0  0  0  0  0  0  0  0  0  0
   17.1164   -6.4003  -17.9818 C   0  0  0  0  0  0  0  0  0  0  0  0
   17.0743   -7.4012  -17.0235 C   0  0  0  0  0  0  0  0  0  0  0  0
   19.4759   -8.0436  -13.5922 C   0  0  0  0  0  0  0  0  0  0  0  0
   18.9379   -7.9621  -12.2895 O   0  0  0  0  0  0  0  0  0  0  0  0
   19.9167   -9.1463  -13.9718 O   0  0  0  0  0  0  0  0  0  0  0  0
  2  1  1  0
  3  2  2  0
  4  3  1  0
  5  4  2  0
  5 11  1  0
  6  5  1  0
  7  9  1  0
  7  6  1  0
  7  8  1  6
  9 10  2  0
 11 12  2  0
 12  2  1  0
 13 14  1  0
 13  9  1  0
 14 15  1  1
 15 16  1  0
 16 17  2  0
 18 17  1  0
 19 18  1  0
 20 19  2  0
 20 16  1  0
 21 23  1  0
 21 14  1  0
 22 21  2  0
 24 23  1  0
 24 35  1  0
 24 25  1  6
 26 25  1  0
 27 26  2  0
 28 27  1  0
 29 28  1  0
 29 34  2  0
 30 29  1  0
 31 30  2  0
 31 32  1  0
 32 33  2  0
 33 34  1  0
 34 26  1  0
 35 36  1  0
 37 35  2  0
M  END
$$$$
