YHW.pdb
     RDKit          3D

 37 40  0  0  1  0  0  0  0  0999 V2000
   16.1048  -20.4337  -11.5141 O   0  0  0  0  0  0  0  0  0  0  0  0
   17.3932  -20.6729  -11.9468 C   0  0  0  0  0  0  0  0  0  0  0  0
   18.2753  -21.4824  -11.2662 C   0  0  0  0  0  0  0  0  0  0  0  0
   19.5358  -21.6863  -11.7350 C   0  0  0  0  0  0  0  0  0  0  0  0
   20.0253  -21.1079  -12.9119 C   0  0  0  0  0  0  0  0  0  0  0  0
   21.4067  -21.3742  -13.3630 C   0  0  0  0  0  0  0  0  0  0  0  0
   21.4064  -22.3810  -14.4714 C   0  0  2  0  0  0  0  0  0  0  0  0
   21.0104  -23.6802  -13.9559 N   0  0  0  0  0  0  0  0  0  0  0  0
   22.7471  -22.4441  -15.1006 C   0  0  0  0  0  0  0  0  0  0  0  0
   23.7520  -22.8673  -14.4644 O   0  0  0  0  0  0  0  0  0  0  0  0
   19.1424  -20.3021  -13.5869 C   0  0  0  0  0  0  0  0  0  0  0  0
   17.8632  -20.0889  -13.1204 C   0  0  0  0  0  0  0  0  0  0  0  0
   22.9631  -22.0292  -16.4552 N   0  0  0  0  0  0  0  0  0  0  0  0
   24.3170  -22.0963  -17.0304 C   0  0  1  0  0  0  0  0  0  0  0  0
   24.1132  -22.5149  -18.4737 C   0  0  0  0  0  0  0  0  0  0  0  0
   23.9019  -23.9905  -18.5620 C   0  0  0  0  0  0  0  0  0  0  0  0
   24.2806  -24.8922  -17.5980 C   0  0  0  0  0  0  0  0  0  0  0  0
   23.9434  -26.1412  -17.9848 N   0  0  0  0  0  0  0  0  0  0  0  0
   23.3543  -26.0340  -19.1871 C   0  0  0  0  0  0  0  0  0  0  0  0
   23.3327  -24.7213  -19.5321 N   0  0  0  0  0  0  0  0  0  0  0  0
   24.9739  -20.7655  -16.9163 C   0  0  0  0  0  0  0  0  0  0  0  0
   24.2986  -19.7293  -16.8565 O   0  0  0  0  0  0  0  0  0  0  0  0
   26.3827  -20.6627  -16.8742 N   0  0  0  0  0  0  0  0  0  0  0  0
   27.1240  -19.4248  -16.6865 C   0  0  1  0  0  0  0  0  0  0  0  0
   26.7376  -18.7251  -15.4450 C   0  0  0  0  0  0  0  0  0  0  0  0
   27.1246  -19.4476  -14.2291 C   0  0  0  0  0  0  0  0  0  0  0  0
   28.3984  -19.8697  -13.9036 C   0  0  0  0  0  0  0  0  0  0  0  0
   28.4061  -20.5291  -12.7484 N   0  0  0  0  0  0  0  0  0  0  0  0
   27.1486  -20.5596  -12.2825 C   0  0  0  0  0  0  0  0  0  0  0  0
   26.6329  -21.1043  -11.1172 C   0  0  0  0  0  0  0  0  0  0  0  0
   25.2793  -20.9822  -10.8443 C   0  0  0  0  0  0  0  0  0  0  0  0
   24.4753  -20.3203  -11.7408 C   0  0  0  0  0  0  0  0  0  0  0  0
   24.9746  -19.7761  -12.9012 C   0  0  0  0  0  0  0  0  0  0  0  0
   26.3285  -19.8999  -13.1727 C   0  0  0  0  0  0  0  0  0  0  0  0
   28.5460  -19.5388  -16.9058 C   0  0  0  0  0  0  0  0  0  0  0  0
   29.2773  -18.3396  -17.0472 O   0  0  0  0  0  0  0  0  0  0  0  0
   29.1721  -20.6144  -16.9791 O   0  0  0  0  0  0  0  0  0  0  0  0
  2  1  1  0
  3  2  2  0
  4  3  1  0
  5  4  2  0
  5 11  1  0
  6  5  1  0
  7  9  1  0
  7  6  1  0
  7  8  1  1
  9 10  2  0
 11 12  2  0
 12  2  1  0
 13 14  1  0
 13  9  1  0
 14 15  1  6
 15 16  1  0
 16 17  2  0
 18 17  1  0
 19 18  1  0
 20 19  2  0
 20 16  1  0
 21 23  1  0
 21 14  1  0
 22 21  2  0
 24 23  1  0
 24 35  1  0
 24 25  1  1
 26 25  1  0
 27 26  2  0
 28 27  1  0
 29 28  1  0
 29 34  2  0
 30 29  1  0
 31 30  2  0
 31 32  1  0
 32 33  2  0
 33 34  1  0
 34 26  1  0
 35 36  1  0
 37 35  2  0
M  END
$$$$
