YHW.pdb
     RDKit          3D

 37 40  0  0  1  0  0  0  0  0999 V2000
   39.3313  -18.0763  -24.5849 O   0  0  0  0  0  0  0  0  0  0  0  0
   38.1396  -18.7282  -24.8282 C   0  0  0  0  0  0  0  0  0  0  0  0
   36.9600  -18.0651  -25.0836 C   0  0  0  0  0  0  0  0  0  0  0  0
   35.8110  -18.7545  -25.3175 C   0  0  0  0  0  0  0  0  0  0  0  0
   35.7352  -20.1522  -25.3177 C   0  0  0  0  0  0  0  0  0  0  0  0
   34.4523  -20.8361  -25.5809 C   0  0  0  0  0  0  0  0  0  0  0  0
   33.6036  -20.8415  -24.3474 C   0  0  2  0  0  0  0  0  0  0  0  0
   34.2218  -21.6720  -23.3284 N   0  0  0  0  0  0  0  0  0  0  0  0
   32.2396  -21.3232  -24.6714 C   0  0  0  0  0  0  0  0  0  0  0  0
   31.8829  -22.5067  -24.4151 O   0  0  0  0  0  0  0  0  0  0  0  0
   36.9135  -20.8088  -25.0628 C   0  0  0  0  0  0  0  0  0  0  0  0
   38.0830  -20.1197  -24.8246 C   0  0  0  0  0  0  0  0  0  0  0  0
   31.2669  -20.4704  -25.2881 N   0  0  0  0  0  0  0  0  0  0  0  0
   29.8826  -20.9448  -25.4531 C   0  0  1  0  0  0  0  0  0  0  0  0
   29.3540  -21.1204  -24.0425 C   0  0  0  0  0  0  0  0  0  0  0  0
   27.9256  -21.5548  -24.0731 C   0  0  0  0  0  0  0  0  0  0  0  0
   27.1893  -21.7360  -25.2180 C   0  0  0  0  0  0  0  0  0  0  0  0
   25.9387  -22.1319  -24.8975 N   0  0  0  0  0  0  0  0  0  0  0  0
   25.8807  -22.2018  -23.5575 C   0  0  0  0  0  0  0  0  0  0  0  0
   27.0943  -21.8488  -23.0624 N   0  0  0  0  0  0  0  0  0  0  0  0
   29.1010  -19.9426  -26.2279 C   0  0  0  0  0  0  0  0  0  0  0  0
   28.9918  -18.7766  -25.8256 O   0  0  0  0  0  0  0  0  0  0  0  0
   28.4690  -20.3066  -27.4384 N   0  0  0  0  0  0  0  0  0  0  0  0
   27.7772  -19.3865  -28.3283 C   0  0  1  0  0  0  0  0  0  0  0  0
   27.9274  -19.7635  -29.7480 C   0  0  0  0  0  0  0  0  0  0  0  0
   26.7989  -20.5468  -30.2612 C   0  0  0  0  0  0  0  0  0  0  0  0
   25.5727  -20.0474  -30.6533 C   0  0  0  0  0  0  0  0  0  0  0  0
   24.7551  -21.0247  -31.0349 N   0  0  0  0  0  0  0  0  0  0  0  0
   25.4133  -22.1865  -30.9075 C   0  0  0  0  0  0  0  0  0  0  0  0
   25.0144  -23.4833  -31.1901 C   0  0  0  0  0  0  0  0  0  0  0  0
   25.9006  -24.5309  -30.9934 C   0  0  0  0  0  0  0  0  0  0  0  0
   27.1614  -24.2581  -30.5199 C   0  0  0  0  0  0  0  0  0  0  0  0
   27.5692  -22.9757  -30.2347 C   0  0  0  0  0  0  0  0  0  0  0  0
   26.6812  -21.9294  -30.4314 C   0  0  0  0  0  0  0  0  0  0  0  0
   26.4316  -19.0585  -27.9227 C   0  0  0  0  0  0  0  0  0  0  0  0
   25.9359  -17.7888  -28.2906 O   0  0  0  0  0  0  0  0  0  0  0  0
   25.6789  -19.8115  -27.2739 O   0  0  0  0  0  0  0  0  0  0  0  0
  2  1  1  0
  3  2  2  0
  4  3  1  0
  5  4  2  0
  5 11  1  0
  6  5  1  0
  7  9  1  0
  7  6  1  0
  7  8  1  1
  9 10  2  0
 11 12  2  0
 12  2  1  0
 13 14  1  0
 13  9  1  0
 14 15  1  1
 15 16  1  0
 16 17  2  0
 18 17  1  0
 19 18  1  0
 20 19  2  0
 20 16  1  0
 21 23  1  0
 21 14  1  0
 22 21  2  0
 24 23  1  0
 24 35  1  0
 24 25  1  6
 26 25  1  0
 27 26  2  0
 28 27  1  0
 29 28  1  0
 29 34  2  0
 30 29  1  0
 31 30  2  0
 31 32  1  0
 32 33  2  0
 33 34  1  0
 34 26  1  0
 35 36  1  0
 37 35  2  0
M  END
$$$$
