YHW.pdb
     RDKit          3D

 37 40  0  0  1  0  0  0  0  0999 V2000
   20.7598  -27.2487  -17.7994 O   0  0  0  0  0  0  0  0  0  0  0  0
   21.7198  -26.5955  -17.0538 C   0  0  0  0  0  0  0  0  0  0  0  0
   22.9432  -27.1516  -16.7527 C   0  0  0  0  0  0  0  0  0  0  0  0
   23.8560  -26.4658  -16.0134 C   0  0  0  0  0  0  0  0  0  0  0  0
   23.6339  -25.1775  -15.5129 C   0  0  0  0  0  0  0  0  0  0  0  0
   24.6718  -24.4903  -14.7171 C   0  0  0  0  0  0  0  0  0  0  0  0
   25.1671  -23.2788  -15.4443 C   0  0  2  0  0  0  0  0  0  0  0  0
   25.9117  -23.6833  -16.6243 N   0  0  0  0  0  0  0  0  0  0  0  0
   26.0055  -22.4528  -14.5431 C   0  0  0  0  0  0  0  0  0  0  0  0
   27.2080  -22.7542  -14.3053 O   0  0  0  0  0  0  0  0  0  0  0  0
   22.4133  -24.6273  -15.8158 C   0  0  0  0  0  0  0  0  0  0  0  0
   21.4815  -25.3138  -16.5641 C   0  0  0  0  0  0  0  0  0  0  0  0
   25.4911  -21.2784  -13.9030 N   0  0  0  0  0  0  0  0  0  0  0  0
   26.3050  -20.5852  -12.8902 C   0  0  1  0  0  0  0  0  0  0  0  0
   26.3729  -19.1437  -13.3565 C   0  0  0  0  0  0  0  0  0  0  0  0
   27.1844  -19.0392  -14.6057 C   0  0  0  0  0  0  0  0  0  0  0  0
   28.5562  -19.0817  -14.6511 C   0  0  0  0  0  0  0  0  0  0  0  0
   28.9736  -18.9630  -15.9298 N   0  0  0  0  0  0  0  0  0  0  0  0
   27.8740  -18.8456  -16.6921 C   0  0  0  0  0  0  0  0  0  0  0  0
   26.7883  -18.8928  -15.8788 N   0  0  0  0  0  0  0  0  0  0  0  0
   25.6588  -20.7167  -11.5558 C   0  0  0  0  0  0  0  0  0  0  0  0
   24.4588  -20.4514  -11.4046 O   0  0  0  0  0  0  0  0  0  0  0  0
   26.4066  -21.1475  -10.4366 N   0  0  0  0  0  0  0  0  0  0  0  0
   25.9265  -21.1505   -9.0630 C   0  0  1  0  0  0  0  0  0  0  0  0
   26.9894  -21.5029   -8.1006 C   0  0  0  0  0  0  0  0  0  0  0  0
   27.5194  -20.3446   -7.3742 C   0  0  0  0  0  0  0  0  0  0  0  0
   27.2277  -19.0195   -7.6307 C   0  0  0  0  0  0  0  0  0  0  0  0
   27.9010  -18.2122   -6.8156 N   0  0  0  0  0  0  0  0  0  0  0  0
   28.6488  -18.9753   -6.0046 C   0  0  0  0  0  0  0  0  0  0  0  0
   29.5068  -18.6230   -4.9748 C   0  0  0  0  0  0  0  0  0  0  0  0
   30.1572  -19.6136   -4.2557 C   0  0  0  0  0  0  0  0  0  0  0  0
   29.9352  -20.9298   -4.5825 C   0  0  0  0  0  0  0  0  0  0  0  0
   29.0870  -21.2925   -5.6028 C   0  0  0  0  0  0  0  0  0  0  0  0
   28.4380  -20.3002   -6.3212 C   0  0  0  0  0  0  0  0  0  0  0  0
   25.1338  -19.9995   -8.7029 C   0  0  0  0  0  0  0  0  0  0  0  0
   25.4157  -18.7859   -9.3669 O   0  0  0  0  0  0  0  0  0  0  0  0
   24.2226  -19.9992   -7.8520 O   0  0  0  0  0  0  0  0  0  0  0  0
  2  1  1  0
  3  2  2  0
  4  3  1  0
  5  4  2  0
  5 11  1  0
  6  5  1  0
  7  9  1  0
  7  6  1  0
  7  8  1  6
  9 10  2  0
 11 12  2  0
 12  2  1  0
 13 14  1  0
 13  9  1  0
 14 15  1  6
 15 16  1  0
 16 17  2  0
 18 17  1  0
 19 18  1  0
 20 19  2  0
 20 16  1  0
 21 23  1  0
 21 14  1  0
 22 21  2  0
 24 23  1  0
 24 35  1  0
 24 25  1  1
 26 25  1  0
 27 26  2  0
 28 27  1  0
 29 28  1  0
 29 34  2  0
 30 29  1  0
 31 30  2  0
 31 32  1  0
 32 33  2  0
 33 34  1  0
 34 26  1  0
 35 36  1  0
 37 35  2  0
M  END
$$$$
