YHW.pdb
     RDKit          3D

 37 40  0  0  1  0  0  0  0  0999 V2000
   17.9306  -26.3892  -24.9786 O   0  0  0  0  0  0  0  0  0  0  0  0
   17.7929  -25.7062  -23.7875 C   0  0  0  0  0  0  0  0  0  0  0  0
   18.2548  -24.4224  -23.6006 C   0  0  0  0  0  0  0  0  0  0  0  0
   18.0942  -23.7923  -22.4059 C   0  0  0  0  0  0  0  0  0  0  0  0
   17.4653  -24.3790  -21.3015 C   0  0  0  0  0  0  0  0  0  0  0  0
   17.3243  -23.6349  -20.0330 C   0  0  0  0  0  0  0  0  0  0  0  0
   18.6722  -23.3316  -19.4558 C   0  0  2  0  0  0  0  0  0  0  0  0
   19.2454  -24.5377  -18.8841 N   0  0  0  0  0  0  0  0  0  0  0  0
   18.5592  -22.2611  -18.4366 C   0  0  0  0  0  0  0  0  0  0  0  0
   18.7137  -22.5053  -17.2078 O   0  0  0  0  0  0  0  0  0  0  0  0
   17.0064  -25.6586  -21.4925 C   0  0  0  0  0  0  0  0  0  0  0  0
   17.1642  -26.3058  -22.6990 C   0  0  0  0  0  0  0  0  0  0  0  0
   18.2706  -20.9048  -18.7984 N   0  0  0  0  0  0  0  0  0  0  0  0
   18.3248  -19.8500  -17.7722 C   0  0  1  0  0  0  0  0  0  0  0  0
   19.3076  -18.8270  -18.3083 C   0  0  0  0  0  0  0  0  0  0  0  0
   20.7017  -19.3571  -18.2344 C   0  0  0  0  0  0  0  0  0  0  0  0
   21.5249  -19.2384  -17.1417 C   0  0  0  0  0  0  0  0  0  0  0  0
   22.7131  -19.8255  -17.4005 N   0  0  0  0  0  0  0  0  0  0  0  0
   22.6454  -20.3141  -18.6498 C   0  0  0  0  0  0  0  0  0  0  0  0
   21.4176  -20.0250  -19.1512 N   0  0  0  0  0  0  0  0  0  0  0  0
   16.9655  -19.2767  -17.5741 C   0  0  0  0  0  0  0  0  0  0  0  0
   16.4765  -18.5039  -18.4089 O   0  0  0  0  0  0  0  0  0  0  0  0
   16.2090  -19.6058  -16.4266 N   0  0  0  0  0  0  0  0  0  0  0  0
   14.9419  -18.9927  -16.0581 C   0  0  1  0  0  0  0  0  0  0  0  0
   13.8418  -19.9758  -15.9998 C   0  0  0  0  0  0  0  0  0  0  0  0
   13.5208  -20.5631  -17.3046 C   0  0  0  0  0  0  0  0  0  0  0  0
   14.1625  -21.6334  -17.8957 C   0  0  0  0  0  0  0  0  0  0  0  0
   13.6536  -21.8958  -19.0964 N   0  0  0  0  0  0  0  0  0  0  0  0
   12.6697  -21.0144  -19.3290 C   0  0  0  0  0  0  0  0  0  0  0  0
   11.8224  -20.8768  -20.4171 C   0  0  0  0  0  0  0  0  0  0  0  0
   10.8535  -19.8856  -20.4099 C   0  0  0  0  0  0  0  0  0  0  0  0
   10.7547  -19.0573  -19.3179 C   0  0  0  0  0  0  0  0  0  0  0  0
   11.5900  -19.1828  -18.2323 C   0  0  0  0  0  0  0  0  0  0  0  0
   12.5589  -20.1743  -18.2417 C   0  0  0  0  0  0  0  0  0  0  0  0
   15.0169  -18.0927  -14.9324 C   0  0  0  0  0  0  0  0  0  0  0  0
   13.8139  -17.4909  -14.5036 O   0  0  0  0  0  0  0  0  0  0  0  0
   16.0619  -17.8094  -14.3144 O   0  0  0  0  0  0  0  0  0  0  0  0
  2  1  1  0
  3  2  2  0
  4  3  1  0
  5  4  2  0
  5 11  1  0
  6  5  1  0
  7  9  1  0
  7  6  1  0
  7  8  1  1
  9 10  2  0
 11 12  2  0
 12  2  1  0
 13 14  1  0
 13  9  1  0
 14 15  1  6
 15 16  1  0
 16 17  2  0
 18 17  1  0
 19 18  1  0
 20 19  2  0
 20 16  1  0
 21 23  1  0
 21 14  1  0
 22 21  2  0
 24 23  1  0
 24 35  1  0
 24 25  1  1
 26 25  1  0
 27 26  2  0
 28 27  1  0
 29 28  1  0
 29 34  2  0
 30 29  1  0
 31 30  2  0
 31 32  1  0
 32 33  2  0
 33 34  1  0
 34 26  1  0
 35 36  1  0
 37 35  2  0
M  END
$$$$
