SPW.pdb
     RDKit          3D

 28 30  0  0  1  0  0  0  0  0999 V2000
   10.5357  -13.2163   19.4948 O   0  0  0  0  0  0  0  0  0  0  0  0
   10.0035  -13.9424   18.4336 C   0  0  0  0  0  0  0  0  0  0  0  0
    8.4702  -13.8442   18.4509 C   0  0  2  0  0  0  0  0  0  0  0  0
    8.1974  -12.4209   18.4096 N   0  0  0  0  0  0  0  0  0  0  0  0
    8.0283  -14.3962   19.7556 C   0  0  0  0  0  0  0  0  0  0  0  0
    7.3615  -13.5886   20.4978 O   0  0  0  0  0  0  0  0  0  0  0  0
    8.3042  -15.7104   20.1789 N   0  0  0  0  0  0  0  0  0  0  0  0
    9.0199  -16.7190   19.4629 C   0  0  0  0  0  0  0  0  0  0  0  0
    8.3587  -18.0186   19.9163 C   0  0  0  0  0  0  0  0  0  0  0  0
    7.3305  -17.6280   20.9629 C   0  0  0  0  0  0  0  0  0  0  0  0
    7.8993  -16.2796   21.4318 C   0  0  1  0  0  0  0  0  0  0  0  0
    9.0157  -16.5863   22.3339 C   0  0  0  0  0  0  0  0  0  0  0  0
   10.1100  -17.0277   21.9062 O   0  0  0  0  0  0  0  0  0  0  0  0
    8.8352  -16.3719   23.7259 N   0  0  0  0  0  0  0  0  0  0  0  0
    9.9263  -16.1677   24.6656 C   0  0  1  0  0  0  0  0  0  0  0  0
    9.6186  -14.8849   25.3359 C   0  0  0  0  0  0  0  0  0  0  0  0
    8.2726  -14.5562   25.6724 C   0  0  0  0  0  0  0  0  0  0  0  0
    7.2205  -15.4500   25.6839 C   0  0  0  0  0  0  0  0  0  0  0  0
    6.1069  -14.7986   26.0491 N   0  0  0  0  0  0  0  0  0  0  0  0
    6.3599  -13.4938   26.2871 C   0  0  0  0  0  0  0  0  0  0  0  0
    5.5994  -12.4124   26.6768 C   0  0  0  0  0  0  0  0  0  0  0  0
    6.2144  -11.1872   26.8251 C   0  0  0  0  0  0  0  0  0  0  0  0
    7.5657  -11.0469   26.5877 C   0  0  0  0  0  0  0  0  0  0  0  0
    8.3263  -12.1202   26.1998 C   0  0  0  0  0  0  0  0  0  0  0  0
    7.7239  -13.3462   26.0488 C   0  0  0  0  0  0  0  0  0  0  0  0
    9.8961  -17.2910   25.6084 C   0  0  0  0  0  0  0  0  0  0  0  0
    9.9838  -18.5872   25.1332 O   0  0  0  0  0  0  0  0  0  0  0  0
    9.7927  -17.1575   26.8588 O   0  0  0  0  0  0  0  0  0  0  0  0
  2  1  1  0
  3  4  1  1
  3  2  1  0
  5  3  1  0
  5  6  2  0
  7  5  1  0
  8  7  1  0
  9  8  1  0
 10  9  1  0
 10 11  1  0
 11  7  1  0
 11 12  1  1
 12 14  1  0
 13 12  2  0
 15 16  1  1
 15 26  1  0
 15 14  1  0
 17 18  2  0
 17 16  1  0
 19 18  1  0
 20 25  2  0
 20 19  1  0
 21 20  1  0
 22 23  1  0
 22 21  2  0
 23 24  2  0
 24 25  1  0
 25 17  1  0
 26 27  1  0
 28 26  2  0
M  END
$$$$
