SPW.pdb
     RDKit          3D

 28 30  0  0  1  0  0  0  0  0999 V2000
    7.2287  -18.9895   22.7651 O   0  0  0  0  0  0  0  0  0  0  0  0
    6.0708  -18.4039   22.2623 C   0  0  0  0  0  0  0  0  0  0  0  0
    6.3420  -17.8279   20.8639 C   0  0  2  0  0  0  0  0  0  0  0  0
    6.4955  -18.9931   20.0151 N   0  0  0  0  0  0  0  0  0  0  0  0
    7.6346  -17.1040   20.9510 C   0  0  0  0  0  0  0  0  0  0  0  0
    8.6410  -17.7101   20.4337 O   0  0  0  0  0  0  0  0  0  0  0  0
    7.7799  -15.8389   21.5517 N   0  0  0  0  0  0  0  0  0  0  0  0
    6.8075  -15.1281   22.3205 C   0  0  0  0  0  0  0  0  0  0  0  0
    7.1131  -13.6626   22.0193 C   0  0  0  0  0  0  0  0  0  0  0  0
    8.3427  -13.6608   21.1288 C   0  0  0  0  0  0  0  0  0  0  0  0
    8.9575  -15.0223   21.4892 C   0  0  1  0  0  0  0  0  0  0  0  0
    9.6305  -14.8496   22.7820 C   0  0  0  0  0  0  0  0  0  0  0  0
   10.4172  -13.8954   22.9963 O   0  0  0  0  0  0  0  0  0  0  0  0
    9.3729  -15.7976   23.8074 N   0  0  0  0  0  0  0  0  0  0  0  0
   10.2666  -16.0476   24.9272 C   0  0  1  0  0  0  0  0  0  0  0  0
    9.4634  -15.7444   26.1324 C   0  0  0  0  0  0  0  0  0  0  0  0
    8.1408  -15.2280   26.0018 C   0  0  0  0  0  0  0  0  0  0  0  0
    7.0284  -15.9784   25.6769 C   0  0  0  0  0  0  0  0  0  0  0  0
    5.9588  -15.1704   25.6460 N   0  0  0  0  0  0  0  0  0  0  0  0
    6.2999  -13.8969   25.9375 C   0  0  0  0  0  0  0  0  0  0  0  0
    5.6125  -12.7068   26.0408 C   0  0  0  0  0  0  0  0  0  0  0  0
    6.3102  -11.5634   26.3682 C   0  0  0  0  0  0  0  0  0  0  0  0
    7.6709  -11.6103   26.5881 C   0  0  0  0  0  0  0  0  0  0  0  0
    8.3589  -12.7923   26.4865 C   0  0  0  0  0  0  0  0  0  0  0  0
    7.6738  -13.9383   26.1608 C   0  0  0  0  0  0  0  0  0  0  0  0
   10.6405  -17.4648   24.8692 C   0  0  0  0  0  0  0  0  0  0  0  0
   11.7163  -17.9206   25.6099 O   0  0  0  0  0  0  0  0  0  0  0  0
   10.0345  -18.3244   24.1721 O   0  0  0  0  0  0  0  0  0  0  0  0
  2  1  1  0
  3  4  1  6
  3  2  1  0
  5  3  1  0
  5  6  2  0
  7  5  1  0
  8  7  1  0
  9  8  1  0
 10  9  1  0
 10 11  1  0
 11  7  1  0
 11 12  1  1
 12 14  1  0
 13 12  2  0
 15 16  1  1
 15 26  1  0
 15 14  1  0
 17 18  2  0
 17 16  1  0
 19 18  1  0
 20 25  2  0
 20 19  1  0
 21 20  1  0
 22 23  1  0
 22 21  2  0
 23 24  2  0
 24 25  1  0
 25 17  1  0
 26 27  1  0
 28 26  2  0
M  END
$$$$
