SPW.pdb
     RDKit          3D

 28 30  0  0  1  0  0  0  0  0999 V2000
    7.5373  -18.6882   22.1110 O   0  0  0  0  0  0  0  0  0  0  0  0
    7.7498  -19.0257   20.7778 C   0  0  0  0  0  0  0  0  0  0  0  0
    7.5957  -17.7791   19.8928 C   0  0  2  0  0  0  0  0  0  0  0  0
    8.0045  -18.2183   18.5730 N   0  0  0  0  0  0  0  0  0  0  0  0
    8.5645  -16.7781   20.4045 C   0  0  0  0  0  0  0  0  0  0  0  0
    9.7876  -16.9729   20.0671 O   0  0  0  0  0  0  0  0  0  0  0  0
    8.1993  -15.6793   21.2055 N   0  0  0  0  0  0  0  0  0  0  0  0
    6.8988  -15.3695   21.7104 C   0  0  0  0  0  0  0  0  0  0  0  0
    6.8851  -13.8432   21.7545 C   0  0  0  0  0  0  0  0  0  0  0  0
    8.2721  -13.3947   21.3301 C   0  0  0  0  0  0  0  0  0  0  0  0
    9.0915  -14.6522   21.6601 C   0  0  1  0  0  0  0  0  0  0  0  0
    9.3011  -14.6470   23.1127 C   0  0  0  0  0  0  0  0  0  0  0  0
    9.3908  -13.5781   23.7646 O   0  0  0  0  0  0  0  0  0  0  0  0
    9.4031  -15.8946   23.7830 N   0  0  0  0  0  0  0  0  0  0  0  0
   10.2606  -16.1321   24.9335 C   0  0  1  0  0  0  0  0  0  0  0  0
    9.3672  -16.0135   26.1072 C   0  0  0  0  0  0  0  0  0  0  0  0
    8.0778  -15.4206   25.9701 C   0  0  0  0  0  0  0  0  0  0  0  0
    6.9346  -16.0951   25.5903 C   0  0  0  0  0  0  0  0  0  0  0  0
    5.9111  -15.2293   25.5705 N   0  0  0  0  0  0  0  0  0  0  0  0
    6.3131  -13.9893   25.9224 C   0  0  0  0  0  0  0  0  0  0  0  0
    5.6885  -12.7685   26.0607 C   0  0  0  0  0  0  0  0  0  0  0  0
    6.4388  -11.6793   26.4506 C   0  0  0  0  0  0  0  0  0  0  0  0
    7.7894  -11.8095   26.6973 C   0  0  0  0  0  0  0  0  0  0  0  0
    8.4151  -13.0223   26.5610 C   0  0  0  0  0  0  0  0  0  0  0  0
    7.6772  -14.1148   26.1730 C   0  0  0  0  0  0  0  0  0  0  0  0
   10.7953  -17.4911   24.7964 C   0  0  0  0  0  0  0  0  0  0  0  0
   10.3272  -18.3133   23.7872 O   0  0  0  0  0  0  0  0  0  0  0  0
   11.6774  -17.9799   25.5547 O   0  0  0  0  0  0  0  0  0  0  0  0
  2  1  1  0
  3  4  1  6
  3  2  1  0
  5  3  1  0
  5  6  2  0
  7  5  1  0
  8  7  1  0
  9  8  1  0
 10  9  1  0
 10 11  1  0
 11  7  1  0
 11 12  1  1
 12 14  1  0
 13 12  2  0
 15 16  1  1
 15 26  1  0
 15 14  1  0
 17 18  2  0
 17 16  1  0
 19 18  1  0
 20 25  2  0
 20 19  1  0
 21 20  1  0
 22 23  1  0
 22 21  2  0
 23 24  2  0
 24 25  1  0
 25 17  1  0
 26 27  1  0
 28 26  2  0
M  END
$$$$
