SPW.pdb
     RDKit          3D

 28 30  0  0  1  0  0  0  0  0999 V2000
    7.5148  -18.6979   21.5266 O   0  0  0  0  0  0  0  0  0  0  0  0
    6.3460  -18.3731   20.8448 C   0  0  0  0  0  0  0  0  0  0  0  0
    6.6788  -17.5007   19.6245 C   0  0  2  0  0  0  0  0  0  0  0  0
    6.8717  -18.4475   18.5435 N   0  0  0  0  0  0  0  0  0  0  0  0
    7.9652  -16.8262   19.9283 C   0  0  0  0  0  0  0  0  0  0  0  0
    9.0112  -17.3911   19.4440 O   0  0  0  0  0  0  0  0  0  0  0  0
    8.0652  -15.6469   20.6911 N   0  0  0  0  0  0  0  0  0  0  0  0
    7.0375  -15.0270   21.4666 C   0  0  0  0  0  0  0  0  0  0  0  0
    7.3662  -13.5387   21.3741 C   0  0  0  0  0  0  0  0  0  0  0  0
    8.6602  -13.4390   20.5863 C   0  0  0  0  0  0  0  0  0  0  0  0
    9.2448  -14.8409   20.8199 C   0  0  1  0  0  0  0  0  0  0  0  0
    9.8172  -14.8367   22.1714 C   0  0  0  0  0  0  0  0  0  0  0  0
   10.5704  -13.9144   22.5682 O   0  0  0  0  0  0  0  0  0  0  0  0
    9.4997  -15.9137   23.0406 N   0  0  0  0  0  0  0  0  0  0  0  0
   10.1447  -16.1401   24.3243 C   0  0  1  0  0  0  0  0  0  0  0  0
    9.7530  -14.9824   25.1585 C   0  0  0  0  0  0  0  0  0  0  0  0
    8.3769  -14.7267   25.4299 C   0  0  0  0  0  0  0  0  0  0  0  0
    7.3657  -15.6618   25.3333 C   0  0  0  0  0  0  0  0  0  0  0  0
    6.2056  -15.0762   25.6635 N   0  0  0  0  0  0  0  0  0  0  0  0
    6.3874  -13.7766   25.9816 C   0  0  0  0  0  0  0  0  0  0  0  0
    5.5593  -12.7491   26.3790 C   0  0  0  0  0  0  0  0  0  0  0  0
    6.1108  -11.5096   26.6254 C   0  0  0  0  0  0  0  0  0  0  0  0
    7.4661  -11.3023   26.4767 C   0  0  0  0  0  0  0  0  0  0  0  0
    8.2938  -12.3219   26.0815 C   0  0  0  0  0  0  0  0  0  0  0  0
    7.7552  -13.5616   25.8333 C   0  0  0  0  0  0  0  0  0  0  0  0
    9.6084  -17.3969   24.8579 C   0  0  0  0  0  0  0  0  0  0  0  0
   10.2432  -18.0172   25.9190 O   0  0  0  0  0  0  0  0  0  0  0  0
    8.5797  -17.9710   24.4060 O   0  0  0  0  0  0  0  0  0  0  0  0
  2  1  1  0
  3  4  1  6
  3  2  1  0
  5  3  1  0
  5  6  2  0
  7  5  1  0
  8  7  1  0
  9  8  1  0
 10  9  1  0
 10 11  1  0
 11  7  1  0
 11 12  1  1
 12 14  1  0
 13 12  2  0
 15 16  1  1
 15 26  1  0
 15 14  1  0
 17 18  2  0
 17 16  1  0
 19 18  1  0
 20 25  2  0
 20 19  1  0
 21 20  1  0
 22 23  1  0
 22 21  2  0
 23 24  2  0
 24 25  1  0
 25 17  1  0
 26 27  1  0
 28 26  2  0
M  END
$$$$
