SPW.pdb
     RDKit          3D

 28 30  0  0  1  0  0  0  0  0999 V2000
    7.9254  -18.6227   22.3599 O   0  0  0  0  0  0  0  0  0  0  0  0
    7.0423  -19.0578   21.3763 C   0  0  0  0  0  0  0  0  0  0  0  0
    7.0463  -18.0717   20.1980 C   0  0  2  0  0  0  0  0  0  0  0  0
    7.3993  -18.8815   19.0485 N   0  0  0  0  0  0  0  0  0  0  0  0
    8.1314  -17.0965   20.4697 C   0  0  0  0  0  0  0  0  0  0  0  0
    9.2797  -17.4008   19.9835 O   0  0  0  0  0  0  0  0  0  0  0  0
    7.9463  -15.9103   21.2053 N   0  0  0  0  0  0  0  0  0  0  0  0
    6.7638  -15.4905   21.8891 C   0  0  0  0  0  0  0  0  0  0  0  0
    6.8073  -13.9681   21.7798 C   0  0  0  0  0  0  0  0  0  0  0  0
    8.1133  -13.6306   21.0831 C   0  0  0  0  0  0  0  0  0  0  0  0
    8.9366  -14.8901   21.3954 C   0  0  1  0  0  0  0  0  0  0  0  0
    9.3951  -14.7579   22.7833 C   0  0  0  0  0  0  0  0  0  0  0  0
    9.8536  -13.6778   23.2288 O   0  0  0  0  0  0  0  0  0  0  0  0
    9.3106  -15.8936   23.6316 N   0  0  0  0  0  0  0  0  0  0  0  0
   10.0902  -16.0599   24.8481 C   0  0  1  0  0  0  0  0  0  0  0  0
    9.0909  -16.1162   25.9379 C   0  0  0  0  0  0  0  0  0  0  0  0
    7.9314  -15.2877   25.8914 C   0  0  0  0  0  0  0  0  0  0  0  0
    6.6699  -15.7143   25.5270 C   0  0  0  0  0  0  0  0  0  0  0  0
    5.8265  -14.6745   25.6004 N   0  0  0  0  0  0  0  0  0  0  0  0
    6.4654  -13.5545   26.0010 C   0  0  0  0  0  0  0  0  0  0  0  0
    6.0855  -12.2502   26.2336 C   0  0  0  0  0  0  0  0  0  0  0  0
    7.0393  -11.3448   26.6482 C   0  0  0  0  0  0  0  0  0  0  0  0
    8.3492  -11.7377   26.8267 C   0  0  0  0  0  0  0  0  0  0  0  0
    8.7317  -13.0344   26.5965 C   0  0  0  0  0  0  0  0  0  0  0  0
    7.7895  -13.9455   26.1830 C   0  0  0  0  0  0  0  0  0  0  0  0
   10.8212  -17.3251   24.7192 C   0  0  0  0  0  0  0  0  0  0  0  0
   10.5380  -18.1761   23.6660 O   0  0  0  0  0  0  0  0  0  0  0  0
   11.7162  -17.7055   25.5231 O   0  0  0  0  0  0  0  0  0  0  0  0
  2  1  1  0
  3  4  1  6
  3  2  1  0
  5  3  1  0
  5  6  2  0
  7  5  1  0
  8  7  1  0
  9  8  1  0
 10  9  1  0
 10 11  1  0
 11  7  1  0
 11 12  1  1
 12 14  1  0
 13 12  2  0
 15 16  1  1
 15 26  1  0
 15 14  1  0
 17 18  2  0
 17 16  1  0
 19 18  1  0
 20 25  2  0
 20 19  1  0
 21 20  1  0
 22 23  1  0
 22 21  2  0
 23 24  2  0
 24 25  1  0
 25 17  1  0
 26 27  1  0
 28 26  2  0
M  END
$$$$
