SPW.pdb
     RDKit          3D

 28 30  0  0  1  0  0  0  0  0999 V2000
    6.9017  -18.8768   22.2028 O   0  0  0  0  0  0  0  0  0  0  0  0
    5.8792  -17.9888   21.8828 C   0  0  0  0  0  0  0  0  0  0  0  0
    6.0538  -17.4896   20.4401 C   0  0  2  0  0  0  0  0  0  0  0  0
    6.0359  -18.6949   19.6346 N   0  0  0  0  0  0  0  0  0  0  0  0
    7.3990  -16.8667   20.3708 C   0  0  0  0  0  0  0  0  0  0  0  0
    8.2763  -17.5237   19.7026 O   0  0  0  0  0  0  0  0  0  0  0  0
    7.7222  -15.6410   20.9836 N   0  0  0  0  0  0  0  0  0  0  0  0
    6.8623  -14.8104   21.7663 C   0  0  0  0  0  0  0  0  0  0  0  0
    7.3673  -13.3984   21.4782 C   0  0  0  0  0  0  0  0  0  0  0  0
    8.5806  -13.5578   20.5795 C   0  0  0  0  0  0  0  0  0  0  0  0
    9.0017  -14.9956   20.9216 C   0  0  1  0  0  0  0  0  0  0  0  0
    9.6989  -14.9326   22.2116 C   0  0  0  0  0  0  0  0  0  0  0  0
   10.5411  -14.0374   22.4657 O   0  0  0  0  0  0  0  0  0  0  0  0
    9.4003  -15.9200   23.1874 N   0  0  0  0  0  0  0  0  0  0  0  0
   10.1935  -16.1457   24.3854 C   0  0  1  0  0  0  0  0  0  0  0  0
    9.8185  -15.0483   25.3045 C   0  0  0  0  0  0  0  0  0  0  0  0
    8.4483  -14.8160   25.6228 C   0  0  0  0  0  0  0  0  0  0  0  0
    7.4572  -15.7767   25.5957 C   0  0  0  0  0  0  0  0  0  0  0  0
    6.2970  -15.2078   25.9539 N   0  0  0  0  0  0  0  0  0  0  0  0
    6.4596  -13.8950   26.2243 C   0  0  0  0  0  0  0  0  0  0  0  0
    5.6230  -12.8747   26.6227 C   0  0  0  0  0  0  0  0  0  0  0  0
    6.1534  -11.6156   26.8085 C   0  0  0  0  0  0  0  0  0  0  0  0
    7.4964  -11.3819   26.5993 C   0  0  0  0  0  0  0  0  0  0  0  0
    8.3325  -12.3941   26.2029 C   0  0  0  0  0  0  0  0  0  0  0  0
    7.8148  -13.6532   26.0147 C   0  0  0  0  0  0  0  0  0  0  0  0
    9.8020  -17.4549   24.9185 C   0  0  0  0  0  0  0  0  0  0  0  0
   10.5768  -18.0574   25.8935 O   0  0  0  0  0  0  0  0  0  0  0  0
    8.7797  -18.0910   24.5415 O   0  0  0  0  0  0  0  0  0  0  0  0
  2  1  1  0
  3  4  1  6
  3  2  1  0
  5  3  1  0
  5  6  2  0
  7  5  1  0
  8  7  1  0
  9  8  1  0
 10  9  1  0
 10 11  1  0
 11  7  1  0
 11 12  1  1
 12 14  1  0
 13 12  2  0
 15 16  1  1
 15 26  1  0
 15 14  1  0
 17 18  2  0
 17 16  1  0
 19 18  1  0
 20 25  2  0
 20 19  1  0
 21 20  1  0
 22 23  1  0
 22 21  2  0
 23 24  2  0
 24 25  1  0
 25 17  1  0
 26 27  1  0
 28 26  2  0
M  END
$$$$
