SPW.pdb
     RDKit          3D

 28 30  0  0  1  0  0  0  0  0999 V2000
    7.4473  -19.0698   22.0674 O   0  0  0  0  0  0  0  0  0  0  0  0
    6.3401  -18.3138   21.6946 C   0  0  0  0  0  0  0  0  0  0  0  0
    6.5914  -17.6589   20.3275 C   0  0  2  0  0  0  0  0  0  0  0  0
    6.7940  -18.7737   19.4230 N   0  0  0  0  0  0  0  0  0  0  0  0
    7.8536  -16.8890   20.4561 C   0  0  0  0  0  0  0  0  0  0  0  0
    8.8692  -17.3919   19.8534 O   0  0  0  0  0  0  0  0  0  0  0  0
    7.9621  -15.6866   21.1806 N   0  0  0  0  0  0  0  0  0  0  0  0
    6.9426  -15.0416   21.9466 C   0  0  0  0  0  0  0  0  0  0  0  0
    7.2718  -13.5573   21.8044 C   0  0  0  0  0  0  0  0  0  0  0  0
    8.5580  -13.4837   21.0012 C   0  0  0  0  0  0  0  0  0  0  0  0
    9.1436  -14.8784   21.2727 C   0  0  1  0  0  0  0  0  0  0  0  0
    9.7293  -14.8328   22.6177 C   0  0  0  0  0  0  0  0  0  0  0  0
   10.4362  -13.8684   22.9993 O   0  0  0  0  0  0  0  0  0  0  0  0
    9.4793  -15.9183   23.4983 N   0  0  0  0  0  0  0  0  0  0  0  0
   10.2769  -16.2077   24.6795 C   0  0  1  0  0  0  0  0  0  0  0  0
    9.7723  -15.2820   25.7178 C   0  0  0  0  0  0  0  0  0  0  0  0
    8.3867  -14.9505   25.7711 C   0  0  0  0  0  0  0  0  0  0  0  0
    7.3526  -15.8448   25.5794 C   0  0  0  0  0  0  0  0  0  0  0  0
    6.1891  -15.1901   25.7041 N   0  0  0  0  0  0  0  0  0  0  0  0
    6.3908  -13.8825   25.9736 C   0  0  0  0  0  0  0  0  0  0  0  0
    5.5688  -12.7973   26.1889 C   0  0  0  0  0  0  0  0  0  0  0  0
    6.1430  -11.5701   26.4448 C   0  0  0  0  0  0  0  0  0  0  0  0
    7.5146  -11.4315   26.4843 C   0  0  0  0  0  0  0  0  0  0  0  0
    8.3363  -12.5086   26.2707 C   0  0  0  0  0  0  0  0  0  0  0  0
    7.7750  -13.7367   26.0149 C   0  0  0  0  0  0  0  0  0  0  0  0
   10.0242  -17.6082   25.0350 C   0  0  0  0  0  0  0  0  0  0  0  0
    9.0758  -18.3325   24.3353 O   0  0  0  0  0  0  0  0  0  0  0  0
   10.6266  -18.2189   25.9603 O   0  0  0  0  0  0  0  0  0  0  0  0
  2  1  1  0
  3  4  1  6
  3  2  1  0
  5  3  1  0
  5  6  2  0
  7  5  1  0
  8  7  1  0
  9  8  1  0
 10  9  1  0
 10 11  1  0
 11  7  1  0
 11 12  1  1
 12 14  1  0
 13 12  2  0
 15 16  1  1
 15 26  1  0
 15 14  1  0
 17 18  2  0
 17 16  1  0
 19 18  1  0
 20 25  2  0
 20 19  1  0
 21 20  1  0
 22 23  1  0
 22 21  2  0
 23 24  2  0
 24 25  1  0
 25 17  1  0
 26 27  1  0
 28 26  2  0
M  END
$$$$
