SPW.pdb
     RDKit          3D

 28 30  0  0  1  0  0  0  0  0999 V2000
    9.9923  -14.5349   16.1474 O   0  0  0  0  0  0  0  0  0  0  0  0
    9.8173  -14.4721   17.5265 C   0  0  0  0  0  0  0  0  0  0  0  0
    8.3554  -14.1289   17.8521 C   0  0  2  0  0  0  0  0  0  0  0  0
    8.2215  -12.7315   17.4900 N   0  0  0  0  0  0  0  0  0  0  0  0
    8.2060  -14.2771   19.3211 C   0  0  0  0  0  0  0  0  0  0  0  0
    8.3086  -13.1909   19.9974 O   0  0  0  0  0  0  0  0  0  0  0  0
    7.9668  -15.5091   19.9593 N   0  0  0  0  0  0  0  0  0  0  0  0
    8.0693  -16.8150   19.3882 C   0  0  0  0  0  0  0  0  0  0  0  0
    7.0036  -17.6168   20.1319 C   0  0  0  0  0  0  0  0  0  0  0  0
    6.4142  -16.6778   21.1692 C   0  0  0  0  0  0  0  0  0  0  0  0
    7.5633  -15.6696   21.3265 C   0  0  1  0  0  0  0  0  0  0  0  0
    8.5742  -16.3145   22.1729 C   0  0  0  0  0  0  0  0  0  0  0  0
    9.3618  -17.1804   21.7199 O   0  0  0  0  0  0  0  0  0  0  0  0
    8.6490  -15.9364   23.5395 N   0  0  0  0  0  0  0  0  0  0  0  0
    9.8828  -15.9069   24.3089 C   0  0  1  0  0  0  0  0  0  0  0  0
    9.5630  -15.1101   25.5140 C   0  0  0  0  0  0  0  0  0  0  0  0
    8.2161  -14.7295   25.7856 C   0  0  0  0  0  0  0  0  0  0  0  0
    7.1401  -15.5942   25.8081 C   0  0  0  0  0  0  0  0  0  0  0  0
    6.0332  -14.8958   26.0992 N   0  0  0  0  0  0  0  0  0  0  0  0
    6.3137  -13.5870   26.2762 C   0  0  0  0  0  0  0  0  0  0  0  0
    5.5704  -12.4671   26.5812 C   0  0  0  0  0  0  0  0  0  0  0  0
    6.2134  -11.2518   26.6855 C   0  0  0  0  0  0  0  0  0  0  0  0
    7.5752  -11.1590   26.4880 C   0  0  0  0  0  0  0  0  0  0  0  0
    8.3186  -12.2707   26.1844 C   0  0  0  0  0  0  0  0  0  0  0  0
    7.6884  -13.4873   26.0780 C   0  0  0  0  0  0  0  0  0  0  0  0
   10.2088  -17.2958   24.6500 C   0  0  0  0  0  0  0  0  0  0  0  0
   11.4802  -17.6121   25.0941 O   0  0  0  0  0  0  0  0  0  0  0  0
    9.3899  -18.2519   24.5651 O   0  0  0  0  0  0  0  0  0  0  0  0
  2  1  1  0
  3  4  1  1
  3  2  1  0
  5  3  1  0
  5  6  2  0
  7  5  1  0
  8  7  1  0
  9  8  1  0
 10  9  1  0
 10 11  1  0
 11  7  1  0
 11 12  1  1
 12 14  1  0
 13 12  2  0
 15 16  1  1
 15 26  1  0
 15 14  1  0
 17 18  2  0
 17 16  1  0
 19 18  1  0
 20 25  2  0
 20 19  1  0
 21 20  1  0
 22 23  1  0
 22 21  2  0
 23 24  2  0
 24 25  1  0
 25 17  1  0
 26 27  1  0
 28 26  2  0
M  END
$$$$
