SPW.pdb
     RDKit          3D

 28 30  0  0  1  0  0  0  0  0999 V2000
    6.9024  -19.1859   22.3222 O   0  0  0  0  0  0  0  0  0  0  0  0
    5.9388  -18.2774   21.8948 C   0  0  0  0  0  0  0  0  0  0  0  0
    6.2704  -17.7945   20.4743 C   0  0  2  0  0  0  0  0  0  0  0  0
    6.3907  -19.0118   19.6961 N   0  0  0  0  0  0  0  0  0  0  0  0
    7.5924  -17.1252   20.5557 C   0  0  0  0  0  0  0  0  0  0  0  0
    8.5577  -17.7404   19.9749 O   0  0  0  0  0  0  0  0  0  0  0  0
    7.8058  -15.9000   21.2158 N   0  0  0  0  0  0  0  0  0  0  0  0
    6.8808  -15.1869   22.0392 C   0  0  0  0  0  0  0  0  0  0  0  0
    7.2467  -13.7230   21.8055 C   0  0  0  0  0  0  0  0  0  0  0  0
    8.4585  -13.7301   20.8908 C   0  0  0  0  0  0  0  0  0  0  0  0
    9.0177  -15.1340   21.1699 C   0  0  1  0  0  0  0  0  0  0  0  0
    9.7216  -15.0573   22.4555 C   0  0  0  0  0  0  0  0  0  0  0  0
   10.4487  -14.0789   22.7545 O   0  0  0  0  0  0  0  0  0  0  0  0
    9.5643  -16.1283   23.3745 N   0  0  0  0  0  0  0  0  0  0  0  0
   10.3018  -16.2441   24.6226 C   0  0  1  0  0  0  0  0  0  0  0  0
    9.8875  -15.0697   25.4219 C   0  0  0  0  0  0  0  0  0  0  0  0
    8.5039  -14.7741   25.5983 C   0  0  0  0  0  0  0  0  0  0  0  0
    7.4806  -15.6958   25.5010 C   0  0  0  0  0  0  0  0  0  0  0  0
    6.3162  -15.0710   25.7284 N   0  0  0  0  0  0  0  0  0  0  0  0
    6.5068  -13.7577   25.9770 C   0  0  0  0  0  0  0  0  0  0  0  0
    5.6792  -12.6934   26.2634 C   0  0  0  0  0  0  0  0  0  0  0  0
    6.2415  -11.4507   26.4653 C   0  0  0  0  0  0  0  0  0  0  0  0
    7.6071  -11.2764   26.3819 C   0  0  0  0  0  0  0  0  0  0  0  0
    8.4343  -12.3325   26.0971 C   0  0  0  0  0  0  0  0  0  0  0  0
    7.8849  -13.5758   25.8941 C   0  0  0  0  0  0  0  0  0  0  0  0
    9.8841  -17.5012   25.2525 C   0  0  0  0  0  0  0  0  0  0  0  0
   10.6108  -18.0106   26.3136 O   0  0  0  0  0  0  0  0  0  0  0  0
    8.8805  -18.1723   24.8860 O   0  0  0  0  0  0  0  0  0  0  0  0
  2  1  1  0
  3  4  1  6
  3  2  1  0
  5  3  1  0
  5  6  2  0
  7  5  1  0
  8  7  1  0
  9  8  1  0
 10  9  1  0
 10 11  1  0
 11  7  1  0
 11 12  1  1
 12 14  1  0
 13 12  2  0
 15 16  1  1
 15 26  1  0
 15 14  1  0
 17 18  2  0
 17 16  1  0
 19 18  1  0
 20 25  2  0
 20 19  1  0
 21 20  1  0
 22 23  1  0
 22 21  2  0
 23 24  2  0
 24 25  1  0
 25 17  1  0
 26 27  1  0
 28 26  2  0
M  END
$$$$
