SPW.pdb
     RDKit          3D

 28 30  0  0  1  0  0  0  0  0999 V2000
    8.8798  -19.7013   17.9508 O   0  0  0  0  0  0  0  0  0  0  0  0
    9.8697  -18.8908   18.4984 C   0  0  0  0  0  0  0  0  0  0  0  0
    9.6376  -17.4300   18.0825 C   0  0  2  0  0  0  0  0  0  0  0  0
   10.7217  -17.1373   17.1655 N   0  0  0  0  0  0  0  0  0  0  0  0
    9.7935  -16.6132   19.3116 C   0  0  0  0  0  0  0  0  0  0  0  0
   10.9503  -16.0819   19.4766 O   0  0  0  0  0  0  0  0  0  0  0  0
    8.7634  -16.4146   20.2507 N   0  0  0  0  0  0  0  0  0  0  0  0
    7.4599  -17.0002   20.2436 C   0  0  0  0  0  0  0  0  0  0  0  0
    6.5807  -15.9266   20.8810 C   0  0  0  0  0  0  0  0  0  0  0  0
    7.5151  -14.8026   21.2914 C   0  0  0  0  0  0  0  0  0  0  0  0
    8.8452  -15.5641   21.4030 C   0  0  1  0  0  0  0  0  0  0  0  0
    8.8085  -16.2875   22.6795 C   0  0  0  0  0  0  0  0  0  0  0  0
    8.6160  -17.5266   22.7327 O   0  0  0  0  0  0  0  0  0  0  0  0
    8.9977  -15.5492   23.8776 N   0  0  0  0  0  0  0  0  0  0  0  0
    9.7927  -16.0149   25.0029 C   0  0  1  0  0  0  0  0  0  0  0  0
    9.3914  -15.1534   26.1371 C   0  0  0  0  0  0  0  0  0  0  0  0
    8.0666  -14.6308   26.2072 C   0  0  0  0  0  0  0  0  0  0  0  0
    6.9141  -15.3801   26.0790 C   0  0  0  0  0  0  0  0  0  0  0  0
    5.8560  -14.5657   26.2012 N   0  0  0  0  0  0  0  0  0  0  0  0
    6.2435  -13.2888   26.4079 C   0  0  0  0  0  0  0  0  0  0  0  0
    5.5853  -12.0922   26.5937 C   0  0  0  0  0  0  0  0  0  0  0  0
    6.3301  -10.9472   26.7818 C   0  0  0  0  0  0  0  0  0  0  0  0
    7.7083  -10.9988   26.7838 C   0  0  0  0  0  0  0  0  0  0  0  0
    8.3674  -12.1873   26.5993 C   0  0  0  0  0  0  0  0  0  0  0  0
    7.6352  -13.3350   26.4110 C   0  0  0  0  0  0  0  0  0  0  0  0
    9.4289  -17.4170   25.2340 C   0  0  0  0  0  0  0  0  0  0  0  0
   10.2885  -18.2410   25.9380 O   0  0  0  0  0  0  0  0  0  0  0  0
    8.3571  -17.9423   24.8251 O   0  0  0  0  0  0  0  0  0  0  0  0
  2  1  1  0
  3  4  1  6
  3  2  1  0
  5  3  1  0
  5  6  2  0
  7  5  1  0
  8  7  1  0
  9  8  1  0
 10  9  1  0
 10 11  1  0
 11  7  1  0
 11 12  1  1
 12 14  1  0
 13 12  2  0
 15 16  1  1
 15 26  1  0
 15 14  1  0
 17 18  2  0
 17 16  1  0
 19 18  1  0
 20 25  2  0
 20 19  1  0
 21 20  1  0
 22 23  1  0
 22 21  2  0
 23 24  2  0
 24 25  1  0
 25 17  1  0
 26 27  1  0
 28 26  2  0
M  END
$$$$
