SPW.pdb
     RDKit          3D

 28 30  0  0  1  0  0  0  0  0999 V2000
    6.1884  -19.6300   21.5344 O   0  0  0  0  0  0  0  0  0  0  0  0
    6.4350  -18.2760   21.7401 C   0  0  0  0  0  0  0  0  0  0  0  0
    6.6741  -17.5783   20.3921 C   0  0  2  0  0  0  0  0  0  0  0  0
    6.8769  -18.6639   19.4528 N   0  0  0  0  0  0  0  0  0  0  0  0
    7.9328  -16.8056   20.5363 C   0  0  0  0  0  0  0  0  0  0  0  0
    8.9579  -17.3081   19.9493 O   0  0  0  0  0  0  0  0  0  0  0  0
    8.0289  -15.6010   21.2590 N   0  0  0  0  0  0  0  0  0  0  0  0
    6.9819  -14.9235   21.9567 C   0  0  0  0  0  0  0  0  0  0  0  0
    7.3588  -13.4495   21.8263 C   0  0  0  0  0  0  0  0  0  0  0  0
    8.6936  -13.4161   21.1035 C   0  0  0  0  0  0  0  0  0  0  0  0
    9.2237  -14.8236   21.4189 C   0  0  1  0  0  0  0  0  0  0  0  0
    9.7267  -14.7833   22.7971 C   0  0  0  0  0  0  0  0  0  0  0  0
   10.3659  -13.7980   23.2398 O   0  0  0  0  0  0  0  0  0  0  0  0
    9.4742  -15.8985   23.6392 N   0  0  0  0  0  0  0  0  0  0  0  0
   10.2482  -16.2100   24.8304 C   0  0  1  0  0  0  0  0  0  0  0  0
    9.6842  -15.3448   25.8900 C   0  0  0  0  0  0  0  0  0  0  0  0
    8.3029  -14.9919   25.8682 C   0  0  0  0  0  0  0  0  0  0  0  0
    7.2619  -15.8849   25.7109 C   0  0  0  0  0  0  0  0  0  0  0  0
    6.1054  -15.2072   25.7429 N   0  0  0  0  0  0  0  0  0  0  0  0
    6.3185  -13.8852   25.9161 C   0  0  0  0  0  0  0  0  0  0  0  0
    5.5070  -12.7757   26.0166 C   0  0  0  0  0  0  0  0  0  0  0  0
    6.0915  -11.5397   26.1957 C   0  0  0  0  0  0  0  0  0  0  0  0
    7.4630  -11.4165   26.2725 C   0  0  0  0  0  0  0  0  0  0  0  0
    8.2743  -12.5178   26.1730 C   0  0  0  0  0  0  0  0  0  0  0  0
    7.7027  -13.7547   25.9945 C   0  0  0  0  0  0  0  0  0  0  0  0
   10.0334  -17.6315   25.1218 C   0  0  0  0  0  0  0  0  0  0  0  0
    9.1346  -18.3586   24.3620 O   0  0  0  0  0  0  0  0  0  0  0  0
   10.6260  -18.2583   26.0426 O   0  0  0  0  0  0  0  0  0  0  0  0
  2  1  1  0
  3  4  1  6
  3  2  1  0
  5  3  1  0
  5  6  2  0
  7  5  1  0
  8  7  1  0
  9  8  1  0
 10  9  1  0
 10 11  1  0
 11  7  1  0
 11 12  1  1
 12 14  1  0
 13 12  2  0
 15 16  1  1
 15 26  1  0
 15 14  1  0
 17 18  2  0
 17 16  1  0
 19 18  1  0
 20 25  2  0
 20 19  1  0
 21 20  1  0
 22 23  1  0
 22 21  2  0
 23 24  2  0
 24 25  1  0
 25 17  1  0
 26 27  1  0
 28 26  2  0
M  END
$$$$
