SPW.pdb
     RDKit          3D

 28 30  0  0  1  0  0  0  0  0999 V2000
    7.1205  -18.4672   22.4553 O   0  0  0  0  0  0  0  0  0  0  0  0
    6.9336  -19.0464   21.2039 C   0  0  0  0  0  0  0  0  0  0  0  0
    6.7674  -17.9497   20.1407 C   0  0  2  0  0  0  0  0  0  0  0  0
    6.8268  -18.6576   18.8769 N   0  0  0  0  0  0  0  0  0  0  0  0
    7.9483  -17.0598   20.2666 C   0  0  0  0  0  0  0  0  0  0  0  0
    9.0111  -17.4679   19.6736 O   0  0  0  0  0  0  0  0  0  0  0  0
    7.9360  -15.8453   20.9789 N   0  0  0  0  0  0  0  0  0  0  0  0
    6.8562  -15.2967   21.7373 C   0  0  0  0  0  0  0  0  0  0  0  0
    7.0371  -13.7886   21.5803 C   0  0  0  0  0  0  0  0  0  0  0  0
    8.3112  -13.5962   20.7774 C   0  0  0  0  0  0  0  0  0  0  0  0
    9.0315  -14.9232   21.0636 C   0  0  1  0  0  0  0  0  0  0  0  0
    9.6074  -14.8063   22.4085 C   0  0  0  0  0  0  0  0  0  0  0  0
   10.2339  -13.7817   22.7734 O   0  0  0  0  0  0  0  0  0  0  0  0
    9.4418  -15.8918   23.3088 N   0  0  0  0  0  0  0  0  0  0  0  0
   10.0628  -15.9613   24.6221 C   0  0  1  0  0  0  0  0  0  0  0  0
    8.9565  -16.2791   25.5519 C   0  0  0  0  0  0  0  0  0  0  0  0
    7.7969  -15.4508   25.5968 C   0  0  0  0  0  0  0  0  0  0  0  0
    6.5158  -15.8683   25.2958 C   0  0  0  0  0  0  0  0  0  0  0  0
    5.6790  -14.8317   25.4475 N   0  0  0  0  0  0  0  0  0  0  0  0
    6.3412  -13.7226   25.8406 C   0  0  0  0  0  0  0  0  0  0  0  0
    5.9766  -12.4256   26.1311 C   0  0  0  0  0  0  0  0  0  0  0  0
    6.9538  -11.5312   26.5136 C   0  0  0  0  0  0  0  0  0  0  0  0
    8.2717  -11.9275   26.6035 C   0  0  0  0  0  0  0  0  0  0  0  0
    8.6390  -13.2171   26.3154 C   0  0  0  0  0  0  0  0  0  0  0  0
    7.6734  -14.1173   25.9332 C   0  0  0  0  0  0  0  0  0  0  0  0
   11.0535  -17.0419   24.5713 C   0  0  0  0  0  0  0  0  0  0  0  0
   11.0391  -17.9358   23.5157 O   0  0  0  0  0  0  0  0  0  0  0  0
   11.9445  -17.2212   25.4465 O   0  0  0  0  0  0  0  0  0  0  0  0
  2  1  1  0
  3  4  1  6
  3  2  1  0
  5  3  1  0
  5  6  2  0
  7  5  1  0
  8  7  1  0
  9  8  1  0
 10  9  1  0
 10 11  1  0
 11  7  1  0
 11 12  1  1
 12 14  1  0
 13 12  2  0
 15 16  1  1
 15 26  1  0
 15 14  1  0
 17 18  2  0
 17 16  1  0
 19 18  1  0
 20 25  2  0
 20 19  1  0
 21 20  1  0
 22 23  1  0
 22 21  2  0
 23 24  2  0
 24 25  1  0
 25 17  1  0
 26 27  1  0
 28 26  2  0
M  END
$$$$
