SPW.pdb
     RDKit          3D

 28 30  0  0  1  0  0  0  0  0999 V2000
    7.7625  -18.6350   22.2035 O   0  0  0  0  0  0  0  0  0  0  0  0
    6.7222  -18.8282   21.2997 C   0  0  0  0  0  0  0  0  0  0  0  0
    6.9590  -17.9783   20.0417 C   0  0  2  0  0  0  0  0  0  0  0  0
    7.2822  -18.9422   19.0082 N   0  0  0  0  0  0  0  0  0  0  0  0
    8.1472  -17.1346   20.3220 C   0  0  0  0  0  0  0  0  0  0  0  0
    9.2557  -17.5670   19.8403 O   0  0  0  0  0  0  0  0  0  0  0  0
    8.0955  -15.9371   21.0609 N   0  0  0  0  0  0  0  0  0  0  0  0
    7.0022  -15.4458   21.8389 C   0  0  0  0  0  0  0  0  0  0  0  0
    7.1256  -13.9290   21.7137 C   0  0  0  0  0  0  0  0  0  0  0  0
    8.3852  -13.6717   20.9061 C   0  0  0  0  0  0  0  0  0  0  0  0
    9.1566  -14.9768   21.1579 C   0  0  1  0  0  0  0  0  0  0  0  0
    9.7385  -14.8676   22.5009 C   0  0  0  0  0  0  0  0  0  0  0  0
   10.4659  -13.8992   22.8302 O   0  0  0  0  0  0  0  0  0  0  0  0
    9.4605  -15.8949   23.4410 N   0  0  0  0  0  0  0  0  0  0  0  0
   10.0402  -15.9567   24.7733 C   0  0  1  0  0  0  0  0  0  0  0  0
    8.9087  -16.2874   25.6677 C   0  0  0  0  0  0  0  0  0  0  0  0
    7.7516  -15.4549   25.6984 C   0  0  0  0  0  0  0  0  0  0  0  0
    6.4727  -15.8681   25.3826 C   0  0  0  0  0  0  0  0  0  0  0  0
    5.6378  -14.8284   25.5237 N   0  0  0  0  0  0  0  0  0  0  0  0
    6.2994  -13.7214   25.9238 C   0  0  0  0  0  0  0  0  0  0  0  0
    5.9360  -12.4229   26.2092 C   0  0  0  0  0  0  0  0  0  0  0  0
    6.9118  -11.5317   26.6026 C   0  0  0  0  0  0  0  0  0  0  0  0
    8.2271  -11.9327   26.7083 C   0  0  0  0  0  0  0  0  0  0  0  0
    8.5932  -13.2237   26.4254 C   0  0  0  0  0  0  0  0  0  0  0  0
    7.6290  -14.1207   26.0324 C   0  0  0  0  0  0  0  0  0  0  0  0
   11.0447  -17.0255   24.7547 C   0  0  0  0  0  0  0  0  0  0  0  0
   11.9140  -17.1678   25.8214 O   0  0  0  0  0  0  0  0  0  0  0  0
   11.1781  -17.8492   23.8083 O   0  0  0  0  0  0  0  0  0  0  0  0
  2  1  1  0
  3  4  1  6
  3  2  1  0
  5  3  1  0
  5  6  2  0
  7  5  1  0
  8  7  1  0
  9  8  1  0
 10  9  1  0
 10 11  1  0
 11  7  1  0
 11 12  1  1
 12 14  1  0
 13 12  2  0
 15 16  1  1
 15 26  1  0
 15 14  1  0
 17 18  2  0
 17 16  1  0
 19 18  1  0
 20 25  2  0
 20 19  1  0
 21 20  1  0
 22 23  1  0
 22 21  2  0
 23 24  2  0
 24 25  1  0
 25 17  1  0
 26 27  1  0
 28 26  2  0
M  END
$$$$
