SPW.pdb
     RDKit          3D

 28 30  0  0  1  0  0  0  0  0999 V2000
    7.3078  -18.7690   21.9306 O   0  0  0  0  0  0  0  0  0  0  0  0
    6.1041  -18.2529   21.4601 C   0  0  0  0  0  0  0  0  0  0  0  0
    6.3349  -17.5200   20.1295 C   0  0  2  0  0  0  0  0  0  0  0  0
    6.4534  -18.5799   19.1474 N   0  0  0  0  0  0  0  0  0  0  0  0
    7.6345  -16.8152   20.2578 C   0  0  0  0  0  0  0  0  0  0  0  0
    8.6343  -17.3982   19.7024 O   0  0  0  0  0  0  0  0  0  0  0  0
    7.7930  -15.5906   20.9342 N   0  0  0  0  0  0  0  0  0  0  0  0
    6.7957  -14.8630   21.6539 C   0  0  0  0  0  0  0  0  0  0  0  0
    7.2033  -13.4046   21.4571 C   0  0  0  0  0  0  0  0  0  0  0  0
    8.5047  -13.4303   20.6755 C   0  0  0  0  0  0  0  0  0  0  0  0
    9.0130  -14.8404   21.0149 C   0  0  1  0  0  0  0  0  0  0  0  0
    9.5781  -14.7682   22.3675 C   0  0  0  0  0  0  0  0  0  0  0  0
   10.1695  -13.7423   22.7838 O   0  0  0  0  0  0  0  0  0  0  0  0
    9.4430  -15.8994   23.2152 N   0  0  0  0  0  0  0  0  0  0  0  0
   10.2307  -16.1123   24.4190 C   0  0  1  0  0  0  0  0  0  0  0  0
    9.8108  -15.0379   25.3457 C   0  0  0  0  0  0  0  0  0  0  0  0
    8.4257  -14.7809   25.5656 C   0  0  0  0  0  0  0  0  0  0  0  0
    7.4176  -15.7140   25.4271 C   0  0  0  0  0  0  0  0  0  0  0  0
    6.2466  -15.1277   25.7152 N   0  0  0  0  0  0  0  0  0  0  0  0
    6.4181  -13.8296   26.0448 C   0  0  0  0  0  0  0  0  0  0  0  0
    5.5771  -12.8021   26.4143 C   0  0  0  0  0  0  0  0  0  0  0  0
    6.1206  -11.5644   26.6861 C   0  0  0  0  0  0  0  0  0  0  0  0
    7.4810  -11.3588   26.5898 C   0  0  0  0  0  0  0  0  0  0  0  0
    8.3216  -12.3783   26.2226 C   0  0  0  0  0  0  0  0  0  0  0  0
    7.7909  -13.6162   25.9493 C   0  0  0  0  0  0  0  0  0  0  0  0
    9.8765  -17.4394   24.9341 C   0  0  0  0  0  0  0  0  0  0  0  0
    8.8787  -18.1708   24.3152 O   0  0  0  0  0  0  0  0  0  0  0  0
   10.4319  -17.9786   25.9304 O   0  0  0  0  0  0  0  0  0  0  0  0
  2  1  1  0
  3  4  1  6
  3  2  1  0
  5  3  1  0
  5  6  2  0
  7  5  1  0
  8  7  1  0
  9  8  1  0
 10  9  1  0
 10 11  1  0
 11  7  1  0
 11 12  1  1
 12 14  1  0
 13 12  2  0
 15 16  1  1
 15 26  1  0
 15 14  1  0
 17 18  2  0
 17 16  1  0
 19 18  1  0
 20 25  2  0
 20 19  1  0
 21 20  1  0
 22 23  1  0
 22 21  2  0
 23 24  2  0
 24 25  1  0
 25 17  1  0
 26 27  1  0
 28 26  2  0
M  END
$$$$
