SPW.pdb
     RDKit          3D

 28 30  0  0  1  0  0  0  0  0999 V2000
   10.5836  -14.2758   18.1736 O   0  0  0  0  0  0  0  0  0  0  0  0
    9.6462  -14.8662   17.3316 C   0  0  0  0  0  0  0  0  0  0  0  0
    8.2497  -14.2957   17.6235 C   0  0  2  0  0  0  0  0  0  0  0  0
    8.3260  -12.9128   17.1947 N   0  0  0  0  0  0  0  0  0  0  0  0
    8.0731  -14.3493   19.0960 C   0  0  0  0  0  0  0  0  0  0  0  0
    8.1826  -13.2246   19.7050 O   0  0  0  0  0  0  0  0  0  0  0  0
    7.8025  -15.5350   19.8053 N   0  0  0  0  0  0  0  0  0  0  0  0
    7.8249  -16.8714   19.2996 C   0  0  0  0  0  0  0  0  0  0  0  0
    6.7526  -17.5839   20.1206 C   0  0  0  0  0  0  0  0  0  0  0  0
    6.2449  -16.5673   21.1275 C   0  0  0  0  0  0  0  0  0  0  0  0
    7.4432  -15.6074   21.1921 C   0  0  1  0  0  0  0  0  0  0  0  0
    8.4547  -16.2555   22.0353 C   0  0  0  0  0  0  0  0  0  0  0  0
    9.2478  -17.1133   21.5764 O   0  0  0  0  0  0  0  0  0  0  0  0
    8.5238  -15.8901   23.4057 N   0  0  0  0  0  0  0  0  0  0  0  0
    9.7660  -15.7575   24.1504 C   0  0  1  0  0  0  0  0  0  0  0  0
    9.4923  -14.7193   25.1687 C   0  0  0  0  0  0  0  0  0  0  0  0
    8.1676  -14.5285   25.6604 C   0  0  0  0  0  0  0  0  0  0  0  0
    7.2117  -15.5196   25.7603 C   0  0  0  0  0  0  0  0  0  0  0  0
    6.0900  -14.9857   26.2648 N   0  0  0  0  0  0  0  0  0  0  0  0
    6.2447  -13.6675   26.5126 C   0  0  0  0  0  0  0  0  0  0  0  0
    5.4348  -12.6722   27.0156 C   0  0  0  0  0  0  0  0  0  0  0  0
    5.9451  -11.3966   27.1323 C   0  0  0  0  0  0  0  0  0  0  0  0
    7.2422  -11.1221   26.7525 C   0  0  0  0  0  0  0  0  0  0  0  0
    8.0517  -12.1094   26.2516 C   0  0  0  0  0  0  0  0  0  0  0  0
    7.5537  -13.3846   26.1309 C   0  0  0  0  0  0  0  0  0  0  0  0
   10.0377  -17.0606   24.7666 C   0  0  0  0  0  0  0  0  0  0  0  0
   11.2849  -17.3161   25.3078 O   0  0  0  0  0  0  0  0  0  0  0  0
    9.1917  -17.9937   24.8412 O   0  0  0  0  0  0  0  0  0  0  0  0
  2  1  1  0
  3  4  1  1
  3  2  1  0
  5  3  1  0
  5  6  2  0
  7  5  1  0
  8  7  1  0
  9  8  1  0
 10  9  1  0
 10 11  1  0
 11  7  1  0
 11 12  1  1
 12 14  1  0
 13 12  2  0
 15 16  1  1
 15 26  1  0
 15 14  1  0
 17 18  2  0
 17 16  1  0
 19 18  1  0
 20 25  2  0
 20 19  1  0
 21 20  1  0
 22 23  1  0
 22 21  2  0
 23 24  2  0
 24 25  1  0
 25 17  1  0
 26 27  1  0
 28 26  2  0
M  END
$$$$
