SPW.pdb
     RDKit          3D

 28 30  0  0  1  0  0  0  0  0999 V2000
    7.2676  -18.1332   20.3574 O   0  0  0  0  0  0  0  0  0  0  0  0
    7.7069  -18.5320   19.0986 C   0  0  0  0  0  0  0  0  0  0  0  0
    7.8631  -17.3049   18.1872 C   0  0  2  0  0  0  0  0  0  0  0  0
    8.4975  -17.8207   16.9899 N   0  0  0  0  0  0  0  0  0  0  0  0
    8.7932  -16.3807   18.8823 C   0  0  0  0  0  0  0  0  0  0  0  0
   10.0409  -16.6496   18.7460 O   0  0  0  0  0  0  0  0  0  0  0  0
    8.3683  -15.2762   19.6452 N   0  0  0  0  0  0  0  0  0  0  0  0
    7.0276  -14.9346   20.0029 C   0  0  0  0  0  0  0  0  0  0  0  0
    7.0480  -13.4087   20.0562 C   0  0  0  0  0  0  0  0  0  0  0  0
    8.4850  -12.9949   19.7935 C   0  0  0  0  0  0  0  0  0  0  0  0
    9.2297  -14.2748   20.2045 C   0  0  1  0  0  0  0  0  0  0  0  0
    9.2746  -14.2812   21.6715 C   0  0  0  0  0  0  0  0  0  0  0  0
    8.9016  -13.2929   22.3493 O   0  0  0  0  0  0  0  0  0  0  0  0
    9.7562  -15.4460   22.3255 N   0  0  0  0  0  0  0  0  0  0  0  0
    9.6070  -15.6995   23.7498 C   0  0  1  0  0  0  0  0  0  0  0  0
    8.1497  -15.6374   23.9986 C   0  0  0  0  0  0  0  0  0  0  0  0
    7.6523  -15.0729   25.2098 C   0  0  0  0  0  0  0  0  0  0  0  0
    7.3707  -15.7874   26.3570 C   0  0  0  0  0  0  0  0  0  0  0  0
    6.9270  -14.9379   27.2947 N   0  0  0  0  0  0  0  0  0  0  0  0
    6.8951  -13.6705   26.8300 C   0  0  0  0  0  0  0  0  0  0  0  0
    6.5337  -12.4506   27.3599 C   0  0  0  0  0  0  0  0  0  0  0  0
    6.6339  -11.3267   26.5675 C   0  0  0  0  0  0  0  0  0  0  0  0
    7.0875  -11.4219   25.2686 C   0  0  0  0  0  0  0  0  0  0  0  0
    7.4482  -12.6336   24.7372 C   0  0  0  0  0  0  0  0  0  0  0  0
    7.3526  -13.7606   25.5178 C   0  0  0  0  0  0  0  0  0  0  0  0
   10.1422  -17.0412   24.0049 C   0  0  0  0  0  0  0  0  0  0  0  0
   10.3779  -17.8980   22.9447 O   0  0  0  0  0  0  0  0  0  0  0  0
   10.4112  -17.4844   25.1552 O   0  0  0  0  0  0  0  0  0  0  0  0
  2  1  1  0
  3  4  1  6
  3  2  1  0
  5  3  1  0
  5  6  2  0
  7  5  1  0
  8  7  1  0
  9  8  1  0
 10  9  1  0
 10 11  1  0
 11  7  1  0
 11 12  1  1
 12 14  1  0
 13 12  2  0
 15 16  1  6
 15 26  1  0
 15 14  1  0
 17 18  2  0
 17 16  1  0
 19 18  1  0
 20 25  2  0
 20 19  1  0
 21 20  1  0
 22 23  1  0
 22 21  2  0
 23 24  2  0
 24 25  1  0
 25 17  1  0
 26 27  1  0
 28 26  2  0
M  END
$$$$
