RLP.pdb
     RDKit          3D

 27 27  0  0  1  0  0  0  0  0999 V2000
   19.9572  -24.9755  -16.1934 N   0  0  0  0  0  0  0  0  0  0  0  0
   19.7476  -24.3626  -17.4819 C   0  0  0  0  0  0  0  0  0  0  0  0
   19.2898  -25.0644  -18.4505 N   0  0  0  0  0  0  0  0  0  0  0  0
   20.0485  -22.9888  -17.6691 N   0  0  0  0  0  0  0  0  0  0  0  0
   20.3489  -22.0860  -16.5915 C   0  0  0  0  0  0  0  0  0  0  0  0
   20.3315  -22.7378  -15.2517 C   0  0  0  0  0  0  0  0  0  0  0  0
   21.6104  -22.6387  -14.4763 C   0  0  0  0  0  0  0  0  0  0  0  0
   21.6891  -21.5744  -13.4619 C   0  0  2  0  0  0  0  0  0  0  0  0
   20.6515  -20.5822  -13.6316 N   0  0  0  0  0  0  0  0  0  0  0  0
   22.9788  -20.8841  -13.3570 C   0  0  0  0  0  0  0  0  0  0  0  0
   23.0940  -19.7429  -13.8651 O   0  0  0  0  0  0  0  0  0  0  0  0
   19.1225  -24.6834  -19.3910 C   0  0  0  0  0  0  0  0  0  0  0  0
   25.0925  -19.3590  -10.2570 C   0  0  2  0  0  0  0  0  0  0  0  0
   25.3143  -20.8312  -10.2145 C   0  0  0  0  0  0  0  0  0  0  0  0
   25.9385  -21.2957   -8.9160 C   0  0  0  0  0  0  0  0  0  0  0  0
   26.0996  -21.2697  -11.4129 C   0  0  2  0  0  0  0  0  0  0  0  0
   25.4194  -20.7547  -12.6628 N   0  0  0  0  0  0  0  0  0  0  0  0
   24.1168  -21.4240  -12.7139 C   0  0  0  0  0  0  0  0  0  0  0  0
   26.2120  -21.0687  -13.9006 O   0  0  0  0  0  0  0  0  0  0  0  0
   26.4311  -22.2979  -14.0541 N   0  0  0  0  0  0  0  0  0  0  0  0
   26.6486  -20.0554  -14.7803 C   0  0  0  0  0  0  0  0  0  0  0  0
   26.2356  -18.6333  -14.7489 C   0  0  0  0  0  0  0  0  0  0  0  0
   27.4201  -17.8663  -15.2309 C   0  0  0  0  0  0  0  0  0  0  0  0
   28.4219  -18.9054  -15.6451 C   0  0  2  0  0  0  0  0  0  0  0  0
   27.4894  -20.1191  -15.9271 C   0  0  0  0  0  0  0  0  0  0  0  0
   28.2859  -21.2990  -16.1754 O   0  0  0  0  0  0  0  0  0  0  0  0
   28.6657  -21.9542  -15.1348 O   0  0  0  0  0  0  0  0  0  0  0  0
  2  1  1  0
  2  3  2  0
  4  2  1  0
  5  4  1  0
  6  5  1  0
  7  6  1  0
  8  7  1  0
  8  9  1  6
 10 17  1  0
 10  8  1  0
 11 10  2  0
 13 12  1  1
 14 13  1  0
 15 13  1  0
 16 17  1  0
 16 15  1  1
 18 16  1  0
 19 18  2  0
 20 18  1  0
 20 24  1  0
 21 22  1  0
 21 20  1  0
 22 23  1  0
 23 24  1  0
 24 25  1  1
 25 27  1  0
 26 25  2  0
M  END
$$$$
