RLP.pdb
     RDKit          3D

 27 27  0  0  1  0  0  0  0  0999 V2000
   27.4153  -22.3095  -18.6520 N   0  0  0  0  0  0  0  0  0  0  0  0
   28.0666  -23.1447  -17.6733 C   0  0  0  0  0  0  0  0  0  0  0  0
   27.5450  -24.2695  -17.3524 N   0  0  0  0  0  0  0  0  0  0  0  0
   29.2790  -22.7173  -17.0730 N   0  0  0  0  0  0  0  0  0  0  0  0
   29.9259  -21.4721  -17.3855 C   0  0  0  0  0  0  0  0  0  0  0  0
   29.4178  -20.3240  -16.5831 C   0  0  0  0  0  0  0  0  0  0  0  0
   28.6241  -20.6959  -15.3672 C   0  0  0  0  0  0  0  0  0  0  0  0
   27.2412  -20.1947  -15.3001 C   0  0  2  0  0  0  0  0  0  0  0  0
   27.1872  -18.7866  -14.9774 N   0  0  0  0  0  0  0  0  0  0  0  0
   26.3430  -20.9141  -14.3911 C   0  0  0  0  0  0  0  0  0  0  0  0
   26.2970  -22.1662  -14.4561 O   0  0  0  0  0  0  0  0  0  0  0  0
   27.9248  -24.8750  -16.6128 C   0  0  0  0  0  0  0  0  0  0  0  0
   25.9025  -22.1495  -10.3011 C   0  0  2  0  0  0  0  0  0  0  0  0
   25.8485  -20.6898  -10.5925 C   0  0  0  0  0  0  0  0  0  0  0  0
   26.1117  -19.8352   -9.3712 C   0  0  0  0  0  0  0  0  0  0  0  0
   24.5527  -20.3445  -11.2609 C   0  0  2  0  0  0  0  0  0  0  0  0
   24.5155  -20.9930  -12.6278 N   0  0  0  0  0  0  0  0  0  0  0  0
   25.5138  -20.2850  -13.4336 C   0  0  0  0  0  0  0  0  0  0  0  0
   23.1591  -20.8776  -13.2648 O   0  0  0  0  0  0  0  0  0  0  0  0
   22.6960  -19.7081  -13.2434 N   0  0  0  0  0  0  0  0  0  0  0  0
   22.5024  -21.9952  -13.8222 C   0  0  0  0  0  0  0  0  0  0  0  0
   23.1504  -23.2304  -14.3210 C   0  0  0  0  0  0  0  0  0  0  0  0
   22.1722  -24.3247  -14.0573 C   0  0  0  0  0  0  0  0  0  0  0  0
   20.9431  -23.6386  -13.5345 C   0  0  2  0  0  0  0  0  0  0  0  0
   21.1283  -22.2105  -14.1245 C   0  0  0  0  0  0  0  0  0  0  0  0
   20.1217  -21.3252  -13.5846 O   0  0  0  0  0  0  0  0  0  0  0  0
   20.3933  -20.7864  -12.4479 O   0  0  0  0  0  0  0  0  0  0  0  0
  2  1  1  0
  2  3  2  0
  4  2  1  0
  5  4  1  0
  6  5  1  0
  7  6  1  0
  8  7  1  0
  8  9  1  1
 10 17  1  0
 10  8  1  0
 11 10  2  0
 13 12  1  6
 14 13  1  0
 15 13  1  0
 16 17  1  0
 16 15  1  1
 18 16  1  0
 19 18  2  0
 20 18  1  0
 20 24  1  0
 21 22  1  0
 21 20  1  0
 22 23  1  0
 23 24  1  0
 24 25  1  1
 25 27  1  0
 26 25  2  0
M  END
$$$$
