RLP.pdb
     RDKit          3D

 27 27  0  0  1  0  0  0  0  0999 V2000
   18.6915  -21.4765  -16.8072 N   0  0  0  0  0  0  0  0  0  0  0  0
   18.9027  -22.7713  -16.2085 C   0  0  0  0  0  0  0  0  0  0  0  0
   18.2919  -23.7941  -16.6787 N   0  0  0  0  0  0  0  0  0  0  0  0
   19.7841  -22.9051  -15.1048 N   0  0  0  0  0  0  0  0  0  0  0  0
   20.6561  -21.8560  -14.6512 C   0  0  0  0  0  0  0  0  0  0  0  0
   19.9364  -20.6004  -14.2970 C   0  0  0  0  0  0  0  0  0  0  0  0
   20.2217  -20.0653  -12.9263 C   0  0  0  0  0  0  0  0  0  0  0  0
   21.3153  -20.7080  -12.1787 C   0  0  2  0  0  0  0  0  0  0  0  0
   21.0356  -20.7846  -10.7625 N   0  0  0  0  0  0  0  0  0  0  0  0
   22.6461  -20.1186  -12.3579 C   0  0  0  0  0  0  0  0  0  0  0  0
   22.9487  -19.1006  -11.6900 O   0  0  0  0  0  0  0  0  0  0  0  0
   18.4270  -24.7464  -16.3145 C   0  0  0  0  0  0  0  0  0  0  0  0
   28.1699  -21.9118  -13.4366 C   0  0  1  0  0  0  0  0  0  0  0  0
   27.3256  -20.7114  -13.1819 C   0  0  0  0  0  0  0  0  0  0  0  0
   27.9021  -19.8005  -12.1192 C   0  0  0  0  0  0  0  0  0  0  0  0
   25.9187  -21.1256  -12.8751 C   0  0  2  0  0  0  0  0  0  0  0  0
   24.9701  -20.0615  -13.3831 N   0  0  0  0  0  0  0  0  0  0  0  0
   23.6249  -20.6256  -13.2440 C   0  0  0  0  0  0  0  0  0  0  0  0
   25.2393  -19.7122  -14.8199 O   0  0  0  0  0  0  0  0  0  0  0  0
   25.2048  -20.7066  -15.5898 N   0  0  0  0  0  0  0  0  0  0  0  0
   25.5002  -18.3862  -15.2259 C   0  0  0  0  0  0  0  0  0  0  0  0
   25.2789  -17.1651  -14.4171 C   0  0  0  0  0  0  0  0  0  0  0  0
   26.3403  -16.2091  -14.8452 C   0  0  0  0  0  0  0  0  0  0  0  0
   27.0457  -16.8862  -15.9848 C   0  0  2  0  0  0  0  0  0  0  0  0
   25.9413  -17.8666  -16.4755 C   0  0  0  0  0  0  0  0  0  0  0  0
   26.4870  -18.7550  -17.4762 O   0  0  0  0  0  0  0  0  0  0  0  0
   26.1610  -18.5021  -18.6952 O   0  0  0  0  0  0  0  0  0  0  0  0
  2  1  1  0
  2  3  2  0
  4  2  1  0
  5  4  1  0
  6  5  1  0
  7  6  1  0
  8  7  1  0
  8  9  1  1
 10 17  1  0
 10  8  1  0
 11 10  2  0
 13 12  1  6
 14 13  1  0
 15 13  1  0
 16 17  1  0
 16 15  1  1
 18 16  1  0
 19 18  2  0
 20 18  1  0
 20 24  1  0
 21 22  1  0
 21 20  1  0
 22 23  1  0
 23 24  1  0
 24 25  1  1
 25 27  1  0
 26 25  2  0
M  END
$$$$
