RLP.pdb
     RDKit          3D

 27 27  0  0  1  0  0  0  0  0999 V2000
   18.4498  -25.5058  -13.7596 N   0  0  0  0  0  0  0  0  0  0  0  0
   18.7222  -25.0351  -15.0952 C   0  0  0  0  0  0  0  0  0  0  0  0
   18.6503  -25.8496  -16.0810 N   0  0  0  0  0  0  0  0  0  0  0  0
   19.0668  -23.6756  -15.3097 N   0  0  0  0  0  0  0  0  0  0  0  0
   18.9170  -22.6501  -14.3135 C   0  0  0  0  0  0  0  0  0  0  0  0
   19.9149  -22.7462  -13.2112 C   0  0  0  0  0  0  0  0  0  0  0  0
   21.1407  -21.9009  -13.3835 C   0  0  0  0  0  0  0  0  0  0  0  0
   21.5410  -21.0725  -12.2340 C   0  0  2  0  0  0  0  0  0  0  0  0
   20.5651  -20.0490  -11.9340 N   0  0  0  0  0  0  0  0  0  0  0  0
   22.8614  -20.4416  -12.3285 C   0  0  0  0  0  0  0  0  0  0  0  0
   22.9338  -19.2522  -12.7209 O   0  0  0  0  0  0  0  0  0  0  0  0
   18.7981  -25.5643  -17.0581 C   0  0  0  0  0  0  0  0  0  0  0  0
   25.4524  -18.8208   -9.9012 C   0  0  2  0  0  0  0  0  0  0  0  0
   25.5787  -20.2972   -9.7504 C   0  0  0  0  0  0  0  0  0  0  0  0
   26.2985  -20.7003   -8.4812 C   0  0  0  0  0  0  0  0  0  0  0  0
   26.2080  -20.8892  -10.9746 C   0  0  2  0  0  0  0  0  0  0  0  0
   25.3979  -20.4875  -12.1881 N   0  0  0  0  0  0  0  0  0  0  0  0
   24.0752  -21.0906  -12.0035 C   0  0  0  0  0  0  0  0  0  0  0  0
   26.0192  -20.9821  -13.4641 O   0  0  0  0  0  0  0  0  0  0  0  0
   26.1991  -22.2271  -13.4813 N   0  0  0  0  0  0  0  0  0  0  0  0
   26.3528  -20.1042  -14.5172 C   0  0  0  0  0  0  0  0  0  0  0  0
   25.9123  -18.6965  -14.6541 C   0  0  0  0  0  0  0  0  0  0  0  0
   27.0317  -17.9973  -15.3482 C   0  0  0  0  0  0  0  0  0  0  0  0
   28.0156  -19.0764  -15.6977 C   0  0  2  0  0  0  0  0  0  0  0  0
   27.0893  -20.3267  -15.7147 C   0  0  0  0  0  0  0  0  0  0  0  0
   27.8868  -21.5229  -15.8616 O   0  0  0  0  0  0  0  0  0  0  0  0
   28.2165  -21.8386  -17.0649 O   0  0  0  0  0  0  0  0  0  0  0  0
  2  1  1  0
  2  3  2  0
  4  2  1  0
  5  4  1  0
  6  5  1  0
  7  6  1  0
  8  7  1  0
  8  9  1  6
 10 17  1  0
 10  8  1  0
 11 10  2  0
 13 12  1  1
 14 13  1  0
 15 13  1  0
 16 17  1  0
 16 15  1  1
 18 16  1  0
 19 18  2  0
 20 18  1  0
 20 24  1  0
 21 22  1  0
 21 20  1  0
 22 23  1  0
 23 24  1  0
 24 25  1  1
 25 27  1  0
 26 25  2  0
M  END
$$$$
