RLP.pdb
     RDKit          3D

 27 27  0  0  1  0  0  0  0  0999 V2000
   24.4461  -14.7557  -20.6009 N   0  0  0  0  0  0  0  0  0  0  0  0
   25.5854  -15.6081  -20.8359 C   0  0  0  0  0  0  0  0  0  0  0  0
   26.4859  -15.2462  -21.6716 N   0  0  0  0  0  0  0  0  0  0  0  0
   25.7026  -16.8398  -20.1415 N   0  0  0  0  0  0  0  0  0  0  0  0
   24.7070  -17.3385  -19.2323 C   0  0  0  0  0  0  0  0  0  0  0  0
   25.0048  -17.0347  -17.8044 C   0  0  0  0  0  0  0  0  0  0  0  0
   24.9035  -18.2011  -16.8684 C   0  0  0  0  0  0  0  0  0  0  0  0
   26.1674  -18.7273  -16.3265 C   0  0  2  0  0  0  0  0  0  0  0  0
   27.0244  -19.2594  -17.3621 N   0  0  0  0  0  0  0  0  0  0  0  0
   26.0401  -19.7330  -15.2669 C   0  0  0  0  0  0  0  0  0  0  0  0
   26.1144  -20.9465  -15.5764 O   0  0  0  0  0  0  0  0  0  0  0  0
   27.3611  -15.7667  -21.8158 C   0  0  0  0  0  0  0  0  0  0  0  0
   25.2501  -20.0450   -9.2164 C   0  0  1  0  0  0  0  0  0  0  0  0
   25.5647  -20.7929  -10.4655 C   0  0  0  0  0  0  0  0  0  0  0  0
   26.6201  -21.8591  -10.2637 C   0  0  0  0  0  0  0  0  0  0  0  0
   25.9226  -19.8375  -11.5629 C   0  0  2  0  0  0  0  0  0  0  0  0
   25.4731  -20.4171  -12.8866 N   0  0  0  0  0  0  0  0  0  0  0  0
   25.8366  -19.4248  -13.9017 C   0  0  0  0  0  0  0  0  0  0  0  0
   23.9912  -20.6667  -12.9134 O   0  0  0  0  0  0  0  0  0  0  0  0
   23.3220  -19.7559  -12.3609 N   0  0  0  0  0  0  0  0  0  0  0  0
   23.4429  -21.8216  -13.5106 C   0  0  0  0  0  0  0  0  0  0  0  0
   24.1243  -22.7122  -14.4785 C   0  0  0  0  0  0  0  0  0  0  0  0
   23.5747  -24.0738  -14.2181 C   0  0  0  0  0  0  0  0  0  0  0  0
   22.4967  -23.8753  -13.1918 C   0  0  2  0  0  0  0  0  0  0  0  0
   22.1362  -22.3798  -13.4273 C   0  0  0  0  0  0  0  0  0  0  0  0
   21.2220  -21.9310  -12.4020 O   0  0  0  0  0  0  0  0  0  0  0  0
   19.9725  -21.9533  -12.7093 O   0  0  0  0  0  0  0  0  0  0  0  0
  2  1  1  0
  2  3  2  0
  4  2  1  0
  5  4  1  0
  6  5  1  0
  7  6  1  0
  8  7  1  0
  8  9  1  6
 10 17  1  0
 10  8  1  0
 11 10  2  0
 13 12  1  1
 14 13  1  0
 15 13  1  0
 16 17  1  0
 16 15  1  6
 18 16  1  0
 19 18  2  0
 20 18  1  0
 20 24  1  0
 21 22  1  0
 21 20  1  0
 22 23  1  0
 23 24  1  0
 24 25  1  1
 25 27  1  0
 26 25  2  0
M  END
$$$$
