RLP.pdb
     RDKit          3D

 27 27  0  0  1  0  0  0  0  0999 V2000
   16.7449  -20.0640    2.0639 N   0  0  0  0  0  0  0  0  0  0  0  0
   15.9136  -20.2727    3.2237 C   0  0  0  0  0  0  0  0  0  0  0  0
   16.2484  -21.1511    4.0935 N   0  0  0  0  0  0  0  0  0  0  0  0
   14.7325  -19.5054    3.3948 N   0  0  0  0  0  0  0  0  0  0  0  0
   14.7311  -18.0832    3.6046 C   0  0  0  0  0  0  0  0  0  0  0  0
   15.2410  -17.6828    4.9461 C   0  0  0  0  0  0  0  0  0  0  0  0
   14.5696  -16.4888    5.5547 C   0  0  0  0  0  0  0  0  0  0  0  0
   15.1403  -15.1709    5.2300 C   0  0  2  0  0  0  0  0  0  0  0  0
   14.8668  -14.7801    3.8653 N   0  0  0  0  0  0  0  0  0  0  0  0
   16.5774  -15.0169    5.4780 C   0  0  0  0  0  0  0  0  0  0  0  0
   17.3865  -15.5450    4.6778 O   0  0  0  0  0  0  0  0  0  0  0  0
   15.6871  -21.3560    4.9306 C   0  0  0  0  0  0  0  0  0  0  0  0
   20.5224  -11.4048    8.0661 C   0  0  2  0  0  0  0  0  0  0  0  0
   20.2835  -12.4164    6.9993 C   0  0  0  0  0  0  0  0  0  0  0  0
   20.9574  -12.0631    5.6907 C   0  0  0  0  0  0  0  0  0  0  0  0
   18.8135  -12.6572    6.8362 C   0  0  2  0  0  0  0  0  0  0  0  0
   18.5586  -14.1486    6.8108 N   0  0  0  0  0  0  0  0  0  0  0  0
   17.1212  -14.3046    6.5721 C   0  0  0  0  0  0  0  0  0  0  0  0
   18.9423  -14.8037    8.1080 O   0  0  0  0  0  0  0  0  0  0  0  0
   18.3903  -14.2837    9.1118 N   0  0  0  0  0  0  0  0  0  0  0  0
   19.8368  -15.8940    8.1537 C   0  0  0  0  0  0  0  0  0  0  0  0
   20.2160  -16.7616    7.0145 C   0  0  0  0  0  0  0  0  0  0  0  0
   21.6254  -17.1701    7.2801 C   0  0  0  0  0  0  0  0  0  0  0  0
   21.9472  -16.6188    8.6392 C   0  0  2  0  0  0  0  0  0  0  0  0
   20.5220  -16.4887    9.2505 C   0  0  0  0  0  0  0  0  0  0  0  0
   20.5958  -15.7978   10.5176 O   0  0  0  0  0  0  0  0  0  0  0  0
   20.4391  -14.5211   10.4756 O   0  0  0  0  0  0  0  0  0  0  0  0
  2  1  1  0
  2  3  2  0
  4  2  1  0
  5  4  1  0
  6  5  1  0
  7  6  1  0
  8  7  1  0
  8  9  1  6
 10 17  1  0
 10  8  1  0
 11 10  2  0
 13 12  1  1
 14 13  1  0
 15 13  1  0
 16 17  1  0
 16 15  1  6
 18 16  1  0
 19 18  2  0
 20 18  1  0
 20 24  1  0
 21 22  1  0
 21 20  1  0
 22 23  1  0
 23 24  1  0
 24 25  1  6
 25 27  1  0
 26 25  2  0
M  END
$$$$
