RLP.pdb
     RDKit          3D

 27 27  0  0  1  0  0  0  0  0999 V2000
   26.8789  -16.6062  -14.7828 N   0  0  0  0  0  0  0  0  0  0  0  0
   26.0046  -16.2849  -15.8838 C   0  0  0  0  0  0  0  0  0  0  0  0
   25.6052  -15.0787  -16.0445 N   0  0  0  0  0  0  0  0  0  0  0  0
   25.5930  -17.3039  -16.7811 N   0  0  0  0  0  0  0  0  0  0  0  0
   26.0421  -18.6670  -16.6972 C   0  0  0  0  0  0  0  0  0  0  0  0
   27.3336  -18.9084  -17.3999 C   0  0  0  0  0  0  0  0  0  0  0  0
   27.7683  -20.3415  -17.4633 C   0  0  0  0  0  0  0  0  0  0  0  0
   28.2907  -20.9309  -16.2193 C   0  0  2  0  0  0  0  0  0  0  0  0
   29.1530  -22.0631  -16.4730 N   0  0  0  0  0  0  0  0  0  0  0  0
   27.2860  -21.3257  -15.2268 C   0  0  0  0  0  0  0  0  0  0  0  0
   26.6420  -22.3865  -15.4109 O   0  0  0  0  0  0  0  0  0  0  0  0
   25.0781  -14.7662  -16.8705 C   0  0  0  0  0  0  0  0  0  0  0  0
   24.2162  -20.9825  -11.0584 C   0  0  1  0  0  0  0  0  0  0  0  0
   25.6431  -20.9768  -10.6312 C   0  0  0  0  0  0  0  0  0  0  0  0
   25.8651  -20.2387   -9.3284 C   0  0  0  0  0  0  0  0  0  0  0  0
   26.5106  -20.4557  -11.7362 C   0  0  1  0  0  0  0  0  0  0  0  0
   26.0071  -20.9992  -13.0557 N   0  0  0  0  0  0  0  0  0  0  0  0
   26.9890  -20.5827  -14.0606 C   0  0  0  0  0  0  0  0  0  0  0  0
   24.6491  -20.4567  -13.4024 O   0  0  0  0  0  0  0  0  0  0  0  0
   24.5133  -19.2373  -13.1242 N   0  0  0  0  0  0  0  0  0  0  0  0
   23.6509  -21.2676  -13.9830 C   0  0  0  0  0  0  0  0  0  0  0  0
   23.8636  -22.5754  -14.6455 C   0  0  0  0  0  0  0  0  0  0  0  0
   22.6244  -23.3607  -14.3780 C   0  0  0  0  0  0  0  0  0  0  0  0
   21.6964  -22.4089  -13.6797 C   0  0  2  0  0  0  0  0  0  0  0  0
   22.2575  -21.0404  -14.1637 C   0  0  0  0  0  0  0  0  0  0  0  0
   21.6019  -19.9657  -13.4539 O   0  0  0  0  0  0  0  0  0  0  0  0
   21.9831  -19.7747  -12.2397 O   0  0  0  0  0  0  0  0  0  0  0  0
  2  1  1  0
  2  3  2  0
  4  2  1  0
  5  4  1  0
  6  5  1  0
  7  6  1  0
  8  7  1  0
  8  9  1  6
 10 17  1  0
 10  8  1  0
 11 10  2  0
 13 12  1  1
 14 13  1  0
 15 13  1  0
 16 17  1  0
 16 15  1  1
 18 16  1  0
 19 18  2  0
 20 18  1  0
 20 24  1  0
 21 22  1  0
 21 20  1  0
 22 23  1  0
 23 24  1  0
 24 25  1  1
 25 27  1  0
 26 25  2  0
M  END
$$$$
