RLP.pdb
     RDKit          3D

 27 27  0  0  1  0  0  0  0  0999 V2000
   27.8186  -20.4350  -20.0589 N   0  0  0  0  0  0  0  0  0  0  0  0
   26.8223  -19.3977  -20.1629 C   0  0  0  0  0  0  0  0  0  0  0  0
   25.6237  -19.7015  -20.4968 N   0  0  0  0  0  0  0  0  0  0  0  0
   27.1739  -18.0495  -19.8951 N   0  0  0  0  0  0  0  0  0  0  0  0
   28.2901  -17.6665  -19.0740 C   0  0  0  0  0  0  0  0  0  0  0  0
   27.8947  -17.2249  -17.7070 C   0  0  0  0  0  0  0  0  0  0  0  0
   27.1798  -18.2543  -16.8848 C   0  0  0  0  0  0  0  0  0  0  0  0
   28.0065  -19.0704  -15.9802 C   0  0  2  0  0  0  0  0  0  0  0  0
   28.9734  -19.8698  -16.6985 N   0  0  0  0  0  0  0  0  0  0  0  0
   27.2745  -19.9447  -15.0581 C   0  0  0  0  0  0  0  0  0  0  0  0
   26.9046  -21.0728  -15.4636 O   0  0  0  0  0  0  0  0  0  0  0  0
   24.8911  -18.9990  -20.6632 C   0  0  0  0  0  0  0  0  0  0  0  0
   25.4441  -19.9656   -9.1616 C   0  0  1  0  0  0  0  0  0  0  0  0
   25.5268  -20.6676  -10.4726 C   0  0  0  0  0  0  0  0  0  0  0  0
   26.0628  -22.0782  -10.3527 C   0  0  0  0  0  0  0  0  0  0  0  0
   26.3066  -19.8432  -11.4512 C   0  0  2  0  0  0  0  0  0  0  0  0
   26.1590  -20.4464  -12.8312 N   0  0  0  0  0  0  0  0  0  0  0  0
   26.9524  -19.5988  -13.7251 C   0  0  0  0  0  0  0  0  0  0  0  0
   24.7247  -20.4724  -13.2796 O   0  0  0  0  0  0  0  0  0  0  0  0
   24.1090  -19.4008  -13.0441 N   0  0  0  0  0  0  0  0  0  0  0  0
   24.1610  -21.6067  -13.9015 C   0  0  0  0  0  0  0  0  0  0  0  0
   24.9063  -22.6919  -14.5803 C   0  0  0  0  0  0  0  0  0  0  0  0
   24.0974  -23.9252  -14.3606 C   0  0  0  0  0  0  0  0  0  0  0  0
   22.8468  -23.4600  -13.6717 C   0  0  2  0  0  0  0  0  0  0  0  0
   22.8015  -21.9694  -14.1164 C   0  0  0  0  0  0  0  0  0  0  0  0
   21.7482  -21.2803  -13.4065 O   0  0  0  0  0  0  0  0  0  0  0  0
   22.0059  -20.9554  -12.1882 O   0  0  0  0  0  0  0  0  0  0  0  0
  2  1  1  0
  2  3  2  0
  4  2  1  0
  5  4  1  0
  6  5  1  0
  7  6  1  0
  8  7  1  0
  8  9  1  6
 10 17  1  0
 10  8  1  0
 11 10  2  0
 13 12  1  1
 14 13  1  0
 15 13  1  0
 16 17  1  0
 16 15  1  1
 18 16  1  0
 19 18  2  0
 20 18  1  0
 20 24  1  0
 21 22  1  0
 21 20  1  0
 22 23  1  0
 23 24  1  0
 24 25  1  1
 25 27  1  0
 26 25  2  0
M  END
$$$$
