RLP.pdb
     RDKit          3D

 27 27  0  0  1  0  0  0  0  0999 V2000
   20.5312  -26.2735  -14.1350 N   0  0  0  0  0  0  0  0  0  0  0  0
   19.3108  -25.7280  -13.5939 C   0  0  0  0  0  0  0  0  0  0  0  0
   18.2563  -26.4535  -13.5519 N   0  0  0  0  0  0  0  0  0  0  0  0
   19.2851  -24.3939  -13.1116 N   0  0  0  0  0  0  0  0  0  0  0  0
   19.0028  -23.2536  -13.9402 C   0  0  0  0  0  0  0  0  0  0  0  0
   20.1004  -22.9298  -14.8945 C   0  0  0  0  0  0  0  0  0  0  0  0
   21.3763  -22.4584  -14.2647 C   0  0  0  0  0  0  0  0  0  0  0  0
   21.3373  -21.1517  -13.5873 C   0  0  2  0  0  0  0  0  0  0  0  0
   20.5840  -20.1717  -14.3370 N   0  0  0  0  0  0  0  0  0  0  0  0
   22.6387  -20.5712  -13.2409 C   0  0  0  0  0  0  0  0  0  0  0  0
   22.9391  -19.4456  -13.7066 O   0  0  0  0  0  0  0  0  0  0  0  0
   17.3646  -26.1273  -13.1566 C   0  0  0  0  0  0  0  0  0  0  0  0
   27.6521  -21.3147  -10.2160 C   0  0  1  0  0  0  0  0  0  0  0  0
   26.4527  -20.4319  -10.1918 C   0  0  0  0  0  0  0  0  0  0  0  0
   26.2012  -19.8169   -8.8317 C   0  0  0  0  0  0  0  0  0  0  0  0
   25.2577  -21.1705  -10.7129 C   0  0  2  0  0  0  0  0  0  0  0  0
   24.8964  -20.6230  -12.0766 N   0  0  0  0  0  0  0  0  0  0  0  0
   23.5912  -21.2015  -12.4068 C   0  0  0  0  0  0  0  0  0  0  0  0
   25.9103  -21.0038  -13.1186 O   0  0  0  0  0  0  0  0  0  0  0  0
   26.2807  -22.2034  -13.0393 N   0  0  0  0  0  0  0  0  0  0  0  0
   26.3757  -20.0775  -14.0760 C   0  0  0  0  0  0  0  0  0  0  0  0
   25.8535  -18.7084  -14.2932 C   0  0  0  0  0  0  0  0  0  0  0  0
   27.0270  -17.9032  -14.7385 C   0  0  0  0  0  0  0  0  0  0  0  0
   28.1504  -18.8889  -14.8838 C   0  0  2  0  0  0  0  0  0  0  0  0
   27.3578  -20.2110  -15.0976 C   0  0  0  0  0  0  0  0  0  0  0  0
   28.2681  -21.3333  -15.0836 O   0  0  0  0  0  0  0  0  0  0  0  0
   28.7445  -21.6894  -16.2249 O   0  0  0  0  0  0  0  0  0  0  0  0
  2  1  1  0
  2  3  2  0
  4  2  1  0
  5  4  1  0
  6  5  1  0
  7  6  1  0
  8  7  1  0
  8  9  1  6
 10 17  1  0
 10  8  1  0
 11 10  2  0
 13 12  1  6
 14 13  1  0
 15 13  1  0
 16 17  1  0
 16 15  1  1
 18 16  1  0
 19 18  2  0
 20 18  1  0
 20 24  1  0
 21 22  1  0
 21 20  1  0
 22 23  1  0
 23 24  1  0
 24 25  1  1
 25 27  1  0
 26 25  2  0
M  END
$$$$
