RLP.pdb
     RDKit          3D

 27 27  0  0  1  0  0  0  0  0999 V2000
   17.2158  -24.7630  -13.6795 N   0  0  0  0  0  0  0  0  0  0  0  0
   17.4350  -23.7706  -12.6564 C   0  0  0  0  0  0  0  0  0  0  0  0
   16.6043  -23.6653  -11.6873 N   0  0  0  0  0  0  0  0  0  0  0  0
   18.5672  -22.9185  -12.7284 N   0  0  0  0  0  0  0  0  0  0  0  0
   19.8279  -23.3165  -13.2930 C   0  0  0  0  0  0  0  0  0  0  0  0
   20.2314  -22.5007  -14.4728 C   0  0  0  0  0  0  0  0  0  0  0  0
   20.7317  -21.1236  -14.1565 C   0  0  0  0  0  0  0  0  0  0  0  0
   21.4971  -20.9674  -12.9084 C   0  0  2  0  0  0  0  0  0  0  0  0
   20.7534  -20.2463  -11.9000 N   0  0  0  0  0  0  0  0  0  0  0  0
   22.8196  -20.3480  -13.0417 C   0  0  0  0  0  0  0  0  0  0  0  0
   22.8941  -19.0980  -13.1185 O   0  0  0  0  0  0  0  0  0  0  0  0
   16.7245  -22.9985  -10.9136 C   0  0  0  0  0  0  0  0  0  0  0  0
   28.5848  -21.6575  -11.5990 C   0  0  1  0  0  0  0  0  0  0  0  0
   27.6489  -20.7574  -12.3286 C   0  0  0  0  0  0  0  0  0  0  0  0
   27.6818  -19.3333  -11.8165 C   0  0  0  0  0  0  0  0  0  0  0  0
   26.2660  -21.3341  -12.3198 C   0  0  2  0  0  0  0  0  0  0  0  0
   25.3565  -20.4455  -13.1404 N   0  0  0  0  0  0  0  0  0  0  0  0
   24.0331  -21.0726  -13.0904 C   0  0  0  0  0  0  0  0  0  0  0  0
   25.8224  -20.3319  -14.5648 O   0  0  0  0  0  0  0  0  0  0  0  0
   25.9004  -21.4407  -15.1540 N   0  0  0  0  0  0  0  0  0  0  0  0
   26.1313  -19.0848  -15.1484 C   0  0  0  0  0  0  0  0  0  0  0  0
   25.7494  -17.7545  -14.6206 C   0  0  0  0  0  0  0  0  0  0  0  0
   26.8554  -16.8376  -15.0203 C   0  0  0  0  0  0  0  0  0  0  0  0
   27.7647  -17.6669  -15.8807 C   0  0  2  0  0  0  0  0  0  0  0  0
   26.7818  -18.7679  -16.3741 C   0  0  0  0  0  0  0  0  0  0  0  0
   27.5122  -19.7886  -17.0903 O   0  0  0  0  0  0  0  0  0  0  0  0
   28.3126  -20.5101  -16.3868 O   0  0  0  0  0  0  0  0  0  0  0  0
  2  1  1  0
  2  3  2  0
  4  2  1  0
  5  4  1  0
  6  5  1  0
  7  6  1  0
  8  7  1  0
  8  9  1  1
 10 17  1  0
 10  8  1  0
 11 10  2  0
 13 12  1  6
 14 13  1  0
 15 13  1  0
 16 17  1  0
 16 15  1  1
 18 16  1  0
 19 18  2  0
 20 18  1  0
 20 24  1  0
 21 22  1  0
 21 20  1  0
 22 23  1  0
 23 24  1  0
 24 25  1  1
 25 27  1  0
 26 25  2  0
M  END
$$$$
