RLP.pdb
     RDKit          3D

 27 27  0  0  1  0  0  0  0  0999 V2000
   19.8636  -17.2733  -17.0653 N   0  0  0  0  0  0  0  0  0  0  0  0
   20.4524  -18.2962  -17.8939 C   0  0  0  0  0  0  0  0  0  0  0  0
   20.5538  -18.1082  -19.1567 N   0  0  0  0  0  0  0  0  0  0  0  0
   20.9155  -19.5022  -17.3073 N   0  0  0  0  0  0  0  0  0  0  0  0
   20.8513  -19.7773  -15.8978 C   0  0  0  0  0  0  0  0  0  0  0  0
   21.6104  -18.7990  -15.0691 C   0  0  0  0  0  0  0  0  0  0  0  0
   23.0380  -19.1651  -14.7958 C   0  0  0  0  0  0  0  0  0  0  0  0
   23.2894  -20.0228  -13.6258 C   0  0  2  0  0  0  0  0  0  0  0  0
   22.1896  -20.0009  -12.6878 N   0  0  0  0  0  0  0  0  0  0  0  0
   24.5308  -19.7567  -12.8919 C   0  0  0  0  0  0  0  0  0  0  0  0
   25.5667  -19.4774  -13.5421 O   0  0  0  0  0  0  0  0  0  0  0  0
   20.9513  -18.8062  -19.7991 C   0  0  0  0  0  0  0  0  0  0  0  0
   26.7701  -19.6786   -7.3012 C   0  0  1  0  0  0  0  0  0  0  0  0
   26.8739  -19.0097   -8.6280 C   0  0  0  0  0  0  0  0  0  0  0  0
   27.2913  -17.5582   -8.5249 C   0  0  0  0  0  0  0  0  0  0  0  0
   25.5980  -19.1825   -9.3944 C   0  0  2  0  0  0  0  0  0  0  0  0
   25.9177  -19.7435  -10.7630 N   0  0  0  0  0  0  0  0  0  0  0  0
   24.6421  -19.7939  -11.4825 C   0  0  0  0  0  0  0  0  0  0  0  0
   26.5188  -21.1183  -10.6774 O   0  0  0  0  0  0  0  0  0  0  0  0
   25.8149  -21.9306  -10.0237 N   0  0  0  0  0  0  0  0  0  0  0  0
   27.7539  -21.4285  -11.2854 C   0  0  0  0  0  0  0  0  0  0  0  0
   28.4591  -20.6097  -12.2984 C   0  0  0  0  0  0  0  0  0  0  0  0
   29.9117  -20.8434  -12.0549 C   0  0  0  0  0  0  0  0  0  0  0  0
   29.9687  -21.8984  -10.9878 C   0  0  2  0  0  0  0  0  0  0  0  0
   28.5821  -22.5805  -11.1722 C   0  0  0  0  0  0  0  0  0  0  0  0
   28.3594  -23.5294  -10.1053 O   0  0  0  0  0  0  0  0  0  0  0  0
   27.9561  -23.0380   -8.9864 O   0  0  0  0  0  0  0  0  0  0  0  0
  2  1  1  0
  2  3  2  0
  4  2  1  0
  5  4  1  0
  6  5  1  0
  7  6  1  0
  8  7  1  0
  8  9  1  1
 10 17  1  0
 10  8  1  0
 11 10  2  0
 13 12  1  6
 14 13  1  0
 15 13  1  0
 16 17  1  0
 16 15  1  6
 18 16  1  0
 19 18  2  0
 20 18  1  0
 20 24  1  0
 21 22  1  0
 21 20  1  0
 22 23  1  0
 23 24  1  0
 24 25  1  1
 25 27  1  0
 26 25  2  0
M  END
$$$$
