RLP.pdb
     RDKit          3D

 27 27  0  0  1  0  0  0  0  0999 V2000
   22.0712  -10.9274  -20.8620 N   0  0  0  0  0  0  0  0  0  0  0  0
   21.1317  -10.9662  -21.9555 C   0  0  0  0  0  0  0  0  0  0  0  0
   21.5615  -11.0828  -23.1563 N   0  0  0  0  0  0  0  0  0  0  0  0
   19.7398  -10.8757  -21.6958 N   0  0  0  0  0  0  0  0  0  0  0  0
   19.1900  -10.5587  -20.4059 C   0  0  0  0  0  0  0  0  0  0  0  0
   19.0847  -11.7383  -19.5018 C   0  0  0  0  0  0  0  0  0  0  0  0
   20.3672  -12.1616  -18.8516 C   0  0  0  0  0  0  0  0  0  0  0  0
   20.2705  -12.7008  -17.4849 C   0  0  2  0  0  0  0  0  0  0  0  0
   19.2760  -13.7447  -17.3803 N   0  0  0  0  0  0  0  0  0  0  0  0
   20.0251  -11.7177  -16.4248 C   0  0  0  0  0  0  0  0  0  0  0  0
   18.8718  -11.6319  -15.9384 O   0  0  0  0  0  0  0  0  0  0  0  0
   20.9441  -11.0654  -23.9787 C   0  0  0  0  0  0  0  0  0  0  0  0
   20.2685   -9.4362  -12.1742 C   0  0  1  0  0  0  0  0  0  0  0  0
   21.6697   -9.2339  -12.6371 C   0  0  0  0  0  0  0  0  0  0  0  0
   22.0197   -7.7746  -12.8354 C   0  0  0  0  0  0  0  0  0  0  0  0
   21.9316  -10.0542  -13.8634 C   0  0  1  0  0  0  0  0  0  0  0  0
   20.7704   -9.8940  -14.8204 N   0  0  0  0  0  0  0  0  0  0  0  0
   21.0123  -10.8479  -15.9061 C   0  0  0  0  0  0  0  0  0  0  0  0
   20.6856   -8.4968  -15.3678 O   0  0  0  0  0  0  0  0  0  0  0  0
   21.8086   -7.9969  -15.6354 N   0  0  0  0  0  0  0  0  0  0  0  0
   19.4479   -7.8440  -15.5502 C   0  0  0  0  0  0  0  0  0  0  0  0
   18.1103   -8.4787  -15.5051 C   0  0  0  0  0  0  0  0  0  0  0  0
   17.1940   -7.4330  -14.9660 C   0  0  0  0  0  0  0  0  0  0  0  0
   18.0336   -6.1935  -14.8502 C   0  0  2  0  0  0  0  0  0  0  0  0
   19.1503   -6.4946  -15.8914 C   0  0  0  0  0  0  0  0  0  0  0  0
   20.1798   -5.4838  -15.8088 O   0  0  0  0  0  0  0  0  0  0  0  0
   19.9849   -4.4198  -16.5061 O   0  0  0  0  0  0  0  0  0  0  0  0
  2  1  1  0
  2  3  2  0
  4  2  1  0
  5  4  1  0
  6  5  1  0
  7  6  1  0
  8  7  1  0
  8  9  1  6
 10 17  1  0
 10  8  1  0
 11 10  2  0
 13 12  1  1
 14 13  1  0
 15 13  1  0
 16 17  1  0
 16 15  1  1
 18 16  1  0
 19 18  2  0
 20 18  1  0
 20 24  1  0
 21 22  1  0
 21 20  1  0
 22 23  1  0
 23 24  1  0
 24 25  1  1
 25 27  1  0
 26 25  2  0
M  END
$$$$
