RLP.pdb
     RDKit          3D

 27 27  0  0  1  0  0  0  0  0999 V2000
   20.8087  -20.1480  -12.4366 N   0  0  0  0  0  0  0  0  0  0  0  0
   21.4664  -20.4608  -13.6813 C   0  0  0  0  0  0  0  0  0  0  0  0
   20.8721  -21.1970  -14.5445 N   0  0  0  0  0  0  0  0  0  0  0  0
   22.7649  -19.9522  -13.9426 N   0  0  0  0  0  0  0  0  0  0  0  0
   23.8543  -20.0338  -13.0082 C   0  0  0  0  0  0  0  0  0  0  0  0
   23.4125  -20.0579  -11.5854 C   0  0  0  0  0  0  0  0  0  0  0  0
   24.5156  -20.1577  -10.5754 C   0  0  0  0  0  0  0  0  0  0  0  0
   25.7429  -20.8506  -11.0013 C   0  0  2  0  0  0  0  0  0  0  0  0
   25.4579  -22.0297  -11.7877 N   0  0  0  0  0  0  0  0  0  0  0  0
   26.6736  -21.2207   -9.9302 C   0  0  0  0  0  0  0  0  0  0  0  0
   26.4797  -22.2926   -9.3077 O   0  0  0  0  0  0  0  0  0  0  0  0
   21.3096  -21.4943  -15.4265 C   0  0  0  0  0  0  0  0  0  0  0  0
   30.1717  -22.9866   -9.1698 C   0  0  2  0  0  0  0  0  0  0  0  0
   30.4002  -21.6605   -9.8083 C   0  0  0  0  0  0  0  0  0  0  0  0
   31.7944  -21.5141  -10.3795 C   0  0  0  0  0  0  0  0  0  0  0  0
   30.0589  -20.5605   -8.8498 C   0  0  2  0  0  0  0  0  0  0  0  0
   28.6306  -20.7396   -8.3829 N   0  0  0  0  0  0  0  0  0  0  0  0
   27.7896  -20.4418   -9.5453 C   0  0  0  0  0  0  0  0  0  0  0  0
   28.2929  -19.8137   -7.2483 O   0  0  0  0  0  0  0  0  0  0  0  0
   28.1234  -18.6211   -7.6113 N   0  0  0  0  0  0  0  0  0  0  0  0
   28.1845  -20.2755   -5.9193 C   0  0  0  0  0  0  0  0  0  0  0  0
   27.8014  -21.6430   -5.4980 C   0  0  0  0  0  0  0  0  0  0  0  0
   28.5464  -21.8897   -4.2300 C   0  0  0  0  0  0  0  0  0  0  0  0
   29.2261  -20.5892   -3.9115 C   0  0  2  0  0  0  0  0  0  0  0  0
   28.3197  -19.5856   -4.6817 C   0  0  0  0  0  0  0  0  0  0  0  0
   28.9129  -18.2683   -4.6490 O   0  0  0  0  0  0  0  0  0  0  0  0
   29.7068  -17.9813   -5.6204 O   0  0  0  0  0  0  0  0  0  0  0  0
  2  1  1  0
  2  3  2  0
  4  2  1  0
  5  4  1  0
  6  5  1  0
  7  6  1  0
  8  7  1  0
  8  9  1  1
 10 17  1  0
 10  8  1  0
 11 10  2  0
 13 12  1  6
 14 13  1  0
 15 13  1  0
 16 17  1  0
 16 15  1  6
 18 16  1  0
 19 18  2  0
 20 18  1  0
 20 24  1  0
 21 22  1  0
 21 20  1  0
 22 23  1  0
 23 24  1  0
 24 25  1  6
 25 27  1  0
 26 25  2  0
M  END
$$$$
