VLC.pdb
     RDKit          3D

 22 21  0  0  1  0  0  0  0  0999 V2000
   19.3762  -12.2271  -19.6487 C   0  0  0  0  0  0  0  0  0  0  0  0
   20.6054  -12.7105  -20.3593 C   0  0  2  0  0  0  0  0  0  0  0  0
   20.1752  -13.5244  -21.5620 C   0  0  0  0  0  0  0  0  0  0  0  0
   21.5475  -13.4775  -19.4757 C   0  0  2  0  0  0  0  0  0  0  0  0
   20.8785  -14.7084  -19.1000 N   0  0  0  0  0  0  0  0  0  0  0  0
   21.9464  -12.7518  -18.2685 C   0  0  0  0  0  0  0  0  0  0  0  0
   21.2725  -12.6981  -17.2080 O   0  0  0  0  0  0  0  0  0  0  0  0
   27.0492  -10.0601  -16.1774 C   0  0  0  0  0  0  0  0  0  0  0  0
   25.5105  -10.1313  -15.9822 C   0  0  2  0  0  0  0  0  0  0  0  0
   25.2960  -10.5466  -14.5623 C   0  0  0  0  0  0  0  0  0  0  0  0
   25.0217  -11.0713  -17.0079 C   0  0  0  0  0  0  0  0  0  0  0  0
   23.5388  -11.1980  -17.0649 C   0  0  2  0  0  0  0  0  0  0  0  0
   23.1764  -12.0406  -18.2438 N   0  0  0  0  0  0  0  0  0  0  0  0
   22.7757   -9.9571  -17.2248 C   0  0  0  0  0  0  0  0  0  0  0  0
   22.8125   -9.3508  -18.3259 O   0  0  0  0  0  0  0  0  0  0  0  0
   21.9678   -9.3496  -16.2309 N   0  0  0  0  0  0  0  0  0  0  0  0
   21.2639   -8.0945  -16.4653 C   0  0  1  0  0  0  0  0  0  0  0  0
   19.7916   -8.3378  -16.2080 C   0  0  0  0  0  0  0  0  0  0  0  0
   18.8858   -6.7690  -16.1787 S   0  0  0  0  0  0  0  0  0  0  0  0
   21.7304   -7.0846  -15.4856 C   0  0  0  0  0  0  0  0  0  0  0  0
   22.1610   -7.4513  -14.3630 O   0  0  0  0  0  0  0  0  0  0  0  0
   21.7011   -5.7347  -15.7848 O   0  0  0  0  0  0  0  0  0  0  0  0
  2  1  1  1
  2  4  1  0
  2  3  1  0
  4  6  1  0
  4  5  1  1
  6  7  2  0
  9  8  1  6
  9 11  1  0
 10  9  1  0
 12 11  1  6
 12 14  1  0
 13 12  1  0
 13  6  1  0
 14 16  1  0
 15 14  2  0
 16 17  1  0
 17 18  1  1
 18 19  1  0
 20 17  1  0
 21 20  2  0
 22 20  1  0
M  END
$$$$
