VLC.pdb
     RDKit          3D

 22 21  0  0  1  0  0  0  0  0999 V2000
   25.7020  -31.8386   -3.5115 C   0  0  0  0  0  0  0  0  0  0  0  0
   25.5465  -32.1674   -2.0563 C   0  0  2  0  0  0  0  0  0  0  0  0
   25.8596  -30.9253   -1.2481 C   0  0  0  0  0  0  0  0  0  0  0  0
   26.3718  -33.3422   -1.6145 C   0  0  2  0  0  0  0  0  0  0  0  0
   26.0172  -34.4614   -2.4662 N   0  0  0  0  0  0  0  0  0  0  0  0
   26.1675  -33.7127   -0.2129 C   0  0  0  0  0  0  0  0  0  0  0  0
   25.1465  -34.2957    0.2336 O   0  0  0  0  0  0  0  0  0  0  0  0
   27.7865  -36.6547    2.7400 C   0  0  0  0  0  0  0  0  0  0  0  0
   28.7650  -35.6025    2.1517 C   0  0  2  0  0  0  0  0  0  0  0  0
   30.1342  -36.0428    2.5593 C   0  0  0  0  0  0  0  0  0  0  0  0
   28.3216  -34.3023    2.6877 C   0  0  0  0  0  0  0  0  0  0  0  0
   27.0011  -33.8458    2.1716 C   0  0  2  0  0  0  0  0  0  0  0  0
   27.1671  -33.4131    0.7515 N   0  0  0  0  0  0  0  0  0  0  0  0
   26.3828  -32.7066    2.8553 C   0  0  0  0  0  0  0  0  0  0  0  0
   26.8715  -31.5583    2.7007 O   0  0  0  0  0  0  0  0  0  0  0  0
   25.2467  -32.7675    3.7010 N   0  0  0  0  0  0  0  0  0  0  0  0
   24.7070  -31.5839    4.3596 C   0  0  1  0  0  0  0  0  0  0  0  0
   23.3070  -31.3599    3.8279 C   0  0  0  0  0  0  0  0  0  0  0  0
   22.6582  -29.7687    4.4021 S   0  0  0  0  0  0  0  0  0  0  0  0
   24.5988  -31.8437    5.8150 C   0  0  0  0  0  0  0  0  0  0  0  0
   24.5728  -33.0259    6.2413 O   0  0  0  0  0  0  0  0  0  0  0  0
   24.5252  -30.8018    6.7214 O   0  0  0  0  0  0  0  0  0  0  0  0
  2  1  1  6
  2  4  1  0
  2  3  1  0
  4  6  1  0
  4  5  1  6
  6  7  2  0
  9  8  1  1
  9 11  1  0
 10  9  1  0
 12 11  1  1
 12 14  1  0
 13 12  1  0
 13  6  1  0
 14 16  1  0
 15 14  2  0
 16 17  1  0
 17 18  1  6
 18 19  1  0
 20 17  1  0
 21 20  2  0
 22 20  1  0
M  END
$$$$
