VLC.pdb
     RDKit          3D

 22 21  0  0  1  0  0  0  0  0999 V2000
   21.3524  -13.9486  -21.8113 C   0  0  0  0  0  0  0  0  0  0  0  0
   21.6201  -13.1015  -20.6029 C   0  0  2  0  0  0  0  0  0  0  0  0
   21.9448  -11.6961  -21.0648 C   0  0  0  0  0  0  0  0  0  0  0  0
   22.6912  -13.6548  -19.7068 C   0  0  2  0  0  0  0  0  0  0  0  0
   22.2629  -14.9763  -19.2899 N   0  0  0  0  0  0  0  0  0  0  0  0
   22.9541  -12.8324  -18.5245 C   0  0  0  0  0  0  0  0  0  0  0  0
   22.1582  -12.6844  -17.5621 O   0  0  0  0  0  0  0  0  0  0  0  0
   25.7254  -10.7542  -14.6397 C   0  0  0  0  0  0  0  0  0  0  0  0
   26.3047  -10.1933  -15.9665 C   0  0  2  0  0  0  0  0  0  0  0  0
   25.7505   -8.8118  -16.1045 C   0  0  0  0  0  0  0  0  0  0  0  0
   25.9065  -11.1533  -17.0126 C   0  0  0  0  0  0  0  0  0  0  0  0
   24.4369  -11.2345  -17.2414 C   0  0  2  0  0  0  0  0  0  0  0  0
   24.1842  -12.1303  -18.4096 N   0  0  0  0  0  0  0  0  0  0  0  0
   23.7475   -9.9804  -17.5569 C   0  0  0  0  0  0  0  0  0  0  0  0
   24.0097   -9.3897  -18.6357 O   0  0  0  0  0  0  0  0  0  0  0  0
   22.7771   -9.3432  -16.7433 N   0  0  0  0  0  0  0  0  0  0  0  0
   22.1252   -8.1018  -17.1432 C   0  0  1  0  0  0  0  0  0  0  0  0
   20.6292   -8.3255  -17.0754 C   0  0  0  0  0  0  0  0  0  0  0  0
   20.0757   -9.3364  -18.4733 S   0  0  0  0  0  0  0  0  0  0  0  0
   22.4652   -7.0378  -16.1687 C   0  0  0  0  0  0  0  0  0  0  0  0
   22.8910   -7.3454  -15.0267 O   0  0  0  0  0  0  0  0  0  0  0  0
   22.3219   -5.7013  -16.4939 O   0  0  0  0  0  0  0  0  0  0  0  0
  2  1  1  6
  2  4  1  0
  2  3  1  0
  4  6  1  0
  4  5  1  1
  6  7  2  0
  9  8  1  1
  9 11  1  0
 10  9  1  0
 12 11  1  6
 12 14  1  0
 13 12  1  0
 13  6  1  0
 14 16  1  0
 15 14  2  0
 16 17  1  0
 17 18  1  1
 18 19  1  0
 20 17  1  0
 21 20  2  0
 22 20  1  0
M  END
$$$$
