VLC.pdb
     RDKit          3D

 22 21  0  0  1  0  0  0  0  0999 V2000
   23.7392  -20.3393  -14.9174 C   0  0  0  0  0  0  0  0  0  0  0  0
   22.2816  -20.3862  -15.2680 C   0  0  2  0  0  0  0  0  0  0  0  0
   22.0346  -19.4340  -16.4196 C   0  0  0  0  0  0  0  0  0  0  0  0
   21.3746  -20.1010  -14.1050 C   0  0  2  0  0  0  0  0  0  0  0  0
   21.5654  -18.7098  -13.7419 N   0  0  0  0  0  0  0  0  0  0  0  0
   21.6278  -20.9482  -12.9381 C   0  0  0  0  0  0  0  0  0  0  0  0
   21.4720  -22.1958  -12.9099 O   0  0  0  0  0  0  0  0  0  0  0  0
   25.2802  -21.8372  -10.4729 C   0  0  0  0  0  0  0  0  0  0  0  0
   24.7032  -20.4006  -10.3541 C   0  0  2  0  0  0  0  0  0  0  0  0
   25.7247  -19.6093   -9.6023 C   0  0  0  0  0  0  0  0  0  0  0  0
   23.3930  -20.5506   -9.6944 C   0  0  0  0  0  0  0  0  0  0  0  0
   22.3592  -21.2202  -10.5319 C   0  0  2  0  0  0  0  0  0  0  0  0
   22.0841  -20.3649  -11.7253 N   0  0  0  0  0  0  0  0  0  0  0  0
   21.0528  -21.4507   -9.9094 C   0  0  0  0  0  0  0  0  0  0  0  0
   20.1636  -20.5663  -10.0016 O   0  0  0  0  0  0  0  0  0  0  0  0
   20.6729  -22.6122   -9.1908 N   0  0  0  0  0  0  0  0  0  0  0  0
   19.3633  -22.7409   -8.5628 C   0  0  1  0  0  0  0  0  0  0  0  0
   18.4721  -23.5141   -9.5120 C   0  0  0  0  0  0  0  0  0  0  0  0
   16.8900  -23.9037   -8.7197 S   0  0  0  0  0  0  0  0  0  0  0  0
   19.4957  -23.5385   -7.3204 C   0  0  0  0  0  0  0  0  0  0  0  0
   20.5146  -24.2518   -7.1381 O   0  0  0  0  0  0  0  0  0  0  0  0
   18.5117  -23.5132   -6.3490 O   0  0  0  0  0  0  0  0  0  0  0  0
  2  1  1  1
  2  4  1  0
  2  3  1  0
  4  6  1  0
  4  5  1  1
  6  7  2  0
  9  8  1  1
  9 11  1  0
 10  9  1  0
 12 11  1  1
 12 14  1  0
 13 12  1  0
 13  6  1  0
 14 16  1  0
 15 14  2  0
 16 17  1  0
 17 18  1  6
 18 19  1  0
 20 17  1  0
 21 20  2  0
 22 20  1  0
M  END
$$$$
