VLC.pdb
     RDKit          3D

 22 21  0  0  1  0  0  0  0  0999 V2000
   22.7065  -19.1439  -18.3208 C   0  0  0  0  0  0  0  0  0  0  0  0
   23.3214  -18.0322  -17.5235 C   0  0  2  0  0  0  0  0  0  0  0  0
   23.5442  -16.8493  -18.4428 C   0  0  0  0  0  0  0  0  0  0  0  0
   24.5830  -18.4301  -16.8119 C   0  0  2  0  0  0  0  0  0  0  0  0
   25.5589  -18.7759  -17.8276 N   0  0  0  0  0  0  0  0  0  0  0  0
   24.4123  -19.5592  -15.8958 C   0  0  0  0  0  0  0  0  0  0  0  0
   24.3947  -20.7680  -16.2424 O   0  0  0  0  0  0  0  0  0  0  0  0
   25.0477  -20.4510   -9.8904 C   0  0  0  0  0  0  0  0  0  0  0  0
   24.5695  -21.1254  -11.2046 C   0  0  2  0  0  0  0  0  0  0  0  0
   25.4188  -22.3440  -11.3730 C   0  0  0  0  0  0  0  0  0  0  0  0
   24.7055  -20.0971  -12.2527 C   0  0  0  0  0  0  0  0  0  0  0  0
   24.0895  -20.4676  -13.5572 C   0  0  2  0  0  0  0  0  0  0  0  0
   24.2511  -19.3234  -14.5038 N   0  0  0  0  0  0  0  0  0  0  0  0
   22.6547  -20.7656  -13.5489 C   0  0  0  0  0  0  0  0  0  0  0  0
   21.8356  -19.8372  -13.3284 O   0  0  0  0  0  0  0  0  0  0  0  0
   22.0734  -22.0384  -13.7761 N   0  0  0  0  0  0  0  0  0  0  0  0
   20.6346  -22.2591  -13.6926 C   0  0  1  0  0  0  0  0  0  0  0  0
   20.3639  -23.6903  -14.1067 C   0  0  0  0  0  0  0  0  0  0  0  0
   18.6128  -24.0954  -13.8787 S   0  0  0  0  0  0  0  0  0  0  0  0
   20.2002  -22.1092  -12.2833 C   0  0  0  0  0  0  0  0  0  0  0  0
   20.9086  -22.5753  -11.3553 O   0  0  0  0  0  0  0  0  0  0  0  0
   19.0206  -21.4609  -11.9662 O   0  0  0  0  0  0  0  0  0  0  0  0
  2  1  1  6
  2  4  1  0
  2  3  1  0
  4  6  1  0
  4  5  1  6
  6  7  2  0
  9  8  1  1
  9 11  1  0
 10  9  1  0
 12 11  1  1
 12 14  1  0
 13 12  1  0
 13  6  1  0
 14 16  1  0
 15 14  2  0
 16 17  1  0
 17 18  1  1
 18 19  1  0
 20 17  1  0
 21 20  2  0
 22 20  1  0
M  END
$$$$
