VLC.pdb
     RDKit          3D

 22 21  0  0  1  0  0  0  0  0999 V2000
   18.0146  -14.2123  -17.3796 C   0  0  0  0  0  0  0  0  0  0  0  0
   17.1622  -13.2659  -18.1718 C   0  0  2  0  0  0  0  0  0  0  0  0
   16.5913  -14.0138  -19.3587 C   0  0  0  0  0  0  0  0  0  0  0  0
   17.8835  -12.0179  -18.5942 C   0  0  2  0  0  0  0  0  0  0  0  0
   18.9085  -12.4132  -19.5412 N   0  0  0  0  0  0  0  0  0  0  0  0
   18.5005  -11.2891  -17.4845 C   0  0  0  0  0  0  0  0  0  0  0  0
   17.8740  -10.8062  -16.5067 O   0  0  0  0  0  0  0  0  0  0  0  0
   24.1696  -10.5611  -15.2864 C   0  0  0  0  0  0  0  0  0  0  0  0
   22.7245   -9.9988  -15.2075 C   0  0  2  0  0  0  0  0  0  0  0  0
   22.3086  -10.1358  -13.7782 C   0  0  0  0  0  0  0  0  0  0  0  0
   21.9398  -10.7780  -16.1830 C   0  0  0  0  0  0  0  0  0  0  0  0
   20.5420  -10.2977  -16.3674 C   0  0  2  0  0  0  0  0  0  0  0  0
   19.9069  -11.0866  -17.4654 N   0  0  0  0  0  0  0  0  0  0  0  0
   20.3715   -8.8931  -16.7491 C   0  0  0  0  0  0  0  0  0  0  0  0
   20.7687   -8.5110  -17.8794 O   0  0  0  0  0  0  0  0  0  0  0  0
   19.7795   -7.8847  -15.9477 N   0  0  0  0  0  0  0  0  0  0  0  0
   19.7365   -6.4886  -16.3658 C   0  0  1  0  0  0  0  0  0  0  0  0
   18.5591   -5.8367  -15.6717 C   0  0  0  0  0  0  0  0  0  0  0  0
   17.0182   -6.6842  -16.1072 S   0  0  0  0  0  0  0  0  0  0  0  0
   20.9668   -5.8037  -15.9026 C   0  0  0  0  0  0  0  0  0  0  0  0
   21.7278   -6.3703  -15.0779 O   0  0  0  0  0  0  0  0  0  0  0  0
   21.2971   -4.5425  -16.3638 O   0  0  0  0  0  0  0  0  0  0  0  0
  2  1  1  6
  2  4  1  0
  2  3  1  0
  4  6  1  0
  4  5  1  6
  6  7  2  0
  9  8  1  1
  9 11  1  0
 10  9  1  0
 12 11  1  6
 12 14  1  0
 13 12  1  0
 13  6  1  0
 14 16  1  0
 15 14  2  0
 16 17  1  0
 17 18  1  1
 18 19  1  0
 20 17  1  0
 21 20  2  0
 22 20  1  0
M  END
$$$$
