VLC.pdb
     RDKit          3D

 22 21  0  0  1  0  0  0  0  0999 V2000
   25.3090  -12.8012  -15.5907 C   0  0  0  0  0  0  0  0  0  0  0  0
   24.4131  -11.6428  -15.9150 C   0  0  2  0  0  0  0  0  0  0  0  0
   24.6612  -10.5461  -14.9002 C   0  0  0  0  0  0  0  0  0  0  0  0
   22.9590  -12.0114  -15.9926 C   0  0  2  0  0  0  0  0  0  0  0  0
   22.8368  -13.0763  -16.9697 N   0  0  0  0  0  0  0  0  0  0  0  0
   22.0879  -10.8982  -16.3738 C   0  0  0  0  0  0  0  0  0  0  0  0
   22.0349  -10.3895  -17.5227 O   0  0  0  0  0  0  0  0  0  0  0  0
   18.4091   -9.6575  -18.0010 C   0  0  0  0  0  0  0  0  0  0  0  0
   18.4189  -10.5475  -16.7289 C   0  0  2  0  0  0  0  0  0  0  0  0
   17.0267  -11.0726  -16.5849 C   0  0  0  0  0  0  0  0  0  0  0  0
   18.8939   -9.6774  -15.6373 C   0  0  0  0  0  0  0  0  0  0  0  0
   20.2979   -9.2064  -15.7970 C   0  0  2  0  0  0  0  0  0  0  0  0
   21.2206  -10.3158  -15.4105 N   0  0  0  0  0  0  0  0  0  0  0  0
   20.7063   -8.0593  -14.9817 C   0  0  0  0  0  0  0  0  0  0  0  0
   20.8158   -8.1982  -13.7367 O   0  0  0  0  0  0  0  0  0  0  0  0
   21.0055   -6.7625  -15.4703 N   0  0  0  0  0  0  0  0  0  0  0  0
   21.4011   -5.6734  -14.5853 C   0  0  1  0  0  0  0  0  0  0  0  0
   22.4161   -4.8265  -15.3237 C   0  0  0  0  0  0  0  0  0  0  0  0
   22.7877   -3.3215  -14.3859 S   0  0  0  0  0  0  0  0  0  0  0  0
   20.2215   -4.8201  -14.3064 C   0  0  0  0  0  0  0  0  0  0  0  0
   19.3230   -4.6879  -15.1755 O   0  0  0  0  0  0  0  0  0  0  0  0
   20.0886   -4.1607  -13.0981 O   0  0  0  0  0  0  0  0  0  0  0  0
  2  1  1  1
  2  4  1  0
  2  3  1  0
  4  6  1  0
  4  5  1  6
  6  7  2  0
  9  8  1  6
  9 11  1  0
 10  9  1  0
 12 11  1  1
 12 14  1  0
 13 12  1  0
 13  6  1  0
 14 16  1  0
 15 14  2  0
 16 17  1  0
 17 18  1  6
 18 19  1  0
 20 17  1  0
 21 20  2  0
 22 20  1  0
M  END
$$$$
