VLC.pdb
     RDKit          3D

 22 21  0  0  1  0  0  0  0  0999 V2000
   19.0646  -10.5112  -20.0045 C   0  0  0  0  0  0  0  0  0  0  0  0
   20.3666  -10.7817  -20.6983 C   0  0  2  0  0  0  0  0  0  0  0  0
   20.0707  -11.2426  -22.1104 C   0  0  0  0  0  0  0  0  0  0  0  0
   21.2458  -11.7557  -19.9671 C   0  0  2  0  0  0  0  0  0  0  0  0
   20.5477  -13.0267  -19.9373 N   0  0  0  0  0  0  0  0  0  0  0  0
   21.5700  -11.3459  -18.5995 C   0  0  0  0  0  0  0  0  0  0  0  0
   20.8901  -11.6382  -17.5826 O   0  0  0  0  0  0  0  0  0  0  0  0
   26.4681  -10.1591  -15.3426 C   0  0  0  0  0  0  0  0  0  0  0  0
   24.9414   -9.8786  -15.3753 C   0  0  2  0  0  0  0  0  0  0  0  0
   24.3742  -10.5551  -14.1689 C   0  0  0  0  0  0  0  0  0  0  0  0
   24.4707  -10.3854  -16.6775 C   0  0  0  0  0  0  0  0  0  0  0  0
   23.0401  -10.0902  -16.9683 C   0  0  2  0  0  0  0  0  0  0  0  0
   22.7272  -10.5594  -18.3516 N   0  0  0  0  0  0  0  0  0  0  0  0
   22.6365   -8.6819  -16.9350 C   0  0  0  0  0  0  0  0  0  0  0  0
   23.0583   -7.9006  -17.8255 O   0  0  0  0  0  0  0  0  0  0  0  0
   21.7851   -8.0886  -15.9690 N   0  0  0  0  0  0  0  0  0  0  0  0
   21.4500   -6.6699  -15.9989 C   0  0  1  0  0  0  0  0  0  0  0  0
   19.9505   -6.5479  -15.8263 C   0  0  0  0  0  0  0  0  0  0  0  0
   19.4832   -4.8193  -15.5501 S   0  0  0  0  0  0  0  0  0  0  0  0
   22.0915   -5.9940  -14.8461 C   0  0  0  0  0  0  0  0  0  0  0  0
   22.4756   -4.8017  -14.9520 O   0  0  0  0  0  0  0  0  0  0  0  0
   22.2775   -6.6549  -13.6457 O   0  0  0  0  0  0  0  0  0  0  0  0
  2  1  1  1
  2  4  1  0
  2  3  1  0
  4  6  1  0
  4  5  1  1
  6  7  2  0
  9  8  1  6
  9 11  1  0
 10  9  1  0
 12 11  1  6
 12 14  1  0
 13 12  1  0
 13  6  1  0
 14 16  1  0
 15 14  2  0
 16 17  1  0
 17 18  1  1
 18 19  1  0
 20 17  1  0
 21 20  2  0
 22 20  1  0
M  END
$$$$
