VLC.pdb
     RDKit          3D

 22 21  0  0  1  0  0  0  0  0999 V2000
   17.0163  -13.8684  -18.6655 C   0  0  0  0  0  0  0  0  0  0  0  0
   17.5625  -12.7900  -17.7774 C   0  0  2  0  0  0  0  0  0  0  0  0
   17.5148  -11.4776  -18.5319 C   0  0  0  0  0  0  0  0  0  0  0  0
   18.9402  -13.0826  -17.2551 C   0  0  2  0  0  0  0  0  0  0  0  0
   18.8779  -14.3590  -16.5691 N   0  0  0  0  0  0  0  0  0  0  0  0
   19.4528  -12.0619  -16.3394 C   0  0  0  0  0  0  0  0  0  0  0  0
   18.9981  -11.8367  -15.1887 O   0  0  0  0  0  0  0  0  0  0  0  0
   22.7862  -11.1126  -13.6498 C   0  0  0  0  0  0  0  0  0  0  0  0
   23.1490  -11.3089  -15.1466 C   0  0  2  0  0  0  0  0  0  0  0  0
   24.6412  -11.3817  -15.2008 C   0  0  0  0  0  0  0  0  0  0  0  0
   22.5345  -10.1728  -15.8581 C   0  0  0  0  0  0  0  0  0  0  0  0
   21.0454  -10.1646  -15.8271 C   0  0  2  0  0  0  0  0  0  0  0  0
   20.5429  -11.2400  -16.7338 N   0  0  0  0  0  0  0  0  0  0  0  0
   20.3825   -8.9369  -16.2753 C   0  0  0  0  0  0  0  0  0  0  0  0
   20.3008   -8.6974  -17.5071 O   0  0  0  0  0  0  0  0  0  0  0  0
   19.7989   -7.9576  -15.4327 N   0  0  0  0  0  0  0  0  0  0  0  0
   19.1351   -6.7736  -15.9650 C   0  0  1  0  0  0  0  0  0  0  0  0
   17.7729   -6.6768  -15.3109 C   0  0  0  0  0  0  0  0  0  0  0  0
   17.0100   -5.0734  -15.6704 S   0  0  0  0  0  0  0  0  0  0  0  0
   19.9061   -5.5681  -15.5782 C   0  0  0  0  0  0  0  0  0  0  0  0
   20.5977   -5.5756  -14.5286 O   0  0  0  0  0  0  0  0  0  0  0  0
   19.8795   -4.4251  -16.3562 O   0  0  0  0  0  0  0  0  0  0  0  0
  2  1  1  6
  2  4  1  0
  2  3  1  0
  4  6  1  0
  4  5  1  1
  6  7  2  0
  9  8  1  1
  9 11  1  0
 10  9  1  0
 12 11  1  6
 12 14  1  0
 13 12  1  0
 13  6  1  0
 14 16  1  0
 15 14  2  0
 16 17  1  0
 17 18  1  1
 18 19  1  0
 20 17  1  0
 21 20  2  0
 22 20  1  0
M  END
$$$$
