VLC.pdb
     RDKit          3D

 22 21  0  0  1  0  0  0  0  0999 V2000
   23.6494  -19.9321  -15.8715 C   0  0  0  0  0  0  0  0  0  0  0  0
   24.6564  -20.6451  -15.0186 C   0  0  2  0  0  0  0  0  0  0  0  0
   25.7889  -21.1167  -15.9068 C   0  0  0  0  0  0  0  0  0  0  0  0
   24.0724  -21.7718  -14.2149 C   0  0  2  0  0  0  0  0  0  0  0  0
   23.5263  -22.7323  -15.1545 N   0  0  0  0  0  0  0  0  0  0  0  0
   23.0238  -21.3506  -13.2840 C   0  0  0  0  0  0  0  0  0  0  0  0
   23.2072  -20.6104  -12.2840 O   0  0  0  0  0  0  0  0  0  0  0  0
   20.0989  -18.4416  -12.1869 C   0  0  0  0  0  0  0  0  0  0  0  0
   20.0749  -19.0476  -13.6161 C   0  0  2  0  0  0  0  0  0  0  0  0
   19.1476  -18.1861  -14.4115 C   0  0  0  0  0  0  0  0  0  0  0  0
   19.6604  -20.4526  -13.4464 C   0  0  0  0  0  0  0  0  0  0  0  0
   20.5867  -21.2674  -12.6118 C   0  0  2  0  0  0  0  0  0  0  0  0
   21.6851  -21.7837  -13.4826 N   0  0  0  0  0  0  0  0  0  0  0  0
   20.0195  -22.4504  -11.9589 C   0  0  0  0  0  0  0  0  0  0  0  0
   19.9494  -23.5308  -12.5985 O   0  0  0  0  0  0  0  0  0  0  0  0
   19.5273  -22.5054  -10.6306 N   0  0  0  0  0  0  0  0  0  0  0  0
   19.0307  -23.7419  -10.0390 C   0  0  1  0  0  0  0  0  0  0  0  0
   19.2712  -23.6665   -8.5459 C   0  0  0  0  0  0  0  0  0  0  0  0
   18.8242  -25.2326   -7.7522 S   0  0  0  0  0  0  0  0  0  0  0  0
   17.5668  -23.8308  -10.2544 C   0  0  0  0  0  0  0  0  0  0  0  0
   16.8799  -22.7814  -10.3381 O   0  0  0  0  0  0  0  0  0  0  0  0
   16.9360  -25.0564  -10.3662 O   0  0  0  0  0  0  0  0  0  0  0  0
  2  1  1  6
  2  4  1  0
  2  3  1  0
  4  6  1  0
  4  5  1  6
  6  7  2  0
  9  8  1  1
  9 11  1  0
 10  9  1  0
 12 11  1  6
 12 14  1  0
 13 12  1  0
 13  6  1  0
 14 16  1  0
 15 14  2  0
 16 17  1  0
 17 18  1  1
 18 19  1  0
 20 17  1  0
 21 20  2  0
 22 20  1  0
M  END
$$$$
