IDN.pdb
     RDKit          3D

 25 24  0  0  1  0  0  0  0  0999 V2000
   20.5973  -14.1105  -17.3640 C   0  0  0  0  0  0  0  0  0  0  0  0
   19.4546  -13.5155  -16.5683 C   0  0  0  0  0  0  0  0  0  0  0  0
   19.3903  -12.0234  -16.6969 C   0  0  2  0  0  0  0  0  0  0  0  0
   20.6322  -11.3455  -16.1643 C   0  0  0  0  0  0  0  0  0  0  0  0
   18.2137  -11.4866  -15.9188 C   0  0  2  0  0  0  0  0  0  0  0  0
   17.0453  -12.2492  -16.2617 N   0  0  0  0  0  0  0  0  0  0  0  0
   18.0084  -10.0236  -16.1587 C   0  0  0  0  0  0  0  0  0  0  0  0
   17.9581   -9.5797  -17.3357 O   0  0  0  0  0  0  0  0  0  0  0  0
   17.8690   -9.1250  -15.0791 N   0  0  0  0  0  0  0  0  0  0  0  0
   17.7559   -7.6924  -15.3000 C   0  0  1  0  0  0  0  0  0  0  0  0
   16.5188   -7.1894  -14.6217 C   0  0  0  0  0  0  0  0  0  0  0  0
   15.3167   -7.6506  -15.3277 C   0  0  0  0  0  0  0  0  0  0  0  0
   15.2178   -7.7909  -16.5733 O   0  0  0  0  0  0  0  0  0  0  0  0
   18.9483   -6.9750  -14.8334 C   0  0  0  0  0  0  0  0  0  0  0  0
   19.3709   -7.1783  -13.6695 O   0  0  0  0  0  0  0  0  0  0  0  0
   14.1615   -7.9718  -14.5914 O   0  0  0  0  0  0  0  0  0  0  0  0
   23.1546   -3.9237  -14.7584 N   0  0  0  0  0  0  0  0  0  0  0  0
   23.2372   -5.0446  -15.6257 C   0  0  0  0  0  0  0  0  0  0  0  0
   24.3635   -5.3642  -16.0825 O   0  0  0  0  0  0  0  0  0  0  0  0
   22.0227   -5.8264  -15.9893 C   0  0  0  0  0  0  0  0  0  0  0  0
   20.8074   -5.3429  -15.2313 C   0  0  2  0  0  0  0  0  0  0  0  0
   19.6306   -6.0454  -15.6984 N   0  0  0  0  0  0  0  0  0  0  0  0
   20.6398   -3.9053  -15.5652 C   0  0  0  0  0  0  0  0  0  0  0  0
   21.1282   -2.8968  -14.7282 O   0  0  0  0  0  0  0  0  0  0  0  0
   20.0604   -3.5538  -16.5987 O   0  0  0  0  0  0  0  0  0  0  0  0
  2  1  1  0
  2  3  1  0
  3  5  1  0
  3  4  1  1
  5  6  1  6
  5  7  1  0
  7  8  2  0
  9  7  1  0
  9 10  1  0
 10 14  1  0
 10 11  1  1
 12 11  1  0
 13 12  2  0
 14 15  2  0
 16 12  1  0
 17 18  1  0
 18 19  2  0
 18 20  1  0
 21 20  1  6
 21 23  1  0
 22 21  1  0
 22 14  1  0
 23 25  2  0
 23 24  1  0
M  END
$$$$
