IDN.pdb
     RDKit          3D

 25 24  0  0  1  0  0  0  0  0999 V2000
   28.8322  -11.6620  -16.6417 C   0  0  0  0  0  0  0  0  0  0  0  0
   27.5050  -12.1410  -16.0920 C   0  0  0  0  0  0  0  0  0  0  0  0
   26.3741  -11.2312  -16.4669 C   0  0  2  0  0  0  0  0  0  0  0  0
   26.5301   -9.8468  -15.8798 C   0  0  0  0  0  0  0  0  0  0  0  0
   25.0680  -11.7923  -15.9599 C   0  0  2  0  0  0  0  0  0  0  0  0
   24.9974  -13.1851  -16.3055 N   0  0  0  0  0  0  0  0  0  0  0  0
   23.8926  -11.0317  -16.4890 C   0  0  0  0  0  0  0  0  0  0  0  0
   23.3582  -11.3749  -17.5760 O   0  0  0  0  0  0  0  0  0  0  0  0
   23.3681   -9.9266  -15.7845 N   0  0  0  0  0  0  0  0  0  0  0  0
   22.1928   -9.2164  -16.2623 C   0  0  1  0  0  0  0  0  0  0  0  0
   21.0302  -10.1603  -16.2925 C   0  0  0  0  0  0  0  0  0  0  0  0
   21.0585  -10.9785  -17.5114 C   0  0  0  0  0  0  0  0  0  0  0  0
   20.9841  -12.2333  -17.5429 O   0  0  0  0  0  0  0  0  0  0  0  0
   21.8997   -8.0365  -15.4402 C   0  0  0  0  0  0  0  0  0  0  0  0
   22.4206   -7.9356  -14.3031 O   0  0  0  0  0  0  0  0  0  0  0  0
   21.1771  -10.3502  -18.7648 O   0  0  0  0  0  0  0  0  0  0  0  0
   20.8317   -3.2438  -14.0135 N   0  0  0  0  0  0  0  0  0  0  0  0
   22.0719   -3.6839  -14.5461 C   0  0  0  0  0  0  0  0  0  0  0  0
   23.0644   -2.9179  -14.4593 O   0  0  0  0  0  0  0  0  0  0  0  0
   22.2001   -5.0193  -15.1931 C   0  0  0  0  0  0  0  0  0  0  0  0
   20.8821   -5.7596  -15.1974 C   0  0  2  0  0  0  0  0  0  0  0  0
   21.0232   -7.0014  -15.9285 N   0  0  0  0  0  0  0  0  0  0  0  0
   19.9154   -4.9064  -15.9349 C   0  0  0  0  0  0  0  0  0  0  0  0
   19.0225   -4.0635  -15.2652 O   0  0  0  0  0  0  0  0  0  0  0  0
   19.8698   -4.9150  -17.1698 O   0  0  0  0  0  0  0  0  0  0  0  0
  2  1  1  0
  2  3  1  0
  3  5  1  0
  3  4  1  1
  5  6  1  6
  5  7  1  0
  7  8  2  0
  9  7  1  0
  9 10  1  0
 10 14  1  0
 10 11  1  1
 12 11  1  0
 13 12  2  0
 14 15  2  0
 16 12  1  0
 17 18  1  0
 18 19  2  0
 18 20  1  0
 21 20  1  6
 21 23  1  0
 22 21  1  0
 22 14  1  0
 23 25  2  0
 23 24  1  0
M  END
$$$$
