IDN.pdb
     RDKit          3D

 25 24  0  0  1  0  0  0  0  0999 V2000
   20.2119  -14.1013  -19.1036 C   0  0  0  0  0  0  0  0  0  0  0  0
   20.2368  -13.3986  -17.7625 C   0  0  0  0  0  0  0  0  0  0  0  0
   19.7317  -11.9899  -17.8507 C   0  0  2  0  0  0  0  0  0  0  0  0
   20.5026  -11.1637  -18.8549 C   0  0  0  0  0  0  0  0  0  0  0  0
   19.8613  -11.3083  -16.5103 C   0  0  2  0  0  0  0  0  0  0  0  0
   19.3371  -12.1797  -15.4953 N   0  0  0  0  0  0  0  0  0  0  0  0
   19.1836   -9.9740  -16.4965 C   0  0  0  0  0  0  0  0  0  0  0  0
   19.6136   -9.0420  -17.2255 O   0  0  0  0  0  0  0  0  0  0  0  0
   18.0610   -9.7400  -15.6734 N   0  0  0  0  0  0  0  0  0  0  0  0
   17.4691   -8.4166  -15.5633 C   0  0  1  0  0  0  0  0  0  0  0  0
   16.1212   -8.5358  -14.9211 C   0  0  0  0  0  0  0  0  0  0  0  0
   15.2195   -9.3410  -15.7545 C   0  0  0  0  0  0  0  0  0  0  0  0
   15.0877   -9.2248  -16.9996 O   0  0  0  0  0  0  0  0  0  0  0  0
   18.3346   -7.4949  -14.8178 C   0  0  0  0  0  0  0  0  0  0  0  0
   18.7245   -7.8129  -13.6683 O   0  0  0  0  0  0  0  0  0  0  0  0
   14.4216  -10.3322  -15.1539 O   0  0  0  0  0  0  0  0  0  0  0  0
   21.5790   -3.7495  -13.5136 N   0  0  0  0  0  0  0  0  0  0  0  0
   21.9481   -5.0740  -13.8670 C   0  0  0  0  0  0  0  0  0  0  0  0
   23.1300   -5.4423  -13.6502 O   0  0  0  0  0  0  0  0  0  0  0  0
   20.9638   -6.0087  -14.4799 C   0  0  0  0  0  0  0  0  0  0  0  0
   19.6173   -5.3477  -14.6674 C   0  0  2  0  0  0  0  0  0  0  0  0
   18.7354   -6.2362  -15.3949 N   0  0  0  0  0  0  0  0  0  0  0  0
   19.8453   -4.1454  -15.5094 C   0  0  0  0  0  0  0  0  0  0  0  0
   20.4586   -2.9975  -14.9970 O   0  0  0  0  0  0  0  0  0  0  0  0
   19.4982   -4.1220  -16.6952 O   0  0  0  0  0  0  0  0  0  0  0  0
  2  1  1  0
  2  3  1  0
  3  5  1  0
  3  4  1  6
  5  6  1  1
  5  7  1  0
  7  8  2  0
  9  7  1  0
  9 10  1  0
 10 14  1  0
 10 11  1  1
 12 11  1  0
 13 12  2  0
 14 15  2  0
 16 12  1  0
 17 18  1  0
 18 19  2  0
 18 20  1  0
 21 20  1  6
 21 23  1  0
 22 21  1  0
 22 14  1  0
 23 25  2  0
 23 24  1  0
M  END
$$$$
