IDN.pdb
     RDKit          3D

 25 24  0  0  1  0  0  0  0  0999 V2000
   29.9201  -20.4264  -11.5428 C   0  0  0  0  0  0  0  0  0  0  0  0
   28.7941  -21.3133  -12.0314 C   0  0  0  0  0  0  0  0  0  0  0  0
   27.4455  -20.7732  -11.6620 C   0  0  2  0  0  0  0  0  0  0  0  0
   27.2118  -20.7804  -10.1684 C   0  0  0  0  0  0  0  0  0  0  0  0
   26.3610  -21.6120  -12.2929 C   0  0  2  0  0  0  0  0  0  0  0  0
   26.8011  -22.0357  -13.5933 N   0  0  0  0  0  0  0  0  0  0  0  0
   25.0588  -20.8775  -12.3627 C   0  0  0  0  0  0  0  0  0  0  0  0
   24.5047  -20.4767  -11.3057 O   0  0  0  0  0  0  0  0  0  0  0  0
   24.4355  -20.6242  -13.6037 N   0  0  0  0  0  0  0  0  0  0  0  0
   23.1321  -19.9841  -13.6762 C   0  0  1  0  0  0  0  0  0  0  0  0
   23.0671  -19.1468  -14.9165 C   0  0  0  0  0  0  0  0  0  0  0  0
   24.3244  -19.2378  -15.6696 C   0  0  0  0  0  0  0  0  0  0  0  0
   25.2722  -18.4147  -15.5982 O   0  0  0  0  0  0  0  0  0  0  0  0
   22.0419  -20.9660  -13.6389 C   0  0  0  0  0  0  0  0  0  0  0  0
   22.3130  -22.1779  -13.4591 O   0  0  0  0  0  0  0  0  0  0  0  0
   24.5266  -20.3148  -16.5522 O   0  0  0  0  0  0  0  0  0  0  0  0
   17.6433  -23.2559  -12.6508 N   0  0  0  0  0  0  0  0  0  0  0  0
   18.5775  -22.8099  -11.6793 C   0  0  0  0  0  0  0  0  0  0  0  0
   18.4722  -23.2462  -10.5054 O   0  0  0  0  0  0  0  0  0  0  0  0
   19.6579  -21.8488  -12.0361 C   0  0  0  0  0  0  0  0  0  0  0  0
   19.5890  -21.4571  -13.4945 C   0  0  2  0  0  0  0  0  0  0  0  0
   20.6724  -20.5485  -13.8066 N   0  0  0  0  0  0  0  0  0  0  0  0
   18.3122  -20.7209  -13.6792 C   0  0  0  0  0  0  0  0  0  0  0  0
   17.1749  -21.3458  -14.2011 O   0  0  0  0  0  0  0  0  0  0  0  0
   18.2147  -19.5269  -13.3759 O   0  0  0  0  0  0  0  0  0  0  0  0
  2  1  1  0
  2  3  1  0
  3  5  1  0
  3  4  1  1
  5  6  1  6
  5  7  1  0
  7  8  2  0
  9  7  1  0
  9 10  1  0
 10 14  1  0
 10 11  1  6
 12 11  1  0
 13 12  2  0
 14 15  2  0
 16 12  1  0
 17 18  1  0
 18 19  2  0
 18 20  1  0
 21 20  1  1
 21 23  1  0
 22 21  1  0
 22 14  1  0
 23 25  2  0
 23 24  1  0
M  END
$$$$
