IDN.pdb
     RDKit          3D

 25 24  0  0  1  0  0  0  0  0999 V2000
   20.8882  -13.1935  -16.1128 C   0  0  0  0  0  0  0  0  0  0  0  0
   20.5841  -11.9456  -16.9149 C   0  0  0  0  0  0  0  0  0  0  0  0
   20.1801  -10.7951  -16.0429 C   0  0  2  0  0  0  0  0  0  0  0  0
   18.8829  -11.0550  -15.3114 C   0  0  0  0  0  0  0  0  0  0  0  0
   19.9860   -9.5541  -16.8796 C   0  0  2  0  0  0  0  0  0  0  0  0
   21.1722   -9.3313  -17.6591 N   0  0  0  0  0  0  0  0  0  0  0  0
   19.6459   -8.3635  -16.0390 C   0  0  0  0  0  0  0  0  0  0  0  0
   18.6181   -8.3790  -15.3121 O   0  0  0  0  0  0  0  0  0  0  0  0
   20.4644   -7.2135  -16.0467 N   0  0  0  0  0  0  0  0  0  0  0  0
   20.0904   -6.0166  -15.3108 C   0  0  1  0  0  0  0  0  0  0  0  0
   21.3296   -5.3558  -14.7901 C   0  0  0  0  0  0  0  0  0  0  0  0
   21.6559   -5.8515  -13.4469 C   0  0  0  0  0  0  0  0  0  0  0  0
   21.0069   -6.7282  -12.8214 O   0  0  0  0  0  0  0  0  0  0  0  0
   19.3026   -5.0946  -16.1376 C   0  0  0  0  0  0  0  0  0  0  0  0
   19.6383   -4.9005  -17.3310 O   0  0  0  0  0  0  0  0  0  0  0  0
   22.7746   -5.3320  -12.7698 O   0  0  0  0  0  0  0  0  0  0  0  0
   15.5756   -1.9700  -17.8710 N   0  0  0  0  0  0  0  0  0  0  0  0
   15.1556   -2.4075  -16.5874 C   0  0  0  0  0  0  0  0  0  0  0  0
   14.0136   -2.0698  -16.1857 O   0  0  0  0  0  0  0  0  0  0  0  0
   16.0417   -3.2461  -15.7331 C   0  0  0  0  0  0  0  0  0  0  0  0
   17.3493   -3.5522  -16.4271 C   0  0  2  0  0  0  0  0  0  0  0  0
   18.1546   -4.4164  -15.5898 N   0  0  0  0  0  0  0  0  0  0  0  0
   18.0691   -2.2608  -16.5708 C   0  0  0  0  0  0  0  0  0  0  0  0
   18.7816   -1.6967  -15.5077 O   0  0  0  0  0  0  0  0  0  0  0  0
   18.0605   -1.6414  -17.6402 O   0  0  0  0  0  0  0  0  0  0  0  0
  2  1  1  0
  2  3  1  0
  3  5  1  0
  3  4  1  6
  5  6  1  1
  5  7  1  0
  7  8  2  0
  9  7  1  0
  9 10  1  0
 10 14  1  0
 10 11  1  6
 12 11  1  0
 13 12  2  0
 14 15  2  0
 16 12  1  0
 17 18  1  0
 18 19  2  0
 18 20  1  0
 21 20  1  1
 21 23  1  0
 22 21  1  0
 22 14  1  0
 23 25  2  0
 23 24  1  0
M  END
$$$$
