IDN.pdb
     RDKit          3D

 25 24  0  0  1  0  0  0  0  0999 V2000
   23.4887  -19.6427  -18.1140 C   0  0  0  0  0  0  0  0  0  0  0  0
   23.5938  -20.1471  -16.6901 C   0  0  0  0  0  0  0  0  0  0  0  0
   22.4604  -19.6684  -15.8336 C   0  0  2  0  0  0  0  0  0  0  0  0
   22.5011  -18.1743  -15.6071 C   0  0  0  0  0  0  0  0  0  0  0  0
   22.5182  -20.3324  -14.4795 C   0  0  2  0  0  0  0  0  0  0  0  0
   22.9069  -21.7047  -14.6531 N   0  0  0  0  0  0  0  0  0  0  0  0
   21.2188  -20.2151  -13.7462 C   0  0  0  0  0  0  0  0  0  0  0  0
   20.7352  -19.0791  -13.5001 O   0  0  0  0  0  0  0  0  0  0  0  0
   20.5199  -21.3658  -13.3218 N   0  0  0  0  0  0  0  0  0  0  0  0
   19.2249  -21.2636  -12.6687 C   0  0  1  0  0  0  0  0  0  0  0  0
   18.2929  -20.4898  -13.5496 C   0  0  0  0  0  0  0  0  0  0  0  0
   17.0322  -20.2096  -12.8507 C   0  0  0  0  0  0  0  0  0  0  0  0
   16.3600  -21.0527  -12.2040 O   0  0  0  0  0  0  0  0  0  0  0  0
   18.6754  -22.5849  -12.3424 C   0  0  0  0  0  0  0  0  0  0  0  0
   18.9869  -23.5718  -13.0520 O   0  0  0  0  0  0  0  0  0  0  0  0
   16.4981  -18.9081  -12.8809 O   0  0  0  0  0  0  0  0  0  0  0  0
   19.3741  -26.5902   -9.4379 N   0  0  0  0  0  0  0  0  0  0  0  0
   19.0912  -25.3341   -8.8397 C   0  0  0  0  0  0  0  0  0  0  0  0
   18.8672  -25.2986   -7.6036 O   0  0  0  0  0  0  0  0  0  0  0  0
   19.0591  -24.0858   -9.6515 C   0  0  0  0  0  0  0  0  0  0  0  0
   17.7893  -23.9892  -10.4660 C   0  0  2  0  0  0  0  0  0  0  0  0
   17.7868  -22.7531  -11.2198 N   0  0  0  0  0  0  0  0  0  0  0  0
   16.6642  -23.9323   -9.4978 C   0  0  0  0  0  0  0  0  0  0  0  0
   16.1890  -25.0818   -8.8581 O   0  0  0  0  0  0  0  0  0  0  0  0
   16.1100  -22.8617   -9.2261 O   0  0  0  0  0  0  0  0  0  0  0  0
  2  1  1  0
  2  3  1  0
  3  5  1  0
  3  4  1  1
  5  6  1  6
  5  7  1  0
  7  8  2  0
  9  7  1  0
  9 10  1  0
 10 14  1  0
 10 11  1  6
 12 11  1  0
 13 12  2  0
 14 15  2  0
 16 12  1  0
 17 18  1  0
 18 19  2  0
 18 20  1  0
 21 20  1  1
 21 23  1  0
 22 21  1  0
 22 14  1  0
 23 25  2  0
 23 24  1  0
M  END
$$$$
