IDN.pdb
     RDKit          3D

 25 24  0  0  1  0  0  0  0  0999 V2000
   13.8381  -12.9093  -11.4365 C   0  0  0  0  0  0  0  0  0  0  0  0
   13.9981  -12.2881  -10.0647 C   0  0  0  0  0  0  0  0  0  0  0  0
   13.9229  -10.7916  -10.1074 C   0  0  2  0  0  0  0  0  0  0  0  0
   12.7622  -10.2970  -10.9402 C   0  0  0  0  0  0  0  0  0  0  0  0
   15.1854  -10.2265  -10.7112 C   0  0  2  0  0  0  0  0  0  0  0  0
   16.3012  -10.6041   -9.8885 N   0  0  0  0  0  0  0  0  0  0  0  0
   15.1039   -8.7420  -10.8837 C   0  0  0  0  0  0  0  0  0  0  0  0
   14.3221   -8.2497  -11.7390 O   0  0  0  0  0  0  0  0  0  0  0  0
   15.8949   -7.8767  -10.0976 N   0  0  0  0  0  0  0  0  0  0  0  0
   15.8067   -6.4328  -10.2438 C   0  0  1  0  0  0  0  0  0  0  0  0
   16.1900   -5.7860   -8.9484 C   0  0  0  0  0  0  0  0  0  0  0  0
   15.9403   -4.3399   -8.9974 C   0  0  0  0  0  0  0  0  0  0  0  0
   15.4177   -3.7278   -9.9634 O   0  0  0  0  0  0  0  0  0  0  0  0
   16.6411   -5.9468  -11.3492 C   0  0  0  0  0  0  0  0  0  0  0  0
   17.8771   -6.1621  -11.3260 O   0  0  0  0  0  0  0  0  0  0  0  0
   16.2984   -3.5376   -7.8982 O   0  0  0  0  0  0  0  0  0  0  0  0
   16.8454   -6.0858  -17.1909 N   0  0  0  0  0  0  0  0  0  0  0  0
   17.2330   -5.6369  -15.9009 C   0  0  0  0  0  0  0  0  0  0  0  0
   18.4596   -5.5261  -15.6510 O   0  0  0  0  0  0  0  0  0  0  0  0
   16.2158   -5.3042  -14.8651 C   0  0  0  0  0  0  0  0  0  0  0  0
   16.8658   -4.8351  -13.5834 C   0  0  2  0  0  0  0  0  0  0  0  0
   16.0525   -5.2292  -12.4522 N   0  0  0  0  0  0  0  0  0  0  0  0
   16.8853   -3.3507  -13.6328 C   0  0  0  0  0  0  0  0  0  0  0  0
   17.9782   -2.6491  -14.1520 O   0  0  0  0  0  0  0  0  0  0  0  0
   15.9312   -2.6860  -13.2143 O   0  0  0  0  0  0  0  0  0  0  0  0
  2  1  1  0
  2  3  1  0
  3  5  1  0
  3  4  1  6
  5  6  1  1
  5  7  1  0
  7  8  2  0
  9  7  1  0
  9 10  1  0
 10 14  1  0
 10 11  1  1
 12 11  1  0
 13 12  2  0
 14 15  2  0
 16 12  1  0
 17 18  1  0
 18 19  2  0
 18 20  1  0
 21 20  1  6
 21 23  1  0
 22 21  1  0
 22 14  1  0
 23 25  2  0
 23 24  1  0
M  END
$$$$
