IDN.pdb
     RDKit          3D

 25 24  0  0  1  0  0  0  0  0999 V2000
   17.9465  -13.9011  -16.6229 C   0  0  0  0  0  0  0  0  0  0  0  0
   16.9342  -12.8681  -16.1743 C   0  0  0  0  0  0  0  0  0  0  0  0
   17.4407  -12.0343  -15.0362 C   0  0  2  0  0  0  0  0  0  0  0  0
   17.7885  -12.8665  -13.8230 C   0  0  0  0  0  0  0  0  0  0  0  0
   16.3876  -11.0389  -14.6144 C   0  0  2  0  0  0  0  0  0  0  0  0
   15.9977  -10.2642  -15.7598 N   0  0  0  0  0  0  0  0  0  0  0  0
   16.8621  -10.1676  -13.4938 C   0  0  0  0  0  0  0  0  0  0  0  0
   17.0652  -10.6626  -12.3542 O   0  0  0  0  0  0  0  0  0  0  0  0
   17.0878   -8.7887  -13.6940 N   0  0  0  0  0  0  0  0  0  0  0  0
   17.5094   -7.9270  -12.6014 C   0  0  1  0  0  0  0  0  0  0  0  0
   18.2722   -6.7658  -13.1611 C   0  0  0  0  0  0  0  0  0  0  0  0
   19.6257   -7.1765  -13.5553 C   0  0  0  0  0  0  0  0  0  0  0  0
   20.1633   -8.2746  -13.2621 O   0  0  0  0  0  0  0  0  0  0  0  0
   16.3695   -7.4762  -11.7943 C   0  0  0  0  0  0  0  0  0  0  0  0
   15.3299   -7.0742  -12.3706 O   0  0  0  0  0  0  0  0  0  0  0  0
   20.4186   -6.3030  -14.3224 O   0  0  0  0  0  0  0  0  0  0  0  0
   13.2022   -7.9693   -7.1964 N   0  0  0  0  0  0  0  0  0  0  0  0
   14.3356   -7.1182   -7.2774 C   0  0  0  0  0  0  0  0  0  0  0  0
   14.3266   -6.0477   -6.6191 O   0  0  0  0  0  0  0  0  0  0  0  0
   15.5095   -7.4793   -8.1200 C   0  0  0  0  0  0  0  0  0  0  0  0
   15.2922   -7.0917   -9.5649 C   0  0  2  0  0  0  0  0  0  0  0  0
   16.4378   -7.4926  -10.3545 N   0  0  0  0  0  0  0  0  0  0  0  0
   15.2123   -5.6089   -9.6020 C   0  0  0  0  0  0  0  0  0  0  0  0
   13.9836   -4.9423   -9.6496 O   0  0  0  0  0  0  0  0  0  0  0  0
   16.2345   -4.9146   -9.5918 O   0  0  0  0  0  0  0  0  0  0  0  0
  2  1  1  0
  2  3  1  0
  3  5  1  0
  3  4  1  1
  5  6  1  6
  5  7  1  0
  7  8  2  0
  9  7  1  0
  9 10  1  0
 10 14  1  0
 10 11  1  6
 12 11  1  0
 13 12  2  0
 14 15  2  0
 16 12  1  0
 17 18  1  0
 18 19  2  0
 18 20  1  0
 21 20  1  1
 21 23  1  0
 22 21  1  0
 22 14  1  0
 23 25  2  0
 23 24  1  0
M  END
$$$$
