IDN.pdb
     RDKit          3D

 25 24  0  0  1  0  0  0  0  0999 V2000
   22.9551  -11.0582  -18.5404 C   0  0  0  0  0  0  0  0  0  0  0  0
   22.1257  -11.2026  -17.2818 C   0  0  0  0  0  0  0  0  0  0  0  0
   22.4447  -10.1456  -16.2678 C   0  0  2  0  0  0  0  0  0  0  0  0
   23.8513  -10.2713  -15.7282 C   0  0  0  0  0  0  0  0  0  0  0  0
   21.5001  -10.2505  -15.0954 C   0  0  2  0  0  0  0  0  0  0  0  0
   20.1634  -10.4252  -15.5922 N   0  0  0  0  0  0  0  0  0  0  0  0
   21.6021   -9.0628  -14.1904 C   0  0  0  0  0  0  0  0  0  0  0  0
   22.7247   -8.5418  -13.9595 O   0  0  0  0  0  0  0  0  0  0  0  0
   20.4516   -8.5117  -13.5859 N   0  0  0  0  0  0  0  0  0  0  0  0
   20.5505   -7.4153  -12.6362 C   0  0  1  0  0  0  0  0  0  0  0  0
   21.3709   -6.3175  -13.2406 C   0  0  0  0  0  0  0  0  0  0  0  0
   21.5038   -5.1942  -12.3043 C   0  0  0  0  0  0  0  0  0  0  0  0
   20.8215   -4.1386  -12.3386 O   0  0  0  0  0  0  0  0  0  0  0  0
   19.2271   -6.9286  -12.2288 C   0  0  0  0  0  0  0  0  0  0  0  0
   18.4900   -6.3708  -13.0775 O   0  0  0  0  0  0  0  0  0  0  0  0
   22.4573   -5.2623  -11.2719 O   0  0  0  0  0  0  0  0  0  0  0  0
   15.0119   -6.9783  -11.8613 N   0  0  0  0  0  0  0  0  0  0  0  0
   15.3475   -7.9982  -10.9323 C   0  0  0  0  0  0  0  0  0  0  0  0
   14.5381   -8.9453  -10.7674 O   0  0  0  0  0  0  0  0  0  0  0  0
   16.6256   -7.9524  -10.1690 C   0  0  0  0  0  0  0  0  0  0  0  0
   17.4239   -6.7128  -10.5025 C   0  0  2  0  0  0  0  0  0  0  0  0
   18.7736   -7.0867  -10.8696 N   0  0  0  0  0  0  0  0  0  0  0  0
   17.4994   -5.9057   -9.2577 C   0  0  0  0  0  0  0  0  0  0  0  0
   16.4056   -5.1662   -8.7963 O   0  0  0  0  0  0  0  0  0  0  0  0
   18.5369   -5.8625   -8.5876 O   0  0  0  0  0  0  0  0  0  0  0  0
  2  1  1  0
  2  3  1  0
  3  5  1  0
  3  4  1  1
  5  6  1  6
  5  7  1  0
  7  8  2  0
  9  7  1  0
  9 10  1  0
 10 14  1  0
 10 11  1  6
 12 11  1  0
 13 12  2  0
 14 15  2  0
 16 12  1  0
 17 18  1  0
 18 19  2  0
 18 20  1  0
 21 20  1  1
 21 23  1  0
 22 21  1  0
 22 14  1  0
 23 25  2  0
 23 24  1  0
M  END
$$$$
