IDN.pdb
     RDKit          3D

 25 24  0  0  1  0  0  0  0  0999 V2000
   27.6348  -15.7747  -15.1442 C   0  0  0  0  0  0  0  0  0  0  0  0
   26.1848  -15.9979  -15.5194 C   0  0  0  0  0  0  0  0  0  0  0  0
   25.5698  -14.7866  -16.1530 C   0  0  2  0  0  0  0  0  0  0  0  0
   25.4258  -13.6384  -15.1802 C   0  0  0  0  0  0  0  0  0  0  0  0
   24.1907  -15.1162  -16.6701 C   0  0  2  0  0  0  0  0  0  0  0  0
   24.2489  -16.3631  -17.3815 N   0  0  0  0  0  0  0  0  0  0  0  0
   23.6394  -14.0180  -17.5245 C   0  0  0  0  0  0  0  0  0  0  0  0
   24.0961  -13.8321  -18.6829 O   0  0  0  0  0  0  0  0  0  0  0  0
   22.6074  -13.1798  -17.0503 N   0  0  0  0  0  0  0  0  0  0  0  0
   22.0382  -12.1365  -17.8880 C   0  0  1  0  0  0  0  0  0  0  0  0
   21.3593  -12.7696  -19.0635 C   0  0  0  0  0  0  0  0  0  0  0  0
   20.8415  -11.7435  -19.9773 C   0  0  0  0  0  0  0  0  0  0  0  0
   20.0040  -11.9457  -20.8931 O   0  0  0  0  0  0  0  0  0  0  0  0
   21.1130  -11.2805  -17.1360 C   0  0  0  0  0  0  0  0  0  0  0  0
   20.1961  -11.8102  -16.4627 O   0  0  0  0  0  0  0  0  0  0  0  0
   21.2908  -10.4158  -19.8540 O   0  0  0  0  0  0  0  0  0  0  0  0
   20.4500   -7.6640  -13.6367 N   0  0  0  0  0  0  0  0  0  0  0  0
   21.5191   -8.5982  -13.6463 C   0  0  0  0  0  0  0  0  0  0  0  0
   22.2313   -8.7011  -12.6160 O   0  0  0  0  0  0  0  0  0  0  0  0
   21.7949   -9.4384  -14.8448 C   0  0  0  0  0  0  0  0  0  0  0  0
   20.9055   -9.0542  -16.0051 C   0  0  2  0  0  0  0  0  0  0  0  0
   21.2512   -9.8459  -17.1670 N   0  0  0  0  0  0  0  0  0  0  0  0
   21.2034   -7.6333  -16.3194 C   0  0  0  0  0  0  0  0  0  0  0  0
   20.7057   -6.5890  -15.5334 O   0  0  0  0  0  0  0  0  0  0  0  0
   21.9041   -7.3283  -17.2906 O   0  0  0  0  0  0  0  0  0  0  0  0
  2  1  1  0
  2  3  1  0
  3  5  1  0
  3  4  1  1
  5  6  1  6
  5  7  1  0
  7  8  2  0
  9  7  1  0
  9 10  1  0
 10 14  1  0
 10 11  1  6
 12 11  1  0
 13 12  2  0
 14 15  2  0
 16 12  1  0
 17 18  1  0
 18 19  2  0
 18 20  1  0
 21 20  1  1
 21 23  1  0
 22 21  1  0
 22 14  1  0
 23 25  2  0
 23 24  1  0
M  END
$$$$
