IDN.pdb
     RDKit          3D

 25 24  0  0  1  0  0  0  0  0999 V2000
   30.3122  -21.0000  -10.9898 C   0  0  0  0  0  0  0  0  0  0  0  0
   29.5726  -20.2748  -12.0944 C   0  0  0  0  0  0  0  0  0  0  0  0
   28.2010  -20.8354  -12.3218 C   0  0  2  0  0  0  0  0  0  0  0  0
   28.2339  -22.2923  -12.7239 C   0  0  0  0  0  0  0  0  0  0  0  0
   27.5083  -20.0770  -13.4276 C   0  0  2  0  0  0  0  0  0  0  0  0
   27.5295  -18.6756  -13.1115 N   0  0  0  0  0  0  0  0  0  0  0  0
   26.1136  -20.5713  -13.6526 C   0  0  0  0  0  0  0  0  0  0  0  0
   25.9223  -21.6830  -14.2116 O   0  0  0  0  0  0  0  0  0  0  0  0
   24.9993  -19.8063  -13.2456 N   0  0  0  0  0  0  0  0  0  0  0  0
   23.6446  -20.3169  -13.3791 C   0  0  1  0  0  0  0  0  0  0  0  0
   22.9906  -20.3259  -12.0316 C   0  0  0  0  0  0  0  0  0  0  0  0
   21.7072  -21.0374  -12.0832 C   0  0  0  0  0  0  0  0  0  0  0  0
   21.3818  -21.8813  -12.9566 O   0  0  0  0  0  0  0  0  0  0  0  0
   22.8626  -19.5364  -14.3453 C   0  0  0  0  0  0  0  0  0  0  0  0
   21.6700  -19.8551  -14.5702 O   0  0  0  0  0  0  0  0  0  0  0  0
   20.7356  -20.7855  -11.0970 O   0  0  0  0  0  0  0  0  0  0  0  0
   24.4000  -17.3409  -19.4418 N   0  0  0  0  0  0  0  0  0  0  0  0
   23.7895  -18.4275  -18.7620 C   0  0  0  0  0  0  0  0  0  0  0  0
   22.9650  -19.1375  -19.3909 O   0  0  0  0  0  0  0  0  0  0  0  0
   24.1138  -18.7237  -17.3389 C   0  0  0  0  0  0  0  0  0  0  0  0
   23.0893  -18.1243  -16.4027 C   0  0  2  0  0  0  0  0  0  0  0  0
   23.4532  -18.4148  -15.0318 N   0  0  0  0  0  0  0  0  0  0  0  0
   21.8012  -18.8082  -16.6848 C   0  0  0  0  0  0  0  0  0  0  0  0
   21.6824  -20.2005  -16.6256 O   0  0  0  0  0  0  0  0  0  0  0  0
   20.7890  -18.1645  -16.9821 O   0  0  0  0  0  0  0  0  0  0  0  0
  2  1  1  0
  2  3  1  0
  3  5  1  0
  3  4  1  6
  5  6  1  1
  5  7  1  0
  7  8  2  0
  9  7  1  0
  9 10  1  0
 10 14  1  0
 10 11  1  1
 12 11  1  0
 13 12  2  0
 14 15  2  0
 16 12  1  0
 17 18  1  0
 18 19  2  0
 18 20  1  0
 21 20  1  6
 21 23  1  0
 22 21  1  0
 22 14  1  0
 23 25  2  0
 23 24  1  0
M  END
$$$$
