CMR.pdb
     RDKit          3D

 26 25  0  0  1  0  0  0  0  0999 V2000
   28.7738  -21.2970  -21.7951 N   0  0  0  0  0  0  0  0  0  0  0  0
   27.5909  -20.5188  -21.5577 C   0  0  1  0  0  0  0  0  0  0  0  0
   26.3923  -21.2627  -22.0977 C   0  0  0  0  0  0  0  0  0  0  0  0
   26.5758  -21.2810  -23.9196 S   0  0  0  0  0  0  0  0  0  0  0  0
   27.4756  -20.1938  -20.1239 C   0  0  0  0  0  0  0  0  0  0  0  0
   28.0413  -20.9273  -19.2732 O   0  0  0  0  0  0  0  0  0  0  0  0
   27.2762  -14.3020  -18.1275 C   0  0  0  0  0  0  0  0  0  0  0  0
   28.8460  -15.1493  -18.4194 S   0  0  0  0  0  0  0  0  0  0  0  0
   28.5124  -16.9302  -18.4620 C   0  0  0  0  0  0  0  0  0  0  0  0
   27.0628  -17.2117  -18.0789 C   0  0  0  0  0  0  0  0  0  0  0  0
   26.7368  -18.6794  -18.2498 C   0  0  2  0  0  0  0  0  0  0  0  0
   26.7443  -19.0729  -19.6360 N   0  0  0  0  0  0  0  0  0  0  0  0
   25.4677  -19.0421  -17.5668 C   0  0  0  0  0  0  0  0  0  0  0  0
   24.3879  -18.6790  -18.0920 O   0  0  0  0  0  0  0  0  0  0  0  0
   23.0027  -20.4882  -10.1374 N   0  0  0  0  0  0  0  0  0  0  0  0
   22.1834  -21.5098  -10.6424 C   0  0  0  0  0  0  0  0  0  0  0  0
   20.9398  -21.5461  -10.3177 N   0  0  0  0  0  0  0  0  0  0  0  0
   22.7379  -22.4918  -11.5025 N   0  0  0  0  0  0  0  0  0  0  0  0
   23.8618  -22.1200  -12.3310 C   0  0  0  0  0  0  0  0  0  0  0  0
   23.4541  -21.2324  -13.4693 C   0  0  0  0  0  0  0  0  0  0  0  0
   24.5854  -20.9066  -14.3732 C   0  0  0  0  0  0  0  0  0  0  0  0
   24.2904  -20.0937  -15.5691 C   0  0  2  0  0  0  0  0  0  0  0  0
   25.4644  -19.7782  -16.3548 N   0  0  0  0  0  0  0  0  0  0  0  0
   23.4332  -18.8940  -15.3281 C   0  0  0  0  0  0  0  0  0  0  0  0
   22.0590  -18.8947  -15.5091 O   0  0  0  0  0  0  0  0  0  0  0  0
   23.9084  -17.7877  -14.9393 O   0  0  0  0  0  0  0  0  0  0  0  0
  2  1  1  1
  2  3  1  0
  4  3  1  0
  5  2  1  0
  5  6  2  0
  7  8  1  0
  8  9  1  0
  9 10  1  0
 11 10  1  6
 11 12  1  0
 12  5  1  0
 13 11  1  0
 14 13  2  0
 16 15  1  0
 16 18  1  0
 17 16  2  0
 19 18  1  0
 19 20  1  0
 20 21  1  0
 22 23  1  0
 22 21  1  1
 23 13  1  0
 24 22  1  0
 25 24  1  0
 26 24  2  0
M  END
$$$$
