CMR.pdb
     RDKit          3D

 26 25  0  0  1  0  0  0  0  0999 V2000
   28.2290  -20.7922  -15.1734 N   0  0  0  0  0  0  0  0  0  0  0  0
   28.2377  -20.2252  -13.8545 C   0  0  1  0  0  0  0  0  0  0  0  0
   28.2638  -18.7189  -13.9632 C   0  0  0  0  0  0  0  0  0  0  0  0
   26.7389  -18.2410  -14.8573 S   0  0  0  0  0  0  0  0  0  0  0  0
   27.0924  -20.7320  -13.0758 C   0  0  0  0  0  0  0  0  0  0  0  0
   26.3154  -21.5758  -13.5915 O   0  0  0  0  0  0  0  0  0  0  0  0
   27.3027  -18.6383   -7.0273 C   0  0  0  0  0  0  0  0  0  0  0  0
   26.5681  -20.2899   -7.0234 S   0  0  0  0  0  0  0  0  0  0  0  0
   26.6317  -20.9262   -8.7193 C   0  0  0  0  0  0  0  0  0  0  0  0
   25.6290  -20.1916   -9.6037 C   0  0  0  0  0  0  0  0  0  0  0  0
   25.6468  -20.7459  -11.0116 C   0  0  2  0  0  0  0  0  0  0  0  0
   26.8088  -20.3116  -11.7446 N   0  0  0  0  0  0  0  0  0  0  0  0
   24.3813  -20.4506  -11.7328 C   0  0  0  0  0  0  0  0  0  0  0  0
   24.2291  -19.3030  -12.2161 O   0  0  0  0  0  0  0  0  0  0  0  0
   21.5687  -25.9849  -17.2174 N   0  0  0  0  0  0  0  0  0  0  0  0
   22.6500  -25.1308  -16.9509 C   0  0  0  0  0  0  0  0  0  0  0  0
   23.7783  -25.3330  -17.5336 N   0  0  0  0  0  0  0  0  0  0  0  0
   22.4862  -24.0566  -16.0394 N   0  0  0  0  0  0  0  0  0  0  0  0
   21.1447  -23.6930  -15.6441 C   0  0  0  0  0  0  0  0  0  0  0  0
   21.1250  -22.4738  -14.7707 C   0  0  0  0  0  0  0  0  0  0  0  0
   22.2023  -22.4852  -13.7497 C   0  0  0  0  0  0  0  0  0  0  0  0
   22.2548  -21.3556  -12.8012 C   0  0  2  0  0  0  0  0  0  0  0  0
   23.3666  -21.4306  -11.8775 N   0  0  0  0  0  0  0  0  0  0  0  0
   20.9672  -21.0436  -12.1107 C   0  0  0  0  0  0  0  0  0  0  0  0
   19.7833  -20.7968  -12.7881 O   0  0  0  0  0  0  0  0  0  0  0  0
   20.8704  -20.9832  -10.8506 O   0  0  0  0  0  0  0  0  0  0  0  0
  2  1  1  6
  2  3  1  0
  4  3  1  0
  5  2  1  0
  5  6  2  0
  7  8  1  0
  8  9  1  0
  9 10  1  0
 11 10  1  1
 11 12  1  0
 12  5  1  0
 13 11  1  0
 14 13  2  0
 16 15  1  0
 16 18  1  0
 17 16  2  0
 19 18  1  0
 19 20  1  0
 20 21  1  0
 22 23  1  0
 22 21  1  1
 23 13  1  0
 24 22  1  0
 25 24  1  0
 26 24  2  0
M  END
$$$$
