CMR.pdb
     RDKit          3D

 26 25  0  0  1  0  0  0  0  0999 V2000
   28.3844  -21.6466  -14.3342 N   0  0  0  0  0  0  0  0  0  0  0  0
   28.0441  -20.4955  -13.5467 C   0  0  1  0  0  0  0  0  0  0  0  0
   27.2890  -19.5114  -14.4088 C   0  0  0  0  0  0  0  0  0  0  0  0
   28.5402  -18.3663  -15.0991 S   0  0  0  0  0  0  0  0  0  0  0  0
   27.2975  -20.9058  -12.3429 C   0  0  0  0  0  0  0  0  0  0  0  0
   26.3617  -21.7396  -12.4466 O   0  0  0  0  0  0  0  0  0  0  0  0
   28.7258  -20.3450   -5.7542 C   0  0  0  0  0  0  0  0  0  0  0  0
   27.0736  -19.6331   -5.9306 S   0  0  0  0  0  0  0  0  0  0  0  0
   26.3518  -20.2859   -7.4595 C   0  0  0  0  0  0  0  0  0  0  0  0
   27.3197  -20.1093   -8.6254 C   0  0  0  0  0  0  0  0  0  0  0  0
   26.6829  -20.5524   -9.9246 C   0  0  2  0  0  0  0  0  0  0  0  0
   27.5808  -20.4011  -11.0413 N   0  0  0  0  0  0  0  0  0  0  0  0
   25.3784  -19.8778  -10.1535 C   0  0  0  0  0  0  0  0  0  0  0  0
   25.3843  -18.7442  -10.6906 O   0  0  0  0  0  0  0  0  0  0  0  0
   22.6247  -18.1517  -15.2863 N   0  0  0  0  0  0  0  0  0  0  0  0
   21.9061  -19.2504  -15.7825 C   0  0  0  0  0  0  0  0  0  0  0  0
   21.7237  -19.3707  -17.0496 N   0  0  0  0  0  0  0  0  0  0  0  0
   21.3868  -20.2133  -14.8798 N   0  0  0  0  0  0  0  0  0  0  0  0
   21.6888  -20.0668  -13.4744 C   0  0  0  0  0  0  0  0  0  0  0  0
   22.0718  -21.3712  -12.8409 C   0  0  0  0  0  0  0  0  0  0  0  0
   23.2204  -21.2386  -11.9101 C   0  0  0  0  0  0  0  0  0  0  0  0
   22.9743  -20.5789  -10.6130 C   0  0  2  0  0  0  0  0  0  0  0  0
   24.1545  -20.4887   -9.7799 N   0  0  0  0  0  0  0  0  0  0  0  0
   21.7872  -21.0816   -9.8579 C   0  0  0  0  0  0  0  0  0  0  0  0
   20.5017  -20.6042  -10.0597 O   0  0  0  0  0  0  0  0  0  0  0  0
   21.8767  -21.9846   -8.9761 O   0  0  0  0  0  0  0  0  0  0  0  0
  2  1  1  6
  2  3  1  0
  4  3  1  0
  5  2  1  0
  5  6  2  0
  7  8  1  0
  8  9  1  0
  9 10  1  0
 11 10  1  1
 11 12  1  0
 12  5  1  0
 13 11  1  0
 14 13  2  0
 16 15  1  0
 16 18  1  0
 17 16  2  0
 19 18  1  0
 19 20  1  0
 20 21  1  0
 22 23  1  0
 22 21  1  6
 23 13  1  0
 24 22  1  0
 25 24  1  0
 26 24  2  0
M  END
$$$$
