CMR.pdb
     RDKit          3D

 26 25  0  0  1  0  0  0  0  0999 V2000
   27.2843  -21.2982  -14.0825 N   0  0  0  0  0  0  0  0  0  0  0  0
   26.8765  -20.2229  -13.2232 C   0  0  1  0  0  0  0  0  0  0  0  0
   25.9912  -19.2769  -13.9997 C   0  0  0  0  0  0  0  0  0  0  0  0
   27.0167  -18.6168  -15.3656 S   0  0  0  0  0  0  0  0  0  0  0  0
   26.2315  -20.7585  -12.0099 C   0  0  0  0  0  0  0  0  0  0  0  0
   25.5835  -21.8345  -12.0744 O   0  0  0  0  0  0  0  0  0  0  0  0
   27.7773  -18.8131   -6.0918 C   0  0  0  0  0  0  0  0  0  0  0  0
   26.6055  -20.0822   -5.5591 S   0  0  0  0  0  0  0  0  0  0  0  0
   25.8324  -20.7774   -7.0436 C   0  0  0  0  0  0  0  0  0  0  0  0
   26.3533  -20.0777   -8.2951 C   0  0  0  0  0  0  0  0  0  0  0  0
   25.7339  -20.6727   -9.5409 C   0  0  2  0  0  0  0  0  0  0  0  0
   26.3011  -20.1136  -10.7417 N   0  0  0  0  0  0  0  0  0  0  0  0
   24.2512  -20.5726   -9.5171 C   0  0  0  0  0  0  0  0  0  0  0  0
   23.7222  -19.5162   -9.9389 O   0  0  0  0  0  0  0  0  0  0  0  0
   17.8060  -24.1146   -6.2028 N   0  0  0  0  0  0  0  0  0  0  0  0
   17.2458  -24.2635   -7.4810 C   0  0  0  0  0  0  0  0  0  0  0  0
   15.9904  -24.0462   -7.6540 N   0  0  0  0  0  0  0  0  0  0  0  0
   18.0710  -24.6549   -8.5662 N   0  0  0  0  0  0  0  0  0  0  0  0
   19.5014  -24.5059   -8.4268 C   0  0  0  0  0  0  0  0  0  0  0  0
   19.9531  -23.1047   -8.7134 C   0  0  0  0  0  0  0  0  0  0  0  0
   21.4270  -22.9509   -8.6282 C   0  0  0  0  0  0  0  0  0  0  0  0
   21.9990  -21.6433   -9.0040 C   0  0  2  0  0  0  0  0  0  0  0  0
   23.4461  -21.6350   -9.0337 N   0  0  0  0  0  0  0  0  0  0  0  0
   21.4427  -20.4692   -8.2663 C   0  0  0  0  0  0  0  0  0  0  0  0
   20.4418  -19.6574   -8.7765 O   0  0  0  0  0  0  0  0  0  0  0  0
   21.8515  -20.1346   -7.1166 O   0  0  0  0  0  0  0  0  0  0  0  0
  2  1  1  6
  2  3  1  0
  4  3  1  0
  5  2  1  0
  5  6  2  0
  7  8  1  0
  8  9  1  0
  9 10  1  0
 11 10  1  1
 11 12  1  0
 12  5  1  0
 13 11  1  0
 14 13  2  0
 16 15  1  0
 16 18  1  0
 17 16  2  0
 19 18  1  0
 19 20  1  0
 20 21  1  0
 22 23  1  0
 22 21  1  1
 23 13  1  0
 24 22  1  0
 25 24  1  0
 26 24  2  0
M  END
$$$$
