CMR.pdb
     RDKit          3D

 26 25  0  0  1  0  0  0  0  0999 V2000
   29.1154  -20.6060  -14.5057 N   0  0  0  0  0  0  0  0  0  0  0  0
   28.2280  -19.7846  -13.7319 C   0  0  1  0  0  0  0  0  0  0  0  0
   27.4682  -18.8661  -14.6596 C   0  0  0  0  0  0  0  0  0  0  0  0
   28.5391  -17.4052  -14.9281 S   0  0  0  0  0  0  0  0  0  0  0  0
   27.3489  -20.6285  -12.9012 C   0  0  0  0  0  0  0  0  0  0  0  0
   26.9130  -21.7141  -13.3627 O   0  0  0  0  0  0  0  0  0  0  0  0
   27.1386  -18.7910   -6.9684 C   0  0  0  0  0  0  0  0  0  0  0  0
   26.5730  -20.5051   -6.8709 S   0  0  0  0  0  0  0  0  0  0  0  0
   26.6109  -21.1948   -8.5465 C   0  0  0  0  0  0  0  0  0  0  0  0
   25.7071  -20.3908   -9.4761 C   0  0  0  0  0  0  0  0  0  0  0  0
   25.8337  -20.8782  -10.9030 C   0  0  2  0  0  0  0  0  0  0  0  0
   26.9562  -20.2773  -11.5777 N   0  0  0  0  0  0  0  0  0  0  0  0
   24.5639  -20.7054  -11.6558 C   0  0  0  0  0  0  0  0  0  0  0  0
   24.3020  -19.5708  -12.1226 O   0  0  0  0  0  0  0  0  0  0  0  0
   21.6378  -24.7406  -17.5717 N   0  0  0  0  0  0  0  0  0  0  0  0
   20.2748  -24.6055  -17.2655 C   0  0  0  0  0  0  0  0  0  0  0  0
   19.4091  -24.5822  -18.2159 N   0  0  0  0  0  0  0  0  0  0  0  0
   19.8689  -24.4930  -15.9111 N   0  0  0  0  0  0  0  0  0  0  0  0
   20.8907  -24.4756  -14.8896 C   0  0  0  0  0  0  0  0  0  0  0  0
   21.1328  -23.0944  -14.3575 C   0  0  0  0  0  0  0  0  0  0  0  0
   22.1660  -23.0655  -13.2922 C   0  0  0  0  0  0  0  0  0  0  0  0
   22.4891  -21.7570  -12.6909 C   0  0  2  0  0  0  0  0  0  0  0  0
   23.6654  -21.7854  -11.8480 N   0  0  0  0  0  0  0  0  0  0  0  0
   21.3429  -21.0561  -12.0373 C   0  0  0  0  0  0  0  0  0  0  0  0
   20.3207  -20.4474  -12.7484 O   0  0  0  0  0  0  0  0  0  0  0  0
   21.2278  -20.9705  -10.7802 O   0  0  0  0  0  0  0  0  0  0  0  0
  2  1  1  6
  2  3  1  0
  4  3  1  0
  5  2  1  0
  5  6  2  0
  7  8  1  0
  8  9  1  0
  9 10  1  0
 11 10  1  1
 11 12  1  0
 12  5  1  0
 13 11  1  0
 14 13  2  0
 16 15  1  0
 16 18  1  0
 17 16  2  0
 19 18  1  0
 19 20  1  0
 20 21  1  0
 22 23  1  0
 22 21  1  1
 23 13  1  0
 24 22  1  0
 25 24  1  0
 26 24  2  0
M  END
$$$$
