CMR.pdb
     RDKit          3D

 26 25  0  0  1  0  0  0  0  0999 V2000
   22.2130  -17.1335  -17.6941 N   0  0  0  0  0  0  0  0  0  0  0  0
   21.1585  -16.6201  -16.8662 C   0  0  1  0  0  0  0  0  0  0  0  0
   20.6061  -17.7401  -16.0166 C   0  0  0  0  0  0  0  0  0  0  0  0
   20.2381  -19.1211  -17.1614 S   0  0  0  0  0  0  0  0  0  0  0  0
   21.6457  -15.4756  -16.0740 C   0  0  0  0  0  0  0  0  0  0  0  0
   20.9296  -15.0089  -15.1515 O   0  0  0  0  0  0  0  0  0  0  0  0
   27.7394  -16.6519  -14.1923 C   0  0  0  0  0  0  0  0  0  0  0  0
   27.2052  -15.1142  -14.9782 S   0  0  0  0  0  0  0  0  0  0  0  0
   25.3989  -15.0302  -14.8552 C   0  0  0  0  0  0  0  0  0  0  0  0
   24.8855  -13.7099  -15.4214 C   0  0  0  0  0  0  0  0  0  0  0  0
   23.3768  -13.7247  -15.5365 C   0  0  2  0  0  0  0  0  0  0  0  0
   22.9078  -14.8543  -16.2983 N   0  0  0  0  0  0  0  0  0  0  0  0
   22.8543  -12.4352  -16.0589 C   0  0  0  0  0  0  0  0  0  0  0  0
   22.9047  -12.2335  -17.2961 O   0  0  0  0  0  0  0  0  0  0  0  0
   15.3738   -8.5943  -15.1981 N   0  0  0  0  0  0  0  0  0  0  0  0
   16.0625   -7.5885  -15.8938 C   0  0  0  0  0  0  0  0  0  0  0  0
   15.4190   -6.5670  -16.3361 N   0  0  0  0  0  0  0  0  0  0  0  0
   17.4597   -7.7126  -16.1034 N   0  0  0  0  0  0  0  0  0  0  0  0
   18.1241   -8.8953  -15.6056 C   0  0  0  0  0  0  0  0  0  0  0  0
   19.5943   -8.8833  -15.9022 C   0  0  0  0  0  0  0  0  0  0  0  0
   20.2766  -10.1246  -15.4588 C   0  0  0  0  0  0  0  0  0  0  0  0
   21.7432  -10.1884  -15.6117 C   0  0  2  0  0  0  0  0  0  0  0  0
   22.3112  -11.4522  -15.1931 N   0  0  0  0  0  0  0  0  0  0  0  0
   22.4927   -9.0211  -15.0570 C   0  0  0  0  0  0  0  0  0  0  0  0
   22.4745   -7.7626  -15.6373 O   0  0  0  0  0  0  0  0  0  0  0  0
   23.2003   -9.1041  -14.0114 O   0  0  0  0  0  0  0  0  0  0  0  0
  2  1  1  1
  2  3  1  0
  4  3  1  0
  5  2  1  0
  5  6  2  0
  7  8  1  0
  8  9  1  0
  9 10  1  0
 11 10  1  6
 11 12  1  0
 12  5  1  0
 13 11  1  0
 14 13  2  0
 16 15  1  0
 16 18  1  0
 17 16  2  0
 19 18  1  0
 19 20  1  0
 20 21  1  0
 22 23  1  0
 22 21  1  1
 23 13  1  0
 24 22  1  0
 25 24  1  0
 26 24  2  0
M  END
$$$$
