CMR.pdb
     RDKit          3D

 26 25  0  0  1  0  0  0  0  0999 V2000
   28.3830  -17.8457  -16.5490 N   0  0  0  0  0  0  0  0  0  0  0  0
   27.7445  -17.7232  -15.2690 C   0  0  1  0  0  0  0  0  0  0  0  0
   26.6221  -16.7175  -15.3697 C   0  0  0  0  0  0  0  0  0  0  0  0
   27.2321  -15.1844  -14.5756 S   0  0  0  0  0  0  0  0  0  0  0  0
   27.2984  -19.0465  -14.7949 C   0  0  0  0  0  0  0  0  0  0  0  0
   26.7103  -19.8249  -15.5886 O   0  0  0  0  0  0  0  0  0  0  0  0
   30.7377  -20.7944   -9.8066 C   0  0  0  0  0  0  0  0  0  0  0  0
   30.0528  -22.2201  -10.6817 S   0  0  0  0  0  0  0  0  0  0  0  0
   29.1549  -21.6002  -12.1288 C   0  0  0  0  0  0  0  0  0  0  0  0
   27.7190  -21.2453  -11.7552 C   0  0  0  0  0  0  0  0  0  0  0  0
   26.9578  -20.7430  -12.9627 C   0  0  2  0  0  0  0  0  0  0  0  0
   27.4989  -19.5039  -13.4608 N   0  0  0  0  0  0  0  0  0  0  0  0
   25.4990  -20.6539  -12.6927 C   0  0  0  0  0  0  0  0  0  0  0  0
   25.0457  -19.5763  -12.2380 O   0  0  0  0  0  0  0  0  0  0  0  0
   19.2108  -21.1310  -14.9677 N   0  0  0  0  0  0  0  0  0  0  0  0
   18.7635  -19.8202  -15.1951 C   0  0  0  0  0  0  0  0  0  0  0  0
   17.5459  -19.6178  -15.5555 N   0  0  0  0  0  0  0  0  0  0  0  0
   19.6609  -18.7348  -15.0278 N   0  0  0  0  0  0  0  0  0  0  0  0
   21.0738  -19.0229  -14.9353 C   0  0  0  0  0  0  0  0  0  0  0  0
   21.3491  -20.2286  -14.0867 C   0  0  0  0  0  0  0  0  0  0  0  0
   22.7925  -20.5704  -14.0310 C   0  0  0  0  0  0  0  0  0  0  0  0
   23.2005  -21.6607  -13.1238 C   0  0  2  0  0  0  0  0  0  0  0  0
   24.6333  -21.7498  -12.9386 N   0  0  0  0  0  0  0  0  0  0  0  0
   22.5844  -22.9913  -13.4099 C   0  0  0  0  0  0  0  0  0  0  0  0
   21.2515  -23.2795  -13.1615 O   0  0  0  0  0  0  0  0  0  0  0  0
   23.2437  -23.9525  -13.9022 O   0  0  0  0  0  0  0  0  0  0  0  0
  2  1  1  6
  2  3  1  0
  4  3  1  0
  5  2  1  0
  5  6  2  0
  7  8  1  0
  8  9  1  0
  9 10  1  0
 11 10  1  1
 11 12  1  0
 12  5  1  0
 13 11  1  0
 14 13  2  0
 16 15  1  0
 16 18  1  0
 17 16  2  0
 19 18  1  0
 19 20  1  0
 20 21  1  0
 22 23  1  0
 22 21  1  6
 23 13  1  0
 24 22  1  0
 25 24  1  0
 26 24  2  0
M  END
$$$$
