CMR.pdb
     RDKit          3D

 26 25  0  0  1  0  0  0  0  0999 V2000
   28.2284  -21.2675  -16.1920 N   0  0  0  0  0  0  0  0  0  0  0  0
   28.0733  -20.3582  -15.0918 C   0  0  1  0  0  0  0  0  0  0  0  0
   27.5619  -19.0352  -15.6111 C   0  0  0  0  0  0  0  0  0  0  0  0
   29.0398  -18.0576  -16.0728 S   0  0  0  0  0  0  0  0  0  0  0  0
   27.2037  -20.9528  -14.0597 C   0  0  0  0  0  0  0  0  0  0  0  0
   26.2424  -21.6866  -14.4049 O   0  0  0  0  0  0  0  0  0  0  0  0
   25.0182  -21.0857   -6.4305 C   0  0  0  0  0  0  0  0  0  0  0  0
   26.3335  -20.6225   -7.5806 S   0  0  0  0  0  0  0  0  0  0  0  0
   25.7550  -20.9913   -9.2581 C   0  0  0  0  0  0  0  0  0  0  0  0
   26.8485  -20.6914  -10.2787 C   0  0  0  0  0  0  0  0  0  0  0  0
   26.3595  -20.9600  -11.6853 C   0  0  2  0  0  0  0  0  0  0  0  0
   27.3935  -20.7392  -12.6642 N   0  0  0  0  0  0  0  0  0  0  0  0
   25.1211  -20.1967  -11.9900 C   0  0  0  0  0  0  0  0  0  0  0  0
   25.1860  -18.9440  -12.0035 O   0  0  0  0  0  0  0  0  0  0  0  0
   20.1415  -17.6286  -17.6345 N   0  0  0  0  0  0  0  0  0  0  0  0
   19.8133  -16.9765  -16.4357 C   0  0  0  0  0  0  0  0  0  0  0  0
   18.7938  -16.1940  -16.3964 N   0  0  0  0  0  0  0  0  0  0  0  0
   20.6121  -17.1863  -15.2827 N   0  0  0  0  0  0  0  0  0  0  0  0
   21.7170  -18.1129  -15.3749 C   0  0  0  0  0  0  0  0  0  0  0  0
   21.3933  -19.4400  -14.7554 C   0  0  0  0  0  0  0  0  0  0  0  0
   22.5887  -20.1121  -14.1876 C   0  0  0  0  0  0  0  0  0  0  0  0
   22.6814  -20.2115  -12.7180 C   0  0  2  0  0  0  0  0  0  0  0  0
   23.8944  -20.8548  -12.2599 N   0  0  0  0  0  0  0  0  0  0  0  0
   21.4651  -20.7504  -12.0381 C   0  0  0  0  0  0  0  0  0  0  0  0
   21.4613  -21.9329  -11.3151 O   0  0  0  0  0  0  0  0  0  0  0  0
   20.3476  -20.1584  -12.0773 O   0  0  0  0  0  0  0  0  0  0  0  0
  2  1  1  6
  2  3  1  0
  4  3  1  0
  5  2  1  0
  5  6  2  0
  7  8  1  0
  8  9  1  0
  9 10  1  0
 11 10  1  1
 11 12  1  0
 12  5  1  0
 13 11  1  0
 14 13  2  0
 16 15  1  0
 16 18  1  0
 17 16  2  0
 19 18  1  0
 19 20  1  0
 20 21  1  0
 22 23  1  0
 22 21  1  6
 23 13  1  0
 24 22  1  0
 25 24  1  0
 26 24  2  0
M  END
$$$$
