CMR.pdb
     RDKit          3D

 26 25  0  0  1  0  0  0  0  0999 V2000
   22.0724  -23.0247  -13.4558 N   0  0  0  0  0  0  0  0  0  0  0  0
   23.4251  -23.3511  -13.1025 C   0  0  1  0  0  0  0  0  0  0  0  0
   24.0657  -24.1078  -14.2422 C   0  0  0  0  0  0  0  0  0  0  0  0
   23.5758  -25.8601  -14.0362 S   0  0  0  0  0  0  0  0  0  0  0  0
   24.1618  -22.1294  -12.7292 C   0  0  0  0  0  0  0  0  0  0  0  0
   23.7358  -21.0076  -13.1059 O   0  0  0  0  0  0  0  0  0  0  0  0
   26.8722  -19.2358   -6.7534 C   0  0  0  0  0  0  0  0  0  0  0  0
   27.6039  -20.3003   -8.0180 S   0  0  0  0  0  0  0  0  0  0  0  0
   26.5864  -20.1625   -9.5115 C   0  0  0  0  0  0  0  0  0  0  0  0
   27.1051  -21.0974  -10.5997 C   0  0  0  0  0  0  0  0  0  0  0  0
   26.2386  -21.0146  -11.8375 C   0  0  2  0  0  0  0  0  0  0  0  0
   25.3543  -22.1466  -11.9502 N   0  0  0  0  0  0  0  0  0  0  0  0
   27.0530  -20.8100  -13.0638 C   0  0  0  0  0  0  0  0  0  0  0  0
   27.5278  -21.8210  -13.6348 O   0  0  0  0  0  0  0  0  0  0  0  0
   21.4975  -19.6917  -18.3404 N   0  0  0  0  0  0  0  0  0  0  0  0
   22.5137  -19.2460  -19.1998 C   0  0  0  0  0  0  0  0  0  0  0  0
   22.2404  -18.9952  -20.4309 N   0  0  0  0  0  0  0  0  0  0  0  0
   23.8309  -19.0806  -18.7006 N   0  0  0  0  0  0  0  0  0  0  0  0
   24.0840  -19.4069  -17.3159 C   0  0  0  0  0  0  0  0  0  0  0  0
   25.4880  -19.0751  -16.9058 C   0  0  0  0  0  0  0  0  0  0  0  0
   25.7735  -19.4430  -15.4964 C   0  0  0  0  0  0  0  0  0  0  0  0
   27.1106  -19.1162  -14.9639 C   0  0  2  0  0  0  0  0  0  0  0  0
   27.2934  -19.5129  -13.5839 N   0  0  0  0  0  0  0  0  0  0  0  0
   27.5718  -17.7175  -15.2151 C   0  0  0  0  0  0  0  0  0  0  0  0
   28.2019  -17.3251  -16.3856 O   0  0  0  0  0  0  0  0  0  0  0  0
   27.4166  -16.7897  -14.3689 O   0  0  0  0  0  0  0  0  0  0  0  0
  2  1  1  6
  2  3  1  0
  4  3  1  0
  5  2  1  0
  5  6  2  0
  7  8  1  0
  8  9  1  0
  9 10  1  0
 11 10  1  1
 11 12  1  0
 12  5  1  0
 13 11  1  0
 14 13  2  0
 16 15  1  0
 16 18  1  0
 17 16  2  0
 19 18  1  0
 19 20  1  0
 20 21  1  0
 22 23  1  0
 22 21  1  1
 23 13  1  0
 24 22  1  0
 25 24  1  0
 26 24  2  0
M  END
$$$$
