CMR.pdb
     RDKit          3D

 26 25  0  0  1  0  0  0  0  0999 V2000
   21.2317  -20.2412   -8.4912 N   0  0  0  0  0  0  0  0  0  0  0  0
   22.3609  -20.8462   -7.8430 C   0  0  1  0  0  0  0  0  0  0  0  0
   22.1600  -22.3425   -7.7928 C   0  0  0  0  0  0  0  0  0  0  0  0
   20.7730  -22.6368   -6.6340 S   0  0  0  0  0  0  0  0  0  0  0  0
   23.6089  -20.4499   -8.5215 C   0  0  0  0  0  0  0  0  0  0  0  0
   23.5529  -19.8730   -9.6377 O   0  0  0  0  0  0  0  0  0  0  0  0
   29.8378  -20.4586   -5.9069 C   0  0  0  0  0  0  0  0  0  0  0  0
   28.3043  -19.8211   -5.1931 S   0  0  0  0  0  0  0  0  0  0  0  0
   27.2088  -19.3598   -6.5614 C   0  0  0  0  0  0  0  0  0  0  0  0
   27.3135  -20.3749   -7.6954 C   0  0  0  0  0  0  0  0  0  0  0  0
   26.1208  -20.2720   -8.6209 C   0  0  2  0  0  0  0  0  0  0  0  0
   24.9023  -20.6881   -7.9741 N   0  0  0  0  0  0  0  0  0  0  0  0
   26.3556  -20.9920   -9.8996 C   0  0  0  0  0  0  0  0  0  0  0  0
   26.2044  -22.2373   -9.9144 O   0  0  0  0  0  0  0  0  0  0  0  0
   23.5611  -18.4349  -17.3298 N   0  0  0  0  0  0  0  0  0  0  0  0
   22.8272  -19.3222  -16.5273 C   0  0  0  0  0  0  0  0  0  0  0  0
   21.5427  -19.3169  -16.5846 N   0  0  0  0  0  0  0  0  0  0  0  0
   23.5114  -20.2120  -15.6603 N   0  0  0  0  0  0  0  0  0  0  0  0
   24.9543  -20.1483  -15.6139 C   0  0  0  0  0  0  0  0  0  0  0  0
   25.5279  -21.0894  -14.5966 C   0  0  0  0  0  0  0  0  0  0  0  0
   25.6308  -20.4787  -13.2476 C   0  0  0  0  0  0  0  0  0  0  0  0
   26.7789  -20.8710  -12.4073 C   0  0  2  0  0  0  0  0  0  0  0  0
   26.7400  -20.3017  -11.0771 N   0  0  0  0  0  0  0  0  0  0  0  0
   28.1196  -20.7167  -13.0485 C   0  0  0  0  0  0  0  0  0  0  0  0
   29.1087  -19.8847  -12.5479 O   0  0  0  0  0  0  0  0  0  0  0  0
   28.4444  -21.3405  -14.1003 O   0  0  0  0  0  0  0  0  0  0  0  0
  2  1  1  6
  2  3  1  0
  4  3  1  0
  5  2  1  0
  5  6  2  0
  7  8  1  0
  8  9  1  0
  9 10  1  0
 11 10  1  1
 11 12  1  0
 12  5  1  0
 13 11  1  0
 14 13  2  0
 16 15  1  0
 16 18  1  0
 17 16  2  0
 19 18  1  0
 19 20  1  0
 20 21  1  0
 22 23  1  0
 22 21  1  6
 23 13  1  0
 24 22  1  0
 25 24  1  0
 26 24  2  0
M  END
$$$$
