CMR.pdb
     RDKit          3D

 26 25  0  0  1  0  0  0  0  0999 V2000
   28.6140  -21.0573  -15.3142 N   0  0  0  0  0  0  0  0  0  0  0  0
   28.3048  -20.0932  -14.2963 C   0  0  1  0  0  0  0  0  0  0  0  0
   27.7408  -18.8514  -14.9453 C   0  0  0  0  0  0  0  0  0  0  0  0
   29.1362  -18.0469  -15.8164 S   0  0  0  0  0  0  0  0  0  0  0  0
   27.4013  -20.6859  -13.2926 C   0  0  0  0  0  0  0  0  0  0  0  0
   26.5860  -21.5780  -13.6406 O   0  0  0  0  0  0  0  0  0  0  0  0
   27.8215  -20.2983   -6.7666 C   0  0  0  0  0  0  0  0  0  0  0  0
   26.0218  -20.2164   -6.9143 S   0  0  0  0  0  0  0  0  0  0  0  0
   25.5870  -20.6623   -8.6164 C   0  0  0  0  0  0  0  0  0  0  0  0
   26.7216  -20.3012   -9.5700 C   0  0  0  0  0  0  0  0  0  0  0  0
   26.3888  -20.7211  -10.9851 C   0  0  2  0  0  0  0  0  0  0  0  0
   27.3983  -20.2977  -11.9220 N   0  0  0  0  0  0  0  0  0  0  0  0
   25.0274  -20.2767  -11.3827 C   0  0  0  0  0  0  0  0  0  0  0  0
   24.8416  -19.0541  -11.5933 O   0  0  0  0  0  0  0  0  0  0  0  0
   19.1465  -24.6790  -16.1075 N   0  0  0  0  0  0  0  0  0  0  0  0
   18.3996  -23.5379  -15.7761 C   0  0  0  0  0  0  0  0  0  0  0  0
   17.2197  -23.3866  -16.2642 N   0  0  0  0  0  0  0  0  0  0  0  0
   18.9567  -22.5635  -14.9089 N   0  0  0  0  0  0  0  0  0  0  0  0
   20.2777  -22.7995  -14.3731 C   0  0  0  0  0  0  0  0  0  0  0  0
   20.7451  -21.6680  -13.5064 C   0  0  0  0  0  0  0  0  0  0  0  0
   22.0989  -21.9009  -12.9440 C   0  0  0  0  0  0  0  0  0  0  0  0
   22.6386  -20.8826  -12.0220 C   0  0  2  0  0  0  0  0  0  0  0  0
   23.9601  -21.1996  -11.5239 N   0  0  0  0  0  0  0  0  0  0  0  0
   21.7113  -20.4560  -10.9310 C   0  0  0  0  0  0  0  0  0  0  0  0
   20.6983  -19.5282  -11.1158 O   0  0  0  0  0  0  0  0  0  0  0  0
   21.7894  -20.9171   -9.7553 O   0  0  0  0  0  0  0  0  0  0  0  0
  2  1  1  6
  2  3  1  0
  4  3  1  0
  5  2  1  0
  5  6  2  0
  7  8  1  0
  8  9  1  0
  9 10  1  0
 11 10  1  1
 11 12  1  0
 12  5  1  0
 13 11  1  0
 14 13  2  0
 16 15  1  0
 16 18  1  0
 17 16  2  0
 19 18  1  0
 19 20  1  0
 20 21  1  0
 22 23  1  0
 22 21  1  1
 23 13  1  0
 24 22  1  0
 25 24  1  0
 26 24  2  0
M  END
$$$$
