CMR.pdb
     RDKit          3D

 26 25  0  0  1  0  0  0  0  0999 V2000
   28.8292  -20.5852  -16.1556 N   0  0  0  0  0  0  0  0  0  0  0  0
   28.1924  -19.6574  -15.2640 C   0  0  1  0  0  0  0  0  0  0  0  0
   27.4704  -18.6074  -16.0750 C   0  0  0  0  0  0  0  0  0  0  0  0
   28.5471  -17.1263  -16.0746 S   0  0  0  0  0  0  0  0  0  0  0  0
   27.3096  -20.3770  -14.3272 C   0  0  0  0  0  0  0  0  0  0  0  0
   26.6399  -21.3600  -14.7356 O   0  0  0  0  0  0  0  0  0  0  0  0
   24.3504  -21.1099   -7.0004 C   0  0  0  0  0  0  0  0  0  0  0  0
   25.4518  -20.1412   -8.0568 S   0  0  0  0  0  0  0  0  0  0  0  0
   25.3510  -20.8242   -9.7325 C   0  0  0  0  0  0  0  0  0  0  0  0
   26.3594  -20.1399  -10.6502 C   0  0  0  0  0  0  0  0  0  0  0  0
   26.2098  -20.6302  -12.0739 C   0  0  2  0  0  0  0  0  0  0  0  0
   27.1681  -20.0149  -12.9568 N   0  0  0  0  0  0  0  0  0  0  0  0
   24.8142  -20.4790  -12.5618 C   0  0  0  0  0  0  0  0  0  0  0  0
   24.4260  -19.3352  -12.9006 O   0  0  0  0  0  0  0  0  0  0  0  0
   22.2291  -26.5840  -15.0487 N   0  0  0  0  0  0  0  0  0  0  0  0
   21.0699  -26.4610  -14.2670 C   0  0  0  0  0  0  0  0  0  0  0  0
   20.7368  -27.4134  -13.4700 N   0  0  0  0  0  0  0  0  0  0  0  0
   20.2779  -25.2887  -14.3681 N   0  0  0  0  0  0  0  0  0  0  0  0
   20.7170  -24.2410  -15.2611 C   0  0  0  0  0  0  0  0  0  0  0  0
   20.9262  -22.9401  -14.5445 C   0  0  0  0  0  0  0  0  0  0  0  0
   22.2575  -22.8540  -13.8939 C   0  0  0  0  0  0  0  0  0  0  0  0
   22.6231  -21.5745  -13.2556 C   0  0  2  0  0  0  0  0  0  0  0  0
   23.9362  -21.5892  -12.6468 N   0  0  0  0  0  0  0  0  0  0  0  0
   21.5865  -20.9964  -12.3482 C   0  0  0  0  0  0  0  0  0  0  0  0
   20.5381  -20.2093  -12.7980 O   0  0  0  0  0  0  0  0  0  0  0  0
   21.5963  -21.1885  -11.0976 O   0  0  0  0  0  0  0  0  0  0  0  0
  2  1  1  6
  2  3  1  0
  4  3  1  0
  5  2  1  0
  5  6  2  0
  7  8  1  0
  8  9  1  0
  9 10  1  0
 11 10  1  1
 11 12  1  0
 12  5  1  0
 13 11  1  0
 14 13  2  0
 16 15  1  0
 16 18  1  0
 17 16  2  0
 19 18  1  0
 19 20  1  0
 20 21  1  0
 22 23  1  0
 22 21  1  1
 23 13  1  0
 24 22  1  0
 25 24  1  0
 26 24  2  0
M  END
$$$$
