CMR.pdb
     RDKit          3D

 26 25  0  0  1  0  0  0  0  0999 V2000
   26.3709  -17.5533  -18.4435 N   0  0  0  0  0  0  0  0  0  0  0  0
   25.5374  -18.6916  -18.1774 C   0  0  1  0  0  0  0  0  0  0  0  0
   26.4113  -19.8808  -17.8555 C   0  0  0  0  0  0  0  0  0  0  0  0
   27.2785  -20.3174  -19.4081 S   0  0  0  0  0  0  0  0  0  0  0  0
   24.5704  -18.3750  -17.1099 C   0  0  0  0  0  0  0  0  0  0  0  0
   24.8798  -17.5441  -16.2179 O   0  0  0  0  0  0  0  0  0  0  0  0
   18.2002  -18.3362  -17.7351 C   0  0  0  0  0  0  0  0  0  0  0  0
   18.3910  -17.4297  -16.1829 S   0  0  0  0  0  0  0  0  0  0  0  0
   19.9992  -17.8769  -15.4768 C   0  0  0  0  0  0  0  0  0  0  0  0
   20.9985  -18.1974  -16.5840 C   0  0  0  0  0  0  0  0  0  0  0  0
   22.3229  -18.6403  -16.0012 C   0  0  2  0  0  0  0  0  0  0  0  0
   23.2782  -18.9690  -17.0286 N   0  0  0  0  0  0  0  0  0  0  0  0
   22.1483  -19.7421  -15.0191 C   0  0  0  0  0  0  0  0  0  0  0  0
   21.7855  -20.8643  -15.4465 O   0  0  0  0  0  0  0  0  0  0  0  0
   27.3682  -19.7532  -13.1742 N   0  0  0  0  0  0  0  0  0  0  0  0
   27.4668  -20.7798  -12.2223 C   0  0  0  0  0  0  0  0  0  0  0  0
   28.6222  -21.1218  -11.7737 N   0  0  0  0  0  0  0  0  0  0  0  0
   26.2907  -21.4300  -11.7688 N   0  0  0  0  0  0  0  0  0  0  0  0
   25.0121  -20.8610  -12.1285 C   0  0  0  0  0  0  0  0  0  0  0  0
   24.0889  -20.7589  -10.9508 C   0  0  0  0  0  0  0  0  0  0  0  0
   22.7780  -20.1583  -11.3030 C   0  0  0  0  0  0  0  0  0  0  0  0
   22.1820  -20.5344  -12.5997 C   0  0  2  0  0  0  0  0  0  0  0  0
   22.3827  -19.5429  -13.6348 N   0  0  0  0  0  0  0  0  0  0  0  0
   20.7658  -21.0062  -12.5367 C   0  0  0  0  0  0  0  0  0  0  0  0
   20.4145  -22.3452  -12.4665 O   0  0  0  0  0  0  0  0  0  0  0  0
   19.7840  -20.2082  -12.5433 O   0  0  0  0  0  0  0  0  0  0  0  0
  2  1  1  1
  2  3  1  0
  4  3  1  0
  5  2  1  0
  5  6  2  0
  7  8  1  0
  8  9  1  0
  9 10  1  0
 11 10  1  6
 11 12  1  0
 12  5  1  0
 13 11  1  0
 14 13  2  0
 16 15  1  0
 16 18  1  0
 17 16  2  0
 19 18  1  0
 19 20  1  0
 20 21  1  0
 22 23  1  0
 22 21  1  1
 23 13  1  0
 24 22  1  0
 25 24  1  0
 26 24  2  0
M  END
$$$$
