CMR.pdb
     RDKit          3D

 26 25  0  0  1  0  0  0  0  0999 V2000
   26.5339  -21.7091  -13.4567 N   0  0  0  0  0  0  0  0  0  0  0  0
   26.0062  -20.6264  -12.6754 C   0  0  1  0  0  0  0  0  0  0  0  0
   24.7355  -20.1243  -13.3195 C   0  0  0  0  0  0  0  0  0  0  0  0
   25.2384  -19.2973  -14.8739 S   0  0  0  0  0  0  0  0  0  0  0  0
   25.8192  -21.0533  -11.2762 C   0  0  0  0  0  0  0  0  0  0  0  0
   25.4592  -22.2328  -11.0295 O   0  0  0  0  0  0  0  0  0  0  0  0
   29.2533  -19.1545   -6.2276 C   0  0  0  0  0  0  0  0  0  0  0  0
   27.7307  -19.4789   -5.3089 S   0  0  0  0  0  0  0  0  0  0  0  0
   26.5890  -20.3424   -6.4205 C   0  0  0  0  0  0  0  0  0  0  0  0
   26.7796  -19.8667   -7.8574 C   0  0  0  0  0  0  0  0  0  0  0  0
   25.8519  -20.6067   -8.7962 C   0  0  2  0  0  0  0  0  0  0  0  0
   26.0268  -20.1880  -10.1638 N   0  0  0  0  0  0  0  0  0  0  0  0
   24.4361  -20.5136   -8.3539 C   0  0  0  0  0  0  0  0  0  0  0  0
   23.7190  -19.6114   -8.8494 O   0  0  0  0  0  0  0  0  0  0  0  0
   17.8865  -25.6763   -8.8364 N   0  0  0  0  0  0  0  0  0  0  0  0
   17.3059  -24.6659   -8.0543 C   0  0  0  0  0  0  0  0  0  0  0  0
   16.0337  -24.6583   -7.8680 N   0  0  0  0  0  0  0  0  0  0  0  0
   18.1292  -23.6633   -7.4812 N   0  0  0  0  0  0  0  0  0  0  0  0
   19.5171  -23.6071   -7.8796 C   0  0  0  0  0  0  0  0  0  0  0  0
   20.2578  -22.5009   -7.1887 C   0  0  0  0  0  0  0  0  0  0  0  0
   21.6901  -22.4450   -7.5739 C   0  0  0  0  0  0  0  0  0  0  0  0
   22.5303  -21.4177   -6.9280 C   0  0  2  0  0  0  0  0  0  0  0  0
   23.8990  -21.4139   -7.3990 N   0  0  0  0  0  0  0  0  0  0  0  0
   22.4461  -21.3714   -5.4371 C   0  0  0  0  0  0  0  0  0  0  0  0
   21.3358  -20.9002   -4.7542 O   0  0  0  0  0  0  0  0  0  0  0  0
   23.3908  -21.7624   -4.6918 O   0  0  0  0  0  0  0  0  0  0  0  0
  2  1  1  6
  2  3  1  0
  4  3  1  0
  5  2  1  0
  5  6  2  0
  7  8  1  0
  8  9  1  0
  9 10  1  0
 11 10  1  1
 11 12  1  0
 12  5  1  0
 13 11  1  0
 14 13  2  0
 16 15  1  0
 16 18  1  0
 17 16  2  0
 19 18  1  0
 19 20  1  0
 20 21  1  0
 22 23  1  0
 22 21  1  1
 23 13  1  0
 24 22  1  0
 25 24  1  0
 26 24  2  0
M  END
$$$$
