AIC.pdb
     RDKit          3D

 20 19  0  0  1  0  0  0  0  0999 V2000
   26.9524  -21.5083  -16.4413 C   0  0  0  0  0  0  0  0  0  0  0  0
   27.0625  -22.4759  -15.2870 C   0  0  2  0  0  0  0  0  0  0  0  0
   27.0546  -23.8134  -15.8449 N   0  0  0  0  0  0  0  0  0  0  0  0
   25.9015  -22.3673  -14.3661 C   0  0  0  0  0  0  0  0  0  0  0  0
   24.9087  -23.1454  -14.4522 O   0  0  0  0  0  0  0  0  0  0  0  0
   26.8184  -20.6133   -9.3562 C   0  0  0  0  0  0  0  0  0  0  0  0
   26.2964  -21.4232  -10.5466 C   0  0  0  0  0  0  0  0  0  0  0  0
   25.1976  -20.6315  -11.1771 C   0  0  2  0  0  0  0  0  0  0  0  0
   24.0822  -20.4072  -10.1782 C   0  0  0  0  0  0  0  0  0  0  0  0
   24.6934  -21.1989  -12.4729 C   0  0  2  0  0  0  0  0  0  0  0  0
   25.8352  -21.3877  -13.3374 N   0  0  0  0  0  0  0  0  0  0  0  0
   23.6604  -20.3343  -13.1154 C   0  0  0  0  0  0  0  0  0  0  0  0
   23.9797  -19.3494  -13.8101 O   0  0  0  0  0  0  0  0  0  0  0  0
   22.2855  -20.6227  -12.9438 N   0  0  0  0  0  0  0  0  0  0  0  0
   21.2727  -20.4260  -13.9271 C   0  0  1  0  0  0  0  0  0  0  0  0
   21.5310  -21.1500  -15.2216 C   0  0  0  0  0  0  0  0  0  0  0  0
   20.1640  -20.7329  -16.3512 S   0  0  0  0  0  0  0  0  0  0  0  0
   19.9409  -20.7855  -13.4175 C   0  0  0  0  0  0  0  0  0  0  0  0
   19.8065  -21.8243  -12.6995 O   0  0  0  0  0  0  0  0  0  0  0  0
   18.8634  -19.9732  -13.7388 O   0  0  0  0  0  0  0  0  0  0  0  0
  2  1  1  6
  3  2  1  0
  4 11  1  0
  4  2  1  0
  5  4  2  0
  7  8  1  0
  7  6  1  0
  8 10  1  0
  8  9  1  1
 10 12  1  0
 10 11  1  6
 12 14  1  0
 13 12  2  0
 14 15  1  0
 15 18  1  0
 15 16  1  6
 16 17  1  0
 18 19  2  0
 18 20  1  0
M  END
$$$$
