AIC.pdb
     RDKit          3D

 20 19  0  0  1  0  0  0  0  0999 V2000
   24.6192  -11.7003  -15.1061 C   0  0  0  0  0  0  0  0  0  0  0  0
   23.3899  -12.0567  -15.9078 C   0  0  2  0  0  0  0  0  0  0  0  0
   23.8412  -12.5109  -17.2078 N   0  0  0  0  0  0  0  0  0  0  0  0
   22.5137  -10.8763  -16.1244 C   0  0  0  0  0  0  0  0  0  0  0  0
   22.7796  -10.0016  -16.9977 O   0  0  0  0  0  0  0  0  0  0  0  0
   17.5131  -11.9423  -16.1494 C   0  0  0  0  0  0  0  0  0  0  0  0
   18.6567  -11.0494  -16.6397 C   0  0  0  0  0  0  0  0  0  0  0  0
   19.0177  -10.1311  -15.5181 C   0  0  2  0  0  0  0  0  0  0  0  0
   17.9711   -9.0457  -15.3802 C   0  0  0  0  0  0  0  0  0  0  0  0
   20.4085   -9.5708  -15.6027 C   0  0  2  0  0  0  0  0  0  0  0  0
   21.3295  -10.6586  -15.3678 N   0  0  0  0  0  0  0  0  0  0  0  0
   20.6350   -8.4486  -14.6453 C   0  0  0  0  0  0  0  0  0  0  0  0
   20.7322   -8.6518  -13.4189 O   0  0  0  0  0  0  0  0  0  0  0  0
   20.7442   -7.1199  -15.1206 N   0  0  0  0  0  0  0  0  0  0  0  0
   20.9815   -5.9714  -14.3108 C   0  0  1  0  0  0  0  0  0  0  0  0
   22.4344   -5.5923  -14.2012 C   0  0  0  0  0  0  0  0  0  0  0  0
   22.5275   -4.1342  -13.1130 S   0  0  0  0  0  0  0  0  0  0  0  0
   20.2017   -4.8114  -14.7679 C   0  0  0  0  0  0  0  0  0  0  0  0
   20.0598   -3.8115  -13.9980 O   0  0  0  0  0  0  0  0  0  0  0  0
   19.6402   -4.8444  -16.0359 O   0  0  0  0  0  0  0  0  0  0  0  0
  2  1  1  1
  3  2  1  0
  4 11  1  0
  4  2  1  0
  5  4  2  0
  7  8  1  0
  7  6  1  0
  8 10  1  0
  8  9  1  6
 10 12  1  0
 10 11  1  1
 12 14  1  0
 13 12  2  0
 14 15  1  0
 15 18  1  0
 15 16  1  6
 16 17  1  0
 18 19  2  0
 18 20  1  0
M  END
$$$$
