AIC.pdb
     RDKit          3D

 20 19  0  0  1  0  0  0  0  0999 V2000
   24.4395  -11.5504  -14.9248 C   0  0  0  0  0  0  0  0  0  0  0  0
   23.1235  -12.0398  -15.4812 C   0  0  2  0  0  0  0  0  0  0  0  0
   23.4143  -12.7523  -16.7092 N   0  0  0  0  0  0  0  0  0  0  0  0
   22.2170  -10.9126  -15.8205 C   0  0  0  0  0  0  0  0  0  0  0  0
   22.3174  -10.2834  -16.9126 O   0  0  0  0  0  0  0  0  0  0  0  0
   17.1220  -11.5821  -15.4923 C   0  0  0  0  0  0  0  0  0  0  0  0
   18.4661  -11.0297  -15.9758 C   0  0  0  0  0  0  0  0  0  0  0  0
   18.8711   -9.9489  -15.0274 C   0  0  2  0  0  0  0  0  0  0  0  0
   17.8286   -8.8509  -15.0180 C   0  0  0  0  0  0  0  0  0  0  0  0
   20.2559   -9.4145  -15.2559 C   0  0  2  0  0  0  0  0  0  0  0  0
   21.1868  -10.4741  -14.9438 N   0  0  0  0  0  0  0  0  0  0  0  0
   20.5378   -8.1877  -14.4542 C   0  0  0  0  0  0  0  0  0  0  0  0
   20.5232   -8.2098  -13.2076 O   0  0  0  0  0  0  0  0  0  0  0  0
   20.8297   -6.9651  -15.1048 N   0  0  0  0  0  0  0  0  0  0  0  0
   21.1436   -5.7378  -14.4515 C   0  0  1  0  0  0  0  0  0  0  0  0
   22.5085   -5.1995  -14.7887 C   0  0  0  0  0  0  0  0  0  0  0  0
   22.7546   -3.6973  -13.7879 S   0  0  0  0  0  0  0  0  0  0  0  0
   20.1280   -4.7066  -14.7115 C   0  0  0  0  0  0  0  0  0  0  0  0
   19.6106   -4.6171  -15.8678 O   0  0  0  0  0  0  0  0  0  0  0  0
   19.7628   -3.8561  -13.6784 O   0  0  0  0  0  0  0  0  0  0  0  0
  2  1  1  6
  3  2  1  0
  4 11  1  0
  4  2  1  0
  5  4  2  0
  7  8  1  0
  7  6  1  0
  8 10  1  0
  8  9  1  6
 10 12  1  0
 10 11  1  1
 12 14  1  0
 13 12  2  0
 14 15  1  0
 15 18  1  0
 15 16  1  6
 16 17  1  0
 18 19  2  0
 18 20  1  0
M  END
$$$$
