AIC.pdb
     RDKit          3D

 20 19  0  0  1  0  0  0  0  0999 V2000
   20.9226  -14.2742  -15.6845 C   0  0  0  0  0  0  0  0  0  0  0  0
   19.5635  -14.1854  -16.3370 C   0  0  2  0  0  0  0  0  0  0  0  0
   19.6381  -14.9154  -17.5867 N   0  0  0  0  0  0  0  0  0  0  0  0
   19.1989  -12.7814  -16.6587 C   0  0  0  0  0  0  0  0  0  0  0  0
   19.5443  -12.2367  -17.7462 O   0  0  0  0  0  0  0  0  0  0  0  0
   15.1368  -12.2432  -16.1650 C   0  0  0  0  0  0  0  0  0  0  0  0
   15.7800  -11.0009  -16.7883 C   0  0  0  0  0  0  0  0  0  0  0  0
   16.6672  -10.3909  -15.7527 C   0  0  2  0  0  0  0  0  0  0  0  0
   16.3026   -8.9353  -15.5509 C   0  0  0  0  0  0  0  0  0  0  0  0
   18.1349  -10.5779  -16.0098 C   0  0  2  0  0  0  0  0  0  0  0  0
   18.4439  -11.9683  -15.7693 N   0  0  0  0  0  0  0  0  0  0  0  0
   18.9837   -9.6785  -15.1743 C   0  0  0  0  0  0  0  0  0  0  0  0
   18.9226   -9.7012  -13.9291 O   0  0  0  0  0  0  0  0  0  0  0  0
   19.8821   -8.7748  -15.7902 N   0  0  0  0  0  0  0  0  0  0  0  0
   20.6803   -7.8115  -15.1073 C   0  0  1  0  0  0  0  0  0  0  0  0
   21.9012   -7.3778  -15.8739 C   0  0  0  0  0  0  0  0  0  0  0  0
   22.9728   -8.8407  -16.0479 S   0  0  0  0  0  0  0  0  0  0  0  0
   19.8956   -6.6301  -14.7188 C   0  0  0  0  0  0  0  0  0  0  0  0
   18.8065   -6.3780  -15.3214 O   0  0  0  0  0  0  0  0  0  0  0  0
   20.3719   -5.8204  -13.6983 O   0  0  0  0  0  0  0  0  0  0  0  0
  2  1  1  6
  3  2  1  0
  4 11  1  0
  4  2  1  0
  5  4  2  0
  7  8  1  0
  7  6  1  0
  8 10  1  0
  8  9  1  6
 10 12  1  0
 10 11  1  1
 12 14  1  0
 13 12  2  0
 14 15  1  0
 15 18  1  0
 15 16  1  6
 16 17  1  0
 18 19  2  0
 18 20  1  0
M  END
$$$$
