AIC.pdb
     RDKit          3D

 20 19  0  0  1  0  0  0  0  0999 V2000
   22.4263   -9.1035  -21.1175 C   0  0  0  0  0  0  0  0  0  0  0  0
   22.9094   -9.7294  -19.8307 C   0  0  2  0  0  0  0  0  0  0  0  0
   22.5580  -11.1345  -19.8778 N   0  0  0  0  0  0  0  0  0  0  0  0
   22.2363   -9.1381  -18.6454 C   0  0  0  0  0  0  0  0  0  0  0  0
   20.9847   -8.9618  -18.6099 O   0  0  0  0  0  0  0  0  0  0  0  0
   23.3649  -11.3450  -14.2302 C   0  0  0  0  0  0  0  0  0  0  0  0
   22.5674  -10.6029  -15.3067 C   0  0  0  0  0  0  0  0  0  0  0  0
   22.8513   -9.1450  -15.1464 C   0  0  2  0  0  0  0  0  0  0  0  0
   22.3756   -8.6711  -13.7894 C   0  0  0  0  0  0  0  0  0  0  0  0
   22.3271   -8.2879  -16.2626 C   0  0  2  0  0  0  0  0  0  0  0  0
   22.9531   -8.7365  -17.4848 N   0  0  0  0  0  0  0  0  0  0  0  0
   22.5654   -6.8331  -16.0303 C   0  0  0  0  0  0  0  0  0  0  0  0
   23.7066   -6.3396  -16.1241 O   0  0  0  0  0  0  0  0  0  0  0  0
   21.4862   -5.9806  -15.6959 N   0  0  0  0  0  0  0  0  0  0  0  0
   21.5803   -4.5736  -15.4893 C   0  0  1  0  0  0  0  0  0  0  0  0
   21.5814   -3.7693  -16.7619 C   0  0  0  0  0  0  0  0  0  0  0  0
   21.7529   -2.0183  -16.2893 S   0  0  0  0  0  0  0  0  0  0  0  0
   20.5212   -4.0819  -14.5953 C   0  0  0  0  0  0  0  0  0  0  0  0
   19.3584   -4.5871  -14.6676 O   0  0  0  0  0  0  0  0  0  0  0  0
   20.8264   -3.0734  -13.6930 O   0  0  0  0  0  0  0  0  0  0  0  0
  2  1  1  6
  3  2  1  0
  4 11  1  0
  4  2  1  0
  5  4  2  0
  7  8  1  0
  7  6  1  0
  8 10  1  0
  8  9  1  1
 10 12  1  0
 10 11  1  6
 12 14  1  0
 13 12  2  0
 14 15  1  0
 15 18  1  0
 15 16  1  6
 16 17  1  0
 18 19  2  0
 18 20  1  0
M  END
$$$$
