AIC.pdb
     RDKit          3D

 20 19  0  0  1  0  0  0  0  0999 V2000
   22.4812  -12.9339  -20.6096 C   0  0  0  0  0  0  0  0  0  0  0  0
   23.4643  -13.4888  -19.6063 C   0  0  2  0  0  0  0  0  0  0  0  0
   23.0368  -14.8357  -19.2853 N   0  0  0  0  0  0  0  0  0  0  0  0
   23.4628  -12.7049  -18.3441 C   0  0  0  0  0  0  0  0  0  0  0  0
   22.5003  -12.7622  -17.5262 O   0  0  0  0  0  0  0  0  0  0  0  0
   27.9402  -12.2635  -15.4796 C   0  0  0  0  0  0  0  0  0  0  0  0
   26.4563  -12.4042  -15.8313 C   0  0  0  0  0  0  0  0  0  0  0  0
   25.9691  -11.0575  -16.2562 C   0  0  2  0  0  0  0  0  0  0  0  0
   26.1731  -10.0567  -15.1385 C   0  0  0  0  0  0  0  0  0  0  0  0
   24.5606  -11.0470  -16.7772 C   0  0  2  0  0  0  0  0  0  0  0  0
   24.5368  -11.8470  -17.9798 N   0  0  0  0  0  0  0  0  0  0  0  0
   24.0520   -9.6670  -17.0305 C   0  0  0  0  0  0  0  0  0  0  0  0
   24.5582   -8.9400  -17.9081 O   0  0  0  0  0  0  0  0  0  0  0  0
   22.9740   -9.1558  -16.2691 N   0  0  0  0  0  0  0  0  0  0  0  0
   22.4148   -7.8518  -16.4035 C   0  0  1  0  0  0  0  0  0  0  0  0
   21.2262   -7.7903  -17.3254 C   0  0  0  0  0  0  0  0  0  0  0  0
   19.9653   -8.9187  -16.6505 S   0  0  0  0  0  0  0  0  0  0  0  0
   22.0583   -7.2744  -15.0988 C   0  0  0  0  0  0  0  0  0  0  0  0
   22.0439   -8.0182  -14.0697 O   0  0  0  0  0  0  0  0  0  0  0  0
   21.7461   -5.9246  -15.0309 O   0  0  0  0  0  0  0  0  0  0  0  0
  2  1  1  6
  3  2  1  0
  4 11  1  0
  4  2  1  0
  5  4  2  0
  7  8  1  0
  7  6  1  0
  8 10  1  0
  8  9  1  1
 10 12  1  0
 10 11  1  6
 12 14  1  0
 13 12  2  0
 14 15  1  0
 15 18  1  0
 15 16  1  6
 16 17  1  0
 18 19  2  0
 18 20  1  0
M  END
$$$$
