AIC.pdb
     RDKit          3D

 20 19  0  0  1  0  0  0  0  0999 V2000
   21.5607  -17.3647  -14.8258 C   0  0  0  0  0  0  0  0  0  0  0  0
   22.4785  -17.8265  -15.9329 C   0  0  2  0  0  0  0  0  0  0  0  0
   21.6870  -18.6357  -16.8378 N   0  0  0  0  0  0  0  0  0  0  0  0
   23.5791  -18.6794  -15.4144 C   0  0  0  0  0  0  0  0  0  0  0  0
   23.3645  -19.8400  -14.9609 O   0  0  0  0  0  0  0  0  0  0  0  0
   27.2325  -17.2098  -17.5539 C   0  0  0  0  0  0  0  0  0  0  0  0
   27.3754  -18.6181  -16.9691 C   0  0  0  0  0  0  0  0  0  0  0  0
   27.2949  -18.4939  -15.4826 C   0  0  2  0  0  0  0  0  0  0  0  0
   28.5310  -19.0925  -14.8453 C   0  0  0  0  0  0  0  0  0  0  0  0
   26.0287  -19.0378  -14.8857 C   0  0  2  0  0  0  0  0  0  0  0  0
   24.9334  -18.2463  -15.3962 N   0  0  0  0  0  0  0  0  0  0  0  0
   26.0513  -19.0388  -13.3934 C   0  0  0  0  0  0  0  0  0  0  0  0
   26.2990  -18.0013  -12.7477 O   0  0  0  0  0  0  0  0  0  0  0  0
   25.7885  -20.2323  -12.6794 N   0  0  0  0  0  0  0  0  0  0  0  0
   25.9839  -20.4157  -11.2796 C   0  0  1  0  0  0  0  0  0  0  0  0
   24.7727  -20.0897  -10.4471 C   0  0  0  0  0  0  0  0  0  0  0  0
   25.2336  -20.3519   -8.7042 S   0  0  0  0  0  0  0  0  0  0  0  0
   26.4459  -21.7765  -10.9674 C   0  0  0  0  0  0  0  0  0  0  0  0
   25.9200  -22.7668  -11.5637 O   0  0  0  0  0  0  0  0  0  0  0  0
   27.4498  -21.9389  -10.0241 O   0  0  0  0  0  0  0  0  0  0  0  0
  2  1  1  1
  3  2  1  0
  4 11  1  0
  4  2  1  0
  5  4  2  0
  7  8  1  0
  7  6  1  0
  8 10  1  0
  8  9  1  1
 10 12  1  0
 10 11  1  1
 12 14  1  0
 13 12  2  0
 14 15  1  0
 15 18  1  0
 15 16  1  1
 16 17  1  0
 18 19  2  0
 18 20  1  0
M  END
$$$$
