AIC.pdb
     RDKit          3D

 20 19  0  0  1  0  0  0  0  0999 V2000
   27.0428  -22.1399  -16.5337 C   0  0  0  0  0  0  0  0  0  0  0  0
   27.0499  -22.9601  -15.2655 C   0  0  2  0  0  0  0  0  0  0  0  0
   26.9377  -24.3520  -15.6532 N   0  0  0  0  0  0  0  0  0  0  0  0
   25.8866  -22.6409  -14.3980 C   0  0  0  0  0  0  0  0  0  0  0  0
   24.8156  -23.3110  -14.4479 O   0  0  0  0  0  0  0  0  0  0  0  0
   26.9141  -20.9101   -9.4440 C   0  0  0  0  0  0  0  0  0  0  0  0
   26.3321  -21.6395  -10.6585 C   0  0  0  0  0  0  0  0  0  0  0  0
   25.3648  -20.7099  -11.3157 C   0  0  2  0  0  0  0  0  0  0  0  0
   24.2848  -20.3075  -10.3338 C   0  0  0  0  0  0  0  0  0  0  0  0
   24.7951  -21.2237  -12.6067 C   0  0  2  0  0  0  0  0  0  0  0  0
   25.9054  -21.5689  -13.4640 N   0  0  0  0  0  0  0  0  0  0  0  0
   23.8840  -20.2413  -13.2639 C   0  0  0  0  0  0  0  0  0  0  0  0
   24.3233  -19.1975  -13.7858 O   0  0  0  0  0  0  0  0  0  0  0  0
   22.4899  -20.4823  -13.3054 N   0  0  0  0  0  0  0  0  0  0  0  0
   21.5758  -19.8797  -14.2179 C   0  0  1  0  0  0  0  0  0  0  0  0
   21.8556  -20.2002  -15.6620 C   0  0  0  0  0  0  0  0  0  0  0  0
   20.6248  -19.3004  -16.6591 S   0  0  0  0  0  0  0  0  0  0  0  0
   20.1815  -20.2205  -13.8976 C   0  0  0  0  0  0  0  0  0  0  0  0
   19.9405  -21.0858  -12.9999 O   0  0  0  0  0  0  0  0  0  0  0  0
   19.1638  -19.5820  -14.5909 O   0  0  0  0  0  0  0  0  0  0  0  0
  2  1  1  6
  3  2  1  0
  4 11  1  0
  4  2  1  0
  5  4  2  0
  7  8  1  0
  7  6  1  0
  8 10  1  0
  8  9  1  1
 10 12  1  0
 10 11  1  6
 12 14  1  0
 13 12  2  0
 14 15  1  0
 15 18  1  0
 15 16  1  6
 16 17  1  0
 18 19  2  0
 18 20  1  0
M  END
$$$$
