AIC.pdb
     RDKit          3D

 20 19  0  0  1  0  0  0  0  0999 V2000
   18.9247  -23.9903   -9.3617 C   0  0  0  0  0  0  0  0  0  0  0  0
   19.1150  -25.3173   -8.6661 C   0  0  2  0  0  0  0  0  0  0  0  0
   19.1356  -26.3410   -9.6916 N   0  0  0  0  0  0  0  0  0  0  0  0
   17.9870  -25.6237   -7.7488 C   0  0  0  0  0  0  0  0  0  0  0  0
   16.8476  -25.9573   -8.1835 O   0  0  0  0  0  0  0  0  0  0  0  0
   18.9768  -27.3104   -2.5586 C   0  0  0  0  0  0  0  0  0  0  0  0
   18.3436  -27.2594   -3.9521 C   0  0  0  0  0  0  0  0  0  0  0  0
   17.5925  -25.9721   -4.0538 C   0  0  2  0  0  0  0  0  0  0  0  0
   16.5470  -25.8950   -2.9614 C   0  0  0  0  0  0  0  0  0  0  0  0
   17.0142  -25.7009   -5.4130 C   0  0  2  0  0  0  0  0  0  0  0  0
   18.1180  -25.5613   -6.3342 N   0  0  0  0  0  0  0  0  0  0  0  0
   16.1325  -24.4969   -5.4323 C   0  0  0  0  0  0  0  0  0  0  0  0
   16.6055  -23.3453   -5.3622 O   0  0  0  0  0  0  0  0  0  0  0  0
   14.7285  -24.6456   -5.5318 N   0  0  0  0  0  0  0  0  0  0  0  0
   13.7884  -23.5762   -5.5934 C   0  0  1  0  0  0  0  0  0  0  0  0
   13.7709  -22.8553   -6.9150 C   0  0  0  0  0  0  0  0  0  0  0  0
   12.5743  -21.4898   -6.7650 S   0  0  0  0  0  0  0  0  0  0  0  0
   12.4289  -24.0255   -5.2579 C   0  0  0  0  0  0  0  0  0  0  0  0
   11.9661  -25.0755   -5.8019 O   0  0  0  0  0  0  0  0  0  0  0  0
   11.6872  -23.2833   -4.3506 O   0  0  0  0  0  0  0  0  0  0  0  0
  2  1  1  6
  3  2  1  0
  4 11  1  0
  4  2  1  0
  5  4  2  0
  7  8  1  0
  7  6  1  0
  8 10  1  0
  8  9  1  1
 10 12  1  0
 10 11  1  6
 12 14  1  0
 13 12  2  0
 14 15  1  0
 15 18  1  0
 15 16  1  6
 16 17  1  0
 18 19  2  0
 18 20  1  0
M  END
$$$$
