AIC.pdb
     RDKit          3D

 20 19  0  0  1  0  0  0  0  0999 V2000
   19.8107  -12.6768  -19.3223 C   0  0  0  0  0  0  0  0  0  0  0  0
   20.9647  -13.0662  -18.4292 C   0  0  2  0  0  0  0  0  0  0  0  0
   20.6904  -14.3983  -17.9288 N   0  0  0  0  0  0  0  0  0  0  0  0
   21.0815  -12.1616  -17.2563 C   0  0  0  0  0  0  0  0  0  0  0  0
   20.3250  -12.2761  -16.2497 O   0  0  0  0  0  0  0  0  0  0  0  0
   25.6934  -11.0353  -15.0277 C   0  0  0  0  0  0  0  0  0  0  0  0
   24.2091  -11.3177  -15.2781 C   0  0  0  0  0  0  0  0  0  0  0  0
   23.5836  -10.0413  -15.7376 C   0  0  2  0  0  0  0  0  0  0  0  0
   23.8196   -8.9512  -14.7137 C   0  0  0  0  0  0  0  0  0  0  0  0
   22.1345  -10.1640  -16.1121 C   0  0  2  0  0  0  0  0  0  0  0  0
   22.0450  -11.1177  -17.1933 N   0  0  0  0  0  0  0  0  0  0  0  0
   21.5255   -8.8546  -16.4885 C   0  0  0  0  0  0  0  0  0  0  0  0
   22.0064   -8.1539  -17.4010 O   0  0  0  0  0  0  0  0  0  0  0  0
   20.3785   -8.3820  -15.8071 N   0  0  0  0  0  0  0  0  0  0  0  0
   19.7026   -7.1575  -16.0812 C   0  0  1  0  0  0  0  0  0  0  0  0
   18.2240   -7.2015  -15.8014 C   0  0  0  0  0  0  0  0  0  0  0  0
   17.5333   -8.5725  -16.7823 S   0  0  0  0  0  0  0  0  0  0  0  0
   20.3081   -6.0275  -15.3607 C   0  0  0  0  0  0  0  0  0  0  0  0
   21.1961   -6.2515  -14.4810 O   0  0  0  0  0  0  0  0  0  0  0  0
   19.8880   -4.7413  -15.6660 O   0  0  0  0  0  0  0  0  0  0  0  0
  2  1  1  6
  3  2  1  0
  4 11  1  0
  4  2  1  0
  5  4  2  0
  7  8  1  0
  7  6  1  0
  8 10  1  0
  8  9  1  1
 10 12  1  0
 10 11  1  6
 12 14  1  0
 13 12  2  0
 14 15  1  0
 15 18  1  0
 15 16  1  1
 16 17  1  0
 18 19  2  0
 18 20  1  0
M  END
$$$$
