AIC.pdb
     RDKit          3D

 20 19  0  0  1  0  0  0  0  0999 V2000
   23.0643  -12.4860  -20.9829 C   0  0  0  0  0  0  0  0  0  0  0  0
   23.8706  -13.1218  -19.8754 C   0  0  2  0  0  0  0  0  0  0  0  0
   23.2788  -14.4160  -19.6014 N   0  0  0  0  0  0  0  0  0  0  0  0
   23.8073  -12.3254  -18.6226 C   0  0  0  0  0  0  0  0  0  0  0  0
   22.7678  -12.2980  -17.9032 O   0  0  0  0  0  0  0  0  0  0  0  0
   27.9847  -12.2095  -15.3387 C   0  0  0  0  0  0  0  0  0  0  0  0
   26.5405  -12.2326  -15.8481 C   0  0  0  0  0  0  0  0  0  0  0  0
   26.2035  -10.8480  -16.2962 C   0  0  2  0  0  0  0  0  0  0  0  0
   26.3514   -9.8798  -15.1416 C   0  0  0  0  0  0  0  0  0  0  0  0
   24.8678  -10.7259  -16.9717 C   0  0  2  0  0  0  0  0  0  0  0  0
   24.9046  -11.5495  -18.1579 N   0  0  0  0  0  0  0  0  0  0  0  0
   24.5169   -9.3130  -17.2998 C   0  0  0  0  0  0  0  0  0  0  0  0
   25.2491   -8.6153  -18.0291 O   0  0  0  0  0  0  0  0  0  0  0  0
   23.3329   -8.7360  -16.7817 N   0  0  0  0  0  0  0  0  0  0  0  0
   22.8947   -7.4005  -17.0179 C   0  0  1  0  0  0  0  0  0  0  0  0
   22.0630   -7.2430  -18.2628 C   0  0  0  0  0  0  0  0  0  0  0  0
   21.6342   -5.4779  -18.4014 S   0  0  0  0  0  0  0  0  0  0  0  0
   22.1648   -6.8541  -15.8640 C   0  0  0  0  0  0  0  0  0  0  0  0
   21.2582   -7.5509  -15.3116 O   0  0  0  0  0  0  0  0  0  0  0  0
   22.4910   -5.5846  -15.4101 O   0  0  0  0  0  0  0  0  0  0  0  0
  2  1  1  6
  3  2  1  0
  4 11  1  0
  4  2  1  0
  5  4  2  0
  7  8  1  0
  7  6  1  0
  8 10  1  0
  8  9  1  1
 10 12  1  0
 10 11  1  6
 12 14  1  0
 13 12  2  0
 14 15  1  0
 15 18  1  0
 15 16  1  6
 16 17  1  0
 18 19  2  0
 18 20  1  0
M  END
$$$$
