AIC.pdb
     RDKit          3D

 20 19  0  0  1  0  0  0  0  0999 V2000
   22.3288  -12.4209  -20.6610 C   0  0  0  0  0  0  0  0  0  0  0  0
   22.8818  -12.9000  -19.3398 C   0  0  2  0  0  0  0  0  0  0  0  0
   22.1416  -14.0898  -18.9701 N   0  0  0  0  0  0  0  0  0  0  0  0
   22.6824  -11.8951  -18.2637 C   0  0  0  0  0  0  0  0  0  0  0  0
   21.6134  -11.8443  -17.5905 O   0  0  0  0  0  0  0  0  0  0  0  0
   26.9476  -10.6320  -15.2541 C   0  0  0  0  0  0  0  0  0  0  0  0
   25.5283  -10.9981  -15.6981 C   0  0  0  0  0  0  0  0  0  0  0  0
   24.9063   -9.7639  -16.2652 C   0  0  2  0  0  0  0  0  0  0  0  0
   24.9185   -8.6566  -15.2327 C   0  0  0  0  0  0  0  0  0  0  0  0
   23.5410   -9.9757  -16.8540 C   0  0  2  0  0  0  0  0  0  0  0  0
   23.6749  -10.9343  -17.9264 N   0  0  0  0  0  0  0  0  0  0  0  0
   22.9183   -8.7065  -17.3320 C   0  0  0  0  0  0  0  0  0  0  0  0
   23.4028   -8.0650  -18.2852 O   0  0  0  0  0  0  0  0  0  0  0  0
   21.7538   -8.2052  -16.7029 N   0  0  0  0  0  0  0  0  0  0  0  0
   21.0706   -7.0083  -17.0663 C   0  0  1  0  0  0  0  0  0  0  0  0
   19.6880   -7.2384  -17.6157 C   0  0  0  0  0  0  0  0  0  0  0  0
   18.9698   -5.6006  -17.9635 S   0  0  0  0  0  0  0  0  0  0  0  0
   21.0051   -6.0567  -15.9470 C   0  0  0  0  0  0  0  0  0  0  0  0
   20.7617   -4.8326  -16.1814 O   0  0  0  0  0  0  0  0  0  0  0  0
   21.2128   -6.5282  -14.6591 O   0  0  0  0  0  0  0  0  0  0  0  0
  2  1  1  6
  3  2  1  0
  4 11  1  0
  4  2  1  0
  5  4  2  0
  7  8  1  0
  7  6  1  0
  8 10  1  0
  8  9  1  1
 10 12  1  0
 10 11  1  6
 12 14  1  0
 13 12  2  0
 14 15  1  0
 15 18  1  0
 15 16  1  1
 16 17  1  0
 18 19  2  0
 18 20  1  0
M  END
$$$$
