AIC.pdb
     RDKit          3D

 20 19  0  0  1  0  0  0  0  0999 V2000
   14.9303  -13.9041  -15.4918 C   0  0  0  0  0  0  0  0  0  0  0  0
   16.0149  -12.9106  -15.1490 C   0  0  2  0  0  0  0  0  0  0  0  0
   16.8400  -13.5125  -14.1208 N   0  0  0  0  0  0  0  0  0  0  0  0
   15.4523  -11.6527  -14.5933 C   0  0  0  0  0  0  0  0  0  0  0  0
   14.6297  -10.9469  -15.2444 O   0  0  0  0  0  0  0  0  0  0  0  0
   13.1327  -11.4533   -9.9512 C   0  0  0  0  0  0  0  0  0  0  0  0
   13.4777  -11.0944  -11.3996 C   0  0  0  0  0  0  0  0  0  0  0  0
   14.7341  -10.2868  -11.3717 C   0  0  2  0  0  0  0  0  0  0  0  0
   14.5399   -9.0567  -10.5105 C   0  0  0  0  0  0  0  0  0  0  0  0
   15.2806   -9.9486  -12.7290 C   0  0  2  0  0  0  0  0  0  0  0  0
   15.8016  -11.1675  -13.3030 N   0  0  0  0  0  0  0  0  0  0  0  0
   16.3221   -8.8809  -12.6794 C   0  0  0  0  0  0  0  0  0  0  0  0
   17.5039   -9.1409  -12.3786 O   0  0  0  0  0  0  0  0  0  0  0  0
   15.9801   -7.5400  -12.9766 N   0  0  0  0  0  0  0  0  0  0  0  0
   16.9075   -6.4976  -13.2673 C   0  0  1  0  0  0  0  0  0  0  0  0
   17.8652   -6.8268  -14.3813 C   0  0  0  0  0  0  0  0  0  0  0  0
   18.9773   -5.3966  -14.5725 S   0  0  0  0  0  0  0  0  0  0  0  0
   16.2261   -5.2279  -13.5611 C   0  0  0  0  0  0  0  0  0  0  0  0
   15.0710   -5.2466  -14.0885 O   0  0  0  0  0  0  0  0  0  0  0  0
   16.8701   -4.0392  -13.2510 O   0  0  0  0  0  0  0  0  0  0  0  0
  2  1  1  1
  3  2  1  0
  4 11  1  0
  4  2  1  0
  5  4  2  0
  7  8  1  0
  7  6  1  0
  8 10  1  0
  8  9  1  6
 10 12  1  0
 10 11  1  1
 12 14  1  0
 13 12  2  0
 14 15  1  0
 15 18  1  0
 15 16  1  6
 16 17  1  0
 18 19  2  0
 18 20  1  0
M  END
$$$$
