AIC.pdb
     RDKit          3D

 20 19  0  0  1  0  0  0  0  0999 V2000
   17.5195   -9.4766  -18.7392 C   0  0  0  0  0  0  0  0  0  0  0  0
   18.2352  -10.4900  -17.8780 C   0  0  2  0  0  0  0  0  0  0  0  0
   17.2365  -11.4174  -17.3853 N   0  0  0  0  0  0  0  0  0  0  0  0
   18.8769   -9.8536  -16.6986 C   0  0  0  0  0  0  0  0  0  0  0  0
   18.2047   -9.4865  -15.6926 O   0  0  0  0  0  0  0  0  0  0  0  0
   23.2773  -12.0621  -14.8943 C   0  0  0  0  0  0  0  0  0  0  0  0
   21.9208  -11.3569  -14.9845 C   0  0  0  0  0  0  0  0  0  0  0  0
   22.1867   -9.9100  -15.2441 C   0  0  2  0  0  0  0  0  0  0  0  0
   23.0645   -9.3405  -14.1498 C   0  0  0  0  0  0  0  0  0  0  0  0
   20.9513   -9.0859  -15.4672 C   0  0  2  0  0  0  0  0  0  0  0  0
   20.2777   -9.6193  -16.6285 N   0  0  0  0  0  0  0  0  0  0  0  0
   21.2515   -7.6332  -15.6306 C   0  0  0  0  0  0  0  0  0  0  0  0
   21.8864   -7.2089  -16.6163 O   0  0  0  0  0  0  0  0  0  0  0  0
   20.8147   -6.7032  -14.6571 N   0  0  0  0  0  0  0  0  0  0  0  0
   21.0119   -5.2929  -14.7170 C   0  0  1  0  0  0  0  0  0  0  0  0
   19.7587   -4.4918  -14.4846 C   0  0  0  0  0  0  0  0  0  0  0  0
   20.2359   -2.7337  -14.4991 S   0  0  0  0  0  0  0  0  0  0  0  0
   22.0612   -4.8492  -13.7871 C   0  0  0  0  0  0  0  0  0  0  0  0
   22.1053   -5.3381  -12.6159 O   0  0  0  0  0  0  0  0  0  0  0  0
   22.9783   -3.9030  -14.2204 O   0  0  0  0  0  0  0  0  0  0  0  0
  2  1  1  6
  3  2  1  0
  4 11  1  0
  4  2  1  0
  5  4  2  0
  7  8  1  0
  7  6  1  0
  8 10  1  0
  8  9  1  1
 10 12  1  0
 10 11  1  6
 12 14  1  0
 13 12  2  0
 14 15  1  0
 15 18  1  0
 15 16  1  1
 16 17  1  0
 18 19  2  0
 18 20  1  0
M  END
$$$$
