TNW.pdb
     RDKit          3D

 30 31  0  0  1  0  0  0  0  0999 V2000
   13.3459  -18.0880   19.3768 C   0  0  0  0  0  0  0  0  0  0  0  0
   12.0713  -18.9050   19.4328 C   0  0  1  0  0  0  0  0  0  0  0  0
   12.2646  -20.2023   19.0122 O   0  0  0  0  0  0  0  0  0  0  0  0
   11.4601  -18.8644   20.8339 C   0  0  2  0  0  0  0  0  0  0  0  0
   10.3452  -19.7919   20.8021 N   0  0  0  0  0  0  0  0  0  0  0  0
   10.9583  -17.4970   21.1528 C   0  0  0  0  0  0  0  0  0  0  0  0
   11.7475  -16.5015   21.0108 O   0  0  0  0  0  0  0  0  0  0  0  0
    7.5999  -18.1791   22.0483 N   0  0  0  0  0  0  0  0  0  0  0  0
    6.9881  -16.9219   21.7514 C   0  0  0  0  0  0  0  0  0  0  0  0
    5.7385  -16.9284   21.6276 O   0  0  0  0  0  0  0  0  0  0  0  0
    7.7764  -15.6862   21.5986 C   0  0  0  0  0  0  0  0  0  0  0  0
    9.2608  -15.8718   21.8820 C   0  0  2  0  0  0  0  0  0  0  0  0
    9.6591  -17.2390   21.6029 N   0  0  0  0  0  0  0  0  0  0  0  0
    9.5058  -15.5135   23.2999 C   0  0  0  0  0  0  0  0  0  0  0  0
    9.4088  -14.3367   23.6910 O   0  0  0  0  0  0  0  0  0  0  0  0
    9.8658  -16.4954   24.2953 N   0  0  0  0  0  0  0  0  0  0  0  0
   10.2586  -16.1433   25.6248 C   0  0  1  0  0  0  0  0  0  0  0  0
    9.1574  -16.3555   26.6403 C   0  0  0  0  0  0  0  0  0  0  0  0
    7.9383  -15.5794   26.2967 C   0  0  0  0  0  0  0  0  0  0  0  0
    6.7642  -16.0923   25.7919 C   0  0  0  0  0  0  0  0  0  0  0  0
    5.9056  -15.0837   25.6130 N   0  0  0  0  0  0  0  0  0  0  0  0
    6.4469  -13.9137   25.9742 C   0  0  0  0  0  0  0  0  0  0  0  0
    6.0071  -12.6073   25.9915 C   0  0  0  0  0  0  0  0  0  0  0  0
    6.7934  -11.5668   26.4257 C   0  0  0  0  0  0  0  0  0  0  0  0
    8.0776  -11.8763   26.8581 C   0  0  0  0  0  0  0  0  0  0  0  0
    8.5096  -13.1883   26.8372 C   0  0  0  0  0  0  0  0  0  0  0  0
    7.7339  -14.2234   26.4077 C   0  0  0  0  0  0  0  0  0  0  0  0
   11.4346  -16.9608   26.0146 C   0  0  0  0  0  0  0  0  0  0  0  0
   12.0801  -16.7873   27.2374 O   0  0  0  0  0  0  0  0  0  0  0  0
   11.8427  -17.8295   25.2016 O   0  0  0  0  0  0  0  0  0  0  0  0
  2  1  1  1
  2  4  1  0
  3  2  1  0
  4  6  1  0
  4  5  1  6
  6  7  2  0
  9  8  1  0
 10  9  2  0
 11  9  1  0
 12 11  1  1
 12 14  1  0
 13  6  1  0
 13 12  1  0
 14 15  2  0
 16 17  1  0
 16 14  1  0
 17 28  1  0
 17 18  1  1
 19 27  1  0
 19 18  1  0
 20 19  2  0
 21 20  1  0
 21 22  1  0
 22 27  2  0
 23 22  1  0
 23 24  2  0
 24 25  1  0
 25 26  2  0
 27 26  1  0
 28 30  2  0
 28 29  1  0
M  END
$$$$
