TNW.pdb
     RDKit          3D

 30 31  0  0  1  0  0  0  0  0999 V2000
    7.1411  -12.9901   18.3037 C   0  0  0  0  0  0  0  0  0  0  0  0
    7.3897  -14.1918   19.1921 C   0  0  1  0  0  0  0  0  0  0  0  0
    7.6331  -15.3363   18.4652 O   0  0  0  0  0  0  0  0  0  0  0  0
    8.5239  -13.9134   20.1792 C   0  0  2  0  0  0  0  0  0  0  0  0
    9.6959  -13.6513   19.3656 N   0  0  0  0  0  0  0  0  0  0  0  0
    8.7764  -15.1015   21.0439 C   0  0  0  0  0  0  0  0  0  0  0  0
    7.8554  -15.4925   21.8394 O   0  0  0  0  0  0  0  0  0  0  0  0
   11.6951  -18.4639   18.9765 N   0  0  0  0  0  0  0  0  0  0  0  0
   10.8820  -18.5694   20.1472 C   0  0  0  0  0  0  0  0  0  0  0  0
    9.8532  -19.2821   20.0458 O   0  0  0  0  0  0  0  0  0  0  0  0
   11.2289  -17.8819   21.4038 C   0  0  0  0  0  0  0  0  0  0  0  0
   10.1307  -16.9610   21.9174 C   0  0  2  0  0  0  0  0  0  0  0  0
    9.9765  -15.8204   21.0336 N   0  0  0  0  0  0  0  0  0  0  0  0
   10.4918  -16.5381   23.2919 C   0  0  0  0  0  0  0  0  0  0  0  0
   11.4219  -15.7373   23.4942 O   0  0  0  0  0  0  0  0  0  0  0  0
    9.7949  -17.0238   24.4595 N   0  0  0  0  0  0  0  0  0  0  0  0
   10.1507  -16.6392   25.7904 C   0  0  1  0  0  0  0  0  0  0  0  0
    9.9607  -15.1605   26.0471 C   0  0  0  0  0  0  0  0  0  0  0  0
    8.5263  -14.7766   26.0035 C   0  0  0  0  0  0  0  0  0  0  0  0
    7.4769  -15.5947   25.6487 C   0  0  0  0  0  0  0  0  0  0  0  0
    6.3449  -14.8889   25.7319 N   0  0  0  0  0  0  0  0  0  0  0  0
    6.5828  -13.6320   26.1267 C   0  0  0  0  0  0  0  0  0  0  0  0
    5.7949  -12.5262   26.3651 C   0  0  0  0  0  0  0  0  0  0  0  0
    6.3142  -11.3214   26.7756 C   0  0  0  0  0  0  0  0  0  0  0  0
    7.6914  -11.2470   26.9480 C   0  0  0  0  0  0  0  0  0  0  0  0
    8.4728  -12.3604   26.7066 C   0  0  0  0  0  0  0  0  0  0  0  0
    7.9628  -13.5570   26.2997 C   0  0  0  0  0  0  0  0  0  0  0  0
    9.3197  -17.4040   26.7536 C   0  0  0  0  0  0  0  0  0  0  0  0
    9.5236  -17.3224   28.1298 O   0  0  0  0  0  0  0  0  0  0  0  0
    8.4109  -18.1406   26.2914 O   0  0  0  0  0  0  0  0  0  0  0  0
  2  1  1  6
  2  4  1  0
  3  2  1  0
  4  6  1  0
  4  5  1  6
  6  7  2  0
  9  8  1  0
 10  9  2  0
 11  9  1  0
 12 11  1  6
 12 14  1  0
 13  6  1  0
 13 12  1  0
 14 15  2  0
 16 17  1  0
 16 14  1  0
 17 28  1  0
 17 18  1  6
 19 27  1  0
 19 18  1  0
 20 19  2  0
 21 20  1  0
 21 22  1  0
 22 27  2  0
 23 22  1  0
 23 24  2  0
 24 25  1  0
 25 26  2  0
 27 26  1  0
 28 30  2  0
 28 29  1  0
M  END
$$$$
