TNW.pdb
     RDKit          3D

 30 31  0  0  1  0  0  0  0  0999 V2000
    8.0323  -12.3664   18.8717 C   0  0  0  0  0  0  0  0  0  0  0  0
    8.5463  -13.3639   19.8896 C   0  0  1  0  0  0  0  0  0  0  0  0
    8.2671  -12.9801   21.1827 O   0  0  0  0  0  0  0  0  0  0  0  0
    8.0049  -14.7643   19.6005 C   0  0  2  0  0  0  0  0  0  0  0  0
    6.5627  -14.6586   19.7162 N   0  0  0  0  0  0  0  0  0  0  0  0
    8.5119  -15.7450   20.6026 C   0  0  0  0  0  0  0  0  0  0  0  0
    7.7530  -16.0822   21.5745 O   0  0  0  0  0  0  0  0  0  0  0  0
   11.2958  -20.4533   22.0746 N   0  0  0  0  0  0  0  0  0  0  0  0
   11.8193  -19.1243   22.0238 C   0  0  0  0  0  0  0  0  0  0  0  0
   12.7111  -18.8467   22.8629 O   0  0  0  0  0  0  0  0  0  0  0  0
   11.3413  -18.1335   21.0431 C   0  0  0  0  0  0  0  0  0  0  0  0
   10.1778  -17.2904   21.5466 C   0  0  2  0  0  0  0  0  0  0  0  0
    9.7841  -16.3235   20.5387 N   0  0  0  0  0  0  0  0  0  0  0  0
   10.6027  -16.6245   22.8015 C   0  0  0  0  0  0  0  0  0  0  0  0
   11.3469  -15.6281   22.7797 O   0  0  0  0  0  0  0  0  0  0  0  0
   10.1834  -17.0869   24.1035 N   0  0  0  0  0  0  0  0  0  0  0  0
   10.5397  -16.4167   25.3158 C   0  0  1  0  0  0  0  0  0  0  0  0
   10.0477  -14.9870   25.3653 C   0  0  0  0  0  0  0  0  0  0  0  0
    8.5744  -14.9203   25.5434 C   0  0  0  0  0  0  0  0  0  0  0  0
    7.6950  -15.9750   25.4391 C   0  0  0  0  0  0  0  0  0  0  0  0
    6.4595  -15.5180   25.6649 N   0  0  0  0  0  0  0  0  0  0  0  0
    6.4652  -14.2031   25.9169 C   0  0  0  0  0  0  0  0  0  0  0  0
    5.4943  -13.2680   26.2054 C   0  0  0  0  0  0  0  0  0  0  0  0
    5.7849  -11.9430   26.4277 C   0  0  0  0  0  0  0  0  0  0  0  0
    7.1195  -11.5621   26.3517 C   0  0  0  0  0  0  0  0  0  0  0  0
    8.0855  -12.5063   26.0620 C   0  0  0  0  0  0  0  0  0  0  0  0
    7.8025  -13.8210   25.8409 C   0  0  0  0  0  0  0  0  0  0  0  0
    9.9683  -17.1607   26.4660 C   0  0  0  0  0  0  0  0  0  0  0  0
    9.2309  -18.3307   26.2939 O   0  0  0  0  0  0  0  0  0  0  0  0
   10.1682  -16.7032   27.6205 O   0  0  0  0  0  0  0  0  0  0  0  0
  2  1  1  6
  2  4  1  0
  3  2  1  0
  4  6  1  0
  4  5  1  1
  6  7  2  0
  9  8  1  0
 10  9  2  0
 11  9  1  0
 12 11  1  6
 12 14  1  0
 13  6  1  0
 13 12  1  0
 14 15  2  0
 16 17  1  0
 16 14  1  0
 17 28  1  0
 17 18  1  6
 19 27  1  0
 19 18  1  0
 20 19  2  0
 21 20  1  0
 21 22  1  0
 22 27  2  0
 23 22  1  0
 23 24  2  0
 24 25  1  0
 25 26  2  0
 27 26  1  0
 28 30  2  0
 28 29  1  0
M  END
$$$$
