TNW.pdb
     RDKit          3D

 30 31  0  0  1  0  0  0  0  0999 V2000
    9.6597  -13.9503   16.7733 C   0  0  0  0  0  0  0  0  0  0  0  0
    9.3647  -14.5638   18.1267 C   0  0  1  0  0  0  0  0  0  0  0  0
   10.2772  -14.1787   19.0840 O   0  0  0  0  0  0  0  0  0  0  0  0
    7.9353  -14.2471   18.5678 C   0  0  2  0  0  0  0  0  0  0  0  0
    7.8534  -12.7998   18.6217 N   0  0  0  0  0  0  0  0  0  0  0  0
    7.6621  -14.8097   19.9213 C   0  0  0  0  0  0  0  0  0  0  0  0
    7.6369  -14.0182   20.9248 O   0  0  0  0  0  0  0  0  0  0  0  0
    5.4665  -18.4749   23.6526 N   0  0  0  0  0  0  0  0  0  0  0  0
    6.6563  -18.6538   22.8810 C   0  0  0  0  0  0  0  0  0  0  0  0
    7.5727  -19.3211   23.4209 O   0  0  0  0  0  0  0  0  0  0  0  0
    6.8022  -18.0884   21.5279 C   0  0  0  0  0  0  0  0  0  0  0  0
    7.2528  -16.6341   21.5209 C   0  0  2  0  0  0  0  0  0  0  0  0
    7.4291  -16.1687   20.1577 N   0  0  0  0  0  0  0  0  0  0  0  0
    8.5145  -16.5406   22.2941 C   0  0  0  0  0  0  0  0  0  0  0  0
    9.6062  -16.8448   21.7814 O   0  0  0  0  0  0  0  0  0  0  0  0
    8.5495  -16.0974   23.6678 N   0  0  0  0  0  0  0  0  0  0  0  0
    9.7677  -15.9391   24.4005 C   0  0  1  0  0  0  0  0  0  0  0  0
    9.6931  -14.8402   25.4375 C   0  0  0  0  0  0  0  0  0  0  0  0
    8.2938  -14.5854   25.8662 C   0  0  0  0  0  0  0  0  0  0  0  0
    7.3312  -15.5403   26.1069 C   0  0  0  0  0  0  0  0  0  0  0  0
    6.2042  -14.9209   26.4712 N   0  0  0  0  0  0  0  0  0  0  0  0
    6.3626  -13.5917   26.4873 C   0  0  0  0  0  0  0  0  0  0  0  0
    5.5440  -12.5222   26.7816 C   0  0  0  0  0  0  0  0  0  0  0  0
    5.9757  -11.2188   26.7154 C   0  0  0  0  0  0  0  0  0  0  0  0
    7.2947  -11.0033   26.3336 C   0  0  0  0  0  0  0  0  0  0  0  0
    8.1075  -12.0813   26.0406 C   0  0  0  0  0  0  0  0  0  0  0  0
    7.6843  -13.3752   26.1048 C   0  0  0  0  0  0  0  0  0  0  0  0
   10.0937  -17.2181   25.0795 C   0  0  0  0  0  0  0  0  0  0  0  0
   11.3255  -17.4326   25.6951 O   0  0  0  0  0  0  0  0  0  0  0  0
    9.2173  -18.1204   25.0868 O   0  0  0  0  0  0  0  0  0  0  0  0
  2  1  1  6
  2  4  1  0
  3  2  1  0
  4  6  1  0
  4  5  1  1
  6  7  2  0
  9  8  1  0
 10  9  2  0
 11  9  1  0
 12 11  1  6
 12 14  1  0
 13  6  1  0
 13 12  1  0
 14 15  2  0
 16 17  1  0
 16 14  1  0
 17 28  1  0
 17 18  1  1
 19 27  1  0
 19 18  1  0
 20 19  2  0
 21 20  1  0
 21 22  1  0
 22 27  2  0
 23 22  1  0
 23 24  2  0
 24 25  1  0
 25 26  2  0
 27 26  1  0
 28 30  2  0
 28 29  1  0
M  END
$$$$
