TNW.pdb
     RDKit          3D

 30 31  0  0  1  0  0  0  0  0999 V2000
    7.3346  -12.6706   18.1905 C   0  0  0  0  0  0  0  0  0  0  0  0
    7.4684  -13.9170   19.0413 C   0  0  1  0  0  0  0  0  0  0  0  0
    7.8073  -15.0239   18.2949 O   0  0  0  0  0  0  0  0  0  0  0  0
    8.4636  -13.6938   20.1806 C   0  0  2  0  0  0  0  0  0  0  0  0
    9.7157  -13.3341   19.5423 N   0  0  0  0  0  0  0  0  0  0  0  0
    8.6517  -14.9437   20.9714 C   0  0  0  0  0  0  0  0  0  0  0  0
    7.6751  -15.3860   21.6676 O   0  0  0  0  0  0  0  0  0  0  0  0
   12.3708  -19.7797   21.8945 N   0  0  0  0  0  0  0  0  0  0  0  0
   11.1355  -19.0654   21.9759 C   0  0  0  0  0  0  0  0  0  0  0  0
   10.2959  -19.5012   22.8016 O   0  0  0  0  0  0  0  0  0  0  0  0
   10.8597  -17.8840   21.1392 C   0  0  0  0  0  0  0  0  0  0  0  0
    9.9376  -16.8699   21.8023 C   0  0  2  0  0  0  0  0  0  0  0  0
    9.8485  -15.6676   20.9946 N   0  0  0  0  0  0  0  0  0  0  0  0
   10.4730  -16.5777   23.1539 C   0  0  0  0  0  0  0  0  0  0  0  0
   11.5702  -16.0107   23.3015 O   0  0  0  0  0  0  0  0  0  0  0  0
    9.7622  -16.9292   24.3606 N   0  0  0  0  0  0  0  0  0  0  0  0
   10.2613  -16.6338   25.6681 C   0  0  1  0  0  0  0  0  0  0  0  0
   10.0391  -15.1928   26.0719 C   0  0  0  0  0  0  0  0  0  0  0  0
    8.5928  -14.8658   26.1620 C   0  0  0  0  0  0  0  0  0  0  0  0
    7.5480  -15.7257   25.9060 C   0  0  0  0  0  0  0  0  0  0  0  0
    6.4017  -15.0647   26.0944 N   0  0  0  0  0  0  0  0  0  0  0  0
    6.6255  -13.7982   26.4660 C   0  0  0  0  0  0  0  0  0  0  0  0
    5.8202  -12.7235   26.7773 C   0  0  0  0  0  0  0  0  0  0  0  0
    6.3273  -11.4979   27.1383 C   0  0  0  0  0  0  0  0  0  0  0  0
    7.7106  -11.3688   27.1820 C   0  0  0  0  0  0  0  0  0  0  0  0
    8.5095  -12.4514   26.8684 C   0  0  0  0  0  0  0  0  0  0  0  0
    8.0116  -13.6684   26.5100 C   0  0  0  0  0  0  0  0  0  0  0  0
    9.5894  -17.5172   26.6536 C   0  0  0  0  0  0  0  0  0  0  0  0
    9.9017  -17.4784   28.0112 O   0  0  0  0  0  0  0  0  0  0  0  0
    8.7160  -18.3161   26.2281 O   0  0  0  0  0  0  0  0  0  0  0  0
  2  1  1  6
  2  4  1  0
  3  2  1  0
  4  6  1  0
  4  5  1  6
  6  7  2  0
  9  8  1  0
 10  9  2  0
 11  9  1  0
 12 11  1  6
 12 14  1  0
 13  6  1  0
 13 12  1  0
 14 15  2  0
 16 17  1  0
 16 14  1  0
 17 28  1  0
 17 18  1  1
 19 27  1  0
 19 18  1  0
 20 19  2  0
 21 20  1  0
 21 22  1  0
 22 27  2  0
 23 22  1  0
 23 24  2  0
 24 25  1  0
 25 26  2  0
 27 26  1  0
 28 30  2  0
 28 29  1  0
M  END
$$$$
