TNW.pdb
     RDKit          3D

 30 31  0  0  1  0  0  0  0  0999 V2000
    7.1804  -12.6601   20.1020 C   0  0  0  0  0  0  0  0  0  0  0  0
    7.7884  -13.6266   21.0976 C   0  0  1  0  0  0  0  0  0  0  0  0
    7.0853  -13.6669   22.2814 O   0  0  0  0  0  0  0  0  0  0  0  0
    7.9235  -15.0224   20.4881 C   0  0  2  0  0  0  0  0  0  0  0  0
    6.5916  -15.3860   20.0428 N   0  0  0  0  0  0  0  0  0  0  0  0
    8.3894  -16.0032   21.5099 C   0  0  0  0  0  0  0  0  0  0  0  0
    7.5501  -16.8392   21.9904 O   0  0  0  0  0  0  0  0  0  0  0  0
   11.8552  -15.7918   21.1683 N   0  0  0  0  0  0  0  0  0  0  0  0
   12.1834  -17.0888   21.6712 C   0  0  0  0  0  0  0  0  0  0  0  0
   13.2861  -17.5638   21.3036 O   0  0  0  0  0  0  0  0  0  0  0  0
   11.2808  -17.8294   22.5705 C   0  0  0  0  0  0  0  0  0  0  0  0
   10.0575  -17.0305   22.9987 C   0  0  2  0  0  0  0  0  0  0  0  0
    9.7068  -16.0614   21.9771 N   0  0  0  0  0  0  0  0  0  0  0  0
   10.3691  -16.3703   24.2894 C   0  0  0  0  0  0  0  0  0  0  0  0
   11.1644  -15.4157   24.3471 O   0  0  0  0  0  0  0  0  0  0  0  0
    9.7760  -16.7908   25.5369 N   0  0  0  0  0  0  0  0  0  0  0  0
   10.2125  -16.2992   26.8072 C   0  0  1  0  0  0  0  0  0  0  0  0
    9.0669  -15.8832   27.7033 C   0  0  0  0  0  0  0  0  0  0  0  0
    8.0099  -15.1665   26.9444 C   0  0  0  0  0  0  0  0  0  0  0  0
    6.9936  -15.7487   26.2200 C   0  0  0  0  0  0  0  0  0  0  0  0
    6.2489  -14.7777   25.6824 N   0  0  0  0  0  0  0  0  0  0  0  0
    6.7163  -13.5670   26.0112 C   0  0  0  0  0  0  0  0  0  0  0  0
    6.3338  -12.2724   25.7317 C   0  0  0  0  0  0  0  0  0  0  0  0
    7.0135  -11.1789   26.2132 C   0  0  0  0  0  0  0  0  0  0  0  0
    8.1261  -11.4209   27.0105 C   0  0  0  0  0  0  0  0  0  0  0  0
    8.5018  -12.7216   27.2851 C   0  0  0  0  0  0  0  0  0  0  0  0
    7.8313  -13.8090   26.8102 C   0  0  0  0  0  0  0  0  0  0  0  0
   10.9973  -17.3569   27.4917 C   0  0  0  0  0  0  0  0  0  0  0  0
   11.2213  -18.6025   26.9083 O   0  0  0  0  0  0  0  0  0  0  0  0
   11.4640  -17.0989   28.6309 O   0  0  0  0  0  0  0  0  0  0  0  0
  2  1  1  6
  2  4  1  0
  3  2  1  0
  4  6  1  0
  4  5  1  1
  6  7  2  0
  9  8  1  0
 10  9  2  0
 11  9  1  0
 12 11  1  6
 12 14  1  0
 13  6  1  0
 13 12  1  0
 14 15  2  0
 16 17  1  0
 16 14  1  0
 17 28  1  0
 17 18  1  1
 19 27  1  0
 19 18  1  0
 20 19  2  0
 21 20  1  0
 21 22  1  0
 22 27  2  0
 23 22  1  0
 23 24  2  0
 24 25  1  0
 25 26  2  0
 27 26  1  0
 28 30  2  0
 28 29  1  0
M  END
$$$$
