TNW.pdb
     RDKit          3D

 30 31  0  0  1  0  0  0  0  0999 V2000
    6.2721  -20.5743   21.3308 C   0  0  0  0  0  0  0  0  0  0  0  0
    7.3213  -19.4978   21.5190 C   0  0  1  0  0  0  0  0  0  0  0  0
    8.5460  -20.0195   21.8729 O   0  0  0  0  0  0  0  0  0  0  0  0
    7.4340  -18.6235   20.2697 C   0  0  2  0  0  0  0  0  0  0  0  0
    7.9321  -19.4968   19.2239 N   0  0  0  0  0  0  0  0  0  0  0  0
    8.4014  -17.5102   20.4883 C   0  0  0  0  0  0  0  0  0  0  0  0
    9.6119  -17.6609   20.1062 O   0  0  0  0  0  0  0  0  0  0  0  0
    6.3075  -13.7590   19.7128 N   0  0  0  0  0  0  0  0  0  0  0  0
    7.7355  -13.8111   19.7425 C   0  0  0  0  0  0  0  0  0  0  0  0
    8.3152  -13.7794   18.6291 O   0  0  0  0  0  0  0  0  0  0  0  0
    8.4879  -13.8971   21.0067 C   0  0  0  0  0  0  0  0  0  0  0  0
    9.0719  -15.2774   21.2752 C   0  0  2  0  0  0  0  0  0  0  0  0
    8.0558  -16.2974   21.0939 N   0  0  0  0  0  0  0  0  0  0  0  0
    9.6108  -15.2870   22.6565 C   0  0  0  0  0  0  0  0  0  0  0  0
   10.5156  -14.5049   22.9986 O   0  0  0  0  0  0  0  0  0  0  0  0
    9.1239  -16.1917   23.6711 N   0  0  0  0  0  0  0  0  0  0  0  0
    9.7381  -16.3176   24.9567 C   0  0  1  0  0  0  0  0  0  0  0  0
    8.7328  -16.4185   26.0826 C   0  0  0  0  0  0  0  0  0  0  0  0
    7.6679  -15.3900   25.9603 C   0  0  0  0  0  0  0  0  0  0  0  0
    6.3866  -15.5981   25.5007 C   0  0  0  0  0  0  0  0  0  0  0  0
    5.7304  -14.4342   25.5390 N   0  0  0  0  0  0  0  0  0  0  0  0
    6.5107  -13.4506   26.0036 C   0  0  0  0  0  0  0  0  0  0  0  0
    6.3349  -12.1034   26.2373 C   0  0  0  0  0  0  0  0  0  0  0  0
    7.3345  -11.3012   26.7340 C   0  0  0  0  0  0  0  0  0  0  0  0
    8.5594  -11.9015   27.0011 C   0  0  0  0  0  0  0  0  0  0  0  0
    8.7261  -13.2522   26.7638 C   0  0  0  0  0  0  0  0  0  0  0  0
    7.7382  -14.0517   26.2715 C   0  0  0  0  0  0  0  0  0  0  0  0
   10.5939  -17.5304   24.9675 C   0  0  0  0  0  0  0  0  0  0  0  0
   10.6252  -18.4198   23.8951 O   0  0  0  0  0  0  0  0  0  0  0  0
   11.3029  -17.7410   25.9849 O   0  0  0  0  0  0  0  0  0  0  0  0
  2  1  1  6
  2  4  1  0
  3  2  1  0
  4  6  1  0
  4  5  1  6
  6  7  2  0
  9  8  1  0
 10  9  2  0
 11  9  1  0
 12 11  1  1
 12 14  1  0
 13  6  1  0
 13 12  1  0
 14 15  2  0
 16 17  1  0
 16 14  1  0
 17 28  1  0
 17 18  1  1
 19 27  1  0
 19 18  1  0
 20 19  2  0
 21 20  1  0
 21 22  1  0
 22 27  2  0
 23 22  1  0
 23 24  2  0
 24 25  1  0
 25 26  2  0
 27 26  1  0
 28 30  2  0
 28 29  1  0
M  END
$$$$
