TNW.pdb
     RDKit          3D

 30 31  0  0  1  0  0  0  0  0999 V2000
    8.3917  -12.6012   18.4867 C   0  0  0  0  0  0  0  0  0  0  0  0
    8.7885  -13.6164   19.5388 C   0  0  1  0  0  0  0  0  0  0  0  0
    8.9381  -13.0460   20.7837 O   0  0  0  0  0  0  0  0  0  0  0  0
    7.7925  -14.7759   19.5791 C   0  0  2  0  0  0  0  0  0  0  0  0
    6.5025  -14.1747   19.8600 N   0  0  0  0  0  0  0  0  0  0  0  0
    8.1400  -15.7344   20.6671 C   0  0  0  0  0  0  0  0  0  0  0  0
    7.4219  -15.7542   21.7245 O   0  0  0  0  0  0  0  0  0  0  0  0
   10.0516  -19.7250   18.9781 N   0  0  0  0  0  0  0  0  0  0  0  0
    9.7020  -19.6179   20.3598 C   0  0  0  0  0  0  0  0  0  0  0  0
    8.7895  -20.3809   20.7620 O   0  0  0  0  0  0  0  0  0  0  0  0
   10.3725  -18.6665   21.2638 C   0  0  0  0  0  0  0  0  0  0  0  0
    9.4796  -17.5163   21.7086 C   0  0  2  0  0  0  0  0  0  0  0  0
    9.2181  -16.6230   20.5953 N   0  0  0  0  0  0  0  0  0  0  0  0
   10.1593  -16.8117   22.8223 C   0  0  0  0  0  0  0  0  0  0  0  0
   11.2063  -16.1680   22.6312 O   0  0  0  0  0  0  0  0  0  0  0  0
    9.6529  -16.8312   24.1743 N   0  0  0  0  0  0  0  0  0  0  0  0
   10.3742  -16.2811   25.2801 C   0  0  1  0  0  0  0  0  0  0  0  0
    9.9164  -14.8867   25.6472 C   0  0  0  0  0  0  0  0  0  0  0  0
    8.4481  -14.8319   25.8662 C   0  0  0  0  0  0  0  0  0  0  0  0
    7.5833  -15.9033   25.8462 C   0  0  0  0  0  0  0  0  0  0  0  0
    6.3477  -15.4527   26.0843 N   0  0  0  0  0  0  0  0  0  0  0  0
    6.3396  -14.1261   26.2643 C   0  0  0  0  0  0  0  0  0  0  0  0
    5.3626  -13.1908   26.5309 C   0  0  0  0  0  0  0  0  0  0  0  0
    5.6381  -11.8515   26.6720 C   0  0  0  0  0  0  0  0  0  0  0  0
    6.9635  -11.4560   26.5349 C   0  0  0  0  0  0  0  0  0  0  0  0
    7.9357  -12.4004   26.2677 C   0  0  0  0  0  0  0  0  0  0  0  0
    7.6677  -13.7293   26.1270 C   0  0  0  0  0  0  0  0  0  0  0  0
   10.2037  -17.1677   26.4583 C   0  0  0  0  0  0  0  0  0  0  0  0
   10.9083  -16.9626   27.6431 O   0  0  0  0  0  0  0  0  0  0  0  0
    9.3942  -18.1255   26.3616 O   0  0  0  0  0  0  0  0  0  0  0  0
  2  1  1  6
  2  4  1  0
  3  2  1  0
  4  6  1  0
  4  5  1  1
  6  7  2  0
  9  8  1  0
 10  9  2  0
 11  9  1  0
 12 11  1  6
 12 14  1  0
 13  6  1  0
 13 12  1  0
 14 15  2  0
 16 17  1  0
 16 14  1  0
 17 28  1  0
 17 18  1  1
 19 27  1  0
 19 18  1  0
 20 19  2  0
 21 20  1  0
 21 22  1  0
 22 27  2  0
 23 22  1  0
 23 24  2  0
 24 25  1  0
 25 26  2  0
 27 26  1  0
 28 30  2  0
 28 29  1  0
M  END
$$$$
