TNW.pdb
     RDKit          3D

 30 31  0  0  1  0  0  0  0  0999 V2000
    7.4992  -12.9955   19.2919 C   0  0  0  0  0  0  0  0  0  0  0  0
    7.8953  -13.9543   20.3960 C   0  0  1  0  0  0  0  0  0  0  0  0
    6.8031  -14.4477   21.0749 O   0  0  0  0  0  0  0  0  0  0  0  0
    8.7623  -15.0879   19.8471 C   0  0  2  0  0  0  0  0  0  0  0  0
    7.9092  -15.8283   18.9370 N   0  0  0  0  0  0  0  0  0  0  0  0
    9.2139  -15.9885   20.9463 C   0  0  0  0  0  0  0  0  0  0  0  0
    8.4031  -16.8690   21.3948 O   0  0  0  0  0  0  0  0  0  0  0  0
   13.7213  -16.8683   20.6332 N   0  0  0  0  0  0  0  0  0  0  0  0
   12.8988  -17.6080   21.5382 C   0  0  0  0  0  0  0  0  0  0  0  0
   12.7037  -18.8147   21.2511 O   0  0  0  0  0  0  0  0  0  0  0  0
   12.3113  -16.9921   22.7413 C   0  0  0  0  0  0  0  0  0  0  0  0
   10.8061  -16.7833   22.6456 C   0  0  2  0  0  0  0  0  0  0  0  0
   10.4881  -15.9241   21.5203 N   0  0  0  0  0  0  0  0  0  0  0  0
   10.3418  -16.1962   23.9255 C   0  0  0  0  0  0  0  0  0  0  0  0
    9.7975  -15.0782   23.9594 O   0  0  0  0  0  0  0  0  0  0  0  0
   10.4920  -16.8779   25.1894 N   0  0  0  0  0  0  0  0  0  0  0  0
    9.6980  -16.5659   26.3375 C   0  0  1  0  0  0  0  0  0  0  0  0
    8.2275  -16.8568   26.1337 C   0  0  0  0  0  0  0  0  0  0  0  0
    7.5008  -15.6695   25.6151 C   0  0  0  0  0  0  0  0  0  0  0  0
    6.6330  -15.6512   24.5459 C   0  0  0  0  0  0  0  0  0  0  0  0
    6.1832  -14.4024   24.3888 N   0  0  0  0  0  0  0  0  0  0  0  0
    6.7078  -13.5774   25.3034 C   0  0  0  0  0  0  0  0  0  0  0  0
    6.5827  -12.2327   25.5798 C   0  0  0  0  0  0  0  0  0  0  0  0
    7.2567  -11.6226   26.6108 C   0  0  0  0  0  0  0  0  0  0  0  0
    8.0896  -12.4198   27.3872 C   0  0  0  0  0  0  0  0  0  0  0  0
    8.2087  -13.7663   27.1026 C   0  0  0  0  0  0  0  0  0  0  0  0
    7.5426  -14.3759   26.0817 C   0  0  0  0  0  0  0  0  0  0  0  0
   10.1877  -17.3569   27.4941 C   0  0  0  0  0  0  0  0  0  0  0  0
   11.1887  -18.3171   27.3593 O   0  0  0  0  0  0  0  0  0  0  0  0
    9.6694  -17.1371   28.6189 O   0  0  0  0  0  0  0  0  0  0  0  0
  2  1  1  6
  2  4  1  0
  3  2  1  0
  4  6  1  0
  4  5  1  6
  6  7  2  0
  9  8  1  0
 10  9  2  0
 11  9  1  0
 12 11  1  1
 12 14  1  0
 13  6  1  0
 13 12  1  0
 14 15  2  0
 16 17  1  0
 16 14  1  0
 17 28  1  0
 17 18  1  6
 19 27  1  0
 19 18  1  0
 20 19  2  0
 21 20  1  0
 21 22  1  0
 22 27  2  0
 23 22  1  0
 23 24  2  0
 24 25  1  0
 25 26  2  0
 27 26  1  0
 28 30  2  0
 28 29  1  0
M  END
$$$$
