TNW.pdb
     RDKit          3D

 30 31  0  0  1  0  0  0  0  0999 V2000
    8.9237  -12.7784   18.2553 C   0  0  0  0  0  0  0  0  0  0  0  0
    9.0059  -13.7979   19.3729 C   0  0  1  0  0  0  0  0  0  0  0  0
    9.5629  -13.2725   20.5180 O   0  0  0  0  0  0  0  0  0  0  0  0
    7.6321  -14.4064   19.6564 C   0  0  2  0  0  0  0  0  0  0  0  0
    6.7659  -13.2873   19.9748 N   0  0  0  0  0  0  0  0  0  0  0  0
    7.6942  -15.3326   20.8233 C   0  0  0  0  0  0  0  0  0  0  0  0
    7.1742  -14.9645   21.9315 O   0  0  0  0  0  0  0  0  0  0  0  0
    6.5131  -19.0564   20.6961 N   0  0  0  0  0  0  0  0  0  0  0  0
    7.8102  -19.5880   20.9749 C   0  0  0  0  0  0  0  0  0  0  0  0
    8.0192  -20.7674   20.5983 O   0  0  0  0  0  0  0  0  0  0  0  0
    8.8460  -18.7988   21.6650 C   0  0  0  0  0  0  0  0  0  0  0  0
    8.4119  -17.3763   21.9907 C   0  0  2  0  0  0  0  0  0  0  0  0
    8.2951  -16.5950   20.7734 N   0  0  0  0  0  0  0  0  0  0  0  0
    9.4113  -16.7921   22.9172 C   0  0  0  0  0  0  0  0  0  0  0  0
   10.4976  -16.3547   22.4978 O   0  0  0  0  0  0  0  0  0  0  0  0
    9.1855  -16.6980   24.3402 N   0  0  0  0  0  0  0  0  0  0  0  0
   10.2024  -16.2939   25.2614 C   0  0  1  0  0  0  0  0  0  0  0  0
    9.7081  -15.2941   26.2834 C   0  0  0  0  0  0  0  0  0  0  0  0
    8.2755  -14.9606   26.0755 C   0  0  0  0  0  0  0  0  0  0  0  0
    7.2630  -15.8561   25.8119 C   0  0  0  0  0  0  0  0  0  0  0  0
    6.1194  -15.1754   25.6879 N   0  0  0  0  0  0  0  0  0  0  0  0
    6.3143  -13.8615   25.8558 C   0  0  0  0  0  0  0  0  0  0  0  0
    5.4985  -12.7506   25.8317 C   0  0  0  0  0  0  0  0  0  0  0  0
    5.9735  -11.4781   26.0431 C   0  0  0  0  0  0  0  0  0  0  0  0
    7.3346  -11.3389   26.2881 C   0  0  0  0  0  0  0  0  0  0  0  0
    8.1443  -12.4580   26.3103 C   0  0  0  0  0  0  0  0  0  0  0  0
    7.6781  -13.7215   26.1014 C   0  0  0  0  0  0  0  0  0  0  0  0
   10.7158  -17.4919   25.9716 C   0  0  0  0  0  0  0  0  0  0  0  0
   10.1309  -18.7474   25.8168 O   0  0  0  0  0  0  0  0  0  0  0  0
   11.7085  -17.3458   26.7300 O   0  0  0  0  0  0  0  0  0  0  0  0
  2  1  1  6
  2  4  1  0
  3  2  1  0
  4  6  1  0
  4  5  1  1
  6  7  2  0
  9  8  1  0
 10  9  2  0
 11  9  1  0
 12 11  1  6
 12 14  1  0
 13  6  1  0
 13 12  1  0
 14 15  2  0
 16 17  1  0
 16 14  1  0
 17 28  1  0
 17 18  1  1
 19 27  1  0
 19 18  1  0
 20 19  2  0
 21 20  1  0
 21 22  1  0
 22 27  2  0
 23 22  1  0
 23 24  2  0
 24 25  1  0
 25 26  2  0
 27 26  1  0
 28 30  2  0
 28 29  1  0
M  END
$$$$
