TNW.pdb
     RDKit          3D

 30 31  0  0  1  0  0  0  0  0999 V2000
    9.3485  -12.8035   20.8204 C   0  0  0  0  0  0  0  0  0  0  0  0
    8.0486  -13.1781   20.1384 C   0  0  1  0  0  0  0  0  0  0  0  0
    7.7401  -12.3268   19.1004 O   0  0  0  0  0  0  0  0  0  0  0  0
    8.0802  -14.6328   19.6684 C   0  0  2  0  0  0  0  0  0  0  0  0
    6.7344  -14.9273   19.2144 N   0  0  0  0  0  0  0  0  0  0  0  0
    8.4344  -15.5448   20.7936 C   0  0  0  0  0  0  0  0  0  0  0  0
    7.5168  -15.9063   21.6069 O   0  0  0  0  0  0  0  0  0  0  0  0
   11.5991  -18.6497   19.3083 N   0  0  0  0  0  0  0  0  0  0  0  0
   10.8527  -18.7744   20.5208 C   0  0  0  0  0  0  0  0  0  0  0  0
    9.9571  -19.6544   20.5330 O   0  0  0  0  0  0  0  0  0  0  0  0
   11.1169  -17.9200   21.6921 C   0  0  0  0  0  0  0  0  0  0  0  0
    9.9511  -17.0120   22.0590 C   0  0  2  0  0  0  0  0  0  0  0  0
    9.7272  -16.0329   21.0117 N   0  0  0  0  0  0  0  0  0  0  0  0
   10.2663  -16.3605   23.3532 C   0  0  0  0  0  0  0  0  0  0  0  0
   11.1192  -15.4581   23.4272 O   0  0  0  0  0  0  0  0  0  0  0  0
    9.6112  -16.7301   24.5857 N   0  0  0  0  0  0  0  0  0  0  0  0
   10.0325  -16.2443   25.8633 C   0  0  1  0  0  0  0  0  0  0  0  0
    8.8898  -16.0969   26.8437 C   0  0  0  0  0  0  0  0  0  0  0  0
    7.7707  -15.3088   26.2664 C   0  0  0  0  0  0  0  0  0  0  0  0
    6.7000  -15.8135   25.5626 C   0  0  0  0  0  0  0  0  0  0  0  0
    5.9095  -14.7952   25.2095 N   0  0  0  0  0  0  0  0  0  0  0  0
    6.3980  -13.6266   25.6431 C   0  0  0  0  0  0  0  0  0  0  0  0
    5.9886  -12.3132   25.5548 C   0  0  0  0  0  0  0  0  0  0  0  0
    6.7018  -11.2764   26.1079 C   0  0  0  0  0  0  0  0  0  0  0  0
    7.8776  -11.5971   26.7760 C   0  0  0  0  0  0  0  0  0  0  0  0
    8.2798  -12.9161   26.8594 C   0  0  0  0  0  0  0  0  0  0  0  0
    7.5763  -13.9476   26.3128 C   0  0  0  0  0  0  0  0  0  0  0  0
   11.0339  -17.1813   26.4312 C   0  0  0  0  0  0  0  0  0  0  0  0
   11.4185  -18.3424   25.7633 O   0  0  0  0  0  0  0  0  0  0  0  0
   11.5366  -16.8986   27.5490 O   0  0  0  0  0  0  0  0  0  0  0  0
  2  1  1  6
  2  4  1  0
  3  2  1  0
  4  6  1  0
  4  5  1  1
  6  7  2  0
  9  8  1  0
 10  9  2  0
 11  9  1  0
 12 11  1  6
 12 14  1  0
 13  6  1  0
 13 12  1  0
 14 15  2  0
 16 17  1  0
 16 14  1  0
 17 28  1  0
 17 18  1  1
 19 27  1  0
 19 18  1  0
 20 19  2  0
 21 20  1  0
 21 22  1  0
 22 27  2  0
 23 22  1  0
 23 24  2  0
 24 25  1  0
 25 26  2  0
 27 26  1  0
 28 30  2  0
 28 29  1  0
M  END
$$$$
