TNW.pdb
     RDKit          3D

 30 31  0  0  1  0  0  0  0  0999 V2000
    9.9900  -13.0248   20.1502 C   0  0  0  0  0  0  0  0  0  0  0  0
    8.6159  -12.9518   19.5163 C   0  0  1  0  0  0  0  0  0  0  0  0
    8.5778  -12.0767   18.4533 O   0  0  0  0  0  0  0  0  0  0  0  0
    8.1323  -14.3425   19.1039 C   0  0  2  0  0  0  0  0  0  0  0  0
    6.7592  -14.1674   18.6703 N   0  0  0  0  0  0  0  0  0  0  0  0
    8.1705  -15.2810   20.2620 C   0  0  0  0  0  0  0  0  0  0  0  0
    7.3599  -15.0960   21.2329 O   0  0  0  0  0  0  0  0  0  0  0  0
    8.6719  -20.3435   22.7921 N   0  0  0  0  0  0  0  0  0  0  0  0
    9.7193  -19.4654   22.3741 C   0  0  0  0  0  0  0  0  0  0  0  0
   10.7664  -19.4814   23.0668 O   0  0  0  0  0  0  0  0  0  0  0  0
    9.5811  -18.5895   21.1970 C   0  0  0  0  0  0  0  0  0  0  0  0
    9.0298  -17.2090   21.5264 C   0  0  2  0  0  0  0  0  0  0  0  0
    9.0519  -16.3641   20.3468 N   0  0  0  0  0  0  0  0  0  0  0  0
    9.8505  -16.6361   22.6204 C   0  0  0  0  0  0  0  0  0  0  0  0
   10.9639  -16.1310   22.3913 O   0  0  0  0  0  0  0  0  0  0  0  0
    9.4116  -16.6307   23.9959 N   0  0  0  0  0  0  0  0  0  0  0  0
   10.2453  -16.1963   25.0739 C   0  0  1  0  0  0  0  0  0  0  0  0
    9.9176  -14.7966   25.5451 C   0  0  0  0  0  0  0  0  0  0  0  0
    8.4541  -14.6028   25.7109 C   0  0  0  0  0  0  0  0  0  0  0  0
    7.4920  -15.5859   25.6457 C   0  0  0  0  0  0  0  0  0  0  0  0
    6.2972  -15.0207   25.8441 N   0  0  0  0  0  0  0  0  0  0  0  0
    6.4094  -13.7012   26.0404 C   0  0  0  0  0  0  0  0  0  0  0  0
    5.5171  -12.6787   26.2829 C   0  0  0  0  0  0  0  0  0  0  0  0
    5.9141  -11.3735   26.4508 C   0  0  0  0  0  0  0  0  0  0  0  0
    7.2755  -11.1060   26.3673 C   0  0  0  0  0  0  0  0  0  0  0  0
    8.1621  -12.1371   26.1240 C   0  0  0  0  0  0  0  0  0  0  0  0
    7.7736  -13.4327   25.9568 C   0  0  0  0  0  0  0  0  0  0  0  0
   10.0910  -17.1346   26.2136 C   0  0  0  0  0  0  0  0  0  0  0  0
    9.2136  -18.2163   26.1640 O   0  0  0  0  0  0  0  0  0  0  0  0
   10.7823  -16.9277   27.2438 O   0  0  0  0  0  0  0  0  0  0  0  0
  2  1  1  6
  2  4  1  0
  3  2  1  0
  4  6  1  0
  4  5  1  1
  6  7  2  0
  9  8  1  0
 10  9  2  0
 11  9  1  0
 12 11  1  6
 12 14  1  0
 13  6  1  0
 13 12  1  0
 14 15  2  0
 16 17  1  0
 16 14  1  0
 17 28  1  0
 17 18  1  1
 19 27  1  0
 19 18  1  0
 20 19  2  0
 21 20  1  0
 21 22  1  0
 22 27  2  0
 23 22  1  0
 23 24  2  0
 24 25  1  0
 25 26  2  0
 27 26  1  0
 28 30  2  0
 28 29  1  0
M  END
$$$$
