TNW.pdb
     RDKit          3D

 30 31  0  0  1  0  0  0  0  0999 V2000
    7.8021  -12.1820   19.9469 C   0  0  0  0  0  0  0  0  0  0  0  0
    8.2391  -13.2627   20.9146 C   0  0  1  0  0  0  0  0  0  0  0  0
    7.8687  -12.9823   22.2113 O   0  0  0  0  0  0  0  0  0  0  0  0
    7.7163  -14.6306   20.4748 C   0  0  2  0  0  0  0  0  0  0  0  0
    6.2732  -14.4967   20.4111 N   0  0  0  0  0  0  0  0  0  0  0  0
    8.0730  -15.6793   21.4729 C   0  0  0  0  0  0  0  0  0  0  0  0
    7.1863  -16.0605   22.3110 O   0  0  0  0  0  0  0  0  0  0  0  0
   12.2825  -19.7339   23.3756 N   0  0  0  0  0  0  0  0  0  0  0  0
   10.9520  -19.3305   23.0443 C   0  0  0  0  0  0  0  0  0  0  0  0
   10.0243  -19.9606   23.6092 O   0  0  0  0  0  0  0  0  0  0  0  0
   10.6809  -18.2373   22.0938 C   0  0  0  0  0  0  0  0  0  0  0  0
    9.5923  -17.2806   22.5603 C   0  0  2  0  0  0  0  0  0  0  0  0
    9.3362  -16.2763   21.5446 N   0  0  0  0  0  0  0  0  0  0  0  0
   10.0374  -16.6643   23.8334 C   0  0  0  0  0  0  0  0  0  0  0  0
   10.8633  -15.7342   23.8425 O   0  0  0  0  0  0  0  0  0  0  0  0
    9.5454  -17.1013   25.1186 N   0  0  0  0  0  0  0  0  0  0  0  0
   10.1369  -16.6922   26.3549 C   0  0  1  0  0  0  0  0  0  0  0  0
    9.1560  -16.0035   27.2780 C   0  0  0  0  0  0  0  0  0  0  0  0
    8.0313  -15.3918   26.5245 C   0  0  0  0  0  0  0  0  0  0  0  0
    7.0655  -16.0695   25.8145 C   0  0  0  0  0  0  0  0  0  0  0  0
    6.2306  -15.1745   25.2774 N   0  0  0  0  0  0  0  0  0  0  0  0
    6.5892  -13.9238   25.5929 C   0  0  0  0  0  0  0  0  0  0  0  0
    6.0882  -12.6716   25.3079 C   0  0  0  0  0  0  0  0  0  0  0  0
    6.6702  -11.5171   25.7748 C   0  0  0  0  0  0  0  0  0  0  0  0
    7.8075  -11.6507   26.5627 C   0  0  0  0  0  0  0  0  0  0  0  0
    8.3022  -12.9097   26.8429 C   0  0  0  0  0  0  0  0  0  0  0  0
    7.7289  -14.0572   26.3825 C   0  0  0  0  0  0  0  0  0  0  0  0
   10.6890  -17.8846   27.0452 C   0  0  0  0  0  0  0  0  0  0  0  0
   11.3906  -17.7826   28.2450 O   0  0  0  0  0  0  0  0  0  0  0  0
   10.5060  -19.0096   26.5133 O   0  0  0  0  0  0  0  0  0  0  0  0
  2  1  1  6
  2  4  1  0
  3  2  1  0
  4  6  1  0
  4  5  1  1
  6  7  2  0
  9  8  1  0
 10  9  2  0
 11  9  1  0
 12 11  1  6
 12 14  1  0
 13  6  1  0
 13 12  1  0
 14 15  2  0
 16 17  1  0
 16 14  1  0
 17 28  1  0
 17 18  1  1
 19 27  1  0
 19 18  1  0
 20 19  2  0
 21 20  1  0
 21 22  1  0
 22 27  2  0
 23 22  1  0
 23 24  2  0
 24 25  1  0
 25 26  2  0
 27 26  1  0
 28 30  2  0
 28 29  1  0
M  END
$$$$
