TNW.pdb
     RDKit          3D

 30 31  0  0  1  0  0  0  0  0999 V2000
    9.5428  -13.1019   17.2780 C   0  0  0  0  0  0  0  0  0  0  0  0
    9.4112  -13.9839   18.5027 C   0  0  1  0  0  0  0  0  0  0  0  0
   10.0967  -13.4785   19.5853 O   0  0  0  0  0  0  0  0  0  0  0  0
    7.9404  -14.2247   18.8443 C   0  0  2  0  0  0  0  0  0  0  0  0
    7.3815  -12.9139   19.1160 N   0  0  0  0  0  0  0  0  0  0  0  0
    7.8123  -15.0795   20.0592 C   0  0  0  0  0  0  0  0  0  0  0  0
    7.4180  -14.5446   21.1512 O   0  0  0  0  0  0  0  0  0  0  0  0
    8.0117  -19.6405   18.7707 N   0  0  0  0  0  0  0  0  0  0  0  0
    7.4573  -19.2004   20.0123 C   0  0  0  0  0  0  0  0  0  0  0  0
    6.2116  -19.3038   20.1314 O   0  0  0  0  0  0  0  0  0  0  0  0
    8.2975  -18.6557   21.0936 C   0  0  0  0  0  0  0  0  0  0  0  0
    8.0922  -17.1661   21.3329 C   0  0  2  0  0  0  0  0  0  0  0  0
    8.1017  -16.4482   20.0718 N   0  0  0  0  0  0  0  0  0  0  0  0
    9.1697  -16.6934   22.2352 C   0  0  0  0  0  0  0  0  0  0  0  0
   10.2974  -16.4082   21.7947 O   0  0  0  0  0  0  0  0  0  0  0  0
    8.9758  -16.5384   23.6575 N   0  0  0  0  0  0  0  0  0  0  0  0
   10.0256  -16.1417   24.5443 C   0  0  1  0  0  0  0  0  0  0  0  0
    9.7686  -14.8028   25.2000 C   0  0  0  0  0  0  0  0  0  0  0  0
    8.3252  -14.6014   25.4872 C   0  0  0  0  0  0  0  0  0  0  0  0
    7.3477  -15.5710   25.4564 C   0  0  0  0  0  0  0  0  0  0  0  0
    6.1795  -15.0026   25.7707 N   0  0  0  0  0  0  0  0  0  0  0  0
    6.3243  -13.6938   26.0123 C   0  0  0  0  0  0  0  0  0  0  0  0
    5.4673  -12.6736   26.3659 C   0  0  0  0  0  0  0  0  0  0  0  0
    5.8936  -11.3808   26.5565 C   0  0  0  0  0  0  0  0  0  0  0  0
    7.2479  -11.1239   26.3783 C   0  0  0  0  0  0  0  0  0  0  0  0
    8.0991  -12.1526   26.0240 C   0  0  0  0  0  0  0  0  0  0  0  0
    7.6815  -13.4359   25.8339 C   0  0  0  0  0  0  0  0  0  0  0  0
   10.1811  -17.1717   25.6016 C   0  0  0  0  0  0  0  0  0  0  0  0
   11.2264  -17.1306   26.5224 O   0  0  0  0  0  0  0  0  0  0  0  0
    9.3328  -18.0992   25.6487 O   0  0  0  0  0  0  0  0  0  0  0  0
  2  1  1  6
  2  4  1  0
  3  2  1  0
  4  6  1  0
  4  5  1  1
  6  7  2  0
  9  8  1  0
 10  9  2  0
 11  9  1  0
 12 11  1  6
 12 14  1  0
 13  6  1  0
 13 12  1  0
 14 15  2  0
 16 17  1  0
 16 14  1  0
 17 28  1  0
 17 18  1  1
 19 27  1  0
 19 18  1  0
 20 19  2  0
 21 20  1  0
 21 22  1  0
 22 27  2  0
 23 22  1  0
 23 24  2  0
 24 25  1  0
 25 26  2  0
 27 26  1  0
 28 30  2  0
 28 29  1  0
M  END
$$$$
