TQL.pdb
     RDKit          3D

 25 24  0  0  1  0  0  0  0  0999 V2000
    6.3172  -18.0580   25.7332 C   0  0  0  0  0  0  0  0  0  0  0  0
    6.6187  -19.3191   24.9225 C   0  0  1  0  0  0  0  0  0  0  0  0
    5.9043  -20.3951   25.3849 O   0  0  0  0  0  0  0  0  0  0  0  0
    6.2488  -18.9976   23.4868 C   0  0  2  0  0  0  0  0  0  0  0  0
    6.2864  -20.2614   22.7686 N   0  0  0  0  0  0  0  0  0  0  0  0
    7.2256  -18.0597   22.9261 C   0  0  0  0  0  0  0  0  0  0  0  0
    8.3856  -18.4699   22.6548 O   0  0  0  0  0  0  0  0  0  0  0  0
    7.2349  -13.4304   18.5790 N   0  0  0  0  0  0  0  0  0  0  0  0
    8.0006  -12.9178   19.6465 C   0  0  0  0  0  0  0  0  0  0  0  0
    8.2242  -11.6856   19.6907 O   0  0  0  0  0  0  0  0  0  0  0  0
    8.5283  -13.7894   20.6949 C   0  0  0  0  0  0  0  0  0  0  0  0
    7.5356  -14.7461   21.2209 C   0  0  0  0  0  0  0  0  0  0  0  0
    7.9800  -15.7606   22.2069 C   0  0  2  0  0  0  0  0  0  0  0  0
    6.9760  -16.6839   22.6507 N   0  0  0  0  0  0  0  0  0  0  0  0
    8.7620  -15.1959   23.3291 C   0  0  0  0  0  0  0  0  0  0  0  0
    9.9168  -14.7318   23.1810 O   0  0  0  0  0  0  0  0  0  0  0  0
    8.2568  -11.7022   25.3311 C   0  0  0  0  0  0  0  0  0  0  0  0
    7.2322  -12.7582   25.7717 C   0  0  2  0  0  0  0  0  0  0  0  0
    6.1666  -12.0475   26.5400 C   0  0  0  0  0  0  0  0  0  0  0  0
    7.9867  -13.7674   26.5624 C   0  0  0  0  0  0  0  0  0  0  0  0
    8.9277  -14.6335   25.7714 C   0  0  2  0  0  0  0  0  0  0  0  0
    8.1996  -15.1703   24.6301 N   0  0  0  0  0  0  0  0  0  0  0  0
    9.4793  -15.7534   26.5351 C   0  0  0  0  0  0  0  0  0  0  0  0
    9.2432  -16.9260   26.1972 O   0  0  0  0  0  0  0  0  0  0  0  0
   10.2669  -15.5124   27.6374 O   0  0  0  0  0  0  0  0  0  0  0  0
  2  1  1  1
  3  2  1  0
  4  6  1  0
  4  5  1  6
  4  2  1  0
  6 14  1  0
  7  6  2  0
  9 11  1  0
  9  8  1  0
 10  9  2  0
 12 11  1  0
 13 12  1  1
 14 13  1  0
 15 13  1  0
 16 15  2  0
 18 17  1  1
 18 19  1  0
 20 18  1  0
 21 20  1  1
 21 22  1  0
 21 23  1  0
 22 15  1  0
 23 25  1  0
 24 23  2  0
M  END
$$$$
