TQL.pdb
     RDKit          3D

 25 24  0  0  1  0  0  0  0  0999 V2000
    8.6482  -12.5023   20.0138 C   0  0  0  0  0  0  0  0  0  0  0  0
    7.7055  -13.3348   19.1439 C   0  0  1  0  0  0  0  0  0  0  0  0
    7.5191  -12.7585   17.9130 O   0  0  0  0  0  0  0  0  0  0  0  0
    8.3488  -14.7023   19.0118 C   0  0  2  0  0  0  0  0  0  0  0  0
    7.4465  -15.4942   18.1912 N   0  0  0  0  0  0  0  0  0  0  0  0
    8.4975  -15.3056   20.3393 C   0  0  0  0  0  0  0  0  0  0  0  0
    7.4690  -15.6847   20.9606 O   0  0  0  0  0  0  0  0  0  0  0  0
   12.2538  -20.4017   22.1529 N   0  0  0  0  0  0  0  0  0  0  0  0
   12.3067  -19.0710   21.6892 C   0  0  0  0  0  0  0  0  0  0  0  0
   13.4237  -18.5692   21.4235 O   0  0  0  0  0  0  0  0  0  0  0  0
   11.0928  -18.2763   21.5098 C   0  0  0  0  0  0  0  0  0  0  0  0
   11.0198  -17.1026   22.4012 C   0  0  0  0  0  0  0  0  0  0  0  0
    9.8631  -16.1836   22.2722 C   0  0  2  0  0  0  0  0  0  0  0  0
    9.7369  -15.5094   21.0125 N   0  0  0  0  0  0  0  0  0  0  0  0
    9.7026  -15.2655   23.4215 C   0  0  0  0  0  0  0  0  0  0  0  0
    9.9033  -14.0315   23.3330 O   0  0  0  0  0  0  0  0  0  0  0  0
    6.2663  -12.3629   26.1206 C   0  0  0  0  0  0  0  0  0  0  0  0
    7.5278  -13.0877   26.6129 C   0  0  2  0  0  0  0  0  0  0  0  0
    8.5297  -12.0391   26.9701 C   0  0  0  0  0  0  0  0  0  0  0  0
    7.9513  -13.9868   25.5060 C   0  0  0  0  0  0  0  0  0  0  0  0
    9.0851  -14.9195   25.8314 C   0  0  2  0  0  0  0  0  0  0  0  0
    9.3066  -15.7836   24.6803 N   0  0  0  0  0  0  0  0  0  0  0  0
    8.8357  -15.7635   27.0007 C   0  0  0  0  0  0  0  0  0  0  0  0
    9.1038  -15.3551   28.1435 O   0  0  0  0  0  0  0  0  0  0  0  0
    8.2995  -17.0206   26.8397 O   0  0  0  0  0  0  0  0  0  0  0  0
  2  1  1  1
  3  2  1  0
  4  6  1  0
  4  5  1  6
  4  2  1  0
  6 14  1  0
  7  6  2  0
  9 11  1  0
  9  8  1  0
 10  9  2  0
 12 11  1  0
 13 12  1  6
 14 13  1  0
 15 13  1  0
 16 15  2  0
 18 17  1  6
 18 19  1  0
 20 18  1  0
 21 20  1  6
 21 22  1  0
 21 23  1  0
 22 15  1  0
 23 25  1  0
 24 23  2  0
M  END
$$$$
