TQL.pdb
     RDKit          3D

 25 24  0  0  1  0  0  0  0  0999 V2000
    4.6400  -19.7837   23.9159 C   0  0  0  0  0  0  0  0  0  0  0  0
    5.8226  -18.8268   23.7604 C   0  0  1  0  0  0  0  0  0  0  0  0
    6.9112  -19.2545   24.4772 O   0  0  0  0  0  0  0  0  0  0  0  0
    6.1343  -18.7771   22.2766 C   0  0  2  0  0  0  0  0  0  0  0  0
    6.4792  -20.1364   21.8918 N   0  0  0  0  0  0  0  0  0  0  0  0
    7.2655  -17.8750   22.0421 C   0  0  0  0  0  0  0  0  0  0  0  0
    8.4282  -18.3545   21.9663 O   0  0  0  0  0  0  0  0  0  0  0  0
    7.6776  -12.4106   18.9308 N   0  0  0  0  0  0  0  0  0  0  0  0
    8.9630  -12.5482   19.4941 C   0  0  0  0  0  0  0  0  0  0  0  0
    9.8632  -11.7498   19.1441 O   0  0  0  0  0  0  0  0  0  0  0  0
    9.2595  -13.5923   20.4736 C   0  0  0  0  0  0  0  0  0  0  0  0
    8.1091  -14.4687   20.7670 C   0  0  0  0  0  0  0  0  0  0  0  0
    8.2975  -15.5949   21.7131 C   0  0  2  0  0  0  0  0  0  0  0  0
    7.1680  -16.4618   21.8871 N   0  0  0  0  0  0  0  0  0  0  0  0
    8.9036  -15.1934   23.0020 C   0  0  0  0  0  0  0  0  0  0  0  0
   10.0483  -14.6892   23.0817 O   0  0  0  0  0  0  0  0  0  0  0  0
    8.2128  -11.9265   25.6205 C   0  0  0  0  0  0  0  0  0  0  0  0
    7.0770  -12.9553   25.5175 C   0  0  2  0  0  0  0  0  0  0  0  0
    5.8693  -12.3459   26.1508 C   0  0  0  0  0  0  0  0  0  0  0  0
    7.5668  -14.1867   26.1933 C   0  0  0  0  0  0  0  0  0  0  0  0
    8.6806  -14.9095   25.4876 C   0  0  2  0  0  0  0  0  0  0  0  0
    8.1761  -15.3785   24.2045 N   0  0  0  0  0  0  0  0  0  0  0  0
    9.1977  -16.0605   26.2288 C   0  0  0  0  0  0  0  0  0  0  0  0
    9.6445  -15.9218   27.3802 O   0  0  0  0  0  0  0  0  0  0  0  0
    9.1915  -17.3095   25.6513 O   0  0  0  0  0  0  0  0  0  0  0  0
  2  1  1  6
  3  2  1  0
  4  6  1  0
  4  5  1  1
  4  2  1  0
  6 14  1  0
  7  6  2  0
  9 11  1  0
  9  8  1  0
 10  9  2  0
 12 11  1  0
 13 12  1  1
 14 13  1  0
 15 13  1  0
 16 15  2  0
 18 17  1  1
 18 19  1  0
 20 18  1  0
 21 20  1  1
 21 22  1  0
 21 23  1  0
 22 15  1  0
 23 25  1  0
 24 23  2  0
M  END
$$$$
