TQL.pdb
     RDKit          3D

 25 24  0  0  1  0  0  0  0  0999 V2000
    8.6875  -12.2808   20.4142 C   0  0  0  0  0  0  0  0  0  0  0  0
    7.7589  -12.9225   19.3826 C   0  0  1  0  0  0  0  0  0  0  0  0
    7.7222  -12.1953   18.2200 O   0  0  0  0  0  0  0  0  0  0  0  0
    8.3018  -14.3171   19.1344 C   0  0  2  0  0  0  0  0  0  0  0  0
    7.3966  -14.9379   18.1806 N   0  0  0  0  0  0  0  0  0  0  0  0
    8.3166  -15.0697   20.3921 C   0  0  0  0  0  0  0  0  0  0  0  0
    7.2275  -15.4777   20.8767 O   0  0  0  0  0  0  0  0  0  0  0  0
   12.5111  -19.1813   22.5298 N   0  0  0  0  0  0  0  0  0  0  0  0
   11.5550  -19.1499   23.5658 C   0  0  0  0  0  0  0  0  0  0  0  0
   11.6478  -19.9830   24.4972 O   0  0  0  0  0  0  0  0  0  0  0  0
   10.4713  -18.1686   23.5750 C   0  0  0  0  0  0  0  0  0  0  0  0
   10.4830  -17.2668   22.4070 C   0  0  0  0  0  0  0  0  0  0  0  0
    9.4779  -16.1786   22.3398 C   0  0  2  0  0  0  0  0  0  0  0  0
    9.4858  -15.3925   21.1400 N   0  0  0  0  0  0  0  0  0  0  0  0
    9.4233  -15.3438   23.5604 C   0  0  0  0  0  0  0  0  0  0  0  0
    9.5372  -14.0960   23.5305 O   0  0  0  0  0  0  0  0  0  0  0  0
    8.5599  -12.6556   26.6259 C   0  0  0  0  0  0  0  0  0  0  0  0
    7.4684  -13.0738   25.6295 C   0  0  2  0  0  0  0  0  0  0  0  0
    6.1888  -12.4557   26.0896 C   0  0  0  0  0  0  0  0  0  0  0  0
    7.4604  -14.5613   25.6192 C   0  0  0  0  0  0  0  0  0  0  0  0
    8.7653  -15.2152   25.9809 C   0  0  2  0  0  0  0  0  0  0  0  0
    9.2354  -15.9618   24.8223 N   0  0  0  0  0  0  0  0  0  0  0  0
    8.6679  -16.1356   27.1145 C   0  0  0  0  0  0  0  0  0  0  0  0
    8.2031  -17.2783   26.9626 O   0  0  0  0  0  0  0  0  0  0  0  0
    9.0933  -15.7383   28.3614 O   0  0  0  0  0  0  0  0  0  0  0  0
  2  1  1  1
  3  2  1  0
  4  6  1  0
  4  5  1  6
  4  2  1  0
  6 14  1  0
  7  6  2  0
  9 11  1  0
  9  8  1  0
 10  9  2  0
 12 11  1  0
 13 12  1  1
 14 13  1  0
 15 13  1  0
 16 15  2  0
 18 17  1  1
 18 19  1  0
 20 18  1  0
 21 20  1  6
 21 22  1  0
 21 23  1  0
 22 15  1  0
 23 25  1  0
 24 23  2  0
M  END
$$$$
