TQL.pdb
     RDKit          3D

 25 24  0  0  1  0  0  0  0  0999 V2000
    8.9588  -12.3938   20.1956 C   0  0  0  0  0  0  0  0  0  0  0  0
    8.2684  -13.0542   19.0017 C   0  0  1  0  0  0  0  0  0  0  0  0
    8.6584  -12.4822   17.8174 O   0  0  0  0  0  0  0  0  0  0  0  0
    8.6525  -14.5211   19.0492 C   0  0  2  0  0  0  0  0  0  0  0  0
    7.9892  -15.1478   17.9170 N   0  0  0  0  0  0  0  0  0  0  0  0
    8.1861  -15.1106   20.3074 C   0  0  0  0  0  0  0  0  0  0  0  0
    6.9514  -15.2927   20.4802 O   0  0  0  0  0  0  0  0  0  0  0  0
    8.3145  -20.3786   22.5382 N   0  0  0  0  0  0  0  0  0  0  0  0
    9.0029  -19.7631   21.4724 C   0  0  0  0  0  0  0  0  0  0  0  0
    9.4172  -20.4773   20.5299 O   0  0  0  0  0  0  0  0  0  0  0  0
    9.2348  -18.3198   21.4456 C   0  0  0  0  0  0  0  0  0  0  0  0
    8.7253  -17.6189   22.6401 C   0  0  0  0  0  0  0  0  0  0  0  0
    8.5510  -16.1476   22.5798 C   0  0  2  0  0  0  0  0  0  0  0  0
    9.0270  -15.5093   21.3867 N   0  0  0  0  0  0  0  0  0  0  0  0
    8.9887  -15.4464   23.8072 C   0  0  0  0  0  0  0  0  0  0  0  0
   10.1684  -15.0598   23.9795 O   0  0  0  0  0  0  0  0  0  0  0  0
    7.9113  -11.6520   25.7635 C   0  0  0  0  0  0  0  0  0  0  0  0
    6.7794  -12.6900   25.7822 C   0  0  2  0  0  0  0  0  0  0  0  0
    5.5581  -12.0038   26.3004 C   0  0  0  0  0  0  0  0  0  0  0  0
    7.2573  -13.8133   26.6324 C   0  0  0  0  0  0  0  0  0  0  0  0
    8.4418  -14.5687   26.0961 C   0  0  2  0  0  0  0  0  0  0  0  0
    8.0511  -15.1931   24.8398 N   0  0  0  0  0  0  0  0  0  0  0  0
    8.9313  -15.6125   26.9975 C   0  0  0  0  0  0  0  0  0  0  0  0
    8.7064  -16.8111   26.7577 O   0  0  0  0  0  0  0  0  0  0  0  0
    9.6475  -15.2700   28.1215 O   0  0  0  0  0  0  0  0  0  0  0  0
  2  1  1  1
  3  2  1  0
  4  6  1  0
  4  5  1  6
  4  2  1  0
  6 14  1  0
  7  6  2  0
  9 11  1  0
  9  8  1  0
 10  9  2  0
 12 11  1  0
 13 12  1  1
 14 13  1  0
 15 13  1  0
 16 15  2  0
 18 17  1  1
 18 19  1  0
 20 18  1  0
 21 20  1  1
 21 22  1  0
 21 23  1  0
 22 15  1  0
 23 25  1  0
 24 23  2  0
M  END
$$$$
