TQL.pdb
     RDKit          3D

 25 24  0  0  1  0  0  0  0  0999 V2000
    9.0789  -12.3680   20.2768 C   0  0  0  0  0  0  0  0  0  0  0  0
    8.0928  -13.0205   19.3071 C   0  0  1  0  0  0  0  0  0  0  0  0
    8.1479  -12.4363   18.0672 O   0  0  0  0  0  0  0  0  0  0  0  0
    8.4776  -14.4862   19.2349 C   0  0  2  0  0  0  0  0  0  0  0  0
    7.5624  -15.0964   18.2837 N   0  0  0  0  0  0  0  0  0  0  0  0
    8.3268  -15.0995   20.5575 C   0  0  0  0  0  0  0  0  0  0  0  0
    7.1721  -15.3790   20.9771 O   0  0  0  0  0  0  0  0  0  0  0  0
   11.4081  -19.9110   22.5078 N   0  0  0  0  0  0  0  0  0  0  0  0
   10.6702  -19.6189   23.6735 C   0  0  0  0  0  0  0  0  0  0  0  0
   10.6865  -20.4410   24.6190 O   0  0  0  0  0  0  0  0  0  0  0  0
    9.8985  -18.3835   23.7989 C   0  0  0  0  0  0  0  0  0  0  0  0
    9.9238  -17.5470   22.5835 C   0  0  0  0  0  0  0  0  0  0  0  0
    9.2552  -16.2238   22.6181 C   0  0  2  0  0  0  0  0  0  0  0  0
    9.3995  -15.4188   21.4397 N   0  0  0  0  0  0  0  0  0  0  0  0
    9.5144  -15.4593   23.8583 C   0  0  0  0  0  0  0  0  0  0  0  0
   10.6247  -14.9343   24.1082 O   0  0  0  0  0  0  0  0  0  0  0  0
    8.0153  -11.8168   25.9910 C   0  0  0  0  0  0  0  0  0  0  0  0
    6.9470  -12.9064   25.8163 C   0  0  2  0  0  0  0  0  0  0  0  0
    5.6526  -12.3385   26.2989 C   0  0  0  0  0  0  0  0  0  0  0  0
    7.4234  -14.0855   26.5881 C   0  0  0  0  0  0  0  0  0  0  0  0
    8.7160  -14.6883   26.1114 C   0  0  2  0  0  0  0  0  0  0  0  0
    8.4782  -15.3037   24.8132 N   0  0  0  0  0  0  0  0  0  0  0  0
    9.2581  -15.7062   27.0123 C   0  0  0  0  0  0  0  0  0  0  0  0
    9.0020  -16.9092   26.8337 O   0  0  0  0  0  0  0  0  0  0  0  0
   10.0590  -15.3343   28.0677 O   0  0  0  0  0  0  0  0  0  0  0  0
  2  1  1  1
  3  2  1  0
  4  6  1  0
  4  5  1  6
  4  2  1  0
  6 14  1  0
  7  6  2  0
  9 11  1  0
  9  8  1  0
 10  9  2  0
 12 11  1  0
 13 12  1  6
 14 13  1  0
 15 13  1  0
 16 15  2  0
 18 17  1  1
 18 19  1  0
 20 18  1  0
 21 20  1  1
 21 22  1  0
 21 23  1  0
 22 15  1  0
 23 25  1  0
 24 23  2  0
M  END
$$$$
