TQL.pdb
     RDKit          3D

 25 24  0  0  1  0  0  0  0  0999 V2000
    8.7333  -12.4602   20.5846 C   0  0  0  0  0  0  0  0  0  0  0  0
    7.6920  -12.9893   19.5975 C   0  0  1  0  0  0  0  0  0  0  0  0
    7.6815  -12.2554   18.4386 O   0  0  0  0  0  0  0  0  0  0  0  0
    8.0652  -14.4338   19.3227 C   0  0  2  0  0  0  0  0  0  0  0  0
    7.0672  -14.9376   18.3928 N   0  0  0  0  0  0  0  0  0  0  0  0
    8.0318  -15.1964   20.5739 C   0  0  0  0  0  0  0  0  0  0  0  0
    6.9321  -15.6527   20.9861 O   0  0  0  0  0  0  0  0  0  0  0  0
   11.9139  -19.5582   22.5430 N   0  0  0  0  0  0  0  0  0  0  0  0
   11.0603  -19.4262   21.4284 C   0  0  0  0  0  0  0  0  0  0  0  0
   11.1663  -20.2467   20.4873 O   0  0  0  0  0  0  0  0  0  0  0  0
   10.0599  -18.3625   21.3548 C   0  0  0  0  0  0  0  0  0  0  0  0
   10.0474  -17.4824   22.5391 C   0  0  0  0  0  0  0  0  0  0  0  0
    9.1246  -16.3216   22.5517 C   0  0  2  0  0  0  0  0  0  0  0  0
    9.1640  -15.4782   21.3921 N   0  0  0  0  0  0  0  0  0  0  0  0
    9.1597  -15.5481   23.8127 C   0  0  0  0  0  0  0  0  0  0  0  0
    9.3997  -14.3184   23.8440 O   0  0  0  0  0  0  0  0  0  0  0  0
    8.3871  -12.5953   26.6773 C   0  0  0  0  0  0  0  0  0  0  0  0
    7.5075  -13.3079   25.6393 C   0  0  2  0  0  0  0  0  0  0  0  0
    6.2192  -12.5563   25.5602 C   0  0  0  0  0  0  0  0  0  0  0  0
    7.3680  -14.7138   26.1051 C   0  0  0  0  0  0  0  0  0  0  0  0
    8.6581  -15.4682   26.2725 C   0  0  2  0  0  0  0  0  0  0  0  0
    8.9147  -16.2067   25.0439 N   0  0  0  0  0  0  0  0  0  0  0  0
    8.6448  -16.4166   27.3869 C   0  0  0  0  0  0  0  0  0  0  0  0
    8.1545  -17.5500   27.2463 O   0  0  0  0  0  0  0  0  0  0  0  0
    9.1784  -16.0562   28.6030 O   0  0  0  0  0  0  0  0  0  0  0  0
  2  1  1  1
  3  2  1  0
  4  6  1  0
  4  5  1  6
  4  2  1  0
  6 14  1  0
  7  6  2  0
  9 11  1  0
  9  8  1  0
 10  9  2  0
 12 11  1  0
 13 12  1  1
 14 13  1  0
 15 13  1  0
 16 15  2  0
 18 17  1  1
 18 19  1  0
 20 18  1  0
 21 20  1  6
 21 22  1  0
 21 23  1  0
 22 15  1  0
 23 25  1  0
 24 23  2  0
M  END
$$$$
