TQL.pdb
     RDKit          3D

 25 24  0  0  1  0  0  0  0  0999 V2000
    8.6576  -12.4284   18.0894 C   0  0  0  0  0  0  0  0  0  0  0  0
    8.6170  -13.1248   19.4502 C   0  0  1  0  0  0  0  0  0  0  0  0
    7.4928  -12.7800   20.1566 O   0  0  0  0  0  0  0  0  0  0  0  0
    8.6434  -14.6144   19.1640 C   0  0  2  0  0  0  0  0  0  0  0  0
    7.4356  -14.9005   18.4066 N   0  0  0  0  0  0  0  0  0  0  0  0
    8.6446  -15.3574   20.4275 C   0  0  0  0  0  0  0  0  0  0  0  0
    7.5484  -15.5954   21.0012 O   0  0  0  0  0  0  0  0  0  0  0  0
   12.6188  -19.7482   22.7059 N   0  0  0  0  0  0  0  0  0  0  0  0
   11.7866  -19.7466   21.5676 C   0  0  0  0  0  0  0  0  0  0  0  0
   11.9259  -20.6567   20.7176 O   0  0  0  0  0  0  0  0  0  0  0  0
   10.7704  -18.7149   21.3663 C   0  0  0  0  0  0  0  0  0  0  0  0
   10.7414  -17.6996   22.4368 C   0  0  0  0  0  0  0  0  0  0  0  0
    9.7804  -16.5759   22.3241 C   0  0  2  0  0  0  0  0  0  0  0  0
    9.8076  -15.8509   21.0867 N   0  0  0  0  0  0  0  0  0  0  0  0
    9.7723  -15.6804   23.5021 C   0  0  0  0  0  0  0  0  0  0  0  0
   10.5761  -14.7275   23.6312 O   0  0  0  0  0  0  0  0  0  0  0  0
    5.9099  -12.7760   26.7193 C   0  0  0  0  0  0  0  0  0  0  0  0
    7.3255  -13.3520   26.8726 C   0  0  2  0  0  0  0  0  0  0  0  0
    8.2637  -12.1956   26.9885 C   0  0  0  0  0  0  0  0  0  0  0  0
    7.5577  -14.2113   25.6807 C   0  0  0  0  0  0  0  0  0  0  0  0
    8.7954  -15.0639   25.7323 C   0  0  2  0  0  0  0  0  0  0  0  0
    8.8255  -15.8930   24.5355 N   0  0  0  0  0  0  0  0  0  0  0  0
    8.8578  -15.9403   26.9026 C   0  0  0  0  0  0  0  0  0  0  0  0
    9.5152  -15.6107   27.9046 O   0  0  0  0  0  0  0  0  0  0  0  0
    8.1848  -17.1405   26.8996 O   0  0  0  0  0  0  0  0  0  0  0  0
  2  1  1  6
  3  2  1  0
  4  6  1  0
  4  5  1  6
  4  2  1  0
  6 14  1  0
  7  6  2  0
  9 11  1  0
  9  8  1  0
 10  9  2  0
 12 11  1  0
 13 12  1  1
 14 13  1  0
 15 13  1  0
 16 15  2  0
 18 17  1  6
 18 19  1  0
 20 18  1  0
 21 20  1  1
 21 22  1  0
 21 23  1  0
 22 15  1  0
 23 25  1  0
 24 23  2  0
M  END
$$$$
