TQL.pdb
     RDKit          3D

 25 24  0  0  1  0  0  0  0  0999 V2000
   11.8488  -16.7689   23.3367 C   0  0  0  0  0  0  0  0  0  0  0  0
   11.4993  -16.8330   21.8493 C   0  0  1  0  0  0  0  0  0  0  0  0
   12.5625  -17.2739   21.1030 O   0  0  0  0  0  0  0  0  0  0  0  0
   10.3220  -17.7824   21.7319 C   0  0  2  0  0  0  0  0  0  0  0  0
   10.0270  -17.8843   20.3116 N   0  0  0  0  0  0  0  0  0  0  0  0
    9.1727  -17.2319   22.4562 C   0  0  0  0  0  0  0  0  0  0  0  0
    8.5976  -16.2050   22.0064 O   0  0  0  0  0  0  0  0  0  0  0  0
    7.0556  -21.2495   24.7923 N   0  0  0  0  0  0  0  0  0  0  0  0
    7.1480  -20.5200   25.9956 C   0  0  0  0  0  0  0  0  0  0  0  0
    7.4759  -21.1243   27.0432 O   0  0  0  0  0  0  0  0  0  0  0  0
    6.8757  -19.0843   26.0407 C   0  0  0  0  0  0  0  0  0  0  0  0
    6.5262  -18.5093   24.7274 C   0  0  0  0  0  0  0  0  0  0  0  0
    7.3517  -17.3978   24.1964 C   0  0  2  0  0  0  0  0  0  0  0  0
    8.6292  -17.7682   23.6594 N   0  0  0  0  0  0  0  0  0  0  0  0
    7.4388  -16.2346   25.1069 C   0  0  0  0  0  0  0  0  0  0  0  0
    6.4259  -15.6910   25.6065 O   0  0  0  0  0  0  0  0  0  0  0  0
    8.0015  -11.8622   26.2178 C   0  0  0  0  0  0  0  0  0  0  0  0
    6.9862  -12.9975   26.0191 C   0  0  2  0  0  0  0  0  0  0  0  0
    5.6561  -12.4848   26.4653 C   0  0  0  0  0  0  0  0  0  0  0  0
    7.4924  -14.1529   26.8074 C   0  0  0  0  0  0  0  0  0  0  0  0
    8.8627  -14.6417   26.4272 C   0  0  2  0  0  0  0  0  0  0  0  0
    8.7091  -15.7001   25.4389 N   0  0  0  0  0  0  0  0  0  0  0  0
    9.6325  -15.1705   27.5539 C   0  0  0  0  0  0  0  0  0  0  0  0
    9.7208  -16.3964   27.7389 O   0  0  0  0  0  0  0  0  0  0  0  0
   10.2662  -14.3082   28.4190 O   0  0  0  0  0  0  0  0  0  0  0  0
  2  1  1  1
  3  2  1  0
  4  6  1  0
  4  5  1  6
  4  2  1  0
  6 14  1  0
  7  6  2  0
  9 11  1  0
  9  8  1  0
 10  9  2  0
 12 11  1  0
 13 12  1  1
 14 13  1  0
 15 13  1  0
 16 15  2  0
 18 17  1  1
 18 19  1  0
 20 18  1  0
 21 20  1  1
 21 22  1  0
 21 23  1  0
 22 15  1  0
 23 25  1  0
 24 23  2  0
M  END
$$$$
