TQL.pdb
     RDKit          3D

 25 24  0  0  1  0  0  0  0  0999 V2000
    8.8203  -12.5334   19.8168 C   0  0  0  0  0  0  0  0  0  0  0  0
    8.1644  -13.2242   18.6206 C   0  0  1  0  0  0  0  0  0  0  0  0
    8.3832  -12.5291   17.4583 O   0  0  0  0  0  0  0  0  0  0  0  0
    8.7735  -14.6116   18.5469 C   0  0  2  0  0  0  0  0  0  0  0  0
    8.1268  -15.2764   17.4269 N   0  0  0  0  0  0  0  0  0  0  0  0
    8.5063  -15.3323   19.7949 C   0  0  0  0  0  0  0  0  0  0  0  0
    7.3422  -15.7579   20.0215 O   0  0  0  0  0  0  0  0  0  0  0  0
   10.4574  -20.2619   22.5502 N   0  0  0  0  0  0  0  0  0  0  0  0
   11.1326  -19.4678   21.6004 C   0  0  0  0  0  0  0  0  0  0  0  0
   12.0506  -19.9871   20.9238 O   0  0  0  0  0  0  0  0  0  0  0  0
   10.7803  -18.0646   21.3897 C   0  0  0  0  0  0  0  0  0  0  0  0
    9.6817  -17.5964   22.2565 C   0  0  0  0  0  0  0  0  0  0  0  0
    9.1628  -16.2205   22.0647 C   0  0  2  0  0  0  0  0  0  0  0  0
    9.4721  -15.6047   20.8067 N   0  0  0  0  0  0  0  0  0  0  0  0
    9.4232  -15.3220   23.2113 C   0  0  0  0  0  0  0  0  0  0  0  0
   10.4711  -14.6418   23.3116 O   0  0  0  0  0  0  0  0  0  0  0  0
    7.4079  -13.2504   27.7847 C   0  0  0  0  0  0  0  0  0  0  0  0
    7.3950  -12.3988   26.5066 C   0  0  2  0  0  0  0  0  0  0  0  0
    6.1630  -11.5554   26.5492 C   0  0  0  0  0  0  0  0  0  0  0  0
    7.4430  -13.3547   25.3677 C   0  0  0  0  0  0  0  0  0  0  0  0
    8.6266  -14.2822   25.3543 C   0  0  2  0  0  0  0  0  0  0  0  0
    8.4611  -15.2132   24.2468 N   0  0  0  0  0  0  0  0  0  0  0  0
    8.7825  -15.0549   26.5873 C   0  0  0  0  0  0  0  0  0  0  0  0
    9.4531  -14.6071   27.5332 O   0  0  0  0  0  0  0  0  0  0  0  0
    8.1838  -16.2882   26.7065 O   0  0  0  0  0  0  0  0  0  0  0  0
  2  1  1  1
  3  2  1  0
  4  6  1  0
  4  5  1  6
  4  2  1  0
  6 14  1  0
  7  6  2  0
  9 11  1  0
  9  8  1  0
 10  9  2  0
 12 11  1  0
 13 12  1  1
 14 13  1  0
 15 13  1  0
 16 15  2  0
 18 17  1  1
 18 19  1  0
 20 18  1  0
 21 20  1  1
 21 22  1  0
 21 23  1  0
 22 15  1  0
 23 25  1  0
 24 23  2  0
M  END
$$$$
