TQL.pdb
     RDKit          3D

 25 24  0  0  1  0  0  0  0  0999 V2000
    9.1922  -12.4366   20.4335 C   0  0  0  0  0  0  0  0  0  0  0  0
    8.0466  -12.9055   19.5356 C   0  0  1  0  0  0  0  0  0  0  0  0
    8.0638  -12.2627   18.3239 O   0  0  0  0  0  0  0  0  0  0  0  0
    8.2317  -14.4010   19.3601 C   0  0  2  0  0  0  0  0  0  0  0  0
    7.1393  -14.8448   18.5090 N   0  0  0  0  0  0  0  0  0  0  0  0
    8.1643  -15.0611   20.6670 C   0  0  0  0  0  0  0  0  0  0  0  0
    7.0512  -15.1592   21.2491 O   0  0  0  0  0  0  0  0  0  0  0  0
   11.4950  -20.0120   22.6549 N   0  0  0  0  0  0  0  0  0  0  0  0
   10.4710  -19.8385   23.6088 C   0  0  0  0  0  0  0  0  0  0  0  0
   10.1706  -20.8011   24.3526 O   0  0  0  0  0  0  0  0  0  0  0  0
    9.7643  -18.5661   23.7473 C   0  0  0  0  0  0  0  0  0  0  0  0
    9.8129  -17.7298   22.5324 C   0  0  0  0  0  0  0  0  0  0  0  0
    9.1638  -16.3969   22.5614 C   0  0  2  0  0  0  0  0  0  0  0  0
    9.2765  -15.6197   21.3611 N   0  0  0  0  0  0  0  0  0  0  0  0
    9.4773  -15.6094   23.7744 C   0  0  0  0  0  0  0  0  0  0  0  0
   10.6188  -15.1440   24.0008 O   0  0  0  0  0  0  0  0  0  0  0  0
    8.3145  -11.8187   25.8456 C   0  0  0  0  0  0  0  0  0  0  0  0
    7.1707  -12.8280   25.6661 C   0  0  2  0  0  0  0  0  0  0  0  0
    5.9103  -12.1488   26.0918 C   0  0  0  0  0  0  0  0  0  0  0  0
    7.5312  -14.0171   26.4840 C   0  0  0  0  0  0  0  0  0  0  0  0
    8.7514  -14.7678   26.0268 C   0  0  2  0  0  0  0  0  0  0  0  0
    8.4594  -15.3614   24.7294 N   0  0  0  0  0  0  0  0  0  0  0  0
    9.1626  -15.8346   26.9403 C   0  0  0  0  0  0  0  0  0  0  0  0
    8.8084  -17.0091   26.7406 O   0  0  0  0  0  0  0  0  0  0  0  0
    9.9483  -15.5409   28.0312 O   0  0  0  0  0  0  0  0  0  0  0  0
  2  1  1  1
  3  2  1  0
  4  6  1  0
  4  5  1  6
  4  2  1  0
  6 14  1  0
  7  6  2  0
  9 11  1  0
  9  8  1  0
 10  9  2  0
 12 11  1  0
 13 12  1  6
 14 13  1  0
 15 13  1  0
 16 15  2  0
 18 17  1  1
 18 19  1  0
 20 18  1  0
 21 20  1  1
 21 22  1  0
 21 23  1  0
 22 15  1  0
 23 25  1  0
 24 23  2  0
M  END
$$$$
