TQL.pdb
     RDKit          3D

 25 24  0  0  1  0  0  0  0  0999 V2000
    7.0387  -13.0365   19.4227 C   0  0  0  0  0  0  0  0  0  0  0  0
    7.7052  -13.7039   20.6264 C   0  0  1  0  0  0  0  0  0  0  0  0
    6.8270  -13.8467   21.6705 O   0  0  0  0  0  0  0  0  0  0  0  0
    8.1980  -15.0545   20.1422 C   0  0  2  0  0  0  0  0  0  0  0  0
    7.0106  -15.8058   19.7675 N   0  0  0  0  0  0  0  0  0  0  0  0
    8.9138  -15.7338   21.2259 C   0  0  0  0  0  0  0  0  0  0  0  0
    8.3206  -16.6251   21.8901 O   0  0  0  0  0  0  0  0  0  0  0  0
   15.2574  -15.4617   23.4462 N   0  0  0  0  0  0  0  0  0  0  0  0
   14.6490  -16.7337   23.4583 C   0  0  0  0  0  0  0  0  0  0  0  0
   15.3743  -17.7500   23.3519 O   0  0  0  0  0  0  0  0  0  0  0  0
   13.2016  -16.8863   23.5968 C   0  0  0  0  0  0  0  0  0  0  0  0
   12.4295  -16.0961   22.6185 C   0  0  0  0  0  0  0  0  0  0  0  0
   10.9490  -16.1737   22.6530 C   0  0  2  0  0  0  0  0  0  0  0  0
   10.2609  -15.4706   21.6091 N   0  0  0  0  0  0  0  0  0  0  0  0
   10.3708  -15.9063   23.9887 C   0  0  0  0  0  0  0  0  0  0  0  0
   10.8170  -16.4326   25.0351 O   0  0  0  0  0  0  0  0  0  0  0  0
    5.5225  -12.6745   25.9426 C   0  0  0  0  0  0  0  0  0  0  0  0
    6.8705  -13.2471   26.4051 C   0  0  2  0  0  0  0  0  0  0  0  0
    7.5811  -12.1623   27.1464 C   0  0  0  0  0  0  0  0  0  0  0  0
    7.5712  -13.7093   25.1770 C   0  0  0  0  0  0  0  0  0  0  0  0
    8.7102  -14.6640   25.4055 C   0  0  2  0  0  0  0  0  0  0  0  0
    9.2686  -15.0230   24.1094 N   0  0  0  0  0  0  0  0  0  0  0  0
    8.3181  -15.8935   26.0956 C   0  0  0  0  0  0  0  0  0  0  0  0
    7.5562  -16.7094   25.5491 O   0  0  0  0  0  0  0  0  0  0  0  0
    8.7938  -16.1541   27.3603 O   0  0  0  0  0  0  0  0  0  0  0  0
  2  1  1  6
  3  2  1  0
  4  6  1  0
  4  5  1  1
  4  2  1  0
  6 14  1  0
  7  6  2  0
  9 11  1  0
  9  8  1  0
 10  9  2  0
 12 11  1  0
 13 12  1  1
 14 13  1  0
 15 13  1  0
 16 15  2  0
 18 17  1  6
 18 19  1  0
 20 18  1  0
 21 20  1  6
 21 22  1  0
 21 23  1  0
 22 15  1  0
 23 25  1  0
 24 23  2  0
M  END
$$$$
