TQL.pdb
     RDKit          3D

 25 24  0  0  1  0  0  0  0  0999 V2000
    9.0068  -12.3519   20.5107 C   0  0  0  0  0  0  0  0  0  0  0  0
    7.8661  -12.9089   19.6581 C   0  0  1  0  0  0  0  0  0  0  0  0
    7.7358  -12.2167   18.4809 O   0  0  0  0  0  0  0  0  0  0  0  0
    8.2043  -14.3647   19.3979 C   0  0  2  0  0  0  0  0  0  0  0  0
    7.1006  -14.9014   18.6180 N   0  0  0  0  0  0  0  0  0  0  0  0
    8.3248  -15.0766   20.6735 C   0  0  0  0  0  0  0  0  0  0  0  0
    7.2792  -15.4031   21.2961 O   0  0  0  0  0  0  0  0  0  0  0  0
   12.6045  -19.7812   24.3795 N   0  0  0  0  0  0  0  0  0  0  0  0
   11.8203  -19.3355   23.2956 C   0  0  0  0  0  0  0  0  0  0  0  0
   12.0378  -19.8128   22.1576 O   0  0  0  0  0  0  0  0  0  0  0  0
   10.7647  -18.3400   23.4755 C   0  0  0  0  0  0  0  0  0  0  0  0
   10.6672  -17.3768   22.3618 C   0  0  0  0  0  0  0  0  0  0  0  0
    9.6482  -16.3023   22.4394 C   0  0  2  0  0  0  0  0  0  0  0  0
    9.5541  -15.4451   21.2932 N   0  0  0  0  0  0  0  0  0  0  0  0
    9.6800  -15.5437   23.7095 C   0  0  0  0  0  0  0  0  0  0  0  0
   10.5426  -14.6669   23.9508 O   0  0  0  0  0  0  0  0  0  0  0  0
    8.0512  -12.2610   26.2520 C   0  0  0  0  0  0  0  0  0  0  0  0
    7.0910  -13.2871   25.6322 C   0  0  2  0  0  0  0  0  0  0  0  0
    5.7022  -12.7851   25.8560 C   0  0  0  0  0  0  0  0  0  0  0  0
    7.3857  -14.5868   26.2931 C   0  0  0  0  0  0  0  0  0  0  0  0
    8.7467  -15.1600   26.0095 C   0  0  2  0  0  0  0  0  0  0  0  0
    8.7047  -15.8049   24.7046 N   0  0  0  0  0  0  0  0  0  0  0  0
    9.1877  -16.1455   26.9974 C   0  0  0  0  0  0  0  0  0  0  0  0
    9.3889  -15.8110   28.1775 O   0  0  0  0  0  0  0  0  0  0  0  0
    9.3826  -17.4551   26.6227 O   0  0  0  0  0  0  0  0  0  0  0  0
  2  1  1  1
  3  2  1  0
  4  6  1  0
  4  5  1  6
  4  2  1  0
  6 14  1  0
  7  6  2  0
  9 11  1  0
  9  8  1  0
 10  9  2  0
 12 11  1  0
 13 12  1  6
 14 13  1  0
 15 13  1  0
 16 15  2  0
 18 17  1  1
 18 19  1  0
 20 18  1  0
 21 20  1  1
 21 22  1  0
 21 23  1  0
 22 15  1  0
 23 25  1  0
 24 23  2  0
M  END
$$$$
