VTF.pdb
     RDKit          3D

 26 26  0  0  1  0  0  0  0  0999 V2000
    5.0238  -18.1158   23.3454 C   0  0  0  0  0  0  0  0  0  0  0  0
    5.4039  -19.0230   22.2170 C   0  0  1  0  0  0  0  0  0  0  0  0
    4.3606  -20.0870   22.0296 C   0  0  0  0  0  0  0  0  0  0  0  0
    5.7119  -18.2797   20.9383 C   0  0  2  0  0  0  0  0  0  0  0  0
    5.9492  -19.2421   19.9041 N   0  0  0  0  0  0  0  0  0  0  0  0
    6.8652  -17.3756   21.0769 C   0  0  0  0  0  0  0  0  0  0  0  0
    8.0487  -17.7906   21.1852 O   0  0  0  0  0  0  0  0  0  0  0  0
    8.5499  -12.7270   20.6763 C   0  0  0  0  0  0  0  0  0  0  0  0
    7.5072  -13.7742   20.4858 C   0  0  1  0  0  0  0  0  0  0  0  0
    7.4535  -14.0912   19.1291 O   0  0  0  0  0  0  0  0  0  0  0  0
    7.7909  -15.0422   21.2589 C   0  0  2  0  0  0  0  0  0  0  0  0
    6.6829  -15.9651   21.0943 N   0  0  0  0  0  0  0  0  0  0  0  0
    8.0675  -14.7714   22.6879 C   0  0  0  0  0  0  0  0  0  0  0  0
    7.5078  -13.8206   23.2839 O   0  0  0  0  0  0  0  0  0  0  0  0
    8.9670  -15.5622   23.4448 N   0  0  0  0  0  0  0  0  0  0  0  0
    9.2001  -15.2489   24.8511 C   0  0  1  0  0  0  0  0  0  0  0  0
    7.9401  -15.2914   25.6382 C   0  0  0  0  0  0  0  0  0  0  0  0
    7.5273  -13.9297   26.0670 C   0  0  0  0  0  0  0  0  0  0  0  0
    6.1901  -13.6189   26.1222 C   0  0  0  0  0  0  0  0  0  0  0  0
    5.8019  -12.3645   26.5232 C   0  0  0  0  0  0  0  0  0  0  0  0
    6.7479  -11.4239   26.8675 C   0  0  0  0  0  0  0  0  0  0  0  0
    8.0839  -11.7332   26.8125 C   0  0  0  0  0  0  0  0  0  0  0  0
    8.4645  -12.9734   26.4161 C   0  0  0  0  0  0  0  0  0  0  0  0
   10.1709  -16.2174   25.3557 C   0  0  0  0  0  0  0  0  0  0  0  0
   10.5547  -16.1598   26.5419 O   0  0  0  0  0  0  0  0  0  0  0  0
   10.6816  -17.2094   24.5531 O   0  0  0  0  0  0  0  0  0  0  0  0
  2  1  1  1
  3  2  1  0
  4  6  1  0
  4  2  1  0
  4  5  1  6
  6  7  2  0
  9  8  1  6
  9 11  1  0
 10  9  1  0
 11 13  1  0
 11 12  1  1
 12  6  1  0
 13 14  2  0
 13 15  1  0
 15 16  1  0
 16 24  1  0
 16 17  1  1
 18 17  1  0
 19 18  2  0
 20 19  1  0
 21 20  2  0
 21 22  1  0
 22 23  2  0
 23 18  1  0
 24 25  2  0
 24 26  1  0
M  END
$$$$
