VTF.pdb
     RDKit          3D

 26 26  0  0  1  0  0  0  0  0999 V2000
    9.3985  -12.2305   18.5546 C   0  0  0  0  0  0  0  0  0  0  0  0
    8.7890  -13.1156   19.5966 C   0  0  1  0  0  0  0  0  0  0  0  0
    7.4526  -12.5772   20.0210 C   0  0  0  0  0  0  0  0  0  0  0  0
    8.7246  -14.5656   19.1773 C   0  0  2  0  0  0  0  0  0  0  0  0
    7.8444  -14.6703   18.0520 N   0  0  0  0  0  0  0  0  0  0  0  0
    8.2763  -15.4472   20.2674 C   0  0  0  0  0  0  0  0  0  0  0  0
    7.2434  -16.1621   20.1862 O   0  0  0  0  0  0  0  0  0  0  0  0
    8.0774  -18.0705   20.7000 C   0  0  0  0  0  0  0  0  0  0  0  0
    8.7817  -17.8793   21.9990 C   0  0  1  0  0  0  0  0  0  0  0  0
   10.1320  -18.1686   21.8070 O   0  0  0  0  0  0  0  0  0  0  0  0
    8.6693  -16.4696   22.5335 C   0  0  2  0  0  0  0  0  0  0  0  0
    9.0098  -15.5273   21.4834 N   0  0  0  0  0  0  0  0  0  0  0  0
    9.5017  -16.2652   23.7407 C   0  0  0  0  0  0  0  0  0  0  0  0
   10.7480  -16.1576   23.6536 O   0  0  0  0  0  0  0  0  0  0  0  0
    8.9400  -16.1820   25.0387 N   0  0  0  0  0  0  0  0  0  0  0  0
    9.8092  -15.9705   26.1919 C   0  0  1  0  0  0  0  0  0  0  0  0
    9.8512  -14.5396   26.5914 C   0  0  0  0  0  0  0  0  0  0  0  0
    8.5045  -13.9171   26.5046 C   0  0  0  0  0  0  0  0  0  0  0  0
    8.3431  -12.6080   26.8892 C   0  0  0  0  0  0  0  0  0  0  0  0
    7.1028  -12.0251   26.8058 C   0  0  0  0  0  0  0  0  0  0  0  0
    6.0274  -12.7492   26.3396 C   0  0  0  0  0  0  0  0  0  0  0  0
    6.1874  -14.0570   25.9553 C   0  0  0  0  0  0  0  0  0  0  0  0
    7.4140  -14.6302   26.0386 C   0  0  0  0  0  0  0  0  0  0  0  0
    9.3009  -16.8070   27.2768 C   0  0  0  0  0  0  0  0  0  0  0  0
    8.2652  -17.4840   27.1133 O   0  0  0  0  0  0  0  0  0  0  0  0
    9.9395  -16.8763   28.4920 O   0  0  0  0  0  0  0  0  0  0  0  0
  2  1  1  6
  3  2  1  0
  4  6  1  0
  4  2  1  0
  4  5  1  6
  6  7  2  0
  9  8  1  6
  9 11  1  0
 10  9  1  0
 11 13  1  0
 11 12  1  6
 12  6  1  0
 13 14  2  0
 13 15  1  0
 15 16  1  0
 16 24  1  0
 16 17  1  1
 18 17  1  0
 19 18  2  0
 20 19  1  0
 21 20  2  0
 21 22  1  0
 22 23  2  0
 23 18  1  0
 24 25  2  0
 24 26  1  0
M  END
$$$$
