VTF.pdb
     RDKit          3D

 26 26  0  0  1  0  0  0  0  0999 V2000
    8.3683  -12.5324   21.1745 C   0  0  0  0  0  0  0  0  0  0  0  0
    7.9236  -13.1269   19.8747 C   0  0  1  0  0  0  0  0  0  0  0  0
    8.1349  -12.1488   18.7547 C   0  0  0  0  0  0  0  0  0  0  0  0
    8.5485  -14.4738   19.5955 C   0  0  2  0  0  0  0  0  0  0  0  0
    8.1104  -14.9145   18.3048 N   0  0  0  0  0  0  0  0  0  0  0  0
    8.2141  -15.4730   20.6233 C   0  0  0  0  0  0  0  0  0  0  0  0
    7.0625  -15.9660   20.7470 O   0  0  0  0  0  0  0  0  0  0  0  0
    8.8090  -18.8344   21.1666 C   0  0  0  0  0  0  0  0  0  0  0  0
    9.4304  -18.1943   22.3600 C   0  0  1  0  0  0  0  0  0  0  0  0
   10.8010  -18.0838   22.1287 O   0  0  0  0  0  0  0  0  0  0  0  0
    8.8842  -16.8137   22.6453 C   0  0  2  0  0  0  0  0  0  0  0  0
    9.2024  -15.9311   21.5379 N   0  0  0  0  0  0  0  0  0  0  0  0
    9.3802  -16.2751   23.9321 C   0  0  0  0  0  0  0  0  0  0  0  0
   10.3857  -15.5269   23.9730 O   0  0  0  0  0  0  0  0  0  0  0  0
    8.7523  -16.5736   25.1666 N   0  0  0  0  0  0  0  0  0  0  0  0
    9.2296  -15.9428   26.3932 C   0  0  1  0  0  0  0  0  0  0  0  0
    8.1046  -15.4434   27.2262 C   0  0  0  0  0  0  0  0  0  0  0  0
    7.5245  -14.1992   26.6569 C   0  0  0  0  0  0  0  0  0  0  0  0
    6.3244  -14.2607   25.9909 C   0  0  0  0  0  0  0  0  0  0  0  0
    5.7802  -13.1139   25.4677 C   0  0  0  0  0  0  0  0  0  0  0  0
    6.4342  -11.9096   25.6100 C   0  0  0  0  0  0  0  0  0  0  0  0
    7.6332  -11.8471   26.2749 C   0  0  0  0  0  0  0  0  0  0  0  0
    8.1684  -12.9817   26.7908 C   0  0  0  0  0  0  0  0  0  0  0  0
   10.0188  -16.9391   27.1140 C   0  0  0  0  0  0  0  0  0  0  0  0
   10.0286  -18.1270   26.7312 O   0  0  0  0  0  0  0  0  0  0  0  0
   10.7666  -16.6039   28.2175 O   0  0  0  0  0  0  0  0  0  0  0  0
  2  1  1  1
  3  2  1  0
  4  6  1  0
  4  2  1  0
  4  5  1  6
  6  7  2  0
  9  8  1  6
  9 11  1  0
 10  9  1  0
 11 13  1  0
 11 12  1  6
 12  6  1  0
 13 14  2  0
 13 15  1  0
 15 16  1  0
 16 24  1  0
 16 17  1  1
 18 17  1  0
 19 18  2  0
 20 19  1  0
 21 20  2  0
 21 22  1  0
 22 23  2  0
 23 18  1  0
 24 25  2  0
 24 26  1  0
M  END
$$$$
