VTF.pdb
     RDKit          3D

 26 26  0  0  1  0  0  0  0  0999 V2000
    8.0828  -12.6187   21.1275 C   0  0  0  0  0  0  0  0  0  0  0  0
    7.6868  -13.3519   19.8840 C   0  0  1  0  0  0  0  0  0  0  0  0
    7.8675  -12.4721   18.6802 C   0  0  0  0  0  0  0  0  0  0  0  0
    8.3800  -14.6863   19.7378 C   0  0  2  0  0  0  0  0  0  0  0  0
    7.9594  -15.2792   18.5034 N   0  0  0  0  0  0  0  0  0  0  0  0
    8.1032  -15.5906   20.8657 C   0  0  0  0  0  0  0  0  0  0  0  0
    6.9759  -16.1167   21.0582 O   0  0  0  0  0  0  0  0  0  0  0  0
    8.9449  -18.8296   21.4541 C   0  0  0  0  0  0  0  0  0  0  0  0
    9.5270  -18.1449   22.6425 C   0  0  1  0  0  0  0  0  0  0  0  0
   10.8859  -17.9432   22.4046 O   0  0  0  0  0  0  0  0  0  0  0  0
    8.8902  -16.8033   22.9260 C   0  0  2  0  0  0  0  0  0  0  0  0
    9.1226  -15.9127   21.8038 N   0  0  0  0  0  0  0  0  0  0  0  0
    9.3728  -16.2169   24.1969 C   0  0  0  0  0  0  0  0  0  0  0  0
   10.3201  -15.3954   24.2090 O   0  0  0  0  0  0  0  0  0  0  0  0
    8.7964  -16.5496   25.4477 N   0  0  0  0  0  0  0  0  0  0  0  0
    9.3933  -16.0409   26.6786 C   0  0  1  0  0  0  0  0  0  0  0  0
    8.3679  -15.4673   27.5887 C   0  0  0  0  0  0  0  0  0  0  0  0
    7.8019  -14.2090   27.0364 C   0  0  0  0  0  0  0  0  0  0  0  0
    8.5153  -13.0411   27.1577 C   0  0  0  0  0  0  0  0  0  0  0  0
    8.0007  -11.8762   26.6446 C   0  0  0  0  0  0  0  0  0  0  0  0
    6.7765  -11.8794   26.0123 C   0  0  0  0  0  0  0  0  0  0  0  0
    6.0629  -13.0455   25.8908 C   0  0  0  0  0  0  0  0  0  0  0  0
    6.5739  -14.1948   26.3987 C   0  0  0  0  0  0  0  0  0  0  0  0
   10.0972  -17.1543   27.3111 C   0  0  0  0  0  0  0  0  0  0  0  0
    9.9998  -18.3059   26.8396 O   0  0  0  0  0  0  0  0  0  0  0  0
   10.8797  -16.9708   28.4260 O   0  0  0  0  0  0  0  0  0  0  0  0
  2  1  1  1
  3  2  1  0
  4  6  1  0
  4  2  1  0
  4  5  1  6
  6  7  2  0
  9  8  1  6
  9 11  1  0
 10  9  1  0
 11 13  1  0
 11 12  1  6
 12  6  1  0
 13 14  2  0
 13 15  1  0
 15 16  1  0
 16 24  1  0
 16 17  1  1
 18 17  1  0
 19 18  2  0
 20 19  1  0
 21 20  2  0
 21 22  1  0
 22 23  2  0
 23 18  1  0
 24 25  2  0
 24 26  1  0
M  END
$$$$
