VTF.pdb
     RDKit          3D

 26 26  0  0  1  0  0  0  0  0999 V2000
    8.6019  -12.4666   21.0984 C   0  0  0  0  0  0  0  0  0  0  0  0
    8.1549  -13.0493   19.7939 C   0  0  1  0  0  0  0  0  0  0  0  0
    8.4196  -12.0842   18.6740 C   0  0  0  0  0  0  0  0  0  0  0  0
    8.7332  -14.4197   19.5289 C   0  0  2  0  0  0  0  0  0  0  0  0
    8.2478  -14.8755   18.2606 N   0  0  0  0  0  0  0  0  0  0  0  0
    8.3984  -15.3859   20.5876 C   0  0  0  0  0  0  0  0  0  0  0  0
    7.4128  -16.1655   20.5135 O   0  0  0  0  0  0  0  0  0  0  0  0
    8.9635  -18.3122   20.9895 C   0  0  0  0  0  0  0  0  0  0  0  0
    9.6121  -17.8136   22.2347 C   0  0  1  0  0  0  0  0  0  0  0  0
   10.9591  -17.5815   21.9592 O   0  0  0  0  0  0  0  0  0  0  0  0
    9.0038  -16.5279   22.7473 C   0  0  2  0  0  0  0  0  0  0  0  0
    9.1941  -15.4785   21.7628 N   0  0  0  0  0  0  0  0  0  0  0  0
    9.5507  -16.1425   24.0680 C   0  0  0  0  0  0  0  0  0  0  0  0
   10.5941  -15.4527   24.1573 O   0  0  0  0  0  0  0  0  0  0  0  0
    8.9312  -16.5284   25.2824 N   0  0  0  0  0  0  0  0  0  0  0  0
    9.4371  -16.0112   26.5499 C   0  0  1  0  0  0  0  0  0  0  0  0
    8.3318  -15.5959   27.4526 C   0  0  0  0  0  0  0  0  0  0  0  0
    7.6443  -14.3828   26.9384 C   0  0  0  0  0  0  0  0  0  0  0  0
    8.2561  -13.1592   27.0645 C   0  0  0  0  0  0  0  0  0  0  0  0
    7.6289  -12.0354   26.5863 C   0  0  0  0  0  0  0  0  0  0  0  0
    6.3937  -12.1350   25.9842 C   0  0  0  0  0  0  0  0  0  0  0  0
    5.7814  -13.3568   25.8579 C   0  0  0  0  0  0  0  0  0  0  0  0
    6.4036  -14.4654   26.3312 C   0  0  0  0  0  0  0  0  0  0  0  0
   10.2460  -17.0662   27.1564 C   0  0  0  0  0  0  0  0  0  0  0  0
   10.2595  -18.2102   26.6576 O   0  0  0  0  0  0  0  0  0  0  0  0
   11.0087  -16.8345   28.2761 O   0  0  0  0  0  0  0  0  0  0  0  0
  2  1  1  1
  3  2  1  0
  4  6  1  0
  4  2  1  0
  4  5  1  6
  6  7  2  0
  9  8  1  6
  9 11  1  0
 10  9  1  0
 11 13  1  0
 11 12  1  6
 12  6  1  0
 13 14  2  0
 13 15  1  0
 15 16  1  0
 16 24  1  0
 16 17  1  1
 18 17  1  0
 19 18  2  0
 20 19  1  0
 21 20  2  0
 21 22  1  0
 22 23  2  0
 23 18  1  0
 24 25  2  0
 24 26  1  0
M  END
$$$$
