VTF.pdb
     RDKit          3D

 26 26  0  0  1  0  0  0  0  0999 V2000
    8.1468  -12.5078   20.9043 C   0  0  0  0  0  0  0  0  0  0  0  0
    7.7505  -13.1969   19.6359 C   0  0  1  0  0  0  0  0  0  0  0  0
    8.0189  -12.3091   18.4545 C   0  0  0  0  0  0  0  0  0  0  0  0
    8.3723  -14.5658   19.4870 C   0  0  2  0  0  0  0  0  0  0  0  0
    7.9831  -15.1013   18.2167 N   0  0  0  0  0  0  0  0  0  0  0  0
    7.9855  -15.4805   20.5734 C   0  0  0  0  0  0  0  0  0  0  0  0
    6.8393  -15.9941   20.6578 O   0  0  0  0  0  0  0  0  0  0  0  0
    8.3711  -18.7049   21.1243 C   0  0  0  0  0  0  0  0  0  0  0  0
    9.0597  -18.1318   22.3148 C   0  0  1  0  0  0  0  0  0  0  0  0
   10.4241  -18.0635   22.0357 O   0  0  0  0  0  0  0  0  0  0  0  0
    8.5773  -16.7434   22.6686 C   0  0  2  0  0  0  0  0  0  0  0  0
    8.9135  -15.8277   21.5939 N   0  0  0  0  0  0  0  0  0  0  0  0
    9.1175  -16.2818   23.9675 C   0  0  0  0  0  0  0  0  0  0  0  0
   10.1577  -15.5835   24.0214 O   0  0  0  0  0  0  0  0  0  0  0  0
    8.4950  -16.6013   25.1995 N   0  0  0  0  0  0  0  0  0  0  0  0
    9.0873  -16.1404   26.4513 C   0  0  1  0  0  0  0  0  0  0  0  0
    8.0658  -15.5539   27.3575 C   0  0  0  0  0  0  0  0  0  0  0  0
    7.6006  -14.2328   26.8605 C   0  0  0  0  0  0  0  0  0  0  0  0
    6.3885  -14.1447   26.2197 C   0  0  0  0  0  0  0  0  0  0  0  0
    5.9502  -12.9262   25.7633 C   0  0  0  0  0  0  0  0  0  0  0  0
    6.7218  -11.7996   25.9470 C   0  0  0  0  0  0  0  0  0  0  0  0
    7.9329  -11.8865   26.5867 C   0  0  0  0  0  0  0  0  0  0  0  0
    8.3632  -13.0917   27.0367 C   0  0  0  0  0  0  0  0  0  0  0  0
    9.7436  -17.2904   27.0693 C   0  0  0  0  0  0  0  0  0  0  0  0
    9.5332  -18.4408   26.6332 O   0  0  0  0  0  0  0  0  0  0  0  0
   10.6028  -17.1434   28.1319 O   0  0  0  0  0  0  0  0  0  0  0  0
  2  1  1  1
  3  2  1  0
  4  6  1  0
  4  2  1  0
  4  5  1  6
  6  7  2  0
  9  8  1  6
  9 11  1  0
 10  9  1  0
 11 13  1  0
 11 12  1  6
 12  6  1  0
 13 14  2  0
 13 15  1  0
 15 16  1  0
 16 24  1  0
 16 17  1  1
 18 17  1  0
 19 18  2  0
 20 19  1  0
 21 20  2  0
 21 22  1  0
 22 23  2  0
 23 18  1  0
 24 25  2  0
 24 26  1  0
M  END
$$$$
