VTF.pdb
     RDKit          3D

 26 26  0  0  1  0  0  0  0  0999 V2000
    8.8857  -11.8661   19.2651 C   0  0  0  0  0  0  0  0  0  0  0  0
    8.5608  -12.9482   20.2471 C   0  0  1  0  0  0  0  0  0  0  0  0
    7.1249  -12.8488   20.6761 C   0  0  0  0  0  0  0  0  0  0  0  0
    8.9244  -14.3275   19.7495 C   0  0  2  0  0  0  0  0  0  0  0  0
    8.2041  -14.5727   18.5358 N   0  0  0  0  0  0  0  0  0  0  0  0
    8.6379  -15.3770   20.7410 C   0  0  0  0  0  0  0  0  0  0  0  0
    7.5150  -15.9378   20.8363 O   0  0  0  0  0  0  0  0  0  0  0  0
    9.6744  -18.6939   21.0366 C   0  0  0  0  0  0  0  0  0  0  0  0
   10.1324  -18.0817   22.3154 C   0  0  1  0  0  0  0  0  0  0  0  0
   11.4864  -17.7740   22.1886 O   0  0  0  0  0  0  0  0  0  0  0  0
    9.3881  -16.8135   22.6668 C   0  0  2  0  0  0  0  0  0  0  0  0
    9.6422  -15.8083   21.6512 N   0  0  0  0  0  0  0  0  0  0  0  0
    9.7355  -16.3222   24.0195 C   0  0  0  0  0  0  0  0  0  0  0  0
   10.6659  -15.4982   24.1868 O   0  0  0  0  0  0  0  0  0  0  0  0
    9.0437  -16.7522   25.1787 N   0  0  0  0  0  0  0  0  0  0  0  0
    9.3298  -16.1279   26.4665 C   0  0  1  0  0  0  0  0  0  0  0  0
    8.0825  -15.7781   27.1951 C   0  0  0  0  0  0  0  0  0  0  0  0
    7.5082  -14.5013   26.6966 C   0  0  0  0  0  0  0  0  0  0  0  0
    6.2488  -14.4998   26.1476 C   0  0  0  0  0  0  0  0  0  0  0  0
    5.7101  -13.3226   25.6905 C   0  0  0  0  0  0  0  0  0  0  0  0
    6.4287  -12.1506   25.7820 C   0  0  0  0  0  0  0  0  0  0  0  0
    7.6870  -12.1510   26.3300 C   0  0  0  0  0  0  0  0  0  0  0  0
    8.2166  -13.3156   26.7808 C   0  0  0  0  0  0  0  0  0  0  0  0
   10.1430  -17.0691   27.2332 C   0  0  0  0  0  0  0  0  0  0  0  0
   10.2778  -18.2458   26.8395 O   0  0  0  0  0  0  0  0  0  0  0  0
   10.7783  -16.6932   28.3926 O   0  0  0  0  0  0  0  0  0  0  0  0
  2  1  1  6
  3  2  1  0
  4  6  1  0
  4  2  1  0
  4  5  1  6
  6  7  2  0
  9  8  1  6
  9 11  1  0
 10  9  1  0
 11 13  1  0
 11 12  1  6
 12  6  1  0
 13 14  2  0
 13 15  1  0
 15 16  1  0
 16 24  1  0
 16 17  1  1
 18 17  1  0
 19 18  2  0
 20 19  1  0
 21 20  2  0
 21 22  1  0
 22 23  2  0
 23 18  1  0
 24 25  2  0
 24 26  1  0
M  END
$$$$
