VTF.pdb
     RDKit          3D

 26 26  0  0  1  0  0  0  0  0999 V2000
    8.2034  -12.6171   20.7869 C   0  0  0  0  0  0  0  0  0  0  0  0
    7.9932  -13.2981   19.4704 C   0  0  1  0  0  0  0  0  0  0  0  0
    8.3486  -12.3725   18.3422 C   0  0  0  0  0  0  0  0  0  0  0  0
    8.6998  -14.6300   19.3738 C   0  0  2  0  0  0  0  0  0  0  0  0
    8.4211  -15.1952   18.0874 N   0  0  0  0  0  0  0  0  0  0  0  0
    8.2991  -15.5583   20.4435 C   0  0  0  0  0  0  0  0  0  0  0  0
    7.4193  -16.4444   20.2843 O   0  0  0  0  0  0  0  0  0  0  0  0
    8.4678  -18.2906   21.0355 C   0  0  0  0  0  0  0  0  0  0  0  0
    9.1428  -17.8310   22.2818 C   0  0  1  0  0  0  0  0  0  0  0  0
   10.5102  -17.7378   22.0255 O   0  0  0  0  0  0  0  0  0  0  0  0
    8.6557  -16.4812   22.7578 C   0  0  2  0  0  0  0  0  0  0  0  0
    8.9046  -15.4886   21.7286 N   0  0  0  0  0  0  0  0  0  0  0  0
    9.2677  -16.0936   24.0490 C   0  0  0  0  0  0  0  0  0  0  0  0
   10.3712  -15.4992   24.0866 O   0  0  0  0  0  0  0  0  0  0  0  0
    8.6458  -16.3707   25.2915 N   0  0  0  0  0  0  0  0  0  0  0  0
    9.2770  -15.9302   26.5316 C   0  0  1  0  0  0  0  0  0  0  0  0
    8.2782  -15.4026   27.4975 C   0  0  0  0  0  0  0  0  0  0  0  0
    7.6375  -14.1631   26.9858 C   0  0  0  0  0  0  0  0  0  0  0  0
    6.3884  -14.2371   26.4185 C   0  0  0  0  0  0  0  0  0  0  0  0
    5.7885  -13.0947   25.9492 C   0  0  0  0  0  0  0  0  0  0  0  0
    6.4359  -11.8824   26.0468 C   0  0  0  0  0  0  0  0  0  0  0  0
    7.6838  -11.8074   26.6131 C   0  0  0  0  0  0  0  0  0  0  0  0
    8.2740  -12.9377   27.0760 C   0  0  0  0  0  0  0  0  0  0  0  0
    9.9920  -17.0780   27.0853 C   0  0  0  0  0  0  0  0  0  0  0  0
    9.8238  -18.2150   26.5987 O   0  0  0  0  0  0  0  0  0  0  0  0
   10.8616  -16.9431   28.1410 O   0  0  0  0  0  0  0  0  0  0  0  0
  2  1  1  1
  3  2  1  0
  4  6  1  0
  4  2  1  0
  4  5  1  6
  6  7  2  0
  9  8  1  6
  9 11  1  0
 10  9  1  0
 11 13  1  0
 11 12  1  6
 12  6  1  0
 13 14  2  0
 13 15  1  0
 15 16  1  0
 16 24  1  0
 16 17  1  1
 18 17  1  0
 19 18  2  0
 20 19  1  0
 21 20  2  0
 21 22  1  0
 22 23  2  0
 23 18  1  0
 24 25  2  0
 24 26  1  0
M  END
$$$$
