VTF.pdb
     RDKit          3D

 26 26  0  0  1  0  0  0  0  0999 V2000
    9.1381  -12.0728   18.9391 C   0  0  0  0  0  0  0  0  0  0  0  0
    8.6257  -13.0481   19.9525 C   0  0  1  0  0  0  0  0  0  0  0  0
    7.1789  -12.7773   20.2515 C   0  0  0  0  0  0  0  0  0  0  0  0
    8.8805  -14.4874   19.5702 C   0  0  2  0  0  0  0  0  0  0  0  0
    8.2180  -14.7470   18.3269 N   0  0  0  0  0  0  0  0  0  0  0  0
    8.4278  -15.4326   20.6037 C   0  0  0  0  0  0  0  0  0  0  0  0
    7.2255  -15.7838   20.7281 O   0  0  0  0  0  0  0  0  0  0  0  0
    8.8636  -18.8526   21.0999 C   0  0  0  0  0  0  0  0  0  0  0  0
    9.4129  -18.2691   22.3560 C   0  0  1  0  0  0  0  0  0  0  0  0
   10.8032  -18.2470   22.2524 O   0  0  0  0  0  0  0  0  0  0  0  0
    8.9335  -16.8589   22.6150 C   0  0  2  0  0  0  0  0  0  0  0  0
    9.3531  -15.9990   21.5236 N   0  0  0  0  0  0  0  0  0  0  0  0
    9.3985  -16.3456   23.9235 C   0  0  0  0  0  0  0  0  0  0  0  0
   10.4210  -15.6244   24.0066 O   0  0  0  0  0  0  0  0  0  0  0  0
    8.7208  -16.6391   25.1326 N   0  0  0  0  0  0  0  0  0  0  0  0
    9.1505  -16.0066   26.3758 C   0  0  1  0  0  0  0  0  0  0  0  0
    7.9954  -15.4921   27.1566 C   0  0  0  0  0  0  0  0  0  0  0  0
    7.5092  -14.1988   26.6092 C   0  0  0  0  0  0  0  0  0  0  0  0
    8.3494  -13.1117   26.6066 C   0  0  0  0  0  0  0  0  0  0  0  0
    7.9084  -11.9156   26.0969 C   0  0  0  0  0  0  0  0  0  0  0  0
    6.6312  -11.8069   25.5918 C   0  0  0  0  0  0  0  0  0  0  0  0
    5.7909  -12.8921   25.5941 C   0  0  0  0  0  0  0  0  0  0  0  0
    6.2294  -14.0726   26.0982 C   0  0  0  0  0  0  0  0  0  0  0  0
    9.8977  -17.0068   27.1351 C   0  0  0  0  0  0  0  0  0  0  0  0
   10.4512  -16.6933   28.2089 O   0  0  0  0  0  0  0  0  0  0  0  0
   10.0098  -18.3054   26.6991 O   0  0  0  0  0  0  0  0  0  0  0  0
  2  1  1  6
  3  2  1  0
  4  6  1  0
  4  2  1  0
  4  5  1  6
  6  7  2  0
  9  8  1  6
  9 11  1  0
 10  9  1  0
 11 13  1  0
 11 12  1  6
 12  6  1  0
 13 14  2  0
 13 15  1  0
 15 16  1  0
 16 24  1  0
 16 17  1  1
 18 17  1  0
 19 18  2  0
 20 19  1  0
 21 20  2  0
 21 22  1  0
 22 23  2  0
 23 18  1  0
 24 25  2  0
 24 26  1  0
M  END
$$$$
