VTF.pdb
     RDKit          3D

 26 26  0  0  1  0  0  0  0  0999 V2000
    9.1156  -12.1245   18.8487 C   0  0  0  0  0  0  0  0  0  0  0  0
    8.5963  -13.0222   19.9283 C   0  0  1  0  0  0  0  0  0  0  0  0
    7.1503  -12.7239   20.2035 C   0  0  0  0  0  0  0  0  0  0  0  0
    8.8451  -14.4863   19.6510 C   0  0  2  0  0  0  0  0  0  0  0  0
    8.2020  -14.8264   18.4169 N   0  0  0  0  0  0  0  0  0  0  0  0
    8.3663  -15.3543   20.7391 C   0  0  0  0  0  0  0  0  0  0  0  0
    7.1497  -15.6303   20.9070 O   0  0  0  0  0  0  0  0  0  0  0  0
    8.5040  -18.7594   21.3341 C   0  0  0  0  0  0  0  0  0  0  0  0
    9.2024  -18.1890   22.5203 C   0  0  1  0  0  0  0  0  0  0  0  0
   10.5759  -18.2651   22.2932 O   0  0  0  0  0  0  0  0  0  0  0  0
    8.8436  -16.7440   22.7826 C   0  0  2  0  0  0  0  0  0  0  0  0
    9.2811  -15.9282   21.6647 N   0  0  0  0  0  0  0  0  0  0  0  0
    9.4016  -16.2570   24.0645 C   0  0  0  0  0  0  0  0  0  0  0  0
   10.4772  -15.6132   24.0962 O   0  0  0  0  0  0  0  0  0  0  0  0
    8.7572  -16.4904   25.3045 N   0  0  0  0  0  0  0  0  0  0  0  0
    9.2988  -15.9006   26.5247 C   0  0  1  0  0  0  0  0  0  0  0  0
    8.2229  -15.3638   27.3983 C   0  0  0  0  0  0  0  0  0  0  0  0
    7.5498  -14.1982   26.7683 C   0  0  0  0  0  0  0  0  0  0  0  0
    6.3298  -14.3739   26.1612 C   0  0  0  0  0  0  0  0  0  0  0  0
    5.6999  -13.3000   25.5825 C   0  0  0  0  0  0  0  0  0  0  0  0
    6.2883  -12.0544   25.6106 C   0  0  0  0  0  0  0  0  0  0  0  0
    7.5070  -11.8778   26.2166 C   0  0  0  0  0  0  0  0  0  0  0  0
    8.1269  -12.9406   26.7876 C   0  0  0  0  0  0  0  0  0  0  0  0
   10.0628  -16.9424   27.2075 C   0  0  0  0  0  0  0  0  0  0  0  0
    9.9942  -18.1264   26.8183 O   0  0  0  0  0  0  0  0  0  0  0  0
   10.8714  -16.6553   28.2811 O   0  0  0  0  0  0  0  0  0  0  0  0
  2  1  1  6
  3  2  1  0
  4  6  1  0
  4  2  1  0
  4  5  1  6
  6  7  2  0
  9  8  1  6
  9 11  1  0
 10  9  1  0
 11 13  1  0
 11 12  1  6
 12  6  1  0
 13 14  2  0
 13 15  1  0
 15 16  1  0
 16 24  1  0
 16 17  1  1
 18 17  1  0
 19 18  2  0
 20 19  1  0
 21 20  2  0
 21 22  1  0
 22 23  2  0
 23 18  1  0
 24 25  2  0
 24 26  1  0
M  END
$$$$
