VTF.pdb
     RDKit          3D

 26 26  0  0  1  0  0  0  0  0999 V2000
    8.6880  -12.7378   20.3870 C   0  0  0  0  0  0  0  0  0  0  0  0
    8.0385  -13.4276   19.2280 C   0  0  1  0  0  0  0  0  0  0  0  0
    8.2001  -12.6107   17.9781 C   0  0  0  0  0  0  0  0  0  0  0  0
    8.5023  -14.8549   19.0534 C   0  0  2  0  0  0  0  0  0  0  0  0
    7.8542  -15.4006   17.8983 N   0  0  0  0  0  0  0  0  0  0  0  0
    8.2297  -15.6840   20.2386 C   0  0  0  0  0  0  0  0  0  0  0  0
    7.1013  -16.1907   20.4723 O   0  0  0  0  0  0  0  0  0  0  0  0
    8.4038  -18.7458   20.9726 C   0  0  0  0  0  0  0  0  0  0  0  0
    9.2923  -18.2131   22.0435 C   0  0  1  0  0  0  0  0  0  0  0  0
   10.6122  -18.3279   21.6090 O   0  0  0  0  0  0  0  0  0  0  0  0
    9.0244  -16.7614   22.3699 C   0  0  2  0  0  0  0  0  0  0  0  0
    9.2545  -15.9511   21.1879 N   0  0  0  0  0  0  0  0  0  0  0  0
    9.8319  -16.2922   23.5187 C   0  0  0  0  0  0  0  0  0  0  0  0
   11.0745  -16.1556   23.4201 O   0  0  0  0  0  0  0  0  0  0  0  0
    9.2495  -15.9778   24.7714 N   0  0  0  0  0  0  0  0  0  0  0  0
   10.0895  -15.4797   25.8561 C   0  0  1  0  0  0  0  0  0  0  0  0
   10.0264  -13.9986   25.9622 C   0  0  0  0  0  0  0  0  0  0  0  0
    8.6296  -13.5327   26.1636 C   0  0  0  0  0  0  0  0  0  0  0  0
    7.7316  -13.6339   25.1288 C   0  0  0  0  0  0  0  0  0  0  0  0
    6.4381  -13.2106   25.3101 C   0  0  0  0  0  0  0  0  0  0  0  0
    6.0442  -12.6877   26.5224 C   0  0  0  0  0  0  0  0  0  0  0  0
    6.9405  -12.5860   27.5568 C   0  0  0  0  0  0  0  0  0  0  0  0
    8.2177  -13.0050   27.3747 C   0  0  0  0  0  0  0  0  0  0  0  0
    9.6299  -16.1175   27.0878 C   0  0  0  0  0  0  0  0  0  0  0  0
   10.1883  -15.8582   28.1736 O   0  0  0  0  0  0  0  0  0  0  0  0
    8.5819  -17.0067   27.0902 O   0  0  0  0  0  0  0  0  0  0  0  0
  2  1  1  1
  3  2  1  0
  4  6  1  0
  4  2  1  0
  4  5  1  6
  6  7  2  0
  9  8  1  6
  9 11  1  0
 10  9  1  0
 11 13  1  0
 11 12  1  6
 12  6  1  0
 13 14  2  0
 13 15  1  0
 15 16  1  0
 16 24  1  0
 16 17  1  1
 18 17  1  0
 19 18  2  0
 20 19  1  0
 21 20  2  0
 21 22  1  0
 22 23  2  0
 23 18  1  0
 24 25  2  0
 24 26  1  0
M  END
$$$$
