VTF.pdb
     RDKit          3D

 26 26  0  0  1  0  0  0  0  0999 V2000
    8.5791  -12.6014   20.0632 C   0  0  0  0  0  0  0  0  0  0  0  0
    7.9905  -13.3829   18.9301 C   0  0  1  0  0  0  0  0  0  0  0  0
    8.2445  -12.6821   17.6262 C   0  0  0  0  0  0  0  0  0  0  0  0
    8.4380  -14.8258   18.9111 C   0  0  2  0  0  0  0  0  0  0  0  0
    7.8911  -15.4514   17.7442 N   0  0  0  0  0  0  0  0  0  0  0  0
    8.0361  -15.5555   20.1246 C   0  0  0  0  0  0  0  0  0  0  0  0
    6.8324  -15.7529   20.4352 O   0  0  0  0  0  0  0  0  0  0  0  0
    7.9505  -18.7859   21.0501 C   0  0  0  0  0  0  0  0  0  0  0  0
    8.8051  -18.2143   22.1285 C   0  0  1  0  0  0  0  0  0  0  0  0
   10.1356  -18.5000   21.8250 O   0  0  0  0  0  0  0  0  0  0  0  0
    8.6611  -16.7159   22.2688 C   0  0  2  0  0  0  0  0  0  0  0  0
    9.0152  -16.0780   21.0141 N   0  0  0  0  0  0  0  0  0  0  0  0
    9.4606  -16.1842   23.3958 C   0  0  0  0  0  0  0  0  0  0  0  0
   10.6373  -15.7877   23.2208 O   0  0  0  0  0  0  0  0  0  0  0  0
    8.9437  -16.0973   24.7121 N   0  0  0  0  0  0  0  0  0  0  0  0
    9.8264  -15.7276   25.8140 C   0  0  1  0  0  0  0  0  0  0  0  0
    9.8581  -14.2562   26.0209 C   0  0  0  0  0  0  0  0  0  0  0  0
    8.5051  -13.7279   26.3354 C   0  0  0  0  0  0  0  0  0  0  0  0
    7.5464  -13.7069   25.3514 C   0  0  0  0  0  0  0  0  0  0  0  0
    6.2926  -13.2255   25.6370 C   0  0  0  0  0  0  0  0  0  0  0  0
    5.9988  -12.7665   26.9024 C   0  0  0  0  0  0  0  0  0  0  0  0
    6.9557  -12.7869   27.8860 C   0  0  0  0  0  0  0  0  0  0  0  0
    8.1935  -13.2631   27.6009 C   0  0  0  0  0  0  0  0  0  0  0  0
    9.3426  -16.4184   27.0073 C   0  0  0  0  0  0  0  0  0  0  0  0
    8.3065  -17.1123   26.9526 O   0  0  0  0  0  0  0  0  0  0  0  0
   10.0049  -16.3300   28.2084 O   0  0  0  0  0  0  0  0  0  0  0  0
  2  1  1  1
  3  2  1  0
  4  6  1  0
  4  2  1  0
  4  5  1  6
  6  7  2  0
  9  8  1  6
  9 11  1  0
 10  9  1  0
 11 13  1  0
 11 12  1  6
 12  6  1  0
 13 14  2  0
 13 15  1  0
 15 16  1  0
 16 24  1  0
 16 17  1  1
 18 17  1  0
 19 18  2  0
 20 19  1  0
 21 20  2  0
 21 22  1  0
 22 23  2  0
 23 18  1  0
 24 25  2  0
 24 26  1  0
M  END
$$$$
