VTF.pdb
     RDKit          3D

 26 26  0  0  1  0  0  0  0  0999 V2000
    6.2742  -10.8812   26.0400 C   0  0  0  0  0  0  0  0  0  0  0  0
    7.0662  -12.1222   25.7686 C   0  0  1  0  0  0  0  0  0  0  0  0
    8.0069  -12.3994   26.9062 C   0  0  0  0  0  0  0  0  0  0  0  0
    6.2016  -13.3129   25.4262 C   0  0  2  0  0  0  0  0  0  0  0  0
    5.3420  -13.5803   26.5404 N   0  0  0  0  0  0  0  0  0  0  0  0
    6.9951  -14.5056   25.0882 C   0  0  0  0  0  0  0  0  0  0  0  0
    7.1773  -15.4553   25.8942 O   0  0  0  0  0  0  0  0  0  0  0  0
    6.9307  -15.7889   21.3338 C   0  0  0  0  0  0  0  0  0  0  0  0
    8.2963  -15.9567   21.9056 C   0  0  1  0  0  0  0  0  0  0  0  0
    9.1185  -14.9708   21.3617 O   0  0  0  0  0  0  0  0  0  0  0  0
    8.3298  -15.8255   23.4114 C   0  0  2  0  0  0  0  0  0  0  0  0
    7.6010  -14.6346   23.8078 N   0  0  0  0  0  0  0  0  0  0  0  0
    9.7136  -15.8186   23.9377 C   0  0  0  0  0  0  0  0  0  0  0  0
   10.4090  -14.7756   23.9089 O   0  0  0  0  0  0  0  0  0  0  0  0
   10.3147  -16.9750   24.4934 N   0  0  0  0  0  0  0  0  0  0  0  0
   11.6941  -16.9179   24.9670 C   0  0  1  0  0  0  0  0  0  0  0  0
   11.7941  -17.2705   26.4073 C   0  0  0  0  0  0  0  0  0  0  0  0
   11.0810  -16.2795   27.2546 C   0  0  0  0  0  0  0  0  0  0  0  0
    9.8843  -16.6272   27.8331 C   0  0  0  0  0  0  0  0  0  0  0  0
    9.2234  -15.7182   28.6218 C   0  0  0  0  0  0  0  0  0  0  0  0
    9.7575  -14.4656   28.8311 C   0  0  0  0  0  0  0  0  0  0  0  0
   10.9527  -14.1171   28.2536 C   0  0  0  0  0  0  0  0  0  0  0  0
   11.6035  -15.0172   27.4749 C   0  0  0  0  0  0  0  0  0  0  0  0
   12.4736  -17.8386   24.1426 C   0  0  0  0  0  0  0  0  0  0  0  0
   11.9111  -18.5190   23.2602 O   0  0  0  0  0  0  0  0  0  0  0  0
   13.8308  -17.9797   24.3078 O   0  0  0  0  0  0  0  0  0  0  0  0
  2  1  1  1
  3  2  1  0
  4  6  1  0
  4  2  1  0
  4  5  1  1
  6  7  2  0
  9  8  1  6
  9 11  1  0
 10  9  1  0
 11 13  1  0
 11 12  1  6
 12  6  1  0
 13 14  2  0
 13 15  1  0
 15 16  1  0
 16 24  1  0
 16 17  1  1
 18 17  1  0
 19 18  2  0
 20 19  1  0
 21 20  2  0
 21 22  1  0
 22 23  2  0
 23 18  1  0
 24 25  2  0
 24 26  1  0
M  END
$$$$
