VTF.pdb
     RDKit          3D

 26 26  0  0  1  0  0  0  0  0999 V2000
    8.8715  -12.6969   18.5061 C   0  0  0  0  0  0  0  0  0  0  0  0
    8.7283  -13.4105   19.8142 C   0  0  1  0  0  0  0  0  0  0  0  0
    7.6066  -12.8125   20.6141 C   0  0  0  0  0  0  0  0  0  0  0  0
    8.5983  -14.9078   19.6602 C   0  0  2  0  0  0  0  0  0  0  0  0
    7.5135  -15.1757   18.7638 N   0  0  0  0  0  0  0  0  0  0  0  0
    8.3849  -15.5893   20.9473 C   0  0  0  0  0  0  0  0  0  0  0  0
    7.2714  -15.6066   21.5342 O   0  0  0  0  0  0  0  0  0  0  0  0
    8.7827  -19.1155   21.7454 C   0  0  0  0  0  0  0  0  0  0  0  0
    9.6440  -18.3982   22.7272 C   0  0  1  0  0  0  0  0  0  0  0  0
   10.9653  -18.4864   22.2909 O   0  0  0  0  0  0  0  0  0  0  0  0
    9.2882  -16.9360   22.8722 C   0  0  2  0  0  0  0  0  0  0  0  0
    9.4535  -16.2706   21.5930 N   0  0  0  0  0  0  0  0  0  0  0  0
   10.0770  -16.2753   23.9367 C   0  0  0  0  0  0  0  0  0  0  0  0
   11.0727  -15.5668   23.6557 O   0  0  0  0  0  0  0  0  0  0  0  0
    9.7514  -16.4083   25.3092 N   0  0  0  0  0  0  0  0  0  0  0  0
   10.5636  -15.7312   26.3152 C   0  0  1  0  0  0  0  0  0  0  0  0
   10.3887  -14.2564   26.2589 C   0  0  0  0  0  0  0  0  0  0  0  0
    9.0038  -13.8643   26.6286 C   0  0  0  0  0  0  0  0  0  0  0  0
    7.9972  -13.9996   25.7033 C   0  0  0  0  0  0  0  0  0  0  0  0
    6.7145  -13.6447   26.0404 C   0  0  0  0  0  0  0  0  0  0  0  0
    6.4394  -13.1558   27.2988 C   0  0  0  0  0  0  0  0  0  0  0  0
    7.4441  -13.0199   28.2238 C   0  0  0  0  0  0  0  0  0  0  0  0
    8.7104  -13.3715   27.8879 C   0  0  0  0  0  0  0  0  0  0  0  0
   10.1686  -16.2603   27.6188 C   0  0  0  0  0  0  0  0  0  0  0  0
    9.2386  -17.0884   27.7030 O   0  0  0  0  0  0  0  0  0  0  0  0
   10.8016  -15.8715   28.7752 O   0  0  0  0  0  0  0  0  0  0  0  0
  2  1  1  6
  3  2  1  0
  4  6  1  0
  4  2  1  0
  4  5  1  6
  6  7  2  0
  9  8  1  6
  9 11  1  0
 10  9  1  0
 11 13  1  0
 11 12  1  6
 12  6  1  0
 13 14  2  0
 13 15  1  0
 15 16  1  0
 16 24  1  0
 16 17  1  1
 18 17  1  0
 19 18  2  0
 20 19  1  0
 21 20  2  0
 21 22  1  0
 22 23  2  0
 23 18  1  0
 24 25  2  0
 24 26  1  0
M  END
$$$$
