KKI.pdb
     RDKit          3D

 27 26  0  0  1  0  0  0  0  0999 V2000
   22.0978  -16.2220  -18.2902 N   0  0  0  0  0  0  0  0  0  0  0  0
   21.5853  -15.2431  -19.1727 C   0  0  1  0  0  0  0  0  0  0  0  0
   21.4543  -15.7232  -20.6045 C   0  0  0  0  0  0  0  0  0  0  0  0
   22.2987  -16.8967  -20.9449 C   0  0  0  0  0  0  0  0  0  0  0  0
   21.7248  -18.2347  -20.6342 C   0  0  0  0  0  0  0  0  0  0  0  0
   22.5499  -19.3787  -21.1821 C   0  0  0  0  0  0  0  0  0  0  0  0
   23.8220  -18.9159  -21.7049 N   0  0  0  0  0  0  0  0  0  0  0  0
   20.3656  -14.5324  -18.7245 C   0  0  0  0  0  0  0  0  0  0  0  0
   19.7870  -13.7433  -19.5564 O   0  0  0  0  0  0  0  0  0  0  0  0
   19.7551  -14.6219  -17.4712 N   0  0  0  0  0  0  0  0  0  0  0  0
   18.5449  -13.8809  -17.1120 C   0  0  1  0  0  0  0  0  0  0  0  0
   17.7734  -14.7828  -16.1785 C   0  0  0  0  0  0  0  0  0  0  0  0
   16.4506  -14.2744  -15.7331 C   0  0  0  0  0  0  0  0  0  0  0  0
   15.7439  -15.3474  -14.8770 C   0  0  0  0  0  0  0  0  0  0  0  0
   14.4160  -14.8056  -14.4450 C   0  0  0  0  0  0  0  0  0  0  0  0
   13.6587  -15.8869  -13.8423 N   0  0  0  0  0  0  0  0  0  0  0  0
   18.8632  -12.5576  -16.5642 C   0  0  0  0  0  0  0  0  0  0  0  0
   19.7894  -12.5139  -15.6802 O   0  0  0  0  0  0  0  0  0  0  0  0
   18.6036   -6.4095  -17.3990 C   0  0  0  0  0  0  0  0  0  0  0  0
   18.8175   -7.6149  -16.5206 C   0  0  0  0  0  0  0  0  0  0  0  0
   18.3699   -8.9038  -17.1670 C   0  0  2  0  0  0  0  0  0  0  0  0
   16.8754   -8.8604  -17.4231 C   0  0  0  0  0  0  0  0  0  0  0  0
   18.6463  -10.1120  -16.3019 C   0  0  2  0  0  0  0  0  0  0  0  0
   18.2379  -11.3421  -16.9335 N   0  0  0  0  0  0  0  0  0  0  0  0
   17.9416   -9.9086  -15.0081 C   0  0  0  0  0  0  0  0  0  0  0  0
   18.4129   -9.2018  -14.0862 O   0  0  0  0  0  0  0  0  0  0  0  0
   16.7122  -10.5055  -14.7696 O   0  0  0  0  0  0  0  0  0  0  0  0
  2  1  1  1
  3  2  1  0
  3  4  1  0
  4  5  1  0
  5  6  1  0
  7  6  1  0
  8  9  2  0
  8  2  1  0
 10  8  1  0
 11 17  1  0
 11 10  1  0
 11 12  1  1
 13 12  1  0
 14 13  1  0
 15 14  1  0
 16 15  1  0
 17 24  1  0
 18 17  2  0
 19 20  1  0
 21 20  1  0
 21 22  1  1
 21 23  1  0
 23 25  1  0
 23 24  1  6
 25 26  2  0
 25 27  1  0
M  END
$$$$
