KKI.pdb
     RDKit          3D

 27 26  0  0  1  0  0  0  0  0999 V2000
   22.9530  -18.1729  -18.8533 N   0  0  0  0  0  0  0  0  0  0  0  0
   23.2081  -17.2991  -17.7712 C   0  0  1  0  0  0  0  0  0  0  0  0
   22.6336  -15.9095  -17.9623 C   0  0  0  0  0  0  0  0  0  0  0  0
   22.9062  -15.3030  -19.2905 C   0  0  0  0  0  0  0  0  0  0  0  0
   24.3388  -15.1110  -19.6466 C   0  0  0  0  0  0  0  0  0  0  0  0
   24.6486  -13.7137  -20.1378 C   0  0  0  0  0  0  0  0  0  0  0  0
   23.5033  -13.1143  -20.7971 N   0  0  0  0  0  0  0  0  0  0  0  0
   22.9124  -17.8278  -16.4196 C   0  0  0  0  0  0  0  0  0  0  0  0
   23.0015  -17.0218  -15.4236 O   0  0  0  0  0  0  0  0  0  0  0  0
   22.5384  -19.1334  -16.0926 N   0  0  0  0  0  0  0  0  0  0  0  0
   22.3564  -19.5964  -14.7160 C   0  0  1  0  0  0  0  0  0  0  0  0
   21.3649  -20.7327  -14.7930 C   0  0  0  0  0  0  0  0  0  0  0  0
   21.0169  -21.3770  -13.5006 C   0  0  0  0  0  0  0  0  0  0  0  0
   19.9870  -22.5016  -13.7422 C   0  0  0  0  0  0  0  0  0  0  0  0
   19.4969  -22.9850  -12.4120 C   0  0  0  0  0  0  0  0  0  0  0  0
   18.4988  -24.0131  -12.6421 N   0  0  0  0  0  0  0  0  0  0  0  0
   23.6365  -19.9396  -14.0867 C   0  0  0  0  0  0  0  0  0  0  0  0
   24.5711  -20.3304  -14.8710 O   0  0  0  0  0  0  0  0  0  0  0  0
   26.8776  -20.2436   -8.7307 C   0  0  0  0  0  0  0  0  0  0  0  0
   26.7241  -20.4509  -10.2152 C   0  0  0  0  0  0  0  0  0  0  0  0
   25.3400  -20.1178  -10.7182 C   0  0  2  0  0  0  0  0  0  0  0  0
   24.3264  -21.0647  -10.1041 C   0  0  0  0  0  0  0  0  0  0  0  0
   25.2242  -20.2421  -12.2200 C   0  0  2  0  0  0  0  0  0  0  0  0
   23.9166  -19.8703  -12.7005 N   0  0  0  0  0  0  0  0  0  0  0  0
   25.5537  -21.6466  -12.5811 C   0  0  0  0  0  0  0  0  0  0  0  0
   24.6955  -22.5605  -12.5916 O   0  0  0  0  0  0  0  0  0  0  0  0
   26.8489  -22.0040  -12.9264 O   0  0  0  0  0  0  0  0  0  0  0  0
  2  1  1  6
  3  2  1  0
  3  4  1  0
  4  5  1  0
  5  6  1  0
  7  6  1  0
  8  9  2  0
  8  2  1  0
 10  8  1  0
 11 17  1  0
 11 10  1  0
 11 12  1  6
 13 12  1  0
 14 13  1  0
 15 14  1  0
 16 15  1  0
 17 24  1  0
 18 17  2  0
 19 20  1  0
 21 20  1  0
 21 22  1  1
 21 23  1  0
 23 25  1  0
 23 24  1  1
 25 26  2  0
 25 27  1  0
M  END
$$$$
