KKI.pdb
     RDKit          3D

 27 26  0  0  1  0  0  0  0  0999 V2000
   17.8154  -14.1718  -19.0177 N   0  0  0  0  0  0  0  0  0  0  0  0
   17.4966  -13.5342  -17.7964 C   0  0  1  0  0  0  0  0  0  0  0  0
   17.8093  -14.3721  -16.5725 C   0  0  0  0  0  0  0  0  0  0  0  0
   17.1603  -15.7079  -16.5532 C   0  0  0  0  0  0  0  0  0  0  0  0
   17.4582  -16.5691  -15.3760 C   0  0  0  0  0  0  0  0  0  0  0  0
   16.8133  -17.9354  -15.4589 C   0  0  0  0  0  0  0  0  0  0  0  0
   17.1849  -18.7696  -14.3312 N   0  0  0  0  0  0  0  0  0  0  0  0
   17.9789  -12.1426  -17.6395 C   0  0  0  0  0  0  0  0  0  0  0  0
   19.1916  -11.8830  -17.9731 O   0  0  0  0  0  0  0  0  0  0  0  0
   17.2510  -11.0516  -17.1587 N   0  0  0  0  0  0  0  0  0  0  0  0
   17.8034   -9.7000  -17.0542 C   0  0  1  0  0  0  0  0  0  0  0  0
   16.6130   -8.7778  -16.9413 C   0  0  0  0  0  0  0  0  0  0  0  0
   16.9252   -7.3355  -16.7713 C   0  0  0  0  0  0  0  0  0  0  0  0
   15.6130   -6.5328  -16.6386 C   0  0  0  0  0  0  0  0  0  0  0  0
   15.9612   -5.0856  -16.4720 C   0  0  0  0  0  0  0  0  0  0  0  0
   14.7373   -4.3110  -16.5613 N   0  0  0  0  0  0  0  0  0  0  0  0
   18.7692   -9.5937  -15.9549 C   0  0  0  0  0  0  0  0  0  0  0  0
   18.4437  -10.1597  -14.8527 O   0  0  0  0  0  0  0  0  0  0  0  0
   24.0773  -10.8993  -13.9446 C   0  0  0  0  0  0  0  0  0  0  0  0
   22.9529   -9.9039  -13.8214 C   0  0  0  0  0  0  0  0  0  0  0  0
   22.0567   -9.8716  -15.0360 C   0  0  2  0  0  0  0  0  0  0  0  0
   22.8434   -9.4022  -16.2451 C   0  0  0  0  0  0  0  0  0  0  0  0
   20.8845   -8.9328  -14.8660 C   0  0  2  0  0  0  0  0  0  0  0  0
   20.0168   -8.9269  -16.0175 N   0  0  0  0  0  0  0  0  0  0  0  0
   21.4311   -7.5767  -14.5940 C   0  0  0  0  0  0  0  0  0  0  0  0
   21.5280   -6.6969  -15.4818 O   0  0  0  0  0  0  0  0  0  0  0  0
   21.8624   -7.2288  -13.3221 O   0  0  0  0  0  0  0  0  0  0  0  0
  2  1  1  6
  3  2  1  0
  3  4  1  0
  4  5  1  0
  5  6  1  0
  7  6  1  0
  8  9  2  0
  8  2  1  0
 10  8  1  0
 11 17  1  0
 11 10  1  0
 11 12  1  1
 13 12  1  0
 14 13  1  0
 15 14  1  0
 16 15  1  0
 17 24  1  0
 18 17  2  0
 19 20  1  0
 21 20  1  0
 21 22  1  6
 21 23  1  0
 23 25  1  0
 23 24  1  6
 25 26  2  0
 25 27  1  0
M  END
$$$$
