KKI.pdb
     RDKit          3D

 27 26  0  0  1  0  0  0  0  0999 V2000
   19.7272  -16.5872  -19.2880 N   0  0  0  0  0  0  0  0  0  0  0  0
   19.9324  -15.4958  -18.4127 C   0  0  1  0  0  0  0  0  0  0  0  0
   21.3924  -15.2282  -18.1052 C   0  0  0  0  0  0  0  0  0  0  0  0
   21.9606  -16.0649  -17.0175 C   0  0  0  0  0  0  0  0  0  0  0  0
   21.1408  -17.2295  -16.5843 C   0  0  0  0  0  0  0  0  0  0  0  0
   21.7781  -18.0232  -15.4647 C   0  0  0  0  0  0  0  0  0  0  0  0
   20.9190  -19.1061  -15.0229 N   0  0  0  0  0  0  0  0  0  0  0  0
   19.2095  -14.2463  -18.7441 C   0  0  0  0  0  0  0  0  0  0  0  0
   19.5058  -13.6510  -19.8429 O   0  0  0  0  0  0  0  0  0  0  0  0
   18.2179  -13.6233  -17.9825 N   0  0  0  0  0  0  0  0  0  0  0  0
   17.5179  -12.4113  -18.4110 C   0  0  1  0  0  0  0  0  0  0  0  0
   16.1913  -12.4270  -17.6899 C   0  0  0  0  0  0  0  0  0  0  0  0
   15.3278  -11.2361  -17.8967 C   0  0  0  0  0  0  0  0  0  0  0  0
   14.0848  -11.6334  -18.7217 C   0  0  0  0  0  0  0  0  0  0  0  0
   13.2486  -10.4088  -18.9328 C   0  0  0  0  0  0  0  0  0  0  0  0
   12.1407  -10.7598  -19.8019 N   0  0  0  0  0  0  0  0  0  0  0  0
   18.3274  -11.2093  -18.1820 C   0  0  0  0  0  0  0  0  0  0  0  0
   19.0136  -11.1811  -17.1006 O   0  0  0  0  0  0  0  0  0  0  0  0
   21.3771   -8.5220  -21.8192 C   0  0  0  0  0  0  0  0  0  0  0  0
   20.7440   -9.1862  -20.6240 C   0  0  0  0  0  0  0  0  0  0  0  0
   19.8348   -8.2636  -19.8483 C   0  0  2  0  0  0  0  0  0  0  0  0
   20.6278   -7.0846  -19.3172 C   0  0  0  0  0  0  0  0  0  0  0  0
   19.1906   -8.9467  -18.6638 C   0  0  2  0  0  0  0  0  0  0  0  0
   18.4107  -10.0955  -19.0523 N   0  0  0  0  0  0  0  0  0  0  0  0
   18.3534   -7.9364  -17.9637 C   0  0  0  0  0  0  0  0  0  0  0  0
   17.1543   -7.7277  -18.2640 O   0  0  0  0  0  0  0  0  0  0  0  0
   18.8794   -7.1728  -16.9318 O   0  0  0  0  0  0  0  0  0  0  0  0
  2  1  1  6
  3  2  1  0
  3  4  1  0
  4  5  1  0
  5  6  1  0
  7  6  1  0
  8  9  2  0
  8  2  1  0
 10  8  1  0
 11 17  1  0
 11 10  1  0
 11 12  1  1
 13 12  1  0
 14 13  1  0
 15 14  1  0
 16 15  1  0
 17 24  1  0
 18 17  2  0
 19 20  1  0
 21 20  1  0
 21 22  1  1
 21 23  1  0
 23 25  1  0
 23 24  1  6
 25 26  2  0
 25 27  1  0
M  END
$$$$
