KKI.pdb
     RDKit          3D

 27 26  0  0  1  0  0  0  0  0999 V2000
   26.7845  -17.3080  -17.6906 N   0  0  0  0  0  0  0  0  0  0  0  0
   25.7531  -18.2120  -18.0348 C   0  0  1  0  0  0  0  0  0  0  0  0
   25.9569  -18.8855  -19.3774 C   0  0  0  0  0  0  0  0  0  0  0  0
   27.1992  -18.4886  -20.0881 C   0  0  0  0  0  0  0  0  0  0  0  0
   28.2926  -19.4984  -20.1196 C   0  0  0  0  0  0  0  0  0  0  0  0
   28.0299  -20.6309  -21.0881 C   0  0  0  0  0  0  0  0  0  0  0  0
   29.1257  -21.5820  -21.1059 N   0  0  0  0  0  0  0  0  0  0  0  0
   25.3634  -19.1882  -16.9913 C   0  0  0  0  0  0  0  0  0  0  0  0
   24.7050  -20.2293  -17.3546 O   0  0  0  0  0  0  0  0  0  0  0  0
   25.6347  -19.1073  -15.6234 N   0  0  0  0  0  0  0  0  0  0  0  0
   25.1216  -20.0666  -14.6440 C   0  0  1  0  0  0  0  0  0  0  0  0
   26.0716  -20.0044  -13.4720 C   0  0  0  0  0  0  0  0  0  0  0  0
   25.7521  -20.9008  -12.3313 C   0  0  0  0  0  0  0  0  0  0  0  0
   25.8125  -20.1023  -11.0113 C   0  0  0  0  0  0  0  0  0  0  0  0
   25.6284  -21.0588   -9.8735 C   0  0  0  0  0  0  0  0  0  0  0  0
   25.7064  -20.3095   -8.6332 N   0  0  0  0  0  0  0  0  0  0  0  0
   23.7174  -19.8017  -14.3114 C   0  0  0  0  0  0  0  0  0  0  0  0
   23.4242  -18.5959  -13.9931 O   0  0  0  0  0  0  0  0  0  0  0  0
   18.0120  -20.0167  -15.8610 C   0  0  0  0  0  0  0  0  0  0  0  0
   18.9793  -19.9945  -14.7058 C   0  0  0  0  0  0  0  0  0  0  0  0
   20.3686  -20.4435  -15.0901 C   0  0  2  0  0  0  0  0  0  0  0  0
   20.3337  -21.8863  -15.5571 C   0  0  0  0  0  0  0  0  0  0  0  0
   21.3425  -20.3641  -13.9369 C   0  0  2  0  0  0  0  0  0  0  0  0
   22.6754  -20.7603  -14.3182 N   0  0  0  0  0  0  0  0  0  0  0  0
   20.8149  -21.2234  -12.8437 C   0  0  0  0  0  0  0  0  0  0  0  0
   21.2893  -22.3545  -12.5849 O   0  0  0  0  0  0  0  0  0  0  0  0
   19.7571  -20.7957  -12.0545 O   0  0  0  0  0  0  0  0  0  0  0  0
  2  1  1  1
  3  2  1  0
  3  4  1  0
  4  5  1  0
  5  6  1  0
  7  6  1  0
  8  9  2  0
  8  2  1  0
 10  8  1  0
 11 17  1  0
 11 10  1  0
 11 12  1  1
 13 12  1  0
 14 13  1  0
 15 14  1  0
 16 15  1  0
 17 24  1  0
 18 17  2  0
 19 20  1  0
 21 20  1  0
 21 22  1  1
 21 23  1  0
 23 25  1  0
 23 24  1  6
 25 26  2  0
 25 27  1  0
M  END
$$$$
