KKI.pdb
     RDKit          3D

 27 26  0  0  1  0  0  0  0  0999 V2000
   14.9714  -12.8046  -17.6229 N   0  0  0  0  0  0  0  0  0  0  0  0
   15.7672  -12.5082  -16.4923 C   0  0  1  0  0  0  0  0  0  0  0  0
   16.7574  -13.6009  -16.1414 C   0  0  0  0  0  0  0  0  0  0  0  0
   16.1527  -14.9407  -15.9282 C   0  0  0  0  0  0  0  0  0  0  0  0
   17.1029  -16.0727  -15.7508 C   0  0  0  0  0  0  0  0  0  0  0  0
   16.4133  -17.4105  -15.5939 C   0  0  0  0  0  0  0  0  0  0  0  0
   17.3618  -18.5077  -15.6388 N   0  0  0  0  0  0  0  0  0  0  0  0
   16.4046  -11.1713  -16.4732 C   0  0  0  0  0  0  0  0  0  0  0  0
   16.9625  -10.7533  -17.5518 O   0  0  0  0  0  0  0  0  0  0  0  0
   16.4718  -10.2893  -15.3920 N   0  0  0  0  0  0  0  0  0  0  0  0
   17.0730   -8.9573  -15.4776 C   0  0  1  0  0  0  0  0  0  0  0  0
   16.0044   -7.9946  -15.0179 C   0  0  0  0  0  0  0  0  0  0  0  0
   14.9485   -7.6760  -16.0130 C   0  0  0  0  0  0  0  0  0  0  0  0
   13.8889   -6.7563  -15.3686 C   0  0  0  0  0  0  0  0  0  0  0  0
   12.8335   -6.4655  -16.3909 C   0  0  0  0  0  0  0  0  0  0  0  0
   11.8960   -5.5172  -15.8185 N   0  0  0  0  0  0  0  0  0  0  0  0
   18.3314   -8.8824  -14.7272 C   0  0  0  0  0  0  0  0  0  0  0  0
   18.2632   -9.1325  -13.4726 O   0  0  0  0  0  0  0  0  0  0  0  0
   23.8683  -10.8607  -14.1927 C   0  0  0  0  0  0  0  0  0  0  0  0
   22.9284   -9.7262  -13.8767 C   0  0  0  0  0  0  0  0  0  0  0  0
   21.7147   -9.6971  -14.7743 C   0  0  2  0  0  0  0  0  0  0  0  0
   22.1436   -9.4967  -16.2154 C   0  0  0  0  0  0  0  0  0  0  0  0
   20.7628   -8.5763  -14.4249 C   0  0  2  0  0  0  0  0  0  0  0  0
   19.5978   -8.5632  -15.2743 N   0  0  0  0  0  0  0  0  0  0  0  0
   21.5180   -7.2989  -14.5232 C   0  0  0  0  0  0  0  0  0  0  0  0
   21.4300   -6.5367  -15.5146 O   0  0  0  0  0  0  0  0  0  0  0  0
   22.3645   -6.8960  -13.5006 O   0  0  0  0  0  0  0  0  0  0  0  0
  2  1  1  6
  3  2  1  0
  3  4  1  0
  4  5  1  0
  5  6  1  0
  7  6  1  0
  8  9  2  0
  8  2  1  0
 10  8  1  0
 11 17  1  0
 11 10  1  0
 11 12  1  1
 13 12  1  0
 14 13  1  0
 15 14  1  0
 16 15  1  0
 17 24  1  0
 18 17  2  0
 19 20  1  0
 21 20  1  0
 21 22  1  6
 21 23  1  0
 23 25  1  0
 23 24  1  6
 25 26  2  0
 25 27  1  0
M  END
$$$$
