KKI.pdb
     RDKit          3D

 27 26  0  0  1  0  0  0  0  0999 V2000
   25.6136  -19.5051  -18.3548 N   0  0  0  0  0  0  0  0  0  0  0  0
   25.9182  -18.8152  -17.1587 C   0  0  1  0  0  0  0  0  0  0  0  0
   24.9612  -17.6812  -16.8493 C   0  0  0  0  0  0  0  0  0  0  0  0
   23.6886  -17.7175  -17.6144 C   0  0  0  0  0  0  0  0  0  0  0  0
   22.4455  -17.4509  -16.8401 C   0  0  0  0  0  0  0  0  0  0  0  0
   21.5589  -16.4039  -17.4784 C   0  0  0  0  0  0  0  0  0  0  0  0
   21.9804  -15.0611  -17.1248 N   0  0  0  0  0  0  0  0  0  0  0  0
   26.1689  -19.6551  -15.9647 C   0  0  0  0  0  0  0  0  0  0  0  0
   25.2681  -20.5051  -15.6249 O   0  0  0  0  0  0  0  0  0  0  0  0
   27.2990  -19.6305  -15.1438 N   0  0  0  0  0  0  0  0  0  0  0  0
   27.4565  -20.4870  -13.9672 C   0  0  1  0  0  0  0  0  0  0  0  0
   28.9218  -20.4250  -13.6078 C   0  0  0  0  0  0  0  0  0  0  0  0
   29.3193  -21.1624  -12.3811 C   0  0  0  0  0  0  0  0  0  0  0  0
   30.8238  -20.9460  -12.1103 C   0  0  0  0  0  0  0  0  0  0  0  0
   31.2262  -21.8204  -10.9627 C   0  0  0  0  0  0  0  0  0  0  0  0
   32.6618  -21.7044  -10.7852 N   0  0  0  0  0  0  0  0  0  0  0  0
   26.5422  -20.0974  -12.8880 C   0  0  0  0  0  0  0  0  0  0  0  0
   26.3821  -18.8400  -12.7020 O   0  0  0  0  0  0  0  0  0  0  0  0
   21.2152  -20.1993  -10.3899 C   0  0  0  0  0  0  0  0  0  0  0  0
   22.6925  -20.1078  -10.1077 C   0  0  0  0  0  0  0  0  0  0  0  0
   23.5433  -20.6418  -11.2348 C   0  0  2  0  0  0  0  0  0  0  0  0
   23.2867  -22.1258  -11.4164 C   0  0  0  0  0  0  0  0  0  0  0  0
   25.0223  -20.4661  -10.9773 C   0  0  2  0  0  0  0  0  0  0  0  0
   25.8305  -20.9899  -12.0503 N   0  0  0  0  0  0  0  0  0  0  0  0
   25.3361  -21.1363   -9.6873 C   0  0  0  0  0  0  0  0  0  0  0  0
   24.9031  -20.7199   -8.5869 O   0  0  0  0  0  0  0  0  0  0  0  0
   26.1357  -22.2695   -9.6538 O   0  0  0  0  0  0  0  0  0  0  0  0
  2  1  1  6
  3  2  1  0
  3  4  1  0
  4  5  1  0
  5  6  1  0
  7  6  1  0
  8  9  2  0
  8  2  1  0
 10  8  1  0
 11 17  1  0
 11 10  1  0
 11 12  1  1
 13 12  1  0
 14 13  1  0
 15 14  1  0
 16 15  1  0
 17 24  1  0
 18 17  2  0
 19 20  1  0
 21 20  1  0
 21 22  1  1
 21 23  1  0
 23 25  1  0
 23 24  1  6
 25 26  2  0
 25 27  1  0
M  END
$$$$
