KKI.pdb
     RDKit          3D

 27 26  0  0  1  0  0  0  0  0999 V2000
   29.5151  -24.1578  -18.1264 N   0  0  0  0  0  0  0  0  0  0  0  0
   28.2647  -24.1859  -17.4667 C   0  0  1  0  0  0  0  0  0  0  0  0
   28.0660  -25.4069  -16.5905 C   0  0  0  0  0  0  0  0  0  0  0  0
   27.7702  -26.6600  -17.3310 C   0  0  0  0  0  0  0  0  0  0  0  0
   28.7369  -27.7774  -17.1493 C   0  0  0  0  0  0  0  0  0  0  0  0
   28.4149  -28.9877  -17.9985 C   0  0  0  0  0  0  0  0  0  0  0  0
   29.3985  -30.0399  -17.8217 N   0  0  0  0  0  0  0  0  0  0  0  0
   27.8671  -22.9436  -16.7650 C   0  0  0  0  0  0  0  0  0  0  0  0
   28.7189  -21.9842  -16.7072 O   0  0  0  0  0  0  0  0  0  0  0  0
   26.6431  -22.6864  -16.1429 N   0  0  0  0  0  0  0  0  0  0  0  0
   26.2811  -21.3801  -15.5905 C   0  0  1  0  0  0  0  0  0  0  0  0
   25.5877  -20.6395  -16.7089 C   0  0  0  0  0  0  0  0  0  0  0  0
   24.9889  -19.3298  -16.3446 C   0  0  0  0  0  0  0  0  0  0  0  0
   24.2404  -18.7450  -17.5617 C   0  0  0  0  0  0  0  0  0  0  0  0
   23.8074  -17.3517  -17.2233 C   0  0  0  0  0  0  0  0  0  0  0  0
   23.1607  -16.7810  -18.3904 N   0  0  0  0  0  0  0  0  0  0  0  0
   25.4930  -21.5124  -14.3601 C   0  0  0  0  0  0  0  0  0  0  0  0
   24.5224  -22.3479  -14.3914 O   0  0  0  0  0  0  0  0  0  0  0  0
   25.3920  -20.5434   -8.2058 C   0  0  0  0  0  0  0  0  0  0  0  0
   24.7545  -20.9992   -9.4928 C   0  0  0  0  0  0  0  0  0  0  0  0
   25.5844  -20.6728  -10.7111 C   0  0  2  0  0  0  0  0  0  0  0  0
   25.8271  -19.1773  -10.7843 C   0  0  0  0  0  0  0  0  0  0  0  0
   24.9098  -21.0859  -11.9990 C   0  0  2  0  0  0  0  0  0  0  0  0
   25.7204  -20.8013  -13.1569 N   0  0  0  0  0  0  0  0  0  0  0  0
   23.6025  -20.3801  -12.0674 C   0  0  0  0  0  0  0  0  0  0  0  0
   23.4126  -19.3795  -12.7984 O   0  0  0  0  0  0  0  0  0  0  0  0
   22.5238  -20.8121  -11.3097 O   0  0  0  0  0  0  0  0  0  0  0  0
  2  1  1  1
  3  2  1  0
  3  4  1  0
  4  5  1  0
  5  6  1  0
  7  6  1  0
  8  9  2  0
  8  2  1  0
 10  8  1  0
 11 17  1  0
 11 10  1  0
 11 12  1  6
 13 12  1  0
 14 13  1  0
 15 14  1  0
 16 15  1  0
 17 24  1  0
 18 17  2  0
 19 20  1  0
 21 20  1  0
 21 22  1  6
 21 23  1  0
 23 25  1  0
 23 24  1  6
 25 26  2  0
 25 27  1  0
M  END
$$$$
