KKI.pdb
     RDKit          3D

 27 26  0  0  1  0  0  0  0  0999 V2000
   21.8006  -14.6743  -18.6992 N   0  0  0  0  0  0  0  0  0  0  0  0
   20.9357  -15.0438  -17.6433 C   0  0  1  0  0  0  0  0  0  0  0  0
   19.5158  -14.5419  -17.8154 C   0  0  0  0  0  0  0  0  0  0  0  0
   19.2929  -13.1445  -17.3639 C   0  0  0  0  0  0  0  0  0  0  0  0
   19.4520  -12.8891  -15.9060 C   0  0  0  0  0  0  0  0  0  0  0  0
   19.0306  -11.4948  -15.4960 C   0  0  0  0  0  0  0  0  0  0  0  0
   20.1599  -10.5840  -15.4653 N   0  0  0  0  0  0  0  0  0  0  0  0
   20.9628  -16.4698  -17.2438 C   0  0  0  0  0  0  0  0  0  0  0  0
   19.9623  -17.2066  -17.5688 O   0  0  0  0  0  0  0  0  0  0  0  0
   21.9746  -17.1241  -16.5370 N   0  0  0  0  0  0  0  0  0  0  0  0
   21.9862  -18.5689  -16.3025 C   0  0  1  0  0  0  0  0  0  0  0  0
   23.4372  -18.9428  -16.1159 C   0  0  0  0  0  0  0  0  0  0  0  0
   23.7379  -20.3974  -16.1289 C   0  0  0  0  0  0  0  0  0  0  0  0
   25.2546  -20.6154  -15.9396 C   0  0  0  0  0  0  0  0  0  0  0  0
   25.5328  -22.0849  -16.0201 C   0  0  0  0  0  0  0  0  0  0  0  0
   26.9715  -22.2751  -16.0243 N   0  0  0  0  0  0  0  0  0  0  0  0
   21.1072  -18.9435  -15.1892 C   0  0  0  0  0  0  0  0  0  0  0  0
   21.2645  -18.2957  -14.0953 O   0  0  0  0  0  0  0  0  0  0  0  0
   15.6043  -20.6122  -13.2553 C   0  0  0  0  0  0  0  0  0  0  0  0
   17.0950  -20.6854  -13.0478 C   0  0  0  0  0  0  0  0  0  0  0  0
   17.8815  -20.3729  -14.2980 C   0  0  2  0  0  0  0  0  0  0  0  0
   17.6836  -21.4753  -15.3210 C   0  0  0  0  0  0  0  0  0  0  0  0
   19.3656  -20.2598  -14.0354 C   0  0  2  0  0  0  0  0  0  0  0  0
   20.1105  -19.9484  -15.2300 N   0  0  0  0  0  0  0  0  0  0  0  0
   19.8150  -21.5453  -13.4377 C   0  0  0  0  0  0  0  0  0  0  0  0
   19.4726  -21.9123  -12.2890 O   0  0  0  0  0  0  0  0  0  0  0  0
   20.6464  -22.4025  -14.1439 O   0  0  0  0  0  0  0  0  0  0  0  0
  2  1  1  6
  3  2  1  0
  3  4  1  0
  4  5  1  0
  5  6  1  0
  7  6  1  0
  8  9  2  0
  8  2  1  0
 10  8  1  0
 11 17  1  0
 11 10  1  0
 11 12  1  1
 13 12  1  0
 14 13  1  0
 15 14  1  0
 16 15  1  0
 17 24  1  0
 18 17  2  0
 19 20  1  0
 21 20  1  0
 21 22  1  6
 21 23  1  0
 23 25  1  0
 23 24  1  6
 25 26  2  0
 25 27  1  0
M  END
$$$$
