KKI.pdb
     RDKit          3D

 27 26  0  0  1  0  0  0  0  0999 V2000
   14.7912  -13.5226  -12.4913 N   0  0  0  0  0  0  0  0  0  0  0  0
   14.1796  -12.2528  -12.6066 C   0  0  1  0  0  0  0  0  0  0  0  0
   12.7975  -12.1844  -11.9878 C   0  0  0  0  0  0  0  0  0  0  0  0
   11.8331  -13.1849  -12.5122 C   0  0  0  0  0  0  0  0  0  0  0  0
   11.1040  -13.9936  -11.4971 C   0  0  0  0  0  0  0  0  0  0  0  0
   10.0692  -14.9170  -12.1022 C   0  0  0  0  0  0  0  0  0  0  0  0
    9.3530  -15.6575  -11.0803 N   0  0  0  0  0  0  0  0  0  0  0  0
   15.0082  -11.0895  -12.2145 C   0  0  0  0  0  0  0  0  0  0  0  0
   15.3715  -10.9938  -10.9863 O   0  0  0  0  0  0  0  0  0  0  0  0
   15.4524  -10.0577  -13.0449 N   0  0  0  0  0  0  0  0  0  0  0  0
   16.3575   -8.9982  -12.5966 C   0  0  1  0  0  0  0  0  0  0  0  0
   17.0540   -8.5000  -13.8403 C   0  0  0  0  0  0  0  0  0  0  0  0
   17.9941   -7.3665  -13.6458 C   0  0  0  0  0  0  0  0  0  0  0  0
   18.5560   -6.9182  -15.0122 C   0  0  0  0  0  0  0  0  0  0  0  0
   19.5200   -5.7957  -14.7796 C   0  0  0  0  0  0  0  0  0  0  0  0
   19.9649   -5.3043  -16.0705 N   0  0  0  0  0  0  0  0  0  0  0  0
   15.6464   -7.9653  -11.8351 C   0  0  0  0  0  0  0  0  0  0  0  0
   14.5867   -7.4875  -12.3737 O   0  0  0  0  0  0  0  0  0  0  0  0
   13.1151   -7.3757   -6.9528 C   0  0  0  0  0  0  0  0  0  0  0  0
   13.4832   -7.0594   -8.3792 C   0  0  0  0  0  0  0  0  0  0  0  0
   14.9259   -6.6438   -8.5388 C   0  0  2  0  0  0  0  0  0  0  0  0
   15.1849   -5.3696   -7.7575 C   0  0  0  0  0  0  0  0  0  0  0  0
   15.2951   -6.3747   -9.9795 C   0  0  2  0  0  0  0  0  0  0  0  0
   16.0325   -7.4650  -10.5681 N   0  0  0  0  0  0  0  0  0  0  0  0
   16.0787   -5.1111  -10.0137 C   0  0  0  0  0  0  0  0  0  0  0  0
   15.5540   -3.9860   -9.8396 O   0  0  0  0  0  0  0  0  0  0  0  0
   17.4466   -5.1320  -10.2440 O   0  0  0  0  0  0  0  0  0  0  0  0
  2  1  1  1
  3  2  1  0
  3  4  1  0
  4  5  1  0
  5  6  1  0
  7  6  1  0
  8  9  2  0
  8  2  1  0
 10  8  1  0
 11 17  1  0
 11 10  1  0
 11 12  1  6
 13 12  1  0
 14 13  1  0
 15 14  1  0
 16 15  1  0
 17 24  1  0
 18 17  2  0
 19 20  1  0
 21 20  1  0
 21 22  1  1
 21 23  1  0
 23 25  1  0
 23 24  1  1
 25 26  2  0
 25 27  1  0
M  END
$$$$
