KKI.pdb
     RDKit          3D

 27 26  0  0  1  0  0  0  0  0999 V2000
   16.8568  -11.0289  -16.9561 N   0  0  0  0  0  0  0  0  0  0  0  0
   17.3603  -11.0864  -15.6360 C   0  0  1  0  0  0  0  0  0  0  0  0
   18.8690  -11.2141  -15.5649 C   0  0  0  0  0  0  0  0  0  0  0  0
   19.3697  -12.6096  -15.4747 C   0  0  0  0  0  0  0  0  0  0  0  0
   19.0620  -13.4968  -16.6298 C   0  0  0  0  0  0  0  0  0  0  0  0
   19.5819  -14.9068  -16.4531 C   0  0  0  0  0  0  0  0  0  0  0  0
   19.1432  -15.7755  -17.5295 N   0  0  0  0  0  0  0  0  0  0  0  0
   16.8579  -10.0555  -14.6986 C   0  0  0  0  0  0  0  0  0  0  0  0
   16.8417   -8.8345  -15.0966 O   0  0  0  0  0  0  0  0  0  0  0  0
   16.3877  -10.2606  -13.3993 N   0  0  0  0  0  0  0  0  0  0  0  0
   15.9369   -9.1750  -12.5269 C   0  0  1  0  0  0  0  0  0  0  0  0
   14.7158   -9.7028  -11.8125 C   0  0  0  0  0  0  0  0  0  0  0  0
   14.0976   -8.7843  -10.8222 C   0  0  0  0  0  0  0  0  0  0  0  0
   12.9407   -9.5055  -10.0974 C   0  0  0  0  0  0  0  0  0  0  0  0
   12.3848   -8.5791   -9.0599 C   0  0  0  0  0  0  0  0  0  0  0  0
   11.2369   -9.2209   -8.4465 N   0  0  0  0  0  0  0  0  0  0  0  0
   17.0117   -8.7086  -11.6439 C   0  0  0  0  0  0  0  0  0  0  0  0
   17.5888   -9.6002  -10.9275 O   0  0  0  0  0  0  0  0  0  0  0  0
   21.5352   -6.9154  -13.0203 C   0  0  0  0  0  0  0  0  0  0  0  0
   20.2704   -7.4209  -12.3760 C   0  0  0  0  0  0  0  0  0  0  0  0
   19.7374   -6.4919  -11.3120 C   0  0  2  0  0  0  0  0  0  0  0  0
   20.8016   -6.2497  -10.2585 C   0  0  0  0  0  0  0  0  0  0  0  0
   18.5231   -7.0532  -10.6085 C   0  0  2  0  0  0  0  0  0  0  0  0
   17.4568   -7.3696  -11.5260 N   0  0  0  0  0  0  0  0  0  0  0  0
   18.0876   -6.0530   -9.5976 C   0  0  0  0  0  0  0  0  0  0  0  0
   17.3186   -5.1027   -9.8754 O   0  0  0  0  0  0  0  0  0  0  0  0
   18.5253   -6.1370   -8.2838 O   0  0  0  0  0  0  0  0  0  0  0  0
  2  1  1  6
  3  2  1  0
  3  4  1  0
  4  5  1  0
  5  6  1  0
  7  6  1  0
  8  9  2  0
  8  2  1  0
 10  8  1  0
 11 17  1  0
 11 10  1  0
 11 12  1  1
 13 12  1  0
 14 13  1  0
 15 14  1  0
 16 15  1  0
 17 24  1  0
 18 17  2  0
 19 20  1  0
 21 20  1  0
 21 22  1  1
 21 23  1  0
 23 25  1  0
 23 24  1  6
 25 26  2  0
 25 27  1  0
M  END
$$$$
