KKI.pdb
     RDKit          3D

 27 26  0  0  1  0  0  0  0  0999 V2000
   23.1914  -16.5830  -19.4694 N   0  0  0  0  0  0  0  0  0  0  0  0
   22.5173  -16.4641  -18.2321 C   0  0  1  0  0  0  0  0  0  0  0  0
   21.2859  -15.5822  -18.2921 C   0  0  0  0  0  0  0  0  0  0  0  0
   21.5472  -14.1795  -18.7047 C   0  0  0  0  0  0  0  0  0  0  0  0
   21.9920  -13.9774  -20.1110 C   0  0  0  0  0  0  0  0  0  0  0  0
   22.1293  -12.5186  -20.4886 C   0  0  0  0  0  0  0  0  0  0  0  0
   23.4832  -12.2004  -20.9028 N   0  0  0  0  0  0  0  0  0  0  0  0
   22.2446  -17.7290  -17.5113 C   0  0  0  0  0  0  0  0  0  0  0  0
   21.2872  -18.4718  -17.9371 O   0  0  0  0  0  0  0  0  0  0  0  0
   22.9237  -18.2214  -16.3943 N   0  0  0  0  0  0  0  0  0  0  0  0
   22.6002  -19.4980  -15.7552 C   0  0  1  0  0  0  0  0  0  0  0  0
   23.7854  -19.8312  -14.8810 C   0  0  0  0  0  0  0  0  0  0  0  0
   23.6524  -21.0542  -14.0485 C   0  0  0  0  0  0  0  0  0  0  0  0
   24.9482  -21.2738  -13.2383 C   0  0  0  0  0  0  0  0  0  0  0  0
   24.7430  -22.4477  -12.3310 C   0  0  0  0  0  0  0  0  0  0  0  0
   25.9497  -22.6312  -11.5460 N   0  0  0  0  0  0  0  0  0  0  0  0
   21.3144  -19.4400  -15.0510 C   0  0  0  0  0  0  0  0  0  0  0  0
   21.1692  -18.4883  -14.2059 O   0  0  0  0  0  0  0  0  0  0  0  0
   15.3365  -19.5209  -15.1299 C   0  0  0  0  0  0  0  0  0  0  0  0
   16.5805  -19.8459  -14.3442 C   0  0  0  0  0  0  0  0  0  0  0  0
   17.8239  -19.8926  -15.1993 C   0  0  2  0  0  0  0  0  0  0  0  0
   17.6755  -20.9594  -16.2675 C   0  0  0  0  0  0  0  0  0  0  0  0
   19.0642  -20.2211  -14.4004 C   0  0  2  0  0  0  0  0  0  0  0  0
   20.2357  -20.3391  -15.2326 N   0  0  0  0  0  0  0  0  0  0  0  0
   18.7991  -21.4821  -13.6579 C   0  0  0  0  0  0  0  0  0  0  0  0
   17.9541  -21.5577  -12.7349 O   0  0  0  0  0  0  0  0  0  0  0  0
   19.4911  -22.6444  -13.9659 O   0  0  0  0  0  0  0  0  0  0  0  0
  2  1  1  6
  3  2  1  0
  3  4  1  0
  4  5  1  0
  5  6  1  0
  7  6  1  0
  8  9  2  0
  8  2  1  0
 10  8  1  0
 11 17  1  0
 11 10  1  0
 11 12  1  1
 13 12  1  0
 14 13  1  0
 15 14  1  0
 16 15  1  0
 17 24  1  0
 18 17  2  0
 19 20  1  0
 21 20  1  0
 21 22  1  6
 21 23  1  0
 23 25  1  0
 23 24  1  6
 25 26  2  0
 25 27  1  0
M  END
$$$$
