KKI.pdb
     RDKit          3D

 27 26  0  0  1  0  0  0  0  0999 V2000
   20.0716  -19.7345  -14.7338 N   0  0  0  0  0  0  0  0  0  0  0  0
   20.1279  -20.7091  -13.7109 C   0  0  1  0  0  0  0  0  0  0  0  0
   19.0830  -21.7984  -13.8498 C   0  0  0  0  0  0  0  0  0  0  0  0
   17.8238  -21.3693  -14.5103 C   0  0  0  0  0  0  0  0  0  0  0  0
   16.7293  -20.9125  -13.6106 C   0  0  0  0  0  0  0  0  0  0  0  0
   15.4235  -20.6710  -14.3359 C   0  0  0  0  0  0  0  0  0  0  0  0
   14.3766  -20.2507  -13.4232 N   0  0  0  0  0  0  0  0  0  0  0  0
   21.4654  -21.2739  -13.4181 C   0  0  0  0  0  0  0  0  0  0  0  0
   21.6131  -21.9441  -12.3325 O   0  0  0  0  0  0  0  0  0  0  0  0
   22.6146  -21.1603  -14.2042 N   0  0  0  0  0  0  0  0  0  0  0  0
   23.9169  -21.6974  -13.8064 C   0  0  1  0  0  0  0  0  0  0  0  0
   24.7052  -21.8514  -15.0850 C   0  0  0  0  0  0  0  0  0  0  0  0
   26.1135  -22.2972  -14.9277 C   0  0  0  0  0  0  0  0  0  0  0  0
   26.7630  -22.4646  -16.3183 C   0  0  0  0  0  0  0  0  0  0  0  0
   28.1699  -22.9413  -16.1265 C   0  0  0  0  0  0  0  0  0  0  0  0
   28.7675  -23.1311  -17.4353 N   0  0  0  0  0  0  0  0  0  0  0  0
   24.5585  -20.8610  -12.7860 C   0  0  0  0  0  0  0  0  0  0  0  0
   24.5033  -19.5943  -12.9694 O   0  0  0  0  0  0  0  0  0  0  0  0
   26.6061  -19.8087   -7.1089 C   0  0  0  0  0  0  0  0  0  0  0  0
   26.7311  -19.6244   -8.5991 C   0  0  0  0  0  0  0  0  0  0  0  0
   25.8871  -20.5968   -9.3874 C   0  0  2  0  0  0  0  0  0  0  0  0
   26.2641  -22.0203   -9.0231 C   0  0  0  0  0  0  0  0  0  0  0  0
   26.0725  -20.4471  -10.8799 C   0  0  2  0  0  0  0  0  0  0  0  0
   25.2213  -21.3376  -11.6292 N   0  0  0  0  0  0  0  0  0  0  0  0
   27.5085  -20.6911  -11.1806 C   0  0  0  0  0  0  0  0  0  0  0  0
   28.3966  -19.8294  -10.9799 O   0  0  0  0  0  0  0  0  0  0  0  0
   27.9259  -21.9059  -11.7047 O   0  0  0  0  0  0  0  0  0  0  0  0
  2  1  1  6
  3  2  1  0
  3  4  1  0
  4  5  1  0
  5  6  1  0
  7  6  1  0
  8  9  2  0
  8  2  1  0
 10  8  1  0
 11 17  1  0
 11 10  1  0
 11 12  1  6
 13 12  1  0
 14 13  1  0
 15 14  1  0
 16 15  1  0
 17 24  1  0
 18 17  2  0
 19 20  1  0
 21 20  1  0
 21 22  1  1
 21 23  1  0
 23 25  1  0
 23 24  1  6
 25 26  2  0
 25 27  1  0
M  END
$$$$
