RKR.pdb
     RDKit          3D

 32 31  0  0  1  0  0  0  0  0999 V2000
   12.5015  -23.7020   18.5617 N   0  0  0  0  0  0  0  0  0  0  0  0
   12.1306  -22.9243   19.6966 C   0  0  0  0  0  0  0  0  0  0  0  0
   11.1105  -23.2485   20.4238 N   0  0  0  0  0  0  0  0  0  0  0  0
   12.8613  -21.7656   20.0797 N   0  0  0  0  0  0  0  0  0  0  0  0
   12.9243  -20.6058   19.2127 C   0  0  0  0  0  0  0  0  0  0  0  0
   12.8310  -21.0896   17.7855 C   0  0  0  0  0  0  0  0  0  0  0  0
   11.7216  -20.3794   17.0331 C   0  0  0  0  0  0  0  0  0  0  0  0
   12.1457  -19.0138   16.5714 C   0  0  2  0  0  0  0  0  0  0  0  0
   13.5506  -18.9361   16.2345 N   0  0  0  0  0  0  0  0  0  0  0  0
   11.9008  -18.0518   17.6910 C   0  0  0  0  0  0  0  0  0  0  0  0
   12.8433  -17.7066   18.4339 O   0  0  0  0  0  0  0  0  0  0  0  0
   10.8715  -22.6516   21.2351 N   0  0  0  0  0  0  0  0  0  0  0  0
   10.6038  -17.5129   17.9332 C   0  0  2  0  0  0  0  0  0  0  0  0
   10.3453  -16.5504   18.9613 C   0  0  0  0  0  0  0  0  0  0  0  0
    9.1274  -15.7361   18.7601 C   0  0  0  0  0  0  0  0  0  0  0  0
    9.0742  -14.5233   19.6314 C   0  0  0  0  0  0  0  0  0  0  0  0
    7.7968  -13.7648   19.2554 C   0  0  0  0  0  0  0  0  0  0  0  0
    7.6415  -12.5016   20.0939 N   0  0  0  0  0  0  0  0  0  0  0  0
    6.4274  -11.8535   19.5970 C   0  0  0  0  0  0  0  0  0  0  0  0
   10.4114  -17.2093   20.2942 O   0  0  0  0  0  0  0  0  0  0  0  0
   10.1830  -18.4421   20.4029 N   0  0  0  0  0  0  0  0  0  0  0  0
    9.8818  -17.7260   27.6381 C   0  0  0  0  0  0  0  0  0  0  0  0
   10.8782  -16.8399   28.1783 N   0  0  0  0  0  0  0  0  0  0  0  0
   10.8250  -16.5022   29.4198 N   0  0  0  0  0  0  0  0  0  0  0  0
   11.9287  -16.3216   27.3780 C   0  0  0  0  0  0  0  0  0  0  0  0
   12.2802  -16.9062   26.1027 C   0  0  0  0  0  0  0  0  0  0  0  0
   11.0779  -16.8420   25.2024 C   0  0  0  0  0  0  0  0  0  0  0  0
   11.3904  -16.3255   23.8276 C   0  0  1  0  0  0  0  0  0  0  0  0
   10.8030  -17.1894   22.7680 N   0  0  0  0  0  0  0  0  0  0  0  0
   10.7274  -16.5024   21.4833 C   0  0  0  0  0  0  0  0  0  0  0  0
    9.4631  -17.7099   23.0749 O   0  0  0  0  0  0  0  0  0  0  0  0
    8.3420  -17.2654   22.3648 O   0  0  0  0  0  0  0  0  0  0  0  0
  1  2  1  0
  2  3  2  0
  4  5  1  0
  4  2  1  0
  5  6  1  0
  7  8  1  0
  7  6  1  0
  8  9  1  1
 10 12  1  0
 10  8  1  0
 11 10  2  0
 13 19  1  0
 13 12  1  0
 13 14  1  6
 14 15  1  0
 16 15  1  0
 17 16  1  0
 18 17  1  0
 19 20  2  0
 22 23  2  0
 22 21  1  0
 24 22  1  0
 25 24  1  0
 26 25  1  0
 27 26  1  0
 28 27  1  6
 29 28  1  0
 29 19  1  0
 30 31  1  0
 30 28  1  0
 32 30  2  0
M  END
$$$$
