RKR.pdb
     RDKit          3D

 32 31  0  0  1  0  0  0  0  0999 V2000
    9.3848  -14.8291   14.6988 N   0  0  0  0  0  0  0  0  0  0  0  0
    8.3702  -13.8287   14.7074 C   0  0  0  0  0  0  0  0  0  0  0  0
    8.1161  -13.1262   13.6507 N   0  0  0  0  0  0  0  0  0  0  0  0
    7.5950  -13.5603   15.8694 N   0  0  0  0  0  0  0  0  0  0  0  0
    7.5764  -14.4893   16.9819 C   0  0  0  0  0  0  0  0  0  0  0  0
    9.0034  -14.7133   17.4212 C   0  0  0  0  0  0  0  0  0  0  0  0
    9.2049  -14.3101   18.8697 C   0  0  0  0  0  0  0  0  0  0  0  0
    8.7690  -15.3926   19.8163 C   0  0  2  0  0  0  0  0  0  0  0  0
    7.3611  -15.7089   19.7121 N   0  0  0  0  0  0  0  0  0  0  0  0
    9.0171  -14.9125   21.2116 C   0  0  0  0  0  0  0  0  0  0  0  0
   10.1716  -14.5949   21.5658 O   0  0  0  0  0  0  0  0  0  0  0  0
    7.3179  -12.4674   13.6746 N   0  0  0  0  0  0  0  0  0  0  0  0
    7.9561  -14.8068   22.1574 C   0  0  1  0  0  0  0  0  0  0  0  0
    8.1737  -14.4569   23.5286 C   0  0  0  0  0  0  0  0  0  0  0  0
    7.0943  -13.6566   24.1461 C   0  0  0  0  0  0  0  0  0  0  0  0
    7.3538  -13.3149   25.5775 C   0  0  0  0  0  0  0  0  0  0  0  0
    6.1600  -12.4820   26.0564 C   0  0  0  0  0  0  0  0  0  0  0  0
    6.2942  -12.1285   27.5328 N   0  0  0  0  0  0  0  0  0  0  0  0
    5.0307  -11.4848   27.8936 C   0  0  0  0  0  0  0  0  0  0  0  0
    8.5366  -15.6733   24.3058 O   0  0  0  0  0  0  0  0  0  0  0  0
    7.7151  -16.6197   24.4203 N   0  0  0  0  0  0  0  0  0  0  0  0
   14.0053  -18.3396   30.6038 C   0  0  0  0  0  0  0  0  0  0  0  0
   13.1657  -17.4660   29.8282 N   0  0  0  0  0  0  0  0  0  0  0  0
   12.1826  -16.8577   30.3954 N   0  0  0  0  0  0  0  0  0  0  0  0
   13.3895  -17.2508   28.4440 C   0  0  0  0  0  0  0  0  0  0  0  0
   13.2532  -18.3128   27.4717 C   0  0  0  0  0  0  0  0  0  0  0  0
   11.8486  -18.2900   26.9362 C   0  0  0  0  0  0  0  0  0  0  0  0
   11.5028  -17.0132   26.2257 C   0  0  2  0  0  0  0  0  0  0  0  0
   10.1148  -17.0396   25.6899 N   0  0  0  0  0  0  0  0  0  0  0  0
    9.7951  -15.8281   24.9429 C   0  0  0  0  0  0  0  0  0  0  0  0
    9.0693  -17.2259   26.7061 O   0  0  0  0  0  0  0  0  0  0  0  0
    8.6969  -18.5085   27.1239 O   0  0  0  0  0  0  0  0  0  0  0  0
  1  2  1  0
  2  3  2  0
  4  5  1  0
  4  2  1  0
  5  6  1  0
  7  8  1  0
  7  6  1  0
  8  9  1  1
 10 12  1  0
 10  8  1  0
 11 10  2  0
 13 19  1  0
 13 12  1  0
 13 14  1  1
 14 15  1  0
 16 15  1  0
 17 16  1  0
 18 17  1  0
 19 20  2  0
 22 23  2  0
 22 21  1  0
 24 22  1  0
 25 24  1  0
 26 25  1  0
 27 26  1  0
 28 27  1  6
 29 28  1  0
 29 19  1  0
 30 31  1  0
 30 28  1  0
 32 30  2  0
M  END
$$$$
