RKR.pdb
     RDKit          3D

 32 31  0  0  1  0  0  0  0  0999 V2000
    9.0905  -18.4685   16.0922 N   0  0  0  0  0  0  0  0  0  0  0  0
    9.5698  -17.3074   15.4194 C   0  0  0  0  0  0  0  0  0  0  0  0
   10.1333  -17.3938   14.2576 N   0  0  0  0  0  0  0  0  0  0  0  0
    9.4494  -16.0100   15.9897 N   0  0  0  0  0  0  0  0  0  0  0  0
    9.0284  -15.8388   17.3660 C   0  0  0  0  0  0  0  0  0  0  0  0
    7.6805  -15.1587   17.3561 C   0  0  0  0  0  0  0  0  0  0  0  0
    7.1475  -14.9688   18.7637 C   0  0  0  0  0  0  0  0  0  0  0  0
    7.2940  -13.5476   19.2291 C   0  0  2  0  0  0  0  0  0  0  0  0
    8.2058  -12.7722   18.4165 N   0  0  0  0  0  0  0  0  0  0  0  0
    7.8455  -13.5724   20.6199 C   0  0  0  0  0  0  0  0  0  0  0  0
    9.0705  -13.7317   20.8022 O   0  0  0  0  0  0  0  0  0  0  0  0
   10.4512  -16.5235   13.7959 N   0  0  0  0  0  0  0  0  0  0  0  0
    6.9978  -13.4164   21.7550 C   0  0  2  0  0  0  0  0  0  0  0  0
    7.4776  -13.5231   23.0997 C   0  0  0  0  0  0  0  0  0  0  0  0
    6.5645  -12.9857   24.1313 C   0  0  0  0  0  0  0  0  0  0  0  0
    7.1130  -13.0833   25.5179 C   0  0  0  0  0  0  0  0  0  0  0  0
    6.0910  -12.4170   26.4453 C   0  0  0  0  0  0  0  0  0  0  0  0
    6.5710  -12.4314   27.8917 N   0  0  0  0  0  0  0  0  0  0  0  0
    5.4653  -11.8756   28.6725 C   0  0  0  0  0  0  0  0  0  0  0  0
    7.9250  -14.9179   23.3641 O   0  0  0  0  0  0  0  0  0  0  0  0
    7.6490  -15.8363   22.5492 N   0  0  0  0  0  0  0  0  0  0  0  0
   13.5577  -18.7508   25.1168 C   0  0  0  0  0  0  0  0  0  0  0  0
   13.8708  -19.3546   23.8491 N   0  0  0  0  0  0  0  0  0  0  0  0
   14.9741  -20.0032   23.7072 N   0  0  0  0  0  0  0  0  0  0  0  0
   12.9928  -19.2574   22.7391 C   0  0  0  0  0  0  0  0  0  0  0  0
   12.2127  -18.0672   22.4812 C   0  0  0  0  0  0  0  0  0  0  0  0
   11.2132  -17.9035   23.5922 C   0  0  0  0  0  0  0  0  0  0  0  0
   10.3505  -16.6837   23.4422 C   0  0  1  0  0  0  0  0  0  0  0  0
    9.3994  -16.5388   24.5774 N   0  0  0  0  0  0  0  0  0  0  0  0
    8.6674  -15.2783   24.5185 C   0  0  0  0  0  0  0  0  0  0  0  0
   10.0151  -16.6352   25.9085 O   0  0  0  0  0  0  0  0  0  0  0  0
   10.1332  -17.8705   26.5554 O   0  0  0  0  0  0  0  0  0  0  0  0
  1  2  1  0
  2  3  2  0
  4  5  1  0
  4  2  1  0
  5  6  1  0
  7  8  1  0
  7  6  1  0
  8  9  1  6
 10 12  1  0
 10  8  1  0
 11 10  2  0
 13 19  1  0
 13 12  1  0
 13 14  1  1
 14 15  1  0
 16 15  1  0
 17 16  1  0
 18 17  1  0
 19 20  2  0
 22 23  2  0
 22 21  1  0
 24 22  1  0
 25 24  1  0
 26 25  1  0
 27 26  1  0
 28 27  1  6
 29 28  1  0
 29 19  1  0
 30 31  1  0
 30 28  1  0
 32 30  2  0
M  END
$$$$
