RKR.pdb
     RDKit          3D

 32 31  0  0  1  0  0  0  0  0999 V2000
   12.5938  -14.5901   16.9007 N   0  0  0  0  0  0  0  0  0  0  0  0
   11.9713  -15.5748   16.0801 C   0  0  0  0  0  0  0  0  0  0  0  0
   12.3685  -15.7802   14.8658 N   0  0  0  0  0  0  0  0  0  0  0  0
   10.8940  -16.3721   16.5563 N   0  0  0  0  0  0  0  0  0  0  0  0
    9.5742  -15.8031   16.7446 C   0  0  0  0  0  0  0  0  0  0  0  0
    9.3152  -15.7172   18.2295 C   0  0  0  0  0  0  0  0  0  0  0  0
    7.9250  -15.1824   18.5175 C   0  0  0  0  0  0  0  0  0  0  0  0
    7.9692  -13.7981   19.1003 C   0  0  2  0  0  0  0  0  0  0  0  0
    8.9002  -12.9228   18.4219 N   0  0  0  0  0  0  0  0  0  0  0  0
    8.4178  -13.9110   20.5233 C   0  0  0  0  0  0  0  0  0  0  0  0
    9.6363  -13.8953   20.7961 O   0  0  0  0  0  0  0  0  0  0  0  0
   11.8807  -16.4970   14.3002 N   0  0  0  0  0  0  0  0  0  0  0  0
    7.4783  -14.0370   21.5877 C   0  0  1  0  0  0  0  0  0  0  0  0
    7.8571  -13.9673   22.9667 C   0  0  0  0  0  0  0  0  0  0  0  0
    7.0109  -13.0874   23.8013 C   0  0  0  0  0  0  0  0  0  0  0  0
    7.4428  -13.0311   25.2307 C   0  0  0  0  0  0  0  0  0  0  0  0
    6.4521  -12.1141   25.9559 C   0  0  0  0  0  0  0  0  0  0  0  0
    6.7924  -12.0003   27.4371 N   0  0  0  0  0  0  0  0  0  0  0  0
    5.7801  -11.1061   27.9998 C   0  0  0  0  0  0  0  0  0  0  0  0
    8.0141  -15.3423   23.5145 O   0  0  0  0  0  0  0  0  0  0  0  0
    7.1011  -16.1941   23.3576 N   0  0  0  0  0  0  0  0  0  0  0  0
   12.6995  -21.8140   29.1542 C   0  0  0  0  0  0  0  0  0  0  0  0
   12.2574  -20.4576   28.9688 N   0  0  0  0  0  0  0  0  0  0  0  0
   12.5856  -19.5571   29.8287 N   0  0  0  0  0  0  0  0  0  0  0  0
   11.4635  -20.0769   27.8565 C   0  0  0  0  0  0  0  0  0  0  0  0
   11.4971  -18.7366   27.3141 C   0  0  0  0  0  0  0  0  0  0  0  0
   10.6325  -18.6990   26.0848 C   0  0  0  0  0  0  0  0  0  0  0  0
   10.5740  -17.3447   25.4390 C   0  0  2  0  0  0  0  0  0  0  0  0
    9.2289  -17.0647   24.8677 N   0  0  0  0  0  0  0  0  0  0  0  0
    9.1707  -15.7565   24.2246 C   0  0  0  0  0  0  0  0  0  0  0  0
    8.1252  -17.1351   25.8358 O   0  0  0  0  0  0  0  0  0  0  0  0
    7.4107  -18.3238   26.0223 O   0  0  0  0  0  0  0  0  0  0  0  0
  1  2  1  0
  2  3  2  0
  4  5  1  0
  4  2  1  0
  5  6  1  0
  7  8  1  0
  7  6  1  0
  8  9  1  6
 10 12  1  0
 10  8  1  0
 11 10  2  0
 13 19  1  0
 13 12  1  0
 13 14  1  1
 14 15  1  0
 16 15  1  0
 17 16  1  0
 18 17  1  0
 19 20  2  0
 22 23  2  0
 22 21  1  0
 24 22  1  0
 25 24  1  0
 26 25  1  0
 27 26  1  0
 28 27  1  6
 29 28  1  0
 29 19  1  0
 30 31  1  0
 30 28  1  0
 32 30  2  0
M  END
$$$$
