RKR.pdb
     RDKit          3D

 32 31  0  0  1  0  0  0  0  0999 V2000
    6.9986  -13.1413   16.5731 N   0  0  0  0  0  0  0  0  0  0  0  0
    8.3016  -13.7057   16.4539 C   0  0  0  0  0  0  0  0  0  0  0  0
    8.8952  -13.7785   15.3063 N   0  0  0  0  0  0  0  0  0  0  0  0
    9.0042  -14.2091   17.5834 N   0  0  0  0  0  0  0  0  0  0  0  0
    8.2957  -14.6030   18.7850 C   0  0  0  0  0  0  0  0  0  0  0  0
    8.3669  -16.1074   18.8915 C   0  0  0  0  0  0  0  0  0  0  0  0
    9.6243  -16.5509   19.6151 C   0  0  0  0  0  0  0  0  0  0  0  0
    9.3113  -17.1830   20.9418 C   0  0  2  0  0  0  0  0  0  0  0  0
    7.9471  -17.6545   21.0416 N   0  0  0  0  0  0  0  0  0  0  0  0
    9.5046  -16.1465   22.0036 C   0  0  0  0  0  0  0  0  0  0  0  0
   10.6231  -15.6131   22.1580 O   0  0  0  0  0  0  0  0  0  0  0  0
    9.8159  -14.2491   15.2545 N   0  0  0  0  0  0  0  0  0  0  0  0
    8.4316  -15.7477   22.8526 C   0  0  1  0  0  0  0  0  0  0  0  0
    8.5890  -14.7803   23.8963 C   0  0  0  0  0  0  0  0  0  0  0  0
    7.3348  -14.1374   24.3439 C   0  0  0  0  0  0  0  0  0  0  0  0
    7.5506  -13.0481   25.3438 C   0  0  0  0  0  0  0  0  0  0  0  0
    6.1638  -12.5288   25.7380 C   0  0  0  0  0  0  0  0  0  0  0  0
    6.2715  -11.3431   26.6893 N   0  0  0  0  0  0  0  0  0  0  0  0
    4.8962  -10.8920   26.9038 C   0  0  0  0  0  0  0  0  0  0  0  0
    9.3914  -15.3643   25.0055 O   0  0  0  0  0  0  0  0  0  0  0  0
    9.0504  -15.1736   26.2019 N   0  0  0  0  0  0  0  0  0  0  0  0
    9.3985  -20.2003   31.4265 C   0  0  0  0  0  0  0  0  0  0  0  0
   10.7650  -19.8810   31.1095 N   0  0  0  0  0  0  0  0  0  0  0  0
   11.6509  -19.8732   32.0440 N   0  0  0  0  0  0  0  0  0  0  0  0
   11.1714  -19.5718   29.7860 C   0  0  0  0  0  0  0  0  0  0  0  0
   10.3932  -18.7058   28.9281 C   0  0  0  0  0  0  0  0  0  0  0  0
   11.1037  -18.5793   27.6093 C   0  0  0  0  0  0  0  0  0  0  0  0
   10.3477  -17.7623   26.6015 C   0  0  1  0  0  0  0  0  0  0  0  0
   11.2383  -16.8092   25.8855 N   0  0  0  0  0  0  0  0  0  0  0  0
   10.5533  -16.1472   24.7806 C   0  0  0  0  0  0  0  0  0  0  0  0
   12.4715  -17.4054   25.3525 O   0  0  0  0  0  0  0  0  0  0  0  0
   12.5195  -17.9039   24.0458 O   0  0  0  0  0  0  0  0  0  0  0  0
  1  2  1  0
  2  3  2  0
  4  5  1  0
  4  2  1  0
  5  6  1  0
  7  8  1  0
  7  6  1  0
  8  9  1  6
 10 12  1  0
 10  8  1  0
 11 10  2  0
 13 19  1  0
 13 12  1  0
 13 14  1  1
 14 15  1  0
 16 15  1  0
 17 16  1  0
 18 17  1  0
 19 20  2  0
 22 23  2  0
 22 21  1  0
 24 22  1  0
 25 24  1  0
 26 25  1  0
 27 26  1  0
 28 27  1  1
 29 28  1  0
 29 19  1  0
 30 31  1  0
 30 28  1  0
 32 30  2  0
M  END
$$$$
