RKR.pdb
     RDKit          3D

 32 31  0  0  1  0  0  0  0  0999 V2000
    7.9140  -12.2094   17.9056 N   0  0  0  0  0  0  0  0  0  0  0  0
    8.4064  -13.2675   17.0880 C   0  0  0  0  0  0  0  0  0  0  0  0
    7.6315  -13.8831   16.2543 N   0  0  0  0  0  0  0  0  0  0  0  0
    9.7631  -13.6902   17.1496 N   0  0  0  0  0  0  0  0  0  0  0  0
   10.1004  -15.0641   17.4652 C   0  0  0  0  0  0  0  0  0  0  0  0
    9.2554  -15.4890   18.6420 C   0  0  0  0  0  0  0  0  0  0  0  0
   10.0862  -15.6012   19.9064 C   0  0  0  0  0  0  0  0  0  0  0  0
    9.2726  -16.1017   21.0663 C   0  0  2  0  0  0  0  0  0  0  0  0
    8.1214  -15.2743   21.3552 N   0  0  0  0  0  0  0  0  0  0  0  0
   10.1464  -16.0914   22.2810 C   0  0  0  0  0  0  0  0  0  0  0  0
   10.6014  -15.0116   22.7127 O   0  0  0  0  0  0  0  0  0  0  0  0
    7.9967  -14.7182   15.7634 N   0  0  0  0  0  0  0  0  0  0  0  0
   10.4759  -17.2971   22.9659 C   0  0  1  0  0  0  0  0  0  0  0  0
   11.3596  -17.3309   24.0919 C   0  0  0  0  0  0  0  0  0  0  0  0
   10.8812  -18.1378   25.2351 C   0  0  0  0  0  0  0  0  0  0  0  0
   11.8617  -18.2121   26.3602 C   0  0  0  0  0  0  0  0  0  0  0  0
   11.3004  -19.2190   27.3698 C   0  0  0  0  0  0  0  0  0  0  0  0
   12.2459  -19.3965   28.5519 N   0  0  0  0  0  0  0  0  0  0  0  0
   11.5499  -20.2951   29.4734 C   0  0  0  0  0  0  0  0  0  0  0  0
   12.7332  -17.6858   23.6418 O   0  0  0  0  0  0  0  0  0  0  0  0
   12.9557  -18.8044   23.1098 N   0  0  0  0  0  0  0  0  0  0  0  0
   14.6161  -13.2979   17.0861 C   0  0  0  0  0  0  0  0  0  0  0  0
   15.2544  -13.3846   18.3725 N   0  0  0  0  0  0  0  0  0  0  0  0
   16.0923  -12.4748   18.7308 N   0  0  0  0  0  0  0  0  0  0  0  0
   14.9864  -14.4515   19.2682 C   0  0  0  0  0  0  0  0  0  0  0  0
   15.6831  -14.5873   20.5283 C   0  0  0  0  0  0  0  0  0  0  0  0
   15.0971  -15.7547   21.2725 C   0  0  0  0  0  0  0  0  0  0  0  0
   15.8134  -16.0633   22.5556 C   0  0  2  0  0  0  0  0  0  0  0  0
   15.1611  -17.1767   23.2965 N   0  0  0  0  0  0  0  0  0  0  0  0
   13.8372  -16.8057   23.7842 C   0  0  0  0  0  0  0  0  0  0  0  0
   15.9313  -17.6855   24.4403 O   0  0  0  0  0  0  0  0  0  0  0  0
   17.1208  -18.3960   24.2438 O   0  0  0  0  0  0  0  0  0  0  0  0
  1  2  1  0
  2  3  2  0
  4  5  1  0
  4  2  1  0
  5  6  1  0
  7  8  1  0
  7  6  1  0
  8  9  1  1
 10 12  1  0
 10  8  1  0
 11 10  2  0
 13 19  1  0
 13 12  1  0
 13 14  1  1
 14 15  1  0
 16 15  1  0
 17 16  1  0
 18 17  1  0
 19 20  2  0
 22 23  2  0
 22 21  1  0
 24 22  1  0
 25 24  1  0
 26 25  1  0
 27 26  1  0
 28 27  1  6
 29 28  1  0
 29 19  1  0
 30 31  1  0
 30 28  1  0
 32 30  2  0
M  END
$$$$
