RKR.pdb
     RDKit          3D

 32 31  0  0  1  0  0  0  0  0999 V2000
    9.3060  -13.9835   14.8415 N   0  0  0  0  0  0  0  0  0  0  0  0
    8.1030  -13.2231   14.9121 C   0  0  0  0  0  0  0  0  0  0  0  0
    7.5348  -12.7712   13.8409 N   0  0  0  0  0  0  0  0  0  0  0  0
    7.4759  -12.9303   16.1547 N   0  0  0  0  0  0  0  0  0  0  0  0
    7.9731  -13.5001   17.3912 C   0  0  0  0  0  0  0  0  0  0  0  0
    7.8717  -15.0026   17.2816 C   0  0  0  0  0  0  0  0  0  0  0  0
    8.4630  -15.6862   18.5000 C   0  0  0  0  0  0  0  0  0  0  0  0
    8.3283  -17.1807   18.4218 C   0  0  2  0  0  0  0  0  0  0  0  0
    6.9631  -17.6387   18.5625 N   0  0  0  0  0  0  0  0  0  0  0  0
    9.1170  -17.7743   19.5464 C   0  0  0  0  0  0  0  0  0  0  0  0
    8.5569  -18.0337   20.6319 O   0  0  0  0  0  0  0  0  0  0  0  0
    6.6602  -12.2258   13.9371 N   0  0  0  0  0  0  0  0  0  0  0  0
   10.5075  -18.0547   19.4078 C   0  0  2  0  0  0  0  0  0  0  0  0
   11.2978  -18.5949   20.4725 C   0  0  0  0  0  0  0  0  0  0  0  0
   12.5350  -19.2819   20.0431 C   0  0  0  0  0  0  0  0  0  0  0  0
   13.3201  -19.8545   21.1783 C   0  0  0  0  0  0  0  0  0  0  0  0
   14.5534  -20.5281   20.5673 C   0  0  0  0  0  0  0  0  0  0  0  0
   15.8266  -19.7708   20.9254 N   0  0  0  0  0  0  0  0  0  0  0  0
   16.9207  -20.5672   20.3689 C   0  0  0  0  0  0  0  0  0  0  0  0
   11.5217  -17.5522   21.5108 O   0  0  0  0  0  0  0  0  0  0  0  0
   11.9714  -16.4224   21.1866 N   0  0  0  0  0  0  0  0  0  0  0  0
   10.9928  -15.4826   30.2504 C   0  0  0  0  0  0  0  0  0  0  0  0
   10.3487  -14.5306   29.3852 N   0  0  0  0  0  0  0  0  0  0  0  0
   10.0527  -13.3603   29.8335 N   0  0  0  0  0  0  0  0  0  0  0  0
   10.0268  -14.8436   28.0395 C   0  0  0  0  0  0  0  0  0  0  0  0
   10.3104  -16.1405   27.4656 C   0  0  0  0  0  0  0  0  0  0  0  0
   11.0623  -15.9376   26.1797 C   0  0  0  0  0  0  0  0  0  0  0  0
   10.7031  -16.9348   25.1161 C   0  0  1  0  0  0  0  0  0  0  0  0
   11.4981  -16.7272   23.8755 N   0  0  0  0  0  0  0  0  0  0  0  0
   11.2474  -17.7694   22.8860 C   0  0  0  0  0  0  0  0  0  0  0  0
   12.9510  -16.6509   24.0846 O   0  0  0  0  0  0  0  0  0  0  0  0
   13.5870  -15.4154   24.2502 O   0  0  0  0  0  0  0  0  0  0  0  0
  1  2  1  0
  2  3  2  0
  4  5  1  0
  4  2  1  0
  5  6  1  0
  7  8  1  0
  7  6  1  0
  8  9  1  1
 10 12  1  0
 10  8  1  0
 11 10  2  0
 13 19  1  0
 13 12  1  0
 13 14  1  6
 14 15  1  0
 16 15  1  0
 17 16  1  0
 18 17  1  0
 19 20  2  0
 22 23  2  0
 22 21  1  0
 24 22  1  0
 25 24  1  0
 26 25  1  0
 27 26  1  0
 28 27  1  6
 29 28  1  0
 29 19  1  0
 30 31  1  0
 30 28  1  0
 32 30  2  0
M  END
$$$$
