RKR.pdb
     RDKit          3D

 32 31  0  0  1  0  0  0  0  0999 V2000
    7.9755  -12.4748   14.3032 N   0  0  0  0  0  0  0  0  0  0  0  0
    8.4365  -13.8041   14.5283 C   0  0  0  0  0  0  0  0  0  0  0  0
    8.4022  -14.6912   13.5868 N   0  0  0  0  0  0  0  0  0  0  0  0
    8.9535  -14.2124   15.7889 N   0  0  0  0  0  0  0  0  0  0  0  0
    8.7680  -13.3924   16.9697 C   0  0  0  0  0  0  0  0  0  0  0  0
    7.4350  -13.7545   17.5793 C   0  0  0  0  0  0  0  0  0  0  0  0
    7.3079  -15.2530   17.7787 C   0  0  0  0  0  0  0  0  0  0  0  0
    8.5085  -15.8272   18.4762 C   0  0  2  0  0  0  0  0  0  0  0  0
    9.0773  -16.9662   17.7888 N   0  0  0  0  0  0  0  0  0  0  0  0
    8.0758  -16.2932   19.8307 C   0  0  0  0  0  0  0  0  0  0  0  0
    7.6990  -15.4635   20.6846 O   0  0  0  0  0  0  0  0  0  0  0  0
    8.8131  -15.6235   13.7702 N   0  0  0  0  0  0  0  0  0  0  0  0
    8.0824  -17.6763   20.1746 C   0  0  1  0  0  0  0  0  0  0  0  0
    7.6364  -18.1597   21.4463 C   0  0  0  0  0  0  0  0  0  0  0  0
    7.2092  -19.5754   21.4595 C   0  0  0  0  0  0  0  0  0  0  0  0
    6.7903  -20.0560   22.8110 C   0  0  0  0  0  0  0  0  0  0  0  0
    6.4968  -21.5540   22.6760 C   0  0  0  0  0  0  0  0  0  0  0  0
    5.9862  -22.1340   23.9896 N   0  0  0  0  0  0  0  0  0  0  0  0
    5.8384  -23.5695   23.7480 C   0  0  0  0  0  0  0  0  0  0  0  0
    8.6438  -17.8287   22.4909 O   0  0  0  0  0  0  0  0  0  0  0  0
    9.8550  -18.1232   22.3180 N   0  0  0  0  0  0  0  0  0  0  0  0
   11.8341  -16.0337   29.1297 C   0  0  0  0  0  0  0  0  0  0  0  0
   10.9934  -14.8968   29.3951 N   0  0  0  0  0  0  0  0  0  0  0  0
   10.5277  -14.7116   30.5813 N   0  0  0  0  0  0  0  0  0  0  0  0
   10.6583  -13.9634   28.3807 C   0  0  0  0  0  0  0  0  0  0  0  0
    9.5792  -14.2005   27.4475 C   0  0  0  0  0  0  0  0  0  0  0  0
    9.9511  -15.3685   26.5771 C   0  0  0  0  0  0  0  0  0  0  0  0
    8.9496  -15.6461   25.4932 C   0  0  1  0  0  0  0  0  0  0  0  0
    9.3252  -16.8405   24.6892 N   0  0  0  0  0  0  0  0  0  0  0  0
    8.3024  -17.1801   23.7060 C   0  0  0  0  0  0  0  0  0  0  0  0
    9.6028  -18.0484   25.4793 O   0  0  0  0  0  0  0  0  0  0  0  0
   10.8772  -18.2812   26.0084 O   0  0  0  0  0  0  0  0  0  0  0  0
  1  2  1  0
  2  3  2  0
  4  5  1  0
  4  2  1  0
  5  6  1  0
  7  8  1  0
  7  6  1  0
  8  9  1  6
 10 12  1  0
 10  8  1  0
 11 10  2  0
 13 19  1  0
 13 12  1  0
 13 14  1  1
 14 15  1  0
 16 15  1  0
 17 16  1  0
 18 17  1  0
 19 20  2  0
 22 23  2  0
 22 21  1  0
 24 22  1  0
 25 24  1  0
 26 25  1  0
 27 26  1  0
 28 27  1  6
 29 28  1  0
 29 19  1  0
 30 31  1  0
 30 28  1  0
 32 30  2  0
M  END
$$$$
