RKR.pdb
     RDKit          3D

 32 31  0  0  1  0  0  0  0  0999 V2000
    8.8734  -13.3524   14.9003 N   0  0  0  0  0  0  0  0  0  0  0  0
    8.4399  -13.3932   16.2571 C   0  0  0  0  0  0  0  0  0  0  0  0
    7.4203  -12.7017   16.6533 N   0  0  0  0  0  0  0  0  0  0  0  0
    9.1026  -14.1918   17.2298 N   0  0  0  0  0  0  0  0  0  0  0  0
    8.4144  -15.2835   17.8897 C   0  0  0  0  0  0  0  0  0  0  0  0
    7.5445  -14.6938   18.9737 C   0  0  0  0  0  0  0  0  0  0  0  0
    7.9606  -15.1890   20.3460 C   0  0  0  0  0  0  0  0  0  0  0  0
    8.1953  -16.6731   20.3563 C   0  0  2  0  0  0  0  0  0  0  0  0
    7.2213  -17.4104   19.5811 N   0  0  0  0  0  0  0  0  0  0  0  0
    8.0909  -17.1466   21.7719 C   0  0  0  0  0  0  0  0  0  0  0  0
    7.3676  -16.5319   22.5833 O   0  0  0  0  0  0  0  0  0  0  0  0
    7.1058  -12.8017   17.6345 N   0  0  0  0  0  0  0  0  0  0  0  0
    8.8041  -18.2954   22.2225 C   0  0  1  0  0  0  0  0  0  0  0  0
    8.6991  -18.7962   23.5598 C   0  0  0  0  0  0  0  0  0  0  0  0
    9.2007  -20.1743   23.7499 C   0  0  0  0  0  0  0  0  0  0  0  0
    9.0983  -20.6533   25.1616 C   0  0  0  0  0  0  0  0  0  0  0  0
    9.6103  -22.0976   25.1765 C   0  0  0  0  0  0  0  0  0  0  0  0
    9.5472  -22.6880   26.5801 N   0  0  0  0  0  0  0  0  0  0  0  0
    9.9885  -24.0757   26.4370 C   0  0  0  0  0  0  0  0  0  0  0  0
    9.2801  -17.8109   24.5121 O   0  0  0  0  0  0  0  0  0  0  0  0
   10.4102  -17.3046   24.2880 N   0  0  0  0  0  0  0  0  0  0  0  0
    6.3301  -10.5118   26.4938 C   0  0  0  0  0  0  0  0  0  0  0  0
    6.8168  -11.0394   25.2470 N   0  0  0  0  0  0  0  0  0  0  0  0
    7.1942  -10.2323   24.3173 N   0  0  0  0  0  0  0  0  0  0  0  0
    6.8954  -12.4354   25.0073 C   0  0  0  0  0  0  0  0  0  0  0  0
    6.9138  -13.3982   26.0864 C   0  0  0  0  0  0  0  0  0  0  0  0
    8.0145  -14.3876   25.8224 C   0  0  0  0  0  0  0  0  0  0  0  0
    8.2416  -15.3430   26.9584 C   0  0  2  0  0  0  0  0  0  0  0  0
    9.2046  -16.4163   26.5912 N   0  0  0  0  0  0  0  0  0  0  0  0
    8.6093  -17.3997   25.6930 C   0  0  0  0  0  0  0  0  0  0  0  0
    9.7759  -17.1438   27.7334 O   0  0  0  0  0  0  0  0  0  0  0  0
    9.2947  -18.4084   28.0904 O   0  0  0  0  0  0  0  0  0  0  0  0
  1  2  1  0
  2  3  2  0
  4  5  1  0
  4  2  1  0
  5  6  1  0
  7  8  1  0
  7  6  1  0
  8  9  1  6
 10 12  1  0
 10  8  1  0
 11 10  2  0
 13 19  1  0
 13 12  1  0
 13 14  1  1
 14 15  1  0
 16 15  1  0
 17 16  1  0
 18 17  1  0
 19 20  2  0
 22 23  2  0
 22 21  1  0
 24 22  1  0
 25 24  1  0
 26 25  1  0
 27 26  1  0
 28 27  1  6
 29 28  1  0
 29 19  1  0
 30 31  1  0
 30 28  1  0
 32 30  2  0
M  END
$$$$
