RKR.pdb
     RDKit          3D

 32 31  0  0  1  0  0  0  0  0999 V2000
    8.3386  -11.7623   14.4619 N   0  0  0  0  0  0  0  0  0  0  0  0
    8.3072  -13.1868   14.4489 C   0  0  0  0  0  0  0  0  0  0  0  0
    8.1940  -13.8421   13.3387 N   0  0  0  0  0  0  0  0  0  0  0  0
    8.4001  -13.9474   15.6472 N   0  0  0  0  0  0  0  0  0  0  0  0
    7.2170  -14.5193   16.2587 C   0  0  0  0  0  0  0  0  0  0  0  0
    7.3594  -14.3851   17.7558 C   0  0  0  0  0  0  0  0  0  0  0  0
    8.6586  -13.6954   18.1272 C   0  0  0  0  0  0  0  0  0  0  0  0
    9.7655  -14.6825   18.3683 C   0  0  2  0  0  0  0  0  0  0  0  0
    9.9274  -15.6331   17.2897 N   0  0  0  0  0  0  0  0  0  0  0  0
    9.4298  -15.4596   19.6022 C   0  0  0  0  0  0  0  0  0  0  0  0
    9.3235  -14.8725   20.6992 O   0  0  0  0  0  0  0  0  0  0  0  0
    8.0396  -14.8649   13.3814 N   0  0  0  0  0  0  0  0  0  0  0  0
    9.2254  -16.8693   19.5561 C   0  0  1  0  0  0  0  0  0  0  0  0
    8.9383  -17.6482   20.7227 C   0  0  0  0  0  0  0  0  0  0  0  0
    8.6631  -19.0781   20.4647 C   0  0  0  0  0  0  0  0  0  0  0  0
    8.4041  -19.8660   21.7077 C   0  0  0  0  0  0  0  0  0  0  0  0
    8.3059  -21.3361   21.2867 C   0  0  0  0  0  0  0  0  0  0  0  0
    8.0439  -22.2352   22.4890 N   0  0  0  0  0  0  0  0  0  0  0  0
    9.3214  -22.3164   23.1979 C   0  0  0  0  0  0  0  0  0  0  0  0
    9.9883  -17.4169   21.7519 O   0  0  0  0  0  0  0  0  0  0  0  0
   11.2036  -17.5653   21.4608 N   0  0  0  0  0  0  0  0  0  0  0  0
    9.6373  -13.3164   30.0578 C   0  0  0  0  0  0  0  0  0  0  0  0
   10.3934  -14.4461   29.5870 N   0  0  0  0  0  0  0  0  0  0  0  0
   10.9109  -15.2649   30.4355 N   0  0  0  0  0  0  0  0  0  0  0  0
   10.5884  -14.6893   28.2031 C   0  0  0  0  0  0  0  0  0  0  0  0
    9.5806  -15.3319   27.3887 C   0  0  0  0  0  0  0  0  0  0  0  0
   10.2680  -16.2547   26.4213 C   0  0  0  0  0  0  0  0  0  0  0  0
   10.3460  -15.7046   25.0264 C   0  0  1  0  0  0  0  0  0  0  0  0
   10.7451  -16.7486   24.0441 N   0  0  0  0  0  0  0  0  0  0  0  0
    9.6843  -17.0266   23.0819 C   0  0  0  0  0  0  0  0  0  0  0  0
   11.1519  -18.0284   24.6416 O   0  0  0  0  0  0  0  0  0  0  0  0
   12.4267  -18.1867   25.1967 O   0  0  0  0  0  0  0  0  0  0  0  0
  1  2  1  0
  2  3  2  0
  4  5  1  0
  4  2  1  0
  5  6  1  0
  7  8  1  0
  7  6  1  0
  8  9  1  6
 10 12  1  0
 10  8  1  0
 11 10  2  0
 13 19  1  0
 13 12  1  0
 13 14  1  1
 14 15  1  0
 16 15  1  0
 17 16  1  0
 18 17  1  0
 19 20  2  0
 22 23  2  0
 22 21  1  0
 24 22  1  0
 25 24  1  0
 26 25  1  0
 27 26  1  0
 28 27  1  6
 29 28  1  0
 29 19  1  0
 30 31  1  0
 30 28  1  0
 32 30  2  0
M  END
$$$$
