RKR.pdb
     RDKit          3D

 32 31  0  0  1  0  0  0  0  0999 V2000
    9.1111  -13.6334   14.6541 N   0  0  0  0  0  0  0  0  0  0  0  0
    7.7057  -13.5133   14.8565 C   0  0  0  0  0  0  0  0  0  0  0  0
    6.8759  -13.6420   13.8718 N   0  0  0  0  0  0  0  0  0  0  0  0
    7.1555  -13.2505   16.1415 N   0  0  0  0  0  0  0  0  0  0  0  0
    8.0118  -13.1085   17.3023 C   0  0  0  0  0  0  0  0  0  0  0  0
    8.6165  -14.4598   17.5988 C   0  0  0  0  0  0  0  0  0  0  0  0
    8.2851  -14.9160   19.0071 C   0  0  0  0  0  0  0  0  0  0  0  0
    8.8449  -16.2797   19.2984 C   0  0  2  0  0  0  0  0  0  0  0  0
    7.8890  -17.3455   19.0893 N   0  0  0  0  0  0  0  0  0  0  0  0
    9.2458  -16.3155   20.7395 C   0  0  0  0  0  0  0  0  0  0  0  0
   10.1578  -15.5686   21.1518 O   0  0  0  0  0  0  0  0  0  0  0  0
    5.8665  -13.5018   14.0540 N   0  0  0  0  0  0  0  0  0  0  0  0
    8.6051  -17.1903   21.6644 C   0  0  1  0  0  0  0  0  0  0  0  0
    9.0814  -17.3878   23.0002 C   0  0  0  0  0  0  0  0  0  0  0  0
    8.2280  -18.2514   23.8444 C   0  0  0  0  0  0  0  0  0  0  0  0
    8.7578  -18.4368   25.2293 C   0  0  0  0  0  0  0  0  0  0  0  0
    7.7695  -19.3505   25.9619 C   0  0  0  0  0  0  0  0  0  0  0  0
    8.2218  -19.6126   27.3935 N   0  0  0  0  0  0  0  0  0  0  0  0
    7.1989  -20.4862   27.9693 C   0  0  0  0  0  0  0  0  0  0  0  0
   10.5095  -17.8058   22.9675 O   0  0  0  0  0  0  0  0  0  0  0  0
   10.9197  -18.5880   22.0709 N   0  0  0  0  0  0  0  0  0  0  0  0
   13.7237  -15.9069   17.1075 C   0  0  0  0  0  0  0  0  0  0  0  0
   14.1347  -15.1727   18.2744 N   0  0  0  0  0  0  0  0  0  0  0  0
   14.5190  -13.9494   18.1551 N   0  0  0  0  0  0  0  0  0  0  0  0
   14.1292  -15.7597   19.5658 C   0  0  0  0  0  0  0  0  0  0  0  0
   14.4542  -15.0013   20.7536 C   0  0  0  0  0  0  0  0  0  0  0  0
   14.3355  -15.9097   21.9455 C   0  0  0  0  0  0  0  0  0  0  0  0
   12.9144  -16.1916   22.3402 C   0  0  1  0  0  0  0  0  0  0  0  0
   12.8396  -17.0804   23.5313 N   0  0  0  0  0  0  0  0  0  0  0  0
   11.4609  -17.3572   23.9199 C   0  0  0  0  0  0  0  0  0  0  0  0
   13.5445  -16.5753   24.7179 O   0  0  0  0  0  0  0  0  0  0  0  0
   14.9429  -16.5363   24.7579 O   0  0  0  0  0  0  0  0  0  0  0  0
  1  2  1  0
  2  3  2  0
  4  5  1  0
  4  2  1  0
  5  6  1  0
  7  8  1  0
  7  6  1  0
  8  9  1  1
 10 12  1  0
 10  8  1  0
 11 10  2  0
 13 19  1  0
 13 12  1  0
 13 14  1  1
 14 15  1  0
 16 15  1  0
 17 16  1  0
 18 17  1  0
 19 20  2  0
 22 23  2  0
 22 21  1  0
 24 22  1  0
 25 24  1  0
 26 25  1  0
 27 26  1  0
 28 27  1  6
 29 28  1  0
 29 19  1  0
 30 31  1  0
 30 28  1  0
 32 30  2  0
M  END
$$$$
