RKR.pdb
     RDKit          3D

 32 31  0  0  1  0  0  0  0  0999 V2000
    7.4642  -12.8695   17.6109 N   0  0  0  0  0  0  0  0  0  0  0  0
    7.7380  -12.4140   18.9331 C   0  0  0  0  0  0  0  0  0  0  0  0
    7.6788  -11.1562   19.2317 N   0  0  0  0  0  0  0  0  0  0  0  0
    8.0843  -13.3154   19.9773 N   0  0  0  0  0  0  0  0  0  0  0  0
    7.5959  -14.6801   19.9743 C   0  0  0  0  0  0  0  0  0  0  0  0
    8.0883  -15.3503   21.2345 C   0  0  0  0  0  0  0  0  0  0  0  0
    7.7955  -16.8387   21.2188 C   0  0  0  0  0  0  0  0  0  0  0  0
    8.5226  -17.5389   20.1058 C   0  0  2  0  0  0  0  0  0  0  0  0
    8.2479  -18.9583   20.0489 N   0  0  0  0  0  0  0  0  0  0  0  0
    9.9915  -17.3771   20.3410 C   0  0  0  0  0  0  0  0  0  0  0  0
   10.5721  -18.0986   21.1787 O   0  0  0  0  0  0  0  0  0  0  0  0
    7.9281  -10.8636   20.1929 N   0  0  0  0  0  0  0  0  0  0  0  0
   10.7535  -16.4092   19.6241 C   0  0  2  0  0  0  0  0  0  0  0  0
   12.1498  -16.1958   19.8579 C   0  0  0  0  0  0  0  0  0  0  0  0
   12.7850  -15.1994   18.9688 C   0  0  0  0  0  0  0  0  0  0  0  0
   14.2551  -15.0551   19.1943 C   0  0  0  0  0  0  0  0  0  0  0  0
   14.7715  -14.0790   18.1318 C   0  0  0  0  0  0  0  0  0  0  0  0
   16.2525  -13.7810   18.3334 N   0  0  0  0  0  0  0  0  0  0  0  0
   16.5892  -12.7844   17.3164 C   0  0  0  0  0  0  0  0  0  0  0  0
   12.3835  -15.9414   21.3057 O   0  0  0  0  0  0  0  0  0  0  0  0
   11.8821  -14.9286   21.8594 N   0  0  0  0  0  0  0  0  0  0  0  0
   12.7447  -19.8567   28.8405 C   0  0  0  0  0  0  0  0  0  0  0  0
   12.2123  -20.1289   27.5320 N   0  0  0  0  0  0  0  0  0  0  0  0
   11.6782  -21.2747   27.2869 N   0  0  0  0  0  0  0  0  0  0  0  0
   12.2571  -19.1644   26.4926 C   0  0  0  0  0  0  0  0  0  0  0  0
   11.6411  -19.3967   25.2049 C   0  0  0  0  0  0  0  0  0  0  0  0
   11.8548  -18.1795   24.3488 C   0  0  0  0  0  0  0  0  0  0  0  0
   13.2579  -17.6480   24.4091 C   0  0  2  0  0  0  0  0  0  0  0  0
   13.4412  -16.4745   23.5126 N   0  0  0  0  0  0  0  0  0  0  0  0
   13.1635  -16.8040   22.1188 C   0  0  0  0  0  0  0  0  0  0  0  0
   14.7768  -15.8634   23.5687 O   0  0  0  0  0  0  0  0  0  0  0  0
   15.6853  -16.0295   22.5174 O   0  0  0  0  0  0  0  0  0  0  0  0
  1  2  1  0
  2  3  2  0
  4  5  1  0
  4  2  1  0
  5  6  1  0
  7  8  1  0
  7  6  1  0
  8  9  1  1
 10 12  1  0
 10  8  1  0
 11 10  2  0
 13 19  1  0
 13 12  1  0
 13 14  1  6
 14 15  1  0
 16 15  1  0
 17 16  1  0
 18 17  1  0
 19 20  2  0
 22 23  2  0
 22 21  1  0
 24 22  1  0
 25 24  1  0
 26 25  1  0
 27 26  1  0
 28 27  1  1
 29 28  1  0
 29 19  1  0
 30 31  1  0
 30 28  1  0
 32 30  2  0
M  END
$$$$
