RKR.pdb
     RDKit          3D

 32 31  0  0  1  0  0  0  0  0999 V2000
    9.7209  -13.7837   13.7854 N   0  0  0  0  0  0  0  0  0  0  0  0
    8.4156  -13.7818   14.3571 C   0  0  0  0  0  0  0  0  0  0  0  0
    7.6213  -12.7716   14.2046 N   0  0  0  0  0  0  0  0  0  0  0  0
    7.9297  -14.8835   15.1141 N   0  0  0  0  0  0  0  0  0  0  0  0
    8.4255  -15.1436   16.4511 C   0  0  0  0  0  0  0  0  0  0  0  0
    9.0056  -13.8570   16.9876 C   0  0  0  0  0  0  0  0  0  0  0  0
    9.6821  -14.0731   18.3281 C   0  0  0  0  0  0  0  0  0  0  0  0
    8.9156  -15.0347   19.1916 C   0  0  2  0  0  0  0  0  0  0  0  0
    7.4866  -14.9861   18.9703 N   0  0  0  0  0  0  0  0  0  0  0  0
    9.1593  -14.6658   20.6211 C   0  0  0  0  0  0  0  0  0  0  0  0
   10.3266  -14.4976   21.0315 O   0  0  0  0  0  0  0  0  0  0  0  0
    6.6757  -12.8180   14.6233 N   0  0  0  0  0  0  0  0  0  0  0  0
    8.0798  -14.4991   21.5367 C   0  0  1  0  0  0  0  0  0  0  0  0
    8.2700  -14.4372   22.9545 C   0  0  0  0  0  0  0  0  0  0  0  0
    7.1516  -13.8291   23.7069 C   0  0  0  0  0  0  0  0  0  0  0  0
    7.4704  -13.5807   25.1456 C   0  0  0  0  0  0  0  0  0  0  0  0
    6.2121  -12.9779   25.7793 C   0  0  0  0  0  0  0  0  0  0  0  0
    6.4411  -12.6502   27.2500 N   0  0  0  0  0  0  0  0  0  0  0  0
    5.1721  -12.0993   27.7265 C   0  0  0  0  0  0  0  0  0  0  0  0
    8.6782  -15.7743   23.4652 O   0  0  0  0  0  0  0  0  0  0  0  0
    8.3124  -16.8192   22.8667 N   0  0  0  0  0  0  0  0  0  0  0  0
   15.5004  -15.6755   19.9337 C   0  0  0  0  0  0  0  0  0  0  0  0
   14.1383  -15.3831   20.2926 N   0  0  0  0  0  0  0  0  0  0  0  0
   13.5026  -14.4494   19.6742 N   0  0  0  0  0  0  0  0  0  0  0  0
   13.4662  -16.0989   21.3165 C   0  0  0  0  0  0  0  0  0  0  0  0
   14.0052  -16.2102   22.6540 C   0  0  0  0  0  0  0  0  0  0  0  0
   12.9730  -16.8640   23.5300 C   0  0  0  0  0  0  0  0  0  0  0  0
   11.6486  -16.1565   23.5195 C   0  0  1  0  0  0  0  0  0  0  0  0
   10.7347  -16.6829   24.5691 N   0  0  0  0  0  0  0  0  0  0  0  0
    9.4807  -15.9394   24.6238 C   0  0  0  0  0  0  0  0  0  0  0  0
   11.3030  -16.6990   25.9245 O   0  0  0  0  0  0  0  0  0  0  0  0
   10.9122  -15.7506   26.8764 O   0  0  0  0  0  0  0  0  0  0  0  0
  1  2  1  0
  2  3  2  0
  4  5  1  0
  4  2  1  0
  5  6  1  0
  7  8  1  0
  7  6  1  0
  8  9  1  6
 10 12  1  0
 10  8  1  0
 11 10  2  0
 13 19  1  0
 13 12  1  0
 13 14  1  1
 14 15  1  0
 16 15  1  0
 17 16  1  0
 18 17  1  0
 19 20  2  0
 22 23  2  0
 22 21  1  0
 24 22  1  0
 25 24  1  0
 26 25  1  0
 27 26  1  0
 28 27  1  6
 29 28  1  0
 29 19  1  0
 30 31  1  0
 30 28  1  0
 32 30  2  0
M  END
$$$$
