QMW.pdb
     RDKit          3D

 32 33  0  0  1  0  0  0  0  0999 V2000
   29.6386  -21.5580  -16.6162 N   0  0  0  0  0  0  0  0  0  0  0  0
   29.3679  -21.2204  -17.9776 C   0  0  0  0  0  0  0  0  0  0  0  0
   30.2141  -21.1904  -18.8775 O   0  0  0  0  0  0  0  0  0  0  0  0
   27.9437  -20.8838  -18.3011 C   0  0  0  0  0  0  0  0  0  0  0  0
   27.1084  -20.9140  -17.0659 C   0  0  0  0  0  0  0  0  0  0  0  0
   27.1287  -22.2160  -16.3214 C   0  0  2  0  0  0  0  0  0  0  0  0
   26.8217  -23.3280  -17.2231 N   0  0  0  0  0  0  0  0  0  0  0  0
   26.2294  -22.2186  -15.1526 C   0  0  0  0  0  0  0  0  0  0  0  0
   25.2161  -22.9570  -15.1674 O   0  0  0  0  0  0  0  0  0  0  0  0
   25.2288  -20.8828   -7.3772 C   0  0  0  0  0  0  0  0  0  0  0  0
   26.2808  -20.9811   -8.8361 S   0  0  0  0  0  0  0  0  0  0  0  0
   25.3669  -21.2234  -10.3440 C   0  0  0  0  0  0  0  0  0  0  0  0
   26.1219  -21.2012  -11.6181 C   0  0  0  0  0  0  0  0  0  0  0  0
   25.4415  -21.4891  -12.9011 C   0  0  2  0  0  0  0  0  0  0  0  0
   26.4451  -21.4270  -14.0015 N   0  0  0  0  0  0  0  0  0  0  0  0
   24.3375  -20.5776  -13.1993 C   0  0  0  0  0  0  0  0  0  0  0  0
   24.4988  -19.3652  -13.3549 O   0  0  0  0  0  0  0  0  0  0  0  0
   22.9919  -21.0861  -13.3226 N   0  0  0  0  0  0  0  0  0  0  0  0
   21.8515  -20.1827  -13.5256 C   0  0  1  0  0  0  0  0  0  0  0  0
   21.5957  -20.2097  -15.0027 C   0  0  0  0  0  0  0  0  0  0  0  0
   22.5557  -19.4933  -15.8230 C   0  0  0  0  0  0  0  0  0  0  0  0
   23.4252  -20.1249  -16.7135 C   0  0  0  0  0  0  0  0  0  0  0  0
   24.1825  -19.1798  -17.2693 N   0  0  0  0  0  0  0  0  0  0  0  0
   23.8446  -17.9681  -16.7823 C   0  0  0  0  0  0  0  0  0  0  0  0
   24.2917  -16.6868  -17.0241 C   0  0  0  0  0  0  0  0  0  0  0  0
   23.7370  -15.6114  -16.3788 C   0  0  0  0  0  0  0  0  0  0  0  0
   22.7254  -15.7908  -15.4792 C   0  0  0  0  0  0  0  0  0  0  0  0
   22.2776  -17.0606  -15.2344 C   0  0  0  0  0  0  0  0  0  0  0  0
   22.8104  -18.1541  -15.8611 C   0  0  0  0  0  0  0  0  0  0  0  0
   20.7198  -20.5660  -12.6925 C   0  0  0  0  0  0  0  0  0  0  0  0
   20.8065  -21.6503  -12.0306 O   0  0  0  0  0  0  0  0  0  0  0  0
   19.5445  -19.8701  -12.5337 O   0  0  0  0  0  0  0  0  0  0  0  0
  2  1  1  0
  3  2  2  0
  4  2  1  0
  5  4  1  0
  6  5  1  0
  6  7  1  6
  8  9  2  0
  8  6  1  0
 10 11  1  0
 12 11  1  0
 12 13  1  0
 14 13  1  1
 14 16  1  0
 14 15  1  0
 15  8  1  0
 16 18  1  0
 17 16  2  0
 18 19  1  0
 19 30  1  0
 20 21  1  0
 19 20  1  6
 21 29  1  0
 22 23  1  0
 22 21  2  0
 23 24  1  0
 24 29  2  0
 24 25  1  0
 25 26  2  0
 26 27  1  0
 28 27  2  0
 29 28  1  0
 30 31  2  0
 30 32  1  0
M  END
$$$$
