QMW.pdb
     RDKit          3D

 32 33  0  0  1  0  0  0  0  0999 V2000
   27.5036  -17.6346  -17.1208 N   0  0  0  0  0  0  0  0  0  0  0  0
   27.6005  -17.9426  -18.5123 C   0  0  0  0  0  0  0  0  0  0  0  0
   28.1547  -17.2288  -19.3549 O   0  0  0  0  0  0  0  0  0  0  0  0
   26.9730  -19.2330  -18.9455 C   0  0  0  0  0  0  0  0  0  0  0  0
   26.4552  -19.9821  -17.7644 C   0  0  0  0  0  0  0  0  0  0  0  0
   27.5010  -20.6990  -16.9630 C   0  0  2  0  0  0  0  0  0  0  0  0
   28.0471  -21.8256  -17.7223 N   0  0  0  0  0  0  0  0  0  0  0  0
   27.0073  -21.1388  -15.6447 C   0  0  0  0  0  0  0  0  0  0  0  0
   26.3048  -22.1750  -15.5740 O   0  0  0  0  0  0  0  0  0  0  0  0
   25.6591  -20.5380   -8.2605 C   0  0  0  0  0  0  0  0  0  0  0  0
   25.6716  -20.6911  -10.0552 S   0  0  0  0  0  0  0  0  0  0  0  0
   27.2404  -21.2282  -10.7018 C   0  0  0  0  0  0  0  0  0  0  0  0
   27.6049  -20.7973  -12.0713 C   0  0  0  0  0  0  0  0  0  0  0  0
   26.6404  -20.9366  -13.1858 C   0  0  2  0  0  0  0  0  0  0  0  0
   27.2829  -20.4519  -14.4404 N   0  0  0  0  0  0  0  0  0  0  0  0
   25.3865  -20.2149  -12.9726 C   0  0  0  0  0  0  0  0  0  0  0  0
   25.3173  -18.9839  -12.9814 O   0  0  0  0  0  0  0  0  0  0  0  0
   24.1622  -20.9437  -12.7394 N   0  0  0  0  0  0  0  0  0  0  0  0
   22.9249  -20.2516  -12.3545 C   0  0  1  0  0  0  0  0  0  0  0  0
   22.6828  -19.2561  -13.4491 C   0  0  0  0  0  0  0  0  0  0  0  0
   22.0510  -19.7769  -14.6480 C   0  0  0  0  0  0  0  0  0  0  0  0
   20.7535  -20.2907  -14.6692 C   0  0  0  0  0  0  0  0  0  0  0  0
   20.5097  -20.7070  -15.9113 N   0  0  0  0  0  0  0  0  0  0  0  0
   21.5858  -20.4869  -16.6943 C   0  0  0  0  0  0  0  0  0  0  0  0
   21.8541  -20.7100  -18.0279 C   0  0  0  0  0  0  0  0  0  0  0  0
   23.0625  -20.3601  -18.5736 C   0  0  0  0  0  0  0  0  0  0  0  0
   24.0284  -19.7806  -17.8016 C   0  0  0  0  0  0  0  0  0  0  0  0
   23.7683  -19.5570  -16.4768 C   0  0  0  0  0  0  0  0  0  0  0  0
   22.5733  -19.8952  -15.9022 C   0  0  0  0  0  0  0  0  0  0  0  0
   21.8411  -21.1973  -12.1246 C   0  0  0  0  0  0  0  0  0  0  0  0
   22.0083  -22.4005  -12.5061 O   0  0  0  0  0  0  0  0  0  0  0  0
   20.6331  -20.9310  -11.5241 O   0  0  0  0  0  0  0  0  0  0  0  0
  2  1  1  0
  3  2  2  0
  4  2  1  0
  5  4  1  0
  6  5  1  0
  6  7  1  6
  8  9  2  0
  8  6  1  0
 10 11  1  0
 12 11  1  0
 12 13  1  0
 14 13  1  1
 14 16  1  0
 14 15  1  0
 15  8  1  0
 16 18  1  0
 17 16  2  0
 18 19  1  0
 19 30  1  0
 20 21  1  0
 19 20  1  6
 21 29  1  0
 22 23  1  0
 22 21  2  0
 23 24  1  0
 24 29  2  0
 24 25  1  0
 25 26  2  0
 26 27  1  0
 28 27  2  0
 29 28  1  0
 30 31  2  0
 30 32  1  0
M  END
$$$$
