QMW.pdb
     RDKit          3D

 32 33  0  0  1  0  0  0  0  0999 V2000
   27.8615  -25.3248  -16.1362 N   0  0  0  0  0  0  0  0  0  0  0  0
   26.8984  -26.2211  -16.6924 C   0  0  0  0  0  0  0  0  0  0  0  0
   27.1672  -27.3071  -17.2168 O   0  0  0  0  0  0  0  0  0  0  0  0
   25.4681  -25.7795  -16.6167 C   0  0  0  0  0  0  0  0  0  0  0  0
   25.3481  -24.5443  -15.7895 C   0  0  0  0  0  0  0  0  0  0  0  0
   25.1605  -24.7836  -14.3207 C   0  0  2  0  0  0  0  0  0  0  0  0
   23.9992  -25.6437  -14.0847 N   0  0  0  0  0  0  0  0  0  0  0  0
   25.0579  -23.5319  -13.5476 C   0  0  0  0  0  0  0  0  0  0  0  0
   23.9744  -22.9008  -13.5542 O   0  0  0  0  0  0  0  0  0  0  0  0
   28.7716  -21.0306   -7.7494 C   0  0  0  0  0  0  0  0  0  0  0  0
   28.9327  -20.8979   -9.5386 S   0  0  0  0  0  0  0  0  0  0  0  0
   27.4220  -21.2604  -10.4070 C   0  0  0  0  0  0  0  0  0  0  0  0
   27.4423  -21.1836  -11.8861 C   0  0  0  0  0  0  0  0  0  0  0  0
   26.2325  -21.5125  -12.6734 C   0  0  2  0  0  0  0  0  0  0  0  0
   26.1233  -22.9945  -12.7897 N   0  0  0  0  0  0  0  0  0  0  0  0
   26.2207  -20.9188  -14.0099 C   0  0  0  0  0  0  0  0  0  0  0  0
   26.5931  -21.5308  -15.0133 O   0  0  0  0  0  0  0  0  0  0  0  0
   25.7607  -19.5630  -14.1959 N   0  0  0  0  0  0  0  0  0  0  0  0
   24.3945  -19.2780  -14.6545 C   0  0  1  0  0  0  0  0  0  0  0  0
   23.5030  -19.9397  -13.6469 C   0  0  0  0  0  0  0  0  0  0  0  0
   22.1221  -19.4916  -13.6350 C   0  0  0  0  0  0  0  0  0  0  0  0
   21.3500  -19.3570  -14.7898 C   0  0  0  0  0  0  0  0  0  0  0  0
   20.1555  -18.8971  -14.4194 N   0  0  0  0  0  0  0  0  0  0  0  0
   20.1172  -18.7287  -13.0816 C   0  0  0  0  0  0  0  0  0  0  0  0
   19.1439  -18.3025  -12.2035 C   0  0  0  0  0  0  0  0  0  0  0  0
   19.3849  -18.2462  -10.8547 C   0  0  0  0  0  0  0  0  0  0  0  0
   20.6008  -18.6136  -10.3532 C   0  0  0  0  0  0  0  0  0  0  0  0
   21.5714  -19.0370  -11.2201 C   0  0  0  0  0  0  0  0  0  0  0  0
   21.3626  -19.1038  -12.5707 C   0  0  0  0  0  0  0  0  0  0  0  0
   24.1831  -17.8470  -14.8256 C   0  0  0  0  0  0  0  0  0  0  0  0
   23.4112  -17.4660  -15.7639 O   0  0  0  0  0  0  0  0  0  0  0  0
   24.7323  -16.8398  -14.0676 O   0  0  0  0  0  0  0  0  0  0  0  0
  2  1  1  0
  3  2  2  0
  4  2  1  0
  5  4  1  0
  6  5  1  0
  6  7  1  6
  8  9  2  0
  8  6  1  0
 10 11  1  0
 12 11  1  0
 12 13  1  0
 14 13  1  6
 14 16  1  0
 14 15  1  0
 15  8  1  0
 16 18  1  0
 17 16  2  0
 18 19  1  0
 19 30  1  0
 20 21  1  0
 19 20  1  1
 21 29  1  0
 22 23  1  0
 22 21  2  0
 23 24  1  0
 24 29  2  0
 24 25  1  0
 25 26  2  0
 26 27  1  0
 28 27  2  0
 29 28  1  0
 30 31  2  0
 30 32  1  0
M  END
$$$$
