QMW.pdb
     RDKit          3D

 32 33  0  0  1  0  0  0  0  0999 V2000
   28.3714  -18.0371  -14.4144 N   0  0  0  0  0  0  0  0  0  0  0  0
   28.4100  -18.5397  -15.7509 C   0  0  0  0  0  0  0  0  0  0  0  0
   29.2516  -18.2235  -16.5985 O   0  0  0  0  0  0  0  0  0  0  0  0
   27.3361  -19.5195  -16.1165 C   0  0  0  0  0  0  0  0  0  0  0  0
   26.5333  -19.8841  -14.9137 C   0  0  0  0  0  0  0  0  0  0  0  0
   27.0715  -21.0382  -14.1211 C   0  0  2  0  0  0  0  0  0  0  0  0
   27.1834  -22.2314  -14.9625 N   0  0  0  0  0  0  0  0  0  0  0  0
   26.2781  -21.3174  -12.9097 C   0  0  0  0  0  0  0  0  0  0  0  0
   25.3972  -22.2087  -12.9525 O   0  0  0  0  0  0  0  0  0  0  0  0
   28.1193  -21.0816   -5.9616 C   0  0  0  0  0  0  0  0  0  0  0  0
   26.6224  -20.6810   -6.8800 S   0  0  0  0  0  0  0  0  0  0  0  0
   26.8936  -20.5365   -8.6331 C   0  0  0  0  0  0  0  0  0  0  0  0
   25.7960  -19.9780   -9.4561 C   0  0  0  0  0  0  0  0  0  0  0  0
   25.3504  -20.6707  -10.6864 C   0  0  2  0  0  0  0  0  0  0  0  0
   26.4545  -20.6302  -11.6870 N   0  0  0  0  0  0  0  0  0  0  0  0
   24.1395  -20.1014  -11.2766 C   0  0  0  0  0  0  0  0  0  0  0  0
   24.1404  -19.0397  -11.9034 O   0  0  0  0  0  0  0  0  0  0  0  0
   22.8757  -20.7853  -11.1374 N   0  0  0  0  0  0  0  0  0  0  0  0
   21.7438  -20.4827  -12.0235 C   0  0  1  0  0  0  0  0  0  0  0  0
   22.2585  -20.7384  -13.4083 C   0  0  0  0  0  0  0  0  0  0  0  0
   21.2966  -20.5640  -14.4816 C   0  0  0  0  0  0  0  0  0  0  0  0
   20.5290  -19.4096  -14.6430 C   0  0  0  0  0  0  0  0  0  0  0  0
   19.7368  -19.6016  -15.6970 N   0  0  0  0  0  0  0  0  0  0  0  0
   19.9551  -20.8233  -16.2256 C   0  0  0  0  0  0  0  0  0  0  0  0
   19.4287  -21.5017  -17.3038 C   0  0  0  0  0  0  0  0  0  0  0  0
   19.8640  -22.7614  -17.6269 C   0  0  0  0  0  0  0  0  0  0  0  0
   20.8327  -23.3708  -16.8821 C   0  0  0  0  0  0  0  0  0  0  0  0
   21.3588  -22.7026  -15.8100 C   0  0  0  0  0  0  0  0  0  0  0  0
   20.9457  -21.4456  -15.4612 C   0  0  0  0  0  0  0  0  0  0  0  0
   20.5618  -21.2473  -11.6495 C   0  0  0  0  0  0  0  0  0  0  0  0
   20.7342  -22.4042  -11.1464 O   0  0  0  0  0  0  0  0  0  0  0  0
   19.2520  -20.8487  -11.7774 O   0  0  0  0  0  0  0  0  0  0  0  0
  2  1  1  0
  3  2  2  0
  4  2  1  0
  5  4  1  0
  6  5  1  0
  6  7  1  6
  8  9  2  0
  8  6  1  0
 10 11  1  0
 12 11  1  0
 12 13  1  0
 14 13  1  1
 14 16  1  0
 14 15  1  0
 15  8  1  0
 16 18  1  0
 17 16  2  0
 18 19  1  0
 19 30  1  0
 20 21  1  0
 19 20  1  6
 21 29  1  0
 22 23  1  0
 22 21  2  0
 23 24  1  0
 24 29  2  0
 24 25  1  0
 25 26  2  0
 26 27  1  0
 28 27  2  0
 29 28  1  0
 30 31  2  0
 30 32  1  0
M  END
$$$$
