QMW.pdb
     RDKit          3D

 32 33  0  0  1  0  0  0  0  0999 V2000
   28.0041  -17.7662  -14.3261 N   0  0  0  0  0  0  0  0  0  0  0  0
   27.9493  -18.1120  -15.7110 C   0  0  0  0  0  0  0  0  0  0  0  0
   28.6650  -17.6187  -16.5891 O   0  0  0  0  0  0  0  0  0  0  0  0
   26.9384  -19.1518  -16.0898 C   0  0  0  0  0  0  0  0  0  0  0  0
   26.2853  -19.7107  -14.8711 C   0  0  0  0  0  0  0  0  0  0  0  0
   26.9795  -20.8967  -14.2699 C   0  0  2  0  0  0  0  0  0  0  0  0
   26.8991  -22.0492  -15.1694 N   0  0  0  0  0  0  0  0  0  0  0  0
   26.4700  -21.2360  -12.9281 C   0  0  0  0  0  0  0  0  0  0  0  0
   25.4348  -21.9368  -12.8307 O   0  0  0  0  0  0  0  0  0  0  0  0
   26.9526  -19.8042   -5.0480 C   0  0  0  0  0  0  0  0  0  0  0  0
   27.7081  -19.7766   -6.6830 S   0  0  0  0  0  0  0  0  0  0  0  0
   26.6191  -20.3519   -7.9679 C   0  0  0  0  0  0  0  0  0  0  0  0
   27.1507  -20.4033   -9.3495 C   0  0  0  0  0  0  0  0  0  0  0  0
   26.3064  -20.8923  -10.4629 C   0  0  2  0  0  0  0  0  0  0  0  0
   27.0880  -20.8118  -11.7296 N   0  0  0  0  0  0  0  0  0  0  0  0
   25.0529  -20.1551  -10.6186 C   0  0  0  0  0  0  0  0  0  0  0  0
   25.0164  -18.9394  -10.8205 O   0  0  0  0  0  0  0  0  0  0  0  0
   23.7897  -20.8496  -10.5376 N   0  0  0  0  0  0  0  0  0  0  0  0
   22.5978  -20.3470  -11.2339 C   0  0  1  0  0  0  0  0  0  0  0  0
   23.0380  -20.1390  -12.6519 C   0  0  0  0  0  0  0  0  0  0  0  0
   22.0031  -19.7178  -13.5789 C   0  0  0  0  0  0  0  0  0  0  0  0
   21.0903  -18.7001  -13.2979 C   0  0  0  0  0  0  0  0  0  0  0  0
   20.2701  -18.6003  -14.3433 N   0  0  0  0  0  0  0  0  0  0  0  0
   20.6085  -19.5030  -15.2869 C   0  0  0  0  0  0  0  0  0  0  0  0
   20.1108  -19.8061  -16.5360 C   0  0  0  0  0  0  0  0  0  0  0  0
   20.6804  -20.7892  -17.3040 C   0  0  0  0  0  0  0  0  0  0  0  0
   21.7577  -21.4903  -16.8429 C   0  0  0  0  0  0  0  0  0  0  0  0
   22.2560  -21.1944  -15.6032 C   0  0  0  0  0  0  0  0  0  0  0  0
   21.7101  -20.2202  -14.8125 C   0  0  0  0  0  0  0  0  0  0  0  0
   21.4665  -21.2481  -11.0609 C   0  0  0  0  0  0  0  0  0  0  0  0
   20.2992  -20.7405  -11.0279 O   0  0  0  0  0  0  0  0  0  0  0  0
   21.5191  -22.6160  -10.9311 O   0  0  0  0  0  0  0  0  0  0  0  0
  2  1  1  0
  3  2  2  0
  4  2  1  0
  5  4  1  0
  6  5  1  0
  6  7  1  6
  8  9  2  0
  8  6  1  0
 10 11  1  0
 12 11  1  0
 12 13  1  0
 14 13  1  1
 14 16  1  0
 14 15  1  0
 15  8  1  0
 16 18  1  0
 17 16  2  0
 18 19  1  0
 19 30  1  0
 20 21  1  0
 19 20  1  6
 21 29  1  0
 22 23  1  0
 22 21  2  0
 23 24  1  0
 24 29  2  0
 24 25  1  0
 25 26  2  0
 26 27  1  0
 28 27  2  0
 29 28  1  0
 30 31  2  0
 30 32  1  0
M  END
$$$$
