QMW.pdb
     RDKit          3D

 32 33  0  0  1  0  0  0  0  0999 V2000
   27.3819  -21.4399  -16.1821 N   0  0  0  0  0  0  0  0  0  0  0  0
   28.1398  -20.2423  -16.3602 C   0  0  0  0  0  0  0  0  0  0  0  0
   28.7704  -19.9531  -17.3826 O   0  0  0  0  0  0  0  0  0  0  0  0
   28.1481  -19.2908  -15.2021 C   0  0  0  0  0  0  0  0  0  0  0  0
   27.3820  -19.8597  -14.0559 C   0  0  0  0  0  0  0  0  0  0  0  0
   28.2094  -20.6043  -13.0505 C   0  0  2  0  0  0  0  0  0  0  0  0
   28.7706  -21.8188  -13.6456 N   0  0  0  0  0  0  0  0  0  0  0  0
   27.4640  -20.9152  -11.8166 C   0  0  0  0  0  0  0  0  0  0  0  0
   26.6538  -21.8722  -11.8211 O   0  0  0  0  0  0  0  0  0  0  0  0
   27.9219  -20.9337   -4.6426 C   0  0  0  0  0  0  0  0  0  0  0  0
   26.8046  -20.4614   -5.9743 S   0  0  0  0  0  0  0  0  0  0  0  0
   27.6490  -19.8128   -7.4005 C   0  0  0  0  0  0  0  0  0  0  0  0
   26.8215  -19.2922   -8.5132 C   0  0  0  0  0  0  0  0  0  0  0  0
   26.4669  -20.1615   -9.6579 C   0  0  2  0  0  0  0  0  0  0  0  0
   27.6109  -20.1882  -10.6132 N   0  0  0  0  0  0  0  0  0  0  0  0
   25.2561  -19.7419  -10.3626 C   0  0  0  0  0  0  0  0  0  0  0  0
   25.2571  -18.8513  -11.2153 O   0  0  0  0  0  0  0  0  0  0  0  0
   23.9922  -20.3759  -10.0711 N   0  0  0  0  0  0  0  0  0  0  0  0
   22.7953  -20.0950  -10.8752 C   0  0  1  0  0  0  0  0  0  0  0  0
   23.1612  -20.5077  -12.2694 C   0  0  0  0  0  0  0  0  0  0  0  0
   22.1135  -20.3683  -13.2646 C   0  0  0  0  0  0  0  0  0  0  0  0
   21.5150  -19.1480  -13.5818 C   0  0  0  0  0  0  0  0  0  0  0  0
   20.5808  -19.3890  -14.5009 N   0  0  0  0  0  0  0  0  0  0  0  0
   20.5466  -20.7052  -14.7941 C   0  0  0  0  0  0  0  0  0  0  0  0
   19.7969  -21.4672  -15.6643 C   0  0  0  0  0  0  0  0  0  0  0  0
   19.9946  -22.8201  -15.7691 C   0  0  0  0  0  0  0  0  0  0  0  0
   20.9436  -23.4415  -15.0088 C   0  0  0  0  0  0  0  0  0  0  0  0
   21.6907  -22.6905  -14.1425 C   0  0  0  0  0  0  0  0  0  0  0  0
   21.5173  -21.3393  -14.0141 C   0  0  0  0  0  0  0  0  0  0  0  0
   21.6206  -20.7541  -10.3208 C   0  0  0  0  0  0  0  0  0  0  0  0
   21.8045  -21.7316   -9.5259 O   0  0  0  0  0  0  0  0  0  0  0  0
   20.3066  -20.4283  -10.5615 O   0  0  0  0  0  0  0  0  0  0  0  0
  2  1  1  0
  3  2  2  0
  4  2  1  0
  5  4  1  0
  6  5  1  0
  6  7  1  6
  8  9  2  0
  8  6  1  0
 10 11  1  0
 12 11  1  0
 12 13  1  0
 14 13  1  1
 14 16  1  0
 14 15  1  0
 15  8  1  0
 16 18  1  0
 17 16  2  0
 18 19  1  0
 19 30  1  0
 20 21  1  0
 19 20  1  6
 21 29  1  0
 22 23  1  0
 22 21  2  0
 23 24  1  0
 24 29  2  0
 24 25  1  0
 25 26  2  0
 26 27  1  0
 28 27  2  0
 29 28  1  0
 30 31  2  0
 30 32  1  0
M  END
$$$$
