QMW.pdb
     RDKit          3D

 32 33  0  0  1  0  0  0  0  0999 V2000
   15.7139  -25.3877   -2.0119 N   0  0  0  0  0  0  0  0  0  0  0  0
   15.5124  -24.4260   -3.0487 C   0  0  0  0  0  0  0  0  0  0  0  0
   15.3561  -24.7003   -4.2433 O   0  0  0  0  0  0  0  0  0  0  0  0
   15.4954  -22.9900   -2.6196 C   0  0  0  0  0  0  0  0  0  0  0  0
   15.7828  -22.8796   -1.1604 C   0  0  0  0  0  0  0  0  0  0  0  0
   14.6008  -22.5216   -0.3091 C   0  0  2  0  0  0  0  0  0  0  0  0
   13.6326  -21.7374   -1.0784 N   0  0  0  0  0  0  0  0  0  0  0  0
   14.9826  -21.8214    0.9314 C   0  0  0  0  0  0  0  0  0  0  0  0
   14.9958  -20.5676    0.9419 O   0  0  0  0  0  0  0  0  0  0  0  0
   11.6978  -21.4001    7.1430 C   0  0  0  0  0  0  0  0  0  0  0  0
   13.3964  -21.8298    6.7248 S   0  0  0  0  0  0  0  0  0  0  0  0
   13.6710  -21.9762    4.9725 C   0  0  0  0  0  0  0  0  0  0  0  0
   15.0343  -22.3334    4.5164 C   0  0  0  0  0  0  0  0  0  0  0  0
   15.6308  -21.6694    3.3353 C   0  0  2  0  0  0  0  0  0  0  0  0
   15.3395  -22.4893    2.1251 N   0  0  0  0  0  0  0  0  0  0  0  0
   17.0742  -21.4606    3.4440 C   0  0  0  0  0  0  0  0  0  0  0  0
   17.8969  -22.2110    2.9148 O   0  0  0  0  0  0  0  0  0  0  0  0
   17.5892  -20.3400    4.1946 N   0  0  0  0  0  0  0  0  0  0  0  0
   19.0318  -20.1652    4.4096 C   0  0  1  0  0  0  0  0  0  0  0  0
   19.2040  -18.7056    4.7059 C   0  0  0  0  0  0  0  0  0  0  0  0
   18.9020  -17.7994    3.6126 C   0  0  0  0  0  0  0  0  0  0  0  0
   17.6081  -17.3797    3.3000 C   0  0  0  0  0  0  0  0  0  0  0  0
   17.6929  -16.5886    2.2312 N   0  0  0  0  0  0  0  0  0  0  0  0
   18.9783  -16.4756    1.8379 C   0  0  0  0  0  0  0  0  0  0  0  0
   19.6060  -15.7846    0.8237 C   0  0  0  0  0  0  0  0  0  0  0  0
   20.9672  -15.8414    0.6672 C   0  0  0  0  0  0  0  0  0  0  0  0
   21.7308  -16.5880    1.5182 C   0  0  0  0  0  0  0  0  0  0  0  0
   21.1133  -17.2769    2.5267 C   0  0  0  0  0  0  0  0  0  0  0  0
   19.7576  -17.2413    2.7091 C   0  0  0  0  0  0  0  0  0  0  0  0
   19.5253  -21.0701    5.4389 C   0  0  0  0  0  0  0  0  0  0  0  0
   20.7686  -21.0414    5.7123 O   0  0  0  0  0  0  0  0  0  0  0  0
   18.7815  -21.9681    6.1675 O   0  0  0  0  0  0  0  0  0  0  0  0
  2  1  1  0
  3  2  2  0
  4  2  1  0
  5  4  1  0
  6  5  1  0
  6  7  1  6
  8  9  2  0
  8  6  1  0
 10 11  1  0
 12 11  1  0
 12 13  1  0
 14 13  1  1
 14 16  1  0
 14 15  1  0
 15  8  1  0
 16 18  1  0
 17 16  2  0
 18 19  1  0
 19 30  1  0
 20 21  1  0
 19 20  1  1
 21 29  1  0
 22 23  1  0
 22 21  2  0
 23 24  1  0
 24 29  2  0
 24 25  1  0
 25 26  2  0
 26 27  1  0
 28 27  2  0
 29 28  1  0
 30 31  2  0
 30 32  1  0
M  END
$$$$
