QMW.pdb
     RDKit          3D

 32 33  0  0  1  0  0  0  0  0999 V2000
   31.0070  -23.1304  -15.9440 N   0  0  0  0  0  0  0  0  0  0  0  0
   30.1347  -22.5298  -16.9026 C   0  0  0  0  0  0  0  0  0  0  0  0
   30.3678  -22.4480  -18.1132 O   0  0  0  0  0  0  0  0  0  0  0  0
   28.8529  -21.9688  -16.3650 C   0  0  0  0  0  0  0  0  0  0  0  0
   28.8068  -22.1068  -14.8807 C   0  0  0  0  0  0  0  0  0  0  0  0
   28.3861  -20.8697  -14.1441 C   0  0  2  0  0  0  0  0  0  0  0  0
   29.5437  -20.0154  -13.8720 N   0  0  0  0  0  0  0  0  0  0  0  0
   27.6456  -21.1684  -12.9042 C   0  0  0  0  0  0  0  0  0  0  0  0
   26.7467  -22.0423  -12.9290 O   0  0  0  0  0  0  0  0  0  0  0  0
   26.9482  -20.3175   -4.9862 C   0  0  0  0  0  0  0  0  0  0  0  0
   27.8675  -20.0261   -6.5076 S   0  0  0  0  0  0  0  0  0  0  0  0
   26.9638  -20.4839   -7.9710 C   0  0  0  0  0  0  0  0  0  0  0  0
   27.6676  -20.3945   -9.2712 C   0  0  0  0  0  0  0  0  0  0  0  0
   26.9979  -20.8223  -10.5204 C   0  0  2  0  0  0  0  0  0  0  0  0
   27.8926  -20.5187  -11.6733 N   0  0  0  0  0  0  0  0  0  0  0  0
   25.6967  -20.1908  -10.7366 C   0  0  0  0  0  0  0  0  0  0  0  0
   25.5782  -19.0272  -11.1264 O   0  0  0  0  0  0  0  0  0  0  0  0
   24.4824  -20.9326  -10.4924 N   0  0  0  0  0  0  0  0  0  0  0  0
   23.1628  -20.3387  -10.7451 C   0  0  1  0  0  0  0  0  0  0  0  0
   23.1623  -20.0068  -12.2072 C   0  0  0  0  0  0  0  0  0  0  0  0
   23.3729  -21.1252  -13.1086 C   0  0  0  0  0  0  0  0  0  0  0  0
   23.2235  -22.4584  -12.7239 C   0  0  0  0  0  0  0  0  0  0  0  0
   23.5241  -23.2141  -13.7794 N   0  0  0  0  0  0  0  0  0  0  0  0
   23.8597  -22.4347  -14.8280 C   0  0  0  0  0  0  0  0  0  0  0  0
   24.2314  -22.6979  -16.1290 C   0  0  0  0  0  0  0  0  0  0  0  0
   24.5052  -21.6793  -17.0054 C   0  0  0  0  0  0  0  0  0  0  0  0
   24.4141  -20.3775  -16.6033 C   0  0  0  0  0  0  0  0  0  0  0  0
   24.0462  -20.1097  -15.3126 C   0  0  0  0  0  0  0  0  0  0  0  0
   23.7672  -21.1032  -14.4140 C   0  0  0  0  0  0  0  0  0  0  0  0
   22.0928  -21.2259  -10.3095 C   0  0  0  0  0  0  0  0  0  0  0  0
   20.8941  -20.8077  -10.4075 O   0  0  0  0  0  0  0  0  0  0  0  0
   22.2353  -22.4941   -9.7976 O   0  0  0  0  0  0  0  0  0  0  0  0
  2  1  1  0
  3  2  2  0
  4  2  1  0
  5  4  1  0
  6  5  1  0
  6  7  1  1
  8  9  2  0
  8  6  1  0
 10 11  1  0
 12 11  1  0
 12 13  1  0
 14 13  1  1
 14 16  1  0
 14 15  1  0
 15  8  1  0
 16 18  1  0
 17 16  2  0
 18 19  1  0
 19 30  1  0
 20 21  1  0
 19 20  1  6
 21 29  1  0
 22 23  1  0
 22 21  2  0
 23 24  1  0
 24 29  2  0
 24 25  1  0
 25 26  2  0
 26 27  1  0
 28 27  2  0
 29 28  1  0
 30 31  2  0
 30 32  1  0
M  END
$$$$
