QMW.pdb
     RDKit          3D

 32 33  0  0  1  0  0  0  0  0999 V2000
   38.7137  -32.7605  -17.0060 N   0  0  0  0  0  0  0  0  0  0  0  0
   40.0562  -32.5023  -17.4200 C   0  0  0  0  0  0  0  0  0  0  0  0
   41.0634  -32.9628  -16.8721 O   0  0  0  0  0  0  0  0  0  0  0  0
   40.2167  -31.6033  -18.6086 C   0  0  0  0  0  0  0  0  0  0  0  0
   38.8827  -31.1905  -19.1325 C   0  0  0  0  0  0  0  0  0  0  0  0
   38.6341  -31.5371  -20.5705 C   0  0  2  0  0  0  0  0  0  0  0  0
   38.6256  -30.3278  -21.3961 N   0  0  0  0  0  0  0  0  0  0  0  0
   37.3982  -32.3183  -20.7634 C   0  0  0  0  0  0  0  0  0  0  0  0
   36.3026  -31.7131  -20.8388 O   0  0  0  0  0  0  0  0  0  0  0  0
   34.0206  -39.1827  -23.0215 C   0  0  0  0  0  0  0  0  0  0  0  0
   35.5007  -38.2322  -22.6336 S   0  0  0  0  0  0  0  0  0  0  0  0
   35.1455  -36.6544  -21.8907 C   0  0  0  0  0  0  0  0  0  0  0  0
   36.2872  -35.7554  -21.6039 C   0  0  0  0  0  0  0  0  0  0  0  0
   36.0588  -34.4036  -21.0453 C   0  0  2  0  0  0  0  0  0  0  0  0
   37.3756  -33.7277  -20.8695 N   0  0  0  0  0  0  0  0  0  0  0  0
   35.3412  -34.4069  -19.7710 C   0  0  0  0  0  0  0  0  0  0  0  0
   35.8584  -34.7826  -18.7168 O   0  0  0  0  0  0  0  0  0  0  0  0
   33.9701  -33.9585  -19.7110 N   0  0  0  0  0  0  0  0  0  0  0  0
   33.2019  -34.0215  -18.4605 C   0  0  1  0  0  0  0  0  0  0  0  0
   32.5887  -32.6611  -18.3151 C   0  0  0  0  0  0  0  0  0  0  0  0
   33.4739  -31.6183  -17.8284 C   0  0  0  0  0  0  0  0  0  0  0  0
   34.5505  -31.8634  -16.9748 C   0  0  0  0  0  0  0  0  0  0  0  0
   35.1205  -30.6897  -16.7047 N   0  0  0  0  0  0  0  0  0  0  0  0
   34.4656  -29.6978  -17.3426 C   0  0  0  0  0  0  0  0  0  0  0  0
   34.6440  -28.3329  -17.4158 C   0  0  0  0  0  0  0  0  0  0  0  0
   33.8130  -27.5517  -18.1773 C   0  0  0  0  0  0  0  0  0  0  0  0
   32.7874  -28.1147  -18.8814 C   0  0  0  0  0  0  0  0  0  0  0  0
   32.6048  -29.4692  -18.8122 C   0  0  0  0  0  0  0  0  0  0  0  0
   33.4158  -30.2758  -18.0612 C   0  0  0  0  0  0  0  0  0  0  0  0
   32.2568  -35.1298  -18.4773 C   0  0  0  0  0  0  0  0  0  0  0  0
   31.4800  -35.2665  -17.4777 O   0  0  0  0  0  0  0  0  0  0  0  0
   32.1032  -36.0625  -19.4758 O   0  0  0  0  0  0  0  0  0  0  0  0
  2  1  1  0
  3  2  2  0
  4  2  1  0
  5  4  1  0
  6  5  1  0
  6  7  1  6
  8  9  2  0
  8  6  1  0
 10 11  1  0
 12 11  1  0
 12 13  1  0
 14 13  1  1
 14 16  1  0
 14 15  1  0
 15  8  1  0
 16 18  1  0
 17 16  2  0
 18 19  1  0
 19 30  1  0
 20 21  1  0
 19 20  1  6
 21 29  1  0
 22 23  1  0
 22 21  2  0
 23 24  1  0
 24 29  2  0
 24 25  1  0
 25 26  2  0
 26 27  1  0
 28 27  2  0
 29 28  1  0
 30 31  2  0
 30 32  1  0
M  END
$$$$
