QMW.pdb
     RDKit          3D

 32 33  0  0  1  0  0  0  0  0999 V2000
   23.7454  -27.3433  -15.0941 N   0  0  0  0  0  0  0  0  0  0  0  0
   23.6224  -27.9766  -16.3686 C   0  0  0  0  0  0  0  0  0  0  0  0
   23.5338  -29.1966  -16.5434 O   0  0  0  0  0  0  0  0  0  0  0  0
   23.6031  -27.0640  -17.5574 C   0  0  0  0  0  0  0  0  0  0  0  0
   23.5548  -25.6394  -17.1190 C   0  0  0  0  0  0  0  0  0  0  0  0
   24.5420  -24.7361  -17.7967 C   0  0  2  0  0  0  0  0  0  0  0  0
   25.3798  -25.4964  -18.7263 N   0  0  0  0  0  0  0  0  0  0  0  0
   25.3682  -23.9751  -16.8410 C   0  0  0  0  0  0  0  0  0  0  0  0
   26.3413  -24.5440  -16.2917 O   0  0  0  0  0  0  0  0  0  0  0  0
   29.0316  -18.4136  -13.6257 C   0  0  0  0  0  0  0  0  0  0  0  0
   27.7591  -19.5939  -14.1078 S   0  0  0  0  0  0  0  0  0  0  0  0
   27.7076  -19.8913  -15.8618 C   0  0  0  0  0  0  0  0  0  0  0  0
   26.5895  -20.7070  -16.3895 C   0  0  0  0  0  0  0  0  0  0  0  0
   26.1288  -21.9120  -15.6632 C   0  0  2  0  0  0  0  0  0  0  0  0
   25.1243  -22.6243  -16.5031 N   0  0  0  0  0  0  0  0  0  0  0  0
   25.5481  -21.6231  -14.3525 C   0  0  0  0  0  0  0  0  0  0  0  0
   24.5125  -20.9687  -14.2130 O   0  0  0  0  0  0  0  0  0  0  0  0
   26.1890  -22.1089  -13.1536 N   0  0  0  0  0  0  0  0  0  0  0  0
   25.6989  -21.7317  -11.8211 C   0  0  1  0  0  0  0  0  0  0  0  0
   26.9296  -21.6347  -10.9702 C   0  0  0  0  0  0  0  0  0  0  0  0
   26.7808  -20.9012   -9.7262 C   0  0  0  0  0  0  0  0  0  0  0  0
   25.5463  -20.4891   -9.2223 C   0  0  0  0  0  0  0  0  0  0  0  0
   25.7796  -19.8198   -8.0939 N   0  0  0  0  0  0  0  0  0  0  0  0
   27.1044  -19.7799   -7.8431 C   0  0  0  0  0  0  0  0  0  0  0  0
   27.8650  -19.2414   -6.8274 C   0  0  0  0  0  0  0  0  0  0  0  0
   29.2300  -19.3721   -6.8216 C   0  0  0  0  0  0  0  0  0  0  0  0
   29.8652  -20.0420   -7.8277 C   0  0  0  0  0  0  0  0  0  0  0  0
   29.1156  -20.5783   -8.8393 C   0  0  0  0  0  0  0  0  0  0  0  0
   27.7525  -20.4647   -8.8745 C   0  0  0  0  0  0  0  0  0  0  0  0
   24.8880  -20.5231  -11.8799 C   0  0  0  0  0  0  0  0  0  0  0  0
   25.3377  -19.5348  -12.5450 O   0  0  0  0  0  0  0  0  0  0  0  0
   23.6622  -20.3276  -11.2884 O   0  0  0  0  0  0  0  0  0  0  0  0
  2  1  1  0
  3  2  2  0
  4  2  1  0
  5  4  1  0
  6  5  1  0
  6  7  1  1
  8  9  2  0
  8  6  1  0
 10 11  1  0
 12 11  1  0
 12 13  1  0
 14 13  1  6
 14 16  1  0
 14 15  1  0
 15  8  1  0
 16 18  1  0
 17 16  2  0
 18 19  1  0
 19 30  1  0
 20 21  1  0
 19 20  1  1
 21 29  1  0
 22 23  1  0
 22 21  2  0
 23 24  1  0
 24 29  2  0
 24 25  1  0
 25 26  2  0
 26 27  1  0
 28 27  2  0
 29 28  1  0
 30 31  2  0
 30 32  1  0
M  END
$$$$
