QMW.pdb
     RDKit          3D

 32 33  0  0  1  0  0  0  0  0999 V2000
   31.8745  -21.0161  -19.5925 N   0  0  0  0  0  0  0  0  0  0  0  0
   30.6420  -20.3156  -19.4173 C   0  0  0  0  0  0  0  0  0  0  0  0
   30.5445  -19.0993  -19.2225 O   0  0  0  0  0  0  0  0  0  0  0  0
   29.3973  -21.1483  -19.4804 C   0  0  0  0  0  0  0  0  0  0  0  0
   28.6877  -21.1233  -18.1689 C   0  0  0  0  0  0  0  0  0  0  0  0
   29.1863  -22.1170  -17.1619 C   0  0  2  0  0  0  0  0  0  0  0  0
   29.2617  -23.4542  -17.7538 N   0  0  0  0  0  0  0  0  0  0  0  0
   28.3811  -22.1297  -15.9264 C   0  0  0  0  0  0  0  0  0  0  0  0
   27.3670  -22.8649  -15.8697 O   0  0  0  0  0  0  0  0  0  0  0  0
   29.6032  -20.5092   -9.3805 C   0  0  0  0  0  0  0  0  0  0  0  0
   30.6262  -21.3841  -10.5774 S   0  0  0  0  0  0  0  0  0  0  0  0
   29.7372  -21.8596  -12.0442 C   0  0  0  0  0  0  0  0  0  0  0  0
   28.5202  -21.0902  -12.3917 C   0  0  0  0  0  0  0  0  0  0  0  0
   27.7596  -21.4008  -13.6233 C   0  0  2  0  0  0  0  0  0  0  0  0
   28.6893  -21.3514  -14.7873 N   0  0  0  0  0  0  0  0  0  0  0  0
   26.6337  -20.4988  -13.8629 C   0  0  0  0  0  0  0  0  0  0  0  0
   26.3249  -20.1044  -14.9895 O   0  0  0  0  0  0  0  0  0  0  0  0
   25.8314  -20.0324  -12.7569 N   0  0  0  0  0  0  0  0  0  0  0  0
   24.3760  -20.2301  -12.7345 C   0  0  1  0  0  0  0  0  0  0  0  0
   24.1883  -21.7176  -12.7369 C   0  0  0  0  0  0  0  0  0  0  0  0
   22.8135  -22.1807  -12.6789 C   0  0  0  0  0  0  0  0  0  0  0  0
   22.0499  -22.4591  -13.8134 C   0  0  0  0  0  0  0  0  0  0  0  0
   20.8376  -22.8245  -13.3983 N   0  0  0  0  0  0  0  0  0  0  0  0
   20.7802  -22.7966  -12.0509 C   0  0  0  0  0  0  0  0  0  0  0  0
   19.7934  -23.0893  -11.1341 C   0  0  0  0  0  0  0  0  0  0  0  0
   20.0276  -22.9859   -9.7868 C   0  0  0  0  0  0  0  0  0  0  0  0
   21.2500  -22.5887   -9.3256 C   0  0  0  0  0  0  0  0  0  0  0  0
   22.2336  -22.2961  -10.2309 C   0  0  0  0  0  0  0  0  0  0  0  0
   22.0315  -22.3887  -11.5811 C   0  0  0  0  0  0  0  0  0  0  0  0
   23.7655  -19.5292  -11.6131 C   0  0  0  0  0  0  0  0  0  0  0  0
   24.3265  -19.6233  -10.4739 O   0  0  0  0  0  0  0  0  0  0  0  0
   22.6286  -18.7565  -11.6489 O   0  0  0  0  0  0  0  0  0  0  0  0
  2  1  1  0
  3  2  2  0
  4  2  1  0
  5  4  1  0
  6  5  1  0
  6  7  1  6
  8  9  2  0
  8  6  1  0
 10 11  1  0
 12 11  1  0
 12 13  1  0
 14 13  1  1
 14 16  1  0
 14 15  1  0
 15  8  1  0
 16 18  1  0
 17 16  2  0
 18 19  1  0
 19 30  1  0
 20 21  1  0
 19 20  1  1
 21 29  1  0
 22 23  1  0
 22 21  2  0
 23 24  1  0
 24 29  2  0
 24 25  1  0
 25 26  2  0
 26 27  1  0
 28 27  2  0
 29 28  1  0
 30 31  2  0
 30 32  1  0
M  END
$$$$
