APV.pdb
     RDKit          3D

 20 20  0  0  1  0  0  0  0  0999 V2000
   10.9330  -17.5078   21.1998 C   0  0  0  0  0  0  0  0  0  0  0  0
    9.5076  -17.5511   20.6352 C   0  0  2  0  0  0  0  0  0  0  0  0
    9.5034  -17.0284   19.2946 N   0  0  0  0  0  0  0  0  0  0  0  0
    8.6560  -16.8188   21.5864 C   0  0  0  0  0  0  0  0  0  0  0  0
    8.4641  -15.5912   21.3351 O   0  0  0  0  0  0  0  0  0  0  0  0
    8.0571  -17.3765   22.7241 N   0  0  0  0  0  0  0  0  0  0  0  0
    8.2544  -18.7139   23.2181 C   0  0  0  0  0  0  0  0  0  0  0  0
    7.6207  -18.7011   24.5807 C   0  0  0  0  0  0  0  0  0  0  0  0
    6.4269  -17.7970   24.3730 C   0  0  0  0  0  0  0  0  0  0  0  0
    7.1261  -16.6672   23.5965 C   0  0  1  0  0  0  0  0  0  0  0  0
    7.8113  -15.8393   24.5883 C   0  0  0  0  0  0  0  0  0  0  0  0
    9.0198  -16.0514   24.9014 O   0  0  0  0  0  0  0  0  0  0  0  0
    6.8236  -11.8072   25.1843 C   0  0  0  0  0  0  0  0  0  0  0  0
    7.2362  -12.5445   26.4422 C   0  0  1  0  0  0  0  0  0  0  0  0
    5.9695  -12.8407   27.2218 C   0  0  0  0  0  0  0  0  0  0  0  0
    7.8958  -13.8064   26.0962 C   0  0  2  0  0  0  0  0  0  0  0  0
    7.2403  -14.7513   25.2887 N   0  0  0  0  0  0  0  0  0  0  0  0
    8.3491  -14.4659   27.3458 C   0  0  0  0  0  0  0  0  0  0  0  0
    9.2169  -13.8914   28.0452 O   0  0  0  0  0  0  0  0  0  0  0  0
    7.8844  -15.6803   27.8065 O   0  0  0  0  0  0  0  0  0  0  0  0
  2  4  1  0
  2  1  1  1
  3  2  1  0
  4  5  2  0
  6  4  1  0
  6 10  1  0
  7  6  1  0
  7  8  1  0
  8  9  1  0
 10 11  1  1
 10  9  1  0
 11 12  2  0
 11 17  1  0
 14 13  1  6
 14 15  1  0
 14 16  1  0
 16 18  1  0
 16 17  1  1
 18 19  2  0
 18 20  1  0
M  END
$$$$
