APV.pdb
     RDKit          3D

 20 20  0  0  1  0  0  0  0  0999 V2000
    8.0595  -18.6847   21.3769 C   0  0  0  0  0  0  0  0  0  0  0  0
    9.0757  -17.7502   20.7089 C   0  0  2  0  0  0  0  0  0  0  0  0
   10.3190  -18.4482   20.5156 N   0  0  0  0  0  0  0  0  0  0  0  0
    9.1660  -16.5512   21.5578 C   0  0  0  0  0  0  0  0  0  0  0  0
   10.0019  -16.6012   22.5094 O   0  0  0  0  0  0  0  0  0  0  0  0
    8.4071  -15.3855   21.3866 N   0  0  0  0  0  0  0  0  0  0  0  0
    7.3694  -15.1839   20.4098 C   0  0  0  0  0  0  0  0  0  0  0  0
    6.7068  -13.9036   20.8343 C   0  0  0  0  0  0  0  0  0  0  0  0
    7.8740  -13.0904   21.3462 C   0  0  0  0  0  0  0  0  0  0  0  0
    8.5586  -14.1781   22.1928 C   0  0  1  0  0  0  0  0  0  0  0  0
    7.8217  -14.2529   23.4537 C   0  0  0  0  0  0  0  0  0  0  0  0
    6.7955  -14.9849   23.5743 O   0  0  0  0  0  0  0  0  0  0  0  0
    7.5202  -13.6583   28.3567 C   0  0  0  0  0  0  0  0  0  0  0  0
    8.3364  -13.3633   27.1147 C   0  0  1  0  0  0  0  0  0  0  0  0
    9.5761  -14.2347   27.1778 C   0  0  0  0  0  0  0  0  0  0  0  0
    7.5698  -13.7015   25.9127 C   0  0  2  0  0  0  0  0  0  0  0  0
    8.1449  -13.5526   24.6393 N   0  0  0  0  0  0  0  0  0  0  0  0
    6.2774  -12.9733   25.9505 C   0  0  0  0  0  0  0  0  0  0  0  0
    6.1501  -11.9427   25.2477 O   0  0  0  0  0  0  0  0  0  0  0  0
    5.1874  -13.3460   26.7094 O   0  0  0  0  0  0  0  0  0  0  0  0
  2  4  1  0
  2  1  1  1
  3  2  1  0
  4  5  2  0
  6  4  1  0
  6 10  1  0
  7  6  1  0
  7  8  1  0
  8  9  1  0
 10 11  1  1
 10  9  1  0
 11 12  2  0
 11 17  1  0
 14 13  1  1
 14 15  1  0
 14 16  1  0
 16 18  1  0
 16 17  1  6
 18 19  2  0
 18 20  1  0
M  END
$$$$
