APV.pdb
     RDKit          3D

 20 20  0  0  1  0  0  0  0  0999 V2000
    6.8106  -17.4945   17.6916 C   0  0  0  0  0  0  0  0  0  0  0  0
    7.8785  -16.5381   17.1467 C   0  0  2  0  0  0  0  0  0  0  0  0
    8.6389  -17.1984   16.1191 N   0  0  0  0  0  0  0  0  0  0  0  0
    8.6672  -16.0848   18.3038 C   0  0  0  0  0  0  0  0  0  0  0  0
    9.7282  -16.7345   18.5467 O   0  0  0  0  0  0  0  0  0  0  0  0
    8.3304  -15.0074   19.1344 N   0  0  0  0  0  0  0  0  0  0  0  0
    7.1197  -14.2317   19.0697 C   0  0  0  0  0  0  0  0  0  0  0  0
    7.1389  -13.4122   20.3293 C   0  0  0  0  0  0  0  0  0  0  0  0
    8.6093  -13.0987   20.4880 C   0  0  0  0  0  0  0  0  0  0  0  0
    9.1752  -14.5031   20.2128 C   0  0  1  0  0  0  0  0  0  0  0  0
    9.0173  -15.2678   21.4493 C   0  0  0  0  0  0  0  0  0  0  0  0
    7.8869  -15.7091   21.8110 O   0  0  0  0  0  0  0  0  0  0  0  0
   11.4387  -18.2462   22.2031 C   0  0  0  0  0  0  0  0  0  0  0  0
   11.1964  -17.4912   23.4943 C   0  0  1  0  0  0  0  0  0  0  0  0
   12.4428  -16.6738   23.7742 C   0  0  0  0  0  0  0  0  0  0  0  0
   10.0511  -16.5893   23.3463 C   0  0  2  0  0  0  0  0  0  0  0  0
   10.0548  -15.5953   22.3531 N   0  0  0  0  0  0  0  0  0  0  0  0
    9.7648  -15.9622   24.6604 C   0  0  0  0  0  0  0  0  0  0  0  0
    9.9133  -14.7226   24.7774 O   0  0  0  0  0  0  0  0  0  0  0  0
    9.3414  -16.6455   25.7815 O   0  0  0  0  0  0  0  0  0  0  0  0
  2  4  1  0
  2  1  1  1
  3  2  1  0
  4  5  2  0
  6  4  1  0
  6 10  1  0
  7  6  1  0
  7  8  1  0
  8  9  1  0
 10 11  1  1
 10  9  1  0
 11 12  2  0
 11 17  1  0
 14 13  1  6
 14 15  1  0
 14 16  1  0
 16 18  1  0
 16 17  1  6
 18 19  2  0
 18 20  1  0
M  END
$$$$
