APV.pdb
     RDKit          3D

 20 20  0  0  1  0  0  0  0  0999 V2000
    7.3758  -19.0140   22.4263 C   0  0  0  0  0  0  0  0  0  0  0  0
    6.8658  -17.7155   21.7893 C   0  0  2  0  0  0  0  0  0  0  0  0
    6.5640  -17.9448   20.4013 N   0  0  0  0  0  0  0  0  0  0  0  0
    7.8951  -16.6929   22.0368 C   0  0  0  0  0  0  0  0  0  0  0  0
    8.9736  -17.1008   22.5634 O   0  0  0  0  0  0  0  0  0  0  0  0
    7.7644  -15.3305   21.7350 N   0  0  0  0  0  0  0  0  0  0  0  0
    6.5868  -14.6849   21.2173 C   0  0  0  0  0  0  0  0  0  0  0  0
    6.8858  -13.2174   21.3415 C   0  0  0  0  0  0  0  0  0  0  0  0
    8.3651  -13.1623   21.0343 C   0  0  0  0  0  0  0  0  0  0  0  0
    8.8256  -14.3432   21.9071 C   0  0  1  0  0  0  0  0  0  0  0  0
    8.9057  -13.8435   23.2791 C   0  0  0  0  0  0  0  0  0  0  0  0
    9.2221  -12.6423   23.5251 O   0  0  0  0  0  0  0  0  0  0  0  0
    7.7462  -11.9345   25.2453 C   0  0  0  0  0  0  0  0  0  0  0  0
    7.6832  -13.1142   26.1942 C   0  0  1  0  0  0  0  0  0  0  0  0
    6.2740  -13.6702   26.1223 C   0  0  0  0  0  0  0  0  0  0  0  0
    8.6323  -14.1501   25.7781 C   0  0  2  0  0  0  0  0  0  0  0  0
    8.6528  -14.6000   24.4471 N   0  0  0  0  0  0  0  0  0  0  0  0
    8.4918  -15.3172   26.6837 C   0  0  0  0  0  0  0  0  0  0  0  0
    8.1613  -16.4215   26.1902 O   0  0  0  0  0  0  0  0  0  0  0  0
    8.6993  -15.2835   28.0470 O   0  0  0  0  0  0  0  0  0  0  0  0
  2  4  1  0
  2  1  1  6
  3  2  1  0
  4  5  2  0
  6  4  1  0
  6 10  1  0
  7  6  1  0
  7  8  1  0
  8  9  1  0
 10 11  1  1
 10  9  1  0
 11 12  2  0
 11 17  1  0
 14 13  1  6
 14 15  1  0
 14 16  1  0
 16 18  1  0
 16 17  1  6
 18 19  2  0
 18 20  1  0
M  END
$$$$
