APV.pdb
     RDKit          3D

 20 20  0  0  1  0  0  0  0  0999 V2000
    5.5499  -17.8798   22.5360 C   0  0  0  0  0  0  0  0  0  0  0  0
    6.5867  -17.7087   21.4189 C   0  0  2  0  0  0  0  0  0  0  0  0
    7.1003  -18.9970   21.0355 N   0  0  0  0  0  0  0  0  0  0  0  0
    7.5979  -16.7661   21.9242 C   0  0  0  0  0  0  0  0  0  0  0  0
    8.4702  -17.2482   22.7074 O   0  0  0  0  0  0  0  0  0  0  0  0
    7.6585  -15.4032   21.6031 N   0  0  0  0  0  0  0  0  0  0  0  0
    6.8957  -14.7372   20.5803 C   0  0  0  0  0  0  0  0  0  0  0  0
    7.1261  -13.2753   20.8412 C   0  0  0  0  0  0  0  0  0  0  0  0
    8.5685  -13.2516   21.2937 C   0  0  0  0  0  0  0  0  0  0  0  0
    8.5214  -14.4363   22.2749 C   0  0  1  0  0  0  0  0  0  0  0  0
    7.9332  -13.9301   23.5144 C   0  0  0  0  0  0  0  0  0  0  0  0
    7.0889  -12.9864   23.5054 O   0  0  0  0  0  0  0  0  0  0  0  0
    6.9088  -11.7630   25.5597 C   0  0  0  0  0  0  0  0  0  0  0  0
    7.2955  -12.8576   26.5334 C   0  0  1  0  0  0  0  0  0  0  0  0
    6.0793  -13.7459   26.7125 C   0  0  0  0  0  0  0  0  0  0  0  0
    8.3983  -13.6538   25.9885 C   0  0  2  0  0  0  0  0  0  0  0  0
    8.2180  -14.4061   24.8155 N   0  0  0  0  0  0  0  0  0  0  0  0
    8.9214  -14.5393   27.0582 C   0  0  0  0  0  0  0  0  0  0  0  0
    9.0042  -15.7695   26.8301 O   0  0  0  0  0  0  0  0  0  0  0  0
    9.3305  -14.1098   28.3037 O   0  0  0  0  0  0  0  0  0  0  0  0
  2  4  1  0
  2  1  1  1
  3  2  1  0
  4  5  2  0
  6  4  1  0
  6 10  1  0
  7  6  1  0
  7  8  1  0
  8  9  1  0
 10 11  1  1
 10  9  1  0
 11 12  2  0
 11 17  1  0
 14 13  1  6
 14 15  1  0
 14 16  1  0
 16 18  1  0
 16 17  1  6
 18 19  2  0
 18 20  1  0
M  END
$$$$
