APV.pdb
     RDKit          3D

 20 20  0  0  1  0  0  0  0  0999 V2000
    7.0839  -16.0962   21.9171 C   0  0  0  0  0  0  0  0  0  0  0  0
    7.5854  -14.6666   21.6790 C   0  0  2  0  0  0  0  0  0  0  0  0
    8.4237  -14.6376   20.5099 N   0  0  0  0  0  0  0  0  0  0  0  0
    8.2457  -14.2397   22.9232 C   0  0  0  0  0  0  0  0  0  0  0  0
    9.5121  -14.2934   22.9314 O   0  0  0  0  0  0  0  0  0  0  0  0
    7.5819  -13.7877   24.0718 N   0  0  0  0  0  0  0  0  0  0  0  0
    6.1584  -13.6438   24.2284 C   0  0  0  0  0  0  0  0  0  0  0  0
    5.9714  -13.4050   25.7002 C   0  0  0  0  0  0  0  0  0  0  0  0
    7.1812  -12.5675   26.0477 C   0  0  0  0  0  0  0  0  0  0  0  0
    8.2507  -13.3896   25.3068 C   0  0  1  0  0  0  0  0  0  0  0  0
    8.5679  -14.5321   26.1628 C   0  0  0  0  0  0  0  0  0  0  0  0
    8.2261  -15.7089   25.8439 O   0  0  0  0  0  0  0  0  0  0  0  0
   11.5014  -13.5751   29.0226 C   0  0  0  0  0  0  0  0  0  0  0  0
   11.0164  -15.0096   29.0764 C   0  0  1  0  0  0  0  0  0  0  0  0
   10.0977  -15.1255   30.2775 C   0  0  0  0  0  0  0  0  0  0  0  0
   10.2655  -15.3363   27.8614 C   0  0  2  0  0  0  0  0  0  0  0  0
    9.2619  -14.4711   27.3937 N   0  0  0  0  0  0  0  0  0  0  0  0
    9.7033  -16.7025   28.0009 C   0  0  0  0  0  0  0  0  0  0  0  0
   10.4875  -17.6800   27.9578 O   0  0  0  0  0  0  0  0  0  0  0  0
    8.3651  -16.9873   28.1773 O   0  0  0  0  0  0  0  0  0  0  0  0
  2  4  1  0
  2  1  1  1
  3  2  1  0
  4  5  2  0
  6  4  1  0
  6 10  1  0
  7  6  1  0
  7  8  1  0
  8  9  1  0
 10 11  1  1
 10  9  1  0
 11 12  2  0
 11 17  1  0
 14 13  1  6
 14 15  1  0
 14 16  1  0
 16 18  1  0
 16 17  1  1
 18 19  2  0
 18 20  1  0
M  END
$$$$
