APV.pdb
     RDKit          3D

 20 20  0  0  1  0  0  0  0  0999 V2000
    6.8534  -17.6081   17.6691 C   0  0  0  0  0  0  0  0  0  0  0  0
    7.8042  -16.5504   17.0951 C   0  0  2  0  0  0  0  0  0  0  0  0
    8.5098  -17.0971   15.9666 N   0  0  0  0  0  0  0  0  0  0  0  0
    8.6632  -16.1096   18.2061 C   0  0  0  0  0  0  0  0  0  0  0  0
    9.7752  -16.7064   18.3242 O   0  0  0  0  0  0  0  0  0  0  0  0
    8.3402  -15.0970   19.1195 N   0  0  0  0  0  0  0  0  0  0  0  0
    7.0858  -14.3962   19.2016 C   0  0  0  0  0  0  0  0  0  0  0  0
    7.1700  -13.6394   20.4972 C   0  0  0  0  0  0  0  0  0  0  0  0
    8.6281  -13.2427   20.5451 C   0  0  0  0  0  0  0  0  0  0  0  0
    9.2475  -14.5941   20.1466 C   0  0  1  0  0  0  0  0  0  0  0  0
    9.2454  -15.4264   21.3490 C   0  0  0  0  0  0  0  0  0  0  0  0
    8.1984  -16.0265   21.7328 O   0  0  0  0  0  0  0  0  0  0  0  0
   12.2116  -17.9569   21.7884 C   0  0  0  0  0  0  0  0  0  0  0  0
   11.8459  -17.4059   23.1517 C   0  0  1  0  0  0  0  0  0  0  0  0
   12.9227  -16.4086   23.5336 C   0  0  0  0  0  0  0  0  0  0  0  0
   10.5528  -16.7196   23.0903 C   0  0  2  0  0  0  0  0  0  0  0  0
   10.3563  -15.6556   22.1938 N   0  0  0  0  0  0  0  0  0  0  0  0
   10.1816  -16.2782   24.4575 C   0  0  0  0  0  0  0  0  0  0  0  0
   10.0848  -15.0487   24.6841 O   0  0  0  0  0  0  0  0  0  0  0  0
    9.9305  -17.1264   25.5160 O   0  0  0  0  0  0  0  0  0  0  0  0
  2  4  1  0
  2  1  1  1
  3  2  1  0
  4  5  2  0
  6  4  1  0
  6 10  1  0
  7  6  1  0
  7  8  1  0
  8  9  1  0
 10 11  1  1
 10  9  1  0
 11 12  2  0
 11 17  1  0
 14 13  1  6
 14 15  1  0
 14 16  1  0
 16 18  1  0
 16 17  1  6
 18 19  2  0
 18 20  1  0
M  END
$$$$
