APV.pdb
     RDKit          3D

 20 20  0  0  1  0  0  0  0  0999 V2000
    6.9222  -17.5907   17.7234 C   0  0  0  0  0  0  0  0  0  0  0  0
    7.8194  -16.5011   17.1235 C   0  0  2  0  0  0  0  0  0  0  0  0
    8.5482  -17.0377   16.0050 N   0  0  0  0  0  0  0  0  0  0  0  0
    8.6582  -15.9949   18.2219 C   0  0  0  0  0  0  0  0  0  0  0  0
    9.7985  -16.5338   18.3490 O   0  0  0  0  0  0  0  0  0  0  0  0
    8.2880  -14.9800   19.1147 N   0  0  0  0  0  0  0  0  0  0  0  0
    7.0204  -14.2991   19.1477 C   0  0  0  0  0  0  0  0  0  0  0  0
    7.0482  -13.5301   20.4385 C   0  0  0  0  0  0  0  0  0  0  0  0
    8.4973  -13.1093   20.5325 C   0  0  0  0  0  0  0  0  0  0  0  0
    9.1514  -14.4537   20.1675 C   0  0  1  0  0  0  0  0  0  0  0  0
    9.1216  -15.2757   21.3766 C   0  0  0  0  0  0  0  0  0  0  0  0
    8.0745  -15.8966   21.7252 O   0  0  0  0  0  0  0  0  0  0  0  0
   12.8058  -16.1612   23.6475 C   0  0  0  0  0  0  0  0  0  0  0  0
   11.8207  -17.1730   23.0981 C   0  0  1  0  0  0  0  0  0  0  0  0
   11.8308  -18.3624   24.0390 C   0  0  0  0  0  0  0  0  0  0  0  0
   10.4730  -16.5990   23.0608 C   0  0  2  0  0  0  0  0  0  0  0  0
   10.2038  -15.4720   22.2658 N   0  0  0  0  0  0  0  0  0  0  0  0
   10.0304  -16.3299   24.4513 C   0  0  0  0  0  0  0  0  0  0  0  0
    9.9954  -15.1413   24.8491 O   0  0  0  0  0  0  0  0  0  0  0  0
    9.6482  -17.2989   25.3557 O   0  0  0  0  0  0  0  0  0  0  0  0
  2  4  1  0
  2  1  1  1
  3  2  1  0
  4  5  2  0
  6  4  1  0
  6 10  1  0
  7  6  1  0
  7  8  1  0
  8  9  1  0
 10 11  1  1
 10  9  1  0
 11 12  2  0
 11 17  1  0
 14 13  1  1
 14 15  1  0
 14 16  1  0
 16 18  1  0
 16 17  1  6
 18 19  2  0
 18 20  1  0
M  END
$$$$
