VKM.pdb
     RDKit          3D

 25 24  0  0  1  0  0  0  0  0999 V2000
    8.4091  -12.5123   18.1268 C   0  0  0  0  0  0  0  0  0  0  0  0
    8.5415  -13.2820   19.3890 C   0  0  1  0  0  0  0  0  0  0  0  0
    7.5175  -12.8395   20.4154 C   0  0  0  0  0  0  0  0  0  0  0  0
    8.5116  -14.7530   19.1469 C   0  0  2  0  0  0  0  0  0  0  0  0
    7.2037  -15.0329   18.5171 N   0  0  0  0  0  0  0  0  0  0  0  0
    8.5202  -15.5029   20.4242 C   0  0  0  0  0  0  0  0  0  0  0  0
    7.4408  -15.6242   21.1128 O   0  0  0  0  0  0  0  0  0  0  0  0
    9.6622  -16.1356   20.9908 N   0  0  0  0  0  0  0  0  0  0  0  0
    9.5706  -16.8634   22.2649 C   0  0  1  0  0  0  0  0  0  0  0  0
   10.3561  -18.1643   22.1124 C   0  0  0  0  0  0  0  0  0  0  0  0
    9.5967  -19.2020   21.3674 C   0  0  0  0  0  0  0  0  0  0  0  0
   10.4524  -20.4213   21.1762 C   0  0  0  0  0  0  0  0  0  0  0  0
    9.7183  -21.5293   20.5046 C   0  0  0  0  0  0  0  0  0  0  0  0
   10.5125  -22.7534   20.4516 N   0  0  0  0  0  0  0  0  0  0  0  0
   10.0744  -16.0477   23.3872 C   0  0  0  0  0  0  0  0  0  0  0  0
   10.6478  -14.9632   23.1311 O   0  0  0  0  0  0  0  0  0  0  0  0
    5.9889  -12.0770   27.9926 C   0  0  0  0  0  0  0  0  0  0  0  0
    6.3425  -13.1726   26.5910 S   0  0  0  0  0  0  0  0  0  0  0  0
    7.9117  -14.0451   26.8533 C   0  0  0  0  0  0  0  0  0  0  0  0
    8.2421  -14.8972   25.6485 C   0  0  0  0  0  0  0  0  0  0  0  0
    9.5945  -15.5405   25.8220 C   0  0  2  0  0  0  0  0  0  0  0  0
    9.9539  -16.4084   24.7450 N   0  0  0  0  0  0  0  0  0  0  0  0
    9.6880  -16.1950   27.1470 C   0  0  0  0  0  0  0  0  0  0  0  0
   10.1148  -15.5162   28.1106 O   0  0  0  0  0  0  0  0  0  0  0  0
    9.3341  -17.5080   27.3885 O   0  0  0  0  0  0  0  0  0  0  0  0
  2  1  1  6
  2  3  1  0
  4  6  1  0
  4  2  1  0
  4  5  1  1
  6  8  1  0
  7  6  2  0
  8  9  1  0
  9 10  1  6
 11 10  1  0
 11 12  1  0
 12 13  1  0
 13 14  1  0
 15  9  1  0
 16 15  2  0
 17 18  1  0
 18 19  1  0
 19 20  1  0
 21 20  1  6
 21 22  1  0
 22 15  1  0
 23 21  1  0
 23 25  1  0
 24 23  2  0
M  END
$$$$
