VKM.pdb
     RDKit          3D

 25 24  0  0  1  0  0  0  0  0999 V2000
    8.4744  -12.6780   20.6266 C   0  0  0  0  0  0  0  0  0  0  0  0
    7.7221  -13.4433   19.6011 C   0  0  1  0  0  0  0  0  0  0  0  0
    7.3766  -12.5750   18.4076 C   0  0  0  0  0  0  0  0  0  0  0  0
    8.4321  -14.6956   19.2125 C   0  0  2  0  0  0  0  0  0  0  0  0
    7.5488  -15.3771   18.2427 N   0  0  0  0  0  0  0  0  0  0  0  0
    8.5600  -15.6150   20.3668 C   0  0  0  0  0  0  0  0  0  0  0  0
    7.5155  -16.1642   20.8779 O   0  0  0  0  0  0  0  0  0  0  0  0
    9.7869  -15.9694   20.9951 N   0  0  0  0  0  0  0  0  0  0  0  0
    9.8078  -16.8463   22.1750 C   0  0  1  0  0  0  0  0  0  0  0  0
   10.9906  -17.8005   22.0216 C   0  0  0  0  0  0  0  0  0  0  0  0
   10.7697  -18.8116   20.9552 C   0  0  0  0  0  0  0  0  0  0  0  0
   10.2076  -20.0692   21.5533 C   0  0  0  0  0  0  0  0  0  0  0  0
    9.9821  -21.1305   20.5332 C   0  0  0  0  0  0  0  0  0  0  0  0
    9.2342  -22.2591   21.0798 N   0  0  0  0  0  0  0  0  0  0  0  0
    9.8930  -16.0647   23.4241 C   0  0  0  0  0  0  0  0  0  0  0  0
   10.5908  -15.0237   23.4345 O   0  0  0  0  0  0  0  0  0  0  0  0
    6.6578  -11.0631   27.4999 C   0  0  0  0  0  0  0  0  0  0  0  0
    7.1011  -12.1213   26.0950 S   0  0  0  0  0  0  0  0  0  0  0  0
    7.4082  -13.8190   26.6570 C   0  0  0  0  0  0  0  0  0  0  0  0
    7.6710  -14.7208   25.4719 C   0  0  0  0  0  0  0  0  0  0  0  0
    8.9224  -15.5295   25.7017 C   0  0  2  0  0  0  0  0  0  0  0  0
    9.2355  -16.4121   24.6221 N   0  0  0  0  0  0  0  0  0  0  0  0
    8.8579  -16.2186   27.0108 C   0  0  0  0  0  0  0  0  0  0  0  0
    8.7088  -15.5172   28.0390 O   0  0  0  0  0  0  0  0  0  0  0  0
    8.9519  -17.5872   27.1706 O   0  0  0  0  0  0  0  0  0  0  0  0
  2  1  1  1
  2  3  1  0
  4  6  1  0
  4  2  1  0
  4  5  1  6
  6  8  1  0
  7  6  2  0
  8  9  1  0
  9 10  1  6
 11 10  1  0
 11 12  1  0
 12 13  1  0
 13 14  1  0
 15  9  1  0
 16 15  2  0
 17 18  1  0
 18 19  1  0
 19 20  1  0
 21 20  1  6
 21 22  1  0
 22 15  1  0
 23 21  1  0
 23 25  1  0
 24 23  2  0
M  END
$$$$
