VKM.pdb
     RDKit          3D

 25 24  0  0  1  0  0  0  0  0999 V2000
    8.3684  -12.6187   18.2868 C   0  0  0  0  0  0  0  0  0  0  0  0
    8.4767  -13.4009   19.5436 C   0  0  1  0  0  0  0  0  0  0  0  0
    7.4152  -12.9881   20.5440 C   0  0  0  0  0  0  0  0  0  0  0  0
    8.4795  -14.8692   19.2841 C   0  0  2  0  0  0  0  0  0  0  0  0
    7.1571  -15.1796   18.7009 N   0  0  0  0  0  0  0  0  0  0  0  0
    8.5585  -15.6334   20.5505 C   0  0  0  0  0  0  0  0  0  0  0  0
    7.5247  -15.7437   21.3074 O   0  0  0  0  0  0  0  0  0  0  0  0
    9.7237  -16.2921   21.0344 N   0  0  0  0  0  0  0  0  0  0  0  0
    9.7107  -17.0082   22.3183 C   0  0  1  0  0  0  0  0  0  0  0  0
   10.8090  -18.0684   22.2680 C   0  0  0  0  0  0  0  0  0  0  0  0
   10.9099  -18.8417   23.5331 C   0  0  0  0  0  0  0  0  0  0  0  0
   10.2049  -20.1592   23.3830 C   0  0  0  0  0  0  0  0  0  0  0  0
   10.2055  -20.9494   24.6453 C   0  0  0  0  0  0  0  0  0  0  0  0
    9.5904  -22.2613   24.4652 N   0  0  0  0  0  0  0  0  0  0  0  0
    9.8953  -16.0817   23.4523 C   0  0  0  0  0  0  0  0  0  0  0  0
   10.8147  -15.2323   23.3901 O   0  0  0  0  0  0  0  0  0  0  0  0
    5.6272  -12.4012   26.5362 C   0  0  0  0  0  0  0  0  0  0  0  0
    7.2930  -11.8773   27.0268 S   0  0  0  0  0  0  0  0  0  0  0  0
    8.4168  -13.3014   27.0620 C   0  0  0  0  0  0  0  0  0  0  0  0
    8.1525  -14.2033   25.8772 C   0  0  0  0  0  0  0  0  0  0  0  0
    9.2516  -15.2272   25.7483 C   0  0  2  0  0  0  0  0  0  0  0  0
    9.0990  -16.0857   24.6160 N   0  0  0  0  0  0  0  0  0  0  0  0
    9.4157  -15.9703   27.0185 C   0  0  0  0  0  0  0  0  0  0  0  0
    8.8197  -17.0663   27.1411 O   0  0  0  0  0  0  0  0  0  0  0  0
   10.1849  -15.5313   28.0783 O   0  0  0  0  0  0  0  0  0  0  0  0
  2  1  1  6
  2  3  1  0
  4  6  1  0
  4  2  1  0
  4  5  1  1
  6  8  1  0
  7  6  2  0
  8  9  1  0
  9 10  1  6
 11 10  1  0
 11 12  1  0
 12 13  1  0
 13 14  1  0
 15  9  1  0
 16 15  2  0
 17 18  1  0
 18 19  1  0
 19 20  1  0
 21 20  1  1
 21 22  1  0
 22 15  1  0
 23 21  1  0
 23 25  1  0
 24 23  2  0
M  END
$$$$
