VKM.pdb
     RDKit          3D

 25 24  0  0  1  0  0  0  0  0999 V2000
    7.6385  -12.4167   20.8385 C   0  0  0  0  0  0  0  0  0  0  0  0
    7.8118  -13.4654   19.8024 C   0  0  1  0  0  0  0  0  0  0  0  0
    8.0292  -12.8564   18.4314 C   0  0  0  0  0  0  0  0  0  0  0  0
    8.8784  -14.4394   20.1726 C   0  0  2  0  0  0  0  0  0  0  0  0
    8.8651  -15.4744   19.1172 N   0  0  0  0  0  0  0  0  0  0  0  0
    8.5461  -15.1379   21.4358 C   0  0  0  0  0  0  0  0  0  0  0  0
    8.4578  -14.4801   22.5373 O   0  0  0  0  0  0  0  0  0  0  0  0
    8.3006  -16.5347   21.5552 N   0  0  0  0  0  0  0  0  0  0  0  0
    7.9727  -17.1376   22.8553 C   0  0  1  0  0  0  0  0  0  0  0  0
    7.7141  -18.6250   22.6238 C   0  0  0  0  0  0  0  0  0  0  0  0
    7.3650  -19.3424   23.8776 C   0  0  0  0  0  0  0  0  0  0  0  0
    7.0486  -20.7784   23.5722 C   0  0  0  0  0  0  0  0  0  0  0  0
    6.7048  -21.5555   24.7952 C   0  0  0  0  0  0  0  0  0  0  0  0
    6.4603  -22.9630   24.4936 N   0  0  0  0  0  0  0  0  0  0  0  0
    9.0514  -16.9157   23.8380 C   0  0  0  0  0  0  0  0  0  0  0  0
   10.2407  -17.0349   23.4612 O   0  0  0  0  0  0  0  0  0  0  0  0
    9.2845  -12.0979   28.2275 C   0  0  0  0  0  0  0  0  0  0  0  0
   10.0101  -13.4655   29.1724 S   0  0  0  0  0  0  0  0  0  0  0  0
   10.5194  -14.8023   28.0563 C   0  0  0  0  0  0  0  0  0  0  0  0
    9.4249  -15.0890   27.0528 C   0  0  0  0  0  0  0  0  0  0  0  0
    9.8369  -16.2183   26.1429 C   0  0  2  0  0  0  0  0  0  0  0  0
    8.8343  -16.5745   25.1888 N   0  0  0  0  0  0  0  0  0  0  0  0
   10.3141  -17.3729   26.9377 C   0  0  0  0  0  0  0  0  0  0  0  0
    9.5470  -18.3558   27.0679 O   0  0  0  0  0  0  0  0  0  0  0  0
   11.5527  -17.4354   27.5454 O   0  0  0  0  0  0  0  0  0  0  0  0
  2  1  1  1
  2  3  1  0
  4  6  1  0
  4  2  1  0
  4  5  1  6
  6  8  1  0
  7  6  2  0
  8  9  1  0
  9 10  1  6
 11 10  1  0
 11 12  1  0
 12 13  1  0
 13 14  1  0
 15  9  1  0
 16 15  2  0
 17 18  1  0
 18 19  1  0
 19 20  1  0
 21 20  1  1
 21 22  1  0
 22 15  1  0
 23 21  1  0
 23 25  1  0
 24 23  2  0
M  END
$$$$
