VKM.pdb
     RDKit          3D

 25 24  0  0  1  0  0  0  0  0999 V2000
    5.4763  -11.7453   26.9087 C   0  0  0  0  0  0  0  0  0  0  0  0
    6.4015  -12.5011   26.0278 C   0  0  1  0  0  0  0  0  0  0  0  0
    7.6972  -12.8313   26.7419 C   0  0  0  0  0  0  0  0  0  0  0  0
    5.7477  -13.7056   25.4405 C   0  0  2  0  0  0  0  0  0  0  0  0
    5.5634  -14.6526   26.5606 N   0  0  0  0  0  0  0  0  0  0  0  0
    6.6458  -14.3816   24.4759 C   0  0  0  0  0  0  0  0  0  0  0  0
    7.4232  -15.3285   24.8668 O   0  0  0  0  0  0  0  0  0  0  0  0
    6.7350  -14.0720   23.0896 N   0  0  0  0  0  0  0  0  0  0  0  0
    7.7400  -14.7177   22.2326 C   0  0  1  0  0  0  0  0  0  0  0  0
    7.6679  -14.0581   20.8570 C   0  0  0  0  0  0  0  0  0  0  0  0
    8.5838  -14.6932   19.8741 C   0  0  0  0  0  0  0  0  0  0  0  0
    8.3936  -14.0681   18.5219 C   0  0  0  0  0  0  0  0  0  0  0  0
    9.2636  -14.6873   17.4838 C   0  0  0  0  0  0  0  0  0  0  0  0
    9.1544  -13.9974   16.2016 N   0  0  0  0  0  0  0  0  0  0  0  0
    9.0909  -14.6165   22.8185 C   0  0  0  0  0  0  0  0  0  0  0  0
    9.5126  -13.4879   23.1635 O   0  0  0  0  0  0  0  0  0  0  0  0
   11.4872  -13.4858   28.3956 C   0  0  0  0  0  0  0  0  0  0  0  0
   10.8872  -15.1700   28.0901 S   0  0  0  0  0  0  0  0  0  0  0  0
   11.4605  -15.7595   26.4726 C   0  0  0  0  0  0  0  0  0  0  0  0
   10.3817  -15.5579   25.4321 C   0  0  0  0  0  0  0  0  0  0  0  0
   10.9260  -15.8478   24.0564 C   0  0  2  0  0  0  0  0  0  0  0  0
    9.9513  -15.7154   23.0197 N   0  0  0  0  0  0  0  0  0  0  0  0
   11.6127  -17.1596   24.0394 C   0  0  0  0  0  0  0  0  0  0  0  0
   10.9800  -18.1501   23.6035 O   0  0  0  0  0  0  0  0  0  0  0  0
   12.9080  -17.3609   24.4741 O   0  0  0  0  0  0  0  0  0  0  0  0
  2  1  1  1
  2  3  1  0
  4  6  1  0
  4  2  1  0
  4  5  1  1
  6  8  1  0
  7  6  2  0
  8  9  1  0
  9 10  1  6
 11 10  1  0
 11 12  1  0
 12 13  1  0
 13 14  1  0
 15  9  1  0
 16 15  2  0
 17 18  1  0
 18 19  1  0
 19 20  1  0
 21 20  1  1
 21 22  1  0
 22 15  1  0
 23 21  1  0
 23 25  1  0
 24 23  2  0
M  END
$$$$
