VKM.pdb
     RDKit          3D

 25 24  0  0  1  0  0  0  0  0999 V2000
    6.5094  -19.4881   23.9835 C   0  0  0  0  0  0  0  0  0  0  0  0
    7.1502  -20.0753   22.7803 C   0  0  1  0  0  0  0  0  0  0  0  0
    6.6907  -21.5015   22.5505 C   0  0  0  0  0  0  0  0  0  0  0  0
    6.9662  -19.2131   21.5778 C   0  0  2  0  0  0  0  0  0  0  0  0
    7.6965  -19.8854   20.4823 N   0  0  0  0  0  0  0  0  0  0  0  0
    7.6221  -17.8976   21.7607 C   0  0  0  0  0  0  0  0  0  0  0  0
    8.9036  -17.7996   21.7160 O   0  0  0  0  0  0  0  0  0  0  0  0
    6.9387  -16.6704   21.9900 N   0  0  0  0  0  0  0  0  0  0  0  0
    7.6804  -15.4217   22.2177 C   0  0  1  0  0  0  0  0  0  0  0  0
    6.9798  -14.3168   21.4295 C   0  0  0  0  0  0  0  0  0  0  0  0
    6.9702  -14.5813   19.9672 C   0  0  0  0  0  0  0  0  0  0  0  0
    7.9427  -13.6682   19.2774 C   0  0  0  0  0  0  0  0  0  0  0  0
    7.9378  -13.8475   17.7990 C   0  0  0  0  0  0  0  0  0  0  0  0
    8.8510  -12.9207   17.1364 N   0  0  0  0  0  0  0  0  0  0  0  0
    7.7631  -15.1004   23.6559 C   0  0  0  0  0  0  0  0  0  0  0  0
    6.7299  -15.2115   24.3563 O   0  0  0  0  0  0  0  0  0  0  0  0
    6.3850  -10.9481   26.7005 C   0  0  0  0  0  0  0  0  0  0  0  0
    6.6671  -12.0816   28.0881 S   0  0  0  0  0  0  0  0  0  0  0  0
    7.9597  -13.2835   27.6674 C   0  0  0  0  0  0  0  0  0  0  0  0
    7.7387  -13.8192   26.2706 C   0  0  0  0  0  0  0  0  0  0  0  0
    9.0495  -14.2575   25.6686 C   0  0  2  0  0  0  0  0  0  0  0  0
    8.9391  -14.6714   24.3052 N   0  0  0  0  0  0  0  0  0  0  0  0
    9.6986  -15.2724   26.5296 C   0  0  0  0  0  0  0  0  0  0  0  0
   10.0115  -14.9411   27.6974 O   0  0  0  0  0  0  0  0  0  0  0  0
    9.9815  -16.5628   26.1265 O   0  0  0  0  0  0  0  0  0  0  0  0
  2  1  1  1
  2  3  1  0
  4  6  1  0
  4  2  1  0
  4  5  1  6
  6  8  1  0
  7  6  2  0
  8  9  1  0
  9 10  1  6
 11 10  1  0
 11 12  1  0
 12 13  1  0
 13 14  1  0
 15  9  1  0
 16 15  2  0
 17 18  1  0
 18 19  1  0
 19 20  1  0
 21 20  1  1
 21 22  1  0
 22 15  1  0
 23 21  1  0
 23 25  1  0
 24 23  2  0
M  END
$$$$
