VKM.pdb
     RDKit          3D

 25 24  0  0  1  0  0  0  0  0999 V2000
   20.0215  -19.8726   18.3205 C   0  0  0  0  0  0  0  0  0  0  0  0
   19.5237  -19.1820   17.1046 C   0  0  1  0  0  0  0  0  0  0  0  0
   20.1524  -19.7530   15.8490 C   0  0  0  0  0  0  0  0  0  0  0  0
   18.0339  -19.1696   17.0449 C   0  0  2  0  0  0  0  0  0  0  0  0
   17.6824  -18.3201   15.8873 N   0  0  0  0  0  0  0  0  0  0  0  0
   17.4591  -18.4997   18.2344 C   0  0  0  0  0  0  0  0  0  0  0  0
   17.6363  -17.2392   18.4182 O   0  0  0  0  0  0  0  0  0  0  0  0
   16.6899  -19.1460   19.2424 N   0  0  0  0  0  0  0  0  0  0  0  0
   16.0862  -18.3798   20.3423 C   0  0  1  0  0  0  0  0  0  0  0  0
   14.7563  -19.0437   20.6936 C   0  0  0  0  0  0  0  0  0  0  0  0
   14.0636  -18.3661   21.8203 C   0  0  0  0  0  0  0  0  0  0  0  0
   12.7400  -19.0274   22.0769 C   0  0  0  0  0  0  0  0  0  0  0  0
   11.9817  -18.3699   23.1771 C   0  0  0  0  0  0  0  0  0  0  0  0
   10.6299  -18.9074   23.3019 N   0  0  0  0  0  0  0  0  0  0  0  0
   16.9888  -18.3109   21.5080 C   0  0  0  0  0  0  0  0  0  0  0  0
   17.5212  -19.3685   21.9184 O   0  0  0  0  0  0  0  0  0  0  0  0
   20.5802  -13.1311   23.1480 C   0  0  0  0  0  0  0  0  0  0  0  0
   20.5485  -13.9833   24.7488 S   0  0  0  0  0  0  0  0  0  0  0  0
   19.8213  -15.6359   24.5687 C   0  0  0  0  0  0  0  0  0  0  0  0
   18.8013  -15.6377   23.4522 C   0  0  0  0  0  0  0  0  0  0  0  0
   18.1722  -17.0018   23.3252 C   0  0  2  0  0  0  0  0  0  0  0  0
   17.2979  -17.1225   22.2012 N   0  0  0  0  0  0  0  0  0  0  0  0
   17.5308  -17.3947   24.6007 C   0  0  0  0  0  0  0  0  0  0  0  0
   16.3651  -16.9907   24.8228 O   0  0  0  0  0  0  0  0  0  0  0  0
   18.1368  -18.1792   25.5624 O   0  0  0  0  0  0  0  0  0  0  0  0
  2  1  1  1
  2  3  1  0
  4  6  1  0
  4  2  1  0
  4  5  1  6
  6  8  1  0
  7  6  2  0
  8  9  1  0
  9 10  1  1
 11 10  1  0
 11 12  1  0
 12 13  1  0
 13 14  1  0
 15  9  1  0
 16 15  2  0
 17 18  1  0
 18 19  1  0
 19 20  1  0
 21 20  1  1
 21 22  1  0
 22 15  1  0
 23 21  1  0
 23 25  1  0
 24 23  2  0
M  END
$$$$
