VKM.pdb
     RDKit          3D

 25 24  0  0  1  0  0  0  0  0999 V2000
    8.5543  -12.5812   17.8781 C   0  0  0  0  0  0  0  0  0  0  0  0
    8.5320  -13.3540   19.1452 C   0  0  1  0  0  0  0  0  0  0  0  0
    7.4092  -12.8930   20.0533 C   0  0  0  0  0  0  0  0  0  0  0  0
    8.5019  -14.8240   18.8974 C   0  0  2  0  0  0  0  0  0  0  0  0
    7.2473  -15.0844   18.1602 N   0  0  0  0  0  0  0  0  0  0  0  0
    8.3936  -15.5759   20.1690 C   0  0  0  0  0  0  0  0  0  0  0  0
    7.3164  -15.5154   20.8690 O   0  0  0  0  0  0  0  0  0  0  0  0
    9.4147  -16.4016   20.7178 N   0  0  0  0  0  0  0  0  0  0  0  0
    9.2188  -17.0990   21.9971 C   0  0  1  0  0  0  0  0  0  0  0  0
   10.1922  -18.2753   22.0369 C   0  0  0  0  0  0  0  0  0  0  0  0
   10.1116  -19.0360   23.3110 C   0  0  0  0  0  0  0  0  0  0  0  0
    9.8075  -20.4786   23.0253 C   0  0  0  0  0  0  0  0  0  0  0  0
    9.6670  -21.2853   24.2692 C   0  0  0  0  0  0  0  0  0  0  0  0
    8.2782  -21.6606   24.5192 N   0  0  0  0  0  0  0  0  0  0  0  0
    9.4140  -16.1876   23.1415 C   0  0  0  0  0  0  0  0  0  0  0  0
   10.4114  -15.4288   23.1413 O   0  0  0  0  0  0  0  0  0  0  0  0
    6.1128  -11.1258   26.4119 C   0  0  0  0  0  0  0  0  0  0  0  0
    6.0898  -12.7075   27.2994 S   0  0  0  0  0  0  0  0  0  0  0  0
    7.5980  -13.6515   26.9442 C   0  0  0  0  0  0  0  0  0  0  0  0
    7.3846  -14.5413   25.7402 C   0  0  0  0  0  0  0  0  0  0  0  0
    8.6742  -15.2264   25.3652 C   0  0  2  0  0  0  0  0  0  0  0  0
    8.5451  -16.1100   24.2494 N   0  0  0  0  0  0  0  0  0  0  0  0
    9.2757  -15.8778   26.5511 C   0  0  0  0  0  0  0  0  0  0  0  0
    9.0017  -17.0824   26.7641 O   0  0  0  0  0  0  0  0  0  0  0  0
   10.1208  -15.2410   27.4387 O   0  0  0  0  0  0  0  0  0  0  0  0
  2  1  1  6
  2  3  1  0
  4  6  1  0
  4  2  1  0
  4  5  1  6
  6  8  1  0
  7  6  2  0
  8  9  1  0
  9 10  1  1
 11 10  1  0
 11 12  1  0
 12 13  1  0
 13 14  1  0
 15  9  1  0
 16 15  2  0
 17 18  1  0
 18 19  1  0
 19 20  1  0
 21 20  1  1
 21 22  1  0
 22 15  1  0
 23 21  1  0
 23 25  1  0
 24 23  2  0
M  END
$$$$
