VKM.pdb
     RDKit          3D

 25 24  0  0  1  0  0  0  0  0999 V2000
    8.0626  -11.7623   25.0631 C   0  0  0  0  0  0  0  0  0  0  0  0
    7.0161  -12.2567   25.9924 C   0  0  1  0  0  0  0  0  0  0  0  0
    6.2934  -11.1097   26.6706 C   0  0  0  0  0  0  0  0  0  0  0  0
    6.0822  -13.2057   25.3212 C   0  0  2  0  0  0  0  0  0  0  0  0
    5.2148  -13.7440   26.3904 N   0  0  0  0  0  0  0  0  0  0  0  0
    6.8133  -14.3668   24.7632 C   0  0  0  0  0  0  0  0  0  0  0  0
    7.2220  -15.3092   25.5369 O   0  0  0  0  0  0  0  0  0  0  0  0
    7.1209  -14.5517   23.3859 N   0  0  0  0  0  0  0  0  0  0  0  0
    7.9512  -15.6801   22.9402 C   0  0  1  0  0  0  0  0  0  0  0  0
    7.8822  -15.7316   21.4153 C   0  0  0  0  0  0  0  0  0  0  0  0
    8.6922  -16.8407   20.8475 C   0  0  0  0  0  0  0  0  0  0  0  0
    8.4976  -16.9045   19.3598 C   0  0  0  0  0  0  0  0  0  0  0  0
    9.2938  -17.9942   18.7302 C   0  0  0  0  0  0  0  0  0  0  0  0
    9.1209  -18.0255   17.2807 N   0  0  0  0  0  0  0  0  0  0  0  0
    9.3402  -15.5483   23.4216 C   0  0  0  0  0  0  0  0  0  0  0  0
   10.0562  -14.6362   22.9465 O   0  0  0  0  0  0  0  0  0  0  0  0
    9.4718  -14.7811   29.8736 C   0  0  0  0  0  0  0  0  0  0  0  0
   10.5720  -14.3484   28.4980 S   0  0  0  0  0  0  0  0  0  0  0  0
   10.5451  -15.6514   27.2356 C   0  0  0  0  0  0  0  0  0  0  0  0
   11.3395  -15.2195   26.0235 C   0  0  0  0  0  0  0  0  0  0  0  0
   11.2395  -16.2612   24.9383 C   0  0  2  0  0  0  0  0  0  0  0  0
    9.9254  -16.3883   24.3913 N   0  0  0  0  0  0  0  0  0  0  0  0
   11.7968  -17.5502   25.4080 C   0  0  0  0  0  0  0  0  0  0  0  0
   11.0406  -18.5500   25.4184 O   0  0  0  0  0  0  0  0  0  0  0  0
   13.0988  -17.7206   25.8359 O   0  0  0  0  0  0  0  0  0  0  0  0
  2  1  1  6
  2  3  1  0
  4  6  1  0
  4  2  1  0
  4  5  1  1
  6  8  1  0
  7  6  2  0
  8  9  1  0
  9 10  1  6
 11 10  1  0
 11 12  1  0
 12 13  1  0
 13 14  1  0
 15  9  1  0
 16 15  2  0
 17 18  1  0
 18 19  1  0
 19 20  1  0
 21 20  1  1
 21 22  1  0
 22 15  1  0
 23 21  1  0
 23 25  1  0
 24 23  2  0
M  END
$$$$
