VKM.pdb
     RDKit          3D

 25 24  0  0  1  0  0  0  0  0999 V2000
    8.6270  -12.5905   20.3705 C   0  0  0  0  0  0  0  0  0  0  0  0
    7.7358  -13.3658   19.4718 C   0  0  1  0  0  0  0  0  0  0  0  0
    7.4426  -12.6046   18.1941 C   0  0  0  0  0  0  0  0  0  0  0  0
    8.2645  -14.7360   19.2141 C   0  0  2  0  0  0  0  0  0  0  0  0
    7.2456  -15.4134   18.3844 N   0  0  0  0  0  0  0  0  0  0  0  0
    8.3553  -15.5163   20.4699 C   0  0  0  0  0  0  0  0  0  0  0  0
    7.2925  -15.7994   21.1363 O   0  0  0  0  0  0  0  0  0  0  0  0
    9.5634  -16.0098   21.0378 N   0  0  0  0  0  0  0  0  0  0  0  0
    9.5506  -16.7939   22.2814 C   0  0  1  0  0  0  0  0  0  0  0  0
   10.6877  -17.8104   22.1994 C   0  0  0  0  0  0  0  0  0  0  0  0
   10.3268  -19.0017   21.3876 C   0  0  0  0  0  0  0  0  0  0  0  0
   11.4731  -19.9718   21.3681 C   0  0  0  0  0  0  0  0  0  0  0  0
   11.1430  -21.2244   20.6335 C   0  0  0  0  0  0  0  0  0  0  0  0
   12.2737  -22.1476   20.5986 N   0  0  0  0  0  0  0  0  0  0  0  0
    9.6781  -15.9238   23.4667 C   0  0  0  0  0  0  0  0  0  0  0  0
   10.6051  -15.0810   23.4958 O   0  0  0  0  0  0  0  0  0  0  0  0
    6.4609  -11.2663   25.8894 C   0  0  0  0  0  0  0  0  0  0  0  0
    6.6999  -12.1934   27.4300 S   0  0  0  0  0  0  0  0  0  0  0  0
    8.0277  -13.4140   27.2315 C   0  0  0  0  0  0  0  0  0  0  0  0
    7.7921  -14.2431   25.9889 C   0  0  0  0  0  0  0  0  0  0  0  0
    8.9370  -15.2011   25.7785 C   0  0  2  0  0  0  0  0  0  0  0  0
    8.8184  -15.9754   24.5832 N   0  0  0  0  0  0  0  0  0  0  0  0
    9.1428  -16.0319   26.9868 C   0  0  0  0  0  0  0  0  0  0  0  0
    8.6993  -17.2044   26.9781 O   0  0  0  0  0  0  0  0  0  0  0  0
    9.7934  -15.5959   28.1245 O   0  0  0  0  0  0  0  0  0  0  0  0
  2  1  1  1
  2  3  1  0
  4  6  1  0
  4  2  1  0
  4  5  1  6
  6  8  1  0
  7  6  2  0
  8  9  1  0
  9 10  1  6
 11 10  1  0
 11 12  1  0
 12 13  1  0
 13 14  1  0
 15  9  1  0
 16 15  2  0
 17 18  1  0
 18 19  1  0
 19 20  1  0
 21 20  1  1
 21 22  1  0
 22 15  1  0
 23 21  1  0
 23 25  1  0
 24 23  2  0
M  END
$$$$
