VKM.pdb
     RDKit          3D

 25 24  0  0  1  0  0  0  0  0999 V2000
    8.3690  -12.3667   18.7232 C   0  0  0  0  0  0  0  0  0  0  0  0
    8.5268  -13.3136   19.8553 C   0  0  1  0  0  0  0  0  0  0  0  0
    7.4724  -13.0823   20.9195 C   0  0  0  0  0  0  0  0  0  0  0  0
    8.5717  -14.7299   19.3912 C   0  0  2  0  0  0  0  0  0  0  0  0
    7.2690  -14.9838   18.7401 N   0  0  0  0  0  0  0  0  0  0  0  0
    8.6453  -15.6639   20.5385 C   0  0  0  0  0  0  0  0  0  0  0  0
    7.5688  -16.1015   21.0892 O   0  0  0  0  0  0  0  0  0  0  0  0
    9.8508  -16.1503   21.1181 N   0  0  0  0  0  0  0  0  0  0  0  0
    9.8225  -17.1190   22.2236 C   0  0  1  0  0  0  0  0  0  0  0  0
   10.7085  -18.2986   21.8282 C   0  0  0  0  0  0  0  0  0  0  0  0
   10.8502  -19.2941   22.9226 C   0  0  0  0  0  0  0  0  0  0  0  0
    9.9092  -20.4418   22.6929 C   0  0  0  0  0  0  0  0  0  0  0  0
   10.0404  -21.4992   23.7333 C   0  0  0  0  0  0  0  0  0  0  0  0
    9.2113  -22.6629   23.4326 N   0  0  0  0  0  0  0  0  0  0  0  0
   10.2641  -16.5025   23.4898 C   0  0  0  0  0  0  0  0  0  0  0  0
   10.8993  -17.2053   24.3102 O   0  0  0  0  0  0  0  0  0  0  0  0
    5.8989  -11.5036   27.6045 C   0  0  0  0  0  0  0  0  0  0  0  0
    6.2997  -12.3034   26.0267 S   0  0  0  0  0  0  0  0  0  0  0  0
    7.6328  -13.5130   26.2540 C   0  0  0  0  0  0  0  0  0  0  0  0
    8.1445  -13.9835   24.9110 C   0  0  0  0  0  0  0  0  0  0  0  0
    9.4600  -14.7007   25.0782 C   0  0  2  0  0  0  0  0  0  0  0  0
   10.0178  -15.1604   23.8454 N   0  0  0  0  0  0  0  0  0  0  0  0
    9.3374  -15.7729   26.0921 C   0  0  0  0  0  0  0  0  0  0  0  0
    9.5585  -15.4787   27.2904 O   0  0  0  0  0  0  0  0  0  0  0  0
    8.9945  -17.0786   25.8003 O   0  0  0  0  0  0  0  0  0  0  0  0
  2  1  1  6
  2  3  1  0
  4  6  1  0
  4  2  1  0
  4  5  1  1
  6  8  1  0
  7  6  2  0
  8  9  1  0
  9 10  1  6
 11 10  1  0
 11 12  1  0
 12 13  1  0
 13 14  1  0
 15  9  1  0
 16 15  2  0
 17 18  1  0
 18 19  1  0
 19 20  1  0
 21 20  1  6
 21 22  1  0
 22 15  1  0
 23 21  1  0
 23 25  1  0
 24 23  2  0
M  END
$$$$
