VKM.pdb
     RDKit          3D

 25 24  0  0  1  0  0  0  0  0999 V2000
    8.5393  -12.4673   20.5238 C   0  0  0  0  0  0  0  0  0  0  0  0
    7.8652  -13.2622   19.4669 C   0  0  1  0  0  0  0  0  0  0  0  0
    7.9784  -12.5893   18.1133 C   0  0  0  0  0  0  0  0  0  0  0  0
    8.3425  -14.6747   19.4464 C   0  0  2  0  0  0  0  0  0  0  0  0
    7.5848  -15.3422   18.3668 N   0  0  0  0  0  0  0  0  0  0  0  0
    7.9779  -15.3778   20.6981 C   0  0  0  0  0  0  0  0  0  0  0  0
    6.7987  -15.2492   21.1949 O   0  0  0  0  0  0  0  0  0  0  0  0
    8.8474  -16.2258   21.4401 N   0  0  0  0  0  0  0  0  0  0  0  0
    8.4184  -16.8225   22.7134 C   0  0  1  0  0  0  0  0  0  0  0  0
    8.7258  -18.3173   22.6510 C   0  0  0  0  0  0  0  0  0  0  0  0
    7.5932  -19.1074   22.1018 C   0  0  0  0  0  0  0  0  0  0  0  0
    8.0926  -20.0442   21.0396 C   0  0  0  0  0  0  0  0  0  0  0  0
    6.9880  -20.7952   20.3812 C   0  0  0  0  0  0  0  0  0  0  0  0
    7.4913  -21.7542   19.4020 N   0  0  0  0  0  0  0  0  0  0  0  0
    9.0822  -16.1744   23.8613 C   0  0  0  0  0  0  0  0  0  0  0  0
   10.2760  -15.8134   23.7391 O   0  0  0  0  0  0  0  0  0  0  0  0
    6.0234  -10.7744   26.2268 C   0  0  0  0  0  0  0  0  0  0  0  0
    6.4330  -12.2915   27.1326 S   0  0  0  0  0  0  0  0  0  0  0  0
    7.6852  -13.2456   26.2304 C   0  0  0  0  0  0  0  0  0  0  0  0
    8.0957  -14.4587   27.0346 C   0  0  0  0  0  0  0  0  0  0  0  0
    9.0565  -15.3074   26.2412 C   0  0  2  0  0  0  0  0  0  0  0  0
    8.4586  -15.9298   25.1022 N   0  0  0  0  0  0  0  0  0  0  0  0
    9.7481  -16.2700   27.1287 C   0  0  0  0  0  0  0  0  0  0  0  0
    9.3889  -17.4704   27.0897 O   0  0  0  0  0  0  0  0  0  0  0  0
   10.7655  -15.9282   27.9981 O   0  0  0  0  0  0  0  0  0  0  0  0
  2  1  1  1
  2  3  1  0
  4  6  1  0
  4  2  1  0
  4  5  1  6
  6  8  1  0
  7  6  2  0
  8  9  1  0
  9 10  1  6
 11 10  1  0
 11 12  1  0
 12 13  1  0
 13 14  1  0
 15  9  1  0
 16 15  2  0
 17 18  1  0
 18 19  1  0
 19 20  1  0
 21 20  1  1
 21 22  1  0
 22 15  1  0
 23 21  1  0
 23 25  1  0
 24 23  2  0
M  END
$$$$
