VKM.pdb
     RDKit          3D

 25 24  0  0  1  0  0  0  0  0999 V2000
    7.2122  -12.8995   19.7393 C   0  0  0  0  0  0  0  0  0  0  0  0
    8.4620  -13.3016   19.0468 C   0  0  1  0  0  0  0  0  0  0  0  0
    9.6857  -12.7529   19.7535 C   0  0  0  0  0  0  0  0  0  0  0  0
    8.5320  -14.7769   18.8418 C   0  0  2  0  0  0  0  0  0  0  0  0
    7.3193  -15.1370   18.0769 N   0  0  0  0  0  0  0  0  0  0  0  0
    8.4325  -15.4988   20.1314 C   0  0  0  0  0  0  0  0  0  0  0  0
    7.3127  -15.5501   20.7617 O   0  0  0  0  0  0  0  0  0  0  0  0
    9.5077  -16.1768   20.7715 N   0  0  0  0  0  0  0  0  0  0  0  0
    9.3053  -16.8874   22.0425 C   0  0  1  0  0  0  0  0  0  0  0  0
   10.1824  -18.1375   22.0187 C   0  0  0  0  0  0  0  0  0  0  0  0
   10.0945  -18.9169   23.2810 C   0  0  0  0  0  0  0  0  0  0  0  0
   10.9294  -20.1604   23.1718 C   0  0  0  0  0  0  0  0  0  0  0  0
   10.8289  -21.0189   24.3845 C   0  0  0  0  0  0  0  0  0  0  0  0
   11.6706  -22.2074   24.2799 N   0  0  0  0  0  0  0  0  0  0  0  0
    9.6158  -16.0223   23.1973 C   0  0  0  0  0  0  0  0  0  0  0  0
   10.6724  -15.3488   23.1759 O   0  0  0  0  0  0  0  0  0  0  0  0
    6.0611  -11.6924   25.5795 C   0  0  0  0  0  0  0  0  0  0  0  0
    7.2783  -11.6647   26.9240 S   0  0  0  0  0  0  0  0  0  0  0  0
    8.3099  -13.1564   26.8711 C   0  0  0  0  0  0  0  0  0  0  0  0
    8.0985  -13.8904   25.5658 C   0  0  0  0  0  0  0  0  0  0  0  0
    9.0417  -15.0625   25.4701 C   0  0  2  0  0  0  0  0  0  0  0  0
    8.7959  -15.8993   24.3379 N   0  0  0  0  0  0  0  0  0  0  0  0
    9.0652  -15.8112   26.7474 C   0  0  0  0  0  0  0  0  0  0  0  0
    8.3114  -16.8063   26.8609 O   0  0  0  0  0  0  0  0  0  0  0  0
    9.8664  -15.4818   27.8231 O   0  0  0  0  0  0  0  0  0  0  0  0
  2  1  1  1
  2  3  1  0
  4  6  1  0
  4  2  1  0
  4  5  1  6
  6  8  1  0
  7  6  2  0
  8  9  1  0
  9 10  1  6
 11 10  1  0
 11 12  1  0
 12 13  1  0
 13 14  1  0
 15  9  1  0
 16 15  2  0
 17 18  1  0
 18 19  1  0
 19 20  1  0
 21 20  1  1
 21 22  1  0
 22 15  1  0
 23 21  1  0
 23 25  1  0
 24 23  2  0
M  END
$$$$
