VKM.pdb
     RDKit          3D

 25 24  0  0  1  0  0  0  0  0999 V2000
    7.5176  -12.3191   24.3788 C   0  0  0  0  0  0  0  0  0  0  0  0
    6.7657  -13.0195   25.4499 C   0  0  1  0  0  0  0  0  0  0  0  0
    5.6491  -12.1529   25.9978 C   0  0  0  0  0  0  0  0  0  0  0  0
    6.2857  -14.3592   25.0051 C   0  0  2  0  0  0  0  0  0  0  0  0
    5.7119  -15.0027   26.2060 N   0  0  0  0  0  0  0  0  0  0  0  0
    7.4171  -15.2164   24.5820 C   0  0  0  0  0  0  0  0  0  0  0  0
    8.1549  -15.7976   25.4604 O   0  0  0  0  0  0  0  0  0  0  0  0
    7.7842  -15.4745   23.2313 N   0  0  0  0  0  0  0  0  0  0  0  0
    8.8547  -16.4284   22.9065 C   0  0  1  0  0  0  0  0  0  0  0  0
    9.0297  -16.4289   21.3892 C   0  0  0  0  0  0  0  0  0  0  0  0
   10.2113  -17.2182   20.9542 C   0  0  0  0  0  0  0  0  0  0  0  0
    9.7797  -18.5952   20.5384 C   0  0  0  0  0  0  0  0  0  0  0  0
   10.9128  -19.4129   20.0232 C   0  0  0  0  0  0  0  0  0  0  0  0
   10.5331  -20.8103   19.8361 N   0  0  0  0  0  0  0  0  0  0  0  0
   10.1101  -16.0849   23.6025 C   0  0  0  0  0  0  0  0  0  0  0  0
   10.5580  -14.9196   23.4926 O   0  0  0  0  0  0  0  0  0  0  0  0
    9.1784  -14.0304   28.6496 C   0  0  0  0  0  0  0  0  0  0  0  0
   10.2732  -15.3337   29.2760 S   0  0  0  0  0  0  0  0  0  0  0  0
   11.3867  -15.9066   27.9629 C   0  0  0  0  0  0  0  0  0  0  0  0
   10.6054  -16.1704   26.6953 C   0  0  0  0  0  0  0  0  0  0  0  0
   11.5237  -16.6860   25.6166 C   0  0  2  0  0  0  0  0  0  0  0  0
   10.8503  -16.9881   24.3928 N   0  0  0  0  0  0  0  0  0  0  0  0
   12.3326  -17.8173   26.1252 C   0  0  0  0  0  0  0  0  0  0  0  0
   13.2099  -17.5737   26.9869 O   0  0  0  0  0  0  0  0  0  0  0  0
   12.1811  -19.1256   25.7096 O   0  0  0  0  0  0  0  0  0  0  0  0
  2  1  1  6
  2  3  1  0
  4  6  1  0
  4  2  1  0
  4  5  1  1
  6  8  1  0
  7  6  2  0
  8  9  1  0
  9 10  1  6
 11 10  1  0
 11 12  1  0
 12 13  1  0
 13 14  1  0
 15  9  1  0
 16 15  2  0
 17 18  1  0
 18 19  1  0
 19 20  1  0
 21 20  1  1
 21 22  1  0
 22 15  1  0
 23 21  1  0
 23 25  1  0
 24 23  2  0
M  END
$$$$
