WGI.pdb
     RDKit          3D

 27 28  0  0  1  0  0  0  0  0999 V2000
   24.2379  -18.9363  -15.3135 N   0  0  0  0  0  0  0  0  0  0  0  0
   25.3848  -19.0554  -14.4495 C   0  0  1  0  0  0  0  0  0  0  0  0
   25.7793  -17.6895  -13.8785 C   0  0  0  0  0  0  0  0  0  0  0  0
   26.3200  -16.8783  -14.9910 C   0  0  0  0  0  0  0  0  0  0  0  0
   25.7560  -15.7843  -15.6174 C   0  0  0  0  0  0  0  0  0  0  0  0
   26.5910  -15.3415  -16.5876 N   0  0  0  0  0  0  0  0  0  0  0  0
   27.6829  -16.1235  -16.6042 C   0  0  0  0  0  0  0  0  0  0  0  0
   28.8341  -16.1425  -17.3638 C   0  0  0  0  0  0  0  0  0  0  0  0
   29.8114  -17.0957  -17.1464 C   0  0  0  0  0  0  0  0  0  0  0  0
   29.6636  -18.0540  -16.1650 C   0  0  0  0  0  0  0  0  0  0  0  0
   28.5218  -18.0476  -15.4003 C   0  0  0  0  0  0  0  0  0  0  0  0
   27.5275  -17.0889  -15.6112 C   0  0  0  0  0  0  0  0  0  0  0  0
   25.0541  -19.9026  -13.2814 C   0  0  0  0  0  0  0  0  0  0  0  0
   23.9646  -19.8122  -12.6616 O   0  0  0  0  0  0  0  0  0  0  0  0
   26.0044  -20.8582  -12.8390 N   0  0  0  0  0  0  0  0  0  0  0  0
   25.6710  -21.7338  -11.7518 C   0  0  0  0  0  0  0  0  0  0  0  0
   26.6541  -21.6472  -10.6433 C   0  0  0  0  0  0  0  0  0  0  0  0
   27.6979  -22.3584  -10.7015 O   0  0  0  0  0  0  0  0  0  0  0  0
   28.0503  -18.3966   -6.2574 C   0  0  0  0  0  0  0  0  0  0  0  0
   27.1703  -19.1187   -7.2095 C   0  0  0  0  0  0  0  0  0  0  0  0
   27.4854  -20.5803   -7.3539 C   0  0  2  0  0  0  0  0  0  0  0  0
   28.8456  -20.7955   -7.9796 C   0  0  0  0  0  0  0  0  0  0  0  0
   26.4715  -21.3379   -8.1510 C   0  0  2  0  0  0  0  0  0  0  0  0
   26.4950  -20.8082   -9.5112 N   0  0  0  0  0  0  0  0  0  0  0  0
   25.0926  -21.2083   -7.6151 C   0  0  0  0  0  0  0  0  0  0  0  0
   24.7832  -21.5914   -6.4584 O   0  0  0  0  0  0  0  0  0  0  0  0
   24.0452  -20.6491   -8.3662 O   0  0  0  0  0  0  0  0  0  0  0  0
  2  1  1  6
  3  2  1  0
  4  3  1  0
  4  5  2  0
  6  5  1  0
  7  6  1  0
  8  7  2  0
  9  8  1  0
 10  9  2  0
 10 11  1  0
 11 12  2  0
 12  7  1  0
 12  4  1  0
 13  2  1  0
 13 14  2  0
 15 16  1  0
 15 13  1  0
 17 18  2  0
 17 16  1  0
 20 19  1  0
 20 21  1  0
 21 22  1  6
 23 21  1  0
 23 24  1  6
 24 17  1  0
 25 23  1  0
 26 25  2  0
 27 25  1  0
M  END
$$$$
