WGI.pdb
     RDKit          3D

 27 28  0  0  1  0  0  0  0  0999 V2000
   25.5386  -21.0888  -16.5875 N   0  0  0  0  0  0  0  0  0  0  0  0
   25.6763  -20.3960  -15.3316 C   0  0  1  0  0  0  0  0  0  0  0  0
   24.4883  -20.6968  -14.4120 C   0  0  0  0  0  0  0  0  0  0  0  0
   23.2928  -20.0540  -14.9999 C   0  0  0  0  0  0  0  0  0  0  0  0
   22.1414  -20.6455  -15.4815 C   0  0  0  0  0  0  0  0  0  0  0  0
   21.2971  -19.6864  -15.9306 N   0  0  0  0  0  0  0  0  0  0  0  0
   21.8750  -18.4872  -15.7513 C   0  0  0  0  0  0  0  0  0  0  0  0
   21.4885  -17.1901  -16.0169 C   0  0  0  0  0  0  0  0  0  0  0  0
   22.3184  -16.1268  -15.7144 C   0  0  0  0  0  0  0  0  0  0  0  0
   23.5554  -16.3322  -15.1390 C   0  0  0  0  0  0  0  0  0  0  0  0
   23.9541  -17.6193  -14.8686 C   0  0  0  0  0  0  0  0  0  0  0  0
   23.1234  -18.7015  -15.1702 C   0  0  0  0  0  0  0  0  0  0  0  0
   26.8770  -20.8804  -14.6139 C   0  0  0  0  0  0  0  0  0  0  0  0
   28.0120  -20.9413  -15.1500 O   0  0  0  0  0  0  0  0  0  0  0  0
   26.7457  -21.2947  -13.2637 N   0  0  0  0  0  0  0  0  0  0  0  0
   27.8085  -21.0271  -12.3370 C   0  0  0  0  0  0  0  0  0  0  0  0
   27.4503  -21.4139  -10.9496 C   0  0  0  0  0  0  0  0  0  0  0  0
   27.2690  -22.6378  -10.6889 O   0  0  0  0  0  0  0  0  0  0  0  0
   29.2149  -18.9554   -6.4540 C   0  0  0  0  0  0  0  0  0  0  0  0
   28.6806  -19.9624   -7.4041 C   0  0  0  0  0  0  0  0  0  0  0  0
   27.1886  -19.9205   -7.5731 C   0  0  2  0  0  0  0  0  0  0  0  0
   26.4744  -20.2149   -6.2726 C   0  0  0  0  0  0  0  0  0  0  0  0
   26.6756  -20.8587   -8.6189 C   0  0  2  0  0  0  0  0  0  0  0  0
   27.2972  -20.4879   -9.8867 N   0  0  0  0  0  0  0  0  0  0  0  0
   25.2004  -20.8032   -8.7796 C   0  0  0  0  0  0  0  0  0  0  0  0
   24.4203  -21.4667   -8.0504 O   0  0  0  0  0  0  0  0  0  0  0  0
   24.5815  -20.0055   -9.7566 O   0  0  0  0  0  0  0  0  0  0  0  0
  2  1  1  6
  3  2  1  0
  4  3  1  0
  4  5  2  0
  6  5  1  0
  7  6  1  0
  8  7  2  0
  9  8  1  0
 10  9  2  0
 10 11  1  0
 11 12  2  0
 12  7  1  0
 12  4  1  0
 13  2  1  0
 13 14  2  0
 15 16  1  0
 15 13  1  0
 17 18  2  0
 17 16  1  0
 20 19  1  0
 20 21  1  0
 21 22  1  1
 23 21  1  0
 23 24  1  6
 24 17  1  0
 25 23  1  0
 26 25  2  0
 27 25  1  0
M  END
$$$$
