WGI.pdb
     RDKit          3D

 27 28  0  0  1  0  0  0  0  0999 V2000
   24.5552  -19.5665  -11.9029 N   0  0  0  0  0  0  0  0  0  0  0  0
   25.5526  -20.4632  -12.4294 C   0  0  1  0  0  0  0  0  0  0  0  0
   25.6813  -21.7104  -11.5488 C   0  0  0  0  0  0  0  0  0  0  0  0
   26.1631  -21.2730  -10.2204 C   0  0  0  0  0  0  0  0  0  0  0  0
   25.4269  -20.9040   -9.1117 C   0  0  0  0  0  0  0  0  0  0  0  0
   26.2681  -20.5747   -8.1025 N   0  0  0  0  0  0  0  0  0  0  0  0
   27.5322  -20.7216   -8.5319 C   0  0  0  0  0  0  0  0  0  0  0  0
   28.7681  -20.5337   -7.9490 C   0  0  0  0  0  0  0  0  0  0  0  0
   29.9303  -20.7720   -8.6585 C   0  0  0  0  0  0  0  0  0  0  0  0
   29.8876  -21.2039   -9.9681 C   0  0  0  0  0  0  0  0  0  0  0  0
   28.6633  -21.3954  -10.5621 C   0  0  0  0  0  0  0  0  0  0  0  0
   27.4822  -21.1577   -9.8546 C   0  0  0  0  0  0  0  0  0  0  0  0
   25.1417  -20.9511  -13.7653 C   0  0  0  0  0  0  0  0  0  0  0  0
   25.7302  -21.8903  -14.3575 O   0  0  0  0  0  0  0  0  0  0  0  0
   24.0374  -20.3353  -14.4082 N   0  0  0  0  0  0  0  0  0  0  0  0
   23.5940  -20.8323  -15.6795 C   0  0  0  0  0  0  0  0  0  0  0  0
   22.1671  -21.2397  -15.6530 C   0  0  0  0  0  0  0  0  0  0  0  0
   21.3904  -20.7863  -16.5418 O   0  0  0  0  0  0  0  0  0  0  0  0
   18.4467  -25.3829  -12.8926 C   0  0  0  0  0  0  0  0  0  0  0  0
   18.6178  -24.1681  -13.7276 C   0  0  0  0  0  0  0  0  0  0  0  0
   20.0421  -23.7120  -13.8688 C   0  0  2  0  0  0  0  0  0  0  0  0
   20.6941  -23.5031  -12.5199 C   0  0  0  0  0  0  0  0  0  0  0  0
   20.1950  -22.4576  -14.6689 C   0  0  2  0  0  0  0  0  0  0  0  0
   21.6140  -22.1148  -14.6840 N   0  0  0  0  0  0  0  0  0  0  0  0
   19.4359  -21.3113  -14.1078 C   0  0  0  0  0  0  0  0  0  0  0  0
   19.9570  -20.4831  -13.3185 O   0  0  0  0  0  0  0  0  0  0  0  0
   18.0867  -21.0785  -14.4228 O   0  0  0  0  0  0  0  0  0  0  0  0
  2  1  1  1
  3  2  1  0
  4  3  1  0
  4  5  2  0
  6  5  1  0
  7  6  1  0
  8  7  2  0
  9  8  1  0
 10  9  2  0
 10 11  1  0
 11 12  2  0
 12  7  1  0
 12  4  1  0
 13  2  1  0
 13 14  2  0
 15 16  1  0
 15 13  1  0
 17 18  2  0
 17 16  1  0
 20 19  1  0
 20 21  1  0
 21 22  1  1
 23 21  1  0
 23 24  1  1
 24 17  1  0
 25 23  1  0
 26 25  2  0
 27 25  1  0
M  END
$$$$
