WGI.pdb
     RDKit          3D

 27 28  0  0  1  0  0  0  0  0999 V2000
   25.2713  -20.1549   -9.7693 N   0  0  0  0  0  0  0  0  0  0  0  0
   26.7091  -20.2475   -9.7777 C   0  0  1  0  0  0  0  0  0  0  0  0
   27.1932  -21.2813   -8.7557 C   0  0  0  0  0  0  0  0  0  0  0  0
   27.0179  -20.6956   -7.4088 C   0  0  0  0  0  0  0  0  0  0  0  0
   25.8463  -20.4031   -6.7386 C   0  0  0  0  0  0  0  0  0  0  0  0
   26.1413  -19.8776   -5.5256 N   0  0  0  0  0  0  0  0  0  0  0  0
   27.4769  -19.8228   -5.3946 C   0  0  0  0  0  0  0  0  0  0  0  0
   28.3227  -19.3897   -4.3948 C   0  0  0  0  0  0  0  0  0  0  0  0
   29.6949  -19.4576   -4.5481 C   0  0  0  0  0  0  0  0  0  0  0  0
   30.2570  -19.9597   -5.7036 C   0  0  0  0  0  0  0  0  0  0  0  0
   29.4266  -20.3949   -6.7085 C   0  0  0  0  0  0  0  0  0  0  0  0
   28.0383  -20.3310   -6.5645 C   0  0  0  0  0  0  0  0  0  0  0  0
   27.1787  -20.7303  -11.0960 C   0  0  0  0  0  0  0  0  0  0  0  0
   28.3948  -20.8955  -11.3666 O   0  0  0  0  0  0  0  0  0  0  0  0
   26.2191  -21.0199  -12.0995 N   0  0  0  0  0  0  0  0  0  0  0  0
   26.6601  -21.4753  -13.3872 C   0  0  0  0  0  0  0  0  0  0  0  0
   25.5241  -21.7454  -14.3032 C   0  0  0  0  0  0  0  0  0  0  0  0
   25.7719  -22.1744  -15.4665 O   0  0  0  0  0  0  0  0  0  0  0  0
   20.7750  -24.2150  -15.3683 C   0  0  0  0  0  0  0  0  0  0  0  0
   20.7408  -22.8468  -14.7948 C   0  0  0  0  0  0  0  0  0  0  0  0
   21.9667  -22.4759  -14.0098 C   0  0  2  0  0  0  0  0  0  0  0  0
   21.6455  -21.4809  -12.9167 C   0  0  0  0  0  0  0  0  0  0  0  0
   23.0720  -21.9182  -14.8491 C   0  0  2  0  0  0  0  0  0  0  0  0
   24.1639  -21.5512  -13.9524 N   0  0  0  0  0  0  0  0  0  0  0  0
   22.6682  -20.7161  -15.6219 C   0  0  0  0  0  0  0  0  0  0  0  0
   22.8290  -19.5497  -15.1814 O   0  0  0  0  0  0  0  0  0  0  0  0
   22.0809  -20.8050  -16.8951 O   0  0  0  0  0  0  0  0  0  0  0  0
  2  1  1  6
  3  2  1  0
  4  3  1  0
  4  5  2  0
  6  5  1  0
  7  6  1  0
  8  7  2  0
  9  8  1  0
 10  9  2  0
 10 11  1  0
 11 12  2  0
 12  7  1  0
 12  4  1  0
 13  2  1  0
 13 14  2  0
 15 16  1  0
 15 13  1  0
 17 18  2  0
 17 16  1  0
 20 19  1  0
 20 21  1  0
 21 22  1  1
 23 21  1  0
 23 24  1  1
 24 17  1  0
 25 23  1  0
 26 25  2  0
 27 25  1  0
M  END
$$$$
