WGI.pdb
     RDKit          3D

 27 28  0  0  1  0  0  0  0  0999 V2000
   28.3454  -21.0266   -9.5250 N   0  0  0  0  0  0  0  0  0  0  0  0
   26.9656  -21.4261   -9.6375 C   0  0  1  0  0  0  0  0  0  0  0  0
   26.1476  -20.8934   -8.4566 C   0  0  0  0  0  0  0  0  0  0  0  0
   27.0482  -20.0654   -7.6251 C   0  0  0  0  0  0  0  0  0  0  0  0
   27.4417  -18.7556   -7.8170 C   0  0  0  0  0  0  0  0  0  0  0  0
   28.2741  -18.3847   -6.8150 N   0  0  0  0  0  0  0  0  0  0  0  0
   28.4291  -19.4241   -5.9785 C   0  0  0  0  0  0  0  0  0  0  0  0
   29.1461  -19.6176   -4.8162 C   0  0  0  0  0  0  0  0  0  0  0  0
   29.1118  -20.8314   -4.1556 C   0  0  0  0  0  0  0  0  0  0  0  0
   28.3606  -21.8827   -4.6392 C   0  0  0  0  0  0  0  0  0  0  0  0
   27.6411  -21.7047   -5.7964 C   0  0  0  0  0  0  0  0  0  0  0  0
   27.6684  -20.4822   -6.4724 C   0  0  0  0  0  0  0  0  0  0  0  0
   26.3619  -20.8294  -10.8504 C   0  0  0  0  0  0  0  0  0  0  0  0
   26.5666  -19.6390  -11.1974 O   0  0  0  0  0  0  0  0  0  0  0  0
   25.5157  -21.6314  -11.6582 N   0  0  0  0  0  0  0  0  0  0  0  0
   24.2254  -22.0175  -11.1622 C   0  0  0  0  0  0  0  0  0  0  0  0
   23.1441  -21.1402  -11.6762 C   0  0  0  0  0  0  0  0  0  0  0  0
   22.1848  -20.8460  -10.9068 O   0  0  0  0  0  0  0  0  0  0  0  0
   22.2180  -16.9584  -16.1214 C   0  0  0  0  0  0  0  0  0  0  0  0
   21.6496  -17.8603  -15.0890 C   0  0  0  0  0  0  0  0  0  0  0  0
   22.6471  -18.7998  -14.4737 C   0  0  2  0  0  0  0  0  0  0  0  0
   23.3320  -19.6470  -15.5232 C   0  0  0  0  0  0  0  0  0  0  0  0
   22.0597  -19.7078  -13.4404 C   0  0  2  0  0  0  0  0  0  0  0  0
   23.1189  -20.6054  -12.9892 N   0  0  0  0  0  0  0  0  0  0  0  0
   20.9321  -20.5255  -13.9553 C   0  0  0  0  0  0  0  0  0  0  0  0
   19.7749  -20.0565  -14.1017 O   0  0  0  0  0  0  0  0  0  0  0  0
   21.0859  -21.8755  -14.3121 O   0  0  0  0  0  0  0  0  0  0  0  0
  2  1  1  1
  3  2  1  0
  4  3  1  0
  4  5  2  0
  6  5  1  0
  7  6  1  0
  8  7  2  0
  9  8  1  0
 10  9  2  0
 10 11  1  0
 11 12  2  0
 12  7  1  0
 12  4  1  0
 13  2  1  0
 13 14  2  0
 15 16  1  0
 15 13  1  0
 17 18  2  0
 17 16  1  0
 20 19  1  0
 20 21  1  0
 21 22  1  6
 23 21  1  0
 23 24  1  6
 24 17  1  0
 25 23  1  0
 26 25  2  0
 27 25  1  0
M  END
$$$$
