WGI.pdb
     RDKit          3D

 27 28  0  0  1  0  0  0  0  0999 V2000
   24.1594  -18.9129  -14.1827 N   0  0  0  0  0  0  0  0  0  0  0  0
   24.9581  -19.6763  -15.1075 C   0  0  1  0  0  0  0  0  0  0  0  0
   25.3331  -18.8303  -16.3287 C   0  0  0  0  0  0  0  0  0  0  0  0
   24.1824  -17.9532  -16.6364 C   0  0  0  0  0  0  0  0  0  0  0  0
   24.0326  -16.6033  -16.3862 C   0  0  0  0  0  0  0  0  0  0  0  0
   22.8209  -16.1949  -16.8327 N   0  0  0  0  0  0  0  0  0  0  0  0
   22.1821  -17.2491  -17.3661 C   0  0  0  0  0  0  0  0  0  0  0  0
   20.9480  -17.4202  -17.9579 C   0  0  0  0  0  0  0  0  0  0  0  0
   20.5516  -18.6592  -18.4257 C   0  0  0  0  0  0  0  0  0  0  0  0
   21.3778  -19.7585  -18.3143 C   0  0  0  0  0  0  0  0  0  0  0  0
   22.6104  -19.6031  -17.7268 C   0  0  0  0  0  0  0  0  0  0  0  0
   23.0214  -18.3557  -17.2504 C   0  0  0  0  0  0  0  0  0  0  0  0
   26.2388  -20.0621  -14.4733 C   0  0  0  0  0  0  0  0  0  0  0  0
   27.0831  -20.8012  -15.0392 O   0  0  0  0  0  0  0  0  0  0  0  0
   26.5298  -19.5798  -13.1715 N   0  0  0  0  0  0  0  0  0  0  0  0
   27.6417  -20.1277  -12.4481 C   0  0  0  0  0  0  0  0  0  0  0  0
   27.2091  -20.8742  -11.2404 C   0  0  0  0  0  0  0  0  0  0  0  0
   26.7355  -22.0377  -11.3840 O   0  0  0  0  0  0  0  0  0  0  0  0
   27.5921  -18.6630   -5.9136 C   0  0  0  0  0  0  0  0  0  0  0  0
   27.1223  -19.1143   -7.2469 C   0  0  0  0  0  0  0  0  0  0  0  0
   27.4147  -20.5565   -7.5485 C   0  0  2  0  0  0  0  0  0  0  0  0
   28.9002  -20.8031   -7.6926 C   0  0  0  0  0  0  0  0  0  0  0  0
   26.7282  -21.0651   -8.7761 C   0  0  2  0  0  0  0  0  0  0  0  0
   27.2944  -20.3595   -9.9219 N   0  0  0  0  0  0  0  0  0  0  0  0
   25.2603  -20.8411   -8.7590 C   0  0  0  0  0  0  0  0  0  0  0  0
   24.5030  -21.4170   -7.9373 O   0  0  0  0  0  0  0  0  0  0  0  0
   24.6235  -19.9711   -9.6597 O   0  0  0  0  0  0  0  0  0  0  0  0
  2  1  1  1
  3  2  1  0
  4  3  1  0
  4  5  2  0
  6  5  1  0
  7  6  1  0
  8  7  2  0
  9  8  1  0
 10  9  2  0
 10 11  1  0
 11 12  2  0
 12  7  1  0
 12  4  1  0
 13  2  1  0
 13 14  2  0
 15 16  1  0
 15 13  1  0
 17 18  2  0
 17 16  1  0
 20 19  1  0
 20 21  1  0
 21 22  1  6
 23 21  1  0
 23 24  1  6
 24 17  1  0
 25 23  1  0
 26 25  2  0
 27 25  1  0
M  END
$$$$
