WGI.pdb
     RDKit          3D

 27 28  0  0  1  0  0  0  0  0999 V2000
   27.6848  -21.4054  -12.0878 N   0  0  0  0  0  0  0  0  0  0  0  0
   26.3837  -21.4186  -11.4689 C   0  0  1  0  0  0  0  0  0  0  0  0
   26.3553  -20.4992  -10.2436 C   0  0  0  0  0  0  0  0  0  0  0  0
   27.5403  -20.8174   -9.4173 C   0  0  0  0  0  0  0  0  0  0  0  0
   28.5982  -21.6559   -9.7090 C   0  0  0  0  0  0  0  0  0  0  0  0
   29.4699  -21.6572   -8.6724 N   0  0  0  0  0  0  0  0  0  0  0  0
   29.0010  -20.8391   -7.7158 C   0  0  0  0  0  0  0  0  0  0  0  0
   29.4591  -20.4626   -6.4705 C   0  0  0  0  0  0  0  0  0  0  0  0
   28.7402  -19.5782   -5.6881 C   0  0  0  0  0  0  0  0  0  0  0  0
   27.5457  -19.0476   -6.1297 C   0  0  0  0  0  0  0  0  0  0  0  0
   27.0768  -19.4138   -7.3685 C   0  0  0  0  0  0  0  0  0  0  0  0
   27.7950  -20.3068   -8.1678 C   0  0  0  0  0  0  0  0  0  0  0  0
   25.3714  -20.8785  -12.4043 C   0  0  0  0  0  0  0  0  0  0  0  0
   25.2328  -19.6484  -12.6211 O   0  0  0  0  0  0  0  0  0  0  0  0
   24.5194  -21.7839  -13.0871 N   0  0  0  0  0  0  0  0  0  0  0  0
   23.5776  -21.2800  -14.0458 C   0  0  0  0  0  0  0  0  0  0  0  0
   22.1767  -21.4071  -13.5725 C   0  0  0  0  0  0  0  0  0  0  0  0
   21.3384  -21.9993  -14.3109 O   0  0  0  0  0  0  0  0  0  0  0  0
   21.1250  -21.9258   -8.2417 C   0  0  0  0  0  0  0  0  0  0  0  0
   21.1090  -22.0294   -9.7220 C   0  0  0  0  0  0  0  0  0  0  0  0
   20.3070  -20.9596  -10.4068 C   0  0  2  0  0  0  0  0  0  0  0  0
   18.8663  -20.9657   -9.9460 C   0  0  0  0  0  0  0  0  0  0  0  0
   20.3281  -21.0552  -11.8993 C   0  0  2  0  0  0  0  0  0  0  0  0
   21.7141  -20.9012  -12.3311 N   0  0  0  0  0  0  0  0  0  0  0  0
   19.5058  -20.0116  -12.5625 C   0  0  0  0  0  0  0  0  0  0  0  0
   18.3904  -20.2664  -13.0834 O   0  0  0  0  0  0  0  0  0  0  0  0
   19.9212  -18.6724  -12.6503 O   0  0  0  0  0  0  0  0  0  0  0  0
  2  1  1  6
  3  2  1  0
  4  3  1  0
  4  5  2  0
  6  5  1  0
  7  6  1  0
  8  7  2  0
  9  8  1  0
 10  9  2  0
 10 11  1  0
 11 12  2  0
 12  7  1  0
 12  4  1  0
 13  2  1  0
 13 14  2  0
 15 16  1  0
 15 13  1  0
 17 18  2  0
 17 16  1  0
 20 19  1  0
 20 21  1  0
 21 22  1  1
 23 21  1  0
 23 24  1  6
 24 17  1  0
 25 23  1  0
 26 25  2  0
 27 25  1  0
M  END
$$$$
