WGI.pdb
     RDKit          3D

 27 28  0  0  1  0  0  0  0  0999 V2000
   26.9278  -19.7341  -17.9576 N   0  0  0  0  0  0  0  0  0  0  0  0
   26.0474  -19.6743  -16.8186 C   0  0  1  0  0  0  0  0  0  0  0  0
   25.1400  -20.9078  -16.7679 C   0  0  0  0  0  0  0  0  0  0  0  0
   23.7699  -20.4705  -17.1140 C   0  0  0  0  0  0  0  0  0  0  0  0
   23.0819  -20.6387  -18.2996 C   0  0  0  0  0  0  0  0  0  0  0  0
   21.8508  -20.0852  -18.1876 N   0  0  0  0  0  0  0  0  0  0  0  0
   21.7255  -19.5621  -16.9569 C   0  0  0  0  0  0  0  0  0  0  0  0
   20.7144  -18.8909  -16.3015 C   0  0  0  0  0  0  0  0  0  0  0  0
   20.8781  -18.4595  -14.9984 C   0  0  0  0  0  0  0  0  0  0  0  0
   22.0559  -18.6875  -14.3170 C   0  0  0  0  0  0  0  0  0  0  0  0
   23.0723  -19.3550  -14.9573 C   0  0  0  0  0  0  0  0  0  0  0  0
   22.9178  -19.7955  -16.2742 C   0  0  0  0  0  0  0  0  0  0  0  0
   26.8359  -19.6997  -15.5660 C   0  0  0  0  0  0  0  0  0  0  0  0
   27.9521  -20.2699  -15.4758 O   0  0  0  0  0  0  0  0  0  0  0  0
   26.3133  -19.0544  -14.4160 N   0  0  0  0  0  0  0  0  0  0  0  0
   27.0794  -19.0458  -13.2024 C   0  0  0  0  0  0  0  0  0  0  0  0
   26.5113  -19.9559  -12.1769 C   0  0  0  0  0  0  0  0  0  0  0  0
   26.1320  -21.1085  -12.5323 O   0  0  0  0  0  0  0  0  0  0  0  0
   27.8838  -18.9280   -7.0526 C   0  0  0  0  0  0  0  0  0  0  0  0
   27.5805  -19.7935   -8.2193 C   0  0  0  0  0  0  0  0  0  0  0  0
   26.1139  -19.9996   -8.4700 C   0  0  2  0  0  0  0  0  0  0  0  0
   25.4987  -20.9198   -7.4391 C   0  0  0  0  0  0  0  0  0  0  0  0
   25.8067  -20.5389   -9.8308 C   0  0  2  0  0  0  0  0  0  0  0  0
   26.3659  -19.6109  -10.8092 N   0  0  0  0  0  0  0  0  0  0  0  0
   24.3508  -20.6791  -10.0879 C   0  0  0  0  0  0  0  0  0  0  0  0
   23.6958  -21.6827   -9.7083 O   0  0  0  0  0  0  0  0  0  0  0  0
   23.6119  -19.6993  -10.7717 O   0  0  0  0  0  0  0  0  0  0  0  0
  2  1  1  6
  3  2  1  0
  4  3  1  0
  4  5  2  0
  6  5  1  0
  7  6  1  0
  8  7  2  0
  9  8  1  0
 10  9  2  0
 10 11  1  0
 11 12  2  0
 12  7  1  0
 12  4  1  0
 13  2  1  0
 13 14  2  0
 15 16  1  0
 15 13  1  0
 17 18  2  0
 17 16  1  0
 20 19  1  0
 20 21  1  0
 21 22  1  1
 23 21  1  0
 23 24  1  6
 24 17  1  0
 25 23  1  0
 26 25  2  0
 27 25  1  0
M  END
$$$$
