WGI.pdb
     RDKit          3D

 27 28  0  0  1  0  0  0  0  0999 V2000
   29.0497  -20.9913   -9.5076 N   0  0  0  0  0  0  0  0  0  0  0  0
   27.6255  -21.1174   -9.3298 C   0  0  1  0  0  0  0  0  0  0  0  0
   27.0522  -19.8763   -8.6380 C   0  0  0  0  0  0  0  0  0  0  0  0
   27.9268  -19.5606   -7.4875 C   0  0  0  0  0  0  0  0  0  0  0  0
   29.0796  -18.8007   -7.4604 C   0  0  0  0  0  0  0  0  0  0  0  0
   29.5665  -18.7671   -6.1970 N   0  0  0  0  0  0  0  0  0  0  0  0
   28.7558  -19.4879   -5.4050 C   0  0  0  0  0  0  0  0  0  0  0  0
   28.7585  -19.7956   -4.0605 C   0  0  0  0  0  0  0  0  0  0  0  0
   27.7640  -20.5833   -3.5114 C   0  0  0  0  0  0  0  0  0  0  0  0
   26.7417  -21.0835   -4.2912 C   0  0  0  0  0  0  0  0  0  0  0  0
   26.7260  -20.7853   -5.6326 C   0  0  0  0  0  0  0  0  0  0  0  0
   27.7259  -19.9902   -6.1983 C   0  0  0  0  0  0  0  0  0  0  0  0
   26.9545  -21.1932  -10.6471 C   0  0  0  0  0  0  0  0  0  0  0  0
   27.4617  -20.7249  -11.6973 O   0  0  0  0  0  0  0  0  0  0  0  0
   25.6849  -21.8199  -10.7327 N   0  0  0  0  0  0  0  0  0  0  0  0
   25.0482  -21.9524  -12.0121 C   0  0  0  0  0  0  0  0  0  0  0  0
   23.9418  -20.9790  -12.1890 C   0  0  0  0  0  0  0  0  0  0  0  0
   23.7293  -20.1303  -11.2762 O   0  0  0  0  0  0  0  0  0  0  0  0
   24.2390  -19.5091  -16.0216 C   0  0  0  0  0  0  0  0  0  0  0  0
   23.1800  -18.7262  -15.3377 C   0  0  0  0  0  0  0  0  0  0  0  0
   21.9917  -19.5389  -14.9087 C   0  0  2  0  0  0  0  0  0  0  0  0
   20.6953  -18.8002  -15.1574 C   0  0  0  0  0  0  0  0  0  0  0  0
   22.0336  -19.9530  -13.4721 C   0  0  2  0  0  0  0  0  0  0  0  0
   23.0995  -20.9402  -13.3290 N   0  0  0  0  0  0  0  0  0  0  0  0
   20.7612  -20.5569  -13.0015 C   0  0  0  0  0  0  0  0  0  0  0  0
   20.4744  -21.7635  -13.2074 O   0  0  0  0  0  0  0  0  0  0  0  0
   19.7962  -19.8190  -12.2959 O   0  0  0  0  0  0  0  0  0  0  0  0
  2  1  1  6
  3  2  1  0
  4  3  1  0
  4  5  2  0
  6  5  1  0
  7  6  1  0
  8  7  2  0
  9  8  1  0
 10  9  2  0
 10 11  1  0
 11 12  2  0
 12  7  1  0
 12  4  1  0
 13  2  1  0
 13 14  2  0
 15 16  1  0
 15 13  1  0
 17 18  2  0
 17 16  1  0
 20 19  1  0
 20 21  1  0
 21 22  1  1
 23 21  1  0
 23 24  1  6
 24 17  1  0
 25 23  1  0
 26 25  2  0
 27 25  1  0
M  END
$$$$
