WGI.pdb
     RDKit          3D

 27 28  0  0  1  0  0  0  0  0999 V2000
   25.3452  -18.4802  -14.6620 N   0  0  0  0  0  0  0  0  0  0  0  0
   26.6057  -18.5090  -15.3593 C   0  0  1  0  0  0  0  0  0  0  0  0
   27.3409  -17.1733  -15.2085 C   0  0  0  0  0  0  0  0  0  0  0  0
   26.3604  -16.0925  -15.4503 C   0  0  0  0  0  0  0  0  0  0  0  0
   25.9181  -15.1153  -14.5803 C   0  0  0  0  0  0  0  0  0  0  0  0
   25.0174  -14.3251  -15.2118 N   0  0  0  0  0  0  0  0  0  0  0  0
   24.8658  -14.7680  -16.4708 C   0  0  0  0  0  0  0  0  0  0  0  0
   24.0975  -14.3611  -17.5416 C   0  0  0  0  0  0  0  0  0  0  0  0
   24.1521  -15.0321  -18.7490 C   0  0  0  0  0  0  0  0  0  0  0  0
   24.9753  -16.1263  -18.9174 C   0  0  0  0  0  0  0  0  0  0  0  0
   25.7465  -16.5433  -17.8591 C   0  0  0  0  0  0  0  0  0  0  0  0
   25.6994  -15.8728  -16.6343 C   0  0  0  0  0  0  0  0  0  0  0  0
   27.4939  -19.5303  -14.7598 C   0  0  0  0  0  0  0  0  0  0  0  0
   28.6927  -19.6782  -15.1070 O   0  0  0  0  0  0  0  0  0  0  0  0
   26.9744  -20.3807  -13.7504 N   0  0  0  0  0  0  0  0  0  0  0  0
   27.8019  -21.4211  -13.2094 C   0  0  0  0  0  0  0  0  0  0  0  0
   27.7023  -21.5018  -11.7307 C   0  0  0  0  0  0  0  0  0  0  0  0
   28.3420  -22.4112  -11.1286 O   0  0  0  0  0  0  0  0  0  0  0  0
   27.8279  -19.5359   -7.0357 C   0  0  0  0  0  0  0  0  0  0  0  0
   27.5206  -20.4848   -8.1346 C   0  0  0  0  0  0  0  0  0  0  0  0
   26.1401  -20.3381   -8.7083 C   0  0  2  0  0  0  0  0  0  0  0  0
   25.0797  -20.7704   -7.7200 C   0  0  0  0  0  0  0  0  0  0  0  0
   25.9359  -21.0926   -9.9835 C   0  0  2  0  0  0  0  0  0  0  0  0
   26.9272  -20.6139  -10.9423 N   0  0  0  0  0  0  0  0  0  0  0  0
   24.5827  -20.9012  -10.5645 C   0  0  0  0  0  0  0  0  0  0  0  0
   23.5462  -21.3525  -10.0146 O   0  0  0  0  0  0  0  0  0  0  0  0
   24.3738  -20.2034  -11.7657 O   0  0  0  0  0  0  0  0  0  0  0  0
  2  1  1  1
  3  2  1  0
  4  3  1  0
  4  5  2  0
  6  5  1  0
  7  6  1  0
  8  7  2  0
  9  8  1  0
 10  9  2  0
 10 11  1  0
 11 12  2  0
 12  7  1  0
 12  4  1  0
 13  2  1  0
 13 14  2  0
 15 16  1  0
 15 13  1  0
 17 18  2  0
 17 16  1  0
 20 19  1  0
 20 21  1  0
 21 22  1  1
 23 21  1  0
 23 24  1  6
 24 17  1  0
 25 23  1  0
 26 25  2  0
 27 25  1  0
M  END
$$$$
