WGI.pdb
     RDKit          3D

 27 28  0  0  1  0  0  0  0  0999 V2000
   27.8727  -19.7532   -9.1923 N   0  0  0  0  0  0  0  0  0  0  0  0
   27.2451  -21.0067   -8.8594 C   0  0  1  0  0  0  0  0  0  0  0  0
   26.5586  -20.9246   -7.4922 C   0  0  0  0  0  0  0  0  0  0  0  0
   27.2116  -19.8398   -6.7275 C   0  0  0  0  0  0  0  0  0  0  0  0
   27.2305  -18.4846   -6.9930 C   0  0  0  0  0  0  0  0  0  0  0  0
   27.9450  -17.8484   -6.0342 N   0  0  0  0  0  0  0  0  0  0  0  0
   28.3896  -18.7601   -5.1539 C   0  0  0  0  0  0  0  0  0  0  0  0
   29.1492  -18.6889   -4.0048 C   0  0  0  0  0  0  0  0  0  0  0  0
   29.4567  -19.8292   -3.2862 C   0  0  0  0  0  0  0  0  0  0  0  0
   29.0134  -21.0693   -3.6972 C   0  0  0  0  0  0  0  0  0  0  0  0
   28.2556  -21.1557   -4.8404 C   0  0  0  0  0  0  0  0  0  0  0  0
   27.9388  -20.0100   -5.5745 C   0  0  0  0  0  0  0  0  0  0  0  0
   26.1729  -21.3117   -9.8335 C   0  0  0  0  0  0  0  0  0  0  0  0
   25.3929  -22.2884   -9.7034 O   0  0  0  0  0  0  0  0  0  0  0  0
   26.0155  -20.4686  -10.9633 N   0  0  0  0  0  0  0  0  0  0  0  0
   25.0745  -20.8274  -11.9858 C   0  0  0  0  0  0  0  0  0  0  0  0
   24.9519  -19.7757  -13.0259 C   0  0  0  0  0  0  0  0  0  0  0  0
   25.0593  -18.5646  -12.6792 O   0  0  0  0  0  0  0  0  0  0  0  0
   28.0216  -19.7768  -16.9903 C   0  0  0  0  0  0  0  0  0  0  0  0
   27.0161  -19.4795  -15.9402 C   0  0  0  0  0  0  0  0  0  0  0  0
   25.6239  -19.2652  -16.4620 C   0  0  2  0  0  0  0  0  0  0  0  0
   25.5775  -18.1417  -17.4738 C   0  0  0  0  0  0  0  0  0  0  0  0
   24.6179  -18.9818  -15.3920 C   0  0  2  0  0  0  0  0  0  0  0  0
   24.7198  -20.0464  -14.3984 N   0  0  0  0  0  0  0  0  0  0  0  0
   23.2230  -18.9381  -15.8994 C   0  0  0  0  0  0  0  0  0  0  0  0
   22.5558  -19.9807  -16.1192 O   0  0  0  0  0  0  0  0  0  0  0  0
   22.5591  -17.7291  -16.1662 O   0  0  0  0  0  0  0  0  0  0  0  0
  2  1  1  6
  3  2  1  0
  4  3  1  0
  4  5  2  0
  6  5  1  0
  7  6  1  0
  8  7  2  0
  9  8  1  0
 10  9  2  0
 10 11  1  0
 11 12  2  0
 12  7  1  0
 12  4  1  0
 13  2  1  0
 13 14  2  0
 15 16  1  0
 15 13  1  0
 17 18  2  0
 17 16  1  0
 20 19  1  0
 20 21  1  0
 21 22  1  6
 23 21  1  0
 23 24  1  1
 24 17  1  0
 25 23  1  0
 26 25  2  0
 27 25  1  0
M  END
$$$$
