KCV.pdb
     RDKit          3D

 23 22  0  0  1  0  0  0  0  0999 V2000
   20.0724  -12.4516  -15.9671 N   0  0  0  0  0  0  0  0  0  0  0  0
   19.7513  -11.2869  -16.7646 C   0  0  1  0  0  0  0  0  0  0  0  0
   18.4643  -11.4999  -17.5038 C   0  0  0  0  0  0  0  0  0  0  0  0
   18.5701  -12.6754  -18.4275 C   0  0  0  0  0  0  0  0  0  0  0  0
   17.2599  -12.9791  -19.1242 C   0  0  0  0  0  0  0  0  0  0  0  0
   17.4377  -14.1512  -20.0748 C   0  0  0  0  0  0  0  0  0  0  0  0
   16.1730  -14.4721  -20.6942 N   0  0  0  0  0  0  0  0  0  0  0  0
   19.6910  -10.0998  -15.8647 C   0  0  0  0  0  0  0  0  0  0  0  0
   18.8265  -10.0546  -14.9347 O   0  0  0  0  0  0  0  0  0  0  0  0
   20.5602   -8.9886  -15.9840 N   0  0  0  0  0  0  0  0  0  0  0  0
   20.4205   -7.7977  -15.1331 C   0  0  1  0  0  0  0  0  0  0  0  0
   21.7486   -7.4513  -14.4865 C   0  0  0  0  0  0  0  0  0  0  0  0
   21.6489   -5.9160  -13.5362 S   0  0  0  0  0  0  0  0  0  0  0  0
   19.9482   -6.6942  -16.0098 C   0  0  0  0  0  0  0  0  0  0  0  0
   20.4682   -6.4639  -17.1518 O   0  0  0  0  0  0  0  0  0  0  0  0
   16.1076   -5.3052  -15.8549 C   0  0  0  0  0  0  0  0  0  0  0  0
   17.0209   -5.0790  -17.0415 C   0  0  1  0  0  0  0  0  0  0  0  0
   16.5522   -3.9337  -17.8934 C   0  0  0  0  0  0  0  0  0  0  0  0
   18.3969   -4.7594  -16.4990 C   0  0  2  0  0  0  0  0  0  0  0  0
   18.8875   -5.8230  -15.6359 N   0  0  0  0  0  0  0  0  0  0  0  0
   18.4047   -3.4868  -15.7406 C   0  0  0  0  0  0  0  0  0  0  0  0
   18.2769   -2.3837  -16.3237 O   0  0  0  0  0  0  0  0  0  0  0  0
   18.5535   -3.4790  -14.3642 O   0  0  0  0  0  0  0  0  0  0  0  0
  2  8  1  0
  2  1  1  1
  3  2  1  0
  4  3  1  0
  5  4  1  0
  6  7  1  0
  6  5  1  0
  8  9  2  0
 10 11  1  0
 10  8  1  0
 11 12  1  6
 13 12  1  0
 14 15  2  0
 14 11  1  0
 17 16  1  1
 17 19  1  0
 18 17  1  0
 19 20  1  1
 20 14  1  0
 21 23  1  0
 21 19  1  0
 22 21  2  0
M  END
$$$$
