KCV.pdb
     RDKit          3D

 23 22  0  0  1  0  0  0  0  0999 V2000
   17.0885  -14.8853  -19.0422 N   0  0  0  0  0  0  0  0  0  0  0  0
   17.5265  -14.3661  -17.7638 C   0  0  1  0  0  0  0  0  0  0  0  0
   18.4206  -15.3554  -17.0781 C   0  0  0  0  0  0  0  0  0  0  0  0
   17.6638  -16.5998  -16.7241 C   0  0  0  0  0  0  0  0  0  0  0  0
   18.4577  -17.5173  -15.8175 C   0  0  0  0  0  0  0  0  0  0  0  0
   17.6574  -18.7753  -15.5238 C   0  0  0  0  0  0  0  0  0  0  0  0
   18.3924  -19.6177  -14.6094 N   0  0  0  0  0  0  0  0  0  0  0  0
   18.2074  -13.0596  -17.9923 C   0  0  0  0  0  0  0  0  0  0  0  0
   18.8759  -12.8727  -19.0565 O   0  0  0  0  0  0  0  0  0  0  0  0
   18.1547  -11.9841  -17.0731 N   0  0  0  0  0  0  0  0  0  0  0  0
   18.8448  -10.7108  -17.3265 C   0  0  1  0  0  0  0  0  0  0  0  0
   17.9101   -9.7298  -18.0092 C   0  0  0  0  0  0  0  0  0  0  0  0
   16.3688   -9.5227  -17.0863 S   0  0  0  0  0  0  0  0  0  0  0  0
   19.2932  -10.1932  -16.0072 C   0  0  0  0  0  0  0  0  0  0  0  0
   18.6001  -10.3446  -14.9469 O   0  0  0  0  0  0  0  0  0  0  0  0
   22.3067  -10.8441  -13.9703 C   0  0  0  0  0  0  0  0  0  0  0  0
   22.3363   -9.3469  -14.1956 C   0  0  1  0  0  0  0  0  0  0  0  0
   23.2755   -8.9704  -15.3062 C   0  0  0  0  0  0  0  0  0  0  0  0
   20.9341   -8.9176  -14.5686 C   0  0  2  0  0  0  0  0  0  0  0  0
   20.5218   -9.4962  -15.8383 N   0  0  0  0  0  0  0  0  0  0  0  0
   20.8173   -7.4433  -14.6550 C   0  0  0  0  0  0  0  0  0  0  0  0
   20.6374   -6.8705  -15.7563 O   0  0  0  0  0  0  0  0  0  0  0  0
   20.9036   -6.6544  -13.5206 O   0  0  0  0  0  0  0  0  0  0  0  0
  2  8  1  0
  2  1  1  6
  3  2  1  0
  4  3  1  0
  5  4  1  0
  6  7  1  0
  6  5  1  0
  8  9  2  0
 10 11  1  0
 10  8  1  0
 11 12  1  1
 13 12  1  0
 14 15  2  0
 14 11  1  0
 17 16  1  6
 17 19  1  0
 18 17  1  0
 19 20  1  6
 20 14  1  0
 21 23  1  0
 21 19  1  0
 22 21  2  0
M  END
$$$$
