KCV.pdb
     RDKit          3D

 23 22  0  0  1  0  0  0  0  0999 V2000
   27.1676  -19.0197  -17.9520 N   0  0  0  0  0  0  0  0  0  0  0  0
   26.9791  -19.9106  -16.8266 C   0  0  1  0  0  0  0  0  0  0  0  0
   28.2527  -20.0412  -16.0461 C   0  0  0  0  0  0  0  0  0  0  0  0
   28.8872  -21.3781  -16.2837 C   0  0  0  0  0  0  0  0  0  0  0  0
   29.3124  -21.5647  -17.7254 C   0  0  0  0  0  0  0  0  0  0  0  0
   29.9614  -22.9273  -17.9022 C   0  0  0  0  0  0  0  0  0  0  0  0
   30.1781  -23.1850  -19.3067 N   0  0  0  0  0  0  0  0  0  0  0  0
   25.8609  -19.3869  -15.9912 C   0  0  0  0  0  0  0  0  0  0  0  0
   25.9523  -18.2352  -15.4625 O   0  0  0  0  0  0  0  0  0  0  0  0
   24.6704  -20.1117  -15.7428 N   0  0  0  0  0  0  0  0  0  0  0  0
   23.6207  -19.5995  -14.8496 C   0  0  1  0  0  0  0  0  0  0  0  0
   22.3381  -19.3604  -15.6240 C   0  0  0  0  0  0  0  0  0  0  0  0
   20.9375  -19.0593  -14.5204 S   0  0  0  0  0  0  0  0  0  0  0  0
   23.4222  -20.6202  -13.7875 C   0  0  0  0  0  0  0  0  0  0  0  0
   23.1307  -21.8327  -14.0565 O   0  0  0  0  0  0  0  0  0  0  0  0
   25.5979  -21.4111  -10.7895 C   0  0  0  0  0  0  0  0  0  0  0  0
   24.2172  -21.1828  -10.2109 C   0  0  1  0  0  0  0  0  0  0  0  0
   24.1016  -19.8309   -9.5656 C   0  0  0  0  0  0  0  0  0  0  0  0
   23.2279  -21.2706  -11.3526 C   0  0  2  0  0  0  0  0  0  0  0  0
   23.5436  -20.3150  -12.4033 N   0  0  0  0  0  0  0  0  0  0  0  0
   21.8393  -21.0346  -10.8936 C   0  0  0  0  0  0  0  0  0  0  0  0
   21.2072  -20.0084  -11.2405 O   0  0  0  0  0  0  0  0  0  0  0  0
   21.1987  -21.9419  -10.0671 O   0  0  0  0  0  0  0  0  0  0  0  0
  2  8  1  0
  2  1  1  6
  3  2  1  0
  4  3  1  0
  5  4  1  0
  6  7  1  0
  6  5  1  0
  8  9  2  0
 10 11  1  0
 10  8  1  0
 11 12  1  6
 13 12  1  0
 14 15  2  0
 14 11  1  0
 17 16  1  6
 17 19  1  0
 18 17  1  0
 19 20  1  6
 20 14  1  0
 21 23  1  0
 21 19  1  0
 22 21  2  0
M  END
$$$$
