KCV.pdb
     RDKit          3D

 23 22  0  0  1  0  0  0  0  0999 V2000
   25.6466  -20.5649   -8.3656 N   0  0  0  0  0  0  0  0  0  0  0  0
   24.6496  -20.8208   -9.3836 C   0  0  1  0  0  0  0  0  0  0  0  0
   23.3794  -20.0908   -9.0645 C   0  0  0  0  0  0  0  0  0  0  0  0
   22.6684  -20.7385   -7.9150 C   0  0  0  0  0  0  0  0  0  0  0  0
   22.0307  -22.0566   -8.3024 C   0  0  0  0  0  0  0  0  0  0  0  0
   21.1679  -22.5701   -7.1618 C   0  0  0  0  0  0  0  0  0  0  0  0
   19.9725  -21.7665   -7.0555 N   0  0  0  0  0  0  0  0  0  0  0  0
   25.2099  -20.4192  -10.7056 C   0  0  0  0  0  0  0  0  0  0  0  0
   25.7542  -19.2793  -10.8416 O   0  0  0  0  0  0  0  0  0  0  0  0
   25.1730  -21.2508  -11.8507 N   0  0  0  0  0  0  0  0  0  0  0  0
   25.7638  -20.8362  -13.1317 C   0  0  1  0  0  0  0  0  0  0  0  0
   26.9519  -21.7152  -13.4749 C   0  0  0  0  0  0  0  0  0  0  0  0
   27.5470  -21.4082  -15.1548 S   0  0  0  0  0  0  0  0  0  0  0  0
   24.6954  -20.9557  -14.1582 C   0  0  0  0  0  0  0  0  0  0  0  0
   23.9466  -21.9851  -14.2427 O   0  0  0  0  0  0  0  0  0  0  0  0
   21.5394  -19.5895  -14.8442 C   0  0  0  0  0  0  0  0  0  0  0  0
   22.3158  -19.1602  -16.0714 C   0  0  1  0  0  0  0  0  0  0  0  0
   22.8215  -17.7511  -15.9444 C   0  0  0  0  0  0  0  0  0  0  0  0
   23.4960  -20.0971  -16.2109 C   0  0  2  0  0  0  0  0  0  0  0  0
   24.4364  -19.9333  -15.1130 N   0  0  0  0  0  0  0  0  0  0  0  0
   24.2134  -19.8876  -17.4899 C   0  0  0  0  0  0  0  0  0  0  0  0
   25.3753  -19.4156  -17.5120 O   0  0  0  0  0  0  0  0  0  0  0  0
   23.6208  -20.2075  -18.6995 O   0  0  0  0  0  0  0  0  0  0  0  0
  2  8  1  0
  2  1  1  1
  3  2  1  0
  4  3  1  0
  5  4  1  0
  6  7  1  0
  6  5  1  0
  8  9  2  0
 10 11  1  0
 10  8  1  0
 11 12  1  6
 13 12  1  0
 14 15  2  0
 14 11  1  0
 17 16  1  1
 17 19  1  0
 18 17  1  0
 19 20  1  1
 20 14  1  0
 21 23  1  0
 21 19  1  0
 22 21  2  0
M  END
$$$$
