KCV.pdb
     RDKit          3D

 23 22  0  0  1  0  0  0  0  0999 V2000
   28.4210  -20.5362  -16.7814 N   0  0  0  0  0  0  0  0  0  0  0  0
   27.9626  -19.7142  -15.6814 C   0  0  1  0  0  0  0  0  0  0  0  0
   27.0503  -18.6348  -16.1821 C   0  0  0  0  0  0  0  0  0  0  0  0
   27.4483  -18.1989  -17.5598 C   0  0  0  0  0  0  0  0  0  0  0  0
   28.5725  -17.1840  -17.5395 C   0  0  0  0  0  0  0  0  0  0  0  0
   28.8370  -16.6752  -18.9467 C   0  0  0  0  0  0  0  0  0  0  0  0
   29.9354  -15.7375  -18.9271 N   0  0  0  0  0  0  0  0  0  0  0  0
   27.2938  -20.5939  -14.6806 C   0  0  0  0  0  0  0  0  0  0  0  0
   26.3850  -21.3994  -15.0541 O   0  0  0  0  0  0  0  0  0  0  0  0
   27.6163  -20.5885  -13.3021 N   0  0  0  0  0  0  0  0  0  0  0  0
   26.7310  -21.1908  -12.2944 C   0  0  1  0  0  0  0  0  0  0  0  0
   27.2750  -20.9464  -10.8993 C   0  0  0  0  0  0  0  0  0  0  0  0
   26.0451  -21.3207   -9.6275 S   0  0  0  0  0  0  0  0  0  0  0  0
   25.3941  -20.5640  -12.4650 C   0  0  0  0  0  0  0  0  0  0  0  0
   25.2375  -19.2986  -12.5078 O   0  0  0  0  0  0  0  0  0  0  0  0
   21.6486  -22.6224  -13.7000 C   0  0  0  0  0  0  0  0  0  0  0  0
   22.2275  -21.2660  -14.0439 C   0  0  1  0  0  0  0  0  0  0  0  0
   21.1622  -20.3023  -14.4841 C   0  0  0  0  0  0  0  0  0  0  0  0
   22.8935  -20.7286  -12.7959 C   0  0  2  0  0  0  0  0  0  0  0  0
   24.2023  -21.3305  -12.5916 N   0  0  0  0  0  0  0  0  0  0  0  0
   22.0664  -20.9627  -11.5895 C   0  0  0  0  0  0  0  0  0  0  0  0
   21.0215  -20.3009  -11.3811 O   0  0  0  0  0  0  0  0  0  0  0  0
   22.4238  -21.9205  -10.6559 O   0  0  0  0  0  0  0  0  0  0  0  0
  2  8  1  0
  2  1  1  6
  3  2  1  0
  4  3  1  0
  5  4  1  0
  6  7  1  0
  6  5  1  0
  8  9  2  0
 10 11  1  0
 10  8  1  0
 11 12  1  1
 13 12  1  0
 14 15  2  0
 14 11  1  0
 17 16  1  1
 17 19  1  0
 18 17  1  0
 19 20  1  1
 20 14  1  0
 21 23  1  0
 21 19  1  0
 22 21  2  0
M  END
$$$$
