KCV.pdb
     RDKit          3D

 23 22  0  0  1  0  0  0  0  0999 V2000
   26.1629  -21.7755  -11.1580 N   0  0  0  0  0  0  0  0  0  0  0  0
   25.1631  -20.7305  -11.0921 C   0  0  1  0  0  0  0  0  0  0  0  0
   25.2711  -19.9869   -9.7946 C   0  0  0  0  0  0  0  0  0  0  0  0
   24.0498  -20.2051   -8.9536 C   0  0  0  0  0  0  0  0  0  0  0  0
   23.1256  -21.2508   -9.5420 C   0  0  0  0  0  0  0  0  0  0  0  0
   21.8588  -21.3511   -8.7088 C   0  0  0  0  0  0  0  0  0  0  0  0
   22.0912  -22.2090   -7.5704 N   0  0  0  0  0  0  0  0  0  0  0  0
   25.3395  -19.8326  -12.2691 C   0  0  0  0  0  0  0  0  0  0  0  0
   24.6204  -18.7914  -12.3834 O   0  0  0  0  0  0  0  0  0  0  0  0
   26.2837  -20.0734  -13.2961 N   0  0  0  0  0  0  0  0  0  0  0  0
   26.5225  -19.1038  -14.3753 C   0  0  1  0  0  0  0  0  0  0  0  0
   27.9922  -19.0828  -14.7515 C   0  0  0  0  0  0  0  0  0  0  0  0
   28.3423  -17.8315  -16.0092 S   0  0  0  0  0  0  0  0  0  0  0  0
   25.6813  -19.5239  -15.5265 C   0  0  0  0  0  0  0  0  0  0  0  0
   25.5002  -20.7513  -15.8234 O   0  0  0  0  0  0  0  0  0  0  0  0
   22.1588  -19.2561  -16.3270 C   0  0  0  0  0  0  0  0  0  0  0  0
   22.8257  -18.5000  -17.4570 C   0  0  1  0  0  0  0  0  0  0  0  0
   22.8252  -17.0179  -17.2107 C   0  0  0  0  0  0  0  0  0  0  0  0
   24.2564  -18.9851  -17.5437 C   0  0  2  0  0  0  0  0  0  0  0  0
   25.0233  -18.5884  -16.3726 N   0  0  0  0  0  0  0  0  0  0  0  0
   24.9361  -18.4726  -18.7561 C   0  0  0  0  0  0  0  0  0  0  0  0
   24.5679  -18.8225  -19.9029 O   0  0  0  0  0  0  0  0  0  0  0  0
   25.9991  -17.5911  -18.6576 O   0  0  0  0  0  0  0  0  0  0  0  0
  2  8  1  0
  2  1  1  1
  3  2  1  0
  4  3  1  0
  5  4  1  0
  6  7  1  0
  6  5  1  0
  8  9  2  0
 10 11  1  0
 10  8  1  0
 11 12  1  6
 13 12  1  0
 14 15  2  0
 14 11  1  0
 17 16  1  1
 17 19  1  0
 18 17  1  0
 19 20  1  1
 20 14  1  0
 21 23  1  0
 21 19  1  0
 22 21  2  0
M  END
$$$$
