KCV.pdb
     RDKit          3D

 23 22  0  0  1  0  0  0  0  0999 V2000
   16.4625  -14.6705  -17.7687 N   0  0  0  0  0  0  0  0  0  0  0  0
   17.3584  -14.2777  -16.7015 C   0  0  1  0  0  0  0  0  0  0  0  0
   18.3830  -15.3457  -16.4614 C   0  0  0  0  0  0  0  0  0  0  0  0
   17.7236  -16.6498  -16.1283 C   0  0  0  0  0  0  0  0  0  0  0  0
   18.7090  -17.7994  -16.0910 C   0  0  0  0  0  0  0  0  0  0  0  0
   17.9688  -19.1103  -15.8842 C   0  0  0  0  0  0  0  0  0  0  0  0
   18.8871  -20.2160  -16.0261 N   0  0  0  0  0  0  0  0  0  0  0  0
   17.9826  -12.9734  -17.0644 C   0  0  0  0  0  0  0  0  0  0  0  0
   18.5159  -12.8241  -18.2079 O   0  0  0  0  0  0  0  0  0  0  0  0
   18.0198  -11.8595  -16.1913 N   0  0  0  0  0  0  0  0  0  0  0  0
   18.5355  -10.5516  -16.6216 C   0  0  1  0  0  0  0  0  0  0  0  0
   17.3992   -9.6660  -17.0975 C   0  0  0  0  0  0  0  0  0  0  0  0
   15.9665   -9.7693  -15.9989 S   0  0  0  0  0  0  0  0  0  0  0  0
   19.2257   -9.9530  -15.4492 C   0  0  0  0  0  0  0  0  0  0  0  0
   18.7574  -10.0439  -14.2659 O   0  0  0  0  0  0  0  0  0  0  0  0
   22.6271  -10.6215  -14.1851 C   0  0  0  0  0  0  0  0  0  0  0  0
   22.6067   -9.1231  -14.4032 C   0  0  1  0  0  0  0  0  0  0  0  0
   23.2482   -8.7425  -15.7074 C   0  0  0  0  0  0  0  0  0  0  0  0
   21.1575   -8.6880  -14.4209 C   0  0  2  0  0  0  0  0  0  0  0  0
   20.4513   -9.2404  -15.5668 N   0  0  0  0  0  0  0  0  0  0  0  0
   21.0288   -7.2125  -14.4462 C   0  0  0  0  0  0  0  0  0  0  0  0
   20.6368   -6.6132  -15.4760 O   0  0  0  0  0  0  0  0  0  0  0  0
   21.3382   -6.4515  -13.3318 O   0  0  0  0  0  0  0  0  0  0  0  0
  2  8  1  0
  2  1  1  6
  3  2  1  0
  4  3  1  0
  5  4  1  0
  6  7  1  0
  6  5  1  0
  8  9  2  0
 10 11  1  0
 10  8  1  0
 11 12  1  1
 13 12  1  0
 14 15  2  0
 14 11  1  0
 17 16  1  6
 17 19  1  0
 18 17  1  0
 19 20  1  6
 20 14  1  0
 21 23  1  0
 21 19  1  0
 22 21  2  0
M  END
$$$$
