KCV.pdb
     RDKit          3D

 23 22  0  0  1  0  0  0  0  0999 V2000
   28.7878  -20.9986  -15.4797 N   0  0  0  0  0  0  0  0  0  0  0  0
   27.8159  -20.0482  -14.9817 C   0  0  1  0  0  0  0  0  0  0  0  0
   27.2325  -19.2574  -16.1141 C   0  0  0  0  0  0  0  0  0  0  0  0
   28.2221  -19.1189  -17.2312 C   0  0  0  0  0  0  0  0  0  0  0  0
   28.8451  -17.7393  -17.2799 C   0  0  0  0  0  0  0  0  0  0  0  0
   29.8020  -17.6438  -18.4565 C   0  0  0  0  0  0  0  0  0  0  0  0
   30.4128  -16.3352  -18.4826 N   0  0  0  0  0  0  0  0  0  0  0  0
   26.7719  -20.7937  -14.2222 C   0  0  0  0  0  0  0  0  0  0  0  0
   25.9743  -21.5680  -14.8376 O   0  0  0  0  0  0  0  0  0  0  0  0
   26.6083  -20.6907  -12.8197 N   0  0  0  0  0  0  0  0  0  0  0  0
   25.5391  -21.4058  -12.1074 C   0  0  1  0  0  0  0  0  0  0  0  0
   25.7170  -21.2641  -10.6073 C   0  0  0  0  0  0  0  0  0  0  0  0
   25.7801  -19.5287  -10.1028 S   0  0  0  0  0  0  0  0  0  0  0  0
   24.2517  -20.8110  -12.5522 C   0  0  0  0  0  0  0  0  0  0  0  0
   24.1414  -19.5755  -12.8508 O   0  0  0  0  0  0  0  0  0  0  0  0
   19.9510  -21.1078  -14.7210 C   0  0  0  0  0  0  0  0  0  0  0  0
   21.2969  -21.7095  -14.3750 C   0  0  1  0  0  0  0  0  0  0  0  0
   22.2938  -21.5152  -15.4821 C   0  0  0  0  0  0  0  0  0  0  0  0
   21.7991  -21.0097  -13.1308 C   0  0  2  0  0  0  0  0  0  0  0  0
   23.0590  -21.5767  -12.6747 N   0  0  0  0  0  0  0  0  0  0  0  0
   20.8146  -21.0826  -12.0262 C   0  0  0  0  0  0  0  0  0  0  0  0
   20.8269  -22.0334  -11.2083 O   0  0  0  0  0  0  0  0  0  0  0  0
   19.8512  -20.1015  -11.8650 O   0  0  0  0  0  0  0  0  0  0  0  0
  2  8  1  0
  2  1  1  6
  3  2  1  0
  4  3  1  0
  5  4  1  0
  6  7  1  0
  6  5  1  0
  8  9  2  0
 10 11  1  0
 10  8  1  0
 11 12  1  1
 13 12  1  0
 14 15  2  0
 14 11  1  0
 17 16  1  6
 17 19  1  0
 18 17  1  0
 19 20  1  1
 20 14  1  0
 21 23  1  0
 21 19  1  0
 22 21  2  0
M  END
$$$$
