KCV.pdb
     RDKit          3D

 23 22  0  0  1  0  0  0  0  0999 V2000
   20.1663  -16.8265  -17.5216 N   0  0  0  0  0  0  0  0  0  0  0  0
   19.9365  -15.9870  -18.6784 C   0  0  1  0  0  0  0  0  0  0  0  0
   19.3431  -16.7909  -19.7963 C   0  0  0  0  0  0  0  0  0  0  0  0
   20.3365  -17.7813  -20.3244 C   0  0  0  0  0  0  0  0  0  0  0  0
   20.8119  -18.7442  -19.2563 C   0  0  0  0  0  0  0  0  0  0  0  0
   21.7408  -19.7796  -19.8680 C   0  0  0  0  0  0  0  0  0  0  0  0
   22.1146  -20.7509  -18.8666 N   0  0  0  0  0  0  0  0  0  0  0  0
   19.0553  -14.8547  -18.2732 C   0  0  0  0  0  0  0  0  0  0  0  0
   18.0497  -14.5492  -18.9871 O   0  0  0  0  0  0  0  0  0  0  0  0
   19.2742  -14.0766  -17.1108 N   0  0  0  0  0  0  0  0  0  0  0  0
   18.3719  -12.9806  -16.7279 C   0  0  1  0  0  0  0  0  0  0  0  0
   17.7821  -13.2372  -15.3538 C   0  0  0  0  0  0  0  0  0  0  0  0
   16.1540  -12.4713  -15.1718 S   0  0  0  0  0  0  0  0  0  0  0  0
   19.1797  -11.7330  -16.7392 C   0  0  0  0  0  0  0  0  0  0  0  0
   20.3816  -11.6980  -16.3127 O   0  0  0  0  0  0  0  0  0  0  0  0
   18.0678   -8.4441  -19.0796 C   0  0  0  0  0  0  0  0  0  0  0  0
   19.4985   -8.6747  -18.6402 C   0  0  1  0  0  0  0  0  0  0  0  0
   20.2801   -7.3922  -18.5965 C   0  0  0  0  0  0  0  0  0  0  0  0
   19.4544   -9.2729  -17.2509 C   0  0  2  0  0  0  0  0  0  0  0  0
   18.6689  -10.4973  -17.2249 N   0  0  0  0  0  0  0  0  0  0  0  0
   18.8917   -8.3231  -16.2631 C   0  0  0  0  0  0  0  0  0  0  0  0
   19.5289   -7.3024  -15.9091 O   0  0  0  0  0  0  0  0  0  0  0  0
   17.6442   -8.5355  -15.7016 O   0  0  0  0  0  0  0  0  0  0  0  0
  2  8  1  0
  2  1  1  1
  3  2  1  0
  4  3  1  0
  5  4  1  0
  6  7  1  0
  6  5  1  0
  8  9  2  0
 10 11  1  0
 10  8  1  0
 11 12  1  1
 13 12  1  0
 14 15  2  0
 14 11  1  0
 17 16  1  1
 17 19  1  0
 18 17  1  0
 19 20  1  6
 20 14  1  0
 21 23  1  0
 21 19  1  0
 22 21  2  0
M  END
$$$$
