KCV.pdb
     RDKit          3D

 23 22  0  0  1  0  0  0  0  0999 V2000
   22.3767  -14.6440  -17.7977 N   0  0  0  0  0  0  0  0  0  0  0  0
   22.0987  -13.3105  -18.2879 C   0  0  1  0  0  0  0  0  0  0  0  0
   20.6499  -13.1803  -18.6516 C   0  0  0  0  0  0  0  0  0  0  0  0
   20.3248  -14.0209  -19.8491 C   0  0  0  0  0  0  0  0  0  0  0  0
   19.8599  -15.4108  -19.4671 C   0  0  0  0  0  0  0  0  0  0  0  0
   19.4679  -16.1872  -20.7132 C   0  0  0  0  0  0  0  0  0  0  0  0
   19.0012  -17.5023  -20.3410 N   0  0  0  0  0  0  0  0  0  0  0  0
   22.5046  -12.3284  -17.2423 C   0  0  0  0  0  0  0  0  0  0  0  0
   22.1615  -12.5141  -16.0331 O   0  0  0  0  0  0  0  0  0  0  0  0
   23.2695  -11.1696  -17.5190 N   0  0  0  0  0  0  0  0  0  0  0  0
   23.7637  -10.2907  -16.4489 C   0  0  1  0  0  0  0  0  0  0  0  0
   25.2800  -10.2393  -16.4652 C   0  0  0  0  0  0  0  0  0  0  0  0
   25.9366   -9.4189  -14.9935 S   0  0  0  0  0  0  0  0  0  0  0  0
   23.1800   -8.9455  -16.6915 C   0  0  0  0  0  0  0  0  0  0  0  0
   23.4308   -8.2767  -17.7486 O   0  0  0  0  0  0  0  0  0  0  0  0
   20.1836   -7.7273  -17.5923 C   0  0  0  0  0  0  0  0  0  0  0  0
   20.3386   -6.9512  -16.3012 C   0  0  1  0  0  0  0  0  0  0  0  0
   19.5577   -7.5760  -15.1799 C   0  0  0  0  0  0  0  0  0  0  0  0
   21.8086   -6.9585  -15.9424 C   0  0  2  0  0  0  0  0  0  0  0  0
   22.3048   -8.3146  -15.7642 N   0  0  0  0  0  0  0  0  0  0  0  0
   22.0748   -6.1860  -14.7067 C   0  0  0  0  0  0  0  0  0  0  0  0
   22.0000   -4.9340  -14.6959 O   0  0  0  0  0  0  0  0  0  0  0  0
   22.4143   -6.8253  -13.5266 O   0  0  0  0  0  0  0  0  0  0  0  0
  2  8  1  0
  2  1  1  1
  3  2  1  0
  4  3  1  0
  5  4  1  0
  6  7  1  0
  6  5  1  0
  8  9  2  0
 10 11  1  0
 10  8  1  0
 11 12  1  6
 13 12  1  0
 14 15  2  0
 14 11  1  0
 17 16  1  6
 17 19  1  0
 18 17  1  0
 19 20  1  1
 20 14  1  0
 21 23  1  0
 21 19  1  0
 22 21  2  0
M  END
$$$$
