KCV.pdb
     RDKit          3D

 23 22  0  0  1  0  0  0  0  0999 V2000
   19.6154  -12.6705  -17.5521 N   0  0  0  0  0  0  0  0  0  0  0  0
   19.3742  -11.2431  -17.5612 C   0  0  1  0  0  0  0  0  0  0  0  0
   17.9226  -10.9581  -17.3174 C   0  0  0  0  0  0  0  0  0  0  0  0
   17.0906  -11.4022  -18.4822 C   0  0  0  0  0  0  0  0  0  0  0  0
   15.8602  -12.1724  -18.0497 C   0  0  0  0  0  0  0  0  0  0  0  0
   15.0092  -12.5132  -19.2617 C   0  0  0  0  0  0  0  0  0  0  0  0
   13.8190  -13.2141  -18.8396 N   0  0  0  0  0  0  0  0  0  0  0  0
   20.2501  -10.6092  -16.5348 C   0  0  0  0  0  0  0  0  0  0  0  0
   19.8916  -10.6005  -15.3159 O   0  0  0  0  0  0  0  0  0  0  0  0
   21.4906   -9.9993  -16.8406 N   0  0  0  0  0  0  0  0  0  0  0  0
   22.3418   -9.4044  -15.7997 C   0  0  1  0  0  0  0  0  0  0  0  0
   23.7749   -9.8778  -15.9544 C   0  0  0  0  0  0  0  0  0  0  0  0
   24.3292  -10.8134  -14.5096 S   0  0  0  0  0  0  0  0  0  0  0  0
   22.2458   -7.9293  -15.9550 C   0  0  0  0  0  0  0  0  0  0  0  0
   22.5282   -7.3418  -17.0516 O   0  0  0  0  0  0  0  0  0  0  0  0
   20.0461   -5.6082  -16.5773 C   0  0  0  0  0  0  0  0  0  0  0  0
   20.5263   -5.0334  -15.2612 C   0  0  1  0  0  0  0  0  0  0  0  0
   19.5997   -5.3822  -14.1312 C   0  0  0  0  0  0  0  0  0  0  0  0
   21.8909   -5.6241  -14.9804 C   0  0  2  0  0  0  0  0  0  0  0  0
   21.8336   -7.0753  -14.8944 N   0  0  0  0  0  0  0  0  0  0  0  0
   22.4696   -5.0934  -13.7242 C   0  0  0  0  0  0  0  0  0  0  0  0
   22.5034   -5.7892  -12.6811 O   0  0  0  0  0  0  0  0  0  0  0  0
   22.9905   -3.8121  -13.6657 O   0  0  0  0  0  0  0  0  0  0  0  0
  2  8  1  0
  2  1  1  1
  3  2  1  0
  4  3  1  0
  5  4  1  0
  6  7  1  0
  6  5  1  0
  8  9  2  0
 10 11  1  0
 10  8  1  0
 11 12  1  6
 13 12  1  0
 14 15  2  0
 14 11  1  0
 17 16  1  6
 17 19  1  0
 18 17  1  0
 19 20  1  1
 20 14  1  0
 21 23  1  0
 21 19  1  0
 22 21  2  0
M  END
$$$$
