KCV.pdb
     RDKit          3D

 23 22  0  0  1  0  0  0  0  0999 V2000
   26.3136  -33.2781  -12.9327 N   0  0  0  0  0  0  0  0  0  0  0  0
   25.7341  -34.0905  -11.8838 C   0  0  1  0  0  0  0  0  0  0  0  0
   26.2995  -35.4785  -11.9270 C   0  0  0  0  0  0  0  0  0  0  0  0
   25.6738  -36.2733  -13.0330 C   0  0  0  0  0  0  0  0  0  0  0  0
   24.5468  -37.1568  -12.5398 C   0  0  0  0  0  0  0  0  0  0  0  0
   24.9744  -38.6143  -12.5814 C   0  0  0  0  0  0  0  0  0  0  0  0
   23.8745  -39.4566  -12.1731 N   0  0  0  0  0  0  0  0  0  0  0  0
   25.9864  -33.4229  -10.5749 C   0  0  0  0  0  0  0  0  0  0  0  0
   27.0920  -32.8314  -10.3695 O   0  0  0  0  0  0  0  0  0  0  0  0
   25.0459  -33.4057   -9.5168 N   0  0  0  0  0  0  0  0  0  0  0  0
   25.3300  -32.7434   -8.2352 C   0  0  1  0  0  0  0  0  0  0  0  0
   24.0574  -32.1645   -7.6459 C   0  0  0  0  0  0  0  0  0  0  0  0
   24.3968  -31.1541   -6.1851 S   0  0  0  0  0  0  0  0  0  0  0  0
   25.9150  -33.7736   -7.3376 C   0  0  0  0  0  0  0  0  0  0  0  0
   25.4717  -34.9692   -7.2960 O   0  0  0  0  0  0  0  0  0  0  0  0
   28.8546  -32.8438   -4.3197 C   0  0  0  0  0  0  0  0  0  0  0  0
   28.9838  -34.1032   -5.1507 C   0  0  1  0  0  0  0  0  0  0  0  0
   29.5879  -35.2302   -4.3619 C   0  0  0  0  0  0  0  0  0  0  0  0
   27.5913  -34.4999   -5.5906 C   0  0  2  0  0  0  0  0  0  0  0  0
   27.0055  -33.4970   -6.4669 N   0  0  0  0  0  0  0  0  0  0  0  0
   26.6900  -34.7087   -4.4336 C   0  0  0  0  0  0  0  0  0  0  0  0
   26.6240  -35.8197   -3.8552 O   0  0  0  0  0  0  0  0  0  0  0  0
   25.8935  -33.6816   -3.9571 O   0  0  0  0  0  0  0  0  0  0  0  0
  2  8  1  0
  2  1  1  6
  3  2  1  0
  4  3  1  0
  5  4  1  0
  6  7  1  0
  6  5  1  0
  8  9  2  0
 10 11  1  0
 10  8  1  0
 11 12  1  1
 13 12  1  0
 14 15  2  0
 14 11  1  0
 17 16  1  1
 17 19  1  0
 18 17  1  0
 19 20  1  6
 20 14  1  0
 21 23  1  0
 21 19  1  0
 22 21  2  0
M  END
$$$$
