KCV.pdb
     RDKit          3D

 23 22  0  0  1  0  0  0  0  0999 V2000
   18.0587  -13.2304  -16.3145 N   0  0  0  0  0  0  0  0  0  0  0  0
   18.9387  -12.3276  -17.0260 C   0  0  1  0  0  0  0  0  0  0  0  0
   18.7425  -12.4669  -18.5060 C   0  0  0  0  0  0  0  0  0  0  0  0
   19.6153  -13.5531  -19.0581 C   0  0  0  0  0  0  0  0  0  0  0  0
   18.9702  -14.9193  -18.9512 C   0  0  0  0  0  0  0  0  0  0  0  0
   19.8678  -15.9676  -19.5872 C   0  0  0  0  0  0  0  0  0  0  0  0
   19.2106  -17.2534  -19.5591 N   0  0  0  0  0  0  0  0  0  0  0  0
   18.6734  -10.9387  -16.5536 C   0  0  0  0  0  0  0  0  0  0  0  0
   17.5777  -10.3682  -16.8509 O   0  0  0  0  0  0  0  0  0  0  0  0
   19.5905  -10.1944  -15.7730 N   0  0  0  0  0  0  0  0  0  0  0  0
   19.2450   -8.8808  -15.2101 C   0  0  1  0  0  0  0  0  0  0  0  0
   18.5491   -9.0457  -13.8719 C   0  0  0  0  0  0  0  0  0  0  0  0
   19.6192   -9.8514  -12.6571 S   0  0  0  0  0  0  0  0  0  0  0  0
   20.5173   -8.1267  -15.0624 C   0  0  0  0  0  0  0  0  0  0  0  0
   21.6324   -8.7101  -14.8530 O   0  0  0  0  0  0  0  0  0  0  0  0
   20.8885   -4.3249  -16.6303 C   0  0  0  0  0  0  0  0  0  0  0  0
   22.0852   -5.2177  -16.3771 C   0  0  1  0  0  0  0  0  0  0  0  0
   23.3523   -4.4225  -16.2375 C   0  0  0  0  0  0  0  0  0  0  0  0
   21.8273   -5.9650  -15.0868 C   0  0  2  0  0  0  0  0  0  0  0  0
   20.5775   -6.7077  -15.1442 N   0  0  0  0  0  0  0  0  0  0  0  0
   21.7863   -5.0500  -13.9225 C   0  0  0  0  0  0  0  0  0  0  0  0
   20.6953   -4.6541  -13.4469 O   0  0  0  0  0  0  0  0  0  0  0  0
   22.9533   -4.6049  -13.3252 O   0  0  0  0  0  0  0  0  0  0  0  0
  2  8  1  0
  2  1  1  1
  3  2  1  0
  4  3  1  0
  5  4  1  0
  6  7  1  0
  6  5  1  0
  8  9  2  0
 10 11  1  0
 10  8  1  0
 11 12  1  1
 13 12  1  0
 14 15  2  0
 14 11  1  0
 17 16  1  1
 17 19  1  0
 18 17  1  0
 19 20  1  6
 20 14  1  0
 21 23  1  0
 21 19  1  0
 22 21  2  0
M  END
$$$$
