FHH.pdb
     RDKit          3D

 32 34  0  0  1  0  0  0  0  0999 V2000
    5.4508  -15.6605   26.2340 N   0  0  0  0  0  0  0  0  0  0  0  0
    6.5778  -15.7837   25.3443 C   0  0  1  0  0  0  0  0  0  0  0  0
    7.7032  -14.8653   25.7914 C   0  0  0  0  0  0  0  0  0  0  0  0
    7.3167  -13.4556   25.7780 C   0  0  0  0  0  0  0  0  0  0  0  0
    7.4671  -12.7183   24.6293 C   0  0  0  0  0  0  0  0  0  0  0  0
    7.1139  -11.3753   24.5600 C   0  0  0  0  0  0  0  0  0  0  0  0
    6.6030  -10.7977   25.6885 C   0  0  0  0  0  0  0  0  0  0  0  0
    6.4336  -11.4945   26.8622 C   0  0  0  0  0  0  0  0  0  0  0  0
    6.7980  -12.8346   26.8924 C   0  0  0  0  0  0  0  0  0  0  0  0
    7.1327  -17.1592   25.2941 C   0  0  0  0  0  0  0  0  0  0  0  0
    7.5579  -17.7732   26.3065 O   0  0  0  0  0  0  0  0  0  0  0  0
    7.2112  -17.8807   24.0470 N   0  0  0  0  0  0  0  0  0  0  0  0
    7.8271  -19.1848   23.9673 C   0  0  1  0  0  0  0  0  0  0  0  0
    7.4951  -19.8593   22.6417 C   0  0  0  0  0  0  0  0  0  0  0  0
    8.0814  -21.2041   22.5499 C   0  0  0  0  0  0  0  0  0  0  0  0
    8.8862  -21.8042   23.4826 C   0  0  0  0  0  0  0  0  0  0  0  0
    9.2433  -23.0393   23.0748 N   0  0  0  0  0  0  0  0  0  0  0  0
    8.6504  -23.2026   21.8734 C   0  0  0  0  0  0  0  0  0  0  0  0
    7.9505  -22.1008   21.5538 N   0  0  0  0  0  0  0  0  0  0  0  0
    9.3009  -19.0396   24.1282 C   0  0  0  0  0  0  0  0  0  0  0  0
    9.9903  -18.6475   23.1603 O   0  0  0  0  0  0  0  0  0  0  0  0
    9.9627  -19.3306   25.3451 N   0  0  0  0  0  0  0  0  0  0  0  0
   11.4034  -19.3393   25.5422 C   0  0  1  0  0  0  0  0  0  0  0  0
   11.9897  -17.9795   25.4830 C   0  0  0  0  0  0  0  0  0  0  0  0
   12.0000  -17.4487   24.1134 C   0  0  0  0  0  0  0  0  0  0  0  0
   11.6065  -17.9953   22.9294 C   0  0  0  0  0  0  0  0  0  0  0  0
   11.8315  -17.1429   21.9123 N   0  0  0  0  0  0  0  0  0  0  0  0
   12.3720  -16.0441   22.4449 C   0  0  0  0  0  0  0  0  0  0  0  0
   12.4809  -16.2138   23.7807 N   0  0  0  0  0  0  0  0  0  0  0  0
   11.8341  -20.1902   26.6763 C   0  0  0  0  0  0  0  0  0  0  0  0
   10.9861  -20.7518   27.4091 O   0  0  0  0  0  0  0  0  0  0  0  0
   13.1706  -20.4111   26.9849 O   0  0  0  0  0  0  0  0  0  0  0  0
  2  1  1  1
  3  4  1  0
  3  2  1  0
  4  5  2  0
  5  6  1  0
  7  6  2  0
  8  7  1  0
  9  4  1  0
  9  8  2  0
 10 11  2  0
 10  2  1  0
 12 10  1  0
 13 12  1  0
 13 14  1  6
 14 15  1  0
 15 16  2  0
 15 19  1  0
 16 17  1  0
 17 18  1  0
 19 18  2  0
 20 13  1  0
 21 20  2  0
 22 20  1  0
 23 22  1  0
 24 25  1  0
 23 24  1  1
 25 29  1  0
 26 27  1  0
 26 25  2  0
 27 28  1  0
 28 29  2  0
 30 23  1  0
 30 32  1  0
 31 30  2  0
M  END
$$$$
