FHH.pdb
     RDKit          3D

 32 34  0  0  1  0  0  0  0  0999 V2000
    5.2368  -17.1356   23.8666 N   0  0  0  0  0  0  0  0  0  0  0  0
    6.1329  -16.0178   24.0231 C   0  0  1  0  0  0  0  0  0  0  0  0
    6.4128  -15.7709   25.4965 C   0  0  0  0  0  0  0  0  0  0  0  0
    6.6447  -14.3589   25.7954 C   0  0  0  0  0  0  0  0  0  0  0  0
    5.7843  -13.6885   26.6297 C   0  0  0  0  0  0  0  0  0  0  0  0
    5.9585  -12.3466   26.9496 C   0  0  0  0  0  0  0  0  0  0  0  0
    7.0304  -11.7006   26.4002 C   0  0  0  0  0  0  0  0  0  0  0  0
    7.9193  -12.3289   25.5595 C   0  0  0  0  0  0  0  0  0  0  0  0
    7.7120  -13.6702   25.2635 C   0  0  0  0  0  0  0  0  0  0  0  0
    7.4442  -16.2252   23.3600 C   0  0  0  0  0  0  0  0  0  0  0  0
    8.0091  -17.3461   23.2748 O   0  0  0  0  0  0  0  0  0  0  0  0
    8.1541  -15.1206   22.7615 N   0  0  0  0  0  0  0  0  0  0  0  0
    9.3448  -15.3287   21.9708 C   0  0  1  0  0  0  0  0  0  0  0  0
    9.5619  -14.1696   21.0055 C   0  0  0  0  0  0  0  0  0  0  0  0
    8.6083  -14.2024   19.8873 C   0  0  0  0  0  0  0  0  0  0  0  0
    7.7509  -13.1979   19.5219 C   0  0  0  0  0  0  0  0  0  0  0  0
    7.0195  -13.5667   18.4503 N   0  0  0  0  0  0  0  0  0  0  0  0
    7.4318  -14.8165   18.1512 C   0  0  0  0  0  0  0  0  0  0  0  0
    8.3876  -15.2028   19.0134 N   0  0  0  0  0  0  0  0  0  0  0  0
   10.5147  -15.4810   22.8803 C   0  0  0  0  0  0  0  0  0  0  0  0
   11.0882  -14.4604   23.3220 O   0  0  0  0  0  0  0  0  0  0  0  0
   11.0113  -16.7478   23.2705 N   0  0  0  0  0  0  0  0  0  0  0  0
   12.2216  -16.9795   24.0423 C   0  0  1  0  0  0  0  0  0  0  0  0
   12.1452  -18.2169   24.8545 C   0  0  0  0  0  0  0  0  0  0  0  0
   11.0593  -18.1556   25.8419 C   0  0  0  0  0  0  0  0  0  0  0  0
   10.5491  -17.1170   26.5606 C   0  0  0  0  0  0  0  0  0  0  0  0
    9.5658  -17.5393   27.3769 N   0  0  0  0  0  0  0  0  0  0  0  0
    9.4436  -18.8548   27.1819 C   0  0  0  0  0  0  0  0  0  0  0  0
   10.3435  -19.2444   26.2527 N   0  0  0  0  0  0  0  0  0  0  0  0
   13.4631  -16.7866   23.2567 C   0  0  0  0  0  0  0  0  0  0  0  0
   13.4187  -16.6973   22.0072 O   0  0  0  0  0  0  0  0  0  0  0  0
   14.7182  -16.6940   23.8454 O   0  0  0  0  0  0  0  0  0  0  0  0
  2  1  1  1
  3  4  1  0
  3  2  1  0
  4  5  2  0
  5  6  1  0
  7  6  2  0
  8  7  1  0
  9  4  1  0
  9  8  2  0
 10 11  2  0
 10  2  1  0
 12 10  1  0
 13 12  1  0
 13 14  1  6
 14 15  1  0
 15 16  2  0
 15 19  1  0
 16 17  1  0
 17 18  1  0
 19 18  2  0
 20 13  1  0
 21 20  2  0
 22 20  1  0
 23 22  1  0
 24 25  1  0
 23 24  1  6
 25 29  1  0
 26 27  1  0
 26 25  2  0
 27 28  1  0
 28 29  2  0
 30 23  1  0
 30 32  1  0
 31 30  2  0
M  END
$$$$
