FHH.pdb
     RDKit          3D

 32 34  0  0  1  0  0  0  0  0999 V2000
    8.8604  -15.1425   15.6071 N   0  0  0  0  0  0  0  0  0  0  0  0
    9.1372  -14.5546   16.8935 C   0  0  1  0  0  0  0  0  0  0  0  0
    7.8700  -14.5024   17.7310 C   0  0  0  0  0  0  0  0  0  0  0  0
    8.0907  -13.9061   19.0473 C   0  0  0  0  0  0  0  0  0  0  0  0
    7.9159  -14.6657   20.1779 C   0  0  0  0  0  0  0  0  0  0  0  0
    8.1143  -14.1504   21.4540 C   0  0  0  0  0  0  0  0  0  0  0  0
    8.4954  -12.8417   21.5542 C   0  0  0  0  0  0  0  0  0  0  0  0
    8.6831  -12.0411   20.4517 C   0  0  0  0  0  0  0  0  0  0  0  0
    8.4753  -12.5918   19.1934 C   0  0  0  0  0  0  0  0  0  0  0  0
   10.1449  -15.3128   17.6758 C   0  0  0  0  0  0  0  0  0  0  0  0
   10.1222  -16.5636   17.8089 O   0  0  0  0  0  0  0  0  0  0  0  0
   11.2318  -14.6334   18.3384 N   0  0  0  0  0  0  0  0  0  0  0  0
   12.3491  -15.3608   18.8943 C   0  0  1  0  0  0  0  0  0  0  0  0
   13.6651  -14.8546   18.3161 C   0  0  0  0  0  0  0  0  0  0  0  0
   13.9383  -15.4301   16.9914 C   0  0  0  0  0  0  0  0  0  0  0  0
   13.7538  -14.8103   15.7833 C   0  0  0  0  0  0  0  0  0  0  0  0
   14.1073  -15.6301   14.7721 N   0  0  0  0  0  0  0  0  0  0  0  0
   14.5152  -16.7715   15.3656 C   0  0  0  0  0  0  0  0  0  0  0  0
   14.4151  -16.6554   16.7007 N   0  0  0  0  0  0  0  0  0  0  0  0
   12.3368  -15.2165   20.3770 C   0  0  0  0  0  0  0  0  0  0  0  0
   12.4226  -14.0764   20.8854 O   0  0  0  0  0  0  0  0  0  0  0  0
   12.2312  -16.3290   21.2457 N   0  0  0  0  0  0  0  0  0  0  0  0
   12.4668  -16.3059   22.6804 C   0  0  1  0  0  0  0  0  0  0  0  0
   11.8439  -17.4583   23.3735 C   0  0  0  0  0  0  0  0  0  0  0  0
   10.4076  -17.5591   23.0822 C   0  0  0  0  0  0  0  0  0  0  0  0
    9.5205  -16.6527   22.5854 C   0  0  0  0  0  0  0  0  0  0  0  0
    8.2857  -17.1834   22.5139 N   0  0  0  0  0  0  0  0  0  0  0  0
    8.3797  -18.4362   22.9668 C   0  0  0  0  0  0  0  0  0  0  0  0
    9.6618  -18.6799   23.3159 N   0  0  0  0  0  0  0  0  0  0  0  0
   13.8736  -16.0081   23.0381 C   0  0  0  0  0  0  0  0  0  0  0  0
   14.7634  -15.9821   22.1555 O   0  0  0  0  0  0  0  0  0  0  0  0
   14.2781  -15.7449   24.3410 O   0  0  0  0  0  0  0  0  0  0  0  0
  2  1  1  6
  3  4  1  0
  3  2  1  0
  4  5  2  0
  5  6  1  0
  7  6  2  0
  8  7  1  0
  9  4  1  0
  9  8  2  0
 10 11  2  0
 10  2  1  0
 12 10  1  0
 13 12  1  0
 13 14  1  6
 14 15  1  0
 15 16  2  0
 15 19  1  0
 16 17  1  0
 17 18  1  0
 19 18  2  0
 20 13  1  0
 21 20  2  0
 22 20  1  0
 23 22  1  0
 24 25  1  0
 23 24  1  6
 25 29  1  0
 26 27  1  0
 26 25  2  0
 27 28  1  0
 28 29  2  0
 30 23  1  0
 30 32  1  0
 31 30  2  0
M  END
$$$$
