FHH.pdb
     RDKit          3D

 32 34  0  0  1  0  0  0  0  0999 V2000
    7.7663  -16.5113   17.9593 N   0  0  0  0  0  0  0  0  0  0  0  0
    8.9388  -16.6961   18.7768 C   0  0  1  0  0  0  0  0  0  0  0  0
    9.6994  -15.3868   18.9083 C   0  0  0  0  0  0  0  0  0  0  0  0
    8.8899  -14.3239   19.5013 C   0  0  0  0  0  0  0  0  0  0  0  0
    9.0222  -14.0303   20.8362 C   0  0  0  0  0  0  0  0  0  0  0  0
    8.2794  -13.0286   21.4511 C   0  0  0  0  0  0  0  0  0  0  0  0
    7.3967  -12.3306   20.6754 C   0  0  0  0  0  0  0  0  0  0  0  0
    7.2288  -12.5877   19.3347 C   0  0  0  0  0  0  0  0  0  0  0  0
    7.9890  -13.5962   18.7561 C   0  0  0  0  0  0  0  0  0  0  0  0
    8.6234  -17.1561   20.1520 C   0  0  0  0  0  0  0  0  0  0  0  0
    7.4754  -17.0845   20.6614 O   0  0  0  0  0  0  0  0  0  0  0  0
    9.6465  -17.7264   20.9947 N   0  0  0  0  0  0  0  0  0  0  0  0
    9.3154  -18.4350   22.2090 C   0  0  1  0  0  0  0  0  0  0  0  0
    9.9463  -19.8222   22.2144 C   0  0  0  0  0  0  0  0  0  0  0  0
    9.5427  -20.6024   23.3930 C   0  0  0  0  0  0  0  0  0  0  0  0
    8.6599  -20.2081   24.3642 C   0  0  0  0  0  0  0  0  0  0  0  0
    8.5224  -21.1718   25.2979 N   0  0  0  0  0  0  0  0  0  0  0  0
    9.3322  -22.1741   24.8966 C   0  0  0  0  0  0  0  0  0  0  0  0
    9.9479  -21.8357   23.7511 N   0  0  0  0  0  0  0  0  0  0  0  0
    9.7818  -17.6413   23.3803 C   0  0  0  0  0  0  0  0  0  0  0  0
   10.8911  -17.0646   23.3309 O   0  0  0  0  0  0  0  0  0  0  0  0
    9.0132  -17.5109   24.5617 N   0  0  0  0  0  0  0  0  0  0  0  0
    9.4417  -16.8400   25.7785 C   0  0  1  0  0  0  0  0  0  0  0  0
    8.3219  -16.1624   26.4740 C   0  0  0  0  0  0  0  0  0  0  0  0
    7.6028  -15.2423   25.5830 C   0  0  0  0  0  0  0  0  0  0  0  0
    7.6607  -13.8884   25.4446 C   0  0  0  0  0  0  0  0  0  0  0  0
    6.7878  -13.4665   24.5110 N   0  0  0  0  0  0  0  0  0  0  0  0
    6.1663  -14.5538   24.0475 C   0  0  0  0  0  0  0  0  0  0  0  0
    6.6499  -15.6404   24.6883 N   0  0  0  0  0  0  0  0  0  0  0  0
   10.3313  -17.6710   26.6233 C   0  0  0  0  0  0  0  0  0  0  0  0
   10.7801  -17.2257   27.7058 O   0  0  0  0  0  0  0  0  0  0  0  0
   10.7092  -18.9616   26.2740 O   0  0  0  0  0  0  0  0  0  0  0  0
  2  1  1  6
  3  4  1  0
  3  2  1  0
  4  5  2  0
  5  6  1  0
  7  6  2  0
  8  7  1  0
  9  4  1  0
  9  8  2  0
 10 11  2  0
 10  2  1  0
 12 10  1  0
 13 12  1  0
 13 14  1  6
 14 15  1  0
 15 16  2  0
 15 19  1  0
 16 17  1  0
 17 18  1  0
 19 18  2  0
 20 13  1  0
 21 20  2  0
 22 20  1  0
 23 22  1  0
 24 25  1  0
 23 24  1  1
 25 29  1  0
 26 27  1  0
 26 25  2  0
 27 28  1  0
 28 29  2  0
 30 23  1  0
 30 32  1  0
 31 30  2  0
M  END
$$$$
