FHH.pdb
     RDKit          3D

 32 34  0  0  1  0  0  0  0  0999 V2000
    7.6026  -16.7006   21.5132 N   0  0  0  0  0  0  0  0  0  0  0  0
    8.9810  -16.5774   21.9153 C   0  0  1  0  0  0  0  0  0  0  0  0
    9.6125  -15.3596   21.2607 C   0  0  0  0  0  0  0  0  0  0  0  0
    8.6337  -14.3212   20.9438 C   0  0  0  0  0  0  0  0  0  0  0  0
    8.6571  -13.1307   21.6278 C   0  0  0  0  0  0  0  0  0  0  0  0
    7.7518  -12.1084   21.3659 C   0  0  0  0  0  0  0  0  0  0  0  0
    6.8198  -12.3251   20.3899 C   0  0  0  0  0  0  0  0  0  0  0  0
    6.7565  -13.5001   19.6777 C   0  0  0  0  0  0  0  0  0  0  0  0
    7.6781  -14.4980   19.9681 C   0  0  0  0  0  0  0  0  0  0  0  0
    9.1483  -16.4191   23.3813 C   0  0  0  0  0  0  0  0  0  0  0  0
    9.9976  -15.6522   23.9040 O   0  0  0  0  0  0  0  0  0  0  0  0
    8.3197  -17.1560   24.3047 N   0  0  0  0  0  0  0  0  0  0  0  0
    8.5390  -17.0926   25.7309 C   0  0  1  0  0  0  0  0  0  0  0  0
    7.4358  -16.2919   26.4123 C   0  0  0  0  0  0  0  0  0  0  0  0
    7.4287  -14.8883   25.9757 C   0  0  0  0  0  0  0  0  0  0  0  0
    6.3797  -14.2237   25.3962 C   0  0  0  0  0  0  0  0  0  0  0  0
    6.7208  -12.9474   25.1239 N   0  0  0  0  0  0  0  0  0  0  0  0
    7.9983  -12.8238   25.5413 C   0  0  0  0  0  0  0  0  0  0  0  0
    8.4280  -13.9892   26.0543 N   0  0  0  0  0  0  0  0  0  0  0  0
    8.5978  -18.4769   26.2781 C   0  0  0  0  0  0  0  0  0  0  0  0
    7.5887  -18.9612   26.8375 O   0  0  0  0  0  0  0  0  0  0  0  0
    9.7619  -19.2774   26.1911 N   0  0  0  0  0  0  0  0  0  0  0  0
   10.6615  -19.5828   27.2919 C   0  0  1  0  0  0  0  0  0  0  0  0
   12.0277  -19.0538   27.0680 C   0  0  0  0  0  0  0  0  0  0  0  0
   12.5216  -19.3699   25.7212 C   0  0  0  0  0  0  0  0  0  0  0  0
   11.9809  -20.1049   24.7098 C   0  0  0  0  0  0  0  0  0  0  0  0
   12.8136  -20.1478   23.6533 N   0  0  0  0  0  0  0  0  0  0  0  0
   13.8940  -19.4374   23.9872 C   0  0  0  0  0  0  0  0  0  0  0  0
   13.7323  -18.9582   25.2399 N   0  0  0  0  0  0  0  0  0  0  0  0
   10.0671  -19.3211   28.6237 C   0  0  0  0  0  0  0  0  0  0  0  0
    9.6849  -18.1686   28.9353 O   0  0  0  0  0  0  0  0  0  0  0  0
    9.9013  -20.3144   29.5810 O   0  0  0  0  0  0  0  0  0  0  0  0
  2  1  1  1
  3  4  1  0
  3  2  1  0
  4  5  2  0
  5  6  1  0
  7  6  2  0
  8  7  1  0
  9  4  1  0
  9  8  2  0
 10 11  2  0
 10  2  1  0
 12 10  1  0
 13 12  1  0
 13 14  1  1
 14 15  1  0
 15 16  2  0
 15 19  1  0
 16 17  1  0
 17 18  1  0
 19 18  2  0
 20 13  1  0
 21 20  2  0
 22 20  1  0
 23 22  1  0
 24 25  1  0
 23 24  1  6
 25 29  1  0
 26 27  1  0
 26 25  2  0
 27 28  1  0
 28 29  2  0
 30 23  1  0
 30 32  1  0
 31 30  2  0
M  END
$$$$
