FHH.pdb
     RDKit          3D

 32 34  0  0  1  0  0  0  0  0999 V2000
    6.1414  -16.4886   23.2475 N   0  0  0  0  0  0  0  0  0  0  0  0
    7.2723  -15.7650   23.7717 C   0  0  1  0  0  0  0  0  0  0  0  0
    7.0053  -15.3404   25.2065 C   0  0  0  0  0  0  0  0  0  0  0  0
    6.6787  -13.9201   25.3205 C   0  0  0  0  0  0  0  0  0  0  0  0
    7.5005  -12.9832   24.7438 C   0  0  0  0  0  0  0  0  0  0  0  0
    7.2367  -11.6201   24.8194 C   0  0  0  0  0  0  0  0  0  0  0  0
    6.1152  -11.2307   25.4967 C   0  0  0  0  0  0  0  0  0  0  0  0
    5.2619  -12.1311   26.0907 C   0  0  0  0  0  0  0  0  0  0  0  0
    5.5590  -13.4846   25.9936 C   0  0  0  0  0  0  0  0  0  0  0  0
    8.5224  -16.5646   23.7800 C   0  0  0  0  0  0  0  0  0  0  0  0
    8.5491  -17.8086   23.9653 O   0  0  0  0  0  0  0  0  0  0  0  0
    9.8041  -15.9368   23.5674 N   0  0  0  0  0  0  0  0  0  0  0  0
   11.0225  -16.7103   23.5081 C   0  0  1  0  0  0  0  0  0  0  0  0
   11.9432  -16.1854   22.4131 C   0  0  0  0  0  0  0  0  0  0  0  0
   11.4178  -16.4741   21.0710 C   0  0  0  0  0  0  0  0  0  0  0  0
   10.2877  -17.1920   20.7789 C   0  0  0  0  0  0  0  0  0  0  0  0
   10.1026  -17.2606   19.4446 N   0  0  0  0  0  0  0  0  0  0  0  0
   11.1335  -16.5754   18.9067 C   0  0  0  0  0  0  0  0  0  0  0  0
   11.9271  -16.1006   19.8818 N   0  0  0  0  0  0  0  0  0  0  0  0
   11.6997  -16.6574   24.8339 C   0  0  0  0  0  0  0  0  0  0  0  0
   11.7730  -15.5679   25.4448 O   0  0  0  0  0  0  0  0  0  0  0  0
   12.2712  -17.8022   25.4392 N   0  0  0  0  0  0  0  0  0  0  0  0
   12.2598  -18.1001   26.8623 C   0  0  1  0  0  0  0  0  0  0  0  0
   10.9641  -17.7652   27.4990 C   0  0  0  0  0  0  0  0  0  0  0  0
   10.9612  -16.4021   28.0467 C   0  0  0  0  0  0  0  0  0  0  0  0
   11.9212  -15.4361   28.0715 C   0  0  0  0  0  0  0  0  0  0  0  0
   11.4782  -14.3396   28.7142 N   0  0  0  0  0  0  0  0  0  0  0  0
   10.2283  -14.6022   29.1041 C   0  0  0  0  0  0  0  0  0  0  0  0
    9.8993  -15.8506   28.7064 N   0  0  0  0  0  0  0  0  0  0  0  0
   12.8251  -19.4308   27.1867 C   0  0  0  0  0  0  0  0  0  0  0  0
   12.6619  -20.3992   26.4075 O   0  0  0  0  0  0  0  0  0  0  0  0
   13.5529  -19.6764   28.3444 O   0  0  0  0  0  0  0  0  0  0  0  0
  2  1  1  1
  3  4  1  0
  3  2  1  0
  4  5  2  0
  5  6  1  0
  7  6  2  0
  8  7  1  0
  9  4  1  0
  9  8  2  0
 10 11  2  0
 10  2  1  0
 12 10  1  0
 13 12  1  0
 13 14  1  6
 14 15  1  0
 15 16  2  0
 15 19  1  0
 16 17  1  0
 17 18  1  0
 19 18  2  0
 20 13  1  0
 21 20  2  0
 22 20  1  0
 23 22  1  0
 24 25  1  0
 23 24  1  6
 25 29  1  0
 26 27  1  0
 26 25  2  0
 27 28  1  0
 28 29  2  0
 30 23  1  0
 30 32  1  0
 31 30  2  0
M  END
$$$$
