FHH.pdb
     RDKit          3D

 32 34  0  0  1  0  0  0  0  0999 V2000
    7.9861  -15.5223   21.5939 N   0  0  0  0  0  0  0  0  0  0  0  0
    7.9964  -15.1869   22.9955 C   0  0  1  0  0  0  0  0  0  0  0  0
    7.2517  -13.8827   23.2292 C   0  0  0  0  0  0  0  0  0  0  0  0
    7.3457  -13.4224   24.6135 C   0  0  0  0  0  0  0  0  0  0  0  0
    8.5789  -13.2100   25.1790 C   0  0  0  0  0  0  0  0  0  0  0  0
    8.7265  -12.7706   26.4899 C   0  0  0  0  0  0  0  0  0  0  0  0
    7.5884  -12.5516   27.2143 C   0  0  0  0  0  0  0  0  0  0  0  0
    6.3315  -12.7500   26.6921 C   0  0  0  0  0  0  0  0  0  0  0  0
    6.2247  -13.1895   25.3786 C   0  0  0  0  0  0  0  0  0  0  0  0
    7.3483  -16.2164   23.8455 C   0  0  0  0  0  0  0  0  0  0  0  0
    6.1706  -16.1189   24.2770 O   0  0  0  0  0  0  0  0  0  0  0  0
    8.0564  -17.4143   24.2270 N   0  0  0  0  0  0  0  0  0  0  0  0
    7.3996  -18.4837   24.9420 C   0  0  1  0  0  0  0  0  0  0  0  0
    7.1305  -19.6658   24.0188 C   0  0  0  0  0  0  0  0  0  0  0  0
    6.3955  -19.2615   22.8117 C   0  0  0  0  0  0  0  0  0  0  0  0
    5.0571  -18.9780   22.7332 C   0  0  0  0  0  0  0  0  0  0  0  0
    4.7183  -18.6402   21.4720 N   0  0  0  0  0  0  0  0  0  0  0  0
    5.8642  -18.7169   20.7632 C   0  0  0  0  0  0  0  0  0  0  0  0
    6.8756  -19.0903   21.5654 N   0  0  0  0  0  0  0  0  0  0  0  0
    8.2516  -18.8983   26.0915 C   0  0  0  0  0  0  0  0  0  0  0  0
    7.9081  -19.8772   26.7910 O   0  0  0  0  0  0  0  0  0  0  0  0
    9.4484  -18.2226   26.4302 N   0  0  0  0  0  0  0  0  0  0  0  0
   10.4009  -18.6476   27.4433 C   0  0  1  0  0  0  0  0  0  0  0  0
   11.7845  -18.2154   27.1342 C   0  0  0  0  0  0  0  0  0  0  0  0
   12.2209  -18.6856   25.8128 C   0  0  0  0  0  0  0  0  0  0  0  0
   11.8454  -19.7620   25.0672 C   0  0  0  0  0  0  0  0  0  0  0  0
   12.5433  -19.8129   23.9175 N   0  0  0  0  0  0  0  0  0  0  0  0
   13.3708  -18.7648   23.9243 C   0  0  0  0  0  0  0  0  0  0  0  0
   13.1873  -18.0702   25.0684 N   0  0  0  0  0  0  0  0  0  0  0  0
    9.9316  -18.4036   28.8274 C   0  0  0  0  0  0  0  0  0  0  0  0
    8.8544  -17.7977   29.0372 O   0  0  0  0  0  0  0  0  0  0  0  0
   10.6403  -18.8236   29.9463 O   0  0  0  0  0  0  0  0  0  0  0  0
  2  1  1  6
  3  4  1  0
  3  2  1  0
  4  5  2  0
  5  6  1  0
  7  6  2  0
  8  7  1  0
  9  4  1  0
  9  8  2  0
 10 11  2  0
 10  2  1  0
 12 10  1  0
 13 12  1  0
 13 14  1  6
 14 15  1  0
 15 16  2  0
 15 19  1  0
 16 17  1  0
 17 18  1  0
 19 18  2  0
 20 13  1  0
 21 20  2  0
 22 20  1  0
 23 22  1  0
 24 25  1  0
 23 24  1  6
 25 29  1  0
 26 27  1  0
 26 25  2  0
 27 28  1  0
 28 29  2  0
 30 23  1  0
 30 32  1  0
 31 30  2  0
M  END
$$$$
