FHH.pdb
     RDKit          3D

 32 34  0  0  1  0  0  0  0  0999 V2000
    8.3342  -16.8589   16.7143 N   0  0  0  0  0  0  0  0  0  0  0  0
    8.7185  -15.7343   17.5295 C   0  0  1  0  0  0  0  0  0  0  0  0
    7.4990  -15.1423   18.2169 C   0  0  0  0  0  0  0  0  0  0  0  0
    7.8304  -13.9934   19.0577 C   0  0  0  0  0  0  0  0  0  0  0  0
    8.1556  -12.7933   18.4750 C   0  0  0  0  0  0  0  0  0  0  0  0
    8.4768  -11.6683   19.2264 C   0  0  0  0  0  0  0  0  0  0  0  0
    8.4597  -11.7922   20.5874 C   0  0  0  0  0  0  0  0  0  0  0  0
    8.1405  -12.9726   21.2171 C   0  0  0  0  0  0  0  0  0  0  0  0
    7.8252  -14.0747   20.4325 C   0  0  0  0  0  0  0  0  0  0  0  0
    9.6879  -16.0914   18.5949 C   0  0  0  0  0  0  0  0  0  0  0  0
    9.7911  -17.2475   19.0800 O   0  0  0  0  0  0  0  0  0  0  0  0
   10.5864  -15.1025   19.1399 N   0  0  0  0  0  0  0  0  0  0  0  0
   11.9995  -15.3649   19.2836 C   0  0  1  0  0  0  0  0  0  0  0  0
   12.8228  -14.2834   18.5945 C   0  0  0  0  0  0  0  0  0  0  0  0
   14.2664  -14.5291   18.7231 C   0  0  0  0  0  0  0  0  0  0  0  0
   14.8565  -15.5625   19.4024 C   0  0  0  0  0  0  0  0  0  0  0  0
   16.2000  -15.4813   19.3131 N   0  0  0  0  0  0  0  0  0  0  0  0
   16.4412  -14.3819   18.5684 C   0  0  0  0  0  0  0  0  0  0  0  0
   15.2806  -13.8060   18.2114 N   0  0  0  0  0  0  0  0  0  0  0  0
   12.3377  -15.4391   20.7325 C   0  0  0  0  0  0  0  0  0  0  0  0
   13.5290  -15.3133   21.0940 O   0  0  0  0  0  0  0  0  0  0  0  0
   11.3557  -15.6489   21.7301 N   0  0  0  0  0  0  0  0  0  0  0  0
   11.3492  -16.7380   22.6935 C   0  0  1  0  0  0  0  0  0  0  0  0
   10.4207  -17.8271   22.3083 C   0  0  0  0  0  0  0  0  0  0  0  0
    9.0174  -17.3993   22.3815 C   0  0  0  0  0  0  0  0  0  0  0  0
    8.2430  -17.0167   23.4348 C   0  0  0  0  0  0  0  0  0  0  0  0
    6.9907  -16.7361   23.0291 N   0  0  0  0  0  0  0  0  0  0  0  0
    6.9602  -16.9393   21.7096 C   0  0  0  0  0  0  0  0  0  0  0  0
    8.1831  -17.3423   21.3009 N   0  0  0  0  0  0  0  0  0  0  0  0
   12.7071  -17.1533   23.1170 C   0  0  0  0  0  0  0  0  0  0  0  0
   13.1865  -16.7506   24.2029 O   0  0  0  0  0  0  0  0  0  0  0  0
   13.5079  -17.9943   22.3542 O   0  0  0  0  0  0  0  0  0  0  0  0
  2  1  1  1
  3  4  1  0
  3  2  1  0
  4  5  2  0
  5  6  1  0
  7  6  2  0
  8  7  1  0
  9  4  1  0
  9  8  2  0
 10 11  2  0
 10  2  1  0
 12 10  1  0
 13 12  1  0
 13 14  1  1
 14 15  1  0
 15 16  2  0
 15 19  1  0
 16 17  1  0
 17 18  1  0
 19 18  2  0
 20 13  1  0
 21 20  2  0
 22 20  1  0
 23 22  1  0
 24 25  1  0
 23 24  1  6
 25 29  1  0
 26 27  1  0
 26 25  2  0
 27 28  1  0
 28 29  2  0
 30 23  1  0
 30 32  1  0
 31 30  2  0
M  END
$$$$
