FHH.pdb
     RDKit          3D

 32 34  0  0  1  0  0  0  0  0999 V2000
    5.3955  -17.1561   24.1363 N   0  0  0  0  0  0  0  0  0  0  0  0
    6.3145  -16.0633   24.3320 C   0  0  1  0  0  0  0  0  0  0  0  0
    6.6198  -15.8919   25.8110 C   0  0  0  0  0  0  0  0  0  0  0  0
    6.9120  -14.5046   26.1672 C   0  0  0  0  0  0  0  0  0  0  0  0
    8.1830  -14.1520   26.5493 C   0  0  0  0  0  0  0  0  0  0  0  0
    8.5168  -12.8476   26.8962 C   0  0  0  0  0  0  0  0  0  0  0  0
    7.5259  -11.9076   26.8456 C   0  0  0  0  0  0  0  0  0  0  0  0
    6.2385  -12.2119   26.4692 C   0  0  0  0  0  0  0  0  0  0  0  0
    5.9436  -13.5262   26.1298 C   0  0  0  0  0  0  0  0  0  0  0  0
    7.6121  -16.2624   23.6401 C   0  0  0  0  0  0  0  0  0  0  0  0
    8.2275  -17.3596   23.6217 O   0  0  0  0  0  0  0  0  0  0  0  0
    8.2480  -15.1774   22.9326 N   0  0  0  0  0  0  0  0  0  0  0  0
    9.5262  -15.3475   22.2819 C   0  0  1  0  0  0  0  0  0  0  0  0
    9.7253  -14.2948   21.1981 C   0  0  0  0  0  0  0  0  0  0  0  0
    8.7642  -14.4539   20.0973 C   0  0  0  0  0  0  0  0  0  0  0  0
    7.8684  -15.4795   19.9437 C   0  0  0  0  0  0  0  0  0  0  0  0
    7.1406  -15.3078   18.8211 N   0  0  0  0  0  0  0  0  0  0  0  0
    7.5946  -14.1601   18.2750 C   0  0  0  0  0  0  0  0  0  0  0  0
    8.5714  -13.6432   19.0395 N   0  0  0  0  0  0  0  0  0  0  0  0
   10.6087  -15.2625   23.3018 C   0  0  0  0  0  0  0  0  0  0  0  0
   11.0131  -14.1398   23.6784 O   0  0  0  0  0  0  0  0  0  0  0  0
   11.2068  -16.4128   23.8697 N   0  0  0  0  0  0  0  0  0  0  0  0
   11.5482  -16.5821   25.2729 C   0  0  1  0  0  0  0  0  0  0  0  0
   10.4630  -16.1318   26.1764 C   0  0  0  0  0  0  0  0  0  0  0  0
   10.8197  -16.3116   27.5899 C   0  0  0  0  0  0  0  0  0  0  0  0
   11.9145  -16.8648   28.1824 C   0  0  0  0  0  0  0  0  0  0  0  0
   11.7957  -16.8392   29.5228 N   0  0  0  0  0  0  0  0  0  0  0  0
   10.6195  -16.2673   29.7929 C   0  0  0  0  0  0  0  0  0  0  0  0
   10.0146  -15.9410   28.6298 N   0  0  0  0  0  0  0  0  0  0  0  0
   12.1465  -17.9036   25.5748 C   0  0  0  0  0  0  0  0  0  0  0  0
   11.6370  -18.9532   25.1161 O   0  0  0  0  0  0  0  0  0  0  0  0
   13.2808  -18.0527   26.3632 O   0  0  0  0  0  0  0  0  0  0  0  0
  2  1  1  1
  3  4  1  0
  3  2  1  0
  4  5  2  0
  5  6  1  0
  7  6  2  0
  8  7  1  0
  9  4  1  0
  9  8  2  0
 10 11  2  0
 10  2  1  0
 12 10  1  0
 13 12  1  0
 13 14  1  6
 14 15  1  0
 15 16  2  0
 15 19  1  0
 16 17  1  0
 17 18  1  0
 19 18  2  0
 20 13  1  0
 21 20  2  0
 22 20  1  0
 23 22  1  0
 24 25  1  0
 23 24  1  1
 25 29  1  0
 26 27  1  0
 26 25  2  0
 27 28  1  0
 28 29  2  0
 30 23  1  0
 30 32  1  0
 31 30  2  0
M  END
$$$$
