FHH.pdb
     RDKit          3D

 32 34  0  0  1  0  0  0  0  0999 V2000
    6.0495  -16.3073   23.1242 N   0  0  0  0  0  0  0  0  0  0  0  0
    7.2262  -15.8395   23.8125 C   0  0  1  0  0  0  0  0  0  0  0  0
    6.8933  -15.5107   25.2586 C   0  0  0  0  0  0  0  0  0  0  0  0
    6.8593  -14.0718   25.5140 C   0  0  0  0  0  0  0  0  0  0  0  0
    8.0329  -13.3862   25.7097 C   0  0  0  0  0  0  0  0  0  0  0  0
    8.0590  -12.0176   25.9539 C   0  0  0  0  0  0  0  0  0  0  0  0
    6.8612  -11.3606   25.9948 C   0  0  0  0  0  0  0  0  0  0  0  0
    5.6601  -12.0033   25.8050 C   0  0  0  0  0  0  0  0  0  0  0  0
    5.6747  -13.3712   25.5634 C   0  0  0  0  0  0  0  0  0  0  0  0
    8.3236  -16.8383   23.8349 C   0  0  0  0  0  0  0  0  0  0  0  0
    8.1317  -18.0778   23.9316 O   0  0  0  0  0  0  0  0  0  0  0  0
    9.7029  -16.4248   23.7417 N   0  0  0  0  0  0  0  0  0  0  0  0
   10.7781  -17.3883   23.6993 C   0  0  1  0  0  0  0  0  0  0  0  0
   11.9284  -16.8772   22.8403 C   0  0  0  0  0  0  0  0  0  0  0  0
   11.5764  -16.8512   21.4133 C   0  0  0  0  0  0  0  0  0  0  0  0
   10.8521  -17.7988   20.7386 C   0  0  0  0  0  0  0  0  0  0  0  0
   10.7168  -17.4557   19.4411 N   0  0  0  0  0  0  0  0  0  0  0  0
   11.3673  -16.2799   19.3145 C   0  0  0  0  0  0  0  0  0  0  0  0
   11.8859  -15.9128   20.4986 N   0  0  0  0  0  0  0  0  0  0  0  0
   11.2418  -17.6642   25.0879 C   0  0  0  0  0  0  0  0  0  0  0  0
   11.8319  -16.7666   25.7297 O   0  0  0  0  0  0  0  0  0  0  0  0
   11.0407  -18.9148   25.7196 N   0  0  0  0  0  0  0  0  0  0  0  0
   11.5705  -19.3005   27.0176 C   0  0  1  0  0  0  0  0  0  0  0  0
   10.8329  -20.4401   27.6126 C   0  0  0  0  0  0  0  0  0  0  0  0
    9.4064  -20.1357   27.7868 C   0  0  0  0  0  0  0  0  0  0  0  0
    8.7568  -18.9664   28.0442 C   0  0  0  0  0  0  0  0  0  0  0  0
    7.4310  -19.1714   28.1538 N   0  0  0  0  0  0  0  0  0  0  0  0
    7.2279  -20.4779   27.9661 C   0  0  0  0  0  0  0  0  0  0  0  0
    8.4176  -21.0776   27.7420 N   0  0  0  0  0  0  0  0  0  0  0  0
   13.0492  -19.3917   27.0430 C   0  0  0  0  0  0  0  0  0  0  0  0
   13.6699  -19.9384   26.1010 O   0  0  0  0  0  0  0  0  0  0  0  0
   13.8155  -18.8872   28.0864 O   0  0  0  0  0  0  0  0  0  0  0  0
  2  1  1  1
  3  4  1  0
  3  2  1  0
  4  5  2  0
  5  6  1  0
  7  6  2  0
  8  7  1  0
  9  4  1  0
  9  8  2  0
 10 11  2  0
 10  2  1  0
 12 10  1  0
 13 12  1  0
 13 14  1  6
 14 15  1  0
 15 16  2  0
 15 19  1  0
 16 17  1  0
 17 18  1  0
 19 18  2  0
 20 13  1  0
 21 20  2  0
 22 20  1  0
 23 22  1  0
 24 25  1  0
 23 24  1  6
 25 29  1  0
 26 27  1  0
 26 25  2  0
 27 28  1  0
 28 29  2  0
 30 23  1  0
 30 32  1  0
 31 30  2  0
M  END
$$$$
