FHH.pdb
     RDKit          3D

 32 34  0  0  1  0  0  0  0  0999 V2000
    2.4615  -24.2104   22.4966 N   0  0  0  0  0  0  0  0  0  0  0  0
    2.9867  -22.9413   22.9335 C   0  0  1  0  0  0  0  0  0  0  0  0
    2.1180  -22.3660   24.0402 C   0  0  0  0  0  0  0  0  0  0  0  0
    0.7116  -22.2642   23.6548 C   0  0  0  0  0  0  0  0  0  0  0  0
    0.3487  -21.4537   22.6074 C   0  0  0  0  0  0  0  0  0  0  0  0
   -0.9732  -21.3212   22.1973 C   0  0  0  0  0  0  0  0  0  0  0  0
   -1.9200  -22.0336   22.8785 C   0  0  0  0  0  0  0  0  0  0  0  0
   -1.6058  -22.8581   23.9336 C   0  0  0  0  0  0  0  0  0  0  0  0
   -0.2741  -22.9645   24.3140 C   0  0  0  0  0  0  0  0  0  0  0  0
    4.3676  -23.0356   23.4688 C   0  0  0  0  0  0  0  0  0  0  0  0
    4.8108  -24.0473   24.0710 O   0  0  0  0  0  0  0  0  0  0  0  0
    5.2961  -21.9414   23.3182 N   0  0  0  0  0  0  0  0  0  0  0  0
    6.6820  -22.0694   23.7045 C   0  0  1  0  0  0  0  0  0  0  0  0
    7.5682  -21.1797   22.8410 C   0  0  0  0  0  0  0  0  0  0  0  0
    8.9940  -21.3665   23.1458 C   0  0  0  0  0  0  0  0  0  0  0  0
    9.7187  -22.5156   22.9662 C   0  0  0  0  0  0  0  0  0  0  0  0
   10.9987  -22.3325   23.3503 N   0  0  0  0  0  0  0  0  0  0  0  0
   11.0636  -21.0524   23.7728 C   0  0  0  0  0  0  0  0  0  0  0  0
    9.8598  -20.4677   23.6515 N   0  0  0  0  0  0  0  0  0  0  0  0
    6.8229  -21.7125   25.1439 C   0  0  0  0  0  0  0  0  0  0  0  0
    6.3002  -20.6589   25.5710 O   0  0  0  0  0  0  0  0  0  0  0  0
    7.5326  -22.5251   26.0602 N   0  0  0  0  0  0  0  0  0  0  0  0
    7.7502  -22.2219   27.4655 C   0  0  1  0  0  0  0  0  0  0  0  0
    7.2673  -23.3024   28.3577 C   0  0  0  0  0  0  0  0  0  0  0  0
    5.8010  -23.3257   28.4424 C   0  0  0  0  0  0  0  0  0  0  0  0
    4.8553  -22.4593   27.9835 C   0  0  0  0  0  0  0  0  0  0  0  0
    3.6214  -22.8764   28.3226 N   0  0  0  0  0  0  0  0  0  0  0  0
    3.7747  -24.0156   29.0024 C   0  0  0  0  0  0  0  0  0  0  0  0
    5.0924  -24.3022   29.0838 N   0  0  0  0  0  0  0  0  0  0  0  0
    9.1063  -21.6956   27.7479 C   0  0  0  0  0  0  0  0  0  0  0  0
    9.4095  -21.3010   28.8985 O   0  0  0  0  0  0  0  0  0  0  0  0
   10.0973  -21.6126   26.7776 O   0  0  0  0  0  0  0  0  0  0  0  0
  2  1  1  1
  3  4  1  0
  3  2  1  0
  4  5  2  0
  5  6  1  0
  7  6  2  0
  8  7  1  0
  9  4  1  0
  9  8  2  0
 10 11  2  0
 10  2  1  0
 12 10  1  0
 13 12  1  0
 13 14  1  6
 14 15  1  0
 15 16  2  0
 15 19  1  0
 16 17  1  0
 17 18  1  0
 19 18  2  0
 20 13  1  0
 21 20  2  0
 22 20  1  0
 23 22  1  0
 24 25  1  0
 23 24  1  1
 25 29  1  0
 26 27  1  0
 26 25  2  0
 27 28  1  0
 28 29  2  0
 30 23  1  0
 30 32  1  0
 31 30  2  0
M  END
$$$$
