FHH.pdb
     RDKit          3D

 32 34  0  0  1  0  0  0  0  0999 V2000
    5.8963  -18.2528   25.9243 N   0  0  0  0  0  0  0  0  0  0  0  0
    6.3702  -16.9246   25.6272 C   0  0  1  0  0  0  0  0  0  0  0  0
    6.6506  -16.1665   26.9144 C   0  0  0  0  0  0  0  0  0  0  0  0
    6.7138  -14.7201   26.7122 C   0  0  0  0  0  0  0  0  0  0  0  0
    5.7565  -14.0957   25.9510 C   0  0  0  0  0  0  0  0  0  0  0  0
    5.7669  -12.7233   25.7280 C   0  0  0  0  0  0  0  0  0  0  0  0
    6.7758  -11.9987   26.2982 C   0  0  0  0  0  0  0  0  0  0  0  0
    7.7569  -12.5786   27.0683 C   0  0  0  0  0  0  0  0  0  0  0  0
    7.7126  -13.9525   27.2684 C   0  0  0  0  0  0  0  0  0  0  0  0
    7.6256  -16.9175   24.8359 C   0  0  0  0  0  0  0  0  0  0  0  0
    8.5853  -17.7021   25.0502 O   0  0  0  0  0  0  0  0  0  0  0  0
    7.8108  -15.9857   23.7497 N   0  0  0  0  0  0  0  0  0  0  0  0
    8.9519  -16.0714   22.8685 C   0  0  1  0  0  0  0  0  0  0  0  0
    8.7589  -15.1819   21.6462 C   0  0  0  0  0  0  0  0  0  0  0  0
    9.8213  -15.3823   20.6502 C   0  0  0  0  0  0  0  0  0  0  0  0
   10.8937  -16.2274   20.7660 C   0  0  0  0  0  0  0  0  0  0  0  0
   11.6697  -16.1607   19.6648 N   0  0  0  0  0  0  0  0  0  0  0  0
   11.0671  -15.2613   18.8589 C   0  0  0  0  0  0  0  0  0  0  0  0
    9.9547  -14.7906   19.4480 N   0  0  0  0  0  0  0  0  0  0  0  0
   10.1779  -15.6766   23.6170 C   0  0  0  0  0  0  0  0  0  0  0  0
   10.1067  -14.7785   24.4853 O   0  0  0  0  0  0  0  0  0  0  0  0
   11.4359  -16.2822   23.3841 N   0  0  0  0  0  0  0  0  0  0  0  0
   12.5188  -16.3785   24.3497 C   0  0  1  0  0  0  0  0  0  0  0  0
   12.2319  -17.3582   25.4242 C   0  0  0  0  0  0  0  0  0  0  0  0
   11.6275  -16.7175   26.5998 C   0  0  0  0  0  0  0  0  0  0  0  0
   10.6013  -17.1000   27.4098 C   0  0  0  0  0  0  0  0  0  0  0  0
   10.3702  -16.1724   28.3573 N   0  0  0  0  0  0  0  0  0  0  0  0
   11.2516  -15.1897   28.1552 C   0  0  0  0  0  0  0  0  0  0  0  0
   12.0224  -15.5055   27.0917 N   0  0  0  0  0  0  0  0  0  0  0  0
   13.8576  -16.4683   23.7211 C   0  0  0  0  0  0  0  0  0  0  0  0
   14.0423  -17.1957   22.7169 O   0  0  0  0  0  0  0  0  0  0  0  0
   14.9593  -15.7671   24.1956 O   0  0  0  0  0  0  0  0  0  0  0  0
  2  1  1  1
  3  4  1  0
  3  2  1  0
  4  5  2  0
  5  6  1  0
  7  6  2  0
  8  7  1  0
  9  4  1  0
  9  8  2  0
 10 11  2  0
 10  2  1  0
 12 10  1  0
 13 12  1  0
 13 14  1  6
 14 15  1  0
 15 16  2  0
 15 19  1  0
 16 17  1  0
 17 18  1  0
 19 18  2  0
 20 13  1  0
 21 20  2  0
 22 20  1  0
 23 22  1  0
 24 25  1  0
 23 24  1  6
 25 29  1  0
 26 27  1  0
 26 25  2  0
 27 28  1  0
 28 29  2  0
 30 23  1  0
 30 32  1  0
 31 30  2  0
M  END
$$$$
