FHH.pdb
     RDKit          3D

 32 34  0  0  1  0  0  0  0  0999 V2000
    9.6584  -15.4047   17.8530 N   0  0  0  0  0  0  0  0  0  0  0  0
   10.6620  -14.5676   18.4605 C   0  0  1  0  0  0  0  0  0  0  0  0
   10.2222  -14.1463   19.8531 C   0  0  0  0  0  0  0  0  0  0  0  0
    8.9586  -13.4115   19.8449 C   0  0  0  0  0  0  0  0  0  0  0  0
    7.9183  -13.8354   20.6347 C   0  0  0  0  0  0  0  0  0  0  0  0
    6.6961  -13.1733   20.6675 C   0  0  0  0  0  0  0  0  0  0  0  0
    6.5556  -12.0675   19.8766 C   0  0  0  0  0  0  0  0  0  0  0  0
    7.5680  -11.6045   19.0689 C   0  0  0  0  0  0  0  0  0  0  0  0
    8.7746  -12.2926   19.0633 C   0  0  0  0  0  0  0  0  0  0  0  0
   11.9751  -15.2438   18.6048 C   0  0  0  0  0  0  0  0  0  0  0  0
   12.1001  -16.4676   18.8680 O   0  0  0  0  0  0  0  0  0  0  0  0
   13.2071  -14.5103   18.4432 N   0  0  0  0  0  0  0  0  0  0  0  0
   14.4922  -15.1610   18.5502 C   0  0  1  0  0  0  0  0  0  0  0  0
   15.5674  -14.3557   17.8307 C   0  0  0  0  0  0  0  0  0  0  0  0
   15.5811  -14.6285   16.3864 C   0  0  0  0  0  0  0  0  0  0  0  0
   14.9416  -15.6593   15.7489 C   0  0  0  0  0  0  0  0  0  0  0  0
   15.1682  -15.6071   14.4202 N   0  0  0  0  0  0  0  0  0  0  0  0
   15.9589  -14.5288   14.2364 C   0  0  0  0  0  0  0  0  0  0  0  0
   16.2097  -13.9373   15.4167 N   0  0  0  0  0  0  0  0  0  0  0  0
   14.8365  -15.3286   19.9898 C   0  0  0  0  0  0  0  0  0  0  0  0
   14.7162  -14.3568   20.7688 O   0  0  0  0  0  0  0  0  0  0  0  0
   15.3003  -16.5562   20.5202 N   0  0  0  0  0  0  0  0  0  0  0  0
   15.7339  -16.7744   21.8909 C   0  0  1  0  0  0  0  0  0  0  0  0
   15.6782  -18.2034   22.2801 C   0  0  0  0  0  0  0  0  0  0  0  0
   16.0560  -18.4014   23.6857 C   0  0  0  0  0  0  0  0  0  0  0  0
   16.5351  -17.5369   24.6231 C   0  0  0  0  0  0  0  0  0  0  0  0
   16.7722  -18.1754   25.7840 N   0  0  0  0  0  0  0  0  0  0  0  0
   16.4443  -19.4555   25.5917 C   0  0  0  0  0  0  0  0  0  0  0  0
   16.0074  -19.6092   24.3226 N   0  0  0  0  0  0  0  0  0  0  0  0
   16.9802  -16.0498   22.2332 C   0  0  0  0  0  0  0  0  0  0  0  0
   17.2266  -15.7321   23.4205 O   0  0  0  0  0  0  0  0  0  0  0  0
   17.9263  -15.6905   21.2812 O   0  0  0  0  0  0  0  0  0  0  0  0
  2  1  1  1
  3  4  1  0
  3  2  1  0
  4  5  2  0
  5  6  1  0
  7  6  2  0
  8  7  1  0
  9  4  1  0
  9  8  2  0
 10 11  2  0
 10  2  1  0
 12 10  1  0
 13 12  1  0
 13 14  1  6
 14 15  1  0
 15 16  2  0
 15 19  1  0
 16 17  1  0
 17 18  1  0
 19 18  2  0
 20 13  1  0
 21 20  2  0
 22 20  1  0
 23 22  1  0
 24 25  1  0
 23 24  1  6
 25 29  1  0
 26 27  1  0
 26 25  2  0
 27 28  1  0
 28 29  2  0
 30 23  1  0
 30 32  1  0
 31 30  2  0
M  END
$$$$
