FHH.pdb
     RDKit          3D

 32 34  0  0  1  0  0  0  0  0999 V2000
    7.7333  -17.2052   19.6257 N   0  0  0  0  0  0  0  0  0  0  0  0
    9.0786  -16.6964   19.5349 C   0  0  1  0  0  0  0  0  0  0  0  0
    9.2909  -15.5876   20.5526 C   0  0  0  0  0  0  0  0  0  0  0  0
    8.5083  -14.3905   20.2506 C   0  0  0  0  0  0  0  0  0  0  0  0
    7.4227  -14.0714   21.0286 C   0  0  0  0  0  0  0  0  0  0  0  0
    6.6450  -12.9443   20.7880 C   0  0  0  0  0  0  0  0  0  0  0  0
    6.9974  -12.1470   19.7353 C   0  0  0  0  0  0  0  0  0  0  0  0
    8.0757  -12.4247   18.9278 C   0  0  0  0  0  0  0  0  0  0  0  0
    8.8286  -13.5599   19.1999 C   0  0  0  0  0  0  0  0  0  0  0  0
   10.1111  -17.7299   19.7958 C   0  0  0  0  0  0  0  0  0  0  0  0
    9.9926  -18.6230   20.6738 O   0  0  0  0  0  0  0  0  0  0  0  0
   11.3347  -17.7634   19.0316 N   0  0  0  0  0  0  0  0  0  0  0  0
   12.4768  -18.5317   19.4693 C   0  0  1  0  0  0  0  0  0  0  0  0
   13.5853  -18.4955   18.4242 C   0  0  0  0  0  0  0  0  0  0  0  0
   14.6749  -19.4270   18.7494 C   0  0  0  0  0  0  0  0  0  0  0  0
   14.5360  -20.7014   19.2334 C   0  0  0  0  0  0  0  0  0  0  0  0
   15.7444  -21.2714   19.4186 N   0  0  0  0  0  0  0  0  0  0  0  0
   16.6408  -20.3347   19.0437 C   0  0  0  0  0  0  0  0  0  0  0  0
   16.0016  -19.2235   18.6405 N   0  0  0  0  0  0  0  0  0  0  0  0
   12.9621  -17.9885   20.7688 C   0  0  0  0  0  0  0  0  0  0  0  0
   13.3915  -16.8144   20.8234 O   0  0  0  0  0  0  0  0  0  0  0  0
   12.9581  -18.7542   21.9592 N   0  0  0  0  0  0  0  0  0  0  0  0
   13.4629  -18.3128   23.2494 C   0  0  1  0  0  0  0  0  0  0  0  0
   12.5031  -18.5696   24.3491 C   0  0  0  0  0  0  0  0  0  0  0  0
   11.2220  -17.8863   24.1261 C   0  0  0  0  0  0  0  0  0  0  0  0
    9.9934  -18.3606   23.7783 C   0  0  0  0  0  0  0  0  0  0  0  0
    9.1099  -17.3526   23.6558 N   0  0  0  0  0  0  0  0  0  0  0  0
    9.7737  -16.2258   23.9261 C   0  0  0  0  0  0  0  0  0  0  0  0
   11.0575  -16.5327   24.2137 N   0  0  0  0  0  0  0  0  0  0  0  0
   14.8672  -18.7152   23.4976 C   0  0  0  0  0  0  0  0  0  0  0  0
   15.4524  -18.3687   24.5507 O   0  0  0  0  0  0  0  0  0  0  0  0
   15.5990  -19.4828   22.6000 O   0  0  0  0  0  0  0  0  0  0  0  0
  2  1  1  1
  3  4  1  0
  3  2  1  0
  4  5  2  0
  5  6  1  0
  7  6  2  0
  8  7  1  0
  9  4  1  0
  9  8  2  0
 10 11  2  0
 10  2  1  0
 12 10  1  0
 13 12  1  0
 13 14  1  6
 14 15  1  0
 15 16  2  0
 15 19  1  0
 16 17  1  0
 17 18  1  0
 19 18  2  0
 20 13  1  0
 21 20  2  0
 22 20  1  0
 23 22  1  0
 24 25  1  0
 23 24  1  1
 25 29  1  0
 26 27  1  0
 26 25  2  0
 27 28  1  0
 28 29  2  0
 30 23  1  0
 30 32  1  0
 31 30  2  0
M  END
$$$$
