FHH.pdb
     RDKit          3D

 32 34  0  0  1  0  0  0  0  0999 V2000
    7.3806  -17.2055   19.5778 N   0  0  0  0  0  0  0  0  0  0  0  0
    8.6981  -16.9657   20.1105 C   0  0  1  0  0  0  0  0  0  0  0  0
    8.6954  -15.7170   20.9770 C   0  0  0  0  0  0  0  0  0  0  0  0
    8.3746  -14.5085   20.2197 C   0  0  0  0  0  0  0  0  0  0  0  0
    7.1034  -13.9914   20.2674 C   0  0  0  0  0  0  0  0  0  0  0  0
    6.7442  -12.8439   19.5691 C   0  0  0  0  0  0  0  0  0  0  0  0
    7.7099  -12.2328   18.8193 C   0  0  0  0  0  0  0  0  0  0  0  0
    8.9965  -12.7126   18.7401 C   0  0  0  0  0  0  0  0  0  0  0  0
    9.3172  -13.8615   19.4520 C   0  0  0  0  0  0  0  0  0  0  0  0
    9.1967  -18.0798   20.9546 C   0  0  0  0  0  0  0  0  0  0  0  0
    8.4655  -18.7363   21.7400 O   0  0  0  0  0  0  0  0  0  0  0  0
   10.5832  -18.4774   20.9123 N   0  0  0  0  0  0  0  0  0  0  0  0
   11.0955  -19.5205   21.7700 C   0  0  1  0  0  0  0  0  0  0  0  0
   12.3819  -20.1059   21.2000 C   0  0  0  0  0  0  0  0  0  0  0  0
   12.8920  -21.2116   22.0234 C   0  0  0  0  0  0  0  0  0  0  0  0
   14.0086  -21.1844   22.8174 C   0  0  0  0  0  0  0  0  0  0  0  0
   14.1809  -22.3725   23.4322 N   0  0  0  0  0  0  0  0  0  0  0  0
   13.1561  -23.1430   23.0109 C   0  0  0  0  0  0  0  0  0  0  0  0
   12.3784  -22.4485   22.1632 N   0  0  0  0  0  0  0  0  0  0  0  0
   11.3303  -18.9625   23.1311 C   0  0  0  0  0  0  0  0  0  0  0  0
   12.0570  -17.9528   23.2656 O   0  0  0  0  0  0  0  0  0  0  0  0
   10.7590  -19.5337   24.2933 N   0  0  0  0  0  0  0  0  0  0  0  0
   11.0822  -19.1653   25.6623 C   0  0  1  0  0  0  0  0  0  0  0  0
    9.8746  -18.8581   26.4646 C   0  0  0  0  0  0  0  0  0  0  0  0
    9.1460  -17.6989   25.9324 C   0  0  0  0  0  0  0  0  0  0  0  0
    9.4543  -16.8139   24.9439 C   0  0  0  0  0  0  0  0  0  0  0  0
    8.4899  -15.8833   24.8189 N   0  0  0  0  0  0  0  0  0  0  0  0
    7.5581  -16.1714   25.7311 C   0  0  0  0  0  0  0  0  0  0  0  0
    7.9416  -17.2713   26.4155 N   0  0  0  0  0  0  0  0  0  0  0  0
   12.0760  -20.0661   26.2920 C   0  0  0  0  0  0  0  0  0  0  0  0
   12.1814  -21.2582   25.9191 O   0  0  0  0  0  0  0  0  0  0  0  0
   12.9296  -19.6512   27.3068 O   0  0  0  0  0  0  0  0  0  0  0  0
  2  1  1  1
  3  4  1  0
  3  2  1  0
  4  5  2  0
  5  6  1  0
  7  6  2  0
  8  7  1  0
  9  4  1  0
  9  8  2  0
 10 11  2  0
 10  2  1  0
 12 10  1  0
 13 12  1  0
 13 14  1  6
 14 15  1  0
 15 16  2  0
 15 19  1  0
 16 17  1  0
 17 18  1  0
 19 18  2  0
 20 13  1  0
 21 20  2  0
 22 20  1  0
 23 22  1  0
 24 25  1  0
 23 24  1  1
 25 29  1  0
 26 27  1  0
 26 25  2  0
 27 28  1  0
 28 29  2  0
 30 23  1  0
 30 32  1  0
 31 30  2  0
M  END
$$$$
