FHH.pdb
     RDKit          3D

 32 34  0  0  1  0  0  0  0  0999 V2000
    6.0272  -16.4099   26.1153 N   0  0  0  0  0  0  0  0  0  0  0  0
    6.3299  -16.3924   24.7064 C   0  0  1  0  0  0  0  0  0  0  0  0
    6.0422  -15.0183   24.1240 C   0  0  0  0  0  0  0  0  0  0  0  0
    6.4376  -13.9340   25.0211 C   0  0  0  0  0  0  0  0  0  0  0  0
    5.6701  -13.6467   26.1230 C   0  0  0  0  0  0  0  0  0  0  0  0
    6.0005  -12.6284   27.0103 C   0  0  0  0  0  0  0  0  0  0  0  0
    7.1320  -11.9071   26.7505 C   0  0  0  0  0  0  0  0  0  0  0  0
    7.9325  -12.1570   25.6604 C   0  0  0  0  0  0  0  0  0  0  0  0
    7.5697  -13.1827   24.7967 C   0  0  0  0  0  0  0  0  0  0  0  0
    7.7513  -16.7008   24.4121 C   0  0  0  0  0  0  0  0  0  0  0  0
    8.4792  -17.4007   25.1624 O   0  0  0  0  0  0  0  0  0  0  0  0
    8.3850  -16.2009   23.2160 N   0  0  0  0  0  0  0  0  0  0  0  0
    9.6624  -16.7072   22.7710 C   0  0  1  0  0  0  0  0  0  0  0  0
   10.0573  -16.0817   21.4386 C   0  0  0  0  0  0  0  0  0  0  0  0
   11.2282  -16.7456   20.8478 C   0  0  0  0  0  0  0  0  0  0  0  0
   11.9365  -17.7823   21.3969 C   0  0  0  0  0  0  0  0  0  0  0  0
   12.9493  -18.1463   20.5838 N   0  0  0  0  0  0  0  0  0  0  0  0
   12.8641  -17.3220   19.5186 C   0  0  0  0  0  0  0  0  0  0  0  0
   11.8300  -16.4777   19.6734 N   0  0  0  0  0  0  0  0  0  0  0  0
   10.6903  -16.4212   23.8106 C   0  0  0  0  0  0  0  0  0  0  0  0
   10.6716  -15.3224   24.4091 O   0  0  0  0  0  0  0  0  0  0  0  0
   11.7002  -17.3516   24.1540 N   0  0  0  0  0  0  0  0  0  0  0  0
   12.5973  -17.2427   25.2932 C   0  0  1  0  0  0  0  0  0  0  0  0
   11.9489  -17.6466   26.5632 C   0  0  0  0  0  0  0  0  0  0  0  0
   11.2480  -16.5233   27.1995 C   0  0  0  0  0  0  0  0  0  0  0  0
   11.3566  -15.1764   27.0277 C   0  0  0  0  0  0  0  0  0  0  0  0
   10.5253  -14.5208   27.8589 N   0  0  0  0  0  0  0  0  0  0  0  0
    9.8800  -15.4504   28.5679 C   0  0  0  0  0  0  0  0  0  0  0  0
   10.3074  -16.6717   28.1794 N   0  0  0  0  0  0  0  0  0  0  0  0
   13.9425  -17.8078   25.0352 C   0  0  0  0  0  0  0  0  0  0  0  0
   14.1724  -18.4508   23.9840 O   0  0  0  0  0  0  0  0  0  0  0  0
   15.0023  -17.6600   25.9215 O   0  0  0  0  0  0  0  0  0  0  0  0
  2  1  1  1
  3  4  1  0
  3  2  1  0
  4  5  2  0
  5  6  1  0
  7  6  2  0
  8  7  1  0
  9  4  1  0
  9  8  2  0
 10 11  2  0
 10  2  1  0
 12 10  1  0
 13 12  1  0
 13 14  1  6
 14 15  1  0
 15 16  2  0
 15 19  1  0
 16 17  1  0
 17 18  1  0
 19 18  2  0
 20 13  1  0
 21 20  2  0
 22 20  1  0
 23 22  1  0
 24 25  1  0
 23 24  1  1
 25 29  1  0
 26 27  1  0
 26 25  2  0
 27 28  1  0
 28 29  2  0
 30 23  1  0
 30 32  1  0
 31 30  2  0
M  END
$$$$
