KYF.pdb
     RDKit          3D

 33 34  0  0  1  0  0  0  0  0999 V2000
   26.2421  -19.4492  -15.7214 N   0  0  0  0  0  0  0  0  0  0  0  0
   27.2624  -19.6436  -14.6736 C   0  0  1  0  0  0  0  0  0  0  0  0
   28.2333  -18.5136  -14.8244 C   0  0  0  0  0  0  0  0  0  0  0  0
   28.9942  -18.6117  -16.1045 C   0  0  0  0  0  0  0  0  0  0  0  0
   29.0133  -17.2773  -16.7894 C   0  0  0  0  0  0  0  0  0  0  0  0
   29.8246  -17.3355  -18.0530 C   0  0  0  0  0  0  0  0  0  0  0  0
   29.6948  -16.0152  -18.6766 N   0  0  0  0  0  0  0  0  0  0  0  0
   26.6350  -19.5962  -13.3431 C   0  0  0  0  0  0  0  0  0  0  0  0
   26.1151  -18.5270  -12.9490 O   0  0  0  0  0  0  0  0  0  0  0  0
   20.4688  -19.8531  -14.5006 O   0  0  0  0  0  0  0  0  0  0  0  0
   21.4945  -20.2356  -13.6560 C   0  0  0  0  0  0  0  0  0  0  0  0
   22.4330  -21.1334  -14.0916 C   0  0  0  0  0  0  0  0  0  0  0  0
   23.4676  -21.5461  -13.2993 C   0  0  0  0  0  0  0  0  0  0  0  0
   23.6069  -21.0601  -11.9982 C   0  0  0  0  0  0  0  0  0  0  0  0
   24.7197  -21.5288  -11.1711 C   0  0  0  0  0  0  0  0  0  0  0  0
   25.9307  -20.6046  -11.1855 C   0  0  2  0  0  0  0  0  0  0  0  0
   26.5893  -20.7219  -12.4697 N   0  0  0  0  0  0  0  0  0  0  0  0
   26.8736  -21.0007  -10.1186 C   0  0  0  0  0  0  0  0  0  0  0  0
   27.7169  -21.9208  -10.2322 O   0  0  0  0  0  0  0  0  0  0  0  0
   22.6558  -20.1537  -11.5634 C   0  0  0  0  0  0  0  0  0  0  0  0
   21.6205  -19.7477  -12.3721 C   0  0  0  0  0  0  0  0  0  0  0  0
   26.8353  -20.3061   -8.8816 N   0  0  0  0  0  0  0  0  0  0  0  0
   27.4864  -20.8911   -7.7044 C   0  0  1  0  0  0  0  0  0  0  0  0
   28.6800  -20.0017   -7.4113 C   0  0  0  0  0  0  0  0  0  0  0  0
   28.8302  -19.7878   -5.9584 C   0  0  0  0  0  0  0  0  0  0  0  0
   28.2315  -18.7301   -5.3190 C   0  0  0  0  0  0  0  0  0  0  0  0
   28.3781  -18.5422   -3.9406 C   0  0  0  0  0  0  0  0  0  0  0  0
   29.1481  -19.4532   -3.2205 C   0  0  0  0  0  0  0  0  0  0  0  0
   29.7519  -20.5152   -3.8505 C   0  0  0  0  0  0  0  0  0  0  0  0
   29.5801  -20.6617   -5.2117 C   0  0  0  0  0  0  0  0  0  0  0  0
   26.4967  -20.9278   -6.6168 C   0  0  0  0  0  0  0  0  0  0  0  0
   25.4873  -20.1914   -6.6738 O   0  0  0  0  0  0  0  0  0  0  0  0
   26.6478  -21.7575   -5.5240 O   0  0  0  0  0  0  0  0  0  0  0  0
  2  3  1  0
  2  1  1  6
  4  3  1  0
  5  4  1  0
  6  5  1  0
  7  6  1  0
  8  2  1  0
  9  8  2  0
 10 11  1  0
 11 12  2  0
 11 21  1  0
 12 13  1  0
 13 14  2  0
 14 15  1  0
 16 15  1  6
 16 17  1  0
 17  8  1  0
 18 16  1  0
 18 22  1  0
 19 18  2  0
 20 14  1  0
 21 20  2  0
 23 22  1  0
 23 31  1  0
 23 24  1  1
 24 25  1  0
 25 30  1  0
 25 26  2  0
 26 27  1  0
 27 28  2  0
 29 28  1  0
 30 29  2  0
 31 33  1  0
 32 31  2  0
M  END
$$$$
