KYF.pdb
     RDKit          3D

 33 34  0  0  1  0  0  0  0  0999 V2000
   34.2777  -30.6277    7.0607 N   0  0  0  0  0  0  0  0  0  0  0  0
   33.7698  -29.2430    7.0258 C   0  0  1  0  0  0  0  0  0  0  0  0
   33.5407  -28.8484    8.4519 C   0  0  0  0  0  0  0  0  0  0  0  0
   33.0750  -30.0045    9.2726 C   0  0  0  0  0  0  0  0  0  0  0  0
   32.8932  -29.5766   10.6988 C   0  0  0  0  0  0  0  0  0  0  0  0
   32.4780  -30.7378   11.5576 C   0  0  0  0  0  0  0  0  0  0  0  0
   32.3782  -30.2140   12.9230 N   0  0  0  0  0  0  0  0  0  0  0  0
   34.7687  -28.3545    6.4101 C   0  0  0  0  0  0  0  0  0  0  0  0
   35.9825  -28.6551    6.4818 O   0  0  0  0  0  0  0  0  0  0  0  0
   35.6541  -31.7859    1.7337 O   0  0  0  0  0  0  0  0  0  0  0  0
   35.6330  -30.4850    2.2014 C   0  0  0  0  0  0  0  0  0  0  0  0
   34.4341  -29.8441    2.3701 C   0  0  0  0  0  0  0  0  0  0  0  0
   34.3545  -28.5590    2.8293 C   0  0  0  0  0  0  0  0  0  0  0  0
   35.5097  -27.8429    3.1475 C   0  0  0  0  0  0  0  0  0  0  0  0
   35.3921  -26.4653    3.6273 C   0  0  0  0  0  0  0  0  0  0  0  0
   35.4585  -26.3326    5.1435 C   0  0  2  0  0  0  0  0  0  0  0  0
   34.4182  -27.1531    5.7275 N   0  0  0  0  0  0  0  0  0  0  0  0
   35.2401  -24.9233    5.5313 C   0  0  0  0  0  0  0  0  0  0  0  0
   34.7642  -24.0503    4.7684 O   0  0  0  0  0  0  0  0  0  0  0  0
   36.7180  -28.4953    2.9748 C   0  0  0  0  0  0  0  0  0  0  0  0
   36.7821  -29.7885    2.5121 C   0  0  0  0  0  0  0  0  0  0  0  0
   35.5853  -24.5160    6.8462 N   0  0  0  0  0  0  0  0  0  0  0  0
   35.0828  -23.2377    7.3616 C   0  0  1  0  0  0  0  0  0  0  0  0
   33.5718  -23.3163    7.2508 C   0  0  0  0  0  0  0  0  0  0  0  0
   33.0986  -22.6243    6.0356 C   0  0  0  0  0  0  0  0  0  0  0  0
   32.9938  -21.2562    5.9788 C   0  0  0  0  0  0  0  0  0  0  0  0
   32.5487  -20.6130    4.8191 C   0  0  0  0  0  0  0  0  0  0  0  0
   32.2102  -21.3895    3.7128 C   0  0  0  0  0  0  0  0  0  0  0  0
   32.3112  -22.7595    3.7589 C   0  0  0  0  0  0  0  0  0  0  0  0
   32.7550  -23.3515    4.9236 C   0  0  0  0  0  0  0  0  0  0  0  0
   35.5662  -23.0903    8.7430 C   0  0  0  0  0  0  0  0  0  0  0  0
   35.3717  -22.0171    9.3553 O   0  0  0  0  0  0  0  0  0  0  0  0
   36.2346  -24.1088    9.3920 O   0  0  0  0  0  0  0  0  0  0  0  0
  2  3  1  0
  2  1  1  1
  4  3  1  0
  5  4  1  0
  6  5  1  0
  7  6  1  0
  8  2  1  0
  9  8  2  0
 10 11  1  0
 11 12  2  0
 11 21  1  0
 12 13  1  0
 13 14  2  0
 14 15  1  0
 16 15  1  6
 16 17  1  0
 17  8  1  0
 18 16  1  0
 18 22  1  0
 19 18  2  0
 20 14  1  0
 21 20  2  0
 23 22  1  0
 23 31  1  0
 23 24  1  1
 24 25  1  0
 25 30  1  0
 25 26  2  0
 26 27  1  0
 27 28  2  0
 29 28  1  0
 30 29  2  0
 31 33  1  0
 32 31  2  0
M  END
$$$$
