KYF.pdb
     RDKit          3D

 33 34  0  0  1  0  0  0  0  0999 V2000
   27.5560  -22.6697  -18.0403 N   0  0  0  0  0  0  0  0  0  0  0  0
   27.6305  -21.4186  -17.2619 C   0  0  1  0  0  0  0  0  0  0  0  0
   26.9171  -20.3816  -18.0730 C   0  0  0  0  0  0  0  0  0  0  0  0
   27.1659  -20.5611  -19.5335 C   0  0  0  0  0  0  0  0  0  0  0  0
   25.8839  -20.9113  -20.2294 C   0  0  0  0  0  0  0  0  0  0  0  0
   26.0661  -20.9076  -21.7211 C   0  0  0  0  0  0  0  0  0  0  0  0
   24.8011  -21.3906  -22.2828 N   0  0  0  0  0  0  0  0  0  0  0  0
   26.9613  -21.5920  -15.9626 C   0  0  0  0  0  0  0  0  0  0  0  0
   26.0202  -22.4125  -15.8632 O   0  0  0  0  0  0  0  0  0  0  0  0
   24.7619  -20.5339   -7.4103 O   0  0  0  0  0  0  0  0  0  0  0  0
   25.3951  -20.5464   -8.6394 C   0  0  0  0  0  0  0  0  0  0  0  0
   25.9034  -19.3824   -9.1524 C   0  0  0  0  0  0  0  0  0  0  0  0
   26.5387  -19.3369  -10.3619 C   0  0  0  0  0  0  0  0  0  0  0  0
   26.6945  -20.4926  -11.1292 C   0  0  0  0  0  0  0  0  0  0  0  0
   27.3704  -20.4096  -12.4247 C   0  0  0  0  0  0  0  0  0  0  0  0
   26.5889  -21.0417  -13.5695 C   0  0  2  0  0  0  0  0  0  0  0  0
   27.3365  -20.8627  -14.7966 N   0  0  0  0  0  0  0  0  0  0  0  0
   25.2740  -20.3801  -13.7015 C   0  0  0  0  0  0  0  0  0  0  0  0
   25.1223  -19.1685  -13.9837 O   0  0  0  0  0  0  0  0  0  0  0  0
   26.1786  -21.6655  -10.6060 C   0  0  0  0  0  0  0  0  0  0  0  0
   25.5421  -21.6956   -9.3876 C   0  0  0  0  0  0  0  0  0  0  0  0
   24.0993  -21.1502  -13.4992 N   0  0  0  0  0  0  0  0  0  0  0  0
   22.8090  -20.4708  -13.3387 C   0  0  1  0  0  0  0  0  0  0  0  0
   22.0009  -20.8286  -14.5718 C   0  0  0  0  0  0  0  0  0  0  0  0
   22.4055  -19.9977  -15.7230 C   0  0  0  0  0  0  0  0  0  0  0  0
   23.2593  -20.4702  -16.6893 C   0  0  0  0  0  0  0  0  0  0  0  0
   23.6306  -19.6738  -17.7777 C   0  0  0  0  0  0  0  0  0  0  0  0
   23.1158  -18.3821  -17.8665 C   0  0  0  0  0  0  0  0  0  0  0  0
   22.2606  -17.8991  -16.9048 C   0  0  0  0  0  0  0  0  0  0  0  0
   21.9215  -18.7197  -15.8486 C   0  0  0  0  0  0  0  0  0  0  0  0
   22.2076  -20.9422  -12.0818 C   0  0  0  0  0  0  0  0  0  0  0  0
   21.1844  -20.3777  -11.6357 O   0  0  0  0  0  0  0  0  0  0  0  0
   22.7416  -21.9984  -11.3715 O   0  0  0  0  0  0  0  0  0  0  0  0
  2  3  1  0
  2  1  1  6
  4  3  1  0
  5  4  1  0
  6  5  1  0
  7  6  1  0
  8  2  1  0
  9  8  2  0
 10 11  1  0
 11 12  2  0
 11 21  1  0
 12 13  1  0
 13 14  2  0
 14 15  1  0
 16 15  1  1
 16 17  1  0
 17  8  1  0
 18 16  1  0
 18 22  1  0
 19 18  2  0
 20 14  1  0
 21 20  2  0
 23 22  1  0
 23 31  1  0
 23 24  1  6
 24 25  1  0
 25 30  1  0
 25 26  2  0
 26 27  1  0
 27 28  2  0
 29 28  1  0
 30 29  2  0
 31 33  1  0
 32 31  2  0
M  END
$$$$
