KYF.pdb
     RDKit          3D

 33 34  0  0  1  0  0  0  0  0999 V2000
   24.7001  -22.6505  -20.1569 N   0  0  0  0  0  0  0  0  0  0  0  0
   24.2525  -21.5888  -19.2355 C   0  0  1  0  0  0  0  0  0  0  0  0
   23.0168  -21.0031  -19.8455 C   0  0  0  0  0  0  0  0  0  0  0  0
   23.3465  -20.0644  -20.9579 C   0  0  0  0  0  0  0  0  0  0  0  0
   23.8983  -18.7862  -20.3993 C   0  0  0  0  0  0  0  0  0  0  0  0
   24.2666  -17.8346  -21.5026 C   0  0  0  0  0  0  0  0  0  0  0  0
   24.8395  -16.6568  -20.8444 N   0  0  0  0  0  0  0  0  0  0  0  0
   23.9411  -22.1633  -17.9167 C   0  0  0  0  0  0  0  0  0  0  0  0
   23.0702  -23.0592  -17.8292 O   0  0  0  0  0  0  0  0  0  0  0  0
   28.5322  -26.7438  -16.9767 O   0  0  0  0  0  0  0  0  0  0  0  0
   27.7391  -25.7774  -16.3862 C   0  0  0  0  0  0  0  0  0  0  0  0
   27.9858  -24.4529  -16.6340 C   0  0  0  0  0  0  0  0  0  0  0  0
   27.2338  -23.4564  -16.0774 C   0  0  0  0  0  0  0  0  0  0  0  0
   26.1713  -23.7573  -15.2235 C   0  0  0  0  0  0  0  0  0  0  0  0
   25.3911  -22.6677  -14.6353 C   0  0  0  0  0  0  0  0  0  0  0  0
   24.1595  -22.2839  -15.4457 C   0  0  2  0  0  0  0  0  0  0  0  0
   24.5905  -21.7449  -16.7186 N   0  0  0  0  0  0  0  0  0  0  0  0
   23.3853  -21.2549  -14.7202 C   0  0  0  0  0  0  0  0  0  0  0  0
   23.8785  -20.1981  -14.2614 O   0  0  0  0  0  0  0  0  0  0  0  0
   25.9269  -25.0970  -14.9765 C   0  0  0  0  0  0  0  0  0  0  0  0
   26.6921  -26.0884  -15.5440 C   0  0  0  0  0  0  0  0  0  0  0  0
   21.9952  -21.4606  -14.5218 N   0  0  0  0  0  0  0  0  0  0  0  0
   21.2082  -20.4435  -13.8159 C   0  0  1  0  0  0  0  0  0  0  0  0
   21.4051  -19.1577  -14.5967 C   0  0  0  0  0  0  0  0  0  0  0  0
   20.4757  -18.1115  -14.1266 C   0  0  0  0  0  0  0  0  0  0  0  0
   20.7127  -17.3995  -12.9765 C   0  0  0  0  0  0  0  0  0  0  0  0
   19.8260  -16.4072  -12.5452 C   0  0  0  0  0  0  0  0  0  0  0  0
   18.6886  -16.1506  -13.3079 C   0  0  0  0  0  0  0  0  0  0  0  0
   18.4416  -16.8574  -14.4606 C   0  0  0  0  0  0  0  0  0  0  0  0
   19.3435  -17.8271  -14.8482 C   0  0  0  0  0  0  0  0  0  0  0  0
   19.8115  -20.9035  -13.7789 C   0  0  0  0  0  0  0  0  0  0  0  0
   19.0370  -20.4595  -12.9029 O   0  0  0  0  0  0  0  0  0  0  0  0
   19.3231  -21.8188  -14.6894 O   0  0  0  0  0  0  0  0  0  0  0  0
  2  3  1  0
  2  1  1  6
  4  3  1  0
  5  4  1  0
  6  5  1  0
  7  6  1  0
  8  2  1  0
  9  8  2  0
 10 11  1  0
 11 12  2  0
 11 21  1  0
 12 13  1  0
 13 14  2  0
 14 15  1  0
 16 15  1  1
 16 17  1  0
 17  8  1  0
 18 16  1  0
 18 22  1  0
 19 18  2  0
 20 14  1  0
 21 20  2  0
 23 22  1  0
 23 31  1  0
 23 24  1  6
 24 25  1  0
 25 30  1  0
 25 26  2  0
 26 27  1  0
 27 28  2  0
 29 28  1  0
 30 29  2  0
 31 33  1  0
 32 31  2  0
M  END
$$$$
