KYF.pdb
     RDKit          3D

 33 34  0  0  1  0  0  0  0  0999 V2000
   25.6639  -18.3260  -17.1774 N   0  0  0  0  0  0  0  0  0  0  0  0
   26.3857  -19.1227  -16.1669 C   0  0  1  0  0  0  0  0  0  0  0  0
   27.6562  -18.3824  -15.8843 C   0  0  0  0  0  0  0  0  0  0  0  0
   28.6226  -18.5000  -17.0155 C   0  0  0  0  0  0  0  0  0  0  0  0
   29.4756  -19.7202  -16.8321 C   0  0  0  0  0  0  0  0  0  0  0  0
   29.3192  -20.6622  -17.9925 C   0  0  0  0  0  0  0  0  0  0  0  0
   30.2408  -20.1838  -19.0272 N   0  0  0  0  0  0  0  0  0  0  0  0
   25.5803  -19.2306  -14.9398 C   0  0  0  0  0  0  0  0  0  0  0  0
   24.8437  -18.2746  -14.6048 O   0  0  0  0  0  0  0  0  0  0  0  0
   25.1758  -26.1266  -15.8877 O   0  0  0  0  0  0  0  0  0  0  0  0
   24.7801  -24.9534  -15.2725 C   0  0  0  0  0  0  0  0  0  0  0  0
   24.8950  -24.8280  -13.9132 C   0  0  0  0  0  0  0  0  0  0  0  0
   24.5195  -23.6914  -13.2532 C   0  0  0  0  0  0  0  0  0  0  0  0
   23.9976  -22.6011  -13.9515 C   0  0  0  0  0  0  0  0  0  0  0  0
   23.5953  -21.4018  -13.2152 C   0  0  0  0  0  0  0  0  0  0  0  0
   24.7401  -20.4358  -12.9374 C   0  0  2  0  0  0  0  0  0  0  0  0
   25.5977  -20.3845  -14.1030 N   0  0  0  0  0  0  0  0  0  0  0  0
   25.5243  -20.9113  -11.7785 C   0  0  0  0  0  0  0  0  0  0  0  0
   26.6263  -21.5010  -11.8701 O   0  0  0  0  0  0  0  0  0  0  0  0
   23.8835  -22.7335  -15.3244 C   0  0  0  0  0  0  0  0  0  0  0  0
   24.2657  -23.8833  -15.9743 C   0  0  0  0  0  0  0  0  0  0  0  0
   25.0120  -20.6948  -10.4728 N   0  0  0  0  0  0  0  0  0  0  0  0
   25.8627  -20.9666   -9.3090 C   0  0  1  0  0  0  0  0  0  0  0  0
   27.1396  -20.1813   -9.5419 C   0  0  0  0  0  0  0  0  0  0  0  0
   28.0054  -20.2218   -8.3469 C   0  0  0  0  0  0  0  0  0  0  0  0
   28.8529  -21.2750   -8.1052 C   0  0  0  0  0  0  0  0  0  0  0  0
   29.6716  -21.2982   -6.9712 C   0  0  0  0  0  0  0  0  0  0  0  0
   29.6129  -20.2263   -6.0830 C   0  0  0  0  0  0  0  0  0  0  0  0
   28.7681  -19.1672   -6.3152 C   0  0  0  0  0  0  0  0  0  0  0  0
   27.9785  -19.1863   -7.4466 C   0  0  0  0  0  0  0  0  0  0  0  0
   25.1244  -20.5496   -8.1070 C   0  0  0  0  0  0  0  0  0  0  0  0
   25.4602  -20.9971   -6.9883 O   0  0  0  0  0  0  0  0  0  0  0  0
   24.0618  -19.6711   -8.1747 O   0  0  0  0  0  0  0  0  0  0  0  0
  2  3  1  0
  2  1  1  6
  4  3  1  0
  5  4  1  0
  6  5  1  0
  7  6  1  0
  8  2  1  0
  9  8  2  0
 10 11  1  0
 11 12  2  0
 11 21  1  0
 12 13  1  0
 13 14  2  0
 14 15  1  0
 16 15  1  6
 16 17  1  0
 17  8  1  0
 18 16  1  0
 18 22  1  0
 19 18  2  0
 20 14  1  0
 21 20  2  0
 23 22  1  0
 23 31  1  0
 23 24  1  6
 24 25  1  0
 25 30  1  0
 25 26  2  0
 26 27  1  0
 27 28  2  0
 29 28  1  0
 30 29  2  0
 31 33  1  0
 32 31  2  0
M  END
$$$$
