KYF.pdb
     RDKit          3D

 33 34  0  0  1  0  0  0  0  0999 V2000
   27.5135  -18.1787  -18.8447 N   0  0  0  0  0  0  0  0  0  0  0  0
   27.2678  -19.3154  -17.9370 C   0  0  1  0  0  0  0  0  0  0  0  0
   28.3773  -19.2917  -16.9317 C   0  0  0  0  0  0  0  0  0  0  0  0
   29.5885  -20.0035  -17.4351 C   0  0  0  0  0  0  0  0  0  0  0  0
   29.3257  -21.4793  -17.4910 C   0  0  0  0  0  0  0  0  0  0  0  0
   30.5409  -22.2218  -17.9710 C   0  0  0  0  0  0  0  0  0  0  0  0
   30.2210  -23.6463  -17.8392 N   0  0  0  0  0  0  0  0  0  0  0  0
   25.9706  -19.1505  -17.2615 C   0  0  0  0  0  0  0  0  0  0  0  0
   25.6695  -18.0351  -16.7777 O   0  0  0  0  0  0  0  0  0  0  0  0
   17.6408  -19.6952  -14.6424 O   0  0  0  0  0  0  0  0  0  0  0  0
   18.8645  -19.9529  -15.2320 C   0  0  0  0  0  0  0  0  0  0  0  0
   19.4933  -18.9689  -15.9481 C   0  0  0  0  0  0  0  0  0  0  0  0
   20.7035  -19.1685  -16.5514 C   0  0  0  0  0  0  0  0  0  0  0  0
   21.3519  -20.4012  -16.4579 C   0  0  0  0  0  0  0  0  0  0  0  0
   22.6421  -20.5870  -17.1234 C   0  0  0  0  0  0  0  0  0  0  0  0
   23.8217  -20.0043  -16.3552 C   0  0  2  0  0  0  0  0  0  0  0  0
   25.0278  -20.2116  -17.1291 N   0  0  0  0  0  0  0  0  0  0  0  0
   23.9569  -20.6898  -15.0529 C   0  0  0  0  0  0  0  0  0  0  0  0
   24.4303  -21.8415  -14.9109 O   0  0  0  0  0  0  0  0  0  0  0  0
   20.7119  -21.3917  -15.7335 C   0  0  0  0  0  0  0  0  0  0  0  0
   19.4945  -21.1758  -15.1320 C   0  0  0  0  0  0  0  0  0  0  0  0
   23.5286  -20.0162  -13.8795 N   0  0  0  0  0  0  0  0  0  0  0  0
   23.4970  -20.7384  -12.6030 C   0  0  1  0  0  0  0  0  0  0  0  0
   24.4080  -19.9628  -11.6702 C   0  0  0  0  0  0  0  0  0  0  0  0
   25.8160  -20.0749  -12.0995 C   0  0  0  0  0  0  0  0  0  0  0  0
   26.3679  -19.1969  -12.9998 C   0  0  0  0  0  0  0  0  0  0  0  0
   27.7051  -19.3117  -13.3941 C   0  0  0  0  0  0  0  0  0  0  0  0
   28.4748  -20.3400  -12.8544 C   0  0  0  0  0  0  0  0  0  0  0  0
   27.9323  -21.2244  -11.9527 C   0  0  0  0  0  0  0  0  0  0  0  0
   26.6090  -21.0734  -11.5921 C   0  0  0  0  0  0  0  0  0  0  0  0
   22.0977  -20.7910  -12.1523 C   0  0  0  0  0  0  0  0  0  0  0  0
   21.2722  -19.9648  -12.5998 O   0  0  0  0  0  0  0  0  0  0  0  0
   21.6620  -21.7328  -11.2421 O   0  0  0  0  0  0  0  0  0  0  0  0
  2  3  1  0
  2  1  1  6
  4  3  1  0
  5  4  1  0
  6  5  1  0
  7  6  1  0
  8  2  1  0
  9  8  2  0
 10 11  1  0
 11 12  2  0
 11 21  1  0
 12 13  1  0
 13 14  2  0
 14 15  1  0
 16 15  1  6
 16 17  1  0
 17  8  1  0
 18 16  1  0
 18 22  1  0
 19 18  2  0
 20 14  1  0
 21 20  2  0
 23 22  1  0
 23 31  1  0
 23 24  1  1
 24 25  1  0
 25 30  1  0
 25 26  2  0
 26 27  1  0
 27 28  2  0
 29 28  1  0
 30 29  2  0
 31 33  1  0
 32 31  2  0
M  END
$$$$
