KYF.pdb
     RDKit          3D

 33 34  0  0  1  0  0  0  0  0999 V2000
   19.4806  -14.1825  -19.3729 N   0  0  0  0  0  0  0  0  0  0  0  0
   20.8276  -13.6947  -19.0203 C   0  0  1  0  0  0  0  0  0  0  0  0
   21.7648  -14.3076  -20.0142 C   0  0  0  0  0  0  0  0  0  0  0  0
   21.3032  -15.6613  -20.4406 C   0  0  0  0  0  0  0  0  0  0  0  0
   21.8382  -16.7014  -19.5014 C   0  0  0  0  0  0  0  0  0  0  0  0
   21.4244  -18.0791  -19.9360 C   0  0  0  0  0  0  0  0  0  0  0  0
   22.0392  -19.0049  -18.9801 N   0  0  0  0  0  0  0  0  0  0  0  0
   20.8749  -12.2270  -19.1199 C   0  0  0  0  0  0  0  0  0  0  0  0
   21.9569  -11.6333  -18.9062 O   0  0  0  0  0  0  0  0  0  0  0  0
   18.6176   -3.7469  -20.2670 O   0  0  0  0  0  0  0  0  0  0  0  0
   18.5922   -5.1273  -20.1925 C   0  0  0  0  0  0  0  0  0  0  0  0
   19.3363   -5.8680  -21.0724 C   0  0  0  0  0  0  0  0  0  0  0  0
   19.3487   -7.2346  -21.0440 C   0  0  0  0  0  0  0  0  0  0  0  0
   18.5919   -7.9349  -20.1030 C   0  0  0  0  0  0  0  0  0  0  0  0
   18.6184   -9.3982  -20.1045 C   0  0  0  0  0  0  0  0  0  0  0  0
   19.8196   -9.9940  -19.3812 C   0  0  2  0  0  0  0  0  0  0  0  0
   19.7351  -11.4378  -19.4519 N   0  0  0  0  0  0  0  0  0  0  0  0
   19.8066   -9.5759  -17.9637 C   0  0  0  0  0  0  0  0  0  0  0  0
   19.0392  -10.0556  -17.0968 O   0  0  0  0  0  0  0  0  0  0  0  0
   17.8419   -7.1814  -19.2168 C   0  0  0  0  0  0  0  0  0  0  0  0
   17.8398   -5.8071  -19.2576 C   0  0  0  0  0  0  0  0  0  0  0  0
   20.7134   -8.5695  -17.5408 N   0  0  0  0  0  0  0  0  0  0  0  0
   20.6782   -8.1039  -16.1501 C   0  0  1  0  0  0  0  0  0  0  0  0
   22.0884   -8.2857  -15.6209 C   0  0  0  0  0  0  0  0  0  0  0  0
   22.2006   -7.7733  -14.2409 C   0  0  0  0  0  0  0  0  0  0  0  0
   21.9683   -8.5769  -13.1518 C   0  0  0  0  0  0  0  0  0  0  0  0
   22.0831   -8.0797  -11.8494 C   0  0  0  0  0  0  0  0  0  0  0  0
   22.4398   -6.7444  -11.6732 C   0  0  0  0  0  0  0  0  0  0  0  0
   22.6744   -5.9313  -12.7563 C   0  0  0  0  0  0  0  0  0  0  0  0
   22.5496   -6.4641  -14.0230 C   0  0  0  0  0  0  0  0  0  0  0  0
   20.2265   -6.7041  -16.1573 C   0  0  0  0  0  0  0  0  0  0  0  0
   20.5029   -5.9699  -17.1315 O   0  0  0  0  0  0  0  0  0  0  0  0
   19.4999   -6.1691  -15.1127 O   0  0  0  0  0  0  0  0  0  0  0  0
  2  3  1  0
  2  1  1  6
  4  3  1  0
  5  4  1  0
  6  5  1  0
  7  6  1  0
  8  2  1  0
  9  8  2  0
 10 11  1  0
 11 12  2  0
 11 21  1  0
 12 13  1  0
 13 14  2  0
 14 15  1  0
 16 15  1  6
 16 17  1  0
 17  8  1  0
 18 16  1  0
 18 22  1  0
 19 18  2  0
 20 14  1  0
 21 20  2  0
 23 22  1  0
 23 31  1  0
 23 24  1  6
 24 25  1  0
 25 30  1  0
 25 26  2  0
 26 27  1  0
 27 28  2  0
 29 28  1  0
 30 29  2  0
 31 33  1  0
 32 31  2  0
M  END
$$$$
