KYF.pdb
     RDKit          3D

 33 34  0  0  1  0  0  0  0  0999 V2000
   27.3374  -21.8019  -18.6471 N   0  0  0  0  0  0  0  0  0  0  0  0
   28.2386  -22.0189  -17.4993 C   0  0  1  0  0  0  0  0  0  0  0  0
   29.6166  -21.6921  -17.9855 C   0  0  0  0  0  0  0  0  0  0  0  0
   30.1117  -22.7118  -18.9562 C   0  0  0  0  0  0  0  0  0  0  0  0
   30.6266  -23.9112  -18.2170 C   0  0  0  0  0  0  0  0  0  0  0  0
   31.3592  -24.8385  -19.1453 C   0  0  0  0  0  0  0  0  0  0  0  0
   31.8694  -25.9276  -18.3072 N   0  0  0  0  0  0  0  0  0  0  0  0
   27.8686  -21.1240  -16.3909 C   0  0  0  0  0  0  0  0  0  0  0  0
   28.2077  -19.9192  -16.4374 O   0  0  0  0  0  0  0  0  0  0  0  0
   20.8377  -21.6218  -16.2228 O   0  0  0  0  0  0  0  0  0  0  0  0
   22.0834  -21.1208  -15.8928 C   0  0  0  0  0  0  0  0  0  0  0  0
   22.4147  -20.9396  -14.5760 C   0  0  0  0  0  0  0  0  0  0  0  0
   23.6313  -20.4480  -14.1930 C   0  0  0  0  0  0  0  0  0  0  0  0
   24.5944  -20.1080  -15.1446 C   0  0  0  0  0  0  0  0  0  0  0  0
   25.8839  -19.5747  -14.7034 C   0  0  0  0  0  0  0  0  0  0  0  0
   26.8442  -20.6361  -14.1817 C   0  0  2  0  0  0  0  0  0  0  0  0
   27.1338  -21.5669  -15.2524 N   0  0  0  0  0  0  0  0  0  0  0  0
   26.2189  -21.3668  -13.0595 C   0  0  0  0  0  0  0  0  0  0  0  0
   25.7890  -22.5413  -13.1384 O   0  0  0  0  0  0  0  0  0  0  0  0
   24.2541  -20.2928  -16.4733 C   0  0  0  0  0  0  0  0  0  0  0  0
   23.0260  -20.7885  -16.8432 C   0  0  0  0  0  0  0  0  0  0  0  0
   26.0892  -20.7122  -11.8070 N   0  0  0  0  0  0  0  0  0  0  0  0
   25.3969  -21.3907  -10.7058 C   0  0  1  0  0  0  0  0  0  0  0  0
   26.4820  -22.0878   -9.9068 C   0  0  0  0  0  0  0  0  0  0  0  0
   27.1212  -21.1508   -8.9619 C   0  0  0  0  0  0  0  0  0  0  0  0
   28.4843  -20.9907   -8.9154 C   0  0  0  0  0  0  0  0  0  0  0  0
   29.0765  -20.0954   -8.0185 C   0  0  0  0  0  0  0  0  0  0  0  0
   28.2541  -19.3625   -7.1654 C   0  0  0  0  0  0  0  0  0  0  0  0
   26.8886  -19.5151   -7.2034 C   0  0  0  0  0  0  0  0  0  0  0  0
   26.3477  -20.4095   -8.1042 C   0  0  0  0  0  0  0  0  0  0  0  0
   24.6640  -20.3703   -9.9407 C   0  0  0  0  0  0  0  0  0  0  0  0
   23.9187  -20.7199   -8.9990 O   0  0  0  0  0  0  0  0  0  0  0  0
   24.7735  -19.0254  -10.2317 O   0  0  0  0  0  0  0  0  0  0  0  0
  2  3  1  0
  2  1  1  6
  4  3  1  0
  5  4  1  0
  6  5  1  0
  7  6  1  0
  8  2  1  0
  9  8  2  0
 10 11  1  0
 11 12  2  0
 11 21  1  0
 12 13  1  0
 13 14  2  0
 14 15  1  0
 16 15  1  6
 16 17  1  0
 17  8  1  0
 18 16  1  0
 18 22  1  0
 19 18  2  0
 20 14  1  0
 21 20  2  0
 23 22  1  0
 23 31  1  0
 23 24  1  1
 24 25  1  0
 25 30  1  0
 25 26  2  0
 26 27  1  0
 27 28  2  0
 29 28  1  0
 30 29  2  0
 31 33  1  0
 32 31  2  0
M  END
$$$$
