KYF.pdb
     RDKit          3D

 33 34  0  0  1  0  0  0  0  0999 V2000
   25.8380  -19.5534  -15.9188 N   0  0  0  0  0  0  0  0  0  0  0  0
   26.8349  -19.7759  -14.8542 C   0  0  1  0  0  0  0  0  0  0  0  0
   27.8820  -18.7215  -15.0387 C   0  0  0  0  0  0  0  0  0  0  0  0
   28.9361  -19.1581  -16.0006 C   0  0  0  0  0  0  0  0  0  0  0  0
   28.6871  -18.5401  -17.3446 C   0  0  0  0  0  0  0  0  0  0  0  0
   29.8290  -17.6485  -17.7440 C   0  0  0  0  0  0  0  0  0  0  0  0
   29.3457  -16.2748  -17.5758 N   0  0  0  0  0  0  0  0  0  0  0  0
   26.2024  -19.6339  -13.5329 C   0  0  0  0  0  0  0  0  0  0  0  0
   25.6523  -18.5500  -13.2307 O   0  0  0  0  0  0  0  0  0  0  0  0
   20.1246  -19.7984  -14.9075 O   0  0  0  0  0  0  0  0  0  0  0  0
   21.1128  -20.1718  -14.0154 C   0  0  0  0  0  0  0  0  0  0  0  0
   22.0497  -21.0985  -14.3897 C   0  0  0  0  0  0  0  0  0  0  0  0
   23.0481  -21.5039  -13.5487 C   0  0  0  0  0  0  0  0  0  0  0  0
   23.1503  -20.9801  -12.2589 C   0  0  0  0  0  0  0  0  0  0  0  0
   24.2247  -21.4417  -11.3786 C   0  0  0  0  0  0  0  0  0  0  0  0
   25.4330  -20.5145  -11.3418 C   0  0  2  0  0  0  0  0  0  0  0  0
   26.1851  -20.6828  -12.5676 N   0  0  0  0  0  0  0  0  0  0  0  0
   26.2943  -20.8624  -10.1923 C   0  0  0  0  0  0  0  0  0  0  0  0
   26.9134  -21.9463  -10.0810 O   0  0  0  0  0  0  0  0  0  0  0  0
   22.2010  -20.0445  -11.8861 C   0  0  0  0  0  0  0  0  0  0  0  0
   21.2024  -19.6464  -12.7433 C   0  0  0  0  0  0  0  0  0  0  0  0
   26.4406  -19.9217   -9.1399 N   0  0  0  0  0  0  0  0  0  0  0  0
   27.1408  -20.3146   -7.9121 C   0  0  1  0  0  0  0  0  0  0  0  0
   27.7091  -19.0316   -7.3355 C   0  0  0  0  0  0  0  0  0  0  0  0
   28.3127  -19.2746   -6.0104 C   0  0  0  0  0  0  0  0  0  0  0  0
   29.4126  -20.0822   -5.8556 C   0  0  0  0  0  0  0  0  0  0  0  0
   29.9775  -20.2998   -4.5945 C   0  0  0  0  0  0  0  0  0  0  0  0
   29.4012  -19.6789   -3.4883 C   0  0  0  0  0  0  0  0  0  0  0  0
   28.3001  -18.8688   -3.6319 C   0  0  0  0  0  0  0  0  0  0  0  0
   27.7761  -18.6823   -4.8947 C   0  0  0  0  0  0  0  0  0  0  0  0
   26.1653  -20.9759   -7.0319 C   0  0  0  0  0  0  0  0  0  0  0  0
   24.9744  -20.5934   -7.0305 O   0  0  0  0  0  0  0  0  0  0  0  0
   26.5256  -22.0158   -6.1988 O   0  0  0  0  0  0  0  0  0  0  0  0
  2  3  1  0
  2  1  1  6
  4  3  1  0
  5  4  1  0
  6  5  1  0
  7  6  1  0
  8  2  1  0
  9  8  2  0
 10 11  1  0
 11 12  2  0
 11 21  1  0
 12 13  1  0
 13 14  2  0
 14 15  1  0
 16 15  1  6
 16 17  1  0
 17  8  1  0
 18 16  1  0
 18 22  1  0
 19 18  2  0
 20 14  1  0
 21 20  2  0
 23 22  1  0
 23 31  1  0
 23 24  1  1
 24 25  1  0
 25 30  1  0
 25 26  2  0
 26 27  1  0
 27 28  2  0
 29 28  1  0
 30 29  2  0
 31 33  1  0
 32 31  2  0
M  END
$$$$
