KYF.pdb
     RDKit          3D

 33 34  0  0  1  0  0  0  0  0999 V2000
   26.2951  -12.9030  -19.6525 N   0  0  0  0  0  0  0  0  0  0  0  0
   26.2007  -11.8116  -20.6407 C   0  0  1  0  0  0  0  0  0  0  0  0
   26.2665  -12.4635  -21.9871 C   0  0  0  0  0  0  0  0  0  0  0  0
   27.2673  -13.5703  -22.0121 C   0  0  0  0  0  0  0  0  0  0  0  0
   26.8269  -14.6338  -22.9739 C   0  0  0  0  0  0  0  0  0  0  0  0
   27.8530  -15.7275  -23.0696 C   0  0  0  0  0  0  0  0  0  0  0  0
   27.2667  -16.7558  -23.9343 N   0  0  0  0  0  0  0  0  0  0  0  0
   24.9217  -11.1000  -20.4860 C   0  0  0  0  0  0  0  0  0  0  0  0
   24.6257  -10.1899  -21.2941 O   0  0  0  0  0  0  0  0  0  0  0  0
   20.8764  -14.8235  -24.1386 O   0  0  0  0  0  0  0  0  0  0  0  0
   21.0844  -14.1452  -22.9519 C   0  0  0  0  0  0  0  0  0  0  0  0
   20.5062  -12.9181  -22.7615 C   0  0  0  0  0  0  0  0  0  0  0  0
   20.6780  -12.2040  -21.6087 C   0  0  0  0  0  0  0  0  0  0  0  0
   21.4607  -12.7074  -20.5683 C   0  0  0  0  0  0  0  0  0  0  0  0
   21.6337  -11.9145  -19.3503 C   0  0  0  0  0  0  0  0  0  0  0  0
   22.6708  -10.8059  -19.4783 C   0  0  2  0  0  0  0  0  0  0  0  0
   23.9912  -11.3995  -19.4484 N   0  0  0  0  0  0  0  0  0  0  0  0
   22.5366   -9.8638  -18.3476 C   0  0  0  0  0  0  0  0  0  0  0  0
   22.8510  -10.1357  -17.1653 O   0  0  0  0  0  0  0  0  0  0  0  0
   22.0426  -13.9474  -20.7663 C   0  0  0  0  0  0  0  0  0  0  0  0
   21.8605  -14.6541  -21.9316 C   0  0  0  0  0  0  0  0  0  0  0  0
   22.0210   -8.5656  -18.5986 N   0  0  0  0  0  0  0  0  0  0  0  0
   21.9588   -7.5894  -17.5053 C   0  0  1  0  0  0  0  0  0  0  0  0
   23.3937   -7.3817  -17.0587 C   0  0  0  0  0  0  0  0  0  0  0  0
   23.4957   -6.2296  -16.1414 C   0  0  0  0  0  0  0  0  0  0  0  0
   22.7540   -6.1578  -14.9879 C   0  0  0  0  0  0  0  0  0  0  0  0
   22.8642   -5.0624  -14.1249 C   0  0  0  0  0  0  0  0  0  0  0  0
   23.7461   -4.0363  -14.4574 C   0  0  0  0  0  0  0  0  0  0  0  0
   24.4931   -4.0979  -15.6096 C   0  0  0  0  0  0  0  0  0  0  0  0
   24.3523   -5.1974  -16.4314 C   0  0  0  0  0  0  0  0  0  0  0  0
   21.3212   -6.3712  -18.0279 C   0  0  0  0  0  0  0  0  0  0  0  0
   20.5139   -5.7393  -17.3114 O   0  0  0  0  0  0  0  0  0  0  0  0
   21.5880   -5.8981  -19.2969 O   0  0  0  0  0  0  0  0  0  0  0  0
  2  3  1  0
  2  1  1  1
  4  3  1  0
  5  4  1  0
  6  5  1  0
  7  6  1  0
  8  2  1  0
  9  8  2  0
 10 11  1  0
 11 12  2  0
 11 21  1  0
 12 13  1  0
 13 14  2  0
 14 15  1  0
 16 15  1  1
 16 17  1  0
 17  8  1  0
 18 16  1  0
 18 22  1  0
 19 18  2  0
 20 14  1  0
 21 20  2  0
 23 22  1  0
 23 31  1  0
 23 24  1  6
 24 25  1  0
 25 30  1  0
 25 26  2  0
 26 27  1  0
 27 28  2  0
 29 28  1  0
 30 29  2  0
 31 33  1  0
 32 31  2  0
M  END
$$$$
