KYF.pdb
     RDKit          3D

 33 34  0  0  1  0  0  0  0  0999 V2000
   28.2471  -22.9576  -18.3976 N   0  0  0  0  0  0  0  0  0  0  0  0
   28.1723  -21.6233  -17.7725 C   0  0  1  0  0  0  0  0  0  0  0  0
   27.4403  -20.7500  -18.7438 C   0  0  0  0  0  0  0  0  0  0  0  0
   28.1582  -20.6598  -20.0490 C   0  0  0  0  0  0  0  0  0  0  0  0
   29.4478  -19.9145  -19.8707 C   0  0  0  0  0  0  0  0  0  0  0  0
   30.1318  -19.7041  -21.1922 C   0  0  0  0  0  0  0  0  0  0  0  0
   31.3676  -18.9739  -20.8946 N   0  0  0  0  0  0  0  0  0  0  0  0
   27.4298  -21.7011  -16.5041 C   0  0  0  0  0  0  0  0  0  0  0  0
   26.4317  -22.4536  -16.4241 O   0  0  0  0  0  0  0  0  0  0  0  0
   24.7931  -20.3906   -8.1691 O   0  0  0  0  0  0  0  0  0  0  0  0
   25.5053  -20.3333   -9.3527 C   0  0  0  0  0  0  0  0  0  0  0  0
   25.8049  -21.4911  -10.0209 C   0  0  0  0  0  0  0  0  0  0  0  0
   26.5058  -21.4931  -11.1944 C   0  0  0  0  0  0  0  0  0  0  0  0
   26.9481  -20.2973  -11.7626 C   0  0  0  0  0  0  0  0  0  0  0  0
   27.7049  -20.3331  -13.0148 C   0  0  0  0  0  0  0  0  0  0  0  0
   26.9757  -21.0305  -14.1563 C   0  0  2  0  0  0  0  0  0  0  0  0
   27.7953  -20.9523  -15.3474 N   0  0  0  0  0  0  0  0  0  0  0  0
   25.6853  -20.3564  -14.4100 C   0  0  0  0  0  0  0  0  0  0  0  0
   25.5672  -19.2786  -15.0385 O   0  0  0  0  0  0  0  0  0  0  0  0
   26.6428  -19.1308  -11.0832 C   0  0  0  0  0  0  0  0  0  0  0  0
   25.9367  -19.1447   -9.9034 C   0  0  0  0  0  0  0  0  0  0  0  0
   24.4953  -20.9532  -13.9182 N   0  0  0  0  0  0  0  0  0  0  0  0
   23.2094  -20.2789  -14.1275 C   0  0  1  0  0  0  0  0  0  0  0  0
   22.9988  -20.2544  -15.6297 C   0  0  0  0  0  0  0  0  0  0  0  0
   21.6706  -19.7034  -15.9640 C   0  0  0  0  0  0  0  0  0  0  0  0
   21.4503  -18.3504  -16.0452 C   0  0  0  0  0  0  0  0  0  0  0  0
   20.1877  -17.8419  -16.3679 C   0  0  0  0  0  0  0  0  0  0  0  0
   19.1481  -18.7381  -16.6076 C   0  0  0  0  0  0  0  0  0  0  0  0
   19.3576  -20.0942  -16.5288 C   0  0  0  0  0  0  0  0  0  0  0  0
   20.6193  -20.5513  -16.2075 C   0  0  0  0  0  0  0  0  0  0  0  0
   22.1812  -21.0387  -13.3999 C   0  0  0  0  0  0  0  0  0  0  0  0
   22.3082  -22.2753  -13.2610 O   0  0  0  0  0  0  0  0  0  0  0  0
   21.0693  -20.4245  -12.8599 O   0  0  0  0  0  0  0  0  0  0  0  0
  2  3  1  0
  2  1  1  6
  4  3  1  0
  5  4  1  0
  6  5  1  0
  7  6  1  0
  8  2  1  0
  9  8  2  0
 10 11  1  0
 11 12  2  0
 11 21  1  0
 12 13  1  0
 13 14  2  0
 14 15  1  0
 16 15  1  1
 16 17  1  0
 17  8  1  0
 18 16  1  0
 18 22  1  0
 19 18  2  0
 20 14  1  0
 21 20  2  0
 23 22  1  0
 23 31  1  0
 23 24  1  6
 24 25  1  0
 25 30  1  0
 25 26  2  0
 26 27  1  0
 27 28  2  0
 29 28  1  0
 30 29  2  0
 31 33  1  0
 32 31  2  0
M  END
$$$$
