KYF.pdb
     RDKit          3D

 33 34  0  0  1  0  0  0  0  0999 V2000
   26.4044  -20.9064  -17.0049 N   0  0  0  0  0  0  0  0  0  0  0  0
   26.6872  -21.7219  -15.8084 C   0  0  1  0  0  0  0  0  0  0  0  0
   28.1787  -21.8034  -15.7042 C   0  0  0  0  0  0  0  0  0  0  0  0
   28.7357  -22.8469  -16.6142 C   0  0  0  0  0  0  0  0  0  0  0  0
   28.4136  -24.2118  -16.0818 C   0  0  0  0  0  0  0  0  0  0  0  0
   28.8946  -25.2807  -17.0222 C   0  0  0  0  0  0  0  0  0  0  0  0
   28.5702  -26.5580  -16.3805 N   0  0  0  0  0  0  0  0  0  0  0  0
   26.1320  -21.0706  -14.6110 C   0  0  0  0  0  0  0  0  0  0  0  0
   26.2405  -19.8294  -14.4832 O   0  0  0  0  0  0  0  0  0  0  0  0
   20.1195  -18.8789  -16.1751 O   0  0  0  0  0  0  0  0  0  0  0  0
   20.9252  -19.4671  -15.2178 C   0  0  0  0  0  0  0  0  0  0  0  0
   21.3911  -20.7405  -15.4125 C   0  0  0  0  0  0  0  0  0  0  0  0
   22.1906  -21.3701  -14.4999 C   0  0  0  0  0  0  0  0  0  0  0  0
   22.5666  -20.7281  -13.3187 C   0  0  0  0  0  0  0  0  0  0  0  0
   23.4152  -21.4324  -12.3565 C   0  0  0  0  0  0  0  0  0  0  0  0
   24.8924  -21.0737  -12.4589 C   0  0  2  0  0  0  0  0  0  0  0  0
   25.4684  -21.7924  -13.5761 N   0  0  0  0  0  0  0  0  0  0  0  0
   25.5891  -21.4685  -11.2168 C   0  0  0  0  0  0  0  0  0  0  0  0
   25.6869  -22.6503  -10.8112 O   0  0  0  0  0  0  0  0  0  0  0  0
   22.0927  -19.4419  -13.1271 C   0  0  0  0  0  0  0  0  0  0  0  0
   21.2892  -18.8216  -14.0546 C   0  0  0  0  0  0  0  0  0  0  0  0
   26.1907  -20.4588  -10.4214 N   0  0  0  0  0  0  0  0  0  0  0  0
   26.6696  -20.7897   -9.0749 C   0  0  1  0  0  0  0  0  0  0  0  0
   27.6510  -19.6926   -8.7074 C   0  0  0  0  0  0  0  0  0  0  0  0
   28.0239  -19.7788   -7.2816 C   0  0  0  0  0  0  0  0  0  0  0  0
   28.9645  -20.6740   -6.8346 C   0  0  0  0  0  0  0  0  0  0  0  0
   29.3120  -20.7415   -5.4813 C   0  0  0  0  0  0  0  0  0  0  0  0
   28.6830  -19.8786   -4.5863 C   0  0  0  0  0  0  0  0  0  0  0  0
   27.7401  -18.9789   -5.0230 C   0  0  0  0  0  0  0  0  0  0  0  0
   27.4284  -18.9470   -6.3668 C   0  0  0  0  0  0  0  0  0  0  0  0
   25.4990  -20.8561   -8.1866 C   0  0  0  0  0  0  0  0  0  0  0  0
   24.5540  -20.0527   -8.3474 O   0  0  0  0  0  0  0  0  0  0  0  0
   25.4091  -21.7862   -7.1706 O   0  0  0  0  0  0  0  0  0  0  0  0
  2  3  1  0
  2  1  1  6
  4  3  1  0
  5  4  1  0
  6  5  1  0
  7  6  1  0
  8  2  1  0
  9  8  2  0
 10 11  1  0
 11 12  2  0
 11 21  1  0
 12 13  1  0
 13 14  2  0
 14 15  1  0
 16 15  1  1
 16 17  1  0
 17  8  1  0
 18 16  1  0
 18 22  1  0
 19 18  2  0
 20 14  1  0
 21 20  2  0
 23 22  1  0
 23 31  1  0
 23 24  1  1
 24 25  1  0
 25 30  1  0
 25 26  2  0
 26 27  1  0
 27 28  2  0
 29 28  1  0
 30 29  2  0
 31 33  1  0
 32 31  2  0
M  END
$$$$
