KYF.pdb
     RDKit          3D

 33 34  0  0  1  0  0  0  0  0999 V2000
   36.4131  -37.9607   -5.6727 N   0  0  0  0  0  0  0  0  0  0  0  0
   35.4868  -36.9523   -6.2219 C   0  0  1  0  0  0  0  0  0  0  0  0
   35.3612  -37.2556   -7.6828 C   0  0  0  0  0  0  0  0  0  0  0  0
   34.4953  -36.2581   -8.3774 C   0  0  0  0  0  0  0  0  0  0  0  0
   34.4364  -36.5681   -9.8439 C   0  0  0  0  0  0  0  0  0  0  0  0
   33.7324  -35.4732  -10.5948 C   0  0  0  0  0  0  0  0  0  0  0  0
   33.9210  -35.7741  -12.0170 N   0  0  0  0  0  0  0  0  0  0  0  0
   34.1730  -37.0646   -5.5680 C   0  0  0  0  0  0  0  0  0  0  0  0
   33.9666  -38.0042   -4.7659 O   0  0  0  0  0  0  0  0  0  0  0  0
   33.4006  -40.5704   -0.5136 O   0  0  0  0  0  0  0  0  0  0  0  0
   33.0811  -39.4427   -1.2469 C   0  0  0  0  0  0  0  0  0  0  0  0
   34.0609  -38.7866   -1.9440 C   0  0  0  0  0  0  0  0  0  0  0  0
   33.8013  -37.6677   -2.6851 C   0  0  0  0  0  0  0  0  0  0  0  0
   32.5088  -37.1456   -2.7591 C   0  0  0  0  0  0  0  0  0  0  0  0
   32.2647  -35.9405   -3.5528 C   0  0  0  0  0  0  0  0  0  0  0  0
   31.9054  -36.2217   -5.0063 C   0  0  2  0  0  0  0  0  0  0  0  0
   33.1103  -36.1448   -5.8058 N   0  0  0  0  0  0  0  0  0  0  0  0
   30.9394  -35.2114   -5.4862 C   0  0  0  0  0  0  0  0  0  0  0  0
   31.2102  -34.3255   -6.3302 O   0  0  0  0  0  0  0  0  0  0  0  0
   31.5230  -37.8124   -2.0525 C   0  0  0  0  0  0  0  0  0  0  0  0
   31.7995  -38.9371   -1.3114 C   0  0  0  0  0  0  0  0  0  0  0  0
   29.6178  -35.2314   -4.9693 N   0  0  0  0  0  0  0  0  0  0  0  0
   28.6522  -34.2214   -5.4161 C   0  0  1  0  0  0  0  0  0  0  0  0
   28.4490  -34.4755   -6.8979 C   0  0  0  0  0  0  0  0  0  0  0  0
   27.4448  -33.5483   -7.4559 C   0  0  0  0  0  0  0  0  0  0  0  0
   26.1066  -33.8565   -7.4686 C   0  0  0  0  0  0  0  0  0  0  0  0
   25.1652  -32.9663   -7.9960 C   0  0  0  0  0  0  0  0  0  0  0  0
   25.6107  -31.7516   -8.5127 C   0  0  0  0  0  0  0  0  0  0  0  0
   26.9479  -31.4331   -8.5051 C   0  0  0  0  0  0  0  0  0  0  0  0
   27.8413  -32.3413   -7.9749 C   0  0  0  0  0  0  0  0  0  0  0  0
   27.4289  -34.3860   -4.6160 C   0  0  0  0  0  0  0  0  0  0  0  0
   26.7910  -33.3756   -4.2461 O   0  0  0  0  0  0  0  0  0  0  0  0
   26.9574  -35.6325   -4.2566 O   0  0  0  0  0  0  0  0  0  0  0  0
  2  3  1  0
  2  1  1  1
  4  3  1  0
  5  4  1  0
  6  5  1  0
  7  6  1  0
  8  2  1  0
  9  8  2  0
 10 11  1  0
 11 12  2  0
 11 21  1  0
 12 13  1  0
 13 14  2  0
 14 15  1  0
 16 15  1  1
 16 17  1  0
 17  8  1  0
 18 16  1  0
 18 22  1  0
 19 18  2  0
 20 14  1  0
 21 20  2  0
 23 22  1  0
 23 31  1  0
 23 24  1  6
 24 25  1  0
 25 30  1  0
 25 26  2  0
 26 27  1  0
 27 28  2  0
 29 28  1  0
 30 29  2  0
 31 33  1  0
 32 31  2  0
M  END
$$$$
