KYF.pdb
     RDKit          3D

 33 34  0  0  1  0  0  0  0  0999 V2000
   23.0807  -19.2612  -17.1240 N   0  0  0  0  0  0  0  0  0  0  0  0
   22.4313  -20.4452  -17.7181 C   0  0  1  0  0  0  0  0  0  0  0  0
   23.2124  -20.7714  -18.9532 C   0  0  0  0  0  0  0  0  0  0  0  0
   23.2329  -19.6245  -19.9079 C   0  0  0  0  0  0  0  0  0  0  0  0
   22.1420  -19.7882  -20.9244 C   0  0  0  0  0  0  0  0  0  0  0  0
   22.1918  -18.6866  -21.9454 C   0  0  0  0  0  0  0  0  0  0  0  0
   21.0315  -18.8924  -22.8173 N   0  0  0  0  0  0  0  0  0  0  0  0
   22.4817  -21.5746  -16.7757 C   0  0  0  0  0  0  0  0  0  0  0  0
   22.0926  -22.7040  -17.1522 O   0  0  0  0  0  0  0  0  0  0  0  0
   28.7578  -23.0619  -17.3600 O   0  0  0  0  0  0  0  0  0  0  0  0
   27.6879  -22.9147  -16.4966 C   0  0  0  0  0  0  0  0  0  0  0  0
   26.9164  -24.0017  -16.1809 C   0  0  0  0  0  0  0  0  0  0  0  0
   25.8476  -23.9136  -15.3333 C   0  0  0  0  0  0  0  0  0  0  0  0
   25.4988  -22.6942  -14.7503 C   0  0  0  0  0  0  0  0  0  0  0  0
   24.3430  -22.6301  -13.8548 C   0  0  0  0  0  0  0  0  0  0  0  0
   23.0026  -22.6087  -14.5786 C   0  0  2  0  0  0  0  0  0  0  0  0
   22.9576  -21.4444  -15.4382 N   0  0  0  0  0  0  0  0  0  0  0  0
   21.9044  -22.5269  -13.5929 C   0  0  0  0  0  0  0  0  0  0  0  0
   21.8036  -21.6272  -12.7263 O   0  0  0  0  0  0  0  0  0  0  0  0
   26.2816  -21.5994  -15.0731 C   0  0  0  0  0  0  0  0  0  0  0  0
   27.3539  -21.7037  -15.9273 C   0  0  0  0  0  0  0  0  0  0  0  0
   20.8921  -23.5213  -13.6152 N   0  0  0  0  0  0  0  0  0  0  0  0
   19.7335  -23.3926  -12.7245 C   0  0  1  0  0  0  0  0  0  0  0  0
   19.0357  -22.1118  -13.1419 C   0  0  0  0  0  0  0  0  0  0  0  0
   17.7216  -21.9912  -12.4801 C   0  0  0  0  0  0  0  0  0  0  0  0
   17.6100  -21.6549  -11.1533 C   0  0  0  0  0  0  0  0  0  0  0  0
   16.3582  -21.5391  -10.5399 C   0  0  0  0  0  0  0  0  0  0  0  0
   15.2162  -21.7726  -11.3033 C   0  0  0  0  0  0  0  0  0  0  0  0
   15.3165  -22.1099  -12.6320 C   0  0  0  0  0  0  0  0  0  0  0  0
   16.5717  -22.2128  -13.1957 C   0  0  0  0  0  0  0  0  0  0  0  0
   18.9051  -24.5968  -12.8897 C   0  0  0  0  0  0  0  0  0  0  0  0
   18.8480  -25.1601  -14.0050 O   0  0  0  0  0  0  0  0  0  0  0  0
   18.1813  -25.1306  -11.8426 O   0  0  0  0  0  0  0  0  0  0  0  0
  2  3  1  0
  2  1  1  1
  4  3  1  0
  5  4  1  0
  6  5  1  0
  7  6  1  0
  8  2  1  0
  9  8  2  0
 10 11  1  0
 11 12  2  0
 11 21  1  0
 12 13  1  0
 13 14  2  0
 14 15  1  0
 16 15  1  1
 16 17  1  0
 17  8  1  0
 18 16  1  0
 18 22  1  0
 19 18  2  0
 20 14  1  0
 21 20  2  0
 23 22  1  0
 23 31  1  0
 23 24  1  6
 24 25  1  0
 25 30  1  0
 25 26  2  0
 26 27  1  0
 27 28  2  0
 29 28  1  0
 30 29  2  0
 31 33  1  0
 32 31  2  0
M  END
$$$$
