KYF.pdb
     RDKit          3D

 33 34  0  0  1  0  0  0  0  0999 V2000
   28.2751  -22.3703  -18.5063 N   0  0  0  0  0  0  0  0  0  0  0  0
   28.0909  -21.0869  -17.8024 C   0  0  1  0  0  0  0  0  0  0  0  0
   27.2545  -20.2342  -18.7055 C   0  0  0  0  0  0  0  0  0  0  0  0
   28.0359  -19.7502  -19.8813 C   0  0  0  0  0  0  0  0  0  0  0  0
   29.0483  -18.7361  -19.4377 C   0  0  0  0  0  0  0  0  0  0  0  0
   29.7338  -18.1111  -20.6200 C   0  0  0  0  0  0  0  0  0  0  0  0
   30.7649  -17.2277  -20.0675 N   0  0  0  0  0  0  0  0  0  0  0  0
   27.3922  -21.3071  -16.5259 C   0  0  0  0  0  0  0  0  0  0  0  0
   26.5054  -22.1889  -16.4574 O   0  0  0  0  0  0  0  0  0  0  0  0
   24.8536  -20.3291   -8.0815 O   0  0  0  0  0  0  0  0  0  0  0  0
   25.5709  -20.3531   -9.2633 C   0  0  0  0  0  0  0  0  0  0  0  0
   25.5695  -19.2535  -10.0801 C   0  0  0  0  0  0  0  0  0  0  0  0
   26.2607  -19.2222  -11.2590 C   0  0  0  0  0  0  0  0  0  0  0  0
   27.0038  -20.3267  -11.6791 C   0  0  0  0  0  0  0  0  0  0  0  0
   27.7250  -20.2660  -12.9513 C   0  0  0  0  0  0  0  0  0  0  0  0
   26.9403  -20.8237  -14.1321 C   0  0  2  0  0  0  0  0  0  0  0  0
   27.6790  -20.5564  -15.3484 N   0  0  0  0  0  0  0  0  0  0  0  0
   25.6204  -20.1634  -14.2109 C   0  0  0  0  0  0  0  0  0  0  0  0
   25.4303  -19.0306  -14.7121 O   0  0  0  0  0  0  0  0  0  0  0  0
   27.0013  -21.4349  -10.8501 C   0  0  0  0  0  0  0  0  0  0  0  0
   26.3012  -21.4513   -9.6668 C   0  0  0  0  0  0  0  0  0  0  0  0
   24.4866  -20.8404  -13.6911 N   0  0  0  0  0  0  0  0  0  0  0  0
   23.1676  -20.2027  -13.7660 C   0  0  1  0  0  0  0  0  0  0  0  0
   22.8143  -20.1633  -15.2409 C   0  0  0  0  0  0  0  0  0  0  0  0
   21.4515  -19.6314  -15.4394 C   0  0  0  0  0  0  0  0  0  0  0  0
   21.2123  -18.2839  -15.5531 C   0  0  0  0  0  0  0  0  0  0  0  0
   19.9164  -17.7939  -15.7461 C   0  0  0  0  0  0  0  0  0  0  0  0
   18.8630  -18.7026  -15.8216 C   0  0  0  0  0  0  0  0  0  0  0  0
   19.0912  -20.0534  -15.7089 C   0  0  0  0  0  0  0  0  0  0  0  0
   20.3857  -20.4922  -15.5194 C   0  0  0  0  0  0  0  0  0  0  0  0
   22.2359  -21.0038  -12.9572 C   0  0  0  0  0  0  0  0  0  0  0  0
   22.3852  -22.2437  -12.8882 O   0  0  0  0  0  0  0  0  0  0  0  0
   21.1914  -20.4250  -12.2649 O   0  0  0  0  0  0  0  0  0  0  0  0
  2  3  1  0
  2  1  1  6
  4  3  1  0
  5  4  1  0
  6  5  1  0
  7  6  1  0
  8  2  1  0
  9  8  2  0
 10 11  1  0
 11 12  2  0
 11 21  1  0
 12 13  1  0
 13 14  2  0
 14 15  1  0
 16 15  1  1
 16 17  1  0
 17  8  1  0
 18 16  1  0
 18 22  1  0
 19 18  2  0
 20 14  1  0
 21 20  2  0
 23 22  1  0
 23 31  1  0
 23 24  1  6
 24 25  1  0
 25 30  1  0
 25 26  2  0
 26 27  1  0
 27 28  2  0
 29 28  1  0
 30 29  2  0
 31 33  1  0
 32 31  2  0
M  END
$$$$
