SGY.pdb
     RDKit          3D

 23 23  0  0  1  0  0  0  0  0999 V2000
    7.9083  -15.5252   17.5151 O   0  0  0  0  0  0  0  0  0  0  0  0
    8.9483  -16.4256   17.7476 C   0  0  0  0  0  0  0  0  0  0  0  0
    8.3432  -17.7613   18.1317 C   0  0  2  0  0  0  0  0  0  0  0  0
    7.3307  -18.1885   17.2140 N   0  0  0  0  0  0  0  0  0  0  0  0
    7.7102  -17.5711   19.4786 C   0  0  0  0  0  0  0  0  0  0  0  0
    6.4648  -17.5906   19.6238 O   0  0  0  0  0  0  0  0  0  0  0  0
    8.5106  -17.3624   20.6337 N   0  0  0  0  0  0  0  0  0  0  0  0
    8.0053  -17.6950   21.9366 C   0  0  0  0  0  0  0  0  0  0  0  0
    9.0229  -17.2577   22.9481 C   0  0  0  0  0  0  0  0  0  0  0  0
   10.1008  -17.8841   23.1435 O   0  0  0  0  0  0  0  0  0  0  0  0
    4.9486  -12.0441   26.6706 O   0  0  0  0  0  0  0  0  0  0  0  0
    6.1667  -12.5358   26.2031 C   0  0  0  0  0  0  0  0  0  0  0  0
    7.3034  -12.5835   26.9828 C   0  0  0  0  0  0  0  0  0  0  0  0
    8.4773  -13.0806   26.4638 C   0  0  0  0  0  0  0  0  0  0  0  0
    8.5663  -13.5481   25.1540 C   0  0  0  0  0  0  0  0  0  0  0  0
    9.8429  -14.0585   24.6255 C   0  0  0  0  0  0  0  0  0  0  0  0
    9.8532  -15.5514   24.6259 C   0  0  2  0  0  0  0  0  0  0  0  0
    8.8223  -16.0996   23.7490 N   0  0  0  0  0  0  0  0  0  0  0  0
    9.7131  -16.1541   25.9607 C   0  0  0  0  0  0  0  0  0  0  0  0
   10.6437  -16.0976   26.9818 O   0  0  0  0  0  0  0  0  0  0  0  0
    7.4181  -13.4911   24.3919 C   0  0  0  0  0  0  0  0  0  0  0  0
    6.2601  -12.9981   24.9118 C   0  0  0  0  0  0  0  0  0  0  0  0
    8.6527  -16.7986   26.2459 O   0  0  0  0  0  0  0  0  0  0  0  0
  2  3  1  0
  2  1  1  0
  3  4  1  6
  5  7  1  0
  5  3  1  0
  6  5  2  0
  8  7  1  0
  9 18  1  0
  9  8  1  0
 10  9  2  0
 12 11  1  0
 12 22  2  0
 13 12  1  0
 14 13  2  0
 14 15  1  0
 15 21  2  0
 16 15  1  0
 17 16  1  1
 17 18  1  0
 19 20  1  0
 19 17  1  0
 21 22  1  0
 23 19  2  0
M  END
$$$$
