SGY.pdb
     RDKit          3D

 23 23  0  0  1  0  0  0  0  0999 V2000
    6.1644  -22.8628   20.4585 O   0  0  0  0  0  0  0  0  0  0  0  0
    5.9808  -21.8575   19.5088 C   0  0  0  0  0  0  0  0  0  0  0  0
    6.8243  -20.6640   19.9114 C   0  0  2  0  0  0  0  0  0  0  0  0
    8.1524  -21.0362   20.2955 N   0  0  0  0  0  0  0  0  0  0  0  0
    6.1462  -20.0430   21.0969 C   0  0  0  0  0  0  0  0  0  0  0  0
    5.0144  -19.5122   20.9983 O   0  0  0  0  0  0  0  0  0  0  0  0
    6.7727  -20.0398   22.3721 N   0  0  0  0  0  0  0  0  0  0  0  0
    6.1142  -19.4470   23.5027 C   0  0  0  0  0  0  0  0  0  0  0  0
    7.0191  -18.3863   24.0558 C   0  0  0  0  0  0  0  0  0  0  0  0
    8.2629  -18.3742   23.8427 O   0  0  0  0  0  0  0  0  0  0  0  0
   10.6781  -13.5907   30.1698 O   0  0  0  0  0  0  0  0  0  0  0  0
   10.1781  -14.4339   29.1783 C   0  0  0  0  0  0  0  0  0  0  0  0
   10.2992  -15.8067   29.2322 C   0  0  0  0  0  0  0  0  0  0  0  0
    9.7842  -16.5864   28.2216 C   0  0  0  0  0  0  0  0  0  0  0  0
    9.1311  -16.0334   27.1218 C   0  0  0  0  0  0  0  0  0  0  0  0
    8.6062  -16.8963   26.0498 C   0  0  0  0  0  0  0  0  0  0  0  0
    7.3711  -16.3047   25.4553 C   0  0  2  0  0  0  0  0  0  0  0  0
    6.5150  -17.3263   24.8589 N   0  0  0  0  0  0  0  0  0  0  0  0
    7.6269  -15.2550   24.4566 C   0  0  0  0  0  0  0  0  0  0  0  0
    7.4642  -13.8949   24.6443 O   0  0  0  0  0  0  0  0  0  0  0  0
    9.0213  -14.6589   27.0878 C   0  0  0  0  0  0  0  0  0  0  0  0
    9.5331  -13.8935   28.0912 C   0  0  0  0  0  0  0  0  0  0  0  0
    8.0362  -15.5842   23.2967 O   0  0  0  0  0  0  0  0  0  0  0  0
  2  3  1  0
  2  1  1  0
  3  4  1  1
  5  7  1  0
  5  3  1  0
  6  5  2  0
  8  7  1  0
  9 18  1  0
  9  8  1  0
 10  9  2  0
 12 11  1  0
 12 22  2  0
 13 12  1  0
 14 13  2  0
 14 15  1  0
 15 21  2  0
 16 15  1  0
 17 16  1  6
 17 18  1  0
 19 20  1  0
 19 17  1  0
 21 22  1  0
 23 19  2  0
M  END
$$$$
