SGY.pdb
     RDKit          3D

 23 23  0  0  1  0  0  0  0  0999 V2000
    9.8557  -19.0259   17.0279 O   0  0  0  0  0  0  0  0  0  0  0  0
   10.9238  -18.1994   17.3775 C   0  0  0  0  0  0  0  0  0  0  0  0
   11.1160  -18.2812   18.8789 C   0  0  2  0  0  0  0  0  0  0  0  0
   10.4678  -19.4215   19.4531 N   0  0  0  0  0  0  0  0  0  0  0  0
   10.4944  -17.0439   19.4565 C   0  0  0  0  0  0  0  0  0  0  0  0
   10.9756  -15.9070   19.2362 O   0  0  0  0  0  0  0  0  0  0  0  0
    9.3356  -17.1277   20.2743 N   0  0  0  0  0  0  0  0  0  0  0  0
    8.7845  -15.9452   20.8754 C   0  0  0  0  0  0  0  0  0  0  0  0
    9.5251  -15.6942   22.1555 C   0  0  0  0  0  0  0  0  0  0  0  0
   10.7748  -15.5236   22.1962 O   0  0  0  0  0  0  0  0  0  0  0  0
   11.1998  -14.7106   30.7545 O   0  0  0  0  0  0  0  0  0  0  0  0
   10.5547  -14.7787   29.5203 C   0  0  0  0  0  0  0  0  0  0  0  0
   10.0136  -15.9454   29.0220 C   0  0  0  0  0  0  0  0  0  0  0  0
    9.3884  -15.9491   27.7958 C   0  0  0  0  0  0  0  0  0  0  0  0
    9.2772  -14.7967   27.0200 C   0  0  0  0  0  0  0  0  0  0  0  0
    8.6158  -14.8396   25.7047 C   0  0  0  0  0  0  0  0  0  0  0  0
    9.5358  -15.4005   24.6713 C   0  0  2  0  0  0  0  0  0  0  0  0
    8.8479  -15.6349   23.4047 N   0  0  0  0  0  0  0  0  0  0  0  0
   10.2167  -16.6391   25.0799 C   0  0  0  0  0  0  0  0  0  0  0  0
   11.4970  -16.7335   25.5934 O   0  0  0  0  0  0  0  0  0  0  0  0
    9.8252  -13.6414   27.5370 C   0  0  0  0  0  0  0  0  0  0  0  0
   10.4423  -13.6450   28.7510 C   0  0  0  0  0  0  0  0  0  0  0  0
    9.6085  -17.7519   24.9663 O   0  0  0  0  0  0  0  0  0  0  0  0
  2  3  1  0
  2  1  1  0
  3  4  1  1
  5  7  1  0
  5  3  1  0
  6  5  2  0
  8  7  1  0
  9 18  1  0
  9  8  1  0
 10  9  2  0
 12 11  1  0
 12 22  2  0
 13 12  1  0
 14 13  2  0
 14 15  1  0
 15 21  2  0
 16 15  1  0
 17 16  1  1
 17 18  1  0
 19 20  1  0
 19 17  1  0
 21 22  1  0
 23 19  2  0
M  END
$$$$
