SGY.pdb
     RDKit          3D

 23 23  0  0  1  0  0  0  0  0999 V2000
    6.4785  -18.6965   23.3074 O   0  0  0  0  0  0  0  0  0  0  0  0
    5.5939  -18.5212   22.2429 C   0  0  0  0  0  0  0  0  0  0  0  0
    6.4009  -18.1784   21.0063 C   0  0  2  0  0  0  0  0  0  0  0  0
    7.4287  -19.1387   20.7390 N   0  0  0  0  0  0  0  0  0  0  0  0
    7.0509  -16.8532   21.2751 C   0  0  0  0  0  0  0  0  0  0  0  0
    6.3697  -15.8156   21.4537 O   0  0  0  0  0  0  0  0  0  0  0  0
    8.4657  -16.7376   21.3350 N   0  0  0  0  0  0  0  0  0  0  0  0
    9.0798  -15.4636   21.5864 C   0  0  0  0  0  0  0  0  0  0  0  0
    9.4367  -15.4062   23.0421 C   0  0  0  0  0  0  0  0  0  0  0  0
   10.2779  -14.5871   23.5046 O   0  0  0  0  0  0  0  0  0  0  0  0
    5.9715  -10.8167   26.4955 O   0  0  0  0  0  0  0  0  0  0  0  0
    6.4609  -12.1217   26.4576 C   0  0  0  0  0  0  0  0  0  0  0  0
    7.5429  -12.5372   27.2051 C   0  0  0  0  0  0  0  0  0  0  0  0
    7.9794  -13.8401   27.1246 C   0  0  0  0  0  0  0  0  0  0  0  0
    7.3592  -14.7773   26.3005 C   0  0  0  0  0  0  0  0  0  0  0  0
    7.8625  -16.1595   26.2260 C   0  0  0  0  0  0  0  0  0  0  0  0
    9.1174  -16.2197   25.4195 C   0  0  2  0  0  0  0  0  0  0  0  0
    8.8376  -16.2835   23.9877 N   0  0  0  0  0  0  0  0  0  0  0  0
   10.0121  -17.3307   25.7800 C   0  0  0  0  0  0  0  0  0  0  0  0
   10.4755  -18.3137   24.9252 O   0  0  0  0  0  0  0  0  0  0  0  0
    6.2794  -14.3406   25.5617 C   0  0  0  0  0  0  0  0  0  0  0  0
    5.8528  -13.0501   25.6463 C   0  0  0  0  0  0  0  0  0  0  0  0
   10.4219  -17.4370   26.9808 O   0  0  0  0  0  0  0  0  0  0  0  0
  2  3  1  0
  2  1  1  0
  3  4  1  1
  5  7  1  0
  5  3  1  0
  6  5  2  0
  8  7  1  0
  9 18  1  0
  9  8  1  0
 10  9  2  0
 12 11  1  0
 12 22  2  0
 13 12  1  0
 14 13  2  0
 14 15  1  0
 15 21  2  0
 16 15  1  0
 17 16  1  1
 17 18  1  0
 19 20  1  0
 19 17  1  0
 21 22  1  0
 23 19  2  0
M  END
$$$$
