SGY.pdb
     RDKit          3D

 23 23  0  0  1  0  0  0  0  0999 V2000
    9.8693  -18.5004   16.4456 O   0  0  0  0  0  0  0  0  0  0  0  0
    8.7917  -18.1100   17.2409 C   0  0  0  0  0  0  0  0  0  0  0  0
    9.1229  -16.7687   17.8645 C   0  0  2  0  0  0  0  0  0  0  0  0
   10.4889  -16.6821   18.2847 N   0  0  0  0  0  0  0  0  0  0  0  0
    8.2468  -16.6331   19.0749 C   0  0  0  0  0  0  0  0  0  0  0  0
    7.0017  -16.7600   18.9977 O   0  0  0  0  0  0  0  0  0  0  0  0
    8.8085  -16.3553   20.3499 N   0  0  0  0  0  0  0  0  0  0  0  0
    7.9955  -16.4254   21.5321 C   0  0  0  0  0  0  0  0  0  0  0  0
    8.8814  -16.1633   22.7138 C   0  0  0  0  0  0  0  0  0  0  0  0
   10.1031  -15.8698   22.5963 O   0  0  0  0  0  0  0  0  0  0  0  0
    5.8333  -10.6469   26.0286 O   0  0  0  0  0  0  0  0  0  0  0  0
    6.4271  -11.9048   26.1234 C   0  0  0  0  0  0  0  0  0  0  0  0
    5.6979  -13.0739   26.1846 C   0  0  0  0  0  0  0  0  0  0  0  0
    6.3423  -14.2866   26.2774 C   0  0  0  0  0  0  0  0  0  0  0  0
    7.7321  -14.3837   26.3129 C   0  0  0  0  0  0  0  0  0  0  0  0
    8.3890  -15.6968   26.4292 C   0  0  0  0  0  0  0  0  0  0  0  0
    9.2143  -15.9813   25.2181 C   0  0  2  0  0  0  0  0  0  0  0  0
    8.3833  -16.2329   24.0441 N   0  0  0  0  0  0  0  0  0  0  0  0
   10.1584  -17.0979   25.3815 C   0  0  0  0  0  0  0  0  0  0  0  0
   11.3808  -17.0435   26.0254 O   0  0  0  0  0  0  0  0  0  0  0  0
    8.4417  -13.2026   26.2507 C   0  0  0  0  0  0  0  0  0  0  0  0
    7.7976  -12.0063   26.1589 C   0  0  0  0  0  0  0  0  0  0  0  0
    9.8641  -18.2391   24.8996 O   0  0  0  0  0  0  0  0  0  0  0  0
  2  3  1  0
  2  1  1  0
  3  4  1  1
  5  7  1  0
  5  3  1  0
  6  5  2  0
  8  7  1  0
  9 18  1  0
  9  8  1  0
 10  9  2  0
 12 11  1  0
 12 22  2  0
 13 12  1  0
 14 13  2  0
 14 15  1  0
 15 21  2  0
 16 15  1  0
 17 16  1  1
 17 18  1  0
 19 20  1  0
 19 17  1  0
 21 22  1  0
 23 19  2  0
M  END
$$$$
