SGY.pdb
     RDKit          3D

 23 23  0  0  1  0  0  0  0  0999 V2000
    8.8994  -12.6890   19.4666 O   0  0  0  0  0  0  0  0  0  0  0  0
    8.3562  -13.8014   18.8232 C   0  0  0  0  0  0  0  0  0  0  0  0
    7.0448  -14.1481   19.4998 C   0  0  2  0  0  0  0  0  0  0  0  0
    6.7607  -13.2950   20.6140 N   0  0  0  0  0  0  0  0  0  0  0  0
    7.1840  -15.5540   20.0047 C   0  0  0  0  0  0  0  0  0  0  0  0
    7.3573  -16.5161   19.2193 O   0  0  0  0  0  0  0  0  0  0  0  0
    7.1229  -15.8349   21.3960 N   0  0  0  0  0  0  0  0  0  0  0  0
    7.3508  -17.1689   21.8778 C   0  0  0  0  0  0  0  0  0  0  0  0
    8.2378  -17.0753   23.0838 C   0  0  0  0  0  0  0  0  0  0  0  0
    8.6666  -18.0935   23.6936 O   0  0  0  0  0  0  0  0  0  0  0  0
    5.1329  -11.6669   26.5696 O   0  0  0  0  0  0  0  0  0  0  0  0
    6.3174  -12.3115   26.2154 C   0  0  0  0  0  0  0  0  0  0  0  0
    7.1913  -12.8353   27.1449 C   0  0  0  0  0  0  0  0  0  0  0  0
    8.3459  -13.4610   26.7326 C   0  0  0  0  0  0  0  0  0  0  0  0
    8.6754  -13.5895   25.3846 C   0  0  0  0  0  0  0  0  0  0  0  0
    9.9274  -14.2507   24.9788 C   0  0  0  0  0  0  0  0  0  0  0  0
    9.6785  -15.6813   24.6319 C   0  0  2  0  0  0  0  0  0  0  0  0
    8.6462  -15.8180   23.6083 N   0  0  0  0  0  0  0  0  0  0  0  0
    9.3234  -16.5268   25.7825 C   0  0  0  0  0  0  0  0  0  0  0  0
   10.1662  -16.8922   26.8158 O   0  0  0  0  0  0  0  0  0  0  0  0
    7.7878  -13.0586   24.4721 C   0  0  0  0  0  0  0  0  0  0  0  0
    6.6472  -12.4410   24.8871 C   0  0  0  0  0  0  0  0  0  0  0  0
    8.1405  -16.9886   25.8756 O   0  0  0  0  0  0  0  0  0  0  0  0
  2  3  1  0
  2  1  1  0
  3  4  1  1
  5  7  1  0
  5  3  1  0
  6  5  2  0
  8  7  1  0
  9 18  1  0
  9  8  1  0
 10  9  2  0
 12 11  1  0
 12 22  2  0
 13 12  1  0
 14 13  2  0
 14 15  1  0
 15 21  2  0
 16 15  1  0
 17 16  1  1
 17 18  1  0
 19 20  1  0
 19 17  1  0
 21 22  1  0
 23 19  2  0
M  END
$$$$
