SGY.pdb
     RDKit          3D

 23 23  0  0  1  0  0  0  0  0999 V2000
    7.1855  -14.5631   17.2201 O   0  0  0  0  0  0  0  0  0  0  0  0
    7.6583  -13.3872   17.8032 C   0  0  0  0  0  0  0  0  0  0  0  0
    8.9160  -13.7159   18.5829 C   0  0  2  0  0  0  0  0  0  0  0  0
    9.7176  -14.7103   17.9360 N   0  0  0  0  0  0  0  0  0  0  0  0
    8.4668  -14.2594   19.9072 C   0  0  0  0  0  0  0  0  0  0  0  0
    7.9265  -13.5230   20.7665 O   0  0  0  0  0  0  0  0  0  0  0  0
    8.6428  -15.6329   20.2255 N   0  0  0  0  0  0  0  0  0  0  0  0
    8.0725  -16.1786   21.4257 C   0  0  0  0  0  0  0  0  0  0  0  0
    9.0135  -15.8829   22.5557 C   0  0  0  0  0  0  0  0  0  0  0  0
   10.1525  -15.3701   22.3761 O   0  0  0  0  0  0  0  0  0  0  0  0
    5.0051  -12.0165   27.0270 O   0  0  0  0  0  0  0  0  0  0  0  0
    6.1627  -12.6466   26.5719 C   0  0  0  0  0  0  0  0  0  0  0  0
    6.1383  -13.7713   25.7740 C   0  0  0  0  0  0  0  0  0  0  0  0
    7.3160  -14.3483   25.3563 C   0  0  0  0  0  0  0  0  0  0  0  0
    8.5596  -13.8313   25.7146 C   0  0  0  0  0  0  0  0  0  0  0  0
    9.8007  -14.4835   25.2634 C   0  0  0  0  0  0  0  0  0  0  0  0
    9.5734  -15.9396   25.0253 C   0  0  2  0  0  0  0  0  0  0  0  0
    8.6658  -16.1692   23.9047 N   0  0  0  0  0  0  0  0  0  0  0  0
    9.0741  -16.6711   26.2002 C   0  0  0  0  0  0  0  0  0  0  0  0
    7.9170  -17.4255   26.2590 O   0  0  0  0  0  0  0  0  0  0  0  0
    8.5610  -12.7065   26.5129 C   0  0  0  0  0  0  0  0  0  0  0  0
    7.3919  -12.1407   26.9224 C   0  0  0  0  0  0  0  0  0  0  0  0
    9.7368  -16.6327   27.2868 O   0  0  0  0  0  0  0  0  0  0  0  0
  2  3  1  0
  2  1  1  0
  3  4  1  6
  5  7  1  0
  5  3  1  0
  6  5  2  0
  8  7  1  0
  9 18  1  0
  9  8  1  0
 10  9  2  0
 12 11  1  0
 12 22  2  0
 13 12  1  0
 14 13  2  0
 14 15  1  0
 15 21  2  0
 16 15  1  0
 17 16  1  1
 17 18  1  0
 19 20  1  0
 19 17  1  0
 21 22  1  0
 23 19  2  0
M  END
$$$$
