SGY.pdb
     RDKit          3D

 23 23  0  0  1  0  0  0  0  0999 V2000
    7.4908  -16.4425   18.3418 O   0  0  0  0  0  0  0  0  0  0  0  0
    8.0116  -15.1582   18.5021 C   0  0  0  0  0  0  0  0  0  0  0  0
    9.1027  -15.2159   19.5528 C   0  0  2  0  0  0  0  0  0  0  0  0
   10.0488  -16.2612   19.3037 N   0  0  0  0  0  0  0  0  0  0  0  0
    8.4215  -15.4968   20.8598 C   0  0  0  0  0  0  0  0  0  0  0  0
    7.5888  -14.6963   21.3479 O   0  0  0  0  0  0  0  0  0  0  0  0
    8.7038  -16.6858   21.5845 N   0  0  0  0  0  0  0  0  0  0  0  0
    8.0539  -16.9424   22.8395 C   0  0  0  0  0  0  0  0  0  0  0  0
    8.9882  -16.5198   23.9342 C   0  0  0  0  0  0  0  0  0  0  0  0
   10.0570  -15.8873   23.7100 O   0  0  0  0  0  0  0  0  0  0  0  0
    5.9798  -11.1153   25.7830 O   0  0  0  0  0  0  0  0  0  0  0  0
    6.6314  -12.2790   26.1896 C   0  0  0  0  0  0  0  0  0  0  0  0
    6.0974  -13.5377   26.0092 C   0  0  0  0  0  0  0  0  0  0  0  0
    6.7897  -14.6496   26.4325 C   0  0  0  0  0  0  0  0  0  0  0  0
    8.0355  -14.5533   27.0495 C   0  0  0  0  0  0  0  0  0  0  0  0
    8.7418  -15.7629   27.5051 C   0  0  0  0  0  0  0  0  0  0  0  0
    9.5543  -16.3465   26.3970 C   0  0  2  0  0  0  0  0  0  0  0  0
    8.7138  -16.8142   25.2983 N   0  0  0  0  0  0  0  0  0  0  0  0
   10.4446  -17.4408   26.8149 C   0  0  0  0  0  0  0  0  0  0  0  0
   11.5777  -17.3155   27.5973 O   0  0  0  0  0  0  0  0  0  0  0  0
    8.5509  -13.2853   27.2201 C   0  0  0  0  0  0  0  0  0  0  0  0
    7.8605  -12.1897   26.7988 C   0  0  0  0  0  0  0  0  0  0  0  0
   10.1867  -18.6311   26.4434 O   0  0  0  0  0  0  0  0  0  0  0  0
  2  3  1  0
  2  1  1  0
  3  4  1  6
  5  7  1  0
  5  3  1  0
  6  5  2  0
  8  7  1  0
  9 18  1  0
  9  8  1  0
 10  9  2  0
 12 11  1  0
 12 22  2  0
 13 12  1  0
 14 13  2  0
 14 15  1  0
 15 21  2  0
 16 15  1  0
 17 16  1  1
 17 18  1  0
 19 20  1  0
 19 17  1  0
 21 22  1  0
 23 19  2  0
M  END
$$$$
