SGY.pdb
     RDKit          3D

 23 23  0  0  1  0  0  0  0  0999 V2000
    6.5196  -20.4163   18.3799 O   0  0  0  0  0  0  0  0  0  0  0  0
    7.6600  -20.1836   17.6108 C   0  0  0  0  0  0  0  0  0  0  0  0
    8.6815  -19.4753   18.4784 C   0  0  2  0  0  0  0  0  0  0  0  0
    8.9946  -20.2097   19.6669 N   0  0  0  0  0  0  0  0  0  0  0  0
    8.0664  -18.1670   18.8796 C   0  0  0  0  0  0  0  0  0  0  0  0
    7.7061  -17.3245   18.0235 O   0  0  0  0  0  0  0  0  0  0  0  0
    7.8743  -17.8454   20.2501 N   0  0  0  0  0  0  0  0  0  0  0  0
    7.9819  -16.4849   20.6983 C   0  0  0  0  0  0  0  0  0  0  0  0
    9.0927  -16.4204   21.7043 C   0  0  0  0  0  0  0  0  0  0  0  0
    9.5899  -17.4513   22.2358 O   0  0  0  0  0  0  0  0  0  0  0  0
    6.2987  -11.8179   28.2903 O   0  0  0  0  0  0  0  0  0  0  0  0
    6.6456  -12.3605   27.0537 C   0  0  0  0  0  0  0  0  0  0  0  0
    5.7338  -12.9836   26.2275 C   0  0  0  0  0  0  0  0  0  0  0  0
    6.1376  -13.4999   25.0171 C   0  0  0  0  0  0  0  0  0  0  0  0
    7.4591  -13.4170   24.5828 C   0  0  0  0  0  0  0  0  0  0  0  0
    7.8604  -13.9949   23.2888 C   0  0  0  0  0  0  0  0  0  0  0  0
    9.2623  -14.5043   23.3521 C   0  0  2  0  0  0  0  0  0  0  0  0
    9.6494  -15.1780   22.1158 N   0  0  0  0  0  0  0  0  0  0  0  0
    9.5258  -15.4029   24.4869 C   0  0  0  0  0  0  0  0  0  0  0  0
    8.8663  -16.5874   24.7582 O   0  0  0  0  0  0  0  0  0  0  0  0
    8.3543  -12.7902   25.4243 C   0  0  0  0  0  0  0  0  0  0  0  0
    7.9478  -12.2816   26.6204 C   0  0  0  0  0  0  0  0  0  0  0  0
   10.4367  -15.1004   25.3236 O   0  0  0  0  0  0  0  0  0  0  0  0
  2  3  1  0
  2  1  1  0
  3  4  1  1
  5  7  1  0
  5  3  1  0
  6  5  2  0
  8  7  1  0
  9 18  1  0
  9  8  1  0
 10  9  2  0
 12 11  1  0
 12 22  2  0
 13 12  1  0
 14 13  2  0
 14 15  1  0
 15 21  2  0
 16 15  1  0
 17 16  1  6
 17 18  1  0
 19 20  1  0
 19 17  1  0
 21 22  1  0
 23 19  2  0
M  END
$$$$
