SGY.pdb
     RDKit          3D

 23 23  0  0  1  0  0  0  0  0999 V2000
    8.2083  -19.0400   17.7010 O   0  0  0  0  0  0  0  0  0  0  0  0
    9.5946  -18.9793   17.8453 C   0  0  0  0  0  0  0  0  0  0  0  0
    9.9138  -18.8657   19.3228 C   0  0  2  0  0  0  0  0  0  0  0  0
    9.3275  -19.9208   20.0929 N   0  0  0  0  0  0  0  0  0  0  0  0
    9.3313  -17.5629   19.7860 C   0  0  0  0  0  0  0  0  0  0  0  0
    9.7200  -16.4685   19.3129 O   0  0  0  0  0  0  0  0  0  0  0  0
    8.3166  -17.5341   20.7799 N   0  0  0  0  0  0  0  0  0  0  0  0
    7.8194  -16.2800   21.2734 C   0  0  0  0  0  0  0  0  0  0  0  0
    8.2861  -16.1279   22.6908 C   0  0  0  0  0  0  0  0  0  0  0  0
    7.8799  -16.8733   23.6245 O   0  0  0  0  0  0  0  0  0  0  0  0
   11.0093  -14.8736   30.6287 O   0  0  0  0  0  0  0  0  0  0  0  0
   10.4374  -14.9353   29.3586 C   0  0  0  0  0  0  0  0  0  0  0  0
   10.0697  -16.1224   28.7603 C   0  0  0  0  0  0  0  0  0  0  0  0
    9.5092  -16.1184   27.5032 C   0  0  0  0  0  0  0  0  0  0  0  0
    9.2932  -14.9380   26.7945 C   0  0  0  0  0  0  0  0  0  0  0  0
    8.7060  -14.9712   25.4441 C   0  0  0  0  0  0  0  0  0  0  0  0
    9.7775  -15.0090   24.4053 C   0  0  2  0  0  0  0  0  0  0  0  0
    9.2224  -15.1228   23.0595 N   0  0  0  0  0  0  0  0  0  0  0  0
   10.7704  -16.0767   24.6029 C   0  0  0  0  0  0  0  0  0  0  0  0
   10.4958  -17.4137   24.8236 O   0  0  0  0  0  0  0  0  0  0  0  0
    9.6682  -13.7627   27.4112 C   0  0  0  0  0  0  0  0  0  0  0  0
   10.2222  -13.7740   28.6552 C   0  0  0  0  0  0  0  0  0  0  0  0
   12.0102  -15.7879   24.5776 O   0  0  0  0  0  0  0  0  0  0  0  0
  2  3  1  0
  2  1  1  0
  3  4  1  1
  5  7  1  0
  5  3  1  0
  6  5  2  0
  8  7  1  0
  9 18  1  0
  9  8  1  0
 10  9  2  0
 12 11  1  0
 12 22  2  0
 13 12  1  0
 14 13  2  0
 14 15  1  0
 15 21  2  0
 16 15  1  0
 17 16  1  1
 17 18  1  0
 19 20  1  0
 19 17  1  0
 21 22  1  0
 23 19  2  0
M  END
$$$$
