SGY.pdb
     RDKit          3D

 23 23  0  0  1  0  0  0  0  0999 V2000
    5.2075  -19.4240   19.2391 O   0  0  0  0  0  0  0  0  0  0  0  0
    6.3700  -18.6545   19.1859 C   0  0  0  0  0  0  0  0  0  0  0  0
    6.8899  -18.4812   20.5993 C   0  0  2  0  0  0  0  0  0  0  0  0
    5.8357  -18.3919   21.5639 N   0  0  0  0  0  0  0  0  0  0  0  0
    7.6565  -17.1916   20.6165 C   0  0  0  0  0  0  0  0  0  0  0  0
    8.7744  -17.0885   20.0578 O   0  0  0  0  0  0  0  0  0  0  0  0
    7.1326  -16.0445   21.2709 N   0  0  0  0  0  0  0  0  0  0  0  0
    7.8235  -14.7873   21.1960 C   0  0  0  0  0  0  0  0  0  0  0  0
    8.7422  -14.6982   22.3784 C   0  0  0  0  0  0  0  0  0  0  0  0
    9.5966  -13.7787   22.5083 O   0  0  0  0  0  0  0  0  0  0  0  0
    5.3482  -11.1604   26.5474 O   0  0  0  0  0  0  0  0  0  0  0  0
    6.1436  -12.2920   26.3716 C   0  0  0  0  0  0  0  0  0  0  0  0
    5.6210  -13.5399   26.1039 C   0  0  0  0  0  0  0  0  0  0  0  0
    6.4588  -14.6197   25.9402 C   0  0  0  0  0  0  0  0  0  0  0  0
    7.8440  -14.5010   26.0360 C   0  0  0  0  0  0  0  0  0  0  0  0
    8.7106  -15.6805   25.8715 C   0  0  0  0  0  0  0  0  0  0  0  0
    9.5253  -15.5653   24.6258 C   0  0  2  0  0  0  0  0  0  0  0  0
    8.6966  -15.6579   23.4270 N   0  0  0  0  0  0  0  0  0  0  0  0
   10.6170  -16.5467   24.5273 C   0  0  0  0  0  0  0  0  0  0  0  0
   11.7259  -16.6170   25.3501 O   0  0  0  0  0  0  0  0  0  0  0  0
    8.3454  -13.2443   26.3044 C   0  0  0  0  0  0  0  0  0  0  0  0
    7.5106  -12.1804   26.4651 C   0  0  0  0  0  0  0  0  0  0  0  0
   10.5792  -17.4320   23.6129 O   0  0  0  0  0  0  0  0  0  0  0  0
  2  3  1  0
  2  1  1  0
  3  4  1  1
  5  7  1  0
  5  3  1  0
  6  5  2  0
  8  7  1  0
  9 18  1  0
  9  8  1  0
 10  9  2  0
 12 11  1  0
 12 22  2  0
 13 12  1  0
 14 13  2  0
 14 15  1  0
 15 21  2  0
 16 15  1  0
 17 16  1  1
 17 18  1  0
 19 20  1  0
 19 17  1  0
 21 22  1  0
 23 19  2  0
M  END
$$$$
