SGY.pdb
     RDKit          3D

 23 23  0  0  1  0  0  0  0  0999 V2000
    5.0948  -18.6691   18.7575 O   0  0  0  0  0  0  0  0  0  0  0  0
    6.2430  -19.3320   19.1917 C   0  0  0  0  0  0  0  0  0  0  0  0
    6.5733  -18.8445   20.5885 C   0  0  2  0  0  0  0  0  0  0  0  0
    5.4057  -18.6705   21.3987 N   0  0  0  0  0  0  0  0  0  0  0  0
    7.2400  -17.5100   20.4279 C   0  0  0  0  0  0  0  0  0  0  0  0
    8.3341  -17.3945   19.8261 O   0  0  0  0  0  0  0  0  0  0  0  0
    6.6453  -16.3332   20.9570 N   0  0  0  0  0  0  0  0  0  0  0  0
    7.2755  -15.0556   20.7726 C   0  0  0  0  0  0  0  0  0  0  0  0
    8.5246  -15.0366   21.6028 C   0  0  0  0  0  0  0  0  0  0  0  0
    9.6617  -14.7879   21.1154 O   0  0  0  0  0  0  0  0  0  0  0  0
    5.0641  -12.3977   27.1192 O   0  0  0  0  0  0  0  0  0  0  0  0
    6.2480  -12.8153   26.5127 C   0  0  0  0  0  0  0  0  0  0  0  0
    7.0856  -13.7559   27.0749 C   0  0  0  0  0  0  0  0  0  0  0  0
    8.2417  -14.1275   26.4268 C   0  0  0  0  0  0  0  0  0  0  0  0
    8.6086  -13.5802   25.1988 C   0  0  0  0  0  0  0  0  0  0  0  0
    9.8613  -13.9885   24.5405 C   0  0  0  0  0  0  0  0  0  0  0  0
    9.6855  -15.2947   23.8391 C   0  0  2  0  0  0  0  0  0  0  0  0
    8.4907  -15.3014   22.9997 N   0  0  0  0  0  0  0  0  0  0  0  0
    9.6434  -16.4594   24.7372 C   0  0  0  0  0  0  0  0  0  0  0  0
   10.6435  -16.8546   25.6062 O   0  0  0  0  0  0  0  0  0  0  0  0
    7.7570  -12.6415   24.6547 C   0  0  0  0  0  0  0  0  0  0  0  0
    6.6147  -12.2786   25.3014 C   0  0  0  0  0  0  0  0  0  0  0  0
    8.6092  -17.2021   24.7472 O   0  0  0  0  0  0  0  0  0  0  0  0
  2  3  1  0
  2  1  1  0
  3  4  1  1
  5  7  1  0
  5  3  1  0
  6  5  2  0
  8  7  1  0
  9 18  1  0
  9  8  1  0
 10  9  2  0
 12 11  1  0
 12 22  2  0
 13 12  1  0
 14 13  2  0
 14 15  1  0
 15 21  2  0
 16 15  1  0
 17 16  1  1
 17 18  1  0
 19 20  1  0
 19 17  1  0
 21 22  1  0
 23 19  2  0
M  END
$$$$
