SGY.pdb
     RDKit          3D

 23 23  0  0  1  0  0  0  0  0999 V2000
    8.4118  -16.1397   17.4771 O   0  0  0  0  0  0  0  0  0  0  0  0
    8.6631  -17.2500   18.2836 C   0  0  0  0  0  0  0  0  0  0  0  0
    7.7926  -17.1455   19.5202 C   0  0  2  0  0  0  0  0  0  0  0  0
    6.4403  -16.7918   19.2101 N   0  0  0  0  0  0  0  0  0  0  0  0
    8.3834  -16.0570   20.3669 C   0  0  0  0  0  0  0  0  0  0  0  0
    7.7227  -15.0360   20.6730 O   0  0  0  0  0  0  0  0  0  0  0  0
    9.7166  -16.1544   20.8479 N   0  0  0  0  0  0  0  0  0  0  0  0
   10.2100  -15.2134   21.8147 C   0  0  0  0  0  0  0  0  0  0  0  0
   10.0967  -15.8466   23.1697 C   0  0  0  0  0  0  0  0  0  0  0  0
   10.0641  -17.0972   23.3357 O   0  0  0  0  0  0  0  0  0  0  0  0
    5.7795  -10.7337   26.6428 O   0  0  0  0  0  0  0  0  0  0  0  0
    6.3788  -11.9733   26.4233 C   0  0  0  0  0  0  0  0  0  0  0  0
    6.2318  -12.6777   25.2467 C   0  0  0  0  0  0  0  0  0  0  0  0
    6.8492  -13.8978   25.0897 C   0  0  0  0  0  0  0  0  0  0  0  0
    7.6341  -14.4630   26.0930 C   0  0  0  0  0  0  0  0  0  0  0  0
    8.2672  -15.7784   25.8979 C   0  0  0  0  0  0  0  0  0  0  0  0
    9.7344  -15.6271   25.6669 C   0  0  2  0  0  0  0  0  0  0  0  0
   10.0193  -15.0598   24.3519 N   0  0  0  0  0  0  0  0  0  0  0  0
   10.5004  -16.8734   25.8242 C   0  0  0  0  0  0  0  0  0  0  0  0
   11.3630  -17.4224   24.8935 O   0  0  0  0  0  0  0  0  0  0  0  0
    7.7676  -13.7419   27.2612 C   0  0  0  0  0  0  0  0  0  0  0  0
    7.1539  -12.5353   27.4097 C   0  0  0  0  0  0  0  0  0  0  0  0
   10.3881  -17.5428   26.9015 O   0  0  0  0  0  0  0  0  0  0  0  0
  2  3  1  0
  2  1  1  0
  3  4  1  6
  5  7  1  0
  5  3  1  0
  6  5  2  0
  8  7  1  0
  9 18  1  0
  9  8  1  0
 10  9  2  0
 12 11  1  0
 12 22  2  0
 13 12  1  0
 14 13  2  0
 14 15  1  0
 15 21  2  0
 16 15  1  0
 17 16  1  6
 17 18  1  0
 19 20  1  0
 19 17  1  0
 21 22  1  0
 23 19  2  0
M  END
$$$$
