LHA.pdb
     RDKit          3D

 24 24  0  0  1  0  0  0  0  0999 V2000
   27.7065  -33.1395  -17.5969 C   0  0  0  0  0  0  0  0  0  0  0  0
   27.8473  -31.6705  -17.1751 C   0  0  2  0  0  0  0  0  0  0  0  0
   29.1781  -31.4791  -16.4596 C   0  0  0  0  0  0  0  0  0  0  0  0
   26.7517  -31.2852  -16.2372 C   0  0  0  0  0  0  0  0  0  0  0  0
   25.3956  -31.4656  -16.8787 C   0  0  2  0  0  0  0  0  0  0  0  0
   25.0919  -30.5023  -17.8850 N   0  0  0  0  0  0  0  0  0  0  0  0
   24.3981  -31.4949  -15.7786 C   0  0  0  0  0  0  0  0  0  0  0  0
   23.8452  -30.4294  -15.4002 O   0  0  0  0  0  0  0  0  0  0  0  0
   24.0102  -32.6802  -15.0997 N   0  0  0  0  0  0  0  0  0  0  0  0
   22.9846  -32.6954  -14.0754 C   0  0  1  0  0  0  0  0  0  0  0  0
   21.9663  -33.7742  -14.3068 C   0  0  0  0  0  0  0  0  0  0  0  0
   20.9157  -33.4037  -15.2788 C   0  0  0  0  0  0  0  0  0  0  0  0
   20.7744  -32.1710  -15.8736 C   0  0  0  0  0  0  0  0  0  0  0  0
   19.7104  -32.2086  -16.6983 N   0  0  0  0  0  0  0  0  0  0  0  0
   19.1796  -33.4390  -16.6345 C   0  0  0  0  0  0  0  0  0  0  0  0
   19.9194  -34.1519  -15.7714 N   0  0  0  0  0  0  0  0  0  0  0  0
   23.6417  -32.7145  -12.7695 C   0  0  0  0  0  0  0  0  0  0  0  0
   24.5585  -33.5490  -12.5591 O   0  0  0  0  0  0  0  0  0  0  0  0
   23.7857  -30.6265   -9.6312 C   0  0  0  0  0  0  0  0  0  0  0  0
   24.0554  -31.8669  -10.4928 C   0  0  2  0  0  0  0  0  0  0  0  0
   23.3027  -31.8303  -11.7020 N   0  0  0  0  0  0  0  0  0  0  0  0
   23.8552  -33.1003   -9.6849 C   0  0  0  0  0  0  0  0  0  0  0  0
   22.6939  -33.8241   -9.9451 O   0  0  0  0  0  0  0  0  0  0  0  0
   24.6244  -33.5288   -8.8141 O   0  0  0  0  0  0  0  0  0  0  0  0
  2  1  1  1
  3  2  1  0
  4  5  1  0
  4  2  1  0
  5  6  1  6
  7  5  1  0
  7  8  2  0
  9  7  1  0
 10  9  1  0
 10 11  1  6
 11 12  1  0
 12 13  2  0
 12 16  1  0
 13 14  1  0
 14 15  1  0
 16 15  2  0
 17 10  1  0
 18 17  2  0
 20 19  1  1
 20 21  1  0
 21 17  1  0
 22 20  1  0
 23 22  1  0
 24 22  2  0
M  END
$$$$
