LHA.pdb
     RDKit          3D

 24 24  0  0  1  0  0  0  0  0999 V2000
   17.2827  -14.5314  -16.5653 C   0  0  0  0  0  0  0  0  0  0  0  0
   18.7591  -14.3135  -16.9235 C   0  0  2  0  0  0  0  0  0  0  0  0
   19.5752  -15.5026  -16.4341 C   0  0  0  0  0  0  0  0  0  0  0  0
   19.2843  -13.0817  -16.2635 C   0  0  0  0  0  0  0  0  0  0  0  0
   18.4939  -11.8621  -16.6765 C   0  0  2  0  0  0  0  0  0  0  0  0
   18.3787  -11.6899  -18.0871 N   0  0  0  0  0  0  0  0  0  0  0  0
   19.1116  -10.6960  -15.9947 C   0  0  0  0  0  0  0  0  0  0  0  0
   19.2608  -10.7025  -14.7450 O   0  0  0  0  0  0  0  0  0  0  0  0
   19.5614   -9.5340  -16.6758 N   0  0  0  0  0  0  0  0  0  0  0  0
   20.1698   -8.4113  -15.9900 C   0  0  1  0  0  0  0  0  0  0  0  0
   21.6560   -8.3568  -16.1967 C   0  0  0  0  0  0  0  0  0  0  0  0
   22.3876   -9.4736  -15.5615 C   0  0  0  0  0  0  0  0  0  0  0  0
   22.9646  -10.5321  -16.2246 C   0  0  0  0  0  0  0  0  0  0  0  0
   23.5406  -11.3465  -15.3198 N   0  0  0  0  0  0  0  0  0  0  0  0
   23.3379  -10.8221  -14.1017 C   0  0  0  0  0  0  0  0  0  0  0  0
   22.6386   -9.6884  -14.2631 N   0  0  0  0  0  0  0  0  0  0  0  0
   19.4354   -7.2003  -16.3526 C   0  0  0  0  0  0  0  0  0  0  0  0
   19.0955   -7.0276  -17.5509 O   0  0  0  0  0  0  0  0  0  0  0  0
   17.4198   -4.4503  -14.9436 C   0  0  0  0  0  0  0  0  0  0  0  0
   18.5172   -4.9614  -15.8860 C   0  0  2  0  0  0  0  0  0  0  0  0
   19.0733   -6.1862  -15.4162 N   0  0  0  0  0  0  0  0  0  0  0  0
   19.5191   -3.8883  -16.1287 C   0  0  0  0  0  0  0  0  0  0  0  0
   19.0728   -2.7814  -16.8469 O   0  0  0  0  0  0  0  0  0  0  0  0
   20.6981   -3.8990  -15.7504 O   0  0  0  0  0  0  0  0  0  0  0  0
  2  1  1  1
  3  2  1  0
  4  5  1  0
  4  2  1  0
  5  6  1  6
  7  5  1  0
  7  8  2  0
  9  7  1  0
 10  9  1  0
 10 11  1  6
 11 12  1  0
 12 13  2  0
 12 16  1  0
 13 14  1  0
 14 15  1  0
 16 15  2  0
 17 10  1  0
 18 17  2  0
 20 19  1  1
 20 21  1  0
 21 17  1  0
 22 20  1  0
 23 22  1  0
 24 22  2  0
M  END
$$$$
