LHA.pdb
     RDKit          3D

 24 24  0  0  1  0  0  0  0  0999 V2000
   13.3626  -11.7058  -18.3916 C   0  0  0  0  0  0  0  0  0  0  0  0
   12.8258  -11.6305  -16.9556 C   0  0  2  0  0  0  0  0  0  0  0  0
   11.7151  -10.5906  -16.8889 C   0  0  0  0  0  0  0  0  0  0  0  0
   13.9070  -11.2221  -16.0107 C   0  0  0  0  0  0  0  0  0  0  0  0
   15.0697  -12.1856  -16.0625 C   0  0  2  0  0  0  0  0  0  0  0  0
   14.7932  -13.4664  -15.5004 N   0  0  0  0  0  0  0  0  0  0  0  0
   16.2240  -11.5043  -15.4226 C   0  0  0  0  0  0  0  0  0  0  0  0
   16.3170  -11.4655  -14.1681 O   0  0  0  0  0  0  0  0  0  0  0  0
   17.2662  -10.8715  -16.1504 N   0  0  0  0  0  0  0  0  0  0  0  0
   18.4072  -10.2527  -15.5052 C   0  0  1  0  0  0  0  0  0  0  0  0
   19.6716  -11.0350  -15.7142 C   0  0  0  0  0  0  0  0  0  0  0  0
   20.8676  -10.4067  -15.1135 C   0  0  0  0  0  0  0  0  0  0  0  0
   20.8726   -9.2600  -14.3532 C   0  0  0  0  0  0  0  0  0  0  0  0
   22.1391   -8.9945  -13.9800 N   0  0  0  0  0  0  0  0  0  0  0  0
   22.9305   -9.9503  -14.4898 C   0  0  0  0  0  0  0  0  0  0  0  0
   22.1473  -10.7986  -15.1736 N   0  0  0  0  0  0  0  0  0  0  0  0
   18.4570   -8.8488  -15.9104 C   0  0  0  0  0  0  0  0  0  0  0  0
   18.4930   -8.5674  -17.1354 O   0  0  0  0  0  0  0  0  0  0  0  0
   17.4441   -5.5576  -14.7165 C   0  0  0  0  0  0  0  0  0  0  0  0
   18.4569   -6.4227  -15.4778 C   0  0  2  0  0  0  0  0  0  0  0  0
   18.4663   -7.7605  -14.9875 N   0  0  0  0  0  0  0  0  0  0  0  0
   19.7903   -5.7623  -15.4786 C   0  0  0  0  0  0  0  0  0  0  0  0
   19.8620   -4.5221  -16.1086 O   0  0  0  0  0  0  0  0  0  0  0  0
   20.8248   -6.2181  -14.9729 O   0  0  0  0  0  0  0  0  0  0  0  0
  2  1  1  6
  3  2  1  0
  4  5  1  0
  4  2  1  0
  5  6  1  1
  7  5  1  0
  7  8  2  0
  9  7  1  0
 10  9  1  0
 10 11  1  6
 11 12  1  0
 12 13  2  0
 12 16  1  0
 13 14  1  0
 14 15  1  0
 16 15  2  0
 17 10  1  0
 18 17  2  0
 20 19  1  1
 20 21  1  0
 21 17  1  0
 22 20  1  0
 23 22  1  0
 24 22  2  0
M  END
$$$$
