LHA.pdb
     RDKit          3D

 24 24  0  0  1  0  0  0  0  0999 V2000
   26.8515  -32.6328   -8.6038 C   0  0  0  0  0  0  0  0  0  0  0  0
   25.4250  -32.6939   -8.0410 C   0  0  2  0  0  0  0  0  0  0  0  0
   24.6699  -31.4359   -8.4497 C   0  0  0  0  0  0  0  0  0  0  0  0
   25.4502  -32.7612   -6.5499 C   0  0  0  0  0  0  0  0  0  0  0  0
   26.3551  -33.8715   -6.0690 C   0  0  2  0  0  0  0  0  0  0  0  0
   26.0529  -35.1518   -6.6190 N   0  0  0  0  0  0  0  0  0  0  0  0
   26.3141  -33.8495   -4.5844 C   0  0  0  0  0  0  0  0  0  0  0  0
   26.5260  -32.7755   -3.9636 O   0  0  0  0  0  0  0  0  0  0  0  0
   26.0436  -34.9936   -3.7880 N   0  0  0  0  0  0  0  0  0  0  0  0
   25.9602  -34.9384   -2.3419 C   0  0  1  0  0  0  0  0  0  0  0  0
   24.7359  -35.6307   -1.8165 C   0  0  0  0  0  0  0  0  0  0  0  0
   23.5040  -34.8189   -1.9136 C   0  0  0  0  0  0  0  0  0  0  0  0
   23.4547  -33.4648   -2.1527 C   0  0  0  0  0  0  0  0  0  0  0  0
   22.1654  -33.0764   -2.1738 N   0  0  0  0  0  0  0  0  0  0  0  0
   21.4029  -34.1579   -1.9531 C   0  0  0  0  0  0  0  0  0  0  0  0
   22.2266  -35.2057   -1.7973 N   0  0  0  0  0  0  0  0  0  0  0  0
   27.2336  -35.3997   -1.7916 C   0  0  0  0  0  0  0  0  0  0  0  0
   27.8500  -36.3286   -2.3735 O   0  0  0  0  0  0  0  0  0  0  0  0
   29.6462  -34.5242    0.9855 C   0  0  0  0  0  0  0  0  0  0  0  0
   29.0595  -35.3906   -0.1364 C   0  0  2  0  0  0  0  0  0  0  0  0
   27.8309  -34.8521   -0.6170 N   0  0  0  0  0  0  0  0  0  0  0  0
   28.9735  -36.8080    0.3081 C   0  0  0  0  0  0  0  0  0  0  0  0
   27.6906  -37.3161    0.4983 O   0  0  0  0  0  0  0  0  0  0  0  0
   29.9340  -37.5606    0.5193 O   0  0  0  0  0  0  0  0  0  0  0  0
  2  1  1  1
  3  2  1  0
  4  5  1  0
  4  2  1  0
  5  6  1  6
  7  5  1  0
  7  8  2  0
  9  7  1  0
 10  9  1  0
 10 11  1  1
 11 12  1  0
 12 13  2  0
 12 16  1  0
 13 14  1  0
 14 15  1  0
 16 15  2  0
 17 10  1  0
 18 17  2  0
 20 19  1  1
 20 21  1  0
 21 17  1  0
 22 20  1  0
 23 22  1  0
 24 22  2  0
M  END
$$$$
