LHA.pdb
     RDKit          3D

 24 24  0  0  1  0  0  0  0  0999 V2000
   26.2989  -11.0774  -14.6985 C   0  0  0  0  0  0  0  0  0  0  0  0
   26.3916  -10.7269  -16.1898 C   0  0  2  0  0  0  0  0  0  0  0  0
   27.5362   -9.7454  -16.4045 C   0  0  0  0  0  0  0  0  0  0  0  0
   25.1287  -10.0832  -16.6583 C   0  0  0  0  0  0  0  0  0  0  0  0
   23.9555  -11.0267  -16.5307 C   0  0  2  0  0  0  0  0  0  0  0  0
   24.1098  -12.2516  -17.2438 N   0  0  0  0  0  0  0  0  0  0  0  0
   22.7443  -10.2663  -16.9320 C   0  0  0  0  0  0  0  0  0  0  0  0
   22.4296  -10.1772  -18.1473 O   0  0  0  0  0  0  0  0  0  0  0  0
   21.8863   -9.6099  -16.0104 N   0  0  0  0  0  0  0  0  0  0  0  0
   20.6558   -8.9587  -16.4141 C   0  0  1  0  0  0  0  0  0  0  0  0
   19.4560   -9.5256  -15.7117 C   0  0  0  0  0  0  0  0  0  0  0  0
   18.1788   -8.8974  -16.1120 C   0  0  0  0  0  0  0  0  0  0  0  0
   17.7596   -8.6908  -17.4061 C   0  0  0  0  0  0  0  0  0  0  0  0
   16.5506   -8.0981  -17.3792 N   0  0  0  0  0  0  0  0  0  0  0  0
   16.2009   -7.9277  -16.0953 C   0  0  0  0  0  0  0  0  0  0  0  0
   17.1959   -8.4161  -15.3391 N   0  0  0  0  0  0  0  0  0  0  0  0
   20.8393   -7.5138  -16.2878 C   0  0  0  0  0  0  0  0  0  0  0  0
   21.4507   -7.0608  -15.2866 O   0  0  0  0  0  0  0  0  0  0  0  0
   20.2760   -4.3611  -18.2863 C   0  0  0  0  0  0  0  0  0  0  0  0
   20.5537   -5.1772  -17.0173 C   0  0  2  0  0  0  0  0  0  0  0  0
   20.3611   -6.5704  -17.2457 N   0  0  0  0  0  0  0  0  0  0  0  0
   19.7675   -4.6298  -15.8787 C   0  0  0  0  0  0  0  0  0  0  0  0
   20.2068   -3.4160  -15.3553 O   0  0  0  0  0  0  0  0  0  0  0  0
   18.7706   -5.1568  -15.3669 O   0  0  0  0  0  0  0  0  0  0  0  0
  2  1  1  1
  3  2  1  0
  4  5  1  0
  4  2  1  0
  5  6  1  6
  7  5  1  0
  7  8  2  0
  9  7  1  0
 10  9  1  0
 10 11  1  1
 11 12  1  0
 12 13  2  0
 12 16  1  0
 13 14  1  0
 14 15  1  0
 16 15  2  0
 17 10  1  0
 18 17  2  0
 20 19  1  6
 20 21  1  0
 21 17  1  0
 22 20  1  0
 23 22  1  0
 24 22  2  0
M  END
$$$$
