LHA.pdb
     RDKit          3D

 24 24  0  0  1  0  0  0  0  0999 V2000
   28.3298  -32.9660  -15.6765 C   0  0  0  0  0  0  0  0  0  0  0  0
   28.8839  -32.6738  -17.0777 C   0  0  2  0  0  0  0  0  0  0  0  0
   28.1667  -33.5522  -18.0943 C   0  0  0  0  0  0  0  0  0  0  0  0
   30.3435  -32.9808  -17.1407 C   0  0  0  0  0  0  0  0  0  0  0  0
   31.1259  -32.1109  -16.1846 C   0  0  2  0  0  0  0  0  0  0  0  0
   31.0347  -30.7143  -16.4566 N   0  0  0  0  0  0  0  0  0  0  0  0
   32.5228  -32.6158  -16.1859 C   0  0  0  0  0  0  0  0  0  0  0  0
   33.3934  -32.0603  -16.9052 O   0  0  0  0  0  0  0  0  0  0  0  0
   32.9612  -33.7189  -15.4066 N   0  0  0  0  0  0  0  0  0  0  0  0
   34.3371  -34.1752  -15.4007 C   0  0  1  0  0  0  0  0  0  0  0  0
   34.9041  -34.2526  -14.0126 C   0  0  0  0  0  0  0  0  0  0  0  0
   35.6901  -33.0627  -13.6224 C   0  0  0  0  0  0  0  0  0  0  0  0
   36.0345  -32.0228  -14.4550 C   0  0  0  0  0  0  0  0  0  0  0  0
   36.7466  -31.1228  -13.7504 N   0  0  0  0  0  0  0  0  0  0  0  0
   36.8572  -31.5750  -12.4921 C   0  0  0  0  0  0  0  0  0  0  0  0
   36.2129  -32.7503  -12.4291 N   0  0  0  0  0  0  0  0  0  0  0  0
   34.4150  -35.4058  -16.1860 C   0  0  0  0  0  0  0  0  0  0  0  0
   33.4632  -36.2258  -16.1328 O   0  0  0  0  0  0  0  0  0  0  0  0
   34.2595  -37.1158  -18.5995 C   0  0  0  0  0  0  0  0  0  0  0  0
   35.5181  -36.9745  -17.7338 C   0  0  2  0  0  0  0  0  0  0  0  0
   35.5213  -35.7394  -17.0234 N   0  0  0  0  0  0  0  0  0  0  0  0
   36.7328  -37.2072  -18.5612 C   0  0  0  0  0  0  0  0  0  0  0  0
   37.6240  -36.1410  -18.6585 O   0  0  0  0  0  0  0  0  0  0  0  0
   37.0115  -38.2543  -19.1605 O   0  0  0  0  0  0  0  0  0  0  0  0
  2  1  1  1
  3  2  1  0
  4  5  1  0
  4  2  1  0
  5  6  1  6
  7  5  1  0
  7  8  2  0
  9  7  1  0
 10  9  1  0
 10 11  1  1
 11 12  1  0
 12 13  2  0
 12 16  1  0
 13 14  1  0
 14 15  1  0
 16 15  2  0
 17 10  1  0
 18 17  2  0
 20 19  1  6
 20 21  1  0
 21 17  1  0
 22 20  1  0
 23 22  1  0
 24 22  2  0
M  END
$$$$
