LHA.pdb
     RDKit          3D

 24 24  0  0  1  0  0  0  0  0999 V2000
   26.0840  -15.3617  -14.6302 C   0  0  0  0  0  0  0  0  0  0  0  0
   26.3911  -15.2710  -16.1312 C   0  0  2  0  0  0  0  0  0  0  0  0
   27.8731  -14.9773  -16.3235 C   0  0  0  0  0  0  0  0  0  0  0  0
   25.6092  -14.1669  -16.7623 C   0  0  0  0  0  0  0  0  0  0  0  0
   24.1233  -14.3936  -16.6089 C   0  0  2  0  0  0  0  0  0  0  0  0
   23.6667  -15.6437  -17.1203 N   0  0  0  0  0  0  0  0  0  0  0  0
   23.4425  -13.2267  -17.2261 C   0  0  0  0  0  0  0  0  0  0  0  0
   23.6397  -12.9500  -18.4379 O   0  0  0  0  0  0  0  0  0  0  0  0
   22.5541  -12.3714  -16.5221 N   0  0  0  0  0  0  0  0  0  0  0  0
   21.8944  -11.2425  -17.1478 C   0  0  1  0  0  0  0  0  0  0  0  0
   20.6048  -11.6333  -17.8100 C   0  0  0  0  0  0  0  0  0  0  0  0
   19.6880  -12.3892  -16.9301 C   0  0  0  0  0  0  0  0  0  0  0  0
   19.9698  -12.8055  -15.6494 C   0  0  0  0  0  0  0  0  0  0  0  0
   18.8986  -13.4606  -15.1624 N   0  0  0  0  0  0  0  0  0  0  0  0
   17.9491  -13.4648  -16.1102 C   0  0  0  0  0  0  0  0  0  0  0  0
   18.4407  -12.8127  -17.1749 N   0  0  0  0  0  0  0  0  0  0  0  0
   21.8001  -10.1645  -16.1647 C   0  0  0  0  0  0  0  0  0  0  0  0
   21.7671  -10.4544  -14.9415 O   0  0  0  0  0  0  0  0  0  0  0  0
   22.2841   -6.4844  -15.8792 C   0  0  0  0  0  0  0  0  0  0  0  0
   21.6073   -7.8035  -15.4851 C   0  0  2  0  0  0  0  0  0  0  0  0
   21.7431   -8.7816  -16.5122 N   0  0  0  0  0  0  0  0  0  0  0  0
   20.2026   -7.5486  -15.0654 C   0  0  0  0  0  0  0  0  0  0  0  0
   20.0318   -6.9586  -13.8152 O   0  0  0  0  0  0  0  0  0  0  0  0
   19.1896   -7.8138  -15.7263 O   0  0  0  0  0  0  0  0  0  0  0  0
  2  1  1  1
  3  2  1  0
  4  5  1  0
  4  2  1  0
  5  6  1  6
  7  5  1  0
  7  8  2  0
  9  7  1  0
 10  9  1  0
 10 11  1  1
 11 12  1  0
 12 13  2  0
 12 16  1  0
 13 14  1  0
 14 15  1  0
 16 15  2  0
 17 10  1  0
 18 17  2  0
 20 19  1  6
 20 21  1  0
 21 17  1  0
 22 20  1  0
 23 22  1  0
 24 22  2  0
M  END
$$$$
