LHA.pdb
     RDKit          3D

 24 24  0  0  1  0  0  0  0  0999 V2000
   20.8785  -11.8726  -18.8483 C   0  0  0  0  0  0  0  0  0  0  0  0
   19.3493  -11.7889  -18.7465 C   0  0  2  0  0  0  0  0  0  0  0  0
   18.7907  -11.2150  -20.0419 C   0  0  0  0  0  0  0  0  0  0  0  0
   18.9452  -10.8915  -17.6241 C   0  0  0  0  0  0  0  0  0  0  0  0
   19.4758  -11.3974  -16.3029 C   0  0  2  0  0  0  0  0  0  0  0  0
   19.0000  -12.6910  -15.9384 N   0  0  0  0  0  0  0  0  0  0  0  0
   19.1714  -10.3562  -15.2882 C   0  0  0  0  0  0  0  0  0  0  0  0
   18.0403  -10.3243  -14.7372 O   0  0  0  0  0  0  0  0  0  0  0  0
   20.0975   -9.3597  -14.8813 N   0  0  0  0  0  0  0  0  0  0  0  0
   19.7597   -8.3188  -13.9308 C   0  0  1  0  0  0  0  0  0  0  0  0
   20.3433   -8.5787  -12.5721 C   0  0  0  0  0  0  0  0  0  0  0  0
   20.0516   -7.5173  -11.5850 C   0  0  0  0  0  0  0  0  0  0  0  0
   19.0190   -7.5318  -10.6758 C   0  0  0  0  0  0  0  0  0  0  0  0
   19.0709   -6.4018   -9.9450 N   0  0  0  0  0  0  0  0  0  0  0  0
   20.1145   -5.6771  -10.3756 C   0  0  0  0  0  0  0  0  0  0  0  0
   20.6992   -6.3645  -11.3686 N   0  0  0  0  0  0  0  0  0  0  0  0
   20.0955   -7.0270  -14.5275 C   0  0  0  0  0  0  0  0  0  0  0  0
   21.2183   -6.8800  -15.0743 O   0  0  0  0  0  0  0  0  0  0  0  0
   18.5049   -4.1892  -16.1180 C   0  0  0  0  0  0  0  0  0  0  0  0
   19.6080   -4.7020  -15.1831 C   0  0  2  0  0  0  0  0  0  0  0  0
   19.2139   -5.9049  -14.5291 N   0  0  0  0  0  0  0  0  0  0  0  0
   20.0373   -3.6165  -14.2603 C   0  0  0  0  0  0  0  0  0  0  0  0
   20.8407   -2.6217  -14.8126 O   0  0  0  0  0  0  0  0  0  0  0  0
   19.7434   -3.5271  -13.0607 O   0  0  0  0  0  0  0  0  0  0  0  0
  2  1  1  6
  3  2  1  0
  4  5  1  0
  4  2  1  0
  5  6  1  1
  7  5  1  0
  7  8  2  0
  9  7  1  0
 10  9  1  0
 10 11  1  1
 11 12  1  0
 12 13  2  0
 12 16  1  0
 13 14  1  0
 14 15  1  0
 16 15  2  0
 17 10  1  0
 18 17  2  0
 20 19  1  1
 20 21  1  0
 21 17  1  0
 22 20  1  0
 23 22  1  0
 24 22  2  0
M  END
$$$$
