LHA.pdb
     RDKit          3D

 24 24  0  0  1  0  0  0  0  0999 V2000
   27.0616  -18.9887   -5.4528 C   0  0  0  0  0  0  0  0  0  0  0  0
   27.7200  -20.1892   -6.1462 C   0  0  2  0  0  0  0  0  0  0  0  0
   29.2129  -20.1861   -5.8450 C   0  0  0  0  0  0  0  0  0  0  0  0
   27.5407  -20.1054   -7.6259 C   0  0  0  0  0  0  0  0  0  0  0  0
   26.0769  -20.1187   -7.9998 C   0  0  2  0  0  0  0  0  0  0  0  0
   25.3534  -21.2367   -7.4906 N   0  0  0  0  0  0  0  0  0  0  0  0
   26.0080  -20.0037   -9.4791 C   0  0  0  0  0  0  0  0  0  0  0  0
   26.6740  -19.1170  -10.0743 O   0  0  0  0  0  0  0  0  0  0  0  0
   25.2170  -20.8521  -10.2981 N   0  0  0  0  0  0  0  0  0  0  0  0
   25.1921  -20.7434  -11.7434 C   0  0  1  0  0  0  0  0  0  0  0  0
   26.0046  -21.8168  -12.4081 C   0  0  0  0  0  0  0  0  0  0  0  0
   27.4494  -21.5117  -12.4814 C   0  0  0  0  0  0  0  0  0  0  0  0
   28.4355  -22.1260  -11.7442 C   0  0  0  0  0  0  0  0  0  0  0  0
   29.6240  -21.5892  -12.0802 N   0  0  0  0  0  0  0  0  0  0  0  0
   29.4059  -20.6502  -13.0133 C   0  0  0  0  0  0  0  0  0  0  0  0
   28.0850  -20.6141  -13.2464 N   0  0  0  0  0  0  0  0  0  0  0  0
   23.7975  -20.6482  -12.1717 C   0  0  0  0  0  0  0  0  0  0  0  0
   22.9204  -21.2959  -11.5451 O   0  0  0  0  0  0  0  0  0  0  0  0
   21.6903  -18.7937  -14.7065 C   0  0  0  0  0  0  0  0  0  0  0  0
   21.9891  -19.8681  -13.6530 C   0  0  2  0  0  0  0  0  0  0  0  0
   23.3623  -19.8526  -13.2735 N   0  0  0  0  0  0  0  0  0  0  0  0
   21.4998  -21.1920  -14.1243 C   0  0  0  0  0  0  0  0  0  0  0  0
   20.1586  -21.4756  -13.8769 O   0  0  0  0  0  0  0  0  0  0  0  0
   22.1767  -22.0483  -14.7090 O   0  0  0  0  0  0  0  0  0  0  0  0
  2  1  1  1
  3  2  1  0
  4  5  1  0
  4  2  1  0
  5  6  1  6
  7  5  1  0
  7  8  2  0
  9  7  1  0
 10  9  1  0
 10 11  1  6
 11 12  1  0
 12 13  2  0
 12 16  1  0
 13 14  1  0
 14 15  1  0
 16 15  2  0
 17 10  1  0
 18 17  2  0
 20 19  1  6
 20 21  1  0
 21 17  1  0
 22 20  1  0
 23 22  1  0
 24 22  2  0
M  END
$$$$
