LHA.pdb
     RDKit          3D

 24 24  0  0  1  0  0  0  0  0999 V2000
   26.0691  -10.8584  -21.6739 C   0  0  0  0  0  0  0  0  0  0  0  0
   24.5665  -11.1675  -21.7185 C   0  0  2  0  0  0  0  0  0  0  0  0
   24.0672  -11.0260  -23.1504 C   0  0  0  0  0  0  0  0  0  0  0  0
   23.8068  -10.2104  -20.8610 C   0  0  0  0  0  0  0  0  0  0  0  0
   24.2872  -10.2608  -19.4293 C   0  0  2  0  0  0  0  0  0  0  0  0
   24.5944  -11.5721  -18.9614 N   0  0  0  0  0  0  0  0  0  0  0  0
   23.2610   -9.5725  -18.6051 C   0  0  0  0  0  0  0  0  0  0  0  0
   22.8361   -8.4378  -18.9454 O   0  0  0  0  0  0  0  0  0  0  0  0
   22.7060  -10.1224  -17.4194 N   0  0  0  0  0  0  0  0  0  0  0  0
   21.6075   -9.4996  -16.7076 C   0  0  1  0  0  0  0  0  0  0  0  0
   20.7479  -10.5049  -15.9973 C   0  0  0  0  0  0  0  0  0  0  0  0
   19.5802   -9.9120  -15.3111 C   0  0  0  0  0  0  0  0  0  0  0  0
   19.2995   -8.5678  -15.2258 C   0  0  0  0  0  0  0  0  0  0  0  0
   18.1582   -8.4079  -14.5292 N   0  0  0  0  0  0  0  0  0  0  0  0
   17.7152   -9.6236  -14.1746 C   0  0  0  0  0  0  0  0  0  0  0  0
   18.5858  -10.5247  -14.6546 N   0  0  0  0  0  0  0  0  0  0  0  0
   22.1506   -8.4289  -15.8733 C   0  0  0  0  0  0  0  0  0  0  0  0
   23.0958   -8.6881  -15.0854 O   0  0  0  0  0  0  0  0  0  0  0  0
   22.6028   -4.8288  -15.8796 C   0  0  0  0  0  0  0  0  0  0  0  0
   22.2900   -6.1000  -15.0797 C   0  0  2  0  0  0  0  0  0  0  0  0
   21.6679   -7.0863  -15.8984 N   0  0  0  0  0  0  0  0  0  0  0  0
   21.5242   -5.7525  -13.8521 C   0  0  0  0  0  0  0  0  0  0  0  0
   22.2041   -5.0037  -12.8944 O   0  0  0  0  0  0  0  0  0  0  0  0
   20.3506   -6.0697  -13.6163 O   0  0  0  0  0  0  0  0  0  0  0  0
  2  1  1  6
  3  2  1  0
  4  5  1  0
  4  2  1  0
  5  6  1  1
  7  5  1  0
  7  8  2  0
  9  7  1  0
 10  9  1  0
 10 11  1  1
 11 12  1  0
 12 13  2  0
 12 16  1  0
 13 14  1  0
 14 15  1  0
 16 15  2  0
 17 10  1  0
 18 17  2  0
 20 19  1  6
 20 21  1  0
 21 17  1  0
 22 20  1  0
 23 22  1  0
 24 22  2  0
M  END
$$$$
