LHA.pdb
     RDKit          3D

 24 24  0  0  1  0  0  0  0  0999 V2000
   19.1736  -13.8281    3.5175 C   0  0  0  0  0  0  0  0  0  0  0  0
   17.7145  -13.9732    3.0641 C   0  0  2  0  0  0  0  0  0  0  0  0
   16.9975  -12.6421    3.2465 C   0  0  0  0  0  0  0  0  0  0  0  0
   17.0086  -15.0016    3.8843 C   0  0  0  0  0  0  0  0  0  0  0  0
   17.6871  -16.3471    3.7744 C   0  0  2  0  0  0  0  0  0  0  0  0
   17.7788  -16.8488    2.4430 N   0  0  0  0  0  0  0  0  0  0  0  0
   16.9738  -17.2671    4.6969 C   0  0  0  0  0  0  0  0  0  0  0  0
   16.1697  -16.8073    5.5489 O   0  0  0  0  0  0  0  0  0  0  0  0
   17.1400  -18.6773    4.6858 N   0  0  0  0  0  0  0  0  0  0  0  0
   16.3504  -19.5649    5.5163 C   0  0  1  0  0  0  0  0  0  0  0  0
   15.8547  -20.7619    4.7575 C   0  0  0  0  0  0  0  0  0  0  0  0
   14.7450  -20.4610    3.8280 C   0  0  0  0  0  0  0  0  0  0  0  0
   14.2037  -19.2160    3.6044 C   0  0  0  0  0  0  0  0  0  0  0  0
   13.2167  -19.3308    2.6954 N   0  0  0  0  0  0  0  0  0  0  0  0
   13.1261  -20.6221    2.3427 C   0  0  0  0  0  0  0  0  0  0  0  0
   14.0573  -21.2947    3.0362 N   0  0  0  0  0  0  0  0  0  0  0  0
   17.1123  -19.8554    6.7297 C   0  0  0  0  0  0  0  0  0  0  0  0
   18.3652  -19.9359    6.6598 O   0  0  0  0  0  0  0  0  0  0  0  0
   16.7571  -19.7317   10.4189 C   0  0  0  0  0  0  0  0  0  0  0  0
   17.3386  -20.3388    9.1356 C   0  0  2  0  0  0  0  0  0  0  0  0
   16.5132  -20.0556    8.0093 N   0  0  0  0  0  0  0  0  0  0  0  0
   17.6191  -21.7858    9.3397 C   0  0  0  0  0  0  0  0  0  0  0  0
   18.5153  -22.1008   10.3585 O   0  0  0  0  0  0  0  0  0  0  0  0
   17.1288  -22.7178    8.6882 O   0  0  0  0  0  0  0  0  0  0  0  0
  2  1  1  1
  3  2  1  0
  4  5  1  0
  4  2  1  0
  5  6  1  6
  7  5  1  0
  7  8  2  0
  9  7  1  0
 10  9  1  0
 10 11  1  6
 11 12  1  0
 12 13  2  0
 12 16  1  0
 13 14  1  0
 14 15  1  0
 16 15  2  0
 17 10  1  0
 18 17  2  0
 20 19  1  1
 20 21  1  0
 21 17  1  0
 22 20  1  0
 23 22  1  0
 24 22  2  0
M  END
$$$$
