LHA.pdb
     RDKit          3D

 24 24  0  0  1  0  0  0  0  0999 V2000
   24.0596  -14.8452  -17.3397 C   0  0  0  0  0  0  0  0  0  0  0  0
   24.8908  -13.9271  -18.2462 C   0  0  2  0  0  0  0  0  0  0  0  0
   26.2975  -13.7993  -17.6768 C   0  0  0  0  0  0  0  0  0  0  0  0
   24.2860  -12.5637  -18.3105 C   0  0  0  0  0  0  0  0  0  0  0  0
   24.5203  -11.8018  -17.0270 C   0  0  2  0  0  0  0  0  0  0  0  0
   24.3586  -12.5831  -15.8454 N   0  0  0  0  0  0  0  0  0  0  0  0
   23.6345  -10.6101  -17.0645 C   0  0  0  0  0  0  0  0  0  0  0  0
   23.7414   -9.7740  -17.9991 O   0  0  0  0  0  0  0  0  0  0  0  0
   22.6411  -10.3373  -16.0872 N   0  0  0  0  0  0  0  0  0  0  0  0
   21.6880   -9.2535  -16.2215 C   0  0  1  0  0  0  0  0  0  0  0  0
   20.2848   -9.6890  -15.9121 C   0  0  0  0  0  0  0  0  0  0  0  0
   19.2844   -8.6071  -16.0327 C   0  0  0  0  0  0  0  0  0  0  0  0
   19.5499   -7.3096  -16.4055 C   0  0  0  0  0  0  0  0  0  0  0  0
   18.3961   -6.6151  -16.4048 N   0  0  0  0  0  0  0  0  0  0  0  0
   17.4106   -7.4488  -16.0394 C   0  0  0  0  0  0  0  0  0  0  0  0
   17.9628   -8.6514  -15.8172 N   0  0  0  0  0  0  0  0  0  0  0  0
   22.1807   -8.1120  -15.4523 C   0  0  0  0  0  0  0  0  0  0  0  0
   22.7088   -8.3144  -14.3292 O   0  0  0  0  0  0  0  0  0  0  0  0
   22.9528   -4.4728  -15.9869 C   0  0  0  0  0  0  0  0  0  0  0  0
   22.7044   -5.7248  -15.1358 C   0  0  2  0  0  0  0  0  0  0  0  0
   22.0994   -6.7610  -15.9043 N   0  0  0  0  0  0  0  0  0  0  0  0
   21.9550   -5.3608  -13.9029 C   0  0  0  0  0  0  0  0  0  0  0  0
   22.7181   -4.8975  -12.8337 O   0  0  0  0  0  0  0  0  0  0  0  0
   20.7281   -5.4350  -13.7524 O   0  0  0  0  0  0  0  0  0  0  0  0
  2  1  1  1
  3  2  1  0
  4  5  1  0
  4  2  1  0
  5  6  1  1
  7  5  1  0
  7  8  2  0
  9  7  1  0
 10  9  1  0
 10 11  1  1
 11 12  1  0
 12 13  2  0
 12 16  1  0
 13 14  1  0
 14 15  1  0
 16 15  2  0
 17 10  1  0
 18 17  2  0
 20 19  1  6
 20 21  1  0
 21 17  1  0
 22 20  1  0
 23 22  1  0
 24 22  2  0
M  END
$$$$
