LHA.pdb
     RDKit          3D

 24 24  0  0  1  0  0  0  0  0999 V2000
   23.6240  -30.0731  -10.6561 C   0  0  0  0  0  0  0  0  0  0  0  0
   22.1307  -30.4246  -10.6136 C   0  0  2  0  0  0  0  0  0  0  0  0
   21.3638  -29.2799   -9.9648 C   0  0  0  0  0  0  0  0  0  0  0  0
   21.9035  -31.6584   -9.8044 C   0  0  0  0  0  0  0  0  0  0  0  0
   22.5998  -32.8501  -10.4192 C   0  0  2  0  0  0  0  0  0  0  0  0
   22.0331  -33.2862  -11.6527 N   0  0  0  0  0  0  0  0  0  0  0  0
   22.6313  -33.9137   -9.3829 C   0  0  0  0  0  0  0  0  0  0  0  0
   21.5944  -34.5819   -9.1334 O   0  0  0  0  0  0  0  0  0  0  0  0
   23.7880  -34.2419   -8.6275 N   0  0  0  0  0  0  0  0  0  0  0  0
   23.8249  -35.3508   -7.6947 C   0  0  1  0  0  0  0  0  0  0  0  0
   25.1443  -36.0670   -7.7151 C   0  0  0  0  0  0  0  0  0  0  0  0
   25.0829  -37.4126   -8.3246 C   0  0  0  0  0  0  0  0  0  0  0  0
   23.9372  -38.0523   -8.7382 C   0  0  0  0  0  0  0  0  0  0  0  0
   24.2719  -39.2557   -9.2417 N   0  0  0  0  0  0  0  0  0  0  0  0
   25.6042  -39.3860   -9.1534 C   0  0  0  0  0  0  0  0  0  0  0  0
   26.0821  -38.2627   -8.5963 N   0  0  0  0  0  0  0  0  0  0  0  0
   23.3888  -34.8641   -6.3869 C   0  0  0  0  0  0  0  0  0  0  0  0
   23.9525  -33.8552   -5.8915 O   0  0  0  0  0  0  0  0  0  0  0  0
   20.4556  -35.1123   -4.1196 C   0  0  0  0  0  0  0  0  0  0  0  0
   21.9502  -34.8914   -4.3862 C   0  0  2  0  0  0  0  0  0  0  0  0
   22.3459  -35.4719   -5.6258 N   0  0  0  0  0  0  0  0  0  0  0  0
   22.7480  -35.3467   -3.2155 C   0  0  0  0  0  0  0  0  0  0  0  0
   22.6066  -34.6010   -2.0475 O   0  0  0  0  0  0  0  0  0  0  0  0
   23.5149  -36.3187   -3.1953 O   0  0  0  0  0  0  0  0  0  0  0  0
  2  1  1  1
  3  2  1  0
  4  5  1  0
  4  2  1  0
  5  6  1  6
  7  5  1  0
  7  8  2  0
  9  7  1  0
 10  9  1  0
 10 11  1  1
 11 12  1  0
 12 13  2  0
 12 16  1  0
 13 14  1  0
 14 15  1  0
 16 15  2  0
 17 10  1  0
 18 17  2  0
 20 19  1  1
 20 21  1  0
 21 17  1  0
 22 20  1  0
 23 22  1  0
 24 22  2  0
M  END
$$$$
