NFQ.pdb
     RDKit          3D

 29 29  0  0  1  0  0  0  0  0999 V2000
   28.8405  -23.5771  -19.5933 N   0  0  0  0  0  0  0  0  0  0  0  0
   27.4595  -23.8087  -19.7748 C   0  0  0  0  0  0  0  0  0  0  0  0
   26.9777  -23.7401  -20.9242 O   0  0  0  0  0  0  0  0  0  0  0  0
   26.6059  -24.1239  -18.6357 C   0  0  0  0  0  0  0  0  0  0  0  0
   27.3386  -24.2003  -17.3276 C   0  0  2  0  0  0  0  0  0  0  0  0
   27.8078  -25.5601  -17.1481 N   0  0  0  0  0  0  0  0  0  0  0  0
   26.5372  -23.7826  -16.1771 C   0  0  0  0  0  0  0  0  0  0  0  0
   25.4552  -24.3803  -15.9281 O   0  0  0  0  0  0  0  0  0  0  0  0
   26.8908  -22.7270  -15.2926 N   0  0  0  0  0  0  0  0  0  0  0  0
   26.1440  -22.3172  -14.1417 C   0  0  1  0  0  0  0  0  0  0  0  0
   26.9116  -21.3292  -13.2972 C   0  0  0  0  0  0  0  0  0  0  0  0
   26.2221  -20.9044  -12.0793 C   0  0  0  0  0  0  0  0  0  0  0  0
   26.2916  -21.6853  -10.9289 C   0  0  0  0  0  0  0  0  0  0  0  0
   25.6395  -21.2850   -9.7809 C   0  0  0  0  0  0  0  0  0  0  0  0
   24.9035  -20.1202   -9.7146 C   0  0  0  0  0  0  0  0  0  0  0  0
   24.8344  -19.3463  -10.8540 C   0  0  0  0  0  0  0  0  0  0  0  0
   25.4961  -19.7519  -12.0198 C   0  0  0  0  0  0  0  0  0  0  0  0
   24.8285  -21.7241  -14.4553 C   0  0  0  0  0  0  0  0  0  0  0  0
   24.7821  -20.9630  -15.4557 O   0  0  0  0  0  0  0  0  0  0  0  0
   19.4163  -23.3407  -15.1907 N   0  0  0  0  0  0  0  0  0  0  0  0
   19.3997  -22.0659  -15.7703 C   0  0  0  0  0  0  0  0  0  0  0  0
   18.3069  -21.5996  -16.2025 O   0  0  0  0  0  0  0  0  0  0  0  0
   20.6046  -21.2550  -15.8853 C   0  0  0  0  0  0  0  0  0  0  0  0
   21.8628  -21.8040  -15.3362 C   0  0  0  0  0  0  0  0  0  0  0  0
   22.3755  -21.2879  -14.0445 C   0  0  2  0  0  0  0  0  0  0  0  0
   23.6558  -21.9503  -13.7257 N   0  0  0  0  0  0  0  0  0  0  0  0
   21.4703  -21.3529  -12.9353 C   0  0  0  0  0  0  0  0  0  0  0  0
   21.6872  -21.9856  -11.8504 O   0  0  0  0  0  0  0  0  0  0  0  0
   20.2367  -20.6890  -12.9639 O   0  0  0  0  0  0  0  0  0  0  0  0
  1  2  1  0
  2  3  2  0
  4  5  1  0
  4  2  1  0
  5  6  1  1
  7  8  2  0
  7  5  1  0
  9  7  1  0
 10  9  1  0
 11 12  1  0
 10 11  1  6
 12 17  2  0
 12 13  1  0
 13 14  2  0
 14 15  1  0
 16 15  2  0
 17 16  1  0
 18 19  2  0
 18 10  1  0
 21 20  1  0
 22 21  2  0
 23 21  1  0
 25 24  1  6
 24 23  1  0
 25 26  1  0
 26 18  1  0
 27 25  1  0
 28 27  2  0
 29 27  1  0
M  END
$$$$
