NFQ.pdb
     RDKit          3D

 29 29  0  0  1  0  0  0  0  0999 V2000
   24.1196  -13.5463  -21.3746 N   0  0  0  0  0  0  0  0  0  0  0  0
   23.0148  -14.4257  -21.3705 C   0  0  0  0  0  0  0  0  0  0  0  0
   21.9644  -14.0848  -21.9524 O   0  0  0  0  0  0  0  0  0  0  0  0
   23.0980  -15.7155  -20.6958 C   0  0  0  0  0  0  0  0  0  0  0  0
   24.3490  -15.9007  -19.8869 C   0  0  2  0  0  0  0  0  0  0  0  0
   25.4358  -16.2102  -20.7950 N   0  0  0  0  0  0  0  0  0  0  0  0
   24.2378  -16.9329  -18.8561 C   0  0  0  0  0  0  0  0  0  0  0  0
   24.7027  -18.0833  -19.0809 O   0  0  0  0  0  0  0  0  0  0  0  0
   23.6304  -16.7371  -17.5855 N   0  0  0  0  0  0  0  0  0  0  0  0
   23.6415  -17.6732  -16.5021 C   0  0  1  0  0  0  0  0  0  0  0  0
   24.4859  -17.1871  -15.3491 C   0  0  0  0  0  0  0  0  0  0  0  0
   25.9288  -17.2740  -15.5721 C   0  0  0  0  0  0  0  0  0  0  0  0
   26.6092  -18.4553  -15.2900 C   0  0  0  0  0  0  0  0  0  0  0  0
   27.9705  -18.5361  -15.4987 C   0  0  0  0  0  0  0  0  0  0  0  0
   28.7096  -17.4778  -15.9851 C   0  0  0  0  0  0  0  0  0  0  0  0
   28.0360  -16.3073  -16.2646 C   0  0  0  0  0  0  0  0  0  0  0  0
   26.6541  -16.2245  -16.0531 C   0  0  0  0  0  0  0  0  0  0  0  0
   22.3016  -18.0058  -15.9779 C   0  0  0  0  0  0  0  0  0  0  0  0
   21.4748  -17.0600  -15.9148 O   0  0  0  0  0  0  0  0  0  0  0  0
   19.7257  -23.0585  -13.5054 N   0  0  0  0  0  0  0  0  0  0  0  0
   18.6439  -22.5001  -14.1976 C   0  0  0  0  0  0  0  0  0  0  0  0
   17.4707  -22.8772  -13.9152 O   0  0  0  0  0  0  0  0  0  0  0  0
   18.8281  -21.4904  -15.2316 C   0  0  0  0  0  0  0  0  0  0  0  0
   20.1976  -20.9868  -15.4703 C   0  0  0  0  0  0  0  0  0  0  0  0
   20.5236  -19.5826  -15.1243 C   0  0  2  0  0  0  0  0  0  0  0  0
   21.9023  -19.2792  -15.5559 N   0  0  0  0  0  0  0  0  0  0  0  0
   20.3155  -19.2052  -13.7575 C   0  0  0  0  0  0  0  0  0  0  0  0
   21.2204  -19.1775  -12.8605 O   0  0  0  0  0  0  0  0  0  0  0  0
   19.0517  -18.8140  -13.2957 O   0  0  0  0  0  0  0  0  0  0  0  0
  1  2  1  0
  2  3  2  0
  4  5  1  0
  4  2  1  0
  5  6  1  6
  7  8  2  0
  7  5  1  0
  9  7  1  0
 10  9  1  0
 11 12  1  0
 10 11  1  1
 12 17  2  0
 12 13  1  0
 13 14  2  0
 14 15  1  0
 16 15  2  0
 17 16  1  0
 18 19  2  0
 18 10  1  0
 21 20  1  0
 22 21  2  0
 23 21  1  0
 25 24  1  1
 24 23  1  0
 25 26  1  0
 26 18  1  0
 27 25  1  0
 28 27  2  0
 29 27  1  0
M  END
$$$$
