NFQ.pdb
     RDKit          3D

 29 29  0  0  1  0  0  0  0  0999 V2000
   28.0219  -18.7160  -19.2288 N   0  0  0  0  0  0  0  0  0  0  0  0
   26.9263  -19.5812  -19.4406 C   0  0  0  0  0  0  0  0  0  0  0  0
   26.5103  -19.7618  -20.6035 O   0  0  0  0  0  0  0  0  0  0  0  0
   26.2878  -20.2558  -18.3167 C   0  0  0  0  0  0  0  0  0  0  0  0
   27.2543  -20.8501  -17.3336 C   0  0  2  0  0  0  0  0  0  0  0  0
   27.8850  -21.9986  -17.9537 N   0  0  0  0  0  0  0  0  0  0  0  0
   26.6418  -21.2314  -16.0609 C   0  0  0  0  0  0  0  0  0  0  0  0
   25.7415  -22.1142  -16.0484 O   0  0  0  0  0  0  0  0  0  0  0  0
   26.9904  -20.6705  -14.8017 N   0  0  0  0  0  0  0  0  0  0  0  0
   26.2982  -20.8937  -13.5683 C   0  0  1  0  0  0  0  0  0  0  0  0
   27.1208  -20.4651  -12.3776 C   0  0  0  0  0  0  0  0  0  0  0  0
   26.4228  -20.5454  -11.0947 C   0  0  0  0  0  0  0  0  0  0  0  0
   25.9147  -19.3924  -10.5027 C   0  0  0  0  0  0  0  0  0  0  0  0
   25.2582  -19.4685   -9.2917 C   0  0  0  0  0  0  0  0  0  0  0  0
   25.0756  -20.6603   -8.6214 C   0  0  0  0  0  0  0  0  0  0  0  0
   25.5789  -21.8027   -9.2075 C   0  0  0  0  0  0  0  0  0  0  0  0
   26.2455  -21.7263  -10.4368 C   0  0  0  0  0  0  0  0  0  0  0  0
   24.9861  -20.2214  -13.4822 C   0  0  0  0  0  0  0  0  0  0  0  0
   24.9704  -18.9902  -13.7390 O   0  0  0  0  0  0  0  0  0  0  0  0
   21.5597  -18.0901  -16.7666 N   0  0  0  0  0  0  0  0  0  0  0  0
   21.4914  -19.4869  -16.6923 C   0  0  0  0  0  0  0  0  0  0  0  0
   21.1400  -20.1420  -17.7149 O   0  0  0  0  0  0  0  0  0  0  0  0
   21.8198  -20.2114  -15.4716 C   0  0  0  0  0  0  0  0  0  0  0  0
   22.2119  -19.4233  -14.2838 C   0  0  0  0  0  0  0  0  0  0  0  0
   22.5069  -20.1269  -13.0127 C   0  0  2  0  0  0  0  0  0  0  0  0
   23.7853  -20.8539  -13.1403 N   0  0  0  0  0  0  0  0  0  0  0  0
   21.4733  -20.9840  -12.5116 C   0  0  0  0  0  0  0  0  0  0  0  0
   21.5444  -22.2548  -12.4467 O   0  0  0  0  0  0  0  0  0  0  0  0
   20.2662  -20.4614  -12.0285 O   0  0  0  0  0  0  0  0  0  0  0  0
  1  2  1  0
  2  3  2  0
  4  5  1  0
  4  2  1  0
  5  6  1  6
  7  8  2  0
  7  5  1  0
  9  7  1  0
 10  9  1  0
 11 12  1  0
 10 11  1  1
 12 17  2  0
 12 13  1  0
 13 14  2  0
 14 15  1  0
 16 15  2  0
 17 16  1  0
 18 19  2  0
 18 10  1  0
 21 20  1  0
 22 21  2  0
 23 21  1  0
 25 24  1  6
 24 23  1  0
 25 26  1  0
 26 18  1  0
 27 25  1  0
 28 27  2  0
 29 27  1  0
M  END
$$$$
