NFQ.pdb
     RDKit          3D

 29 29  0  0  1  0  0  0  0  0999 V2000
   28.6606  -26.0334  -18.6533 N   0  0  0  0  0  0  0  0  0  0  0  0
   28.6434  -24.6981  -18.1944 C   0  0  0  0  0  0  0  0  0  0  0  0
   29.1383  -23.8031  -18.9098 O   0  0  0  0  0  0  0  0  0  0  0  0
   28.0558  -24.3673  -16.9017 C   0  0  0  0  0  0  0  0  0  0  0  0
   27.1112  -23.2012  -16.9420 C   0  0  2  0  0  0  0  0  0  0  0  0
   27.8936  -21.9863  -17.0579 N   0  0  0  0  0  0  0  0  0  0  0  0
   26.2196  -23.1236  -15.7847 C   0  0  0  0  0  0  0  0  0  0  0  0
   25.6167  -24.1616  -15.3986 O   0  0  0  0  0  0  0  0  0  0  0  0
   25.9716  -21.9382  -15.0398 N   0  0  0  0  0  0  0  0  0  0  0  0
   25.0964  -21.8292  -13.9118 C   0  0  1  0  0  0  0  0  0  0  0  0
   25.5780  -20.7927  -12.9259 C   0  0  0  0  0  0  0  0  0  0  0  0
   24.7756  -20.6924  -11.7072 C   0  0  0  0  0  0  0  0  0  0  0  0
   23.5649  -20.0054  -11.7227 C   0  0  0  0  0  0  0  0  0  0  0  0
   22.8094  -19.9095  -10.5724 C   0  0  0  0  0  0  0  0  0  0  0  0
   23.2038  -20.4748   -9.3774 C   0  0  0  0  0  0  0  0  0  0  0  0
   24.4031  -21.1555   -9.3617 C   0  0  0  0  0  0  0  0  0  0  0  0
   25.1707  -21.2533  -10.5289 C   0  0  0  0  0  0  0  0  0  0  0  0
   23.6975  -21.5107  -14.2617 C   0  0  0  0  0  0  0  0  0  0  0  0
   23.5111  -20.4514  -14.9138 O   0  0  0  0  0  0  0  0  0  0  0  0
   22.1403  -23.7844  -17.7358 N   0  0  0  0  0  0  0  0  0  0  0  0
   21.6734  -24.6066  -16.7027 C   0  0  0  0  0  0  0  0  0  0  0  0
   21.9058  -25.8484  -16.7505 O   0  0  0  0  0  0  0  0  0  0  0  0
   20.9317  -24.0732  -15.5678 C   0  0  0  0  0  0  0  0  0  0  0  0
   20.7690  -22.6065  -15.4755 C   0  0  0  0  0  0  0  0  0  0  0  0
   21.2035  -21.9057  -14.2435 C   0  0  2  0  0  0  0  0  0  0  0  0
   22.5902  -22.2960  -13.9210 N   0  0  0  0  0  0  0  0  0  0  0  0
   20.3484  -22.0475  -13.1022 C   0  0  0  0  0  0  0  0  0  0  0  0
   20.6111  -22.7542  -12.0747 O   0  0  0  0  0  0  0  0  0  0  0  0
   19.1169  -21.3827  -13.0294 O   0  0  0  0  0  0  0  0  0  0  0  0
  1  2  1  0
  2  3  2  0
  4  5  1  0
  4  2  1  0
  5  6  1  1
  7  8  2  0
  7  5  1  0
  9  7  1  0
 10  9  1  0
 11 12  1  0
 10 11  1  1
 12 17  2  0
 12 13  1  0
 13 14  2  0
 14 15  1  0
 16 15  2  0
 17 16  1  0
 18 19  2  0
 18 10  1  0
 21 20  1  0
 22 21  2  0
 23 21  1  0
 25 24  1  6
 24 23  1  0
 25 26  1  0
 26 18  1  0
 27 25  1  0
 28 27  2  0
 29 27  1  0
M  END
$$$$
