NFQ.pdb
     RDKit          3D

 29 29  0  0  1  0  0  0  0  0999 V2000
   29.1600  -17.3378  -15.2803 N   0  0  0  0  0  0  0  0  0  0  0  0
   28.3643  -18.2417  -16.0176 C   0  0  0  0  0  0  0  0  0  0  0  0
   28.5573  -18.3599  -17.2451 O   0  0  0  0  0  0  0  0  0  0  0  0
   27.3301  -19.0276  -15.3555 C   0  0  0  0  0  0  0  0  0  0  0  0
   27.8602  -20.0113  -14.3530 C   0  0  2  0  0  0  0  0  0  0  0  0
   28.6448  -21.0037  -15.0609 N   0  0  0  0  0  0  0  0  0  0  0  0
   26.8192  -20.6601  -13.5555 C   0  0  0  0  0  0  0  0  0  0  0  0
   26.2914  -21.7248  -13.9770 O   0  0  0  0  0  0  0  0  0  0  0  0
   26.3418  -20.1722  -12.3082 N   0  0  0  0  0  0  0  0  0  0  0  0
   25.2571  -20.7262  -11.5554 C   0  0  1  0  0  0  0  0  0  0  0  0
   25.2916  -20.2837  -10.1127 C   0  0  0  0  0  0  0  0  0  0  0  0
   26.5584  -20.5389   -9.4276 C   0  0  0  0  0  0  0  0  0  0  0  0
   26.8476  -19.8910   -8.2299 C   0  0  0  0  0  0  0  0  0  0  0  0
   28.0434  -20.1307   -7.5851 C   0  0  0  0  0  0  0  0  0  0  0  0
   28.9908  -21.0024   -8.0808 C   0  0  0  0  0  0  0  0  0  0  0  0
   28.7047  -21.6444   -9.2673 C   0  0  0  0  0  0  0  0  0  0  0  0
   27.4910  -21.4017   -9.9224 C   0  0  0  0  0  0  0  0  0  0  0  0
   23.9211  -20.4084  -12.0983 C   0  0  0  0  0  0  0  0  0  0  0  0
   23.8716  -19.4990  -12.9659 O   0  0  0  0  0  0  0  0  0  0  0  0
   20.4362  -23.1304  -16.3056 N   0  0  0  0  0  0  0  0  0  0  0  0
   20.3389  -21.8174  -15.8284 C   0  0  0  0  0  0  0  0  0  0  0  0
   19.2571  -21.1826  -15.9869 O   0  0  0  0  0  0  0  0  0  0  0  0
   21.4465  -21.1602  -15.1471 C   0  0  0  0  0  0  0  0  0  0  0  0
   21.9269  -21.7505  -13.8796 C   0  0  0  0  0  0  0  0  0  0  0  0
   21.5482  -21.1147  -12.5950 C   0  0  2  0  0  0  0  0  0  0  0  0
   22.7325  -21.0413  -11.7168 N   0  0  0  0  0  0  0  0  0  0  0  0
   20.4318  -21.6951  -11.9090 C   0  0  0  0  0  0  0  0  0  0  0  0
   19.2511  -21.2153  -11.8964 O   0  0  0  0  0  0  0  0  0  0  0  0
   20.5642  -22.8859  -11.1823 O   0  0  0  0  0  0  0  0  0  0  0  0
  1  2  1  0
  2  3  2  0
  4  5  1  0
  4  2  1  0
  5  6  1  6
  7  8  2  0
  7  5  1  0
  9  7  1  0
 10  9  1  0
 11 12  1  0
 10 11  1  1
 12 17  2  0
 12 13  1  0
 13 14  2  0
 14 15  1  0
 16 15  2  0
 17 16  1  0
 18 19  2  0
 18 10  1  0
 21 20  1  0
 22 21  2  0
 23 21  1  0
 25 24  1  6
 24 23  1  0
 25 26  1  0
 26 18  1  0
 27 25  1  0
 28 27  2  0
 29 27  1  0
M  END
$$$$
