NFQ.pdb
     RDKit          3D

 29 29  0  0  1  0  0  0  0  0999 V2000
   28.7309  -20.9167  -19.4799 N   0  0  0  0  0  0  0  0  0  0  0  0
   27.3281  -21.0280  -19.5958 C   0  0  0  0  0  0  0  0  0  0  0  0
   26.7578  -20.5218  -20.5840 O   0  0  0  0  0  0  0  0  0  0  0  0
   26.5541  -21.7247  -18.5754 C   0  0  0  0  0  0  0  0  0  0  0  0
   27.3802  -22.2541  -17.4392 C   0  0  2  0  0  0  0  0  0  0  0  0
   27.9565  -23.5201  -17.8476 N   0  0  0  0  0  0  0  0  0  0  0  0
   26.6338  -22.4139  -16.1911 C   0  0  0  0  0  0  0  0  0  0  0  0
   25.8546  -23.3965  -16.0587 O   0  0  0  0  0  0  0  0  0  0  0  0
   26.7191  -21.5250  -15.0847 N   0  0  0  0  0  0  0  0  0  0  0  0
   25.9042  -21.5760  -13.9085 C   0  0  1  0  0  0  0  0  0  0  0  0
   26.4813  -20.7436  -12.7894 C   0  0  0  0  0  0  0  0  0  0  0  0
   25.6491  -20.6771  -11.5885 C   0  0  0  0  0  0  0  0  0  0  0  0
   25.9619  -21.4562  -10.4780 C   0  0  0  0  0  0  0  0  0  0  0  0
   25.1755  -21.3946   -9.3462 C   0  0  0  0  0  0  0  0  0  0  0  0
   24.0666  -20.5788   -9.2580 C   0  0  0  0  0  0  0  0  0  0  0  0
   23.7563  -19.8069  -10.3578 C   0  0  0  0  0  0  0  0  0  0  0  0
   24.5541  -19.8689  -11.5071 C   0  0  0  0  0  0  0  0  0  0  0  0
   24.5075  -21.1470  -14.1227 C   0  0  0  0  0  0  0  0  0  0  0  0
   24.3440  -20.0230  -14.6629 O   0  0  0  0  0  0  0  0  0  0  0  0
   22.4235  -23.8607  -17.0930 N   0  0  0  0  0  0  0  0  0  0  0  0
   21.3973  -24.2119  -16.2071 C   0  0  0  0  0  0  0  0  0  0  0  0
   20.9256  -25.3843  -16.2440 O   0  0  0  0  0  0  0  0  0  0  0  0
   20.8591  -23.2676  -15.2369 C   0  0  0  0  0  0  0  0  0  0  0  0
   21.4356  -21.9066  -15.2031 C   0  0  0  0  0  0  0  0  0  0  0  0
   22.0013  -21.3909  -13.9336 C   0  0  2  0  0  0  0  0  0  0  0  0
   23.3788  -21.8958  -13.7701 N   0  0  0  0  0  0  0  0  0  0  0  0
   21.2218  -21.6260  -12.7541 C   0  0  0  0  0  0  0  0  0  0  0  0
   21.5855  -22.3480  -11.7689 O   0  0  0  0  0  0  0  0  0  0  0  0
   19.9568  -21.0457  -12.5911 O   0  0  0  0  0  0  0  0  0  0  0  0
  1  2  1  0
  2  3  2  0
  4  5  1  0
  4  2  1  0
  5  6  1  6
  7  8  2  0
  7  5  1  0
  9  7  1  0
 10  9  1  0
 11 12  1  0
 10 11  1  1
 12 17  2  0
 12 13  1  0
 13 14  2  0
 14 15  1  0
 16 15  2  0
 17 16  1  0
 18 19  2  0
 18 10  1  0
 21 20  1  0
 22 21  2  0
 23 21  1  0
 25 24  1  6
 24 23  1  0
 25 26  1  0
 26 18  1  0
 27 25  1  0
 28 27  2  0
 29 27  1  0
M  END
$$$$
