NFQ.pdb
     RDKit          3D

 29 29  0  0  1  0  0  0  0  0999 V2000
   12.2719  -10.5612   -9.0723 N   0  0  0  0  0  0  0  0  0  0  0  0
   12.1935   -9.2235   -8.6271 C   0  0  0  0  0  0  0  0  0  0  0  0
   11.2447   -8.8823   -7.8913 O   0  0  0  0  0  0  0  0  0  0  0  0
   13.2066   -8.2518   -9.0209 C   0  0  0  0  0  0  0  0  0  0  0  0
   14.3803   -8.8521   -9.7391 C   0  0  2  0  0  0  0  0  0  0  0  0
   15.1685   -9.5980   -8.7779 N   0  0  0  0  0  0  0  0  0  0  0  0
   15.2160   -7.8689  -10.4287 C   0  0  0  0  0  0  0  0  0  0  0  0
   14.7117   -7.1622  -11.3431 O   0  0  0  0  0  0  0  0  0  0  0  0
   16.5898   -7.6404  -10.1421 N   0  0  0  0  0  0  0  0  0  0  0  0
   17.4638   -6.7782  -10.8789 C   0  0  1  0  0  0  0  0  0  0  0  0
   18.8132   -6.6471  -10.2155 C   0  0  0  0  0  0  0  0  0  0  0  0
   19.7779   -5.8322  -10.9536 C   0  0  0  0  0  0  0  0  0  0  0  0
   20.9220   -6.4176  -11.4887 C   0  0  0  0  0  0  0  0  0  0  0  0
   21.8325   -5.6482  -12.1830 C   0  0  0  0  0  0  0  0  0  0  0  0
   21.6613   -4.2933  -12.3783 C   0  0  0  0  0  0  0  0  0  0  0  0
   20.5281   -3.7130  -11.8484 C   0  0  0  0  0  0  0  0  0  0  0  0
   19.6033   -4.4934  -11.1434 C   0  0  0  0  0  0  0  0  0  0  0  0
   17.6822   -7.1937  -12.2791 C   0  0  0  0  0  0  0  0  0  0  0  0
   18.0778   -8.3743  -12.4572 O   0  0  0  0  0  0  0  0  0  0  0  0
   13.9477   -8.2664  -16.5105 N   0  0  0  0  0  0  0  0  0  0  0  0
   15.1177   -8.2604  -17.2800 C   0  0  0  0  0  0  0  0  0  0  0  0
   15.0828   -8.7176  -18.4582 O   0  0  0  0  0  0  0  0  0  0  0  0
   16.3762   -7.7364  -16.7661 C   0  0  0  0  0  0  0  0  0  0  0  0
   16.4355   -7.3556  -15.3387 C   0  0  0  0  0  0  0  0  0  0  0  0
   17.7073   -6.8389  -14.7791 C   0  0  2  0  0  0  0  0  0  0  0  0
   17.4812   -6.3746  -13.3961 N   0  0  0  0  0  0  0  0  0  0  0  0
   18.3783   -5.8390  -15.5562 C   0  0  0  0  0  0  0  0  0  0  0  0
   18.3004   -4.5827  -15.3560 O   0  0  0  0  0  0  0  0  0  0  0  0
   19.2096   -6.1884  -16.6287 O   0  0  0  0  0  0  0  0  0  0  0  0
  1  2  1  0
  2  3  2  0
  4  5  1  0
  4  2  1  0
  5  6  1  1
  7  8  2  0
  7  5  1  0
  9  7  1  0
 10  9  1  0
 11 12  1  0
 10 11  1  1
 12 17  2  0
 12 13  1  0
 13 14  2  0
 14 15  1  0
 16 15  2  0
 17 16  1  0
 18 19  2  0
 18 10  1  0
 21 20  1  0
 22 21  2  0
 23 21  1  0
 25 24  1  6
 24 23  1  0
 25 26  1  0
 26 18  1  0
 27 25  1  0
 28 27  2  0
 29 27  1  0
M  END
$$$$
