NFQ.pdb
     RDKit          3D

 29 29  0  0  1  0  0  0  0  0999 V2000
   18.6545  -11.6143  -13.8278 N   0  0  0  0  0  0  0  0  0  0  0  0
   18.4857  -10.2526  -14.1613 C   0  0  0  0  0  0  0  0  0  0  0  0
   19.2572   -9.7301  -14.9918 O   0  0  0  0  0  0  0  0  0  0  0  0
   17.4247   -9.4656  -13.5445 C   0  0  0  0  0  0  0  0  0  0  0  0
   16.6754  -10.1922  -12.4655 C   0  0  2  0  0  0  0  0  0  0  0  0
   15.9575  -11.2947  -13.0741 N   0  0  0  0  0  0  0  0  0  0  0  0
   15.7555   -9.3413  -11.7102 C   0  0  0  0  0  0  0  0  0  0  0  0
   14.6049   -9.1125  -12.1724 O   0  0  0  0  0  0  0  0  0  0  0  0
   16.0641   -8.7348  -10.4618 N   0  0  0  0  0  0  0  0  0  0  0  0
   15.2224   -7.8244   -9.7456 C   0  0  1  0  0  0  0  0  0  0  0  0
   15.0949   -8.2044   -8.2904 C   0  0  0  0  0  0  0  0  0  0  0  0
   14.1374   -7.3994   -7.5325 C   0  0  0  0  0  0  0  0  0  0  0  0
   12.7742   -7.6668   -7.6229 C   0  0  0  0  0  0  0  0  0  0  0  0
   11.8713   -6.9059   -6.9094 C   0  0  0  0  0  0  0  0  0  0  0  0
   12.2621   -5.8671   -6.0901 C   0  0  0  0  0  0  0  0  0  0  0  0
   13.6124   -5.6019   -6.0003 C   0  0  0  0  0  0  0  0  0  0  0  0
   14.5295   -6.3738   -6.7243 C   0  0  0  0  0  0  0  0  0  0  0  0
   15.6616   -6.4161   -9.8126 C   0  0  0  0  0  0  0  0  0  0  0  0
   16.7992   -6.1617   -9.3400 O   0  0  0  0  0  0  0  0  0  0  0  0
   14.2684   -2.6164  -14.4276 N   0  0  0  0  0  0  0  0  0  0  0  0
   15.3935   -3.4334  -14.2610 C   0  0  0  0  0  0  0  0  0  0  0  0
   16.0138   -3.8440  -15.2833 O   0  0  0  0  0  0  0  0  0  0  0  0
   15.8768   -3.8210  -12.9424 C   0  0  0  0  0  0  0  0  0  0  0  0
   15.0775   -3.4164  -11.7662 C   0  0  0  0  0  0  0  0  0  0  0  0
   15.4077   -3.9825  -10.4365 C   0  0  2  0  0  0  0  0  0  0  0  0
   14.9084   -5.3694  -10.3567 N   0  0  0  0  0  0  0  0  0  0  0  0
   14.9853   -3.2155   -9.3019 C   0  0  0  0  0  0  0  0  0  0  0  0
   13.8861   -3.3775   -8.6777 O   0  0  0  0  0  0  0  0  0  0  0  0
   15.7902   -2.1984   -8.7715 O   0  0  0  0  0  0  0  0  0  0  0  0
  1  2  1  0
  2  3  2  0
  4  5  1  0
  4  2  1  0
  5  6  1  6
  7  8  2  0
  7  5  1  0
  9  7  1  0
 10  9  1  0
 11 12  1  0
 10 11  1  1
 12 17  2  0
 12 13  1  0
 13 14  2  0
 14 15  1  0
 16 15  2  0
 17 16  1  0
 18 19  2  0
 18 10  1  0
 21 20  1  0
 22 21  2  0
 23 21  1  0
 25 24  1  6
 24 23  1  0
 25 26  1  0
 26 18  1  0
 27 25  1  0
 28 27  2  0
 29 27  1  0
M  END
$$$$
