NFQ.pdb
     RDKit          3D

 29 29  0  0  1  0  0  0  0  0999 V2000
   29.1538  -20.8613  -17.9181 N   0  0  0  0  0  0  0  0  0  0  0  0
   28.6327  -20.0922  -16.8548 C   0  0  0  0  0  0  0  0  0  0  0  0
   29.0591  -18.9326  -16.6774 O   0  0  0  0  0  0  0  0  0  0  0  0
   27.6098  -20.6437  -15.9744 C   0  0  0  0  0  0  0  0  0  0  0  0
   27.9843  -20.6292  -14.5207 C   0  0  2  0  0  0  0  0  0  0  0  0
   29.1111  -21.5217  -14.3328 N   0  0  0  0  0  0  0  0  0  0  0  0
   26.8880  -20.9985  -13.6251 C   0  0  0  0  0  0  0  0  0  0  0  0
   26.1970  -22.0212  -13.8833 O   0  0  0  0  0  0  0  0  0  0  0  0
   26.5293  -20.2761  -12.4542 N   0  0  0  0  0  0  0  0  0  0  0  0
   25.4560  -20.6065  -11.5659 C   0  0  1  0  0  0  0  0  0  0  0  0
   25.5638  -19.8652  -10.2554 C   0  0  0  0  0  0  0  0  0  0  0  0
   26.7433  -20.2039   -9.4596 C   0  0  0  0  0  0  0  0  0  0  0  0
   27.6559  -21.1445   -9.9289 C   0  0  0  0  0  0  0  0  0  0  0  0
   28.7673  -21.4650   -9.1769 C   0  0  0  0  0  0  0  0  0  0  0  0
   29.0257  -20.8850   -7.9522 C   0  0  0  0  0  0  0  0  0  0  0  0
   28.1218  -19.9531   -7.4870 C   0  0  0  0  0  0  0  0  0  0  0  0
   26.9934  -19.6273   -8.2497 C   0  0  0  0  0  0  0  0  0  0  0  0
   24.1118  -20.3548  -12.1232 C   0  0  0  0  0  0  0  0  0  0  0  0
   23.9504  -19.2606  -12.7222 O   0  0  0  0  0  0  0  0  0  0  0  0
   20.3259  -23.4290  -16.0099 N   0  0  0  0  0  0  0  0  0  0  0  0
   20.6343  -24.1024  -14.8213 C   0  0  0  0  0  0  0  0  0  0  0  0
   20.2221  -25.2865  -14.6592 O   0  0  0  0  0  0  0  0  0  0  0  0
   21.4231  -23.4816  -13.7654 C   0  0  0  0  0  0  0  0  0  0  0  0
   21.9087  -22.1025  -13.9846 C   0  0  0  0  0  0  0  0  0  0  0  0
   21.8268  -21.1210  -12.8766 C   0  0  2  0  0  0  0  0  0  0  0  0
   23.0298  -21.2375  -12.0290 N   0  0  0  0  0  0  0  0  0  0  0  0
   20.6322  -21.1606  -12.0859 C   0  0  0  0  0  0  0  0  0  0  0  0
   19.4650  -20.8727  -12.5091 O   0  0  0  0  0  0  0  0  0  0  0  0
   20.6646  -21.5446  -10.7386 O   0  0  0  0  0  0  0  0  0  0  0  0
  1  2  1  0
  2  3  2  0
  4  5  1  0
  4  2  1  0
  5  6  1  6
  7  8  2  0
  7  5  1  0
  9  7  1  0
 10  9  1  0
 11 12  1  0
 10 11  1  1
 12 17  2  0
 12 13  1  0
 13 14  2  0
 14 15  1  0
 16 15  2  0
 17 16  1  0
 18 19  2  0
 18 10  1  0
 21 20  1  0
 22 21  2  0
 23 21  1  0
 25 24  1  6
 24 23  1  0
 25 26  1  0
 26 18  1  0
 27 25  1  0
 28 27  2  0
 29 27  1  0
M  END
$$$$
