NFQ.pdb
     RDKit          3D

 29 29  0  0  1  0  0  0  0  0999 V2000
   21.1050  -31.5239  -10.5515 N   0  0  0  0  0  0  0  0  0  0  0  0
   22.0110  -30.5374  -10.9985 C   0  0  0  0  0  0  0  0  0  0  0  0
   23.2062  -30.8475  -11.1805 O   0  0  0  0  0  0  0  0  0  0  0  0
   21.5579  -29.1736  -11.2447 C   0  0  0  0  0  0  0  0  0  0  0  0
   20.0767  -28.9857  -11.0879 C   0  0  2  0  0  0  0  0  0  0  0  0
   19.4517  -29.2051  -12.3774 N   0  0  0  0  0  0  0  0  0  0  0  0
   19.7011  -27.6752  -10.5568 C   0  0  0  0  0  0  0  0  0  0  0  0
   20.2024  -27.2829   -9.4684 O   0  0  0  0  0  0  0  0  0  0  0  0
   18.7904  -26.7839  -11.1876 N   0  0  0  0  0  0  0  0  0  0  0  0
   18.3826  -25.5092  -10.6787 C   0  0  1  0  0  0  0  0  0  0  0  0
   17.9466  -24.5773  -11.7831 C   0  0  0  0  0  0  0  0  0  0  0  0
   19.0207  -24.1515  -12.6799 C   0  0  0  0  0  0  0  0  0  0  0  0
   19.6227  -22.9081  -12.5076 C   0  0  0  0  0  0  0  0  0  0  0  0
   20.6344  -22.5062  -13.3550 C   0  0  0  0  0  0  0  0  0  0  0  0
   21.0907  -23.2949  -14.3907 C   0  0  0  0  0  0  0  0  0  0  0  0
   20.4947  -24.5267  -14.5617 C   0  0  0  0  0  0  0  0  0  0  0  0
   19.4676  -24.9355  -13.7020 C   0  0  0  0  0  0  0  0  0  0  0  0
   17.2944  -25.5770   -9.6827 C   0  0  0  0  0  0  0  0  0  0  0  0
   16.2085  -26.0771  -10.0736 O   0  0  0  0  0  0  0  0  0  0  0  0
   16.9414  -27.8019   -3.9847 N   0  0  0  0  0  0  0  0  0  0  0  0
   17.7464  -26.6703   -4.1658 C   0  0  0  0  0  0  0  0  0  0  0  0
   18.6341  -26.4016   -3.3066 O   0  0  0  0  0  0  0  0  0  0  0  0
   17.5968  -25.7940   -5.3201 C   0  0  0  0  0  0  0  0  0  0  0  0
   16.5755  -26.1474   -6.3290 C   0  0  0  0  0  0  0  0  0  0  0  0
   16.2630  -25.1840   -7.4116 C   0  0  2  0  0  0  0  0  0  0  0  0
   17.3928  -25.1295   -8.3602 N   0  0  0  0  0  0  0  0  0  0  0  0
   15.8761  -23.8689   -6.9934 C   0  0  0  0  0  0  0  0  0  0  0  0
   16.5040  -22.7968   -7.2771 O   0  0  0  0  0  0  0  0  0  0  0  0
   14.7265  -23.6610   -6.2196 O   0  0  0  0  0  0  0  0  0  0  0  0
  1  2  1  0
  2  3  2  0
  4  5  1  0
  4  2  1  0
  5  6  1  6
  7  8  2  0
  7  5  1  0
  9  7  1  0
 10  9  1  0
 11 12  1  0
 10 11  1  6
 12 17  2  0
 12 13  1  0
 13 14  2  0
 14 15  1  0
 16 15  2  0
 17 16  1  0
 18 19  2  0
 18 10  1  0
 21 20  1  0
 22 21  2  0
 23 21  1  0
 25 24  1  1
 24 23  1  0
 25 26  1  0
 26 18  1  0
 27 25  1  0
 28 27  2  0
 29 27  1  0
M  END
$$$$
