NFQ.pdb
     RDKit          3D

 29 29  0  0  1  0  0  0  0  0999 V2000
   28.1417  -22.7912  -18.1131 N   0  0  0  0  0  0  0  0  0  0  0  0
   26.7861  -22.5798  -18.4468 C   0  0  0  0  0  0  0  0  0  0  0  0
   26.4971  -22.1857  -19.5953 O   0  0  0  0  0  0  0  0  0  0  0  0
   25.7361  -22.8183  -17.4637 C   0  0  0  0  0  0  0  0  0  0  0  0
   26.2426  -23.3028  -16.1362 C   0  0  2  0  0  0  0  0  0  0  0  0
   26.5808  -24.7067  -16.2636 N   0  0  0  0  0  0  0  0  0  0  0  0
   25.2984  -23.1047  -15.0363 C   0  0  0  0  0  0  0  0  0  0  0  0
   24.4991  -24.0318  -14.7337 O   0  0  0  0  0  0  0  0  0  0  0  0
   25.2076  -21.9172  -14.2597 N   0  0  0  0  0  0  0  0  0  0  0  0
   24.2452  -21.6651  -13.2299 C   0  0  1  0  0  0  0  0  0  0  0  0
   24.6721  -20.5327  -12.3279 C   0  0  0  0  0  0  0  0  0  0  0  0
   23.7936  -20.3034  -11.1811 C   0  0  0  0  0  0  0  0  0  0  0  0
   22.6221  -19.5674  -11.3348 C   0  0  0  0  0  0  0  0  0  0  0  0
   21.7949  -19.3498  -10.2524 C   0  0  0  0  0  0  0  0  0  0  0  0
   22.0781  -19.8377   -8.9935 C   0  0  0  0  0  0  0  0  0  0  0  0
   23.2386  -20.5669   -8.8408 C   0  0  0  0  0  0  0  0  0  0  0  0
   24.0789  -20.7882   -9.9391 C   0  0  0  0  0  0  0  0  0  0  0  0
   22.8895  -21.3629  -13.7313 C   0  0  0  0  0  0  0  0  0  0  0  0
   22.8087  -20.4929  -14.6362 O   0  0  0  0  0  0  0  0  0  0  0  0
   19.0056  -24.7765  -16.5246 N   0  0  0  0  0  0  0  0  0  0  0  0
   18.1427  -23.7329  -16.1674 C   0  0  0  0  0  0  0  0  0  0  0  0
   16.9834  -23.6923  -16.6702 O   0  0  0  0  0  0  0  0  0  0  0  0
   18.5380  -22.6930  -15.2267 C   0  0  0  0  0  0  0  0  0  0  0  0
   19.9186  -22.7263  -14.6988 C   0  0  0  0  0  0  0  0  0  0  0  0
   20.3803  -21.6345  -13.8085 C   0  0  2  0  0  0  0  0  0  0  0  0
   21.7146  -21.9699  -13.2733 N   0  0  0  0  0  0  0  0  0  0  0  0
   19.4827  -21.2556  -12.7575 C   0  0  0  0  0  0  0  0  0  0  0  0
   18.7612  -20.2050  -12.7551 O   0  0  0  0  0  0  0  0  0  0  0  0
   19.3218  -22.0527  -11.6162 O   0  0  0  0  0  0  0  0  0  0  0  0
  1  2  1  0
  2  3  2  0
  4  5  1  0
  4  2  1  0
  5  6  1  6
  7  8  2  0
  7  5  1  0
  9  7  1  0
 10  9  1  0
 11 12  1  0
 10 11  1  6
 12 17  2  0
 12 13  1  0
 13 14  2  0
 14 15  1  0
 16 15  2  0
 17 16  1  0
 18 19  2  0
 18 10  1  0
 21 20  1  0
 22 21  2  0
 23 21  1  0
 25 24  1  1
 24 23  1  0
 25 26  1  0
 26 18  1  0
 27 25  1  0
 28 27  2  0
 29 27  1  0
M  END
$$$$
