NFQ.pdb
     RDKit          3D

 29 29  0  0  1  0  0  0  0  0999 V2000
   28.3235  -17.8143  -17.8065 N   0  0  0  0  0  0  0  0  0  0  0  0
   28.1432  -19.0714  -18.4237 C   0  0  0  0  0  0  0  0  0  0  0  0
   28.6974  -19.2957  -19.5194 O   0  0  0  0  0  0  0  0  0  0  0  0
   27.3206  -20.0955  -17.7909 C   0  0  0  0  0  0  0  0  0  0  0  0
   28.0823  -21.0092  -16.8752 C   0  0  2  0  0  0  0  0  0  0  0  0
   28.3757  -22.2328  -17.5951 N   0  0  0  0  0  0  0  0  0  0  0  0
   27.3830  -21.3094  -15.6256 C   0  0  0  0  0  0  0  0  0  0  0  0
   26.8383  -22.4370  -15.4778 O   0  0  0  0  0  0  0  0  0  0  0  0
   27.2652  -20.4059  -14.5341 N   0  0  0  0  0  0  0  0  0  0  0  0
   26.6813  -20.7060  -13.2616 C   0  0  1  0  0  0  0  0  0  0  0  0
   27.0895  -19.7064  -12.2070 C   0  0  0  0  0  0  0  0  0  0  0  0
   26.5784  -19.9923  -10.8667 C   0  0  0  0  0  0  0  0  0  0  0  0
   26.0273  -21.2383  -10.5805 C   0  0  0  0  0  0  0  0  0  0  0  0
   25.5437  -21.5068   -9.3167 C   0  0  0  0  0  0  0  0  0  0  0  0
   25.5798  -20.5786   -8.2968 C   0  0  0  0  0  0  0  0  0  0  0  0
   26.1257  -19.3442   -8.5799 C   0  0  0  0  0  0  0  0  0  0  0  0
   26.6169  -19.0708   -9.8625 C   0  0  0  0  0  0  0  0  0  0  0  0
   25.2063  -20.7774  -13.2760 C   0  0  0  0  0  0  0  0  0  0  0  0
   24.6437  -20.9505  -12.1644 O   0  0  0  0  0  0  0  0  0  0  0  0
   22.5418  -25.0873  -14.0331 N   0  0  0  0  0  0  0  0  0  0  0  0
   21.4177  -24.3864  -14.4873 C   0  0  0  0  0  0  0  0  0  0  0  0
   20.2775  -24.9252  -14.3973 O   0  0  0  0  0  0  0  0  0  0  0  0
   21.5205  -23.0490  -15.0562 C   0  0  0  0  0  0  0  0  0  0  0  0
   22.8462  -22.3947  -15.0497 C   0  0  0  0  0  0  0  0  0  0  0  0
   22.9860  -21.0470  -14.4480 C   0  0  2  0  0  0  0  0  0  0  0  0
   24.4123  -20.6671  -14.4232 N   0  0  0  0  0  0  0  0  0  0  0  0
   22.3806  -20.8646  -13.1619 C   0  0  0  0  0  0  0  0  0  0  0  0
   22.6347  -21.5650  -12.1279 O   0  0  0  0  0  0  0  0  0  0  0  0
   21.4353  -19.8543  -12.9401 O   0  0  0  0  0  0  0  0  0  0  0  0
  1  2  1  0
  2  3  2  0
  4  5  1  0
  4  2  1  0
  5  6  1  6
  7  8  2  0
  7  5  1  0
  9  7  1  0
 10  9  1  0
 11 12  1  0
 10 11  1  1
 12 17  2  0
 12 13  1  0
 13 14  2  0
 14 15  1  0
 16 15  2  0
 17 16  1  0
 18 19  2  0
 18 10  1  0
 21 20  1  0
 22 21  2  0
 23 21  1  0
 25 24  1  1
 24 23  1  0
 25 26  1  0
 26 18  1  0
 27 25  1  0
 28 27  2  0
 29 27  1  0
M  END
$$$$
