NFQ.pdb
     RDKit          3D

 29 29  0  0  1  0  0  0  0  0999 V2000
   28.7916  -20.5281  -17.1235 N   0  0  0  0  0  0  0  0  0  0  0  0
   27.4167  -20.2774  -16.9225 C   0  0  0  0  0  0  0  0  0  0  0  0
   26.7307  -19.8523  -17.8747 O   0  0  0  0  0  0  0  0  0  0  0  0
   26.8043  -20.5115  -15.6202 C   0  0  0  0  0  0  0  0  0  0  0  0
   27.5201  -21.5331  -14.7848 C   0  0  2  0  0  0  0  0  0  0  0  0
   27.3548  -22.8296  -15.4119 N   0  0  0  0  0  0  0  0  0  0  0  0
   27.0685  -21.5794  -13.3940 C   0  0  0  0  0  0  0  0  0  0  0  0
   25.9783  -22.1493  -13.1170 O   0  0  0  0  0  0  0  0  0  0  0  0
   27.7806  -21.0174  -12.2991 N   0  0  0  0  0  0  0  0  0  0  0  0
   27.2990  -20.9152  -10.9546 C   0  0  1  0  0  0  0  0  0  0  0  0
   28.3339  -20.3195  -10.0315 C   0  0  0  0  0  0  0  0  0  0  0  0
   27.8559  -20.0460   -8.6765 C   0  0  0  0  0  0  0  0  0  0  0  0
   28.2343  -20.8727   -7.6223 C   0  0  0  0  0  0  0  0  0  0  0  0
   27.7816  -20.6155   -6.3448 C   0  0  0  0  0  0  0  0  0  0  0  0
   26.9516  -19.5530   -6.0527 C   0  0  0  0  0  0  0  0  0  0  0  0
   26.5765  -18.7338   -7.0967 C   0  0  0  0  0  0  0  0  0  0  0  0
   27.0356  -18.9943   -8.3939 C   0  0  0  0  0  0  0  0  0  0  0  0
   26.0572  -20.1280  -10.8164 C   0  0  0  0  0  0  0  0  0  0  0  0
   26.0405  -19.0053  -11.3831 O   0  0  0  0  0  0  0  0  0  0  0  0
   22.7790  -20.9674  -14.6897 N   0  0  0  0  0  0  0  0  0  0  0  0
   21.7867  -20.3706  -13.9020 C   0  0  0  0  0  0  0  0  0  0  0  0
   20.6620  -20.1128  -14.4186 O   0  0  0  0  0  0  0  0  0  0  0  0
   22.0084  -20.0426  -12.4999 C   0  0  0  0  0  0  0  0  0  0  0  0
   23.2996  -20.4321  -11.8942 C   0  0  0  0  0  0  0  0  0  0  0  0
   23.5561  -20.1151  -10.4689 C   0  0  2  0  0  0  0  0  0  0  0  0
   24.9225  -20.5433  -10.1100 N   0  0  0  0  0  0  0  0  0  0  0  0
   22.5954  -20.6130   -9.5292 C   0  0  0  0  0  0  0  0  0  0  0  0
   22.7959  -21.5761   -8.7190 O   0  0  0  0  0  0  0  0  0  0  0  0
   21.3188  -20.0448   -9.4246 O   0  0  0  0  0  0  0  0  0  0  0  0
  1  2  1  0
  2  3  2  0
  4  5  1  0
  4  2  1  0
  5  6  1  6
  7  8  2  0
  7  5  1  0
  9  7  1  0
 10  9  1  0
 11 12  1  0
 10 11  1  1
 12 17  2  0
 12 13  1  0
 13 14  2  0
 14 15  1  0
 16 15  2  0
 17 16  1  0
 18 19  2  0
 18 10  1  0
 21 20  1  0
 22 21  2  0
 23 21  1  0
 25 24  1  6
 24 23  1  0
 25 26  1  0
 26 18  1  0
 27 25  1  0
 28 27  2  0
 29 27  1  0
M  END
$$$$
