LPI.pdb
     RDKit          3D

 24 24  0  0  1  0  0  0  0  0999 V2000
    8.3561  -19.9315   17.4267 C   0  0  0  0  0  0  0  0  0  0  0  0
    8.5075  -19.5805   18.8721 C   0  0  2  0  0  0  0  0  0  0  0  0
    7.5643  -20.4536   19.6733 C   0  0  0  0  0  0  0  0  0  0  0  0
    8.1756  -18.1530   19.1787 C   0  0  0  0  0  0  0  0  0  0  0  0
    9.4030  -17.2544   19.1444 C   0  0  2  0  0  0  0  0  0  0  0  0
   10.5583  -18.0133   18.8978 N   0  0  0  0  0  0  0  0  0  0  0  0
    9.3928  -16.2956   20.2510 C   0  0  0  0  0  0  0  0  0  0  0  0
   10.2001  -16.6342   21.2041 O   0  0  0  0  0  0  0  0  0  0  0  0
    8.6720  -15.1193   20.4226 N   0  0  0  0  0  0  0  0  0  0  0  0
    8.4330  -14.1262   19.3345 C   0  0  0  0  0  0  0  0  0  0  0  0
    6.9314  -13.9330   19.4785 C   0  0  0  0  0  0  0  0  0  0  0  0
    6.5712  -14.3942   20.8744 C   0  0  0  0  0  0  0  0  0  0  0  0
    7.9919  -14.4669   21.5050 C   0  0  1  0  0  0  0  0  0  0  0  0
    7.9286  -15.0342   22.8097 C   0  0  0  0  0  0  0  0  0  0  0  0
    7.8716  -16.2279   23.1124 O   0  0  0  0  0  0  0  0  0  0  0  0
    5.9656  -11.6417   27.1144 C   0  0  0  0  0  0  0  0  0  0  0  0
    6.2836  -12.5712   25.9899 C   0  0  0  0  0  0  0  0  0  0  0  0
    7.4059  -13.4926   26.2367 C   0  0  2  0  0  0  0  0  0  0  0  0
    8.6696  -12.6689   26.5319 C   0  0  0  0  0  0  0  0  0  0  0  0
    7.6882  -14.5755   25.2759 C   0  0  2  0  0  0  0  0  0  0  0  0
    7.9305  -14.1115   23.9263 N   0  0  0  0  0  0  0  0  0  0  0  0
    6.6307  -15.5981   25.2551 C   0  0  0  0  0  0  0  0  0  0  0  0
    5.8059  -15.8417   24.1520 O   0  0  0  0  0  0  0  0  0  0  0  0
    6.4311  -16.3207   26.2956 O   0  0  0  0  0  0  0  0  0  0  0  0
  2  1  1  6
  2  3  1  0
  4  2  1  0
  5  6  1  1
  5  4  1  0
  5  7  1  0
  7  8  2  0
  9  7  1  0
  9 10  1  0
 11 10  1  0
 12 13  1  0
 12 11  1  0
 13  9  1  0
 13 14  1  1
 15 14  2  0
 17 16  1  0
 17 18  1  0
 18 20  1  0
 18 19  1  6
 20 22  1  0
 20 21  1  6
 21 14  1  0
 22 23  1  0
 24 22  2  0
M  END
$$$$
