LPI.pdb
     RDKit          3D

 24 24  0  0  1  0  0  0  0  0999 V2000
    9.1672  -13.9397   18.1699 C   0  0  0  0  0  0  0  0  0  0  0  0
    7.7945  -13.7161   18.7186 C   0  0  2  0  0  0  0  0  0  0  0  0
    7.4722  -12.2408   18.6030 C   0  0  0  0  0  0  0  0  0  0  0  0
    7.6566  -14.0994   20.1595 C   0  0  0  0  0  0  0  0  0  0  0  0
    7.9160  -15.5808   20.3904 C   0  0  2  0  0  0  0  0  0  0  0  0
    7.1854  -16.3542   19.4742 N   0  0  0  0  0  0  0  0  0  0  0  0
    7.8681  -15.9146   21.8153 C   0  0  0  0  0  0  0  0  0  0  0  0
    6.9728  -15.2304   22.4520 O   0  0  0  0  0  0  0  0  0  0  0  0
    8.6133  -16.8237   22.5574 N   0  0  0  0  0  0  0  0  0  0  0  0
    8.8162  -18.2486   22.1625 C   0  0  0  0  0  0  0  0  0  0  0  0
   10.3256  -18.3530   22.3170 C   0  0  0  0  0  0  0  0  0  0  0  0
   10.7432  -17.2190   23.2285 C   0  0  0  0  0  0  0  0  0  0  0  0
    9.3524  -16.8015   23.7874 C   0  0  1  0  0  0  0  0  0  0  0  0
    9.4676  -15.6234   24.5791 C   0  0  0  0  0  0  0  0  0  0  0  0
   10.0967  -14.5960   24.3173 O   0  0  0  0  0  0  0  0  0  0  0  0
    5.8043  -12.4520   26.4768 C   0  0  0  0  0  0  0  0  0  0  0  0
    7.0076  -13.2239   26.0456 C   0  0  0  0  0  0  0  0  0  0  0  0
    7.8364  -13.7560   27.1408 C   0  0  2  0  0  0  0  0  0  0  0  0
    8.1977  -12.6062   28.0947 C   0  0  0  0  0  0  0  0  0  0  0  0
    9.0185  -14.5811   26.8290 C   0  0  2  0  0  0  0  0  0  0  0  0
    8.7677  -15.6149   25.8473 N   0  0  0  0  0  0  0  0  0  0  0  0
    9.6139  -15.1867   28.0303 C   0  0  0  0  0  0  0  0  0  0  0  0
    9.5481  -16.5520   28.3272 O   0  0  0  0  0  0  0  0  0  0  0  0
   10.2331  -14.4425   28.8714 O   0  0  0  0  0  0  0  0  0  0  0  0
  2  1  1  1
  2  3  1  0
  4  2  1  0
  5  6  1  6
  5  4  1  0
  5  7  1  0
  7  8  2  0
  9  7  1  0
  9 10  1  0
 11 10  1  0
 12 13  1  0
 12 11  1  0
 13  9  1  0
 13 14  1  6
 15 14  2  0
 17 16  1  0
 17 18  1  0
 18 20  1  0
 18 19  1  6
 20 22  1  0
 20 21  1  6
 21 14  1  0
 22 23  1  0
 24 22  2  0
M  END
$$$$
