LPI.pdb
     RDKit          3D

 24 24  0  0  1  0  0  0  0  0999 V2000
    9.9384  -20.4397   19.0644 C   0  0  0  0  0  0  0  0  0  0  0  0
   10.7864  -20.0730   20.2399 C   0  0  2  0  0  0  0  0  0  0  0  0
   10.7663  -21.2290   21.2181 C   0  0  0  0  0  0  0  0  0  0  0  0
   10.3065  -18.8549   20.9666 C   0  0  0  0  0  0  0  0  0  0  0  0
   10.4736  -17.5871   20.1421 C   0  0  2  0  0  0  0  0  0  0  0  0
   11.7437  -17.5559   19.5444 N   0  0  0  0  0  0  0  0  0  0  0  0
    9.9892  -16.4114   20.8680 C   0  0  0  0  0  0  0  0  0  0  0  0
   10.9162  -15.8547   21.5792 O   0  0  0  0  0  0  0  0  0  0  0  0
    8.7287  -15.8262   20.9047 N   0  0  0  0  0  0  0  0  0  0  0  0
    7.8807  -15.6059   19.6965 C   0  0  0  0  0  0  0  0  0  0  0  0
    6.5651  -16.1901   20.1873 C   0  0  0  0  0  0  0  0  0  0  0  0
    6.6380  -16.2016   21.6991 C   0  0  0  0  0  0  0  0  0  0  0  0
    7.8691  -15.2743   21.9128 C   0  0  1  0  0  0  0  0  0  0  0  0
    8.2378  -15.2459   23.2880 C   0  0  0  0  0  0  0  0  0  0  0  0
    9.1139  -15.9072   23.8490 O   0  0  0  0  0  0  0  0  0  0  0  0
    5.8927  -10.9687   26.2581 C   0  0  0  0  0  0  0  0  0  0  0  0
    6.8936  -11.8741   25.6192 C   0  0  0  0  0  0  0  0  0  0  0  0
    7.0456  -13.1917   26.2598 C   0  0  2  0  0  0  0  0  0  0  0  0
    7.5761  -12.9915   27.6884 C   0  0  0  0  0  0  0  0  0  0  0  0
    7.7819  -14.2631   25.5632 C   0  0  2  0  0  0  0  0  0  0  0  0
    7.5050  -14.3358   24.1443 N   0  0  0  0  0  0  0  0  0  0  0  0
    7.5585  -15.5846   26.1697 C   0  0  0  0  0  0  0  0  0  0  0  0
    8.4317  -16.1766   27.0882 O   0  0  0  0  0  0  0  0  0  0  0  0
    6.5116  -16.2549   25.8544 O   0  0  0  0  0  0  0  0  0  0  0  0
  2  1  1  6
  2  3  1  0
  4  2  1  0
  5  6  1  1
  5  4  1  0
  5  7  1  0
  7  8  2  0
  9  7  1  0
  9 10  1  0
 11 10  1  0
 12 13  1  0
 12 11  1  0
 13  9  1  0
 13 14  1  1
 15 14  2  0
 17 16  1  0
 17 18  1  0
 18 20  1  0
 18 19  1  1
 20 22  1  0
 20 21  1  6
 21 14  1  0
 22 23  1  0
 24 22  2  0
M  END
$$$$
