LPI.pdb
     RDKit          3D

 24 24  0  0  1  0  0  0  0  0999 V2000
    4.6177  -11.9956   26.2906 C   0  0  0  0  0  0  0  0  0  0  0  0
    5.7639  -12.9552   26.2654 C   0  0  2  0  0  0  0  0  0  0  0  0
    7.0287  -12.1921   26.5994 C   0  0  0  0  0  0  0  0  0  0  0  0
    5.9667  -13.6095   24.9339 C   0  0  0  0  0  0  0  0  0  0  0  0
    6.0116  -15.1269   25.0368 C   0  0  2  0  0  0  0  0  0  0  0  0
    5.3957  -15.5553   26.2237 N   0  0  0  0  0  0  0  0  0  0  0  0
    7.3338  -15.6464   24.6824 C   0  0  0  0  0  0  0  0  0  0  0  0
    7.9060  -16.2541   25.6716 O   0  0  0  0  0  0  0  0  0  0  0  0
    8.0389  -15.5865   23.4858 N   0  0  0  0  0  0  0  0  0  0  0  0
    7.4100  -15.2852   22.1663 C   0  0  0  0  0  0  0  0  0  0  0  0
    8.3565  -14.2065   21.6629 C   0  0  0  0  0  0  0  0  0  0  0  0
    9.6411  -14.3620   22.4482 C   0  0  0  0  0  0  0  0  0  0  0  0
    9.4018  -15.7666   23.0736 C   0  0  1  0  0  0  0  0  0  0  0  0
   10.4366  -16.0816   23.9999 C   0  0  0  0  0  0  0  0  0  0  0  0
   11.6417  -16.2066   23.7723 O   0  0  0  0  0  0  0  0  0  0  0  0
    9.9404  -13.0636   28.5050 C   0  0  0  0  0  0  0  0  0  0  0  0
   10.5518  -13.8355   27.3825 C   0  0  0  0  0  0  0  0  0  0  0  0
   10.5626  -15.2976   27.5601 C   0  0  2  0  0  0  0  0  0  0  0  0
   11.3062  -15.6347   28.8624 C   0  0  0  0  0  0  0  0  0  0  0  0
   11.0063  -16.1656   26.4532 C   0  0  2  0  0  0  0  0  0  0  0  0
   10.0426  -16.2823   25.3793 N   0  0  0  0  0  0  0  0  0  0  0  0
   11.3875  -17.5105   26.9117 C   0  0  0  0  0  0  0  0  0  0  0  0
   12.6538  -17.8321   27.4112 O   0  0  0  0  0  0  0  0  0  0  0  0
   10.5291  -18.4618   26.8596 O   0  0  0  0  0  0  0  0  0  0  0  0
  2  1  1  6
  2  3  1  0
  4  2  1  0
  5  6  1  1
  5  4  1  0
  5  7  1  0
  7  8  2  0
  9  7  1  0
  9 10  1  0
 11 10  1  0
 12 13  1  0
 12 11  1  0
 13  9  1  0
 13 14  1  1
 15 14  2  0
 17 16  1  0
 17 18  1  0
 18 20  1  0
 18 19  1  1
 20 22  1  0
 20 21  1  6
 21 14  1  0
 22 23  1  0
 24 22  2  0
M  END
$$$$
