LPI.pdb
     RDKit          3D

 24 24  0  0  1  0  0  0  0  0999 V2000
   10.7685  -20.5607   19.2427 C   0  0  0  0  0  0  0  0  0  0  0  0
   11.2794  -20.0059   20.5336 C   0  0  2  0  0  0  0  0  0  0  0  0
   11.3086  -21.1260   21.5527 C   0  0  0  0  0  0  0  0  0  0  0  0
   10.4283  -18.9072   21.0909 C   0  0  0  0  0  0  0  0  0  0  0  0
   10.5567  -17.6169   20.2948 C   0  0  2  0  0  0  0  0  0  0  0  0
   11.8251  -17.5339   19.6985 N   0  0  0  0  0  0  0  0  0  0  0  0
   10.0372  -16.4728   21.0466 C   0  0  0  0  0  0  0  0  0  0  0  0
   10.9313  -15.9425   21.8175 O   0  0  0  0  0  0  0  0  0  0  0  0
    8.7736  -15.8932   21.0541 N   0  0  0  0  0  0  0  0  0  0  0  0
    7.9742  -15.6296   19.8217 C   0  0  0  0  0  0  0  0  0  0  0  0
    6.6425  -16.2361   20.2361 C   0  0  0  0  0  0  0  0  0  0  0  0
    6.6542  -16.3050   21.7481 C   0  0  0  0  0  0  0  0  0  0  0  0
    7.8714  -15.3828   22.0467 C   0  0  1  0  0  0  0  0  0  0  0  0
    8.1839  -15.4057   23.4359 C   0  0  0  0  0  0  0  0  0  0  0  0
    8.9857  -16.1394   24.0177 O   0  0  0  0  0  0  0  0  0  0  0  0
    5.9857  -11.0612   26.4577 C   0  0  0  0  0  0  0  0  0  0  0  0
    6.9438  -12.0122   25.8195 C   0  0  0  0  0  0  0  0  0  0  0  0
    6.9736  -13.3617   26.4090 C   0  0  2  0  0  0  0  0  0  0  0  0
    7.4190  -13.2536   27.8761 C   0  0  0  0  0  0  0  0  0  0  0  0
    7.6891  -14.4480   25.7136 C   0  0  2  0  0  0  0  0  0  0  0  0
    7.4843  -14.4595   24.2807 N   0  0  0  0  0  0  0  0  0  0  0  0
    7.3654  -15.7746   26.2609 C   0  0  0  0  0  0  0  0  0  0  0  0
    8.1785  -16.4610   27.1688 O   0  0  0  0  0  0  0  0  0  0  0  0
    6.2823  -16.3590   25.9003 O   0  0  0  0  0  0  0  0  0  0  0  0
  2  1  1  6
  2  3  1  0
  4  2  1  0
  5  6  1  1
  5  4  1  0
  5  7  1  0
  7  8  2  0
  9  7  1  0
  9 10  1  0
 11 10  1  0
 12 13  1  0
 12 11  1  0
 13  9  1  0
 13 14  1  1
 15 14  2  0
 17 16  1  0
 17 18  1  0
 18 20  1  0
 18 19  1  1
 20 22  1  0
 20 21  1  6
 21 14  1  0
 22 23  1  0
 24 22  2  0
M  END
$$$$
