LPI.pdb
     RDKit          3D

 24 24  0  0  1  0  0  0  0  0999 V2000
    9.2074  -13.3371   18.5172 C   0  0  0  0  0  0  0  0  0  0  0  0
    7.7951  -13.7328   18.8070 C   0  0  2  0  0  0  0  0  0  0  0  0
    6.9133  -12.5162   18.6168 C   0  0  0  0  0  0  0  0  0  0  0  0
    7.5880  -14.2296   20.2043 C   0  0  0  0  0  0  0  0  0  0  0  0
    7.8048  -15.7310   20.3215 C   0  0  2  0  0  0  0  0  0  0  0  0
    6.8613  -16.4238   19.5461 N   0  0  0  0  0  0  0  0  0  0  0  0
    8.0280  -16.1304   21.7124 C   0  0  0  0  0  0  0  0  0  0  0  0
    7.1323  -15.6493   22.5132 O   0  0  0  0  0  0  0  0  0  0  0  0
    9.0217  -16.9206   22.2788 N   0  0  0  0  0  0  0  0  0  0  0  0
    9.4348  -18.2488   21.7379 C   0  0  0  0  0  0  0  0  0  0  0  0
   10.9439  -18.0628   21.7055 C   0  0  0  0  0  0  0  0  0  0  0  0
   11.2573  -16.9302   22.6593 C   0  0  0  0  0  0  0  0  0  0  0  0
    9.8987  -16.8325   23.4114 C   0  0  1  0  0  0  0  0  0  0  0  0
    9.8938  -15.7085   24.2859 C   0  0  0  0  0  0  0  0  0  0  0  0
   10.6277  -14.7187   24.2478 O   0  0  0  0  0  0  0  0  0  0  0  0
    6.6171  -11.5607   26.7493 C   0  0  0  0  0  0  0  0  0  0  0  0
    7.7148  -12.5220   27.0667 C   0  0  0  0  0  0  0  0  0  0  0  0
    7.8214  -13.6745   26.1557 C   0  0  2  0  0  0  0  0  0  0  0  0
    6.4484  -14.3584   26.0566 C   0  0  0  0  0  0  0  0  0  0  0  0
    8.8970  -14.6645   26.3514 C   0  0  2  0  0  0  0  0  0  0  0  0
    8.9152  -15.7132   25.3538 N   0  0  0  0  0  0  0  0  0  0  0  0
    8.8663  -15.2701   27.6918 C   0  0  0  0  0  0  0  0  0  0  0  0
    9.4318  -14.6781   28.8260 O   0  0  0  0  0  0  0  0  0  0  0  0
    8.2962  -16.4067   27.8578 O   0  0  0  0  0  0  0  0  0  0  0  0
  2  1  1  1
  2  3  1  0
  4  2  1  0
  5  6  1  1
  5  4  1  0
  5  7  1  0
  7  8  2  0
  9  7  1  0
  9 10  1  0
 11 10  1  0
 12 13  1  0
 12 11  1  0
 13  9  1  0
 13 14  1  6
 15 14  2  0
 17 16  1  0
 17 18  1  0
 18 20  1  0
 18 19  1  1
 20 22  1  0
 20 21  1  6
 21 14  1  0
 22 23  1  0
 24 22  2  0
M  END
$$$$
