LPI.pdb
     RDKit          3D

 24 24  0  0  1  0  0  0  0  0999 V2000
    9.3335  -20.1487   18.7584 C   0  0  0  0  0  0  0  0  0  0  0  0
   10.2463  -20.0381   19.9374 C   0  0  2  0  0  0  0  0  0  0  0  0
   10.0382  -21.2555   20.8140 C   0  0  0  0  0  0  0  0  0  0  0  0
    9.9932  -18.8249   20.7779 C   0  0  0  0  0  0  0  0  0  0  0  0
   10.2478  -17.5320   20.0173 C   0  0  2  0  0  0  0  0  0  0  0  0
   11.5216  -17.5542   19.4270 N   0  0  0  0  0  0  0  0  0  0  0  0
    9.8352  -16.3640   20.7980 C   0  0  0  0  0  0  0  0  0  0  0  0
   10.7962  -15.8933   21.5260 O   0  0  0  0  0  0  0  0  0  0  0  0
    8.6105  -15.7101   20.8701 N   0  0  0  0  0  0  0  0  0  0  0  0
    7.7897  -15.3518   19.6762 C   0  0  0  0  0  0  0  0  0  0  0  0
    6.4372  -15.8925   20.1139 C   0  0  0  0  0  0  0  0  0  0  0  0
    6.4932  -16.0199   21.6211 C   0  0  0  0  0  0  0  0  0  0  0  0
    7.7737  -15.1847   21.9109 C   0  0  1  0  0  0  0  0  0  0  0  0
    8.1287  -15.2796   23.2868 C   0  0  0  0  0  0  0  0  0  0  0  0
    8.6079  -16.2494   23.8781 O   0  0  0  0  0  0  0  0  0  0  0  0
    5.8746  -11.1069   26.3959 C   0  0  0  0  0  0  0  0  0  0  0  0
    6.9743  -11.8656   25.7289 C   0  0  0  0  0  0  0  0  0  0  0  0
    7.2347  -13.2064   26.2805 C   0  0  2  0  0  0  0  0  0  0  0  0
    7.6990  -13.0625   27.7386 C   0  0  0  0  0  0  0  0  0  0  0  0
    8.0933  -14.1484   25.5383 C   0  0  2  0  0  0  0  0  0  0  0  0
    7.9063  -14.1042   24.1036 N   0  0  0  0  0  0  0  0  0  0  0  0
    7.9408  -15.5351   26.0052 C   0  0  0  0  0  0  0  0  0  0  0  0
    6.8899  -16.3743   25.6204 O   0  0  0  0  0  0  0  0  0  0  0  0
    8.8059  -16.0276   26.8136 O   0  0  0  0  0  0  0  0  0  0  0  0
  2  1  1  6
  2  3  1  0
  4  2  1  0
  5  6  1  1
  5  4  1  0
  5  7  1  0
  7  8  2  0
  9  7  1  0
  9 10  1  0
 11 10  1  0
 12 13  1  0
 12 11  1  0
 13  9  1  0
 13 14  1  1
 15 14  2  0
 17 16  1  0
 17 18  1  0
 18 20  1  0
 18 19  1  1
 20 22  1  0
 20 21  1  6
 21 14  1  0
 22 23  1  0
 24 22  2  0
M  END
$$$$
