LPI.pdb
     RDKit          3D

 24 24  0  0  1  0  0  0  0  0999 V2000
    7.3316  -12.3797   26.2147 C   0  0  0  0  0  0  0  0  0  0  0  0
    6.1729  -13.1455   25.6615 C   0  0  2  0  0  0  0  0  0  0  0  0
    4.8965  -12.4778   26.1294 C   0  0  0  0  0  0  0  0  0  0  0  0
    6.1298  -14.5730   26.1117 C   0  0  0  0  0  0  0  0  0  0  0  0
    6.0738  -15.5457   24.9431 C   0  0  2  0  0  0  0  0  0  0  0  0
    5.0417  -16.4787   25.1320 N   0  0  0  0  0  0  0  0  0  0  0  0
    7.4112  -16.0146   24.5751 C   0  0  0  0  0  0  0  0  0  0  0  0
    7.9350  -16.7727   25.4839 O   0  0  0  0  0  0  0  0  0  0  0  0
    8.1728  -15.7755   23.4369 N   0  0  0  0  0  0  0  0  0  0  0  0
    7.5896  -15.5119   22.0886 C   0  0  0  0  0  0  0  0  0  0  0  0
    8.3723  -14.2666   21.7014 C   0  0  0  0  0  0  0  0  0  0  0  0
    9.6106  -14.2502   22.5715 C   0  0  0  0  0  0  0  0  0  0  0  0
    9.5704  -15.7064   23.1185 C   0  0  1  0  0  0  0  0  0  0  0  0
   10.5808  -15.8956   24.1041 C   0  0  0  0  0  0  0  0  0  0  0  0
   11.7846  -16.0911   23.9239 O   0  0  0  0  0  0  0  0  0  0  0  0
   10.2463  -12.6519   28.5619 C   0  0  0  0  0  0  0  0  0  0  0  0
   10.6889  -13.4790   27.4001 C   0  0  0  0  0  0  0  0  0  0  0  0
   10.7937  -14.9244   27.6635 C   0  0  2  0  0  0  0  0  0  0  0  0
   11.7153  -15.1435   28.8739 C   0  0  0  0  0  0  0  0  0  0  0  0
   11.1319  -15.8458   26.5625 C   0  0  2  0  0  0  0  0  0  0  0  0
   10.1602  -15.8567   25.4897 N   0  0  0  0  0  0  0  0  0  0  0  0
   11.3539  -17.2228   27.0303 C   0  0  0  0  0  0  0  0  0  0  0  0
   10.4712  -18.2797   26.7844 O   0  0  0  0  0  0  0  0  0  0  0  0
   12.4085  -17.4973   27.7063 O   0  0  0  0  0  0  0  0  0  0  0  0
  2  1  1  1
  2  3  1  0
  4  2  1  0
  5  6  1  1
  5  4  1  0
  5  7  1  0
  7  8  2  0
  9  7  1  0
  9 10  1  0
 11 10  1  0
 12 13  1  0
 12 11  1  0
 13  9  1  0
 13 14  1  1
 15 14  2  0
 17 16  1  0
 17 18  1  0
 18 20  1  0
 18 19  1  1
 20 22  1  0
 20 21  1  6
 21 14  1  0
 22 23  1  0
 24 22  2  0
M  END
$$$$
