LPI.pdb
     RDKit          3D

 24 24  0  0  1  0  0  0  0  0999 V2000
    5.8610  -21.4275   24.2790 C   0  0  0  0  0  0  0  0  0  0  0  0
    6.9153  -20.4044   24.5564 C   0  0  2  0  0  0  0  0  0  0  0  0
    6.9355  -20.1362   26.0468 C   0  0  0  0  0  0  0  0  0  0  0  0
    6.6782  -19.0984   23.8633 C   0  0  0  0  0  0  0  0  0  0  0  0
    7.4633  -18.9826   22.5651 C   0  0  2  0  0  0  0  0  0  0  0  0
    8.0607  -20.2119   22.2432 N   0  0  0  0  0  0  0  0  0  0  0  0
    8.2687  -17.7601   22.5363 C   0  0  0  0  0  0  0  0  0  0  0  0
    9.3281  -17.8503   23.2743 O   0  0  0  0  0  0  0  0  0  0  0  0
    8.0717  -16.5623   21.8589 N   0  0  0  0  0  0  0  0  0  0  0  0
    7.4004  -16.4613   20.5297 C   0  0  0  0  0  0  0  0  0  0  0  0
    6.4070  -15.3468   20.8196 C   0  0  0  0  0  0  0  0  0  0  0  0
    6.9306  -14.6102   22.0338 C   0  0  0  0  0  0  0  0  0  0  0  0
    8.3782  -15.1787   22.0856 C   0  0  1  0  0  0  0  0  0  0  0  0
    9.0450  -14.7350   23.2632 C   0  0  0  0  0  0  0  0  0  0  0  0
   10.1243  -14.1449   23.3431 O   0  0  0  0  0  0  0  0  0  0  0  0
    6.3667  -11.4480   27.3132 C   0  0  0  0  0  0  0  0  0  0  0  0
    7.5595  -12.3246   27.1172 C   0  0  0  0  0  0  0  0  0  0  0  0
    7.4735  -13.2544   25.9780 C   0  0  2  0  0  0  0  0  0  0  0  0
    6.1589  -14.0444   26.0793 C   0  0  0  0  0  0  0  0  0  0  0  0
    8.6087  -14.1457   25.6741 C   0  0  2  0  0  0  0  0  0  0  0  0
    8.3896  -15.0013   24.5272 N   0  0  0  0  0  0  0  0  0  0  0  0
    8.9999  -14.9708   26.8275 C   0  0  0  0  0  0  0  0  0  0  0  0
    9.7101  -14.4814   27.9287 O   0  0  0  0  0  0  0  0  0  0  0  0
    8.6861  -16.2140   26.8496 O   0  0  0  0  0  0  0  0  0  0  0  0
  2  1  1  1
  2  3  1  0
  4  2  1  0
  5  6  1  1
  5  4  1  0
  5  7  1  0
  7  8  2  0
  9  7  1  0
  9 10  1  0
 11 10  1  0
 12 13  1  0
 12 11  1  0
 13  9  1  0
 13 14  1  1
 15 14  2  0
 17 16  1  0
 17 18  1  0
 18 20  1  0
 18 19  1  1
 20 22  1  0
 20 21  1  6
 21 14  1  0
 22 23  1  0
 24 22  2  0
M  END
$$$$
