LPI.pdb
     RDKit          3D

 24 24  0  0  1  0  0  0  0  0999 V2000
    9.3599  -20.0633   18.7014 C   0  0  0  0  0  0  0  0  0  0  0  0
   10.0928  -20.0390   20.0043 C   0  0  2  0  0  0  0  0  0  0  0  0
    9.6670  -21.2484   20.8105 C   0  0  0  0  0  0  0  0  0  0  0  0
    9.8082  -18.8213   20.8279 C   0  0  0  0  0  0  0  0  0  0  0  0
   10.2158  -17.5374   20.1205 C   0  0  2  0  0  0  0  0  0  0  0  0
   11.5330  -17.6378   19.6447 N   0  0  0  0  0  0  0  0  0  0  0  0
    9.8139  -16.3560   20.8865 C   0  0  0  0  0  0  0  0  0  0  0  0
   10.7087  -16.0019   21.7519 O   0  0  0  0  0  0  0  0  0  0  0  0
    8.6575  -15.5869   20.8237 N   0  0  0  0  0  0  0  0  0  0  0  0
    8.0126  -15.1607   19.5471 C   0  0  0  0  0  0  0  0  0  0  0  0
    6.5742  -15.5655   19.8299 C   0  0  0  0  0  0  0  0  0  0  0  0
    6.4500  -15.6860   21.3336 C   0  0  0  0  0  0  0  0  0  0  0  0
    7.7648  -14.9755   21.7666 C   0  0  1  0  0  0  0  0  0  0  0  0
    7.9541  -15.0934   23.1731 C   0  0  0  0  0  0  0  0  0  0  0  0
    8.2216  -16.1103   23.8167 O   0  0  0  0  0  0  0  0  0  0  0  0
    6.6568  -11.3960   28.0662 C   0  0  0  0  0  0  0  0  0  0  0  0
    7.2376  -12.6600   27.5233 C   0  0  0  0  0  0  0  0  0  0  0  0
    7.1925  -12.7912   26.0569 C   0  0  2  0  0  0  0  0  0  0  0  0
    5.7309  -12.6864   25.5931 C   0  0  0  0  0  0  0  0  0  0  0  0
    7.8797  -13.9202   25.4021 C   0  0  2  0  0  0  0  0  0  0  0  0
    7.8195  -13.8823   23.9563 N   0  0  0  0  0  0  0  0  0  0  0  0
    7.3916  -15.2252   25.8742 C   0  0  0  0  0  0  0  0  0  0  0  0
    6.5126  -16.0359   25.1484 O   0  0  0  0  0  0  0  0  0  0  0  0
    7.7771  -15.6683   27.0142 O   0  0  0  0  0  0  0  0  0  0  0  0
  2  1  1  6
  2  3  1  0
  4  2  1  0
  5  6  1  1
  5  4  1  0
  5  7  1  0
  7  8  2  0
  9  7  1  0
  9 10  1  0
 11 10  1  0
 12 13  1  0
 12 11  1  0
 13  9  1  0
 13 14  1  1
 15 14  2  0
 17 16  1  0
 17 18  1  0
 18 20  1  0
 18 19  1  1
 20 22  1  0
 20 21  1  6
 21 14  1  0
 22 23  1  0
 24 22  2  0
M  END
$$$$
