LPI.pdb
     RDKit          3D

 24 24  0  0  1  0  0  0  0  0999 V2000
    5.1810  -12.4003   26.8454 C   0  0  0  0  0  0  0  0  0  0  0  0
    6.2697  -13.3716   26.5191 C   0  0  2  0  0  0  0  0  0  0  0  0
    7.5960  -12.7367   26.8817 C   0  0  0  0  0  0  0  0  0  0  0  0
    6.3252  -13.7428   25.0695 C   0  0  0  0  0  0  0  0  0  0  0  0
    6.0132  -15.2138   24.8375 C   0  0  2  0  0  0  0  0  0  0  0  0
    5.3565  -15.7566   25.9536 N   0  0  0  0  0  0  0  0  0  0  0  0
    7.1613  -15.9182   24.2633 C   0  0  0  0  0  0  0  0  0  0  0  0
    7.5293  -16.9292   24.9826 O   0  0  0  0  0  0  0  0  0  0  0  0
    7.8868  -15.6716   23.1034 N   0  0  0  0  0  0  0  0  0  0  0  0
    7.2719  -15.2234   21.8195 C   0  0  0  0  0  0  0  0  0  0  0  0
    8.1806  -14.0501   21.4870 C   0  0  0  0  0  0  0  0  0  0  0  0
    9.4547  -14.2565   22.2775 C   0  0  0  0  0  0  0  0  0  0  0  0
    9.2641  -15.7401   22.7060 C   0  0  1  0  0  0  0  0  0  0  0  0
   10.2929  -16.1333   23.6088 C   0  0  0  0  0  0  0  0  0  0  0  0
   11.4514  -16.4573   23.3390 O   0  0  0  0  0  0  0  0  0  0  0  0
   10.8005  -13.6156   29.1593 C   0  0  0  0  0  0  0  0  0  0  0  0
   11.3065  -14.6847   28.2478 C   0  0  0  0  0  0  0  0  0  0  0  0
   10.5577  -14.8413   26.9891 C   0  0  2  0  0  0  0  0  0  0  0  0
    9.0566  -14.9201   27.3102 C   0  0  0  0  0  0  0  0  0  0  0  0
   10.9528  -15.8885   26.0285 C   0  0  2  0  0  0  0  0  0  0  0  0
    9.9540  -16.1610   25.0169 N   0  0  0  0  0  0  0  0  0  0  0  0
   11.3280  -17.1469   26.6917 C   0  0  0  0  0  0  0  0  0  0  0  0
   12.4775  -17.3015   27.4735 O   0  0  0  0  0  0  0  0  0  0  0  0
   10.5765  -18.1778   26.5605 O   0  0  0  0  0  0  0  0  0  0  0  0
  2  1  1  6
  2  3  1  0
  4  2  1  0
  5  6  1  1
  5  4  1  0
  5  7  1  0
  7  8  2  0
  9  7  1  0
  9 10  1  0
 11 10  1  0
 12 13  1  0
 12 11  1  0
 13  9  1  0
 13 14  1  1
 15 14  2  0
 17 16  1  0
 17 18  1  0
 18 20  1  0
 18 19  1  1
 20 22  1  0
 20 21  1  6
 21 14  1  0
 22 23  1  0
 24 22  2  0
M  END
$$$$
