HMH.pdb
     RDKit          3D

 29 30  0  0  1  0  0  0  0  0999 V2000
    7.5497  -16.8181   20.5101 N   0  0  0  0  0  0  0  0  0  0  0  0
    8.9434  -16.5427   20.6540 C   0  0  1  0  0  0  0  0  0  0  0  0
    9.4829  -15.7203   19.5300 C   0  0  0  0  0  0  0  0  0  0  0  0
    8.6141  -14.6284   19.0967 C   0  0  0  0  0  0  0  0  0  0  0  0
    8.0093  -14.5176   17.8685 C   0  0  0  0  0  0  0  0  0  0  0  0
    7.2979  -13.3734   17.8712 N   0  0  0  0  0  0  0  0  0  0  0  0
    7.4470  -12.7784   19.0622 C   0  0  0  0  0  0  0  0  0  0  0  0
    8.2561  -13.5571   19.8049 N   0  0  0  0  0  0  0  0  0  0  0  0
    9.2709  -15.8552   21.9257 C   0  0  0  0  0  0  0  0  0  0  0  0
   10.4489  -15.4749   22.1485 O   0  0  0  0  0  0  0  0  0  0  0  0
    6.9083  -11.7516   28.2634 C   0  0  0  0  0  0  0  0  0  0  0  0
    6.5344  -12.6192   26.7394 S   0  0  0  0  0  0  0  0  0  0  0  0
    7.9350  -13.5989   26.1345 C   0  0  0  0  0  0  0  0  0  0  0  0
    7.5277  -14.2055   24.8092 C   0  0  0  0  0  0  0  0  0  0  0  0
    8.6913  -15.0033   24.2048 C   0  0  2  0  0  0  0  0  0  0  0  0
    8.3113  -15.5880   22.9437 N   0  0  0  0  0  0  0  0  0  0  0  0
    9.0399  -16.0323   25.2165 C   0  0  0  0  0  0  0  0  0  0  0  0
    8.1750  -16.8506   25.6196 O   0  0  0  0  0  0  0  0  0  0  0  0
   10.3425  -16.1537   25.7792 N   0  0  0  0  0  0  0  0  0  0  0  0
   10.6371  -17.1479   26.8024 C   0  0  1  0  0  0  0  0  0  0  0  0
   12.0502  -17.6390   26.7201 C   0  0  0  0  0  0  0  0  0  0  0  0
   12.3152  -18.4819   25.5401 C   0  0  0  0  0  0  0  0  0  0  0  0
   11.3180  -18.9048   24.6851 C   0  0  0  0  0  0  0  0  0  0  0  0
   11.8784  -19.6548   23.7095 N   0  0  0  0  0  0  0  0  0  0  0  0
   13.2086  -19.7092   23.9381 C   0  0  0  0  0  0  0  0  0  0  0  0
   13.4469  -18.9966   25.0440 N   0  0  0  0  0  0  0  0  0  0  0  0
   10.3125  -16.5219   28.1097 C   0  0  0  0  0  0  0  0  0  0  0  0
   10.2996  -17.2186   29.3092 O   0  0  0  0  0  0  0  0  0  0  0  0
   10.0318  -15.2971   28.1536 O   0  0  0  0  0  0  0  0  0  0  0  0
  2  9  1  0
  2  1  1  6
  3  2  1  0
  4  3  1  0
  4  8  1  0
  5  6  1  0
  5  4  2  0
  6  7  1  0
  7  8  2  0
  9 10  2  0
 12 13  1  0
 12 11  1  0
 13 14  1  0
 15 14  1  1
 16 15  1  0
 16  9  1  0
 17 18  2  0
 17 15  1  0
 19 17  1  0
 20 27  1  0
 20 19  1  0
 20 21  1  1
 22 26  1  0
 22 21  1  0
 23 22  2  0
 24 23  1  0
 24 25  1  0
 25 26  2  0
 27 28  1  0
 29 27  2  0
M  END
$$$$
