HMH.pdb
     RDKit          3D

 29 30  0  0  1  0  0  0  0  0999 V2000
    7.8211  -16.0811   20.2332 N   0  0  0  0  0  0  0  0  0  0  0  0
    9.1136  -15.5123   20.4453 C   0  0  1  0  0  0  0  0  0  0  0  0
    9.3197  -14.2543   19.6671 C   0  0  0  0  0  0  0  0  0  0  0  0
    8.7663  -14.2717   18.3150 C   0  0  0  0  0  0  0  0  0  0  0  0
    7.7554  -13.4684   17.8467 C   0  0  0  0  0  0  0  0  0  0  0  0
    7.5438  -13.7970   16.5574 N   0  0  0  0  0  0  0  0  0  0  0  0
    8.3929  -14.7766   16.2194 C   0  0  0  0  0  0  0  0  0  0  0  0
    9.1372  -15.0591   17.3052 N   0  0  0  0  0  0  0  0  0  0  0  0
    9.3930  -15.2220   21.8719 C   0  0  0  0  0  0  0  0  0  0  0  0
   10.4909  -14.7063   22.2042 O   0  0  0  0  0  0  0  0  0  0  0  0
    7.1851  -11.5727   28.1280 C   0  0  0  0  0  0  0  0  0  0  0  0
    6.7016  -12.5400   26.6977 S   0  0  0  0  0  0  0  0  0  0  0  0
    7.9417  -13.7835   26.2467 C   0  0  0  0  0  0  0  0  0  0  0  0
    7.5827  -14.3072   24.8730 C   0  0  0  0  0  0  0  0  0  0  0  0
    8.7481  -15.1153   24.2861 C   0  0  2  0  0  0  0  0  0  0  0  0
    8.4729  -15.4962   22.9238 N   0  0  0  0  0  0  0  0  0  0  0  0
    8.9071  -16.2932   25.1755 C   0  0  0  0  0  0  0  0  0  0  0  0
    7.9379  -17.0629   25.3956 O   0  0  0  0  0  0  0  0  0  0  0  0
   10.1359  -16.6167   25.8185 N   0  0  0  0  0  0  0  0  0  0  0  0
   10.2674  -17.8066   26.6485 C   0  0  1  0  0  0  0  0  0  0  0  0
   11.6423  -18.3971   26.5724 C   0  0  0  0  0  0  0  0  0  0  0  0
   12.0673  -18.7304   25.2007 C   0  0  0  0  0  0  0  0  0  0  0  0
   11.1748  -18.8919   24.1606 C   0  0  0  0  0  0  0  0  0  0  0  0
   11.8708  -19.1896   23.0402 N   0  0  0  0  0  0  0  0  0  0  0  0
   13.1828  -19.2175   23.3598 C   0  0  0  0  0  0  0  0  0  0  0  0
   13.2758  -18.9384   24.6640 N   0  0  0  0  0  0  0  0  0  0  0  0
    9.8787  -17.4097   28.0260 C   0  0  0  0  0  0  0  0  0  0  0  0
    9.5534  -16.1097   28.3845 O   0  0  0  0  0  0  0  0  0  0  0  0
    9.8360  -18.2827   28.9299 O   0  0  0  0  0  0  0  0  0  0  0  0
  2  9  1  0
  2  1  1  1
  3  2  1  0
  4  3  1  0
  4  8  1  0
  5  6  1  0
  5  4  2  0
  6  7  1  0
  7  8  2  0
  9 10  2  0
 12 13  1  0
 12 11  1  0
 13 14  1  0
 15 14  1  1
 16 15  1  0
 16  9  1  0
 17 18  2  0
 17 15  1  0
 19 17  1  0
 20 27  1  0
 20 19  1  0
 20 21  1  1
 22 26  1  0
 22 21  1  0
 23 22  2  0
 24 23  1  0
 24 25  1  0
 25 26  2  0
 27 28  1  0
 29 27  2  0
M  END
$$$$
