HMH.pdb
     RDKit          3D

 29 30  0  0  1  0  0  0  0  0999 V2000
    9.0707  -16.3470   19.1360 N   0  0  0  0  0  0  0  0  0  0  0  0
    8.1514  -16.5906   20.2012 C   0  0  1  0  0  0  0  0  0  0  0  0
    7.8174  -18.0389   20.3485 C   0  0  0  0  0  0  0  0  0  0  0  0
    7.1647  -18.6392   19.1873 C   0  0  0  0  0  0  0  0  0  0  0  0
    6.2123  -18.0413   18.3986 C   0  0  0  0  0  0  0  0  0  0  0  0
    5.8702  -18.9244   17.4403 N   0  0  0  0  0  0  0  0  0  0  0  0
    6.5825  -20.0454   17.6158 C   0  0  0  0  0  0  0  0  0  0  0  0
    7.3725  -19.8585   18.6899 N   0  0  0  0  0  0  0  0  0  0  0  0
    8.6363  -16.0946   21.5112 C   0  0  0  0  0  0  0  0  0  0  0  0
    9.8028  -16.3685   21.8934 O   0  0  0  0  0  0  0  0  0  0  0  0
    7.3710  -11.3317   27.7663 C   0  0  0  0  0  0  0  0  0  0  0  0
    6.7445  -12.1782   26.3150 S   0  0  0  0  0  0  0  0  0  0  0  0
    7.9300  -13.3723   25.6396 C   0  0  0  0  0  0  0  0  0  0  0  0
    7.3653  -13.8848   24.3324 C   0  0  0  0  0  0  0  0  0  0  0  0
    8.3598  -14.8385   23.6562 C   0  0  2  0  0  0  0  0  0  0  0  0
    7.8455  -15.3041   22.3932 N   0  0  0  0  0  0  0  0  0  0  0  0
    8.5683  -15.9489   24.6194 C   0  0  0  0  0  0  0  0  0  0  0  0
    7.6528  -16.7806   24.8434 O   0  0  0  0  0  0  0  0  0  0  0  0
    9.7872  -16.1364   25.3315 N   0  0  0  0  0  0  0  0  0  0  0  0
   10.0576  -17.3679   26.0612 C   0  0  1  0  0  0  0  0  0  0  0  0
   11.1834  -18.1473   25.4530 C   0  0  0  0  0  0  0  0  0  0  0  0
   11.5811  -19.3261   26.2440 C   0  0  0  0  0  0  0  0  0  0  0  0
   10.8553  -20.4997   26.2522 C   0  0  0  0  0  0  0  0  0  0  0  0
   11.4755  -21.3823   27.0675 N   0  0  0  0  0  0  0  0  0  0  0  0
   12.5765  -20.7825   27.5700 C   0  0  0  0  0  0  0  0  0  0  0  0
   12.6186  -19.5472   27.0605 N   0  0  0  0  0  0  0  0  0  0  0  0
   10.3128  -16.9792   27.4719 C   0  0  0  0  0  0  0  0  0  0  0  0
   10.0988  -17.8262   28.5494 O   0  0  0  0  0  0  0  0  0  0  0  0
   10.7458  -15.8262   27.7246 O   0  0  0  0  0  0  0  0  0  0  0  0
  2  9  1  0
  2  1  1  6
  3  2  1  0
  4  3  1  0
  4  8  1  0
  5  6  1  0
  5  4  2  0
  6  7  1  0
  7  8  2  0
  9 10  2  0
 12 13  1  0
 12 11  1  0
 13 14  1  0
 15 14  1  1
 16 15  1  0
 16  9  1  0
 17 18  2  0
 17 15  1  0
 19 17  1  0
 20 27  1  0
 20 19  1  0
 20 21  1  6
 22 26  1  0
 22 21  1  0
 23 22  2  0
 24 23  1  0
 24 25  1  0
 25 26  2  0
 27 28  1  0
 29 27  2  0
M  END
$$$$
