HMH.pdb
     RDKit          3D

 29 30  0  0  1  0  0  0  0  0999 V2000
   11.2275  -13.8479   19.8737 N   0  0  0  0  0  0  0  0  0  0  0  0
    9.8936  -14.0742   20.3304 C   0  0  1  0  0  0  0  0  0  0  0  0
    9.2168  -15.1826   19.5928 C   0  0  0  0  0  0  0  0  0  0  0  0
    8.5959  -14.7897   18.3299 C   0  0  0  0  0  0  0  0  0  0  0  0
    8.5910  -13.5257   17.7922 C   0  0  0  0  0  0  0  0  0  0  0  0
    7.9182  -13.5862   16.6265 N   0  0  0  0  0  0  0  0  0  0  0  0
    7.5100  -14.8472   16.4316 C   0  0  0  0  0  0  0  0  0  0  0  0
    7.9315  -15.5757   17.4825 N   0  0  0  0  0  0  0  0  0  0  0  0
    9.8196  -14.3738   21.7803 C   0  0  0  0  0  0  0  0  0  0  0  0
   10.8595  -14.7008   22.4076 O   0  0  0  0  0  0  0  0  0  0  0  0
    6.7121  -11.2725   27.7346 C   0  0  0  0  0  0  0  0  0  0  0  0
    6.1004  -12.5170   26.5977 S   0  0  0  0  0  0  0  0  0  0  0  0
    7.3989  -13.6575   26.0496 C   0  0  0  0  0  0  0  0  0  0  0  0
    7.3296  -13.7345   24.5397 C   0  0  0  0  0  0  0  0  0  0  0  0
    8.6195  -14.3448   23.9745 C   0  0  2  0  0  0  0  0  0  0  0  0
    8.6125  -14.3141   22.5338 N   0  0  0  0  0  0  0  0  0  0  0  0
    8.6731  -15.7305   24.5046 C   0  0  0  0  0  0  0  0  0  0  0  0
    7.6171  -16.3912   24.6734 O   0  0  0  0  0  0  0  0  0  0  0  0
    9.8929  -16.3813   24.8464 N   0  0  0  0  0  0  0  0  0  0  0  0
    9.9008  -17.6570   25.5495 C   0  0  1  0  0  0  0  0  0  0  0  0
   11.2528  -18.3024   25.5301 C   0  0  0  0  0  0  0  0  0  0  0  0
   11.7008  -18.6951   24.1816 C   0  0  0  0  0  0  0  0  0  0  0  0
   10.9140  -18.5405   23.0585 C   0  0  0  0  0  0  0  0  0  0  0  0
   11.6036  -18.9905   21.9860 N   0  0  0  0  0  0  0  0  0  0  0  0
   12.8081  -19.4240   22.4171 C   0  0  0  0  0  0  0  0  0  0  0  0
   12.8430  -19.2362   23.7405 N   0  0  0  0  0  0  0  0  0  0  0  0
    9.4023  -17.3890   26.9229 C   0  0  0  0  0  0  0  0  0  0  0  0
    8.7290  -18.3288   27.6893 O   0  0  0  0  0  0  0  0  0  0  0  0
    9.5902  -16.2568   27.4365 O   0  0  0  0  0  0  0  0  0  0  0  0
  2  9  1  0
  2  1  1  6
  3  2  1  0
  4  3  1  0
  4  8  1  0
  5  6  1  0
  5  4  2  0
  6  7  1  0
  7  8  2  0
  9 10  2  0
 12 13  1  0
 12 11  1  0
 13 14  1  0
 15 14  1  1
 16 15  1  0
 16  9  1  0
 17 18  2  0
 17 15  1  0
 19 17  1  0
 20 27  1  0
 20 19  1  0
 20 21  1  1
 22 26  1  0
 22 21  1  0
 23 22  2  0
 24 23  1  0
 24 25  1  0
 25 26  2  0
 27 28  1  0
 29 27  2  0
M  END
$$$$
