HMH.pdb
     RDKit          3D

 29 30  0  0  1  0  0  0  0  0999 V2000
    9.4005  -15.7791   19.9311 N   0  0  0  0  0  0  0  0  0  0  0  0
    8.5021  -16.2974   20.9126 C   0  0  1  0  0  0  0  0  0  0  0  0
    8.3491  -17.7803   20.8217 C   0  0  0  0  0  0  0  0  0  0  0  0
    7.7564  -18.2606   19.5755 C   0  0  0  0  0  0  0  0  0  0  0  0
    6.5645  -17.8430   19.0355 C   0  0  0  0  0  0  0  0  0  0  0  0
    6.3801  -18.5261   17.8890 N   0  0  0  0  0  0  0  0  0  0  0  0
    7.4210  -19.3498   17.7081 C   0  0  0  0  0  0  0  0  0  0  0  0
    8.2582  -19.1781   18.7486 N   0  0  0  0  0  0  0  0  0  0  0  0
    8.9008  -15.9601   22.2999 C   0  0  0  0  0  0  0  0  0  0  0  0
   10.1156  -15.9755   22.6253 O   0  0  0  0  0  0  0  0  0  0  0  0
    6.7969  -10.5946   26.2845 C   0  0  0  0  0  0  0  0  0  0  0  0
    7.0166  -12.3427   26.6180 S   0  0  0  0  0  0  0  0  0  0  0  0
    7.0405  -13.3423   25.1056 C   0  0  0  0  0  0  0  0  0  0  0  0
    7.2602  -14.7826   25.5152 C   0  0  0  0  0  0  0  0  0  0  0  0
    8.3889  -15.4096   24.6854 C   0  0  2  0  0  0  0  0  0  0  0  0
    7.9717  -15.6088   23.3205 N   0  0  0  0  0  0  0  0  0  0  0  0
    8.7205  -16.6888   25.3618 C   0  0  0  0  0  0  0  0  0  0  0  0
    7.8664  -17.6073   25.4456 O   0  0  0  0  0  0  0  0  0  0  0  0
    9.9944  -16.9489   25.9430 N   0  0  0  0  0  0  0  0  0  0  0  0
   10.2935  -18.2274   26.5739 C   0  0  1  0  0  0  0  0  0  0  0  0
   11.6608  -18.7252   26.2171 C   0  0  0  0  0  0  0  0  0  0  0  0
   11.8600  -18.9192   24.7694 C   0  0  0  0  0  0  0  0  0  0  0  0
   10.9612  -19.6033   23.9767 C   0  0  0  0  0  0  0  0  0  0  0  0
   11.4250  -19.6070   22.7066 N   0  0  0  0  0  0  0  0  0  0  0  0
   12.5979  -18.9375   22.6896 C   0  0  0  0  0  0  0  0  0  0  0  0
   12.8385  -18.5336   23.9413 N   0  0  0  0  0  0  0  0  0  0  0  0
   10.1057  -18.0352   28.0348 C   0  0  0  0  0  0  0  0  0  0  0  0
   10.2504  -19.0539   28.9652 O   0  0  0  0  0  0  0  0  0  0  0  0
    9.7991  -16.8970   28.4721 O   0  0  0  0  0  0  0  0  0  0  0  0
  2  9  1  0
  2  1  1  6
  3  2  1  0
  4  3  1  0
  4  8  1  0
  5  6  1  0
  5  4  2  0
  6  7  1  0
  7  8  2  0
  9 10  2  0
 12 13  1  0
 12 11  1  0
 13 14  1  0
 15 14  1  1
 16 15  1  0
 16  9  1  0
 17 18  2  0
 17 15  1  0
 19 17  1  0
 20 27  1  0
 20 19  1  0
 20 21  1  1
 22 26  1  0
 22 21  1  0
 23 22  2  0
 24 23  1  0
 24 25  1  0
 25 26  2  0
 27 28  1  0
 29 27  2  0
M  END
$$$$
