HMH.pdb
     RDKit          3D

 29 30  0  0  1  0  0  0  0  0999 V2000
   10.3943  -16.6435   19.6257 N   0  0  0  0  0  0  0  0  0  0  0  0
    9.2641  -16.7287   20.4943 C   0  0  1  0  0  0  0  0  0  0  0  0
    8.7441  -18.1230   20.6214 C   0  0  0  0  0  0  0  0  0  0  0  0
    8.2589  -18.7127   19.3758 C   0  0  0  0  0  0  0  0  0  0  0  0
    7.5393  -18.0635   18.4025 C   0  0  0  0  0  0  0  0  0  0  0  0
    7.2896  -18.9549   17.4236 N   0  0  0  0  0  0  0  0  0  0  0  0
    7.8330  -20.1308   17.7653 C   0  0  0  0  0  0  0  0  0  0  0  0
    8.4245  -19.9698   18.9641 N   0  0  0  0  0  0  0  0  0  0  0  0
    9.5394  -16.2142   21.8570 C   0  0  0  0  0  0  0  0  0  0  0  0
   10.6591  -16.4203   22.3915 O   0  0  0  0  0  0  0  0  0  0  0  0
    7.0622  -11.7797   28.0079 C   0  0  0  0  0  0  0  0  0  0  0  0
    6.7812  -12.4798   26.3813 S   0  0  0  0  0  0  0  0  0  0  0  0
    8.1005  -13.6158   25.8749 C   0  0  0  0  0  0  0  0  0  0  0  0
    7.8003  -14.0605   24.4598 C   0  0  0  0  0  0  0  0  0  0  0  0
    8.9019  -14.9984   23.9477 C   0  0  2  0  0  0  0  0  0  0  0  0
    8.5917  -15.4792   22.6252 N   0  0  0  0  0  0  0  0  0  0  0  0
    8.9830  -16.1004   24.9393 C   0  0  0  0  0  0  0  0  0  0  0  0
    7.9940  -16.8483   25.1454 O   0  0  0  0  0  0  0  0  0  0  0  0
   10.1563  -16.3721   25.6994 N   0  0  0  0  0  0  0  0  0  0  0  0
   10.2266  -17.5112   26.6047 C   0  0  1  0  0  0  0  0  0  0  0  0
   11.5544  -18.2020   26.5386 C   0  0  0  0  0  0  0  0  0  0  0  0
   11.7436  -19.0030   25.3156 C   0  0  0  0  0  0  0  0  0  0  0  0
   10.7593  -19.1509   24.3598 C   0  0  0  0  0  0  0  0  0  0  0  0
   11.2379  -19.9365   23.3687 N   0  0  0  0  0  0  0  0  0  0  0  0
   12.5040  -20.2832   23.6866 C   0  0  0  0  0  0  0  0  0  0  0  0
   12.7856  -19.7100   24.8613 N   0  0  0  0  0  0  0  0  0  0  0  0
    9.9033  -16.9977   27.9605 C   0  0  0  0  0  0  0  0  0  0  0  0
    9.7006  -17.8177   29.0608 O   0  0  0  0  0  0  0  0  0  0  0  0
    9.8035  -15.7575   28.1420 O   0  0  0  0  0  0  0  0  0  0  0  0
  2  9  1  0
  2  1  1  6
  3  2  1  0
  4  3  1  0
  4  8  1  0
  5  6  1  0
  5  4  2  0
  6  7  1  0
  7  8  2  0
  9 10  2  0
 12 13  1  0
 12 11  1  0
 13 14  1  0
 15 14  1  1
 16 15  1  0
 16  9  1  0
 17 18  2  0
 17 15  1  0
 19 17  1  0
 20 27  1  0
 20 19  1  0
 20 21  1  1
 22 26  1  0
 22 21  1  0
 23 22  2  0
 24 23  1  0
 24 25  1  0
 25 26  2  0
 27 28  1  0
 29 27  2  0
M  END
$$$$
