HMH.pdb
     RDKit          3D

 29 30  0  0  1  0  0  0  0  0999 V2000
    7.7456  -15.7684   19.8425 N   0  0  0  0  0  0  0  0  0  0  0  0
    9.0548  -15.2358   20.0456 C   0  0  1  0  0  0  0  0  0  0  0  0
    9.3244  -14.0396   19.1928 C   0  0  0  0  0  0  0  0  0  0  0  0
    8.7862  -14.1191   17.8367 C   0  0  0  0  0  0  0  0  0  0  0  0
    7.7586  -13.3609   17.3309 C   0  0  0  0  0  0  0  0  0  0  0  0
    7.5702  -13.7396   16.0518 N   0  0  0  0  0  0  0  0  0  0  0  0
    8.4495  -14.7061   15.7564 C   0  0  0  0  0  0  0  0  0  0  0  0
    9.1896  -14.9301   16.8586 N   0  0  0  0  0  0  0  0  0  0  0  0
    9.3178  -14.8640   21.4562 C   0  0  0  0  0  0  0  0  0  0  0  0
   10.4512  -14.4339   21.7912 O   0  0  0  0  0  0  0  0  0  0  0  0
    6.8429  -11.6194   28.0692 C   0  0  0  0  0  0  0  0  0  0  0  0
    6.4308  -12.4780   26.5500 S   0  0  0  0  0  0  0  0  0  0  0  0
    7.8042  -13.4823   25.9233 C   0  0  0  0  0  0  0  0  0  0  0  0
    7.4566  -13.8979   24.5102 C   0  0  0  0  0  0  0  0  0  0  0  0
    8.6475  -14.6082   23.8522 C   0  0  2  0  0  0  0  0  0  0  0  0
    8.3427  -14.9641   22.4895 N   0  0  0  0  0  0  0  0  0  0  0  0
    8.9187  -15.8000   24.6948 C   0  0  0  0  0  0  0  0  0  0  0  0
    8.0030  -16.6213   24.9535 O   0  0  0  0  0  0  0  0  0  0  0  0
   10.2005  -16.0803   25.2486 N   0  0  0  0  0  0  0  0  0  0  0  0
   10.5052  -17.3774   25.8374 C   0  0  1  0  0  0  0  0  0  0  0  0
   11.9278  -17.7833   25.6003 C   0  0  0  0  0  0  0  0  0  0  0  0
   12.2844  -19.0745   26.2160 C   0  0  0  0  0  0  0  0  0  0  0  0
   11.3642  -20.0810   26.4268 C   0  0  0  0  0  0  0  0  0  0  0  0
   11.9974  -21.1279   27.0025 N   0  0  0  0  0  0  0  0  0  0  0  0
   13.2975  -20.7951   27.1561 C   0  0  0  0  0  0  0  0  0  0  0  0
   13.4456  -19.5561   26.6759 N   0  0  0  0  0  0  0  0  0  0  0  0
   10.1584  -17.2824   27.2786 C   0  0  0  0  0  0  0  0  0  0  0  0
    9.8427  -18.3817   28.0635 O   0  0  0  0  0  0  0  0  0  0  0  0
   10.1445  -16.1554   27.8360 O   0  0  0  0  0  0  0  0  0  0  0  0
  2  9  1  0
  2  1  1  1
  3  2  1  0
  4  3  1  0
  4  8  1  0
  5  6  1  0
  5  4  2  0
  6  7  1  0
  7  8  2  0
  9 10  2  0
 12 13  1  0
 12 11  1  0
 13 14  1  0
 15 14  1  1
 16 15  1  0
 16  9  1  0
 17 18  2  0
 17 15  1  0
 19 17  1  0
 20 27  1  0
 20 19  1  0
 20 21  1  1
 22 26  1  0
 22 21  1  0
 23 22  2  0
 24 23  1  0
 24 25  1  0
 25 26  2  0
 27 28  1  0
 29 27  2  0
M  END
$$$$
