HMH.pdb
     RDKit          3D

 29 30  0  0  1  0  0  0  0  0999 V2000
   10.3167  -18.1144   16.2513 N   0  0  0  0  0  0  0  0  0  0  0  0
    9.5680  -18.3568   17.4428 C   0  0  1  0  0  0  0  0  0  0  0  0
    9.5052  -19.8072   17.7937 C   0  0  0  0  0  0  0  0  0  0  0  0
    8.6779  -20.6185   16.9036 C   0  0  0  0  0  0  0  0  0  0  0  0
    9.1348  -21.4256   15.8905 C   0  0  0  0  0  0  0  0  0  0  0  0
    8.0593  -21.9964   15.3138 N   0  0  0  0  0  0  0  0  0  0  0  0
    6.9567  -21.5652   15.9408 C   0  0  0  0  0  0  0  0  0  0  0  0
    7.3488  -20.7209   16.9136 N   0  0  0  0  0  0  0  0  0  0  0  0
   10.0931  -17.6214   18.6178 C   0  0  0  0  0  0  0  0  0  0  0  0
   11.3339  -17.5505   18.8109 O   0  0  0  0  0  0  0  0  0  0  0  0
    6.8866  -11.5505   19.8285 C   0  0  0  0  0  0  0  0  0  0  0  0
    7.2394  -12.9663   20.8707 S   0  0  0  0  0  0  0  0  0  0  0  0
    8.5023  -14.0562   20.1604 C   0  0  0  0  0  0  0  0  0  0  0  0
    8.7559  -15.1681   21.1552 C   0  0  0  0  0  0  0  0  0  0  0  0
    9.8128  -16.1407   20.6140 C   0  0  2  0  0  0  0  0  0  0  0  0
    9.2609  -16.9694   19.5722 N   0  0  0  0  0  0  0  0  0  0  0  0
   10.2613  -16.9368   21.7840 C   0  0  0  0  0  0  0  0  0  0  0  0
    9.6458  -17.9797   22.1210 O   0  0  0  0  0  0  0  0  0  0  0  0
   11.3882  -16.5780   22.5776 N   0  0  0  0  0  0  0  0  0  0  0  0
   11.8704  -17.4436   23.6454 C   0  0  1  0  0  0  0  0  0  0  0  0
   13.3300  -17.2429   23.9172 C   0  0  0  0  0  0  0  0  0  0  0  0
   14.2050  -17.7268   22.8339 C   0  0  0  0  0  0  0  0  0  0  0  0
   13.7835  -18.6320   21.8813 C   0  0  0  0  0  0  0  0  0  0  0  0
   14.8093  -18.8722   21.0338 N   0  0  0  0  0  0  0  0  0  0  0  0
   15.8655  -18.1338   21.4384 C   0  0  0  0  0  0  0  0  0  0  0  0
   15.4778  -17.4537   22.5222 N   0  0  0  0  0  0  0  0  0  0  0  0
   11.0145  -17.1758   24.8295 C   0  0  0  0  0  0  0  0  0  0  0  0
   11.1273  -17.8669   26.0269 O   0  0  0  0  0  0  0  0  0  0  0  0
   10.1352  -16.2795   24.7640 O   0  0  0  0  0  0  0  0  0  0  0  0
  2  9  1  0
  2  1  1  6
  3  2  1  0
  4  3  1  0
  4  8  1  0
  5  6  1  0
  5  4  2  0
  6  7  1  0
  7  8  2  0
  9 10  2  0
 12 13  1  0
 12 11  1  0
 13 14  1  0
 15 14  1  1
 16 15  1  0
 16  9  1  0
 17 18  2  0
 17 15  1  0
 19 17  1  0
 20 27  1  0
 20 19  1  0
 20 21  1  1
 22 26  1  0
 22 21  1  0
 23 22  2  0
 24 23  1  0
 24 25  1  0
 25 26  2  0
 27 28  1  0
 29 27  2  0
M  END
$$$$
