HMH.pdb
     RDKit          3D

 29 30  0  0  1  0  0  0  0  0999 V2000
    7.8348  -16.3434   20.1835 N   0  0  0  0  0  0  0  0  0  0  0  0
    7.1015  -16.6732   21.3635 C   0  0  1  0  0  0  0  0  0  0  0  0
    6.8167  -18.1355   21.4700 C   0  0  0  0  0  0  0  0  0  0  0  0
    6.0151  -18.6854   20.3792 C   0  0  0  0  0  0  0  0  0  0  0  0
    4.8821  -18.1207   19.8465 C   0  0  0  0  0  0  0  0  0  0  0  0
    4.4479  -18.9362   18.8659 N   0  0  0  0  0  0  0  0  0  0  0  0
    5.2786  -19.9837   18.7799 C   0  0  0  0  0  0  0  0  0  0  0  0
    6.2354  -19.8188   19.7127 N   0  0  0  0  0  0  0  0  0  0  0  0
    7.7824  -16.2451   22.6087 C   0  0  0  0  0  0  0  0  0  0  0  0
    9.0297  -16.3665   22.7156 O   0  0  0  0  0  0  0  0  0  0  0  0
    7.3058  -12.0311   27.8172 C   0  0  0  0  0  0  0  0  0  0  0  0
    7.4620  -11.7815   26.0484 S   0  0  0  0  0  0  0  0  0  0  0  0
    6.6786  -13.1040   25.0868 C   0  0  0  0  0  0  0  0  0  0  0  0
    6.9383  -14.4078   25.8099 C   0  0  0  0  0  0  0  0  0  0  0  0
    7.7918  -15.3417   24.9409 C   0  0  2  0  0  0  0  0  0  0  0  0
    7.0978  -15.6882   23.7265 N   0  0  0  0  0  0  0  0  0  0  0  0
    8.0708  -16.5308   25.7850 C   0  0  0  0  0  0  0  0  0  0  0  0
    7.1337  -17.1401   26.3600 O   0  0  0  0  0  0  0  0  0  0  0  0
    9.3838  -17.0424   25.9908 N   0  0  0  0  0  0  0  0  0  0  0  0
    9.6266  -18.1757   26.8731 C   0  0  1  0  0  0  0  0  0  0  0  0
   10.5967  -19.1523   26.2815 C   0  0  0  0  0  0  0  0  0  0  0  0
   10.1035  -19.8066   25.0560 C   0  0  0  0  0  0  0  0  0  0  0  0
    8.7967  -19.6989   24.6259 C   0  0  0  0  0  0  0  0  0  0  0  0
    8.6618  -20.4061   23.4814 N   0  0  0  0  0  0  0  0  0  0  0  0
    9.8604  -20.9547   23.1869 C   0  0  0  0  0  0  0  0  0  0  0  0
   10.7111  -20.5801   24.1480 N   0  0  0  0  0  0  0  0  0  0  0  0
   10.0821  -17.6148   28.1709 C   0  0  0  0  0  0  0  0  0  0  0  0
   10.3872  -16.2749   28.3602 O   0  0  0  0  0  0  0  0  0  0  0  0
   10.2043  -18.3776   29.1629 O   0  0  0  0  0  0  0  0  0  0  0  0
  2  9  1  0
  2  1  1  6
  3  2  1  0
  4  3  1  0
  4  8  1  0
  5  6  1  0
  5  4  2  0
  6  7  1  0
  7  8  2  0
  9 10  2  0
 12 13  1  0
 12 11  1  0
 13 14  1  0
 15 14  1  1
 16 15  1  0
 16  9  1  0
 17 18  2  0
 17 15  1  0
 19 17  1  0
 20 27  1  0
 20 19  1  0
 20 21  1  6
 22 26  1  0
 22 21  1  0
 23 22  2  0
 24 23  1  0
 24 25  1  0
 25 26  2  0
 27 28  1  0
 29 27  2  0
M  END
$$$$
