HMH.pdb
     RDKit          3D

 29 30  0  0  1  0  0  0  0  0999 V2000
    9.4106  -15.3147   19.6463 N   0  0  0  0  0  0  0  0  0  0  0  0
    8.5422  -16.0008   20.5485 C   0  0  1  0  0  0  0  0  0  0  0  0
    8.4132  -17.4533   20.2252 C   0  0  0  0  0  0  0  0  0  0  0  0
    7.9210  -17.7409   18.8799 C   0  0  0  0  0  0  0  0  0  0  0  0
    8.6821  -18.1525   17.8132 C   0  0  0  0  0  0  0  0  0  0  0  0
    7.8534  -18.3067   16.7623 N   0  0  0  0  0  0  0  0  0  0  0  0
    6.6076  -18.0029   17.1501 C   0  0  0  0  0  0  0  0  0  0  0  0
    6.6617  -17.6575   18.4503 N   0  0  0  0  0  0  0  0  0  0  0  0
    8.9638  -15.8803   21.9645 C   0  0  0  0  0  0  0  0  0  0  0  0
   10.1641  -16.0820   22.2814 O   0  0  0  0  0  0  0  0  0  0  0  0
    6.4216  -10.8656   26.4488 C   0  0  0  0  0  0  0  0  0  0  0  0
    6.3017  -12.6493   26.3111 S   0  0  0  0  0  0  0  0  0  0  0  0
    7.5598  -13.3487   25.2085 C   0  0  0  0  0  0  0  0  0  0  0  0
    7.4514  -14.8559   25.2920 C   0  0  0  0  0  0  0  0  0  0  0  0
    8.5068  -15.5195   24.3969 C   0  0  2  0  0  0  0  0  0  0  0  0
    8.0733  -15.5406   23.0228 N   0  0  0  0  0  0  0  0  0  0  0  0
    8.6955  -16.8861   24.9454 C   0  0  0  0  0  0  0  0  0  0  0  0
    8.3609  -17.8954   24.2751 O   0  0  0  0  0  0  0  0  0  0  0  0
    9.2533  -17.1327   26.2324 N   0  0  0  0  0  0  0  0  0  0  0  0
   10.3710  -18.0496   26.4116 C   0  0  1  0  0  0  0  0  0  0  0  0
   11.5439  -17.6820   25.5548 C   0  0  0  0  0  0  0  0  0  0  0  0
   11.6671  -18.5042   24.3374 C   0  0  0  0  0  0  0  0  0  0  0  0
   10.7553  -19.4843   24.0024 C   0  0  0  0  0  0  0  0  0  0  0  0
   11.1443  -20.0529   22.8389 N   0  0  0  0  0  0  0  0  0  0  0  0
   12.2831  -19.4465   22.4392 C   0  0  0  0  0  0  0  0  0  0  0  0
   12.5776  -18.5191   23.3562 N   0  0  0  0  0  0  0  0  0  0  0  0
   10.6880  -18.0555   27.8627 C   0  0  0  0  0  0  0  0  0  0  0  0
   11.3569  -19.0931   28.4953 O   0  0  0  0  0  0  0  0  0  0  0  0
   10.3406  -17.0781   28.5732 O   0  0  0  0  0  0  0  0  0  0  0  0
  2  9  1  0
  2  1  1  6
  3  2  1  0
  4  3  1  0
  4  8  1  0
  5  6  1  0
  5  4  2  0
  6  7  1  0
  7  8  2  0
  9 10  2  0
 12 13  1  0
 12 11  1  0
 13 14  1  0
 15 14  1  1
 16 15  1  0
 16  9  1  0
 17 18  2  0
 17 15  1  0
 19 17  1  0
 20 27  1  0
 20 19  1  0
 20 21  1  6
 22 26  1  0
 22 21  1  0
 23 22  2  0
 24 23  1  0
 24 25  1  0
 25 26  2  0
 27 28  1  0
 29 27  2  0
M  END
$$$$
