HMH.pdb
     RDKit          3D

 29 30  0  0  1  0  0  0  0  0999 V2000
    9.8456  -16.2146   19.6611 N   0  0  0  0  0  0  0  0  0  0  0  0
    8.7376  -16.3299   20.5545 C   0  0  1  0  0  0  0  0  0  0  0  0
    8.2230  -17.7287   20.6500 C   0  0  0  0  0  0  0  0  0  0  0  0
    7.3507  -18.1378   19.5515 C   0  0  0  0  0  0  0  0  0  0  0  0
    6.9507  -17.3476   18.5017 C   0  0  0  0  0  0  0  0  0  0  0  0
    6.1570  -18.0972   17.7124 N   0  0  0  0  0  0  0  0  0  0  0  0
    6.0570  -19.3226   18.2444 C   0  0  0  0  0  0  0  0  0  0  0  0
    6.7931  -19.3354   19.3717 N   0  0  0  0  0  0  0  0  0  0  0  0
    9.0461  -15.8584   21.9255 C   0  0  0  0  0  0  0  0  0  0  0  0
   10.2222  -15.9324   22.3650 O   0  0  0  0  0  0  0  0  0  0  0  0
    6.6496  -11.0616   26.8927 C   0  0  0  0  0  0  0  0  0  0  0  0
    6.2243  -12.8035   26.8866 S   0  0  0  0  0  0  0  0  0  0  0  0
    7.5658  -13.8455   26.2524 C   0  0  0  0  0  0  0  0  0  0  0  0
    7.2181  -14.2182   24.8274 C   0  0  0  0  0  0  0  0  0  0  0  0
    8.3969  -14.9387   24.1590 C   0  0  2  0  0  0  0  0  0  0  0  0
    8.0698  -15.3102   22.8057 N   0  0  0  0  0  0  0  0  0  0  0  0
    8.6794  -16.1210   25.0113 C   0  0  0  0  0  0  0  0  0  0  0  0
    7.7829  -16.9714   25.2416 O   0  0  0  0  0  0  0  0  0  0  0  0
    9.9512  -16.3595   25.6062 N   0  0  0  0  0  0  0  0  0  0  0  0
   10.1830  -17.5142   26.4635 C   0  0  1  0  0  0  0  0  0  0  0  0
   11.5306  -18.1265   26.2314 C   0  0  0  0  0  0  0  0  0  0  0  0
   11.6090  -18.9334   25.0001 C   0  0  0  0  0  0  0  0  0  0  0  0
   10.5132  -19.1822   24.1990 C   0  0  0  0  0  0  0  0  0  0  0  0
   10.9090  -19.9450   23.1551 N   0  0  0  0  0  0  0  0  0  0  0  0
   12.2328  -20.1783   23.2879 C   0  0  0  0  0  0  0  0  0  0  0  0
   12.6310  -19.5600   24.4045 N   0  0  0  0  0  0  0  0  0  0  0  0
    9.9851  -17.0528   27.8614 C   0  0  0  0  0  0  0  0  0  0  0  0
   10.1336  -15.7323   28.2594 O   0  0  0  0  0  0  0  0  0  0  0  0
    9.6658  -17.8871   28.7462 O   0  0  0  0  0  0  0  0  0  0  0  0
  2  9  1  0
  2  1  1  6
  3  2  1  0
  4  3  1  0
  4  8  1  0
  5  6  1  0
  5  4  2  0
  6  7  1  0
  7  8  2  0
  9 10  2  0
 12 13  1  0
 12 11  1  0
 13 14  1  0
 15 14  1  1
 16 15  1  0
 16  9  1  0
 17 18  2  0
 17 15  1  0
 19 17  1  0
 20 27  1  0
 20 19  1  0
 20 21  1  1
 22 26  1  0
 22 21  1  0
 23 22  2  0
 24 23  1  0
 24 25  1  0
 25 26  2  0
 27 28  1  0
 29 27  2  0
M  END
$$$$
