HMH.pdb
     RDKit          3D

 29 30  0  0  1  0  0  0  0  0999 V2000
    9.2387  -15.8729   19.5978 N   0  0  0  0  0  0  0  0  0  0  0  0
    8.5459  -16.4949   20.6805 C   0  0  1  0  0  0  0  0  0  0  0  0
    8.6913  -17.9814   20.6739 C   0  0  0  0  0  0  0  0  0  0  0  0
    8.1160  -18.6490   19.5086 C   0  0  0  0  0  0  0  0  0  0  0  0
    8.8200  -19.2552   18.4969 C   0  0  0  0  0  0  0  0  0  0  0  0
    7.9230  -19.7474   17.6204 N   0  0  0  0  0  0  0  0  0  0  0  0
    6.6907  -19.4624   18.0619 C   0  0  0  0  0  0  0  0  0  0  0  0
    6.8219  -18.7888   19.2203 N   0  0  0  0  0  0  0  0  0  0  0  0
    8.9769  -15.9962   22.0082 C   0  0  0  0  0  0  0  0  0  0  0  0
   10.2019  -15.8766   22.2665 O   0  0  0  0  0  0  0  0  0  0  0  0
    6.7678  -11.4667   27.2001 C   0  0  0  0  0  0  0  0  0  0  0  0
    6.5045  -13.2370   27.3098 S   0  0  0  0  0  0  0  0  0  0  0  0
    7.8313  -14.1884   26.5212 C   0  0  0  0  0  0  0  0  0  0  0  0
    7.3932  -14.4932   25.1051 C   0  0  0  0  0  0  0  0  0  0  0  0
    8.5322  -15.1627   24.3240 C   0  0  2  0  0  0  0  0  0  0  0  0
    8.0685  -15.6319   23.0429 N   0  0  0  0  0  0  0  0  0  0  0  0
    9.0116  -16.2720   25.1864 C   0  0  0  0  0  0  0  0  0  0  0  0
    8.2345  -17.2007   25.5235 O   0  0  0  0  0  0  0  0  0  0  0  0
   10.3476  -16.3513   25.6733 N   0  0  0  0  0  0  0  0  0  0  0  0
   10.7467  -17.3749   26.6299 C   0  0  1  0  0  0  0  0  0  0  0  0
   12.1879  -17.7556   26.4788 C   0  0  0  0  0  0  0  0  0  0  0  0
   12.4601  -18.5776   25.2857 C   0  0  0  0  0  0  0  0  0  0  0  0
   11.4626  -19.0261   24.4442 C   0  0  0  0  0  0  0  0  0  0  0  0
   12.0306  -19.7471   23.4513 N   0  0  0  0  0  0  0  0  0  0  0  0
   13.3656  -19.7583   23.6558 C   0  0  0  0  0  0  0  0  0  0  0  0
   13.5995  -19.0486   24.7645 N   0  0  0  0  0  0  0  0  0  0  0  0
   10.4217  -16.8460   27.9793 C   0  0  0  0  0  0  0  0  0  0  0  0
   10.3912  -17.6318   29.1220 O   0  0  0  0  0  0  0  0  0  0  0  0
   10.1572  -15.6243   28.1149 O   0  0  0  0  0  0  0  0  0  0  0  0
  2  9  1  0
  2  1  1  6
  3  2  1  0
  4  3  1  0
  4  8  1  0
  5  6  1  0
  5  4  2  0
  6  7  1  0
  7  8  2  0
  9 10  2  0
 12 13  1  0
 12 11  1  0
 13 14  1  0
 15 14  1  1
 16 15  1  0
 16  9  1  0
 17 18  2  0
 17 15  1  0
 19 17  1  0
 20 27  1  0
 20 19  1  0
 20 21  1  1
 22 26  1  0
 22 21  1  0
 23 22  2  0
 24 23  1  0
 24 25  1  0
 25 26  2  0
 27 28  1  0
 29 27  2  0
M  END
$$$$
