HMH.pdb
     RDKit          3D

 29 30  0  0  1  0  0  0  0  0999 V2000
   10.2628  -16.3195   19.7720 N   0  0  0  0  0  0  0  0  0  0  0  0
    8.9932  -16.1252   20.3960 C   0  0  1  0  0  0  0  0  0  0  0  0
    8.1083  -17.3225   20.2773 C   0  0  0  0  0  0  0  0  0  0  0  0
    7.6990  -17.6501   18.9135 C   0  0  0  0  0  0  0  0  0  0  0  0
    8.1578  -17.0486   17.7670 C   0  0  0  0  0  0  0  0  0  0  0  0
    7.5361  -17.6369   16.7266 N   0  0  0  0  0  0  0  0  0  0  0  0
    6.7101  -18.5804   17.1981 C   0  0  0  0  0  0  0  0  0  0  0  0
    6.8187  -18.5790   18.5401 N   0  0  0  0  0  0  0  0  0  0  0  0
    9.1001  -15.7725   21.8318 C   0  0  0  0  0  0  0  0  0  0  0  0
   10.0263  -16.2583   22.5303 O   0  0  0  0  0  0  0  0  0  0  0  0
    6.6104  -11.1662   27.8323 C   0  0  0  0  0  0  0  0  0  0  0  0
    6.4137  -11.7624   26.1526 S   0  0  0  0  0  0  0  0  0  0  0  0
    7.4927  -13.1719   25.7834 C   0  0  0  0  0  0  0  0  0  0  0  0
    7.3508  -13.4798   24.3084 C   0  0  0  0  0  0  0  0  0  0  0  0
    8.3334  -14.5838   23.8945 C   0  0  2  0  0  0  0  0  0  0  0  0
    8.1964  -14.8930   22.4937 N   0  0  0  0  0  0  0  0  0  0  0  0
    8.0149  -15.7483   24.7586 C   0  0  0  0  0  0  0  0  0  0  0  0
    7.0591  -16.5131   24.4732 O   0  0  0  0  0  0  0  0  0  0  0  0
    8.7535  -16.0637   25.9347 N   0  0  0  0  0  0  0  0  0  0  0  0
    9.3187  -17.3901   26.1424 C   0  0  1  0  0  0  0  0  0  0  0  0
   10.1648  -17.8292   24.9864 C   0  0  0  0  0  0  0  0  0  0  0  0
   10.7624  -19.1649   25.1652 C   0  0  0  0  0  0  0  0  0  0  0  0
   10.4991  -19.9604   26.2616 C   0  0  0  0  0  0  0  0  0  0  0  0
   11.1925  -21.1140   26.1314 N   0  0  0  0  0  0  0  0  0  0  0  0
   11.8851  -21.0552   24.9733 C   0  0  0  0  0  0  0  0  0  0  0  0
   11.6105  -19.8740   24.4103 N   0  0  0  0  0  0  0  0  0  0  0  0
   10.0658  -17.3382   27.4252 C   0  0  0  0  0  0  0  0  0  0  0  0
   10.0233  -18.3467   28.3766 O   0  0  0  0  0  0  0  0  0  0  0  0
   10.7803  -16.3359   27.6819 O   0  0  0  0  0  0  0  0  0  0  0  0
  2  9  1  0
  2  1  1  1
  3  2  1  0
  4  3  1  0
  4  8  1  0
  5  6  1  0
  5  4  2  0
  6  7  1  0
  7  8  2  0
  9 10  2  0
 12 13  1  0
 12 11  1  0
 13 14  1  0
 15 14  1  1
 16 15  1  0
 16  9  1  0
 17 18  2  0
 17 15  1  0
 19 17  1  0
 20 27  1  0
 20 19  1  0
 20 21  1  6
 22 26  1  0
 22 21  1  0
 23 22  2  0
 24 23  1  0
 24 25  1  0
 25 26  2  0
 27 28  1  0
 29 27  2  0
M  END
$$$$
