HMH.pdb
     RDKit          3D

 29 30  0  0  1  0  0  0  0  0999 V2000
    9.4639  -16.0103   19.0866 N   0  0  0  0  0  0  0  0  0  0  0  0
    8.4503  -16.2284   20.0685 C   0  0  1  0  0  0  0  0  0  0  0  0
    8.0332  -17.6601   20.1516 C   0  0  0  0  0  0  0  0  0  0  0  0
    7.2461  -18.1367   19.0166 C   0  0  0  0  0  0  0  0  0  0  0  0
    6.9140  -17.4063   17.9018 C   0  0  0  0  0  0  0  0  0  0  0  0
    6.1867  -18.2062   17.0978 N   0  0  0  0  0  0  0  0  0  0  0  0
    6.0618  -19.4044   17.6838 C   0  0  0  0  0  0  0  0  0  0  0  0
    6.7155  -19.3496   18.8596 N   0  0  0  0  0  0  0  0  0  0  0  0
    8.8520  -15.7867   21.4253 C   0  0  0  0  0  0  0  0  0  0  0  0
   10.0494  -15.8991   21.7933 O   0  0  0  0  0  0  0  0  0  0  0  0
    6.0393  -11.5832   26.8532 C   0  0  0  0  0  0  0  0  0  0  0  0
    7.5869  -12.1446   26.1426 S   0  0  0  0  0  0  0  0  0  0  0  0
    7.6339  -13.9418   25.9078 C   0  0  0  0  0  0  0  0  0  0  0  0
    7.2111  -14.2261   24.4828 C   0  0  0  0  0  0  0  0  0  0  0  0
    8.3685  -14.8560   23.6959 C   0  0  2  0  0  0  0  0  0  0  0  0
    7.9448  -15.2259   22.3692 N   0  0  0  0  0  0  0  0  0  0  0  0
    8.8023  -16.0310   24.4930 C   0  0  0  0  0  0  0  0  0  0  0  0
    8.1311  -17.0937   24.4816 O   0  0  0  0  0  0  0  0  0  0  0  0
    9.9760  -16.0278   25.2997 N   0  0  0  0  0  0  0  0  0  0  0  0
   10.4307  -17.2318   25.9819 C   0  0  1  0  0  0  0  0  0  0  0  0
   11.9168  -17.4012   25.8949 C   0  0  0  0  0  0  0  0  0  0  0  0
   12.4381  -18.4898   26.7415 C   0  0  0  0  0  0  0  0  0  0  0  0
   12.2014  -18.5589   28.0992 C   0  0  0  0  0  0  0  0  0  0  0  0
   12.8080  -19.6654   28.5850 N   0  0  0  0  0  0  0  0  0  0  0  0
   13.4203  -20.2904   27.5560 C   0  0  0  0  0  0  0  0  0  0  0  0
   13.1837  -19.5648   26.4582 N   0  0  0  0  0  0  0  0  0  0  0  0
    9.9349  -17.1421   27.3792 C   0  0  0  0  0  0  0  0  0  0  0  0
    9.7672  -18.2449   28.2038 O   0  0  0  0  0  0  0  0  0  0  0  0
    9.6462  -16.0165   27.8594 O   0  0  0  0  0  0  0  0  0  0  0  0
  2  9  1  0
  2  1  1  6
  3  2  1  0
  4  3  1  0
  4  8  1  0
  5  6  1  0
  5  4  2  0
  6  7  1  0
  7  8  2  0
  9 10  2  0
 12 13  1  0
 12 11  1  0
 13 14  1  0
 15 14  1  1
 16 15  1  0
 16  9  1  0
 17 18  2  0
 17 15  1  0
 19 17  1  0
 20 27  1  0
 20 19  1  0
 20 21  1  1
 22 26  1  0
 22 21  1  0
 23 22  2  0
 24 23  1  0
 24 25  1  0
 25 26  2  0
 27 28  1  0
 29 27  2  0
M  END
$$$$
