WYP.pdb
     RDKit          3D

 34 37  0  0  1  0  0  0  0  0999 V2000
    6.4580  -20.3572   21.2796 N   0  0  0  0  0  0  0  0  0  0  0  0
    6.4616  -20.0828   22.6956 C   0  0  1  0  0  0  0  0  0  0  0  0
    7.1462  -21.2129   23.4310 C   0  0  0  0  0  0  0  0  0  0  0  0
    6.7359  -21.1773   24.8552 C   0  0  0  0  0  0  0  0  0  0  0  0
    5.5044  -21.4992   25.4024 C   0  0  0  0  0  0  0  0  0  0  0  0
    5.5584  -21.3292   26.7343 N   0  0  0  0  0  0  0  0  0  0  0  0
    6.7763  -20.9061   27.1035 C   0  0  0  0  0  0  0  0  0  0  0  0
    7.3197  -20.5947   28.3355 C   0  0  0  0  0  0  0  0  0  0  0  0
    8.6352  -20.1790   28.3764 C   0  0  0  0  0  0  0  0  0  0  0  0
    9.3800  -20.0803   27.2097 C   0  0  0  0  0  0  0  0  0  0  0  0
    8.8372  -20.3896   25.9948 C   0  0  0  0  0  0  0  0  0  0  0  0
    7.5184  -20.8082   25.9377 C   0  0  0  0  0  0  0  0  0  0  0  0
    7.1024  -18.7767   22.9999 C   0  0  0  0  0  0  0  0  0  0  0  0
    8.1953  -18.4379   22.4808 O   0  0  0  0  0  0  0  0  0  0  0  0
    8.0746  -10.6227   26.2705 O   0  0  0  0  0  0  0  0  0  0  0  0
    7.5856  -11.8932   25.9877 C   0  0  0  0  0  0  0  0  0  0  0  0
    7.6342  -12.9027   26.9274 C   0  0  0  0  0  0  0  0  0  0  0  0
    7.1417  -14.1808   26.6414 C   0  0  0  0  0  0  0  0  0  0  0  0
    6.6011  -14.4496   25.4168 C   0  0  0  0  0  0  0  0  0  0  0  0
    6.0628  -15.7831   25.0516 C   0  0  0  0  0  0  0  0  0  0  0  0
    7.0840  -16.5674   24.2203 C   0  0  2  0  0  0  0  0  0  0  0  0
    6.4910  -17.8712   23.8922 N   0  0  0  0  0  0  0  0  0  0  0  0
    8.2669  -16.7653   25.0960 C   0  0  0  0  0  0  0  0  0  0  0  0
    8.0960  -17.5279   26.1087 O   0  0  0  0  0  0  0  0  0  0  0  0
    6.5525  -13.4448   24.4807 C   0  0  0  0  0  0  0  0  0  0  0  0
    7.0435  -12.1638   24.7604 C   0  0  0  0  0  0  0  0  0  0  0  0
    9.5253  -16.1968   24.9030 N   0  0  0  0  0  0  0  0  0  0  0  0
    9.9600  -15.0163   24.1560 C   0  0  0  0  0  0  0  0  0  0  0  0
   11.3891  -15.2986   23.7407 C   0  0  0  0  0  0  0  0  0  0  0  0
   11.6388  -16.7002   24.2342 C   0  0  0  0  0  0  0  0  0  0  0  0
   10.7662  -16.7537   25.4675 C   0  0  1  0  0  0  0  0  0  0  0  0
   11.1990  -15.8489   26.5402 C   0  0  0  0  0  0  0  0  0  0  0  0
   10.5615  -14.6779   26.9186 O   0  0  0  0  0  0  0  0  0  0  0  0
   12.2497  -16.1582   27.1852 O   0  0  0  0  0  0  0  0  0  0  0  0
  2  1  1  6
  3  2  1  0
  4  5  2  0
  4  3  1  0
  6  5  1  0
  7 12  2  0
  7  6  1  0
  8  7  1  0
  9 10  1  0
  9  8  2  0
 10 11  2  0
 11 12  1  0
 12  4  1  0
 13 14  2  0
 13  2  1  0
 16 17  2  0
 16 15  1  0
 18 17  1  0
 19 18  2  0
 20 19  1  0
 21 20  1  1
 21 22  1  0
 22 13  1  0
 23 24  2  0
 23 21  1  0
 25 19  1  0
 25 26  2  0
 26 16  1  0
 27 23  1  0
 28 29  1  0
 28 27  1  0
 30 31  1  0
 30 29  1  0
 31 27  1  0
 31 32  1  1
 32 33  1  0
 34 32  2  0
M  END
$$$$
