WYP.pdb
     RDKit          3D

 34 37  0  0  1  0  0  0  0  0999 V2000
   11.3378  -16.6645   20.6804 N   0  0  0  0  0  0  0  0  0  0  0  0
   11.8025  -15.3225   20.9331 C   0  0  1  0  0  0  0  0  0  0  0  0
   11.7189  -14.5075   19.6622 C   0  0  0  0  0  0  0  0  0  0  0  0
   12.5245  -15.1735   18.6108 C   0  0  0  0  0  0  0  0  0  0  0  0
   12.0787  -15.8550   17.4900 C   0  0  0  0  0  0  0  0  0  0  0  0
   13.1400  -16.3043   16.7989 N   0  0  0  0  0  0  0  0  0  0  0  0
   14.2804  -15.9519   17.4104 C   0  0  0  0  0  0  0  0  0  0  0  0
   15.6092  -16.1718   17.1005 C   0  0  0  0  0  0  0  0  0  0  0  0
   16.5659  -15.6647   17.9563 C   0  0  0  0  0  0  0  0  0  0  0  0
   16.1935  -14.9572   19.0905 C   0  0  0  0  0  0  0  0  0  0  0  0
   14.8783  -14.7431   19.3915 C   0  0  0  0  0  0  0  0  0  0  0  0
   13.9067  -15.2458   18.5423 C   0  0  0  0  0  0  0  0  0  0  0  0
   11.0437  -14.6777   22.0366 C   0  0  0  0  0  0  0  0  0  0  0  0
   11.1815  -13.4597   22.3121 O   0  0  0  0  0  0  0  0  0  0  0  0
    4.8973  -12.0841   27.5182 O   0  0  0  0  0  0  0  0  0  0  0  0
    5.6428  -12.7782   26.5717 C   0  0  0  0  0  0  0  0  0  0  0  0
    6.3360  -12.1132   25.5808 C   0  0  0  0  0  0  0  0  0  0  0  0
    7.0858  -12.8130   24.6290 C   0  0  0  0  0  0  0  0  0  0  0  0
    7.1425  -14.1766   24.6677 C   0  0  0  0  0  0  0  0  0  0  0  0
    7.9184  -14.9763   23.6880 C   0  0  0  0  0  0  0  0  0  0  0  0
    9.4214  -14.8540   23.9622 C   0  0  2  0  0  0  0  0  0  0  0  0
   10.1365  -15.4279   22.8139 N   0  0  0  0  0  0  0  0  0  0  0  0
    9.6894  -15.6703   25.1734 C   0  0  0  0  0  0  0  0  0  0  0  0
   10.0236  -16.8881   24.9688 O   0  0  0  0  0  0  0  0  0  0  0  0
    6.4524  -14.8393   25.6540 C   0  0  0  0  0  0  0  0  0  0  0  0
    5.7003  -14.1452   26.6094 C   0  0  0  0  0  0  0  0  0  0  0  0
    9.6083  -15.2208   26.4907 N   0  0  0  0  0  0  0  0  0  0  0  0
    8.8972  -14.0950   27.0969 C   0  0  0  0  0  0  0  0  0  0  0  0
    9.7043  -13.7126   28.3204 C   0  0  0  0  0  0  0  0  0  0  0  0
   10.8964  -14.6329   28.2692 C   0  0  0  0  0  0  0  0  0  0  0  0
   10.3093  -15.8630   27.6154 C   0  0  1  0  0  0  0  0  0  0  0  0
    9.2925  -16.5401   28.4305 C   0  0  0  0  0  0  0  0  0  0  0  0
    7.9694  -16.7426   28.0711 O   0  0  0  0  0  0  0  0  0  0  0  0
    9.6471  -16.9838   29.5676 O   0  0  0  0  0  0  0  0  0  0  0  0
  2  1  1  6
  3  2  1  0
  4  5  2  0
  4  3  1  0
  6  5  1  0
  7 12  2  0
  7  6  1  0
  8  7  1  0
  9 10  1  0
  9  8  2  0
 10 11  2  0
 11 12  1  0
 12  4  1  0
 13 14  2  0
 13  2  1  0
 16 17  2  0
 16 15  1  0
 18 17  1  0
 19 18  2  0
 20 19  1  0
 21 20  1  6
 21 22  1  0
 22 13  1  0
 23 24  2  0
 23 21  1  0
 25 19  1  0
 25 26  2  0
 26 16  1  0
 27 23  1  0
 28 29  1  0
 28 27  1  0
 30 31  1  0
 30 29  1  0
 31 27  1  0
 31 32  1  1
 32 33  1  0
 34 32  2  0
M  END
$$$$
