WYP.pdb
     RDKit          3D

 34 37  0  0  1  0  0  0  0  0999 V2000
    7.6386  -17.7616   20.9472 N   0  0  0  0  0  0  0  0  0  0  0  0
    7.3360  -16.5198   21.6158 C   0  0  1  0  0  0  0  0  0  0  0  0
    6.1410  -15.8665   20.9589 C   0  0  0  0  0  0  0  0  0  0  0  0
    6.6099  -15.0457   19.8167 C   0  0  0  0  0  0  0  0  0  0  0  0
    6.5093  -15.3213   18.4627 C   0  0  0  0  0  0  0  0  0  0  0  0
    7.0622  -14.3129   17.7676 N   0  0  0  0  0  0  0  0  0  0  0  0
    7.5300  -13.3713   18.6003 C   0  0  0  0  0  0  0  0  0  0  0  0
    8.1704  -12.1669   18.3779 C   0  0  0  0  0  0  0  0  0  0  0  0
    8.5308  -11.4130   19.4763 C   0  0  0  0  0  0  0  0  0  0  0  0
    8.2537  -11.8604   20.7604 C   0  0  0  0  0  0  0  0  0  0  0  0
    7.6204  -13.0519   20.9737 C   0  0  0  0  0  0  0  0  0  0  0  0
    7.2525  -13.8196   19.8814 C   0  0  0  0  0  0  0  0  0  0  0  0
    7.1070  -16.7213   23.0705 C   0  0  0  0  0  0  0  0  0  0  0  0
    5.9709  -16.9979   23.5303 O   0  0  0  0  0  0  0  0  0  0  0  0
    8.1873  -20.6708   30.6233 O   0  0  0  0  0  0  0  0  0  0  0  0
    8.1197  -20.1608   29.3315 C   0  0  0  0  0  0  0  0  0  0  0  0
    9.2188  -20.1813   28.4972 C   0  0  0  0  0  0  0  0  0  0  0  0
    9.1493  -19.6677   27.1975 C   0  0  0  0  0  0  0  0  0  0  0  0
    7.9820  -19.1340   26.7322 C   0  0  0  0  0  0  0  0  0  0  0  0
    7.8437  -18.5733   25.3655 C   0  0  0  0  0  0  0  0  0  0  0  0
    8.0700  -17.0575   25.3792 C   0  0  2  0  0  0  0  0  0  0  0  0
    8.1748  -16.6055   23.9850 N   0  0  0  0  0  0  0  0  0  0  0  0
    9.3652  -16.8381   26.0718 C   0  0  0  0  0  0  0  0  0  0  0  0
   10.3884  -17.3926   25.5406 O   0  0  0  0  0  0  0  0  0  0  0  0
    6.8872  -19.1132   27.5625 C   0  0  0  0  0  0  0  0  0  0  0  0
    6.9500  -19.6254   28.8640 C   0  0  0  0  0  0  0  0  0  0  0  0
    9.5493  -16.0880   27.2325 N   0  0  0  0  0  0  0  0  0  0  0  0
    8.6035  -15.5697   28.2213 C   0  0  0  0  0  0  0  0  0  0  0  0
    9.2523  -14.3272   28.7955 C   0  0  0  0  0  0  0  0  0  0  0  0
   10.5272  -14.1866   28.0047 C   0  0  0  0  0  0  0  0  0  0  0  0
   10.8662  -15.6292   27.7059 C   0  0  1  0  0  0  0  0  0  0  0  0
   11.1981  -16.4199   28.8981 C   0  0  0  0  0  0  0  0  0  0  0  0
   12.4066  -16.3946   29.5762 O   0  0  0  0  0  0  0  0  0  0  0  0
   10.3049  -17.1993   29.3569 O   0  0  0  0  0  0  0  0  0  0  0  0
  2  1  1  6
  3  2  1  0
  4  5  2  0
  4  3  1  0
  6  5  1  0
  7 12  2  0
  7  6  1  0
  8  7  1  0
  9 10  1  0
  9  8  2  0
 10 11  2  0
 11 12  1  0
 12  4  1  0
 13 14  2  0
 13  2  1  0
 16 17  2  0
 16 15  1  0
 18 17  1  0
 19 18  2  0
 20 19  1  0
 21 20  1  6
 21 22  1  0
 22 13  1  0
 23 24  2  0
 23 21  1  0
 25 19  1  0
 25 26  2  0
 26 16  1  0
 27 23  1  0
 28 29  1  0
 28 27  1  0
 30 31  1  0
 30 29  1  0
 31 27  1  0
 31 32  1  1
 32 33  1  0
 34 32  2  0
M  END
$$$$
