WYP.pdb
     RDKit          3D

 34 37  0  0  1  0  0  0  0  0999 V2000
   10.3257  -14.9018   20.0226 N   0  0  0  0  0  0  0  0  0  0  0  0
    9.3006  -15.1834   20.9976 C   0  0  1  0  0  0  0  0  0  0  0  0
    8.4030  -16.2880   20.4874 C   0  0  0  0  0  0  0  0  0  0  0  0
    7.7749  -15.8488   19.2183 C   0  0  0  0  0  0  0  0  0  0  0  0
    7.3338  -16.6305   18.1630 C   0  0  0  0  0  0  0  0  0  0  0  0
    6.8278  -15.8324   17.2076 N   0  0  0  0  0  0  0  0  0  0  0  0
    6.9113  -14.5464   17.5789 C   0  0  0  0  0  0  0  0  0  0  0  0
    6.5350  -13.3714   16.9561 C   0  0  0  0  0  0  0  0  0  0  0  0
    6.7638  -12.1841   17.6215 C   0  0  0  0  0  0  0  0  0  0  0  0
    7.3545  -12.1821   18.8773 C   0  0  0  0  0  0  0  0  0  0  0  0
    7.7243  -13.3469   19.4876 C   0  0  0  0  0  0  0  0  0  0  0  0
    7.5011  -14.5463   18.8324 C   0  0  0  0  0  0  0  0  0  0  0  0
    9.8823  -15.5306   22.3207 C   0  0  0  0  0  0  0  0  0  0  0  0
   11.0058  -16.0828   22.4261 O   0  0  0  0  0  0  0  0  0  0  0  0
   10.8086  -15.4911   31.1323 O   0  0  0  0  0  0  0  0  0  0  0  0
   10.3228  -15.3211   29.8406 C   0  0  0  0  0  0  0  0  0  0  0  0
    9.5146  -16.2715   29.2507 C   0  0  0  0  0  0  0  0  0  0  0  0
    9.0264  -16.0990   27.9508 C   0  0  0  0  0  0  0  0  0  0  0  0
    9.3459  -14.9772   27.2411 C   0  0  0  0  0  0  0  0  0  0  0  0
    8.8612  -14.7355   25.8599 C   0  0  0  0  0  0  0  0  0  0  0  0
    9.7701  -15.4306   24.8402 C   0  0  2  0  0  0  0  0  0  0  0  0
    9.1773  -15.2447   23.5086 N   0  0  0  0  0  0  0  0  0  0  0  0
    9.7603  -16.8733   25.1920 C   0  0  0  0  0  0  0  0  0  0  0  0
    8.6647  -17.4976   24.9766 O   0  0  0  0  0  0  0  0  0  0  0  0
   10.1506  -14.0305   27.8281 C   0  0  0  0  0  0  0  0  0  0  0  0
   10.6425  -14.1969   29.1283 C   0  0  0  0  0  0  0  0  0  0  0  0
   10.8321  -17.5867   25.7270 N   0  0  0  0  0  0  0  0  0  0  0  0
   12.1463  -17.1606   26.2087 C   0  0  0  0  0  0  0  0  0  0  0  0
   13.0630  -18.3482   25.9997 C   0  0  0  0  0  0  0  0  0  0  0  0
   12.1857  -19.3669   25.3190 C   0  0  0  0  0  0  0  0  0  0  0  0
   10.8296  -19.0484   25.9062 C   0  0  1  0  0  0  0  0  0  0  0  0
   10.7315  -19.3084   27.3483 C   0  0  0  0  0  0  0  0  0  0  0  0
   10.5593  -20.5509   27.9374 O   0  0  0  0  0  0  0  0  0  0  0  0
   10.8109  -18.3125   28.1342 O   0  0  0  0  0  0  0  0  0  0  0  0
  2  1  1  6
  3  2  1  0
  4  5  2  0
  4  3  1  0
  6  5  1  0
  7 12  2  0
  7  6  1  0
  8  7  1  0
  9 10  1  0
  9  8  2  0
 10 11  2  0
 11 12  1  0
 12  4  1  0
 13 14  2  0
 13  2  1  0
 16 17  2  0
 16 15  1  0
 18 17  1  0
 19 18  2  0
 20 19  1  0
 21 20  1  1
 21 22  1  0
 22 13  1  0
 23 24  2  0
 23 21  1  0
 25 19  1  0
 25 26  2  0
 26 16  1  0
 27 23  1  0
 28 29  1  0
 28 27  1  0
 30 31  1  0
 30 29  1  0
 31 27  1  0
 31 32  1  1
 32 33  1  0
 34 32  2  0
M  END
$$$$
