WYP.pdb
     RDKit          3D

 34 37  0  0  1  0  0  0  0  0999 V2000
    6.6838  -18.0210   26.4203 N   0  0  0  0  0  0  0  0  0  0  0  0
    7.1890  -16.7743   25.8997 C   0  0  1  0  0  0  0  0  0  0  0  0
    8.5830  -16.5286   26.4317 C   0  0  0  0  0  0  0  0  0  0  0  0
    8.5612  -15.3258   27.2983 C   0  0  0  0  0  0  0  0  0  0  0  0
    9.0799  -15.1774   28.5744 C   0  0  0  0  0  0  0  0  0  0  0  0
    8.8447  -13.9248   29.0004 N   0  0  0  0  0  0  0  0  0  0  0  0
    8.1891  -13.2262   28.0619 C   0  0  0  0  0  0  0  0  0  0  0  0
    7.7294  -11.9234   28.0225 C   0  0  0  0  0  0  0  0  0  0  0  0
    7.0774  -11.5013   26.8816 C   0  0  0  0  0  0  0  0  0  0  0  0
    6.8946  -12.3672   25.8127 C   0  0  0  0  0  0  0  0  0  0  0  0
    7.3512  -13.6539   25.8577 C   0  0  0  0  0  0  0  0  0  0  0  0
    8.0074  -14.0921   26.9958 C   0  0  0  0  0  0  0  0  0  0  0  0
    7.1685  -16.7515   24.4137 C   0  0  0  0  0  0  0  0  0  0  0  0
    7.1939  -17.8081   23.7344 O   0  0  0  0  0  0  0  0  0  0  0  0
    9.0090  -13.1160   16.5400 O   0  0  0  0  0  0  0  0  0  0  0  0
    8.5829  -13.3244   17.8471 C   0  0  0  0  0  0  0  0  0  0  0  0
    7.3490  -13.8808   18.1159 C   0  0  0  0  0  0  0  0  0  0  0  0
    6.9216  -14.0900   19.4317 C   0  0  0  0  0  0  0  0  0  0  0  0
    7.7272  -13.7432   20.4781 C   0  0  0  0  0  0  0  0  0  0  0  0
    7.3323  -13.9385   21.8949 C   0  0  0  0  0  0  0  0  0  0  0  0
    7.5185  -15.4022   22.3095 C   0  0  2  0  0  0  0  0  0  0  0  0
    7.1192  -15.5251   23.7183 N   0  0  0  0  0  0  0  0  0  0  0  0
    8.9695  -15.6891   22.1770 C   0  0  0  0  0  0  0  0  0  0  0  0
    9.7036  -15.3466   23.1671 O   0  0  0  0  0  0  0  0  0  0  0  0
    8.9560  -13.1890   20.2110 C   0  0  0  0  0  0  0  0  0  0  0  0
    9.3897  -12.9771   18.8968 C   0  0  0  0  0  0  0  0  0  0  0  0
    9.5817  -16.2926   21.0793 N   0  0  0  0  0  0  0  0  0  0  0  0
    9.0964  -16.5911   19.7317 C   0  0  0  0  0  0  0  0  0  0  0  0
    9.8862  -17.7988   19.2710 C   0  0  0  0  0  0  0  0  0  0  0  0
   10.7340  -18.1534   20.4652 C   0  0  0  0  0  0  0  0  0  0  0  0
   10.9648  -16.7981   21.0937 C   0  0  1  0  0  0  0  0  0  0  0  0
   11.7675  -15.8889   20.2656 C   0  0  0  0  0  0  0  0  0  0  0  0
   13.1502  -15.7942   20.2734 O   0  0  0  0  0  0  0  0  0  0  0  0
   11.1492  -15.1167   19.4674 O   0  0  0  0  0  0  0  0  0  0  0  0
  2  1  1  6
  3  2  1  0
  4  5  2  0
  4  3  1  0
  6  5  1  0
  7 12  2  0
  7  6  1  0
  8  7  1  0
  9 10  1  0
  9  8  2  0
 10 11  2  0
 11 12  1  0
 12  4  1  0
 13 14  2  0
 13  2  1  0
 16 17  2  0
 16 15  1  0
 18 17  1  0
 19 18  2  0
 20 19  1  0
 21 20  1  1
 21 22  1  0
 22 13  1  0
 23 24  2  0
 23 21  1  0
 25 19  1  0
 25 26  2  0
 26 16  1  0
 27 23  1  0
 28 29  1  0
 28 27  1  0
 30 31  1  0
 30 29  1  0
 31 27  1  0
 31 32  1  6
 32 33  1  0
 34 32  2  0
M  END
$$$$
