WYP.pdb
     RDKit          3D

 34 37  0  0  1  0  0  0  0  0999 V2000
    8.5489  -17.4445   20.2994 N   0  0  0  0  0  0  0  0  0  0  0  0
    9.8392  -17.1883   20.8911 C   0  0  1  0  0  0  0  0  0  0  0  0
   10.7822  -16.6469   19.8403 C   0  0  0  0  0  0  0  0  0  0  0  0
   10.0033  -15.8553   18.8581 C   0  0  0  0  0  0  0  0  0  0  0  0
    9.9870  -15.9754   17.4780 C   0  0  0  0  0  0  0  0  0  0  0  0
    9.1433  -15.0622   16.9682 N   0  0  0  0  0  0  0  0  0  0  0  0
    8.5924  -14.3337   17.9503 C   0  0  0  0  0  0  0  0  0  0  0  0
    7.6818  -13.2941   17.9396 C   0  0  0  0  0  0  0  0  0  0  0  0
    7.3096  -12.7471   19.1508 C   0  0  0  0  0  0  0  0  0  0  0  0
    7.8400  -13.2340   20.3371 C   0  0  0  0  0  0  0  0  0  0  0  0
    8.7398  -14.2619   20.3411 C   0  0  0  0  0  0  0  0  0  0  0  0
    9.1229  -14.8211   19.1336 C   0  0  0  0  0  0  0  0  0  0  0  0
    9.7375  -16.2637   22.0504 C   0  0  0  0  0  0  0  0  0  0  0  0
   10.3545  -15.1697   22.0815 O   0  0  0  0  0  0  0  0  0  0  0  0
    6.3441  -11.6596   28.6104 O   0  0  0  0  0  0  0  0  0  0  0  0
    6.5696  -12.5593   27.5745 C   0  0  0  0  0  0  0  0  0  0  0  0
    6.7365  -12.1250   26.2751 C   0  0  0  0  0  0  0  0  0  0  0  0
    6.9634  -13.0315   25.2336 C   0  0  0  0  0  0  0  0  0  0  0  0
    7.0234  -14.3710   25.4908 C   0  0  0  0  0  0  0  0  0  0  0  0
    7.2602  -15.3824   24.4314 C   0  0  0  0  0  0  0  0  0  0  0  0
    8.7564  -15.6893   24.3039 C   0  0  2  0  0  0  0  0  0  0  0  0
    8.9340  -16.5960   23.1612 N   0  0  0  0  0  0  0  0  0  0  0  0
    9.1447  -16.3859   25.5565 C   0  0  0  0  0  0  0  0  0  0  0  0
    9.0195  -17.6590   25.5545 O   0  0  0  0  0  0  0  0  0  0  0  0
    6.8572  -14.8039   26.7844 C   0  0  0  0  0  0  0  0  0  0  0  0
    6.6299  -13.9023   27.8310 C   0  0  0  0  0  0  0  0  0  0  0  0
    9.6275  -15.7722   26.7116 N   0  0  0  0  0  0  0  0  0  0  0  0
    9.4443  -14.4249   27.2517 C   0  0  0  0  0  0  0  0  0  0  0  0
   10.6884  -14.1386   28.0670 C   0  0  0  0  0  0  0  0  0  0  0  0
   11.5478  -15.3582   27.8557 C   0  0  0  0  0  0  0  0  0  0  0  0
   10.5085  -16.4424   27.6830 C   0  0  1  0  0  0  0  0  0  0  0  0
    9.7102  -16.6967   28.8891 C   0  0  0  0  0  0  0  0  0  0  0  0
    8.3638  -16.4079   29.0451 O   0  0  0  0  0  0  0  0  0  0  0  0
   10.2966  -17.2290   29.8834 O   0  0  0  0  0  0  0  0  0  0  0  0
  2  1  1  6
  3  2  1  0
  4  5  2  0
  4  3  1  0
  6  5  1  0
  7 12  2  0
  7  6  1  0
  8  7  1  0
  9 10  1  0
  9  8  2  0
 10 11  2  0
 11 12  1  0
 12  4  1  0
 13 14  2  0
 13  2  1  0
 16 17  2  0
 16 15  1  0
 18 17  1  0
 19 18  2  0
 20 19  1  0
 21 20  1  1
 21 22  1  0
 22 13  1  0
 23 24  2  0
 23 21  1  0
 25 19  1  0
 25 26  2  0
 26 16  1  0
 27 23  1  0
 28 29  1  0
 28 27  1  0
 30 31  1  0
 30 29  1  0
 31 27  1  0
 31 32  1  1
 32 33  1  0
 34 32  2  0
M  END
$$$$
