WYP.pdb
     RDKit          3D

 34 37  0  0  1  0  0  0  0  0999 V2000
    5.5257  -17.7889   24.2533 N   0  0  0  0  0  0  0  0  0  0  0  0
    6.4899  -16.7177   24.3121 C   0  0  1  0  0  0  0  0  0  0  0  0
    7.0409  -16.6058   25.7157 C   0  0  0  0  0  0  0  0  0  0  0  0
    6.5929  -15.3220   26.3067 C   0  0  0  0  0  0  0  0  0  0  0  0
    5.3746  -15.0270   26.8966 C   0  0  0  0  0  0  0  0  0  0  0  0
    5.3821  -13.7456   27.3013 N   0  0  0  0  0  0  0  0  0  0  0  0
    6.5564  -13.1683   27.0069 C   0  0  0  0  0  0  0  0  0  0  0  0
    7.0442  -11.8920   27.2146 C   0  0  0  0  0  0  0  0  0  0  0  0
    8.3245  -11.6102   26.7831 C   0  0  0  0  0  0  0  0  0  0  0  0
    9.0897  -12.5865   26.1608 C   0  0  0  0  0  0  0  0  0  0  0  0
    8.6019  -13.8463   25.9584 C   0  0  0  0  0  0  0  0  0  0  0  0
    7.3188  -14.1442   26.3859 C   0  0  0  0  0  0  0  0  0  0  0  0
    7.5801  -16.9055   23.3194 C   0  0  0  0  0  0  0  0  0  0  0  0
    7.9639  -18.0481   22.9651 O   0  0  0  0  0  0  0  0  0  0  0  0
    6.6627  -13.9211   16.4835 O   0  0  0  0  0  0  0  0  0  0  0  0
    7.4106  -14.0899   17.6435 C   0  0  0  0  0  0  0  0  0  0  0  0
    8.3689  -15.0786   17.7378 C   0  0  0  0  0  0  0  0  0  0  0  0
    9.1208  -15.2473   18.9057 C   0  0  0  0  0  0  0  0  0  0  0  0
    8.9150  -14.4283   19.9785 C   0  0  0  0  0  0  0  0  0  0  0  0
    9.6783  -14.5558   21.2444 C   0  0  0  0  0  0  0  0  0  0  0  0
    9.4163  -15.9177   21.8970 C   0  0  2  0  0  0  0  0  0  0  0  0
    8.2208  -15.7894   22.7417 N   0  0  0  0  0  0  0  0  0  0  0  0
   10.5987  -16.2033   22.7488 C   0  0  0  0  0  0  0  0  0  0  0  0
   10.6256  -15.6215   23.8877 O   0  0  0  0  0  0  0  0  0  0  0  0
    7.9610  -13.4437   19.8851 C   0  0  0  0  0  0  0  0  0  0  0  0
    7.2052  -13.2695   18.7196 C   0  0  0  0  0  0  0  0  0  0  0  0
   11.6604  -17.0414   22.4108 N   0  0  0  0  0  0  0  0  0  0  0  0
   12.0047  -17.7286   21.1658 C   0  0  0  0  0  0  0  0  0  0  0  0
   12.7823  -18.9606   21.5804 C   0  0  0  0  0  0  0  0  0  0  0  0
   12.7513  -18.9180   23.0864 C   0  0  0  0  0  0  0  0  0  0  0  0
   12.7235  -17.4302   23.3528 C   0  0  1  0  0  0  0  0  0  0  0  0
   13.9466  -16.7304   22.9394 C   0  0  0  0  0  0  0  0  0  0  0  0
   14.0869  -15.9455   21.8059 O   0  0  0  0  0  0  0  0  0  0  0  0
   14.9729  -16.8481   23.6801 O   0  0  0  0  0  0  0  0  0  0  0  0
  2  1  1  1
  3  2  1  0
  4  5  2  0
  4  3  1  0
  6  5  1  0
  7 12  2  0
  7  6  1  0
  8  7  1  0
  9 10  1  0
  9  8  2  0
 10 11  2  0
 11 12  1  0
 12  4  1  0
 13 14  2  0
 13  2  1  0
 16 17  2  0
 16 15  1  0
 18 17  1  0
 19 18  2  0
 20 19  1  0
 21 20  1  1
 21 22  1  0
 22 13  1  0
 23 24  2  0
 23 21  1  0
 25 19  1  0
 25 26  2  0
 26 16  1  0
 27 23  1  0
 28 29  1  0
 28 27  1  0
 30 31  1  0
 30 29  1  0
 31 27  1  0
 31 32  1  6
 32 33  1  0
 34 32  2  0
M  END
$$$$
