WYP.pdb
     RDKit          3D

 34 37  0  0  1  0  0  0  0  0999 V2000
    7.1503  -18.8082   20.9431 N   0  0  0  0  0  0  0  0  0  0  0  0
    7.7644  -17.6247   20.3929 C   0  0  1  0  0  0  0  0  0  0  0  0
    6.7409  -16.8412   19.6023 C   0  0  0  0  0  0  0  0  0  0  0  0
    7.3735  -15.6004   19.0943 C   0  0  0  0  0  0  0  0  0  0  0  0
    7.9390  -15.3719   17.8503 C   0  0  0  0  0  0  0  0  0  0  0  0
    8.3992  -14.1103   17.8027 N   0  0  0  0  0  0  0  0  0  0  0  0
    8.1657  -13.4824   18.9646 C   0  0  0  0  0  0  0  0  0  0  0  0
    8.4431  -12.2013   19.4026 C   0  0  0  0  0  0  0  0  0  0  0  0
    8.0627  -11.8588   20.6843 C   0  0  0  0  0  0  0  0  0  0  0  0
    7.4218  -12.7808   21.4997 C   0  0  0  0  0  0  0  0  0  0  0  0
    7.1503  -14.0457   21.0610 C   0  0  0  0  0  0  0  0  0  0  0  0
    7.5259  -14.4042   19.7772 C   0  0  0  0  0  0  0  0  0  0  0  0
    8.3841  -16.7853   21.4514 C   0  0  0  0  0  0  0  0  0  0  0  0
    9.2080  -15.8767   21.1790 O   0  0  0  0  0  0  0  0  0  0  0  0
   10.0672  -13.4242   29.4392 O   0  0  0  0  0  0  0  0  0  0  0  0
    9.4756  -13.9960   28.3184 C   0  0  0  0  0  0  0  0  0  0  0  0
    9.0476  -13.2184   27.2616 C   0  0  0  0  0  0  0  0  0  0  0  0
    8.4525  -13.7952   26.1342 C   0  0  0  0  0  0  0  0  0  0  0  0
    8.2852  -15.1484   26.0633 C   0  0  0  0  0  0  0  0  0  0  0  0
    7.6614  -15.8206   24.8970 C   0  0  0  0  0  0  0  0  0  0  0  0
    8.7328  -16.2710   23.8978 C   0  0  2  0  0  0  0  0  0  0  0  0
    8.0582  -16.9904   22.8085 N   0  0  0  0  0  0  0  0  0  0  0  0
    9.6210  -17.2049   24.6355 C   0  0  0  0  0  0  0  0  0  0  0  0
    9.0952  -18.3133   24.9981 O   0  0  0  0  0  0  0  0  0  0  0  0
    8.7111  -15.9232   27.1153 C   0  0  0  0  0  0  0  0  0  0  0  0
    9.3074  -15.3524   28.2462 C   0  0  0  0  0  0  0  0  0  0  0  0
   10.9579  -16.9727   24.9558 N   0  0  0  0  0  0  0  0  0  0  0  0
   11.7478  -15.7429   25.0201 C   0  0  0  0  0  0  0  0  0  0  0  0
   13.1750  -16.1579   24.7280 C   0  0  0  0  0  0  0  0  0  0  0  0
   13.0697  -17.6318   24.4327 C   0  0  0  0  0  0  0  0  0  0  0  0
   11.9083  -18.0405   25.3099 C   0  0  1  0  0  0  0  0  0  0  0  0
   12.1798  -17.9201   26.7481 C   0  0  0  0  0  0  0  0  0  0  0  0
   11.5794  -17.0190   27.6132 O   0  0  0  0  0  0  0  0  0  0  0  0
   13.0396  -18.7077   27.2543 O   0  0  0  0  0  0  0  0  0  0  0  0
  2  1  1  1
  3  2  1  0
  4  5  2  0
  4  3  1  0
  6  5  1  0
  7 12  2  0
  7  6  1  0
  8  7  1  0
  9 10  1  0
  9  8  2  0
 10 11  2  0
 11 12  1  0
 12  4  1  0
 13 14  2  0
 13  2  1  0
 16 17  2  0
 16 15  1  0
 18 17  1  0
 19 18  2  0
 20 19  1  0
 21 20  1  1
 21 22  1  0
 22 13  1  0
 23 24  2  0
 23 21  1  0
 25 19  1  0
 25 26  2  0
 26 16  1  0
 27 23  1  0
 28 29  1  0
 28 27  1  0
 30 31  1  0
 30 29  1  0
 31 27  1  0
 31 32  1  1
 32 33  1  0
 34 32  2  0
M  END
$$$$
