WYP.pdb
     RDKit          3D

 34 37  0  0  1  0  0  0  0  0999 V2000
    6.2970  -18.6321   25.5010 N   0  0  0  0  0  0  0  0  0  0  0  0
    6.5206  -17.2586   25.1213 C   0  0  1  0  0  0  0  0  0  0  0  0
    7.4334  -16.5949   26.1277 C   0  0  0  0  0  0  0  0  0  0  0  0
    6.8696  -15.2719   26.4881 C   0  0  0  0  0  0  0  0  0  0  0  0
    5.5594  -14.9552   26.8084 C   0  0  0  0  0  0  0  0  0  0  0  0
    5.4779  -13.6399   27.0714 N   0  0  0  0  0  0  0  0  0  0  0  0
    6.6805  -13.0607   26.9405 C   0  0  0  0  0  0  0  0  0  0  0  0
    7.1076  -11.7561   27.1003 C   0  0  0  0  0  0  0  0  0  0  0  0
    8.4431  -11.4814   26.8860 C   0  0  0  0  0  0  0  0  0  0  0  0
    9.3212  -12.4922   26.5214 C   0  0  0  0  0  0  0  0  0  0  0  0
    8.8928  -13.7799   26.3650 C   0  0  0  0  0  0  0  0  0  0  0  0
    7.5556  -14.0711   26.5767 C   0  0  0  0  0  0  0  0  0  0  0  0
    7.0701  -17.1524   23.7444 C   0  0  0  0  0  0  0  0  0  0  0  0
    7.5479  -18.1468   23.1431 O   0  0  0  0  0  0  0  0  0  0  0  0
    9.6622  -13.2689   16.1889 O   0  0  0  0  0  0  0  0  0  0  0  0
    9.1069  -13.5310   17.4364 C   0  0  0  0  0  0  0  0  0  0  0  0
    9.9033  -13.8082   18.5288 C   0  0  0  0  0  0  0  0  0  0  0  0
    9.3431  -14.0717   19.7836 C   0  0  0  0  0  0  0  0  0  0  0  0
    7.9876  -14.0583   19.9462 C   0  0  0  0  0  0  0  0  0  0  0  0
    7.3322  -14.3298   21.2493 C   0  0  0  0  0  0  0  0  0  0  0  0
    7.6645  -15.7450   21.7353 C   0  0  2  0  0  0  0  0  0  0  0  0
    7.0691  -15.9145   23.0679 N   0  0  0  0  0  0  0  0  0  0  0  0
    9.1444  -15.8104   21.8398 C   0  0  0  0  0  0  0  0  0  0  0  0
    9.6618  -15.2450   22.8640 O   0  0  0  0  0  0  0  0  0  0  0  0
    7.1940  -13.7824   18.8588 C   0  0  0  0  0  0  0  0  0  0  0  0
    7.7481  -13.5178   17.6006 C   0  0  0  0  0  0  0  0  0  0  0  0
    9.9970  -16.4296   20.9268 N   0  0  0  0  0  0  0  0  0  0  0  0
    9.7845  -16.9078   19.5605 C   0  0  0  0  0  0  0  0  0  0  0  0
   10.7676  -18.0438   19.3673 C   0  0  0  0  0  0  0  0  0  0  0  0
   11.4323  -18.1794   20.7129 C   0  0  0  0  0  0  0  0  0  0  0  0
   11.4039  -16.7544   21.2166 C   0  0  1  0  0  0  0  0  0  0  0  0
   12.2329  -15.8308   20.4314 C   0  0  0  0  0  0  0  0  0  0  0  0
   13.5762  -15.5661   20.6461 O   0  0  0  0  0  0  0  0  0  0  0  0
   11.6790  -15.2152   19.4671 O   0  0  0  0  0  0  0  0  0  0  0  0
  2  1  1  1
  3  2  1  0
  4  5  2  0
  4  3  1  0
  6  5  1  0
  7 12  2  0
  7  6  1  0
  8  7  1  0
  9 10  1  0
  9  8  2  0
 10 11  2  0
 11 12  1  0
 12  4  1  0
 13 14  2  0
 13  2  1  0
 16 17  2  0
 16 15  1  0
 18 17  1  0
 19 18  2  0
 20 19  1  0
 21 20  1  1
 21 22  1  0
 22 13  1  0
 23 24  2  0
 23 21  1  0
 25 19  1  0
 25 26  2  0
 26 16  1  0
 27 23  1  0
 28 29  1  0
 28 27  1  0
 30 31  1  0
 30 29  1  0
 31 27  1  0
 31 32  1  6
 32 33  1  0
 34 32  2  0
M  END
$$$$
