WYP.pdb
     RDKit          3D

 34 37  0  0  1  0  0  0  0  0999 V2000
    7.4810  -18.0805   25.6639 N   0  0  0  0  0  0  0  0  0  0  0  0
    6.5504  -17.1318   25.1030 C   0  0  1  0  0  0  0  0  0  0  0  0
    5.7179  -16.5218   26.2080 C   0  0  0  0  0  0  0  0  0  0  0  0
    6.5941  -15.6872   27.0647 C   0  0  0  0  0  0  0  0  0  0  0  0
    7.5978  -16.0997   27.9260 C   0  0  0  0  0  0  0  0  0  0  0  0
    8.1453  -15.0205   28.5102 N   0  0  0  0  0  0  0  0  0  0  0  0
    7.5497  -13.9000   28.0759 C   0  0  0  0  0  0  0  0  0  0  0  0
    7.7497  -12.5649   28.3715 C   0  0  0  0  0  0  0  0  0  0  0  0
    6.9504  -11.6349   27.7383 C   0  0  0  0  0  0  0  0  0  0  0  0
    5.9786  -12.0395   26.8340 C   0  0  0  0  0  0  0  0  0  0  0  0
    5.7858  -13.3608   26.5459 C   0  0  0  0  0  0  0  0  0  0  0  0
    6.5801  -14.3058   27.1734 C   0  0  0  0  0  0  0  0  0  0  0  0
    7.2458  -16.0831   24.3117 C   0  0  0  0  0  0  0  0  0  0  0  0
    7.0351  -14.8595   24.5037 O   0  0  0  0  0  0  0  0  0  0  0  0
   11.6352  -15.0175   28.2596 O   0  0  0  0  0  0  0  0  0  0  0  0
   11.3255  -15.1477   26.9103 C   0  0  0  0  0  0  0  0  0  0  0  0
   10.8897  -14.0675   26.1702 C   0  0  0  0  0  0  0  0  0  0  0  0
   10.5785  -14.1999   24.8125 C   0  0  0  0  0  0  0  0  0  0  0  0
   10.7028  -15.4112   24.1950 C   0  0  0  0  0  0  0  0  0  0  0  0
   10.3885  -15.6172   22.7597 C   0  0  0  0  0  0  0  0  0  0  0  0
    8.8875  -15.4397   22.5058 C   0  0  2  0  0  0  0  0  0  0  0  0
    8.1734  -16.4403   23.3108 N   0  0  0  0  0  0  0  0  0  0  0  0
    8.6755  -15.7191   21.0627 C   0  0  0  0  0  0  0  0  0  0  0  0
    8.3444  -16.9182   20.7644 O   0  0  0  0  0  0  0  0  0  0  0  0
   11.1368  -16.4872   24.9315 C   0  0  0  0  0  0  0  0  0  0  0  0
   11.4498  -16.3615   26.2903 C   0  0  0  0  0  0  0  0  0  0  0  0
    8.8051  -14.7935   20.0281 N   0  0  0  0  0  0  0  0  0  0  0  0
    9.1957  -13.3836   20.0217 C   0  0  0  0  0  0  0  0  0  0  0  0
    8.5035  -12.7730   18.8206 C   0  0  0  0  0  0  0  0  0  0  0  0
    7.6813  -13.9058   18.2626 C   0  0  0  0  0  0  0  0  0  0  0  0
    8.5295  -15.1063   18.6157 C   0  0  1  0  0  0  0  0  0  0  0  0
    9.8221  -15.1449   17.9198 C   0  0  0  0  0  0  0  0  0  0  0  0
   10.0343  -15.6056   16.6300 O   0  0  0  0  0  0  0  0  0  0  0  0
   10.8429  -14.7202   18.5470 O   0  0  0  0  0  0  0  0  0  0  0  0
  2  1  1  1
  3  2  1  0
  4  5  2  0
  4  3  1  0
  6  5  1  0
  7 12  2  0
  7  6  1  0
  8  7  1  0
  9 10  1  0
  9  8  2  0
 10 11  2  0
 11 12  1  0
 12  4  1  0
 13 14  2  0
 13  2  1  0
 16 17  2  0
 16 15  1  0
 18 17  1  0
 19 18  2  0
 20 19  1  0
 21 20  1  6
 21 22  1  0
 22 13  1  0
 23 24  2  0
 23 21  1  0
 25 19  1  0
 25 26  2  0
 26 16  1  0
 27 23  1  0
 28 29  1  0
 28 27  1  0
 30 31  1  0
 30 29  1  0
 31 27  1  0
 31 32  1  6
 32 33  1  0
 34 32  2  0
M  END
$$$$
