WYP.pdb
     RDKit          3D

 34 37  0  0  1  0  0  0  0  0999 V2000
    7.5246  -17.9395   21.5309 N   0  0  0  0  0  0  0  0  0  0  0  0
    7.4106  -16.5339   21.8340 C   0  0  1  0  0  0  0  0  0  0  0  0
    6.2294  -15.9481   21.0937 C   0  0  0  0  0  0  0  0  0  0  0  0
    6.7292  -15.1260   19.9657 C   0  0  0  0  0  0  0  0  0  0  0  0
    6.6901  -15.4126   18.6109 C   0  0  0  0  0  0  0  0  0  0  0  0
    7.2517  -14.3982   17.9316 N   0  0  0  0  0  0  0  0  0  0  0  0
    7.6662  -13.4420   18.7757 C   0  0  0  0  0  0  0  0  0  0  0  0
    8.2918  -12.2268   18.5709 C   0  0  0  0  0  0  0  0  0  0  0  0
    8.5917  -11.4585   19.6775 C   0  0  0  0  0  0  0  0  0  0  0  0
    8.2704  -11.9027   20.9524 C   0  0  0  0  0  0  0  0  0  0  0  0
    7.6520  -13.1049   21.1483 C   0  0  0  0  0  0  0  0  0  0  0  0
    7.3446  -13.8871   20.0476 C   0  0  0  0  0  0  0  0  0  0  0  0
    7.3011  -16.2950   23.2969 C   0  0  0  0  0  0  0  0  0  0  0  0
    7.1625  -15.1398   23.7711 O   0  0  0  0  0  0  0  0  0  0  0  0
    9.5137  -18.4730   31.5695 O   0  0  0  0  0  0  0  0  0  0  0  0
    8.9886  -18.4946   30.2822 C   0  0  0  0  0  0  0  0  0  0  0  0
    9.6354  -19.1558   29.2580 C   0  0  0  0  0  0  0  0  0  0  0  0
    9.1058  -19.1768   27.9631 C   0  0  0  0  0  0  0  0  0  0  0  0
    7.9303  -18.5372   27.6922 C   0  0  0  0  0  0  0  0  0  0  0  0
    7.3172  -18.5217   26.3412 C   0  0  0  0  0  0  0  0  0  0  0  0
    7.5903  -17.1862   25.6406 C   0  0  2  0  0  0  0  0  0  0  0  0
    7.3507  -17.3749   24.2031 N   0  0  0  0  0  0  0  0  0  0  0  0
    9.0260  -16.8838   25.8700 C   0  0  0  0  0  0  0  0  0  0  0  0
    9.8586  -17.5112   25.1287 O   0  0  0  0  0  0  0  0  0  0  0  0
    7.2858  -17.8787   28.7116 C   0  0  0  0  0  0  0  0  0  0  0  0
    7.8103  -17.8539   30.0095 C   0  0  0  0  0  0  0  0  0  0  0  0
    9.5270  -15.9855   26.8112 N   0  0  0  0  0  0  0  0  0  0  0  0
    8.8994  -15.3079   27.9459 C   0  0  0  0  0  0  0  0  0  0  0  0
    9.6705  -14.0170   28.1287 C   0  0  0  0  0  0  0  0  0  0  0  0
   10.6621  -14.0244   26.9941 C   0  0  0  0  0  0  0  0  0  0  0  0
   10.9186  -15.5037   26.8175 C   0  0  1  0  0  0  0  0  0  0  0  0
   11.5894  -16.1305   27.9638 C   0  0  0  0  0  0  0  0  0  0  0  0
   12.9338  -16.0132   28.2789 O   0  0  0  0  0  0  0  0  0  0  0  0
   10.8832  -16.8456   28.7421 O   0  0  0  0  0  0  0  0  0  0  0  0
  2  1  1  1
  3  2  1  0
  4  5  2  0
  4  3  1  0
  6  5  1  0
  7 12  2  0
  7  6  1  0
  8  7  1  0
  9 10  1  0
  9  8  2  0
 10 11  2  0
 11 12  1  0
 12  4  1  0
 13 14  2  0
 13  2  1  0
 16 17  2  0
 16 15  1  0
 18 17  1  0
 19 18  2  0
 20 19  1  0
 21 20  1  1
 21 22  1  0
 22 13  1  0
 23 24  2  0
 23 21  1  0
 25 19  1  0
 25 26  2  0
 26 16  1  0
 27 23  1  0
 28 29  1  0
 28 27  1  0
 30 31  1  0
 30 29  1  0
 31 27  1  0
 31 32  1  1
 32 33  1  0
 34 32  2  0
M  END
$$$$
