WYP.pdb
     RDKit          3D

 34 37  0  0  1  0  0  0  0  0999 V2000
    6.3278  -19.1732   21.5551 N   0  0  0  0  0  0  0  0  0  0  0  0
    6.7009  -17.7887   21.7120 C   0  0  1  0  0  0  0  0  0  0  0  0
    5.8557  -16.9277   20.8006 C   0  0  0  0  0  0  0  0  0  0  0  0
    6.7479  -16.0505   20.0051 C   0  0  0  0  0  0  0  0  0  0  0  0
    7.3279  -16.3062   18.7733 C   0  0  0  0  0  0  0  0  0  0  0  0
    8.0654  -15.2444   18.4069 N   0  0  0  0  0  0  0  0  0  0  0  0
    8.0040  -14.2860   19.3431 C   0  0  0  0  0  0  0  0  0  0  0  0
    8.5771  -13.0314   19.4299 C   0  0  0  0  0  0  0  0  0  0  0  0
    8.3093  -12.2736   20.5519 C   0  0  0  0  0  0  0  0  0  0  0  0
    7.4883  -12.7666   21.5562 C   0  0  0  0  0  0  0  0  0  0  0  0
    6.9247  -14.0076   21.4646 C   0  0  0  0  0  0  0  0  0  0  0  0
    7.1841  -14.7798   20.3447 C   0  0  0  0  0  0  0  0  0  0  0  0
    6.5882  -17.3469   23.1267 C   0  0  0  0  0  0  0  0  0  0  0  0
    5.4750  -17.2279   23.6969 O   0  0  0  0  0  0  0  0  0  0  0  0
    5.9894  -22.5285   26.7128 O   0  0  0  0  0  0  0  0  0  0  0  0
    6.5994  -21.2858   26.5825 C   0  0  0  0  0  0  0  0  0  0  0  0
    6.1810  -20.2031   27.3289 C   0  0  0  0  0  0  0  0  0  0  0  0
    6.7957  -18.9531   27.1968 C   0  0  0  0  0  0  0  0  0  0  0  0
    7.8280  -18.7856   26.3190 C   0  0  0  0  0  0  0  0  0  0  0  0
    8.5207  -17.4869   26.1321 C   0  0  0  0  0  0  0  0  0  0  0  0
    7.6812  -16.5493   25.2573 C   0  0  2  0  0  0  0  0  0  0  0  0
    7.7449  -17.0456   23.8757 N   0  0  0  0  0  0  0  0  0  0  0  0
    8.3305  -15.2161   25.3372 C   0  0  0  0  0  0  0  0  0  0  0  0
    9.3063  -15.0164   24.5345 O   0  0  0  0  0  0  0  0  0  0  0  0
    8.2451  -19.8634   25.5755 C   0  0  0  0  0  0  0  0  0  0  0  0
    7.6343  -21.1167   25.7029 C   0  0  0  0  0  0  0  0  0  0  0  0
    7.9651  -14.1847   26.2013 N   0  0  0  0  0  0  0  0  0  0  0  0
    6.8923  -14.0719   27.1896 C   0  0  0  0  0  0  0  0  0  0  0  0
    6.5719  -12.5941   27.2785 C   0  0  0  0  0  0  0  0  0  0  0  0
    7.4654  -11.9674   26.2395 C   0  0  0  0  0  0  0  0  0  0  0  0
    8.6630  -12.8895   26.2650 C   0  0  1  0  0  0  0  0  0  0  0  0
    9.4078  -12.8599   27.5304 C   0  0  0  0  0  0  0  0  0  0  0  0
   10.3012  -11.8753   27.9216 O   0  0  0  0  0  0  0  0  0  0  0  0
    9.2235  -13.8171   28.3462 O   0  0  0  0  0  0  0  0  0  0  0  0
  2  1  1  1
  3  2  1  0
  4  5  2  0
  4  3  1  0
  6  5  1  0
  7 12  2  0
  7  6  1  0
  8  7  1  0
  9 10  1  0
  9  8  2  0
 10 11  2  0
 11 12  1  0
 12  4  1  0
 13 14  2  0
 13  2  1  0
 16 17  2  0
 16 15  1  0
 18 17  1  0
 19 18  2  0
 20 19  1  0
 21 20  1  1
 21 22  1  0
 22 13  1  0
 23 24  2  0
 23 21  1  0
 25 19  1  0
 25 26  2  0
 26 16  1  0
 27 23  1  0
 28 29  1  0
 28 27  1  0
 30 31  1  0
 30 29  1  0
 31 27  1  0
 31 32  1  1
 32 33  1  0
 34 32  2  0
M  END
$$$$
