YWR.pdb
     RDKit          3D

 38 40  0  0  1  0  0  0  0  0999 V2000
    7.2284  -13.4887   15.4540 O   0  0  0  0  0  0  0  0  0  0  0  0
    7.6275  -13.6288   16.7999 C   0  0  0  0  0  0  0  0  0  0  0  0
    8.7014  -14.4352   17.1127 C   0  0  0  0  0  0  0  0  0  0  0  0
    9.0985  -14.5761   18.4372 C   0  0  0  0  0  0  0  0  0  0  0  0
    8.4633  -13.9397   19.4803 C   0  0  0  0  0  0  0  0  0  0  0  0
    8.8719  -14.0763   20.8952 C   0  0  0  0  0  0  0  0  0  0  0  0
    9.0922  -15.4663   21.3672 C   0  0  2  0  0  0  0  0  0  0  0  0
    7.9609  -16.3341   21.0239 N   0  0  0  0  0  0  0  0  0  0  0  0
    9.4765  -15.6591   22.7581 C   0  0  0  0  0  0  0  0  0  0  0  0
   10.5011  -15.0376   23.2125 O   0  0  0  0  0  0  0  0  0  0  0  0
    7.3759  -13.1263   19.1367 C   0  0  0  0  0  0  0  0  0  0  0  0
    6.9775  -12.9831   17.8200 C   0  0  0  0  0  0  0  0  0  0  0  0
    8.8039  -16.4962   23.7043 N   0  0  0  0  0  0  0  0  0  0  0  0
    9.2244  -16.5824   25.0662 C   0  0  1  0  0  0  0  0  0  0  0  0
    8.0483  -16.6234   26.0255 C   0  0  0  0  0  0  0  0  0  0  0  0
    7.1205  -15.5018   25.8715 C   0  0  0  0  0  0  0  0  0  0  0  0
    5.8414  -15.5458   25.3589 C   0  0  0  0  0  0  0  0  0  0  0  0
    5.2945  -14.3168   25.3729 N   0  0  0  0  0  0  0  0  0  0  0  0
    6.2018  -13.4414   25.8943 C   0  0  0  0  0  0  0  0  0  0  0  0
    6.1573  -12.0853   26.1328 C   0  0  0  0  0  0  0  0  0  0  0  0
    7.2354  -11.4199   26.6857 C   0  0  0  0  0  0  0  0  0  0  0  0
    8.3467  -12.1593   26.9863 C   0  0  0  0  0  0  0  0  0  0  0  0
    8.4217  -13.5213   26.7585 C   0  0  0  0  0  0  0  0  0  0  0  0
    7.3456  -14.1848   26.2068 C   0  0  0  0  0  0  0  0  0  0  0  0
   10.0088  -17.8076   25.3521 C   0  0  0  0  0  0  0  0  0  0  0  0
    9.7018  -18.8664   24.7563 O   0  0  0  0  0  0  0  0  0  0  0  0
   16.0951  -20.4956   22.7263 N   0  0  0  0  0  0  0  0  0  0  0  0
   16.7771  -20.6931   23.9513 C   0  0  0  0  0  0  0  0  0  0  0  0
   17.8354  -21.4398   23.9120 N   0  0  0  0  0  0  0  0  0  0  0  0
   16.3663  -20.1329   25.1738 N   0  0  0  0  0  0  0  0  0  0  0  0
   15.0625  -20.5711   25.7637 C   0  0  0  0  0  0  0  0  0  0  0  0
   13.9627  -19.7748   25.1971 C   0  0  0  0  0  0  0  0  0  0  0  0
   13.2242  -18.8705   26.0418 C   0  0  0  0  0  0  0  0  0  0  0  0
   11.8573  -19.0896   26.5389 C   0  0  2  0  0  0  0  0  0  0  0  0
   11.0800  -17.8571   26.2521 N   0  0  0  0  0  0  0  0  0  0  0  0
   11.5916  -19.4297   27.9181 C   0  0  0  0  0  0  0  0  0  0  0  0
   11.7333  -20.6010   28.6097 O   0  0  0  0  0  0  0  0  0  0  0  0
   11.1272  -18.4710   28.6688 O   0  0  0  0  0  0  0  0  0  0  0  0
  2  1  1  0
  2 12  2  0
  3  2  1  0
  4  3  2  0
  4  5  1  0
  5 11  2  0
  6  7  1  0
  6  5  1  0
  7  8  1  1
  9  7  1  0
  9 13  1  0
 10  9  2  0
 11 12  1  0
 14 25  1  0
 14 13  1  0
 14 15  1  1
 16 15  1  0
 16 24  1  0
 17 18  1  0
 17 16  2  0
 18 19  1  0
 19 24  2  0
 19 20  1  0
 20 21  2  0
 21 22  1  0
 23 22  2  0
 24 23  1  0
 25 26  2  0
 27 28  1  0
 28 29  2  0
 30 28  1  0
 30 31  1  0
 32 33  1  0
 32 31  1  0
 34 33  1  1
 34 36  1  0
 35 34  1  0
 35 25  1  0
 36 37  1  0
 38 36  2  0
M  END
$$$$
