YWR.pdb
     RDKit          3D

 38 40  0  0  1  0  0  0  0  0999 V2000
    6.2535  -26.7755   27.6267 O   0  0  0  0  0  0  0  0  0  0  0  0
    6.4820  -25.6679   26.7833 C   0  0  0  0  0  0  0  0  0  0  0  0
    7.6480  -25.5973   26.0506 C   0  0  0  0  0  0  0  0  0  0  0  0
    7.8774  -24.5082   25.2181 C   0  0  0  0  0  0  0  0  0  0  0  0
    6.9832  -23.4699   25.0811 C   0  0  0  0  0  0  0  0  0  0  0  0
    7.2090  -22.3038   24.1997 C   0  0  0  0  0  0  0  0  0  0  0  0
    6.1119  -21.3045   24.1657 C   0  0  2  0  0  0  0  0  0  0  0  0
    5.0020  -21.7562   23.3204 N   0  0  0  0  0  0  0  0  0  0  0  0
    6.4584  -19.9250   23.8549 C   0  0  0  0  0  0  0  0  0  0  0  0
    6.3326  -19.5083   22.6494 O   0  0  0  0  0  0  0  0  0  0  0  0
    5.8066  -23.5650   25.8354 C   0  0  0  0  0  0  0  0  0  0  0  0
    5.5743  -24.6472   26.6649 C   0  0  0  0  0  0  0  0  0  0  0  0
    6.9377  -18.9515   24.7881 N   0  0  0  0  0  0  0  0  0  0  0  0
    7.2818  -17.6259   24.3837 C   0  0  1  0  0  0  0  0  0  0  0  0
    6.9150  -16.5945   25.4357 C   0  0  0  0  0  0  0  0  0  0  0  0
    6.9580  -15.2142   24.9505 C   0  0  0  0  0  0  0  0  0  0  0  0
    6.7583  -14.7815   23.6568 C   0  0  0  0  0  0  0  0  0  0  0  0
    6.8781  -13.4432   23.5925 N   0  0  0  0  0  0  0  0  0  0  0  0
    7.1584  -12.9697   24.8409 C   0  0  0  0  0  0  0  0  0  0  0  0
    7.3725  -11.6995   25.3294 C   0  0  0  0  0  0  0  0  0  0  0  0
    7.6413  -11.4830   26.6679 C   0  0  0  0  0  0  0  0  0  0  0  0
    7.6864  -12.5776   27.4875 C   0  0  0  0  0  0  0  0  0  0  0  0
    7.4761  -13.8647   27.0271 C   0  0  0  0  0  0  0  0  0  0  0  0
    7.2080  -14.0801   25.6914 C   0  0  0  0  0  0  0  0  0  0  0  0
    8.7358  -17.4519   24.1515 C   0  0  0  0  0  0  0  0  0  0  0  0
    9.5242  -17.6872   25.0966 O   0  0  0  0  0  0  0  0  0  0  0  0
    7.9732  -13.8839   17.7345 N   0  0  0  0  0  0  0  0  0  0  0  0
    8.4790  -13.0973   18.7976 C   0  0  0  0  0  0  0  0  0  0  0  0
    8.3513  -11.8132   18.6807 N   0  0  0  0  0  0  0  0  0  0  0  0
    9.0985  -13.6334   19.9405 N   0  0  0  0  0  0  0  0  0  0  0  0
    9.7202  -14.9918   19.8510 C   0  0  0  0  0  0  0  0  0  0  0  0
   10.8993  -15.0626   20.7283 C   0  0  0  0  0  0  0  0  0  0  0  0
   10.7300  -15.3199   22.1361 C   0  0  0  0  0  0  0  0  0  0  0  0
   10.7115  -16.6491   22.7656 C   0  0  2  0  0  0  0  0  0  0  0  0
    9.2884  -17.0389   22.9333 N   0  0  0  0  0  0  0  0  0  0  0  0
   11.3578  -16.9030   24.0330 C   0  0  0  0  0  0  0  0  0  0  0  0
   11.0004  -16.5892   25.3153 O   0  0  0  0  0  0  0  0  0  0  0  0
   12.4926  -17.5418   23.9835 O   0  0  0  0  0  0  0  0  0  0  0  0
  2  1  1  0
  2 12  2  0
  3  2  1  0
  4  3  2  0
  4  5  1  0
  5 11  2  0
  6  7  1  0
  6  5  1  0
  7  8  1  6
  9  7  1  0
  9 13  1  0
 10  9  2  0
 11 12  1  0
 14 25  1  0
 14 13  1  0
 14 15  1  1
 16 15  1  0
 16 24  1  0
 17 18  1  0
 17 16  2  0
 18 19  1  0
 19 24  2  0
 19 20  1  0
 20 21  2  0
 21 22  1  0
 23 22  2  0
 24 23  1  0
 25 26  2  0
 27 28  1  0
 28 29  2  0
 30 28  1  0
 30 31  1  0
 32 33  1  0
 32 31  1  0
 34 33  1  1
 34 36  1  0
 35 34  1  0
 35 25  1  0
 36 37  1  0
 38 36  2  0
M  END
$$$$
