YWR.pdb
     RDKit          3D

 38 40  0  0  1  0  0  0  0  0999 V2000
    6.7896  -13.6493   15.4133 O   0  0  0  0  0  0  0  0  0  0  0  0
    7.2870  -13.7648   16.7284 C   0  0  0  0  0  0  0  0  0  0  0  0
    8.4104  -14.5275   16.9684 C   0  0  0  0  0  0  0  0  0  0  0  0
    8.9044  -14.6440   18.2623 C   0  0  0  0  0  0  0  0  0  0  0  0
    8.3198  -14.0251   19.3447 C   0  0  0  0  0  0  0  0  0  0  0  0
    8.8314  -14.1362   20.7281 C   0  0  0  0  0  0  0  0  0  0  0  0
    8.9021  -15.5138   21.2763 C   0  0  2  0  0  0  0  0  0  0  0  0
    7.6618  -16.2548   21.0246 N   0  0  0  0  0  0  0  0  0  0  0  0
    9.3167  -15.6733   22.6627 C   0  0  0  0  0  0  0  0  0  0  0  0
   10.3804  -15.0831   23.0660 O   0  0  0  0  0  0  0  0  0  0  0  0
    7.1804  -13.2561   19.0750 C   0  0  0  0  0  0  0  0  0  0  0  0
    6.6857  -13.1373   17.7889 C   0  0  0  0  0  0  0  0  0  0  0  0
    8.6344  -16.4440   23.6573 N   0  0  0  0  0  0  0  0  0  0  0  0
    9.1192  -16.5433   24.9968 C   0  0  1  0  0  0  0  0  0  0  0  0
    7.9998  -16.4469   26.0179 C   0  0  0  0  0  0  0  0  0  0  0  0
    7.1381  -15.2769   25.8416 C   0  0  0  0  0  0  0  0  0  0  0  0
    5.9017  -15.2396   25.2326 C   0  0  0  0  0  0  0  0  0  0  0  0
    5.4113  -13.9872   25.2570 N   0  0  0  0  0  0  0  0  0  0  0  0
    6.3140  -13.1772   25.8817 C   0  0  0  0  0  0  0  0  0  0  0  0
    6.3123  -11.8307   26.1730 C   0  0  0  0  0  0  0  0  0  0  0  0
    7.3733  -11.2396   26.8331 C   0  0  0  0  0  0  0  0  0  0  0  0
    8.4236  -12.0426   27.1853 C   0  0  0  0  0  0  0  0  0  0  0  0
    8.4546  -13.3969   26.9067 C   0  0  0  0  0  0  0  0  0  0  0  0
    7.3956  -13.9861   26.2480 C   0  0  0  0  0  0  0  0  0  0  0  0
    9.7939  -17.8344   25.2726 C   0  0  0  0  0  0  0  0  0  0  0  0
    9.2044  -18.8954   24.9611 O   0  0  0  0  0  0  0  0  0  0  0  0
   15.0190  -19.5410   19.4708 N   0  0  0  0  0  0  0  0  0  0  0  0
   15.5329  -19.8529   20.7527 C   0  0  0  0  0  0  0  0  0  0  0  0
   16.8230  -19.8951   20.8658 N   0  0  0  0  0  0  0  0  0  0  0  0
   14.7275  -20.1142   21.8753 N   0  0  0  0  0  0  0  0  0  0  0  0
   14.8390  -19.2139   23.0657 C   0  0  0  0  0  0  0  0  0  0  0  0
   13.9351  -19.6760   24.1306 C   0  0  0  0  0  0  0  0  0  0  0  0
   12.8910  -18.8066   24.6109 C   0  0  0  0  0  0  0  0  0  0  0  0
   11.9462  -19.1228   25.6929 C   0  0  2  0  0  0  0  0  0  0  0  0
   11.0585  -17.9444   25.8630 N   0  0  0  0  0  0  0  0  0  0  0  0
   12.3958  -19.4911   27.0161 C   0  0  0  0  0  0  0  0  0  0  0  0
   12.2634  -18.8702   28.2275 O   0  0  0  0  0  0  0  0  0  0  0  0
   13.0549  -20.6114   27.1097 O   0  0  0  0  0  0  0  0  0  0  0  0
  2  1  1  0
  2 12  2  0
  3  2  1  0
  4  3  2  0
  4  5  1  0
  5 11  2  0
  6  7  1  0
  6  5  1  0
  7  8  1  1
  9  7  1  0
  9 13  1  0
 10  9  2  0
 11 12  1  0
 14 25  1  0
 14 13  1  0
 14 15  1  1
 16 15  1  0
 16 24  1  0
 17 18  1  0
 17 16  2  0
 18 19  1  0
 19 24  2  0
 19 20  1  0
 20 21  2  0
 21 22  1  0
 23 22  2  0
 24 23  1  0
 25 26  2  0
 27 28  1  0
 28 29  2  0
 30 28  1  0
 30 31  1  0
 32 33  1  0
 32 31  1  0
 34 33  1  6
 34 36  1  0
 35 34  1  0
 35 25  1  0
 36 37  1  0
 38 36  2  0
M  END
$$$$
