YWR.pdb
     RDKit          3D

 38 40  0  0  1  0  0  0  0  0999 V2000
    6.7457  -14.0371   15.1473 O   0  0  0  0  0  0  0  0  0  0  0  0
    7.1792  -14.0427   16.4898 C   0  0  0  0  0  0  0  0  0  0  0  0
    7.9290  -15.0999   16.9603 C   0  0  0  0  0  0  0  0  0  0  0  0
    8.3586  -15.1098   18.2820 C   0  0  0  0  0  0  0  0  0  0  0  0
    8.0698  -14.0976   19.1700 C   0  0  0  0  0  0  0  0  0  0  0  0
    8.5190  -14.0898   20.5792 C   0  0  0  0  0  0  0  0  0  0  0  0
    8.7836  -15.4235   21.1747 C   0  0  2  0  0  0  0  0  0  0  0  0
    7.5830  -16.2655   21.1577 N   0  0  0  0  0  0  0  0  0  0  0  0
    9.4177  -15.4696   22.4844 C   0  0  0  0  0  0  0  0  0  0  0  0
   10.5513  -14.8942   22.6475 O   0  0  0  0  0  0  0  0  0  0  0  0
    7.3072  -13.0352   18.6682 C   0  0  0  0  0  0  0  0  0  0  0  0
    6.8778  -13.0213   17.3535 C   0  0  0  0  0  0  0  0  0  0  0  0
    8.8871  -16.1093   23.6496 N   0  0  0  0  0  0  0  0  0  0  0  0
    9.5651  -16.0689   24.9057 C   0  0  1  0  0  0  0  0  0  0  0  0
    8.5985  -16.0669   26.0765 C   0  0  0  0  0  0  0  0  0  0  0  0
    7.4681  -15.1524   25.9083 C   0  0  0  0  0  0  0  0  0  0  0  0
    6.1746  -15.4843   25.5654 C   0  0  0  0  0  0  0  0  0  0  0  0
    5.4134  -14.3769   25.5034 N   0  0  0  0  0  0  0  0  0  0  0  0
    6.1900  -13.2962   25.8040 C   0  0  0  0  0  0  0  0  0  0  0  0
    5.9188  -11.9481   25.8867 C   0  0  0  0  0  0  0  0  0  0  0  0
    6.9046  -11.0387   26.2217 C   0  0  0  0  0  0  0  0  0  0  0  0
    8.1581  -11.5289   26.4675 C   0  0  0  0  0  0  0  0  0  0  0  0
    8.4613  -12.8762   26.3922 C   0  0  0  0  0  0  0  0  0  0  0  0
    7.4773  -13.7830   26.0578 C   0  0  0  0  0  0  0  0  0  0  0  0
   10.4464  -17.2409   25.1244 C   0  0  0  0  0  0  0  0  0  0  0  0
    9.9593  -18.3879   24.9923 O   0  0  0  0  0  0  0  0  0  0  0  0
   16.5676  -15.6286   19.9198 N   0  0  0  0  0  0  0  0  0  0  0  0
   15.3680  -15.1959   20.5349 C   0  0  0  0  0  0  0  0  0  0  0  0
   15.1614  -13.9172   20.5676 N   0  0  0  0  0  0  0  0  0  0  0  0
   14.4197  -16.0682   21.0983 N   0  0  0  0  0  0  0  0  0  0  0  0
   14.8202  -16.9040   22.2733 C   0  0  0  0  0  0  0  0  0  0  0  0
   13.6930  -17.0235   23.2114 C   0  0  0  0  0  0  0  0  0  0  0  0
   13.8618  -17.7491   24.4450 C   0  0  0  0  0  0  0  0  0  0  0  0
   12.7729  -18.2546   25.2947 C   0  0  2  0  0  0  0  0  0  0  0  0
   11.7994  -17.1469   25.4711 N   0  0  0  0  0  0  0  0  0  0  0  0
   13.0202  -18.7959   26.6116 C   0  0  0  0  0  0  0  0  0  0  0  0
   12.8618  -18.2600   27.8599 O   0  0  0  0  0  0  0  0  0  0  0  0
   13.4832  -20.0132   26.6566 O   0  0  0  0  0  0  0  0  0  0  0  0
  2  1  1  0
  2 12  2  0
  3  2  1  0
  4  3  2  0
  4  5  1  0
  5 11  2  0
  6  7  1  0
  6  5  1  0
  7  8  1  1
  9  7  1  0
  9 13  1  0
 10  9  2  0
 11 12  1  0
 14 25  1  0
 14 13  1  0
 14 15  1  1
 16 15  1  0
 16 24  1  0
 17 18  1  0
 17 16  2  0
 18 19  1  0
 19 24  2  0
 19 20  1  0
 20 21  2  0
 21 22  1  0
 23 22  2  0
 24 23  1  0
 25 26  2  0
 27 28  1  0
 28 29  2  0
 30 28  1  0
 30 31  1  0
 32 33  1  0
 32 31  1  0
 34 33  1  1
 34 36  1  0
 35 34  1  0
 35 25  1  0
 36 37  1  0
 38 36  2  0
M  END
$$$$
