YWR.pdb
     RDKit          3D

 38 40  0  0  1  0  0  0  0  0999 V2000
    6.4733  -13.0490   16.8519 O   0  0  0  0  0  0  0  0  0  0  0  0
    7.5499  -13.7270   17.4614 C   0  0  0  0  0  0  0  0  0  0  0  0
    8.2522  -13.1168   18.4791 C   0  0  0  0  0  0  0  0  0  0  0  0
    9.3134  -13.7810   19.0828 C   0  0  0  0  0  0  0  0  0  0  0  0
    9.7126  -15.0457   18.7119 C   0  0  0  0  0  0  0  0  0  0  0  0
   10.8380  -15.7687   19.3431 C   0  0  0  0  0  0  0  0  0  0  0  0
   10.4615  -16.7508   20.3905 C   0  0  2  0  0  0  0  0  0  0  0  0
    9.2774  -17.5228   20.0002 N   0  0  0  0  0  0  0  0  0  0  0  0
   10.3254  -16.2683   21.7574 C   0  0  0  0  0  0  0  0  0  0  0  0
   11.3797  -15.9497   22.4127 O   0  0  0  0  0  0  0  0  0  0  0  0
    8.9835  -15.6442   17.6763 C   0  0  0  0  0  0  0  0  0  0  0  0
    7.9266  -14.9869   17.0730 C   0  0  0  0  0  0  0  0  0  0  0  0
    9.0942  -16.1036   22.4685 N   0  0  0  0  0  0  0  0  0  0  0  0
    9.0637  -15.7034   23.8389 C   0  0  1  0  0  0  0  0  0  0  0  0
    7.7047  -15.1622   24.2456 C   0  0  0  0  0  0  0  0  0  0  0  0
    7.6543  -14.6644   25.6211 C   0  0  0  0  0  0  0  0  0  0  0  0
    8.0231  -15.3416   26.7640 C   0  0  0  0  0  0  0  0  0  0  0  0
    7.8351  -14.5628   27.8446 N   0  0  0  0  0  0  0  0  0  0  0  0
    7.3397  -13.3596   27.4345 C   0  0  0  0  0  0  0  0  0  0  0  0
    6.9783  -12.2191   28.1175 C   0  0  0  0  0  0  0  0  0  0  0  0
    6.4958  -11.1082   27.4513 C   0  0  0  0  0  0  0  0  0  0  0  0
    6.3913  -11.1852   26.0893 C   0  0  0  0  0  0  0  0  0  0  0  0
    6.7457  -12.3158   25.3757 C   0  0  0  0  0  0  0  0  0  0  0  0
    7.2270  -13.4239   26.0410 C   0  0  0  0  0  0  0  0  0  0  0  0
    9.3383  -16.8213   24.7733 C   0  0  0  0  0  0  0  0  0  0  0  0
    8.5601  -17.8035   24.7752 O   0  0  0  0  0  0  0  0  0  0  0  0
   14.8498  -20.1666   21.8030 N   0  0  0  0  0  0  0  0  0  0  0  0
   13.6738  -19.3784   21.8172 C   0  0  0  0  0  0  0  0  0  0  0  0
   13.3909  -18.7389   20.7263 N   0  0  0  0  0  0  0  0  0  0  0  0
   12.8254  -19.2603   22.9325 N   0  0  0  0  0  0  0  0  0  0  0  0
   13.1213  -20.0775   24.1508 C   0  0  0  0  0  0  0  0  0  0  0  0
   12.0734  -19.8679   25.1621 C   0  0  0  0  0  0  0  0  0  0  0  0
   12.0038  -18.6160   25.8724 C   0  0  0  0  0  0  0  0  0  0  0  0
   10.7900  -18.0390   26.4700 C   0  0  2  0  0  0  0  0  0  0  0  0
   10.4210  -16.8501   25.6602 N   0  0  0  0  0  0  0  0  0  0  0  0
   10.7432  -17.6230   27.8532 C   0  0  0  0  0  0  0  0  0  0  0  0
   10.8135  -18.3335   29.0197 O   0  0  0  0  0  0  0  0  0  0  0  0
   10.6053  -16.3447   28.0661 O   0  0  0  0  0  0  0  0  0  0  0  0
  2  1  1  0
  2 12  2  0
  3  2  1  0
  4  3  2  0
  4  5  1  0
  5 11  2  0
  6  7  1  0
  6  5  1  0
  7  8  1  6
  9  7  1  0
  9 13  1  0
 10  9  2  0
 11 12  1  0
 14 25  1  0
 14 13  1  0
 14 15  1  1
 16 15  1  0
 16 24  1  0
 17 18  1  0
 17 16  2  0
 18 19  1  0
 19 24  2  0
 19 20  1  0
 20 21  2  0
 21 22  1  0
 23 22  2  0
 24 23  1  0
 25 26  2  0
 27 28  1  0
 28 29  2  0
 30 28  1  0
 30 31  1  0
 32 33  1  0
 32 31  1  0
 34 33  1  6
 34 36  1  0
 35 34  1  0
 35 25  1  0
 36 37  1  0
 38 36  2  0
M  END
$$$$
