YWR.pdb
     RDKit          3D

 38 40  0  0  1  0  0  0  0  0999 V2000
    7.3131  -14.2701   13.3465 O   0  0  0  0  0  0  0  0  0  0  0  0
    7.4990  -14.6812   14.6831 C   0  0  0  0  0  0  0  0  0  0  0  0
    7.6028  -13.7344   15.6801 C   0  0  0  0  0  0  0  0  0  0  0  0
    7.7857  -14.1345   16.9985 C   0  0  0  0  0  0  0  0  0  0  0  0
    7.8714  -15.4568   17.3738 C   0  0  0  0  0  0  0  0  0  0  0  0
    8.0646  -15.9019   18.7710 C   0  0  0  0  0  0  0  0  0  0  0  0
    9.3101  -15.4311   19.4270 C   0  0  2  0  0  0  0  0  0  0  0  0
   10.4903  -16.1162   18.8899 N   0  0  0  0  0  0  0  0  0  0  0  0
    9.3489  -15.4179   20.8823 C   0  0  0  0  0  0  0  0  0  0  0  0
   10.1154  -16.2445   21.4919 O   0  0  0  0  0  0  0  0  0  0  0  0
    7.7629  -16.3992   16.3431 C   0  0  0  0  0  0  0  0  0  0  0  0
    7.5806  -16.0053   15.0299 C   0  0  0  0  0  0  0  0  0  0  0  0
    8.5969  -14.5456   21.7320 N   0  0  0  0  0  0  0  0  0  0  0  0
    8.7461  -14.5645   23.1521 C   0  0  1  0  0  0  0  0  0  0  0  0
    8.0106  -13.4157   23.8189 C   0  0  0  0  0  0  0  0  0  0  0  0
    8.0829  -13.4368   25.2806 C   0  0  0  0  0  0  0  0  0  0  0  0
    8.7951  -14.3191   26.0649 C   0  0  0  0  0  0  0  0  0  0  0  0
    8.6177  -14.0290   27.3664 N   0  0  0  0  0  0  0  0  0  0  0  0
    7.7866  -12.9515   27.4639 C   0  0  0  0  0  0  0  0  0  0  0  0
    7.2883  -12.2537   28.5421 C   0  0  0  0  0  0  0  0  0  0  0  0
    6.4469  -11.1709   28.3674 C   0  0  0  0  0  0  0  0  0  0  0  0
    6.1288  -10.8198   27.0838 C   0  0  0  0  0  0  0  0  0  0  0  0
    6.6126  -11.5005   25.9815 C   0  0  0  0  0  0  0  0  0  0  0  0
    7.4521  -12.5808   26.1565 C   0  0  0  0  0  0  0  0  0  0  0  0
    8.2009  -15.7951   23.7738 C   0  0  0  0  0  0  0  0  0  0  0  0
    7.1508  -16.2889   23.3008 O   0  0  0  0  0  0  0  0  0  0  0  0
   13.3700  -21.9572   23.0581 N   0  0  0  0  0  0  0  0  0  0  0  0
   12.9033  -21.0385   22.0871 C   0  0  0  0  0  0  0  0  0  0  0  0
   13.7896  -20.2577   21.5542 N   0  0  0  0  0  0  0  0  0  0  0  0
   11.5584  -20.9373   21.6894 N   0  0  0  0  0  0  0  0  0  0  0  0
   10.8714  -19.6130   21.8066 C   0  0  0  0  0  0  0  0  0  0  0  0
   10.3551  -19.4348   23.1728 C   0  0  0  0  0  0  0  0  0  0  0  0
    9.7231  -18.1939   23.5434 C   0  0  0  0  0  0  0  0  0  0  0  0
    9.1534  -17.8863   24.8641 C   0  0  2  0  0  0  0  0  0  0  0  0
    8.7900  -16.4464   24.8641 N   0  0  0  0  0  0  0  0  0  0  0  0
    9.8871  -18.1234   26.0864 C   0  0  0  0  0  0  0  0  0  0  0  0
   10.7146  -17.3197   26.8211 O   0  0  0  0  0  0  0  0  0  0  0  0
    9.7652  -19.3102   26.6107 O   0  0  0  0  0  0  0  0  0  0  0  0
  2  1  1  0
  2 12  2  0
  3  2  1  0
  4  3  2  0
  4  5  1  0
  5 11  2  0
  6  7  1  0
  6  5  1  0
  7  8  1  6
  9  7  1  0
  9 13  1  0
 10  9  2  0
 11 12  1  0
 14 25  1  0
 14 13  1  0
 14 15  1  1
 16 15  1  0
 16 24  1  0
 17 18  1  0
 17 16  2  0
 18 19  1  0
 19 24  2  0
 19 20  1  0
 20 21  2  0
 21 22  1  0
 23 22  2  0
 24 23  1  0
 25 26  2  0
 27 28  1  0
 28 29  2  0
 30 28  1  0
 30 31  1  0
 32 33  1  0
 32 31  1  0
 34 33  1  6
 34 36  1  0
 35 34  1  0
 35 25  1  0
 36 37  1  0
 38 36  2  0
M  END
$$$$
