YWR.pdb
     RDKit          3D

 38 40  0  0  1  0  0  0  0  0999 V2000
    7.8785  -14.7985   12.9690 O   0  0  0  0  0  0  0  0  0  0  0  0
    8.0966  -14.5958   14.3480 C   0  0  0  0  0  0  0  0  0  0  0  0
    7.3756  -13.6302   15.0181 C   0  0  0  0  0  0  0  0  0  0  0  0
    7.5867  -13.4270   16.3767 C   0  0  0  0  0  0  0  0  0  0  0  0
    8.4986  -14.1541   17.1090 C   0  0  0  0  0  0  0  0  0  0  0  0
    8.7362  -13.9533   18.5550 C   0  0  0  0  0  0  0  0  0  0  0  0
    8.9606  -15.1897   19.3451 C   0  0  2  0  0  0  0  0  0  0  0  0
    7.9894  -16.2318   18.9964 N   0  0  0  0  0  0  0  0  0  0  0  0
    9.0710  -15.0617   20.7911 C   0  0  0  0  0  0  0  0  0  0  0  0
    9.9807  -14.3034   21.2811 O   0  0  0  0  0  0  0  0  0  0  0  0
    9.2181  -15.1288   16.4059 C   0  0  0  0  0  0  0  0  0  0  0  0
    9.0110  -15.3344   15.0539 C   0  0  0  0  0  0  0  0  0  0  0  0
    8.2386  -15.7141   21.7555 N   0  0  0  0  0  0  0  0  0  0  0  0
    8.4164  -15.5190   23.1588 C   0  0  1  0  0  0  0  0  0  0  0  0
    7.0954  -15.5179   23.9072 C   0  0  0  0  0  0  0  0  0  0  0  0
    7.1983  -15.0419   25.2874 C   0  0  0  0  0  0  0  0  0  0  0  0
    7.2478  -15.8114   26.4303 C   0  0  0  0  0  0  0  0  0  0  0  0
    7.3392  -15.0224   27.5161 N   0  0  0  0  0  0  0  0  0  0  0  0
    7.3516  -13.7202   27.1094 C   0  0  0  0  0  0  0  0  0  0  0  0
    7.4322  -12.5298   27.7980 C   0  0  0  0  0  0  0  0  0  0  0  0
    7.4288  -11.3172   27.1344 C   0  0  0  0  0  0  0  0  0  0  0  0
    7.3426  -11.3452   25.7692 C   0  0  0  0  0  0  0  0  0  0  0  0
    7.2603  -12.5236   25.0501 C   0  0  0  0  0  0  0  0  0  0  0  0
    7.2636  -13.7332   25.7127 C   0  0  0  0  0  0  0  0  0  0  0  0
    9.2271  -16.5865   23.7922 C   0  0  0  0  0  0  0  0  0  0  0  0
    8.8227  -17.7700   23.7142 O   0  0  0  0  0  0  0  0  0  0  0  0
   13.6263  -16.9439   19.3243 N   0  0  0  0  0  0  0  0  0  0  0  0
   13.6852  -15.8374   20.2057 C   0  0  0  0  0  0  0  0  0  0  0  0
   13.4107  -14.6770   19.6990 N   0  0  0  0  0  0  0  0  0  0  0  0
   14.0218  -15.9398   21.5672 N   0  0  0  0  0  0  0  0  0  0  0  0
   13.9370  -17.2788   22.2302 C   0  0  0  0  0  0  0  0  0  0  0  0
   12.6186  -17.4431   22.8622 C   0  0  0  0  0  0  0  0  0  0  0  0
   12.5133  -17.4862   24.2988 C   0  0  0  0  0  0  0  0  0  0  0  0
   11.2593  -17.4339   25.0656 C   0  0  2  0  0  0  0  0  0  0  0  0
   10.4261  -16.3547   24.4768 N   0  0  0  0  0  0  0  0  0  0  0  0
   11.2467  -17.2269   26.4958 C   0  0  0  0  0  0  0  0  0  0  0  0
   11.6585  -18.0175   27.5330 O   0  0  0  0  0  0  0  0  0  0  0  0
   10.7566  -16.0925   26.9096 O   0  0  0  0  0  0  0  0  0  0  0  0
  2  1  1  0
  2 12  2  0
  3  2  1  0
  4  3  2  0
  4  5  1  0
  5 11  2  0
  6  7  1  0
  6  5  1  0
  7  8  1  1
  9  7  1  0
  9 13  1  0
 10  9  2  0
 11 12  1  0
 14 25  1  0
 14 13  1  0
 14 15  1  1
 16 15  1  0
 16 24  1  0
 17 18  1  0
 17 16  2  0
 18 19  1  0
 19 24  2  0
 19 20  1  0
 20 21  2  0
 21 22  1  0
 23 22  2  0
 24 23  1  0
 25 26  2  0
 27 28  1  0
 28 29  2  0
 30 28  1  0
 30 31  1  0
 32 33  1  0
 32 31  1  0
 34 33  1  6
 34 36  1  0
 35 34  1  0
 35 25  1  0
 36 37  1  0
 38 36  2  0
M  END
$$$$
