YWR.pdb
     RDKit          3D

 38 40  0  0  1  0  0  0  0  0999 V2000
    8.4790  -14.5683   14.1260 O   0  0  0  0  0  0  0  0  0  0  0  0
    8.5988  -14.4320   15.5250 C   0  0  0  0  0  0  0  0  0  0  0  0
    9.0745  -15.4867   16.2751 C   0  0  0  0  0  0  0  0  0  0  0  0
    9.1946  -15.3570   17.6536 C   0  0  0  0  0  0  0  0  0  0  0  0
    8.8563  -14.2055   18.3290 C   0  0  0  0  0  0  0  0  0  0  0  0
    8.9783  -14.0483   19.7946 C   0  0  0  0  0  0  0  0  0  0  0  0
    7.9829  -14.7948   20.6040 C   0  0  2  0  0  0  0  0  0  0  0  0
    6.6156  -14.3503   20.3147 N   0  0  0  0  0  0  0  0  0  0  0  0
    8.1977  -14.8740   22.0418 C   0  0  0  0  0  0  0  0  0  0  0  0
    8.3326  -13.7896   22.7115 O   0  0  0  0  0  0  0  0  0  0  0  0
    8.3760  -13.1487   17.5450 C   0  0  0  0  0  0  0  0  0  0  0  0
    8.2551  -13.2734   16.1728 C   0  0  0  0  0  0  0  0  0  0  0  0
    8.2727  -16.0779   22.8121 N   0  0  0  0  0  0  0  0  0  0  0  0
    9.0602  -16.1641   24.0001 C   0  0  1  0  0  0  0  0  0  0  0  0
    8.2140  -16.4570   25.2262 C   0  0  0  0  0  0  0  0  0  0  0  0
    7.2314  -15.4153   25.5289 C   0  0  0  0  0  0  0  0  0  0  0  0
    5.8757  -15.4544   25.2808 C   0  0  0  0  0  0  0  0  0  0  0  0
    5.2963  -14.3130   25.6944 N   0  0  0  0  0  0  0  0  0  0  0  0
    6.2579  -13.5018   26.2221 C   0  0  0  0  0  0  0  0  0  0  0  0
    6.2115  -12.2437   26.7815 C   0  0  0  0  0  0  0  0  0  0  0  0
    7.3548  -11.6283   27.2556 C   0  0  0  0  0  0  0  0  0  0  0  0
    8.5326  -12.3162   27.1479 C   0  0  0  0  0  0  0  0  0  0  0  0
    8.6113  -13.5798   26.5912 C   0  0  0  0  0  0  0  0  0  0  0  0
    7.4702  -14.1933   26.1183 C   0  0  0  0  0  0  0  0  0  0  0  0
   10.0675  -17.2508   23.9479 C   0  0  0  0  0  0  0  0  0  0  0  0
    9.8160  -18.2661   23.2578 O   0  0  0  0  0  0  0  0  0  0  0  0
   14.0619  -14.2168   18.2266 N   0  0  0  0  0  0  0  0  0  0  0  0
   15.0205  -15.1734   18.6397 C   0  0  0  0  0  0  0  0  0  0  0  0
   16.0238  -15.3701   17.8437 N   0  0  0  0  0  0  0  0  0  0  0  0
   14.9322  -15.9003   19.8402 N   0  0  0  0  0  0  0  0  0  0  0  0
   13.8053  -15.6038   20.7792 C   0  0  0  0  0  0  0  0  0  0  0  0
   13.8232  -16.5559   21.9008 C   0  0  0  0  0  0  0  0  0  0  0  0
   12.7424  -16.5600   22.8540 C   0  0  0  0  0  0  0  0  0  0  0  0
   12.5988  -17.4969   23.9787 C   0  0  2  0  0  0  0  0  0  0  0  0
   11.2921  -17.2141   24.6253 N   0  0  0  0  0  0  0  0  0  0  0  0
   13.5747  -17.5689   25.0421 C   0  0  0  0  0  0  0  0  0  0  0  0
   14.7078  -18.3209   25.1875 O   0  0  0  0  0  0  0  0  0  0  0  0
   13.3675  -16.7925   26.0681 O   0  0  0  0  0  0  0  0  0  0  0  0
  2  1  1  0
  2 12  2  0
  3  2  1  0
  4  3  2  0
  4  5  1  0
  5 11  2  0
  6  7  1  0
  6  5  1  0
  7  8  1  1
  9  7  1  0
  9 13  1  0
 10  9  2  0
 11 12  1  0
 14 25  1  0
 14 13  1  0
 14 15  1  1
 16 15  1  0
 16 24  1  0
 17 18  1  0
 17 16  2  0
 18 19  1  0
 19 24  2  0
 19 20  1  0
 20 21  2  0
 21 22  1  0
 23 22  2  0
 24 23  1  0
 25 26  2  0
 27 28  1  0
 28 29  2  0
 30 28  1  0
 30 31  1  0
 32 33  1  0
 32 31  1  0
 34 33  1  6
 34 36  1  0
 35 34  1  0
 35 25  1  0
 36 37  1  0
 38 36  2  0
M  END
$$$$
