YWR.pdb
     RDKit          3D

 38 40  0  0  1  0  0  0  0  0999 V2000
   11.9037  -17.0586   32.4316 O   0  0  0  0  0  0  0  0  0  0  0  0
   11.5595  -16.8583   31.0783 C   0  0  0  0  0  0  0  0  0  0  0  0
   11.5603  -15.5824   30.5555 C   0  0  0  0  0  0  0  0  0  0  0  0
   11.2222  -15.3802   29.2227 C   0  0  0  0  0  0  0  0  0  0  0  0
   10.8775  -16.4085   28.3741 C   0  0  0  0  0  0  0  0  0  0  0  0
   10.5160  -16.2132   26.9532 C   0  0  0  0  0  0  0  0  0  0  0  0
   10.2023  -17.4509   26.1961 C   0  0  2  0  0  0  0  0  0  0  0  0
   11.3184  -18.4013   26.2370 N   0  0  0  0  0  0  0  0  0  0  0  0
    9.7066  -17.3077   24.8347 C   0  0  0  0  0  0  0  0  0  0  0  0
   10.0562  -18.1681   23.9515 O   0  0  0  0  0  0  0  0  0  0  0  0
   10.8842  -17.6949   28.9286 C   0  0  0  0  0  0  0  0  0  0  0  0
   11.2203  -17.9006   30.2544 C   0  0  0  0  0  0  0  0  0  0  0  0
    8.8368  -16.2728   24.3648 N   0  0  0  0  0  0  0  0  0  0  0  0
    8.2865  -16.2919   23.0473 C   0  0  1  0  0  0  0  0  0  0  0  0
    7.2914  -15.1664   22.8276 C   0  0  0  0  0  0  0  0  0  0  0  0
    6.7015  -14.6495   24.0634 C   0  0  0  0  0  0  0  0  0  0  0  0
    5.9598  -15.3535   24.9881 C   0  0  0  0  0  0  0  0  0  0  0  0
    5.5841  -14.5432   25.9940 N   0  0  0  0  0  0  0  0  0  0  0  0
    6.0705  -13.2919   25.7512 C   0  0  0  0  0  0  0  0  0  0  0  0
    5.9835  -12.1069   26.4483 C   0  0  0  0  0  0  0  0  0  0  0  0
    6.5823  -10.9534   25.9773 C   0  0  0  0  0  0  0  0  0  0  0  0
    7.2637  -11.0344   24.7937 C   0  0  0  0  0  0  0  0  0  0  0  0
    7.3686  -12.2088   24.0709 C   0  0  0  0  0  0  0  0  0  0  0  0
    6.7709  -13.3594   24.5414 C   0  0  0  0  0  0  0  0  0  0  0  0
    9.3124  -16.1225   21.9904 C   0  0  0  0  0  0  0  0  0  0  0  0
    9.9981  -15.0736   21.9857 O   0  0  0  0  0  0  0  0  0  0  0  0
   16.3557  -19.4545   19.4101 N   0  0  0  0  0  0  0  0  0  0  0  0
   15.2665  -19.6190   20.2996 C   0  0  0  0  0  0  0  0  0  0  0  0
   15.5576  -19.7432   21.5561 N   0  0  0  0  0  0  0  0  0  0  0  0
   13.9217  -19.6552   19.8904 N   0  0  0  0  0  0  0  0  0  0  0  0
   12.8604  -19.8615   20.9251 C   0  0  0  0  0  0  0  0  0  0  0  0
   12.0520  -18.6402   21.0650 C   0  0  0  0  0  0  0  0  0  0  0  0
   11.4444  -18.0463   19.9011 C   0  0  0  0  0  0  0  0  0  0  0  0
   10.5609  -16.8704   19.9045 C   0  0  2  0  0  0  0  0  0  0  0  0
    9.5665  -17.0679   20.9896 N   0  0  0  0  0  0  0  0  0  0  0  0
    9.8146  -16.4724   18.7326 C   0  0  0  0  0  0  0  0  0  0  0  0
    8.4704  -16.3799   18.4983 O   0  0  0  0  0  0  0  0  0  0  0  0
   10.5179  -16.1379   17.6878 O   0  0  0  0  0  0  0  0  0  0  0  0
  2  1  1  0
  2 12  2  0
  3  2  1  0
  4  3  2  0
  4  5  1  0
  5 11  2  0
  6  7  1  0
  6  5  1  0
  7  8  1  6
  9  7  1  0
  9 13  1  0
 10  9  2  0
 11 12  1  0
 14 25  1  0
 14 13  1  0
 14 15  1  1
 16 15  1  0
 16 24  1  0
 17 18  1  0
 17 16  2  0
 18 19  1  0
 19 24  2  0
 19 20  1  0
 20 21  2  0
 21 22  1  0
 23 22  2  0
 24 23  1  0
 25 26  2  0
 27 28  1  0
 28 29  2  0
 30 28  1  0
 30 31  1  0
 32 33  1  0
 32 31  1  0
 34 33  1  6
 34 36  1  0
 35 34  1  0
 35 25  1  0
 36 37  1  0
 38 36  2  0
M  END
$$$$
