TQR.pdb
     RDKit          3D

 28 27  0  0  1  0  0  0  0  0999 V2000
    7.3243  -12.4089   20.1109 C   0  0  0  0  0  0  0  0  0  0  0  0
    7.9462  -13.1346   18.9822 C   0  0  1  0  0  0  0  0  0  0  0  0
    8.1997  -12.3525   17.8602 O   0  0  0  0  0  0  0  0  0  0  0  0
    9.2159  -13.8932   19.3155 C   0  0  2  0  0  0  0  0  0  0  0  0
    9.8179  -14.1783   17.9986 N   0  0  0  0  0  0  0  0  0  0  0  0
    8.9812  -15.0964   20.1078 C   0  0  0  0  0  0  0  0  0  0  0  0
    8.3262  -14.9385   21.2079 O   0  0  0  0  0  0  0  0  0  0  0  0
    8.7146  -21.1816   18.4473 N   0  0  0  0  0  0  0  0  0  0  0  0
    7.8435  -20.0682   18.2066 C   0  0  0  0  0  0  0  0  0  0  0  0
    7.0014  -20.2411   17.2933 O   0  0  0  0  0  0  0  0  0  0  0  0
    7.9689  -18.8554   18.9945 C   0  0  0  0  0  0  0  0  0  0  0  0
    9.0293  -18.8138   20.0194 C   0  0  0  0  0  0  0  0  0  0  0  0
    9.1798  -17.5178   20.7877 C   0  0  2  0  0  0  0  0  0  0  0  0
    9.3808  -16.4206   19.8159 N   0  0  0  0  0  0  0  0  0  0  0  0
   10.3158  -17.5992   21.7238 C   0  0  0  0  0  0  0  0  0  0  0  0
   11.3015  -16.8066   21.5852 O   0  0  0  0  0  0  0  0  0  0  0  0
    8.4227  -13.6994   27.9231 N   0  0  0  0  0  0  0  0  0  0  0  0
    9.5847  -14.2651   28.4986 C   0  0  0  0  0  0  0  0  0  0  0  0
    9.8829  -14.0057   29.7396 N   0  0  0  0  0  0  0  0  0  0  0  0
   10.4822  -15.1206   27.8280 N   0  0  0  0  0  0  0  0  0  0  0  0
   10.4676  -15.3927   26.4330 C   0  0  0  0  0  0  0  0  0  0  0  0
    9.7326  -16.5274   25.9354 C   0  0  0  0  0  0  0  0  0  0  0  0
    9.9079  -16.9570   24.5441 C   0  0  0  0  0  0  0  0  0  0  0  0
   10.8082  -18.0892   24.1763 C   0  0  2  0  0  0  0  0  0  0  0  0
   10.3911  -18.5059   22.7872 N   0  0  0  0  0  0  0  0  0  0  0  0
   10.7548  -19.3261   24.9315 C   0  0  0  0  0  0  0  0  0  0  0  0
   11.6019  -19.7554   25.9351 O   0  0  0  0  0  0  0  0  0  0  0  0
    9.8212  -20.1663   24.6674 O   0  0  0  0  0  0  0  0  0  0  0  0
  2  1  1  1
  2  3  1  0
  4  5  1  6
  4  2  1  0
  6  4  1  0
  7  6  2  0
  9  8  1  0
  9 10  2  0
 11 12  1  0
 11  9  1  0
 13 12  1  6
 13 14  1  0
 14  6  1  0
 15 13  1  0
 15 16  2  0
 18 17  1  0
 19 18  2  0
 20 18  1  0
 21 20  1  0
 22 23  1  0
 22 21  1  0
 24 23  1  1
 24 25  1  0
 25 15  1  0
 26 24  1  0
 27 26  1  0
 28 26  2  0
M  END
$$$$
