TQR.pdb
     RDKit          3D

 28 27  0  0  1  0  0  0  0  0999 V2000
    7.3712  -12.0923   19.1786 C   0  0  0  0  0  0  0  0  0  0  0  0
    8.3823  -13.1192   19.5113 C   0  0  1  0  0  0  0  0  0  0  0  0
    7.8993  -14.1852   20.2631 O   0  0  0  0  0  0  0  0  0  0  0  0
    9.1434  -13.6909   18.3313 C   0  0  2  0  0  0  0  0  0  0  0  0
    8.0970  -14.3183   17.5011 N   0  0  0  0  0  0  0  0  0  0  0  0
   10.1988  -14.6219   18.7183 C   0  0  0  0  0  0  0  0  0  0  0  0
    9.8902  -15.8744   18.7054 O   0  0  0  0  0  0  0  0  0  0  0  0
   15.8015  -14.3915   16.5817 N   0  0  0  0  0  0  0  0  0  0  0  0
   15.5432  -13.7939   17.8595 C   0  0  0  0  0  0  0  0  0  0  0  0
   16.5148  -13.1832   18.3657 O   0  0  0  0  0  0  0  0  0  0  0  0
   14.2338  -13.9148   18.4743 C   0  0  0  0  0  0  0  0  0  0  0  0
   13.7271  -15.2750   18.7394 C   0  0  0  0  0  0  0  0  0  0  0  0
   12.4556  -15.3783   19.5549 C   0  0  2  0  0  0  0  0  0  0  0  0
   11.5252  -14.3204   19.1035 N   0  0  0  0  0  0  0  0  0  0  0  0
   12.7489  -15.2354   20.9926 C   0  0  0  0  0  0  0  0  0  0  0  0
   12.8132  -14.0737   21.5077 O   0  0  0  0  0  0  0  0  0  0  0  0
    9.5155  -21.4677   23.4407 N   0  0  0  0  0  0  0  0  0  0  0  0
   10.9282  -21.5353   23.4748 C   0  0  0  0  0  0  0  0  0  0  0  0
   11.5601  -22.2836   22.6163 N   0  0  0  0  0  0  0  0  0  0  0  0
   11.7472  -20.8369   24.3851 N   0  0  0  0  0  0  0  0  0  0  0  0
   11.6886  -19.4388   24.6342 C   0  0  0  0  0  0  0  0  0  0  0  0
   12.5008  -18.5407   23.8537 C   0  0  0  0  0  0  0  0  0  0  0  0
   12.3739  -17.0918   24.0423 C   0  0  0  0  0  0  0  0  0  0  0  0
   13.2564  -16.1236   23.3273 C   0  0  2  0  0  0  0  0  0  0  0  0
   12.9632  -16.3132   21.8592 N   0  0  0  0  0  0  0  0  0  0  0  0
   14.6972  -16.2685   23.4065 C   0  0  0  0  0  0  0  0  0  0  0  0
   15.5297  -15.9904   24.4736 O   0  0  0  0  0  0  0  0  0  0  0  0
   15.3276  -16.7030   22.3764 O   0  0  0  0  0  0  0  0  0  0  0  0
  2  1  1  6
  2  3  1  0
  4  5  1  6
  4  2  1  0
  6  4  1  0
  7  6  2  0
  9  8  1  0
  9 10  2  0
 11 12  1  0
 11  9  1  0
 13 12  1  6
 13 14  1  0
 14  6  1  0
 15 13  1  0
 15 16  2  0
 18 17  1  0
 19 18  2  0
 20 18  1  0
 21 20  1  0
 22 23  1  0
 22 21  1  0
 24 23  1  1
 24 25  1  0
 25 15  1  0
 26 24  1  0
 27 26  1  0
 28 26  2  0
M  END
$$$$
