TQR.pdb
     RDKit          3D

 28 27  0  0  1  0  0  0  0  0999 V2000
   12.2689  -25.0959   27.6378 C   0  0  0  0  0  0  0  0  0  0  0  0
   10.8317  -25.0601   27.2908 C   0  0  1  0  0  0  0  0  0  0  0  0
   10.5456  -25.3991   25.9724 O   0  0  0  0  0  0  0  0  0  0  0  0
    9.9241  -25.8789   28.1877 C   0  0  2  0  0  0  0  0  0  0  0  0
    8.5723  -25.6309   27.6502 N   0  0  0  0  0  0  0  0  0  0  0  0
   10.0467  -25.5389   29.6019 C   0  0  0  0  0  0  0  0  0  0  0  0
    9.5677  -24.3956   29.9593 O   0  0  0  0  0  0  0  0  0  0  0  0
   10.5307  -28.9295   34.9790 N   0  0  0  0  0  0  0  0  0  0  0  0
   10.9267  -27.6108   35.3800 C   0  0  0  0  0  0  0  0  0  0  0  0
   11.1721  -27.4793   36.6029 O   0  0  0  0  0  0  0  0  0  0  0  0
   11.0235  -26.5445   34.3997 C   0  0  0  0  0  0  0  0  0  0  0  0
   10.7916  -26.8943   32.9853 C   0  0  0  0  0  0  0  0  0  0  0  0
   10.8347  -25.7552   31.9888 C   0  0  2  0  0  0  0  0  0  0  0  0
   10.6242  -26.3125   30.6347 N   0  0  0  0  0  0  0  0  0  0  0  0
   12.1258  -25.0477   32.0660 C   0  0  0  0  0  0  0  0  0  0  0  0
   13.2020  -25.6750   31.8064 O   0  0  0  0  0  0  0  0  0  0  0  0
   17.8001  -22.1135   27.3984 N   0  0  0  0  0  0  0  0  0  0  0  0
   18.1503  -21.6501   28.6884 C   0  0  0  0  0  0  0  0  0  0  0  0
   19.3708  -21.2628   28.9264 N   0  0  0  0  0  0  0  0  0  0  0  0
   17.2644  -21.5613   29.7813 N   0  0  0  0  0  0  0  0  0  0  0  0
   15.8603  -21.7724   29.7175 C   0  0  0  0  0  0  0  0  0  0  0  0
   15.0642  -21.6394   30.9106 C   0  0  0  0  0  0  0  0  0  0  0  0
   13.9598  -22.5722   31.1585 C   0  0  0  0  0  0  0  0  0  0  0  0
   13.6051  -23.0256   32.5355 C   0  0  2  0  0  0  0  0  0  0  0  0
   12.2598  -23.6974   32.4087 N   0  0  0  0  0  0  0  0  0  0  0  0
   13.3974  -22.0465   33.5848 C   0  0  0  0  0  0  0  0  0  0  0  0
   12.2671  -21.8378   34.3515 O   0  0  0  0  0  0  0  0  0  0  0  0
   14.3561  -21.2432   33.8728 O   0  0  0  0  0  0  0  0  0  0  0  0
  2  1  1  1
  2  3  1  0
  4  5  1  6
  4  2  1  0
  6  4  1  0
  7  6  2  0
  9  8  1  0
  9 10  2  0
 11 12  1  0
 11  9  1  0
 13 12  1  1
 13 14  1  0
 14  6  1  0
 15 13  1  0
 15 16  2  0
 18 17  1  0
 19 18  2  0
 20 18  1  0
 21 20  1  0
 22 23  1  0
 22 21  1  0
 24 23  1  6
 24 25  1  0
 25 15  1  0
 26 24  1  0
 27 26  1  0
 28 26  2  0
M  END
$$$$
