TQR.pdb
     RDKit          3D

 28 27  0  0  1  0  0  0  0  0999 V2000
    6.2042  -17.4873   25.6485 C   0  0  0  0  0  0  0  0  0  0  0  0
    6.2024  -18.8285   25.0251 C   0  0  1  0  0  0  0  0  0  0  0  0
    5.3883  -19.7609   25.6596 O   0  0  0  0  0  0  0  0  0  0  0  0
    5.8762  -18.8587   23.5448 C   0  0  2  0  0  0  0  0  0  0  0  0
    5.8096  -20.2973   23.2229 N   0  0  0  0  0  0  0  0  0  0  0  0
    6.8416  -18.1347   22.7236 C   0  0  0  0  0  0  0  0  0  0  0  0
    7.9087  -18.7795   22.3923 O   0  0  0  0  0  0  0  0  0  0  0  0
    6.4249  -13.1069   18.7218 N   0  0  0  0  0  0  0  0  0  0  0  0
    7.8088  -13.4806   18.7630 C   0  0  0  0  0  0  0  0  0  0  0  0
    8.5112  -13.0182   17.8324 O   0  0  0  0  0  0  0  0  0  0  0  0
    8.3073  -14.3311   19.8286 C   0  0  0  0  0  0  0  0  0  0  0  0
    7.3250  -15.1499   20.5645 C   0  0  0  0  0  0  0  0  0  0  0  0
    7.8827  -16.1651   21.5396 C   0  0  2  0  0  0  0  0  0  0  0  0
    6.7502  -16.8093   22.2402 N   0  0  0  0  0  0  0  0  0  0  0  0
    8.7893  -15.5147   22.5031 C   0  0  0  0  0  0  0  0  0  0  0  0
    8.3028  -14.8425   23.4677 O   0  0  0  0  0  0  0  0  0  0  0  0
    9.9944  -16.2378   30.1442 N   0  0  0  0  0  0  0  0  0  0  0  0
   10.1259  -15.2834   29.1082 C   0  0  0  0  0  0  0  0  0  0  0  0
    9.6769  -14.0735   29.2838 N   0  0  0  0  0  0  0  0  0  0  0  0
   10.7253  -15.5295   27.8563 N   0  0  0  0  0  0  0  0  0  0  0  0
   10.5794  -16.7230   27.0983 C   0  0  0  0  0  0  0  0  0  0  0  0
   11.2739  -16.8603   25.8437 C   0  0  0  0  0  0  0  0  0  0  0  0
   10.5799  -16.5542   24.5884 C   0  0  0  0  0  0  0  0  0  0  0  0
   11.0587  -15.4852   23.6634 C   0  0  2  0  0  0  0  0  0  0  0  0
   10.1854  -15.5872   22.4370 N   0  0  0  0  0  0  0  0  0  0  0  0
   12.4046  -15.5469   23.1271 C   0  0  0  0  0  0  0  0  0  0  0  0
   13.5351  -14.8869   23.5692 O   0  0  0  0  0  0  0  0  0  0  0  0
   12.6248  -16.2935   22.1065 O   0  0  0  0  0  0  0  0  0  0  0  0
  2  1  1  1
  2  3  1  0
  4  5  1  6
  4  2  1  0
  6  4  1  0
  7  6  2  0
  9  8  1  0
  9 10  2  0
 11 12  1  0
 11  9  1  0
 13 12  1  6
 13 14  1  0
 14  6  1  0
 15 13  1  0
 15 16  2  0
 18 17  1  0
 19 18  2  0
 20 18  1  0
 21 20  1  0
 22 23  1  0
 22 21  1  0
 24 23  1  1
 24 25  1  0
 25 15  1  0
 26 24  1  0
 27 26  1  0
 28 26  2  0
M  END
$$$$
