TQR.pdb
     RDKit          3D

 28 27  0  0  1  0  0  0  0  0999 V2000
    8.8185  -12.6112   20.5308 C   0  0  0  0  0  0  0  0  0  0  0  0
    8.0501  -13.2936   19.4672 C   0  0  1  0  0  0  0  0  0  0  0  0
    6.8717  -12.6515   19.1012 O   0  0  0  0  0  0  0  0  0  0  0  0
    8.8234  -13.6018   18.2000 C   0  0  2  0  0  0  0  0  0  0  0  0
    7.8678  -14.3663   17.3753 N   0  0  0  0  0  0  0  0  0  0  0  0
   10.0703  -14.3209   18.4423 C   0  0  0  0  0  0  0  0  0  0  0  0
    9.9829  -15.6051   18.5283 O   0  0  0  0  0  0  0  0  0  0  0  0
   16.2466  -13.1544   16.9226 N   0  0  0  0  0  0  0  0  0  0  0  0
   16.2677  -13.9694   18.1024 C   0  0  0  0  0  0  0  0  0  0  0  0
   17.3778  -14.0346   18.6824 O   0  0  0  0  0  0  0  0  0  0  0  0
   15.0623  -14.6438   18.5494 C   0  0  0  0  0  0  0  0  0  0  0  0
   13.7733  -13.9664   18.3122 C   0  0  0  0  0  0  0  0  0  0  0  0
   12.5370  -14.6509   18.8560 C   0  0  2  0  0  0  0  0  0  0  0  0
   11.3690  -13.7826   18.5910 N   0  0  0  0  0  0  0  0  0  0  0  0
   12.6792  -14.9062   20.3010 C   0  0  0  0  0  0  0  0  0  0  0  0
   12.7063  -13.9261   21.1120 O   0  0  0  0  0  0  0  0  0  0  0  0
   13.5868  -21.6867   25.1338 N   0  0  0  0  0  0  0  0  0  0  0  0
   12.4684  -21.2070   25.8550 C   0  0  0  0  0  0  0  0  0  0  0  0
   12.2403  -21.6454   27.0601 N   0  0  0  0  0  0  0  0  0  0  0  0
   11.5443  -20.2580   25.3726 N   0  0  0  0  0  0  0  0  0  0  0  0
   11.5776  -19.6646   24.0815 C   0  0  0  0  0  0  0  0  0  0  0  0
   12.2593  -18.4099   23.8907 C   0  0  0  0  0  0  0  0  0  0  0  0
   12.2319  -17.7572   22.5775 C   0  0  0  0  0  0  0  0  0  0  0  0
   12.8282  -16.4070   22.3559 C   0  0  2  0  0  0  0  0  0  0  0  0
   12.7849  -16.1830   20.8642 N   0  0  0  0  0  0  0  0  0  0  0  0
   14.2182  -16.1695   22.6940 C   0  0  0  0  0  0  0  0  0  0  0  0
   15.3337  -16.3218   21.8932 O   0  0  0  0  0  0  0  0  0  0  0  0
   14.5014  -15.7696   23.8804 O   0  0  0  0  0  0  0  0  0  0  0  0
  2  1  1  1
  2  3  1  0
  4  5  1  6
  4  2  1  0
  6  4  1  0
  7  6  2  0
  9  8  1  0
  9 10  2  0
 11 12  1  0
 11  9  1  0
 13 12  1  1
 13 14  1  0
 14  6  1  0
 15 13  1  0
 15 16  2  0
 18 17  1  0
 19 18  2  0
 20 18  1  0
 21 20  1  0
 22 23  1  0
 22 21  1  0
 24 23  1  6
 24 25  1  0
 25 15  1  0
 26 24  1  0
 27 26  1  0
 28 26  2  0
M  END
$$$$
