TQR.pdb
     RDKit          3D

 28 27  0  0  1  0  0  0  0  0999 V2000
    7.0974  -19.6221   21.4348 C   0  0  0  0  0  0  0  0  0  0  0  0
    7.6891  -18.5658   22.2842 C   0  0  1  0  0  0  0  0  0  0  0  0
    8.9880  -18.8245   22.7095 O   0  0  0  0  0  0  0  0  0  0  0  0
    7.6625  -17.1675   21.6987 C   0  0  2  0  0  0  0  0  0  0  0  0
    8.5205  -17.2648   20.5019 N   0  0  0  0  0  0  0  0  0  0  0  0
    8.1043  -16.1385   22.6349 C   0  0  0  0  0  0  0  0  0  0  0  0
    9.3704  -15.8925   22.6595 O   0  0  0  0  0  0  0  0  0  0  0  0
    4.9841  -11.5348   25.8840 N   0  0  0  0  0  0  0  0  0  0  0  0
    6.3408  -11.4485   26.3404 C   0  0  0  0  0  0  0  0  0  0  0  0
    6.5838  -10.4825   27.1026 O   0  0  0  0  0  0  0  0  0  0  0  0
    7.3193  -12.4361   25.9225 C   0  0  0  0  0  0  0  0  0  0  0  0
    6.8815  -13.4665   24.9615 C   0  0  0  0  0  0  0  0  0  0  0  0
    7.9271  -14.4670   24.5163 C   0  0  2  0  0  0  0  0  0  0  0  0
    7.3125  -15.3711   23.5197 N   0  0  0  0  0  0  0  0  0  0  0  0
    8.4368  -15.2317   25.6690 C   0  0  0  0  0  0  0  0  0  0  0  0
    7.6991  -16.1148   26.2123 O   0  0  0  0  0  0  0  0  0  0  0  0
   10.7010  -20.9295   30.4246 N   0  0  0  0  0  0  0  0  0  0  0  0
   11.8574  -20.1433   30.6388 C   0  0  0  0  0  0  0  0  0  0  0  0
   12.5920  -20.3490   31.6945 N   0  0  0  0  0  0  0  0  0  0  0  0
   12.3081  -19.1209   29.7793 N   0  0  0  0  0  0  0  0  0  0  0  0
   11.5227  -18.4853   28.7796 C   0  0  0  0  0  0  0  0  0  0  0  0
   12.0901  -17.4144   28.0009 C   0  0  0  0  0  0  0  0  0  0  0  0
   11.2548  -16.6927   27.0352 C   0  0  0  0  0  0  0  0  0  0  0  0
   10.1545  -15.7828   27.4700 C   0  0  2  0  0  0  0  0  0  0  0  0
    9.7099  -15.0575   26.2236 N   0  0  0  0  0  0  0  0  0  0  0  0
   10.4343  -14.7100   28.4047 C   0  0  0  0  0  0  0  0  0  0  0  0
   10.5096  -14.7712   29.7829 O   0  0  0  0  0  0  0  0  0  0  0  0
   10.6410  -13.5309   27.9414 O   0  0  0  0  0  0  0  0  0  0  0  0
  2  1  1  6
  2  3  1  0
  4  5  1  6
  4  2  1  0
  6  4  1  0
  7  6  2  0
  9  8  1  0
  9 10  2  0
 11 12  1  0
 11  9  1  0
 13 12  1  1
 13 14  1  0
 14  6  1  0
 15 13  1  0
 15 16  2  0
 18 17  1  0
 19 18  2  0
 20 18  1  0
 21 20  1  0
 22 23  1  0
 22 21  1  0
 24 23  1  6
 24 25  1  0
 25 15  1  0
 26 24  1  0
 27 26  1  0
 28 26  2  0
M  END
$$$$
