TQR.pdb
     RDKit          3D

 28 27  0  0  1  0  0  0  0  0999 V2000
    6.4306  -19.8424   15.1209 C   0  0  0  0  0  0  0  0  0  0  0  0
    7.2004  -19.1645   16.1865 C   0  0  1  0  0  0  0  0  0  0  0  0
    8.1276  -19.9734   16.8351 O   0  0  0  0  0  0  0  0  0  0  0  0
    7.9079  -17.8902   15.7694 C   0  0  2  0  0  0  0  0  0  0  0  0
    8.9101  -18.3435   14.7856 N   0  0  0  0  0  0  0  0  0  0  0  0
    8.4965  -17.1610   16.8886 C   0  0  0  0  0  0  0  0  0  0  0  0
    9.7568  -17.3460   17.0926 O   0  0  0  0  0  0  0  0  0  0  0  0
    6.1637  -12.4190   20.6031 N   0  0  0  0  0  0  0  0  0  0  0  0
    7.4656  -12.6897   21.1401 C   0  0  0  0  0  0  0  0  0  0  0  0
    7.7936  -11.9790   22.1201 O   0  0  0  0  0  0  0  0  0  0  0  0
    8.2993  -13.7243   20.5554 C   0  0  0  0  0  0  0  0  0  0  0  0
    7.7555  -14.4695   19.4040 C   0  0  0  0  0  0  0  0  0  0  0  0
    8.5941  -15.6167   18.8811 C   0  0  2  0  0  0  0  0  0  0  0  0
    7.8549  -16.2696   17.7785 N   0  0  0  0  0  0  0  0  0  0  0  0
    8.8820  -16.5812   19.9582 C   0  0  0  0  0  0  0  0  0  0  0  0
    8.0059  -17.4477   20.2757 O   0  0  0  0  0  0  0  0  0  0  0  0
   15.9716  -21.2160   20.3143 N   0  0  0  0  0  0  0  0  0  0  0  0
   15.0474  -21.5551   21.3303 C   0  0  0  0  0  0  0  0  0  0  0  0
   15.0334  -22.7646   21.8134 N   0  0  0  0  0  0  0  0  0  0  0  0
   14.1065  -20.6691   21.8930 N   0  0  0  0  0  0  0  0  0  0  0  0
   13.8603  -19.3426   21.4457 C   0  0  0  0  0  0  0  0  0  0  0  0
   12.7565  -18.5979   21.9956 C   0  0  0  0  0  0  0  0  0  0  0  0
   11.5180  -18.4525   21.2236 C   0  0  0  0  0  0  0  0  0  0  0  0
   10.3605  -17.6597   21.7326 C   0  0  2  0  0  0  0  0  0  0  0  0
   10.0833  -16.6194   20.6752 N   0  0  0  0  0  0  0  0  0  0  0  0
   10.5005  -16.8795   22.9470 C   0  0  0  0  0  0  0  0  0  0  0  0
   10.7587  -17.3265   24.2286 O   0  0  0  0  0  0  0  0  0  0  0  0
   10.3715  -15.6045   22.8753 O   0  0  0  0  0  0  0  0  0  0  0  0
  2  1  1  6
  2  3  1  0
  4  5  1  6
  4  2  1  0
  6  4  1  0
  7  6  2  0
  9  8  1  0
  9 10  2  0
 11 12  1  0
 11  9  1  0
 13 12  1  1
 13 14  1  0
 14  6  1  0
 15 13  1  0
 15 16  2  0
 18 17  1  0
 19 18  2  0
 20 18  1  0
 21 20  1  0
 22 23  1  0
 22 21  1  0
 24 23  1  6
 24 25  1  0
 25 15  1  0
 26 24  1  0
 27 26  1  0
 28 26  2  0
M  END
$$$$
