TQR.pdb
     RDKit          3D

 28 27  0  0  1  0  0  0  0  0999 V2000
    7.1163  -16.7936   18.8922 C   0  0  0  0  0  0  0  0  0  0  0  0
    7.5720  -16.4888   20.2659 C   0  0  1  0  0  0  0  0  0  0  0  0
    8.4727  -17.4075   20.7945 O   0  0  0  0  0  0  0  0  0  0  0  0
    8.1511  -15.1023   20.4679 C   0  0  2  0  0  0  0  0  0  0  0  0
    9.3368  -15.0789   19.5896 N   0  0  0  0  0  0  0  0  0  0  0  0
    8.4674  -14.8036   21.8612 C   0  0  0  0  0  0  0  0  0  0  0  0
    9.6088  -15.2234   22.2916 O   0  0  0  0  0  0  0  0  0  0  0  0
    5.2261  -11.4793   26.3818 N   0  0  0  0  0  0  0  0  0  0  0  0
    6.4366  -11.8944   27.0290 C   0  0  0  0  0  0  0  0  0  0  0  0
    6.5622  -11.5102   28.2162 O   0  0  0  0  0  0  0  0  0  0  0  0
    7.4093  -12.7025   26.3160 C   0  0  0  0  0  0  0  0  0  0  0  0
    7.1242  -13.0274   24.9053 C   0  0  0  0  0  0  0  0  0  0  0  0
    8.1270  -13.9136   24.1972 C   0  0  2  0  0  0  0  0  0  0  0  0
    7.6762  -14.1043   22.8012 N   0  0  0  0  0  0  0  0  0  0  0  0
    8.2500  -15.2108   24.8868 C   0  0  0  0  0  0  0  0  0  0  0  0
    7.3348  -16.0841   24.7495 O   0  0  0  0  0  0  0  0  0  0  0  0
   12.3939  -20.5715   21.2144 N   0  0  0  0  0  0  0  0  0  0  0  0
   11.3463  -21.2051   21.9233 C   0  0  0  0  0  0  0  0  0  0  0  0
   10.9273  -22.3786   21.5444 N   0  0  0  0  0  0  0  0  0  0  0  0
   10.6917  -20.6644   23.0486 N   0  0  0  0  0  0  0  0  0  0  0  0
   10.9829  -19.4049   23.6394 C   0  0  0  0  0  0  0  0  0  0  0  0
   10.2141  -18.9531   24.7709 C   0  0  0  0  0  0  0  0  0  0  0  0
   10.4811  -17.6343   25.3544 C   0  0  0  0  0  0  0  0  0  0  0  0
    9.5022  -16.9586   26.2560 C   0  0  2  0  0  0  0  0  0  0  0  0
    9.3318  -15.5658   25.7007 N   0  0  0  0  0  0  0  0  0  0  0  0
    9.8434  -16.7295   27.6467 C   0  0  0  0  0  0  0  0  0  0  0  0
    9.8499  -17.6366   28.6888 O   0  0  0  0  0  0  0  0  0  0  0  0
   10.1855  -15.5462   28.0075 O   0  0  0  0  0  0  0  0  0  0  0  0
  2  1  1  6
  2  3  1  0
  4  5  1  6
  4  2  1  0
  6  4  1  0
  7  6  2  0
  9  8  1  0
  9 10  2  0
 11 12  1  0
 11  9  1  0
 13 12  1  1
 13 14  1  0
 14  6  1  0
 15 13  1  0
 15 16  2  0
 18 17  1  0
 19 18  2  0
 20 18  1  0
 21 20  1  0
 22 23  1  0
 22 21  1  0
 24 23  1  6
 24 25  1  0
 25 15  1  0
 26 24  1  0
 27 26  1  0
 28 26  2  0
M  END
$$$$
