TQR.pdb
     RDKit          3D

 28 27  0  0  1  0  0  0  0  0999 V2000
    8.9268  -12.3842   20.4649 C   0  0  0  0  0  0  0  0  0  0  0  0
    8.1104  -13.2274   19.5651 C   0  0  1  0  0  0  0  0  0  0  0  0
    6.9060  -12.6549   19.1695 O   0  0  0  0  0  0  0  0  0  0  0  0
    8.8175  -13.7270   18.3204 C   0  0  2  0  0  0  0  0  0  0  0  0
    7.7977  -14.5426   17.6331 N   0  0  0  0  0  0  0  0  0  0  0  0
   10.0419  -14.4680   18.6074 C   0  0  0  0  0  0  0  0  0  0  0  0
    9.9445  -15.7544   18.6125 O   0  0  0  0  0  0  0  0  0  0  0  0
   17.0621  -13.3336   18.7160 N   0  0  0  0  0  0  0  0  0  0  0  0
   16.1380  -13.9344   17.7986 C   0  0  0  0  0  0  0  0  0  0  0  0
   16.3995  -13.7510   16.5857 O   0  0  0  0  0  0  0  0  0  0  0  0
   15.0023  -14.6918   18.2923 C   0  0  0  0  0  0  0  0  0  0  0  0
   13.6975  -14.0056   18.3506 C   0  0  0  0  0  0  0  0  0  0  0  0
   12.5272  -14.8159   18.8668 C   0  0  2  0  0  0  0  0  0  0  0  0
   11.3287  -13.9487   18.8777 N   0  0  0  0  0  0  0  0  0  0  0  0
   12.8098  -15.3311   20.2189 C   0  0  0  0  0  0  0  0  0  0  0  0
   13.7873  -16.1262   20.3961 O   0  0  0  0  0  0  0  0  0  0  0  0
   11.6566  -20.2884   26.6994 N   0  0  0  0  0  0  0  0  0  0  0  0
   12.7969  -19.9747   25.9231 C   0  0  0  0  0  0  0  0  0  0  0  0
   13.7032  -20.8853   25.7091 N   0  0  0  0  0  0  0  0  0  0  0  0
   13.0505  -18.7198   25.3332 N   0  0  0  0  0  0  0  0  0  0  0  0
   12.0579  -17.8326   24.8354 C   0  0  0  0  0  0  0  0  0  0  0  0
   11.5083  -18.0428   23.5205 C   0  0  0  0  0  0  0  0  0  0  0  0
   11.3506  -16.9072   22.6057 C   0  0  0  0  0  0  0  0  0  0  0  0
   12.2400  -15.7106   22.6742 C   0  0  2  0  0  0  0  0  0  0  0  0
   12.0649  -14.9976   21.3558 N   0  0  0  0  0  0  0  0  0  0  0  0
   13.6759  -15.8856   22.7768 C   0  0  0  0  0  0  0  0  0  0  0  0
   14.5410  -16.4366   21.8510 O   0  0  0  0  0  0  0  0  0  0  0  0
   14.2660  -15.4990   23.8490 O   0  0  0  0  0  0  0  0  0  0  0  0
  2  1  1  6
  2  3  1  0
  4  5  1  1
  4  2  1  0
  6  4  1  0
  7  6  2  0
  9  8  1  0
  9 10  2  0
 11 12  1  0
 11  9  1  0
 13 12  1  1
 13 14  1  0
 14  6  1  0
 15 13  1  0
 15 16  2  0
 18 17  1  0
 19 18  2  0
 20 18  1  0
 21 20  1  0
 22 23  1  0
 22 21  1  0
 24 23  1  6
 24 25  1  0
 25 15  1  0
 26 24  1  0
 27 26  1  0
 28 26  2  0
M  END
$$$$
