TQR.pdb
     RDKit          3D

 28 27  0  0  1  0  0  0  0  0999 V2000
    7.1868  -12.3885   19.7433 C   0  0  0  0  0  0  0  0  0  0  0  0
    8.4011  -13.2307   19.8022 C   0  0  1  0  0  0  0  0  0  0  0  0
    8.2974  -14.3389   20.6364 O   0  0  0  0  0  0  0  0  0  0  0  0
    8.9303  -13.7059   18.4632 C   0  0  2  0  0  0  0  0  0  0  0  0
    7.8555  -14.5719   17.9411 N   0  0  0  0  0  0  0  0  0  0  0  0
   10.2172  -14.3882   18.5576 C   0  0  0  0  0  0  0  0  0  0  0  0
   10.1823  -15.6777   18.5629 O   0  0  0  0  0  0  0  0  0  0  0  0
   16.0466  -12.7605   16.6438 N   0  0  0  0  0  0  0  0  0  0  0  0
   16.2810  -13.9241   17.4486 C   0  0  0  0  0  0  0  0  0  0  0  0
   17.4796  -14.2864   17.5211 O   0  0  0  0  0  0  0  0  0  0  0  0
   15.1756  -14.5921   18.1112 C   0  0  0  0  0  0  0  0  0  0  0  0
   13.8405  -13.9735   18.0032 C   0  0  0  0  0  0  0  0  0  0  0  0
   12.7183  -14.6437   18.7674 C   0  0  2  0  0  0  0  0  0  0  0  0
   11.5040  -13.8085   18.6401 N   0  0  0  0  0  0  0  0  0  0  0  0
   13.0865  -14.8150   20.1846 C   0  0  0  0  0  0  0  0  0  0  0  0
   13.1606  -13.7950   20.9417 O   0  0  0  0  0  0  0  0  0  0  0  0
   11.1212  -21.7081   25.4745 N   0  0  0  0  0  0  0  0  0  0  0  0
   11.8666  -20.7951   26.2569 C   0  0  0  0  0  0  0  0  0  0  0  0
   12.1299  -21.0755   27.5012 N   0  0  0  0  0  0  0  0  0  0  0  0
   12.3742  -19.5639   25.7947 N   0  0  0  0  0  0  0  0  0  0  0  0
   12.3128  -19.1048   24.4510 C   0  0  0  0  0  0  0  0  0  0  0  0
   13.0370  -17.9196   24.0686 C   0  0  0  0  0  0  0  0  0  0  0  0
   12.9228  -17.4046   22.7001 C   0  0  0  0  0  0  0  0  0  0  0  0
   13.6674  -16.1922   22.2495 C   0  0  2  0  0  0  0  0  0  0  0  0
   13.3639  -16.0519   20.7779 N   0  0  0  0  0  0  0  0  0  0  0  0
   15.1166  -16.1773   22.2995 C   0  0  0  0  0  0  0  0  0  0  0  0
   15.9348  -15.7731   23.3370 O   0  0  0  0  0  0  0  0  0  0  0  0
   15.7702  -16.5771   21.2698 O   0  0  0  0  0  0  0  0  0  0  0  0
  2  1  1  6
  2  3  1  0
  4  5  1  1
  4  2  1  0
  6  4  1  0
  7  6  2  0
  9  8  1  0
  9 10  2  0
 11 12  1  0
 11  9  1  0
 13 12  1  6
 13 14  1  0
 14  6  1  0
 15 13  1  0
 15 16  2  0
 18 17  1  0
 19 18  2  0
 20 18  1  0
 21 20  1  0
 22 23  1  0
 22 21  1  0
 24 23  1  6
 24 25  1  0
 25 15  1  0
 26 24  1  0
 27 26  1  0
 28 26  2  0
M  END
$$$$
