TQR.pdb
     RDKit          3D

 28 27  0  0  1  0  0  0  0  0999 V2000
    7.1259  -16.0078   19.4739 C   0  0  0  0  0  0  0  0  0  0  0  0
    7.8058  -14.8567   18.8413 C   0  0  1  0  0  0  0  0  0  0  0  0
    7.4570  -14.6366   17.5129 O   0  0  0  0  0  0  0  0  0  0  0  0
    7.6780  -13.5384   19.5791 C   0  0  2  0  0  0  0  0  0  0  0  0
    8.4281  -12.5846   18.7392 N   0  0  0  0  0  0  0  0  0  0  0  0
    8.1656  -13.5938   20.9538 C   0  0  0  0  0  0  0  0  0  0  0  0
    9.4418  -13.7067   21.1042 O   0  0  0  0  0  0  0  0  0  0  0  0
    5.3221  -12.2584   26.5827 N   0  0  0  0  0  0  0  0  0  0  0  0
    6.5998  -12.7970   26.9488 C   0  0  0  0  0  0  0  0  0  0  0  0
    6.8380  -12.8076   28.1801 O   0  0  0  0  0  0  0  0  0  0  0  0
    7.5102  -13.2834   25.9280 C   0  0  0  0  0  0  0  0  0  0  0  0
    7.1094  -13.1128   24.5184 C   0  0  0  0  0  0  0  0  0  0  0  0
    8.0512  -13.6717   23.4729 C   0  0  2  0  0  0  0  0  0  0  0  0
    7.4096  -13.5346   22.1469 N   0  0  0  0  0  0  0  0  0  0  0  0
    8.3622  -15.0843   23.7576 C   0  0  0  0  0  0  0  0  0  0  0  0
    7.4736  -15.9742   23.5638 O   0  0  0  0  0  0  0  0  0  0  0  0
   14.5002  -15.2080   21.9969 N   0  0  0  0  0  0  0  0  0  0  0  0
   13.7974  -15.2017   20.7692 C   0  0  0  0  0  0  0  0  0  0  0  0
   14.0927  -14.3168   19.8603 N   0  0  0  0  0  0  0  0  0  0  0  0
   12.7698  -16.1027   20.4235 N   0  0  0  0  0  0  0  0  0  0  0  0
   12.1470  -17.0169   21.3160 C   0  0  0  0  0  0  0  0  0  0  0  0
   11.3370  -16.5178   22.3977 C   0  0  0  0  0  0  0  0  0  0  0  0
   10.6701  -17.4586   23.3039 C   0  0  0  0  0  0  0  0  0  0  0  0
    9.8863  -16.9934   24.4857 C   0  0  2  0  0  0  0  0  0  0  0  0
    9.5990  -15.5334   24.2342 N   0  0  0  0  0  0  0  0  0  0  0  0
   10.4965  -16.9970   25.8012 C   0  0  0  0  0  0  0  0  0  0  0  0
   10.9513  -18.0773   26.5327 O   0  0  0  0  0  0  0  0  0  0  0  0
   10.6519  -15.8769   26.4085 O   0  0  0  0  0  0  0  0  0  0  0  0
  2  1  1  1
  2  3  1  0
  4  5  1  6
  4  2  1  0
  6  4  1  0
  7  6  2  0
  9  8  1  0
  9 10  2  0
 11 12  1  0
 11  9  1  0
 13 12  1  1
 13 14  1  0
 14  6  1  0
 15 13  1  0
 15 16  2  0
 18 17  1  0
 19 18  2  0
 20 18  1  0
 21 20  1  0
 22 23  1  0
 22 21  1  0
 24 23  1  6
 24 25  1  0
 25 15  1  0
 26 24  1  0
 27 26  1  0
 28 26  2  0
M  END
$$$$
