TQR.pdb
     RDKit          3D

 28 27  0  0  1  0  0  0  0  0999 V2000
    8.5378  -12.7890   20.7172 C   0  0  0  0  0  0  0  0  0  0  0  0
    7.7708  -13.5180   19.6839 C   0  0  1  0  0  0  0  0  0  0  0  0
    6.5682  -12.9184   19.3247 O   0  0  0  0  0  0  0  0  0  0  0  0
    8.5302  -13.8341   18.4103 C   0  0  2  0  0  0  0  0  0  0  0  0
    7.5860  -14.6523   17.6250 N   0  0  0  0  0  0  0  0  0  0  0  0
    9.8053  -14.5040   18.6469 C   0  0  0  0  0  0  0  0  0  0  0  0
    9.7531  -15.7752   18.8599 O   0  0  0  0  0  0  0  0  0  0  0  0
   15.7922  -12.8630   17.0364 N   0  0  0  0  0  0  0  0  0  0  0  0
   15.9633  -14.0016   17.8914 C   0  0  0  0  0  0  0  0  0  0  0  0
   17.1547  -14.3269   18.1096 O   0  0  0  0  0  0  0  0  0  0  0  0
   14.8071  -14.6873   18.4395 C   0  0  0  0  0  0  0  0  0  0  0  0
   13.4896  -14.0446   18.2723 C   0  0  0  0  0  0  0  0  0  0  0  0
   12.3039  -14.7581   18.8867 C   0  0  2  0  0  0  0  0  0  0  0  0
   11.0974  -13.9307   18.6675 N   0  0  0  0  0  0  0  0  0  0  0  0
   12.5250  -14.9858   20.3263 C   0  0  0  0  0  0  0  0  0  0  0  0
   12.5051  -13.9982   21.1284 O   0  0  0  0  0  0  0  0  0  0  0  0
   11.1233  -21.8207   27.3308 N   0  0  0  0  0  0  0  0  0  0  0  0
   11.2903  -21.4004   25.9903 C   0  0  0  0  0  0  0  0  0  0  0  0
   10.8303  -22.1376   25.0201 N   0  0  0  0  0  0  0  0  0  0  0  0
   11.9295  -20.2087   25.5924 N   0  0  0  0  0  0  0  0  0  0  0  0
   11.9444  -19.6889   24.2696 C   0  0  0  0  0  0  0  0  0  0  0  0
   12.5012  -18.3834   24.0226 C   0  0  0  0  0  0  0  0  0  0  0  0
   12.4673  -17.8202   22.6688 C   0  0  0  0  0  0  0  0  0  0  0  0
   12.9488  -16.4377   22.3781 C   0  0  2  0  0  0  0  0  0  0  0  0
   12.7570  -16.2438   20.8939 N   0  0  0  0  0  0  0  0  0  0  0  0
   14.3443  -16.1027   22.5861 C   0  0  0  0  0  0  0  0  0  0  0  0
   15.4035  -16.2609   21.7133 O   0  0  0  0  0  0  0  0  0  0  0  0
   14.6921  -15.5953   23.7127 O   0  0  0  0  0  0  0  0  0  0  0  0
  2  1  1  1
  2  3  1  0
  4  5  1  6
  4  2  1  0
  6  4  1  0
  7  6  2  0
  9  8  1  0
  9 10  2  0
 11 12  1  0
 11  9  1  0
 13 12  1  1
 13 14  1  0
 14  6  1  0
 15 13  1  0
 15 16  2  0
 18 17  1  0
 19 18  2  0
 20 18  1  0
 21 20  1  0
 22 23  1  0
 22 21  1  0
 24 23  1  6
 24 25  1  0
 25 15  1  0
 26 24  1  0
 27 26  1  0
 28 26  2  0
M  END
$$$$
