TQR.pdb
     RDKit          3D

 28 27  0  0  1  0  0  0  0  0999 V2000
    8.5858  -17.8960   17.6714 C   0  0  0  0  0  0  0  0  0  0  0  0
    7.4776  -18.7032   18.2258 C   0  0  1  0  0  0  0  0  0  0  0  0
    6.6496  -19.2836   17.2706 O   0  0  0  0  0  0  0  0  0  0  0  0
    7.8865  -19.7862   19.2049 C   0  0  2  0  0  0  0  0  0  0  0  0
    6.6048  -20.3595   19.6594 N   0  0  0  0  0  0  0  0  0  0  0  0
    8.7120  -19.2932   20.3031 C   0  0  0  0  0  0  0  0  0  0  0  0
    8.1632  -19.2800   21.4705 O   0  0  0  0  0  0  0  0  0  0  0  0
   13.1044  -22.0685   23.2990 N   0  0  0  0  0  0  0  0  0  0  0  0
   11.7570  -21.5802   23.2470 C   0  0  0  0  0  0  0  0  0  0  0  0
   11.0226  -21.9476   24.1950 O   0  0  0  0  0  0  0  0  0  0  0  0
   11.3291  -20.7234   22.1560 C   0  0  0  0  0  0  0  0  0  0  0  0
   10.6927  -19.4391   22.5059 C   0  0  0  0  0  0  0  0  0  0  0  0
   10.7462  -18.3478   21.4577 C   0  0  2  0  0  0  0  0  0  0  0  0
   10.0465  -18.8299   20.2468 N   0  0  0  0  0  0  0  0  0  0  0  0
   12.1436  -17.9960   21.1466 C   0  0  0  0  0  0  0  0  0  0  0  0
   12.7675  -18.6411   20.2446 O   0  0  0  0  0  0  0  0  0  0  0  0
    9.4525  -14.5307   17.2419 N   0  0  0  0  0  0  0  0  0  0  0  0
    8.8622  -13.5481   18.0710 C   0  0  0  0  0  0  0  0  0  0  0  0
    8.1507  -12.5960   17.5384 N   0  0  0  0  0  0  0  0  0  0  0  0
    8.9737  -13.5052   19.4756 N   0  0  0  0  0  0  0  0  0  0  0  0
   10.1817  -13.3001   20.1959 C   0  0  0  0  0  0  0  0  0  0  0  0
   11.2767  -14.2212   20.0289 C   0  0  0  0  0  0  0  0  0  0  0  0
   11.8662  -14.8741   21.2025 C   0  0  0  0  0  0  0  0  0  0  0  0
   13.1387  -15.6494   21.1170 C   0  0  2  0  0  0  0  0  0  0  0  0
   12.8544  -16.9727   21.7842 N   0  0  0  0  0  0  0  0  0  0  0  0
   14.3216  -15.1700   21.8054 C   0  0  0  0  0  0  0  0  0  0  0  0
   15.3335  -14.3675   21.3144 O   0  0  0  0  0  0  0  0  0  0  0  0
   14.4998  -15.5119   23.0296 O   0  0  0  0  0  0  0  0  0  0  0  0
  2  1  1  6
  2  3  1  0
  4  5  1  1
  4  2  1  0
  6  4  1  0
  7  6  2  0
  9  8  1  0
  9 10  2  0
 11 12  1  0
 11  9  1  0
 13 12  1  1
 13 14  1  0
 14  6  1  0
 15 13  1  0
 15 16  2  0
 18 17  1  0
 19 18  2  0
 20 18  1  0
 21 20  1  0
 22 23  1  0
 22 21  1  0
 24 23  1  1
 24 25  1  0
 25 15  1  0
 26 24  1  0
 27 26  1  0
 28 26  2  0
M  END
$$$$
