GDN.pdb
     RDKit          3D

 21 20  0  0  1  0  0  0  0  0999 V2000
    6.7006  -13.2492   19.3770 N   0  0  0  0  0  0  0  0  0  0  0  0
    7.9748  -12.6480   19.0278 C   0  0  0  0  0  0  0  0  0  0  0  0
    8.9830  -13.7504   19.0460 C   0  0  0  0  0  0  0  0  0  0  0  0
    8.6872  -14.9544   19.2308 O   0  0  0  0  0  0  0  0  0  0  0  0
   10.3858  -13.5044   18.8492 N   0  0  0  0  0  0  0  0  0  0  0  0
   11.3689  -14.5154   18.8862 C   0  0  1  0  0  0  0  0  0  0  0  0
   12.6559  -14.2124   18.1884 C   0  0  0  0  0  0  0  0  0  0  0  0
   13.6086  -15.3583   18.1891 C   0  0  0  0  0  0  0  0  0  0  0  0
   13.2207  -16.5508   18.0241 O   0  0  0  0  0  0  0  0  0  0  0  0
   11.6880  -14.8519   20.2937 C   0  0  0  0  0  0  0  0  0  0  0  0
   12.3673  -14.0421   20.9737 O   0  0  0  0  0  0  0  0  0  0  0  0
   14.9788  -15.1841   18.3714 O   0  0  0  0  0  0  0  0  0  0  0  0
   11.7459  -16.7165   25.0224 N   0  0  0  0  0  0  0  0  0  0  0  0
   10.4533  -16.3908   24.5468 C   0  0  0  0  0  0  0  0  0  0  0  0
    9.5004  -16.3196   25.3447 O   0  0  0  0  0  0  0  0  0  0  0  0
   10.2331  -16.1365   23.1149 C   0  0  0  0  0  0  0  0  0  0  0  0
   11.5092  -16.2844   22.3609 C   0  0  2  0  0  0  0  0  0  0  0  0
   11.2682  -16.0446   20.9254 N   0  0  0  0  0  0  0  0  0  0  0  0
   12.1792  -17.5740   22.5323 C   0  0  0  0  0  0  0  0  0  0  0  0
   12.9844  -17.7761   23.6672 O   0  0  0  0  0  0  0  0  0  0  0  0
   12.0640  -18.5113   21.7038 O   0  0  0  0  0  0  0  0  0  0  0  0
  1  2  1  0
  2  3  1  0
  3  4  2  0
  5  6  1  0
  5  3  1  0
  7  8  1  0
  6  7  1  1
  8  9  2  0
 10  6  1  0
 11 10  2  0
 12  8  1  0
 13 14  1  0
 14 16  1  0
 14 15  2  0
 17 16  1  1
 17 18  1  0
 17 19  1  0
 18 10  1  0
 19 21  2  0
 19 20  1  0
M  END
$$$$
