GDN.pdb
     RDKit          3D

 21 20  0  0  1  0  0  0  0  0999 V2000
    9.4229  -15.2177   20.7585 N   0  0  0  0  0  0  0  0  0  0  0  0
   10.7586  -14.8466   21.1887 C   0  0  0  0  0  0  0  0  0  0  0  0
   11.1063  -15.7546   22.3231 C   0  0  0  0  0  0  0  0  0  0  0  0
   10.2536  -16.3934   22.9834 O   0  0  0  0  0  0  0  0  0  0  0  0
   12.4652  -15.9635   22.7439 N   0  0  0  0  0  0  0  0  0  0  0  0
   12.8278  -16.7762   23.8383 C   0  0  1  0  0  0  0  0  0  0  0  0
   14.2490  -17.2386   23.8767 C   0  0  0  0  0  0  0  0  0  0  0  0
   14.6918  -17.8832   22.6082 C   0  0  0  0  0  0  0  0  0  0  0  0
   13.8934  -18.5346   21.8748 O   0  0  0  0  0  0  0  0  0  0  0  0
   12.5527  -16.0601   25.1063 C   0  0  0  0  0  0  0  0  0  0  0  0
   13.1102  -14.9528   25.3127 O   0  0  0  0  0  0  0  0  0  0  0  0
   16.0076  -17.8069   22.1569 O   0  0  0  0  0  0  0  0  0  0  0  0
    8.7756  -13.0549   27.9736 N   0  0  0  0  0  0  0  0  0  0  0  0
    9.8542  -13.9663   28.0682 C   0  0  0  0  0  0  0  0  0  0  0  0
   10.4893  -14.0646   29.1344 O   0  0  0  0  0  0  0  0  0  0  0  0
   10.2261  -14.7965   26.9124 C   0  0  0  0  0  0  0  0  0  0  0  0
   11.3198  -15.7378   27.2820 C   0  0  2  0  0  0  0  0  0  0  0  0
   11.6891  -16.5543   26.1102 N   0  0  0  0  0  0  0  0  0  0  0  0
   11.0189  -16.6175   28.4119 C   0  0  0  0  0  0  0  0  0  0  0  0
   10.8990  -17.9998   28.1840 O   0  0  0  0  0  0  0  0  0  0  0  0
   10.8626  -16.1865   29.5815 O   0  0  0  0  0  0  0  0  0  0  0  0
  1  2  1  0
  2  3  1  0
  3  4  2  0
  5  6  1  0
  5  3  1  0
  7  8  1  0
  6  7  1  6
  8  9  2  0
 10  6  1  0
 11 10  2  0
 12  8  1  0
 13 14  1  0
 14 16  1  0
 14 15  2  0
 17 16  1  6
 17 18  1  0
 17 19  1  0
 18 10  1  0
 19 21  2  0
 19 20  1  0
M  END
$$$$
