GDN.pdb
     RDKit          3D

 21 20  0  0  1  0  0  0  0  0999 V2000
    1.4738  -20.4501   21.3116 N   0  0  0  0  0  0  0  0  0  0  0  0
    1.7844  -19.1502   21.8778 C   0  0  0  0  0  0  0  0  0  0  0  0
    3.2706  -19.0072   21.8216 C   0  0  0  0  0  0  0  0  0  0  0  0
    4.0542  -19.9782   21.7014 O   0  0  0  0  0  0  0  0  0  0  0  0
    3.9171  -17.7256   21.9022 N   0  0  0  0  0  0  0  0  0  0  0  0
    5.3152  -17.5503   21.8344 C   0  0  1  0  0  0  0  0  0  0  0  0
    5.7926  -16.1983   21.4111 C   0  0  0  0  0  0  0  0  0  0  0  0
    6.8755  -16.2509   20.3887 C   0  0  0  0  0  0  0  0  0  0  0  0
    7.9930  -15.6867   20.5684 O   0  0  0  0  0  0  0  0  0  0  0  0
    5.9216  -17.8498   23.1530 C   0  0  0  0  0  0  0  0  0  0  0  0
    5.4892  -17.2528   24.1710 O   0  0  0  0  0  0  0  0  0  0  0  0
    6.7208  -16.9225   19.1778 O   0  0  0  0  0  0  0  0  0  0  0  0
    7.1116  -19.3756   27.3349 N   0  0  0  0  0  0  0  0  0  0  0  0
    6.9375  -20.5295   26.5341 C   0  0  0  0  0  0  0  0  0  0  0  0
    6.6187  -21.6091   27.0658 O   0  0  0  0  0  0  0  0  0  0  0  0
    7.1319  -20.4569   25.0780 C   0  0  0  0  0  0  0  0  0  0  0  0
    7.5150  -19.0749   24.6754 C   0  0  2  0  0  0  0  0  0  0  0  0
    6.9708  -18.7790   23.3366 N   0  0  0  0  0  0  0  0  0  0  0  0
    8.9537  -18.8077   24.6850 C   0  0  0  0  0  0  0  0  0  0  0  0
    9.6196  -18.7156   25.9199 O   0  0  0  0  0  0  0  0  0  0  0  0
    9.6204  -18.6566   23.6310 O   0  0  0  0  0  0  0  0  0  0  0  0
  1  2  1  0
  2  3  1  0
  3  4  2  0
  5  6  1  0
  5  3  1  0
  7  8  1  0
  6  7  1  1
  8  9  2  0
 10  6  1  0
 11 10  2  0
 12  8  1  0
 13 14  1  0
 14 16  1  0
 14 15  2  0
 17 16  1  6
 17 18  1  0
 17 19  1  0
 18 10  1  0
 19 21  2  0
 19 20  1  0
M  END
$$$$
