GDN.pdb
     RDKit          3D

 21 20  0  0  1  0  0  0  0  0999 V2000
    5.4152  -19.8325   19.2215 N   0  0  0  0  0  0  0  0  0  0  0  0
    5.4578  -21.2360   19.5893 C   0  0  0  0  0  0  0  0  0  0  0  0
    5.0750  -21.3082   21.0317 C   0  0  0  0  0  0  0  0  0  0  0  0
    4.8945  -20.2971   21.7502 O   0  0  0  0  0  0  0  0  0  0  0  0
    4.8834  -22.5624   21.7081 N   0  0  0  0  0  0  0  0  0  0  0  0
    4.4906  -22.6694   23.0587 C   0  0  1  0  0  0  0  0  0  0  0  0
    3.5783  -23.8053   23.3943 C   0  0  0  0  0  0  0  0  0  0  0  0
    3.1378  -23.8043   24.8179 C   0  0  0  0  0  0  0  0  0  0  0  0
    3.0135  -24.8745   25.4803 O   0  0  0  0  0  0  0  0  0  0  0  0
    5.6902  -22.7851   23.9211 C   0  0  0  0  0  0  0  0  0  0  0  0
    6.5032  -23.7201   23.7098 O   0  0  0  0  0  0  0  0  0  0  0  0
    2.8372  -22.6278   25.5009 O   0  0  0  0  0  0  0  0  0  0  0  0
    8.3997  -23.1488   28.5304 N   0  0  0  0  0  0  0  0  0  0  0  0
    8.3387  -23.7032   27.2296 C   0  0  0  0  0  0  0  0  0  0  0  0
    9.2910  -24.3804   26.8005 O   0  0  0  0  0  0  0  0  0  0  0  0
    7.1551  -23.4818   26.3848 C   0  0  0  0  0  0  0  0  0  0  0  0
    7.1503  -22.0896   25.8554 C   0  0  2  0  0  0  0  0  0  0  0  0
    5.9786  -21.8951   24.9805 N   0  0  0  0  0  0  0  0  0  0  0  0
    8.3638  -21.7007   25.1358 C   0  0  0  0  0  0  0  0  0  0  0  0
    8.2462  -21.1906   23.8309 O   0  0  0  0  0  0  0  0  0  0  0  0
    9.5105  -21.8046   25.6384 O   0  0  0  0  0  0  0  0  0  0  0  0
  1  2  1  0
  2  3  1  0
  3  4  2  0
  5  6  1  0
  5  3  1  0
  7  8  1  0
  6  7  1  6
  8  9  2  0
 10  6  1  0
 11 10  2  0
 12  8  1  0
 13 14  1  0
 14 16  1  0
 14 15  2  0
 17 16  1  6
 17 18  1  0
 17 19  1  0
 18 10  1  0
 19 21  2  0
 19 20  1  0
M  END
$$$$
