GDN.pdb
     RDKit          3D

 21 20  0  0  1  0  0  0  0  0999 V2000
    7.2440  -12.3692   19.6806 N   0  0  0  0  0  0  0  0  0  0  0  0
    8.0049  -13.2722   18.8364 C   0  0  0  0  0  0  0  0  0  0  0  0
    8.1593  -14.5433   19.6062 C   0  0  0  0  0  0  0  0  0  0  0  0
    7.8389  -14.6643   20.8120 O   0  0  0  0  0  0  0  0  0  0  0  0
    8.6945  -15.7366   19.0088 N   0  0  0  0  0  0  0  0  0  0  0  0
    8.8395  -16.9583   19.6989 C   0  0  1  0  0  0  0  0  0  0  0  0
    8.4323  -18.1901   18.9560 C   0  0  0  0  0  0  0  0  0  0  0  0
    9.2645  -18.4494   17.7473 C   0  0  0  0  0  0  0  0  0  0  0  0
   10.4493  -18.8838   17.8316 O   0  0  0  0  0  0  0  0  0  0  0  0
   10.2500  -17.1313   20.1193 C   0  0  0  0  0  0  0  0  0  0  0  0
   11.1417  -16.4522   19.5508 O   0  0  0  0  0  0  0  0  0  0  0  0
    8.7879  -18.2287   16.4569 O   0  0  0  0  0  0  0  0  0  0  0  0
   10.4418  -15.7375   25.3531 N   0  0  0  0  0  0  0  0  0  0  0  0
   11.1717  -15.8966   24.1510 C   0  0  0  0  0  0  0  0  0  0  0  0
   12.3775  -15.5892   24.1142 O   0  0  0  0  0  0  0  0  0  0  0  0
   10.5108  -16.4236   22.9473 C   0  0  0  0  0  0  0  0  0  0  0  0
   11.3017  -17.5474   22.3727 C   0  0  2  0  0  0  0  0  0  0  0  0
   10.6576  -18.0259   21.1349 N   0  0  0  0  0  0  0  0  0  0  0  0
   11.5132  -18.6772   23.2785 C   0  0  0  0  0  0  0  0  0  0  0  0
   10.4727  -19.6048   23.4624 O   0  0  0  0  0  0  0  0  0  0  0  0
   12.5904  -18.8525   23.9007 O   0  0  0  0  0  0  0  0  0  0  0  0
  1  2  1  0
  2  3  1  0
  3  4  2  0
  5  6  1  0
  5  3  1  0
  7  8  1  0
  6  7  1  6
  8  9  2  0
 10  6  1  0
 11 10  2  0
 12  8  1  0
 13 14  1  0
 14 16  1  0
 14 15  2  0
 17 16  1  1
 17 18  1  0
 17 19  1  0
 18 10  1  0
 19 21  2  0
 19 20  1  0
M  END
$$$$
