GDN.pdb
     RDKit          3D

 21 20  0  0  1  0  0  0  0  0999 V2000
    7.5333  -19.6999   19.7632 N   0  0  0  0  0  0  0  0  0  0  0  0
    6.6478  -18.5753   20.0042 C   0  0  0  0  0  0  0  0  0  0  0  0
    7.4764  -17.5145   20.6526 C   0  0  0  0  0  0  0  0  0  0  0  0
    8.6748  -17.6784   20.9818 O   0  0  0  0  0  0  0  0  0  0  0  0
    6.9496  -16.2100   20.9492 N   0  0  0  0  0  0  0  0  0  0  0  0
    7.6725  -15.2138   21.6384 C   0  0  1  0  0  0  0  0  0  0  0  0
    7.3214  -13.7974   21.3134 C   0  0  0  0  0  0  0  0  0  0  0  0
    7.7957  -13.3684   19.9674 C   0  0  0  0  0  0  0  0  0  0  0  0
    8.7743  -13.9275   19.3935 O   0  0  0  0  0  0  0  0  0  0  0  0
    7.5060  -15.3953   23.0997 C   0  0  0  0  0  0  0  0  0  0  0  0
    6.3538  -15.3143   23.5952 O   0  0  0  0  0  0  0  0  0  0  0  0
    7.1910  -12.3288   19.2641 O   0  0  0  0  0  0  0  0  0  0  0  0
    6.4307  -18.8645   26.8032 N   0  0  0  0  0  0  0  0  0  0  0  0
    7.6740  -18.4559   26.2645 C   0  0  0  0  0  0  0  0  0  0  0  0
    8.7310  -18.7628   26.8462 O   0  0  0  0  0  0  0  0  0  0  0  0
    7.7208  -17.6714   25.0212 C   0  0  0  0  0  0  0  0  0  0  0  0
    8.3723  -16.3542   25.2648 C   0  0  2  0  0  0  0  0  0  0  0  0
    8.5795  -15.6578   23.9809 N   0  0  0  0  0  0  0  0  0  0  0  0
    9.6404  -16.4200   25.9920 C   0  0  0  0  0  0  0  0  0  0  0  0
   10.8357  -16.5512   25.2634 O   0  0  0  0  0  0  0  0  0  0  0  0
    9.7047  -16.3641   27.2454 O   0  0  0  0  0  0  0  0  0  0  0  0
  1  2  1  0
  2  3  1  0
  3  4  2  0
  5  6  1  0
  5  3  1  0
  7  8  1  0
  6  7  1  6
  8  9  2  0
 10  6  1  0
 11 10  2  0
 12  8  1  0
 13 14  1  0
 14 16  1  0
 14 15  2  0
 17 16  1  6
 17 18  1  0
 17 19  1  0
 18 10  1  0
 19 21  2  0
 19 20  1  0
M  END
$$$$
