GDN.pdb
     RDKit          3D

 21 20  0  0  1  0  0  0  0  0999 V2000
    7.6488  -12.7686   17.8684 N   0  0  0  0  0  0  0  0  0  0  0  0
    8.8118  -13.1324   18.6570 C   0  0  0  0  0  0  0  0  0  0  0  0
    8.3390  -14.1091   19.6841 C   0  0  0  0  0  0  0  0  0  0  0  0
    7.2273  -14.0255   20.2572 O   0  0  0  0  0  0  0  0  0  0  0  0
    9.1382  -15.2318   20.0939 N   0  0  0  0  0  0  0  0  0  0  0  0
    8.6762  -16.2449   20.9599 C   0  0  1  0  0  0  0  0  0  0  0  0
    9.1358  -17.6348   20.6566 C   0  0  0  0  0  0  0  0  0  0  0  0
    8.2075  -18.6845   21.1637 C   0  0  0  0  0  0  0  0  0  0  0  0
    7.5219  -18.5205   22.2138 O   0  0  0  0  0  0  0  0  0  0  0  0
    9.0745  -15.9327   22.3528 C   0  0  0  0  0  0  0  0  0  0  0  0
   10.2268  -15.4798   22.5688 O   0  0  0  0  0  0  0  0  0  0  0  0
    8.0410  -19.9052   20.5131 O   0  0  0  0  0  0  0  0  0  0  0  0
    6.2334  -12.8774   25.1643 N   0  0  0  0  0  0  0  0  0  0  0  0
    7.4451  -13.6024   25.0678 C   0  0  0  0  0  0  0  0  0  0  0  0
    8.4638  -13.0471   24.6166 O   0  0  0  0  0  0  0  0  0  0  0  0
    7.5039  -15.0075   25.4985 C   0  0  0  0  0  0  0  0  0  0  0  0
    8.6327  -15.7083   24.8250 C   0  0  2  0  0  0  0  0  0  0  0  0
    8.2246  -16.1159   23.4672 N   0  0  0  0  0  0  0  0  0  0  0  0
    9.1528  -16.8709   25.5455 C   0  0  0  0  0  0  0  0  0  0  0  0
    9.3429  -18.0753   24.8454 O   0  0  0  0  0  0  0  0  0  0  0  0
    9.4374  -16.8365   26.7687 O   0  0  0  0  0  0  0  0  0  0  0  0
  1  2  1  0
  2  3  1  0
  3  4  2  0
  5  6  1  0
  5  3  1  0
  7  8  1  0
  6  7  1  6
  8  9  2  0
 10  6  1  0
 11 10  2  0
 12  8  1  0
 13 14  1  0
 14 16  1  0
 14 15  2  0
 17 16  1  1
 17 18  1  0
 17 19  1  0
 18 10  1  0
 19 21  2  0
 19 20  1  0
M  END
$$$$
