GDN.pdb
     RDKit          3D

 21 20  0  0  1  0  0  0  0  0999 V2000
   12.8342  -18.6362   12.1711 N   0  0  0  0  0  0  0  0  0  0  0  0
   14.1948  -18.1306   12.1830 C   0  0  0  0  0  0  0  0  0  0  0  0
   14.9395  -18.9411   13.1933 C   0  0  0  0  0  0  0  0  0  0  0  0
   14.4203  -19.8746   13.8492 O   0  0  0  0  0  0  0  0  0  0  0  0
   16.3264  -18.7040   13.4890 N   0  0  0  0  0  0  0  0  0  0  0  0
   17.0483  -19.4144   14.4710 C   0  0  1  0  0  0  0  0  0  0  0  0
   18.5379  -19.3840   14.3482 C   0  0  0  0  0  0  0  0  0  0  0  0
   19.0311  -19.9121   13.0449 C   0  0  0  0  0  0  0  0  0  0  0  0
   18.4884  -20.9029   12.4763 O   0  0  0  0  0  0  0  0  0  0  0  0
   16.6967  -18.9044   15.8173 C   0  0  0  0  0  0  0  0  0  0  0  0
   15.7740  -18.0578   15.9251 O   0  0  0  0  0  0  0  0  0  0  0  0
   20.1163  -19.3474   12.3782 O   0  0  0  0  0  0  0  0  0  0  0  0
   15.3704  -21.1446   19.8704 N   0  0  0  0  0  0  0  0  0  0  0  0
   15.2510  -19.7361   19.8006 C   0  0  0  0  0  0  0  0  0  0  0  0
   14.9477  -19.0897   20.8204 O   0  0  0  0  0  0  0  0  0  0  0  0
   15.4839  -19.0349   18.5288 C   0  0  0  0  0  0  0  0  0  0  0  0
   16.9412  -18.8038   18.3247 C   0  0  2  0  0  0  0  0  0  0  0  0
   17.3452  -19.3189   17.0027 N   0  0  0  0  0  0  0  0  0  0  0  0
   17.8058  -19.3796   19.3555 C   0  0  0  0  0  0  0  0  0  0  0  0
   18.6803  -20.4230   19.0040 O   0  0  0  0  0  0  0  0  0  0  0  0
   17.7982  -18.9782   20.5459 O   0  0  0  0  0  0  0  0  0  0  0  0
  1  2  1  0
  2  3  1  0
  3  4  2  0
  5  6  1  0
  5  3  1  0
  7  8  1  0
  6  7  1  6
  8  9  2  0
 10  6  1  0
 11 10  2  0
 12  8  1  0
 13 14  1  0
 14 16  1  0
 14 15  2  0
 17 16  1  1
 17 18  1  0
 17 19  1  0
 18 10  1  0
 19 21  2  0
 19 20  1  0
M  END
$$$$
