GDN.pdb
     RDKit          3D

 21 20  0  0  1  0  0  0  0  0999 V2000
    4.6572  -19.0224   23.1943 N   0  0  0  0  0  0  0  0  0  0  0  0
    4.7227  -17.5768   23.0807 C   0  0  0  0  0  0  0  0  0  0  0  0
    6.1623  -17.2322   22.8779 C   0  0  0  0  0  0  0  0  0  0  0  0
    7.1080  -17.9388   23.2994 O   0  0  0  0  0  0  0  0  0  0  0  0
    6.5710  -16.0473   22.1736 N   0  0  0  0  0  0  0  0  0  0  0  0
    7.9146  -15.6352   22.0522 C   0  0  1  0  0  0  0  0  0  0  0  0
    8.2441  -14.7967   20.8591 C   0  0  0  0  0  0  0  0  0  0  0  0
    8.1753  -15.5493   19.5747 C   0  0  0  0  0  0  0  0  0  0  0  0
    8.7102  -16.6870   19.4367 O   0  0  0  0  0  0  0  0  0  0  0  0
    8.3167  -14.8771   23.2604 C   0  0  0  0  0  0  0  0  0  0  0  0
    7.8550  -13.7213   23.4349 O   0  0  0  0  0  0  0  0  0  0  0  0
    7.5199  -15.0452   18.4534 O   0  0  0  0  0  0  0  0  0  0  0  0
    7.6771  -12.4054   27.7732 N   0  0  0  0  0  0  0  0  0  0  0  0
    8.5539  -13.4338   27.3528 C   0  0  0  0  0  0  0  0  0  0  0  0
    9.5815  -13.6783   28.0115 O   0  0  0  0  0  0  0  0  0  0  0  0
    8.2546  -14.2134   26.1419 C   0  0  0  0  0  0  0  0  0  0  0  0
    9.5167  -14.6194   25.4629 C   0  0  2  0  0  0  0  0  0  0  0  0
    9.1997  -15.3832   24.2413 N   0  0  0  0  0  0  0  0  0  0  0  0
   10.4409  -15.3927   26.2932 C   0  0  0  0  0  0  0  0  0  0  0  0
    9.9713  -16.5534   26.9328 O   0  0  0  0  0  0  0  0  0  0  0  0
   11.6410  -15.0602   26.4586 O   0  0  0  0  0  0  0  0  0  0  0  0
  1  2  1  0
  2  3  1  0
  3  4  2  0
  5  6  1  0
  5  3  1  0
  7  8  1  0
  6  7  1  6
  8  9  2  0
 10  6  1  0
 11 10  2  0
 12  8  1  0
 13 14  1  0
 14 16  1  0
 14 15  2  0
 17 16  1  1
 17 18  1  0
 17 19  1  0
 18 10  1  0
 19 21  2  0
 19 20  1  0
M  END
$$$$
