GDN.pdb
     RDKit          3D

 21 20  0  0  1  0  0  0  0  0999 V2000
    2.4251  -25.4577   23.7745 N   0  0  0  0  0  0  0  0  0  0  0  0
    2.1071  -24.5441   22.6924 C   0  0  0  0  0  0  0  0  0  0  0  0
    3.3259  -23.7089   22.4705 C   0  0  0  0  0  0  0  0  0  0  0  0
    4.4914  -24.1702   22.4829 O   0  0  0  0  0  0  0  0  0  0  0  0
    3.2468  -22.2948   22.2227 N   0  0  0  0  0  0  0  0  0  0  0  0
    4.3648  -21.4923   21.9132 C   0  0  1  0  0  0  0  0  0  0  0  0
    4.1205  -20.3480   20.9826 C   0  0  0  0  0  0  0  0  0  0  0  0
    3.8006  -20.7791   19.5924 C   0  0  0  0  0  0  0  0  0  0  0  0
    4.6681  -21.3099   18.8405 O   0  0  0  0  0  0  0  0  0  0  0  0
    4.9468  -20.9424   23.1602 C   0  0  0  0  0  0  0  0  0  0  0  0
    4.3825  -19.9666   23.7160 O   0  0  0  0  0  0  0  0  0  0  0  0
    2.5310  -20.6227   19.0405 O   0  0  0  0  0  0  0  0  0  0  0  0
    7.5066  -23.7364   27.1032 N   0  0  0  0  0  0  0  0  0  0  0  0
    6.8260  -23.1405   26.0147 C   0  0  0  0  0  0  0  0  0  0  0  0
    6.7541  -23.7411   24.9266 O   0  0  0  0  0  0  0  0  0  0  0  0
    6.2043  -21.8160   26.1652 C   0  0  0  0  0  0  0  0  0  0  0  0
    6.6173  -20.9207   25.0487 C   0  0  2  0  0  0  0  0  0  0  0  0
    6.1135  -21.4569   23.7700 N   0  0  0  0  0  0  0  0  0  0  0  0
    8.0588  -20.6912   24.9451 C   0  0  0  0  0  0  0  0  0  0  0  0
    8.7358  -20.1171   26.0356 O   0  0  0  0  0  0  0  0  0  0  0  0
    8.7185  -20.9871   23.9177 O   0  0  0  0  0  0  0  0  0  0  0  0
  1  2  1  0
  2  3  1  0
  3  4  2  0
  5  6  1  0
  5  3  1  0
  7  8  1  0
  6  7  1  6
  8  9  2  0
 10  6  1  0
 11 10  2  0
 12  8  1  0
 13 14  1  0
 14 16  1  0
 14 15  2  0
 17 16  1  1
 17 18  1  0
 17 19  1  0
 18 10  1  0
 19 21  2  0
 19 20  1  0
M  END
$$$$
