GDN.pdb
     RDKit          3D

 21 20  0  0  1  0  0  0  0  0999 V2000
    9.9230  -17.1488   18.6872 N   0  0  0  0  0  0  0  0  0  0  0  0
   10.7848  -16.1974   19.3648 C   0  0  0  0  0  0  0  0  0  0  0  0
   11.5491  -16.9719   20.3886 C   0  0  0  0  0  0  0  0  0  0  0  0
   11.0852  -17.9700   20.9885 O   0  0  0  0  0  0  0  0  0  0  0  0
   12.8922  -16.6217   20.7638 N   0  0  0  0  0  0  0  0  0  0  0  0
   13.6135  -17.2751   21.7850 C   0  0  1  0  0  0  0  0  0  0  0  0
   15.0879  -17.0296   21.8145 C   0  0  0  0  0  0  0  0  0  0  0  0
   15.7812  -17.4649   20.5693 C   0  0  0  0  0  0  0  0  0  0  0  0
   15.6277  -18.6247   20.0889 O   0  0  0  0  0  0  0  0  0  0  0  0
   13.0664  -16.8918   23.1079 C   0  0  0  0  0  0  0  0  0  0  0  0
   13.4826  -15.8406   23.6568 O   0  0  0  0  0  0  0  0  0  0  0  0
   16.6373  -16.6225   19.8633 O   0  0  0  0  0  0  0  0  0  0  0  0
   10.2661  -15.2089   23.8844 N   0  0  0  0  0  0  0  0  0  0  0  0
    9.4716  -16.2553   24.4107 C   0  0  0  0  0  0  0  0  0  0  0  0
    8.2375  -16.2367   24.2481 O   0  0  0  0  0  0  0  0  0  0  0  0
   10.0989  -17.3628   25.1479 C   0  0  0  0  0  0  0  0  0  0  0  0
   11.5822  -17.2298   25.1179 C   0  0  2  0  0  0  0  0  0  0  0  0
   12.0916  -17.6476   23.7980 N   0  0  0  0  0  0  0  0  0  0  0  0
   12.2874  -17.9676   26.1667 C   0  0  0  0  0  0  0  0  0  0  0  0
   12.3688  -17.4080   27.4540 O   0  0  0  0  0  0  0  0  0  0  0  0
   12.8251  -19.0845   25.9628 O   0  0  0  0  0  0  0  0  0  0  0  0
  1  2  1  0
  2  3  1  0
  3  4  2  0
  5  6  1  0
  5  3  1  0
  7  8  1  0
  6  7  1  1
  8  9  2  0
 10  6  1  0
 11 10  2  0
 12  8  1  0
 13 14  1  0
 14 16  1  0
 14 15  2  0
 17 16  1  6
 17 18  1  0
 17 19  1  0
 18 10  1  0
 19 21  2  0
 19 20  1  0
M  END
$$$$
