GDN.pdb
     RDKit          3D

 21 20  0  0  1  0  0  0  0  0999 V2000
    8.3172  -15.4344   14.1278 N   0  0  0  0  0  0  0  0  0  0  0  0
    9.4069  -16.0372   14.8736 C   0  0  0  0  0  0  0  0  0  0  0  0
    8.8692  -16.3495   16.2321 C   0  0  0  0  0  0  0  0  0  0  0  0
    7.8901  -15.7550   16.7413 O   0  0  0  0  0  0  0  0  0  0  0  0
    9.4457  -17.3703   17.0644 N   0  0  0  0  0  0  0  0  0  0  0  0
    8.9596  -17.6992   18.3471 C   0  0  1  0  0  0  0  0  0  0  0  0
    9.2815  -19.0717   18.8447 C   0  0  0  0  0  0  0  0  0  0  0  0
    8.3940  -20.1257   18.2771 C   0  0  0  0  0  0  0  0  0  0  0  0
    8.5191  -20.5359   17.0873 O   0  0  0  0  0  0  0  0  0  0  0  0
    9.4732  -16.7276   19.3413 C   0  0  0  0  0  0  0  0  0  0  0  0
   10.7115  -16.5230   19.4081 O   0  0  0  0  0  0  0  0  0  0  0  0
    7.3769  -20.7194   19.0215 O   0  0  0  0  0  0  0  0  0  0  0  0
    6.9063  -12.4308   19.5888 N   0  0  0  0  0  0  0  0  0  0  0  0
    8.0816  -13.1536   19.9043 C   0  0  0  0  0  0  0  0  0  0  0  0
    9.0106  -13.2149   19.0779 O   0  0  0  0  0  0  0  0  0  0  0  0
    8.2082  -13.8312   21.2036 C   0  0  0  0  0  0  0  0  0  0  0  0
    9.1831  -14.9533   21.1091 C   0  0  2  0  0  0  0  0  0  0  0  0
    8.6429  -16.0077   20.2302 N   0  0  0  0  0  0  0  0  0  0  0  0
    9.5706  -15.5414   22.3919 C   0  0  0  0  0  0  0  0  0  0  0  0
   10.2924  -14.7570   23.3088 O   0  0  0  0  0  0  0  0  0  0  0  0
    9.2838  -16.7229   22.7082 O   0  0  0  0  0  0  0  0  0  0  0  0
  1  2  1  0
  2  3  1  0
  3  4  2  0
  5  6  1  0
  5  3  1  0
  7  8  1  0
  6  7  1  1
  8  9  2  0
 10  6  1  0
 11 10  2  0
 12  8  1  0
 13 14  1  0
 14 16  1  0
 14 15  2  0
 17 16  1  1
 17 18  1  0
 17 19  1  0
 18 10  1  0
 19 21  2  0
 19 20  1  0
M  END
$$$$
