GDN.pdb
     RDKit          3D

 21 20  0  0  1  0  0  0  0  0999 V2000
   10.1772  -12.9272   18.5812 N   0  0  0  0  0  0  0  0  0  0  0  0
   10.4019  -14.3090   18.9650 C   0  0  0  0  0  0  0  0  0  0  0  0
   11.4400  -14.2872   20.0392 C   0  0  0  0  0  0  0  0  0  0  0  0
   12.2478  -13.3424   20.2007 O   0  0  0  0  0  0  0  0  0  0  0  0
   11.5879  -15.3654   20.9788 N   0  0  0  0  0  0  0  0  0  0  0  0
   12.5872  -15.4029   21.9738 C   0  0  1  0  0  0  0  0  0  0  0  0
   12.2209  -16.0828   23.2539 C   0  0  0  0  0  0  0  0  0  0  0  0
   13.2897  -16.0016   24.2892 C   0  0  0  0  0  0  0  0  0  0  0  0
   14.3959  -15.4309   24.0651 O   0  0  0  0  0  0  0  0  0  0  0  0
   13.7993  -16.0686   21.4410 C   0  0  0  0  0  0  0  0  0  0  0  0
   13.7611  -17.3022   21.2037 O   0  0  0  0  0  0  0  0  0  0  0  0
   13.1340  -16.5484   25.5611 O   0  0  0  0  0  0  0  0  0  0  0  0
   15.6791  -13.6879   18.1158 N   0  0  0  0  0  0  0  0  0  0  0  0
   16.5766  -14.4553   18.8959 C   0  0  0  0  0  0  0  0  0  0  0  0
   17.6119  -13.9293   19.3444 O   0  0  0  0  0  0  0  0  0  0  0  0
   16.2899  -15.8701   19.1779 C   0  0  0  0  0  0  0  0  0  0  0  0
   16.1922  -16.0955   20.6470 C   0  0  2  0  0  0  0  0  0  0  0  0
   15.0114  -15.3900   21.1800 N   0  0  0  0  0  0  0  0  0  0  0  0
   17.3779  -15.7033   21.4099 C   0  0  0  0  0  0  0  0  0  0  0  0
   18.5591  -16.4516   21.2624 O   0  0  0  0  0  0  0  0  0  0  0  0
   17.3832  -14.7218   22.1940 O   0  0  0  0  0  0  0  0  0  0  0  0
  1  2  1  0
  2  3  1  0
  3  4  2  0
  5  6  1  0
  5  3  1  0
  7  8  1  0
  6  7  1  1
  8  9  2  0
 10  6  1  0
 11 10  2  0
 12  8  1  0
 13 14  1  0
 14 16  1  0
 14 15  2  0
 17 16  1  6
 17 18  1  0
 17 19  1  0
 18 10  1  0
 19 21  2  0
 19 20  1  0
M  END
$$$$
