GDN.pdb
     RDKit          3D

 21 20  0  0  1  0  0  0  0  0999 V2000
    6.4259  -13.0309   19.3884 N   0  0  0  0  0  0  0  0  0  0  0  0
    7.6377  -12.6576   18.6819 C   0  0  0  0  0  0  0  0  0  0  0  0
    8.5716  -13.8178   18.7996 C   0  0  0  0  0  0  0  0  0  0  0  0
    8.2980  -14.8636   19.4342 O   0  0  0  0  0  0  0  0  0  0  0  0
    9.8706  -13.8169   18.1833 N   0  0  0  0  0  0  0  0  0  0  0  0
   10.7770  -14.8943   18.2698 C   0  0  1  0  0  0  0  0  0  0  0  0
   11.8791  -14.9143   17.2599 C   0  0  0  0  0  0  0  0  0  0  0  0
   11.4343  -15.3731   15.9136 C   0  0  0  0  0  0  0  0  0  0  0  0
   10.9580  -16.5294   15.7247 O   0  0  0  0  0  0  0  0  0  0  0  0
   11.3982  -14.9190   19.6151 C   0  0  0  0  0  0  0  0  0  0  0  0
   11.9770  -13.8861   20.0367 O   0  0  0  0  0  0  0  0  0  0  0  0
   11.5172  -14.5579   14.7869 O   0  0  0  0  0  0  0  0  0  0  0  0
   10.2286  -15.7177   25.2359 N   0  0  0  0  0  0  0  0  0  0  0  0
   11.1589  -15.7175   24.1693 C   0  0  0  0  0  0  0  0  0  0  0  0
   12.3739  -15.5896   24.4084 O   0  0  0  0  0  0  0  0  0  0  0  0
   10.6951  -15.8680   22.7817 C   0  0  0  0  0  0  0  0  0  0  0  0
   11.8574  -15.9780   21.8567 C   0  0  2  0  0  0  0  0  0  0  0  0
   11.3781  -16.0494   20.4634 N   0  0  0  0  0  0  0  0  0  0  0  0
   12.7501  -17.1069   22.1218 C   0  0  0  0  0  0  0  0  0  0  0  0
   14.1299  -16.9483   21.9027 O   0  0  0  0  0  0  0  0  0  0  0  0
   12.3323  -18.2159   22.5385 O   0  0  0  0  0  0  0  0  0  0  0  0
  1  2  1  0
  2  3  1  0
  3  4  2  0
  5  6  1  0
  5  3  1  0
  7  8  1  0
  6  7  1  6
  8  9  2  0
 10  6  1  0
 11 10  2  0
 12  8  1  0
 13 14  1  0
 14 16  1  0
 14 15  2  0
 17 16  1  1
 17 18  1  0
 17 19  1  0
 18 10  1  0
 19 21  2  0
 19 20  1  0
M  END
$$$$
