IDL.pdb
     RDKit          3D

 25 24  0  0  1  0  0  0  0  0999 V2000
    8.0343  -11.7350   21.2005 C   0  0  0  0  0  0  0  0  0  0  0  0
    7.6644  -13.1697   21.1490 C   0  0  0  0  0  0  0  0  0  0  0  0
    8.3956  -13.8871   20.0506 C   0  0  2  0  0  0  0  0  0  0  0  0
    7.9202  -13.2478   18.7472 C   0  0  0  0  0  0  0  0  0  0  0  0
    8.0273  -15.3343   20.0384 C   0  0  2  0  0  0  0  0  0  0  0  0
    6.5674  -15.4446   19.8623 N   0  0  0  0  0  0  0  0  0  0  0  0
    8.3122  -16.0079   21.3357 C   0  0  0  0  0  0  0  0  0  0  0  0
    7.3563  -16.3343   22.1034 O   0  0  0  0  0  0  0  0  0  0  0  0
    9.6175  -16.2971   21.7378 N   0  0  0  0  0  0  0  0  0  0  0  0
    9.9395  -17.0528   22.9682 C   0  0  1  0  0  0  0  0  0  0  0  0
   11.3747  -17.5301   22.8909 C   0  0  0  0  0  0  0  0  0  0  0  0
   11.7139  -18.5707   23.8691 C   0  0  0  0  0  0  0  0  0  0  0  0
   12.8344  -18.5817   24.4116 O   0  0  0  0  0  0  0  0  0  0  0  0
    9.8000  -16.1180   24.0940 C   0  0  0  0  0  0  0  0  0  0  0  0
   10.6863  -15.2187   24.2092 O   0  0  0  0  0  0  0  0  0  0  0  0
   10.8014  -19.5587   24.2101 O   0  0  0  0  0  0  0  0  0  0  0  0
    8.0806  -12.4668   25.6992 C   0  0  0  0  0  0  0  0  0  0  0  0
    7.3310  -13.3198   26.6517 C   0  0  1  0  0  0  0  0  0  0  0  0
    5.8513  -12.9520   26.5876 C   0  0  0  0  0  0  0  0  0  0  0  0
    7.5839  -14.7479   26.5198 C   0  0  0  0  0  0  0  0  0  0  0  0
    8.9420  -15.3057   26.3037 C   0  0  2  0  0  0  0  0  0  0  0  0
    8.7830  -16.1072   25.0598 N   0  0  0  0  0  0  0  0  0  0  0  0
    9.5727  -16.0787   27.3488 C   0  0  0  0  0  0  0  0  0  0  0  0
   10.3313  -15.3623   28.3068 O   0  0  0  0  0  0  0  0  0  0  0  0
    9.5547  -17.3106   27.5443 O   0  0  0  0  0  0  0  0  0  0  0  0
  1  2  1  0
  2  3  1  0
  3  5  1  0
  3  4  1  6
  5  6  1  1
  5  7  1  0
  7  8  2  0
  9  7  1  0
  9 10  1  0
 10 11  1  6
 12 16  1  0
 12 11  1  0
 13 12  2  0
 14 10  1  0
 14 15  2  0
 18 17  1  6
 18 20  1  0
 19 18  1  0
 21 20  1  1
 21 23  1  0
 21 22  1  0
 22 14  1  0
 23 24  1  0
 25 23  2  0
M  END
$$$$
