IDL.pdb
     RDKit          3D

 25 24  0  0  1  0  0  0  0  0999 V2000
    7.4993  -11.6208   19.6338 C   0  0  0  0  0  0  0  0  0  0  0  0
    7.6893  -13.0693   19.3813 C   0  0  0  0  0  0  0  0  0  0  0  0
    7.8880  -13.8293   20.6613 C   0  0  2  0  0  0  0  0  0  0  0  0
    9.1564  -13.2578   21.2923 C   0  0  0  0  0  0  0  0  0  0  0  0
    8.1036  -15.2796   20.3778 C   0  0  2  0  0  0  0  0  0  0  0  0
    6.8624  -15.8350   19.8075 N   0  0  0  0  0  0  0  0  0  0  0  0
    8.3504  -16.0734   21.6136 C   0  0  0  0  0  0  0  0  0  0  0  0
    7.3740  -16.4442   22.3338 O   0  0  0  0  0  0  0  0  0  0  0  0
    9.6415  -16.4286   22.0083 N   0  0  0  0  0  0  0  0  0  0  0  0
    9.9308  -17.2082   23.2319 C   0  0  1  0  0  0  0  0  0  0  0  0
   11.3301  -17.7790   23.1320 C   0  0  0  0  0  0  0  0  0  0  0  0
   11.6905  -18.6789   24.2343 C   0  0  0  0  0  0  0  0  0  0  0  0
   12.8843  -18.8419   24.5477 O   0  0  0  0  0  0  0  0  0  0  0  0
    9.8701  -16.2701   24.3620 C   0  0  0  0  0  0  0  0  0  0  0  0
   10.8186  -15.4356   24.4696 O   0  0  0  0  0  0  0  0  0  0  0  0
   10.7173  -19.3637   24.9479 O   0  0  0  0  0  0  0  0  0  0  0  0
    9.0735  -12.5051   26.4270 C   0  0  0  0  0  0  0  0  0  0  0  0
    7.7696  -13.1650   26.6745 C   0  0  1  0  0  0  0  0  0  0  0  0
    6.7374  -12.6036   25.7009 C   0  0  0  0  0  0  0  0  0  0  0  0
    7.8183  -14.6203   26.6988 C   0  0  0  0  0  0  0  0  0  0  0  0
    9.0847  -15.3831   26.5700 C   0  0  2  0  0  0  0  0  0  0  0  0
    8.8673  -16.1917   25.3395 N   0  0  0  0  0  0  0  0  0  0  0  0
    9.5380  -16.2078   27.6663 C   0  0  0  0  0  0  0  0  0  0  0  0
   10.3168  -15.5741   28.6655 O   0  0  0  0  0  0  0  0  0  0  0  0
    9.3472  -17.4225   27.8760 O   0  0  0  0  0  0  0  0  0  0  0  0
  1  2  1  0
  2  3  1  0
  3  5  1  0
  3  4  1  6
  5  6  1  1
  5  7  1  0
  7  8  2  0
  9  7  1  0
  9 10  1  0
 10 11  1  6
 12 16  1  0
 12 11  1  0
 13 12  2  0
 14 10  1  0
 14 15  2  0
 18 17  1  6
 18 20  1  0
 19 18  1  0
 21 20  1  1
 21 23  1  0
 21 22  1  0
 22 14  1  0
 23 24  1  0
 25 23  2  0
M  END
$$$$
