IDL.pdb
     RDKit          3D

 25 24  0  0  1  0  0  0  0  0999 V2000
    7.2039  -11.6896   19.5038 C   0  0  0  0  0  0  0  0  0  0  0  0
    7.7424  -13.0442   19.2338 C   0  0  0  0  0  0  0  0  0  0  0  0
    7.8687  -13.8476   20.4964 C   0  0  2  0  0  0  0  0  0  0  0  0
    8.8904  -13.1092   21.3594 C   0  0  0  0  0  0  0  0  0  0  0  0
    8.3921  -15.2134   20.1947 C   0  0  2  0  0  0  0  0  0  0  0  0
    7.3829  -15.9364   19.3989 N   0  0  0  0  0  0  0  0  0  0  0  0
    8.5806  -16.0374   21.4208 C   0  0  0  0  0  0  0  0  0  0  0  0
    7.5791  -16.5803   21.9794 O   0  0  0  0  0  0  0  0  0  0  0  0
    9.8438  -16.2352   21.9813 N   0  0  0  0  0  0  0  0  0  0  0  0
   10.0785  -17.0693   23.1804 C   0  0  1  0  0  0  0  0  0  0  0  0
   11.4920  -17.6113   23.1337 C   0  0  0  0  0  0  0  0  0  0  0  0
   11.7359  -18.5557   22.0368 C   0  0  0  0  0  0  0  0  0  0  0  0
   10.8539  -19.3663   21.6977 O   0  0  0  0  0  0  0  0  0  0  0  0
    9.9357  -16.1892   24.3492 C   0  0  0  0  0  0  0  0  0  0  0  0
   10.7311  -15.2050   24.4297 O   0  0  0  0  0  0  0  0  0  0  0  0
   12.9453  -18.5676   21.3568 O   0  0  0  0  0  0  0  0  0  0  0  0
    6.0262  -13.2136   26.1508 C   0  0  0  0  0  0  0  0  0  0  0  0
    7.4171  -13.6777   25.9350 C   0  0  1  0  0  0  0  0  0  0  0  0
    8.3646  -12.4911   26.0874 C   0  0  0  0  0  0  0  0  0  0  0  0
    7.8021  -14.8376   26.7270 C   0  0  0  0  0  0  0  0  0  0  0  0
    9.1355  -15.4790   26.6150 C   0  0  2  0  0  0  0  0  0  0  0  0
    9.0052  -16.3156   25.3909 N   0  0  0  0  0  0  0  0  0  0  0  0
    9.6553  -16.2475   27.7227 C   0  0  0  0  0  0  0  0  0  0  0  0
    9.4921  -17.6531   27.6599 O   0  0  0  0  0  0  0  0  0  0  0  0
   10.2395  -15.8571   28.7533 O   0  0  0  0  0  0  0  0  0  0  0  0
  1  2  1  0
  2  3  1  0
  3  5  1  0
  3  4  1  1
  5  6  1  6
  5  7  1  0
  7  8  2  0
  9  7  1  0
  9 10  1  0
 10 11  1  6
 12 16  1  0
 12 11  1  0
 13 12  2  0
 14 10  1  0
 14 15  2  0
 18 17  1  1
 18 20  1  0
 19 18  1  0
 21 20  1  1
 21 23  1  0
 21 22  1  0
 22 14  1  0
 23 24  1  0
 25 23  2  0
M  END
$$$$
