IDL.pdb
     RDKit          3D

 25 24  0  0  1  0  0  0  0  0999 V2000
    7.9240  -11.8865   21.5802 C   0  0  0  0  0  0  0  0  0  0  0  0
    7.5939  -13.3318   21.5765 C   0  0  0  0  0  0  0  0  0  0  0  0
    8.2816  -14.0502   20.4511 C   0  0  2  0  0  0  0  0  0  0  0  0
    7.6903  -13.4736   19.1660 C   0  0  0  0  0  0  0  0  0  0  0  0
    7.9805  -15.5120   20.5051 C   0  0  2  0  0  0  0  0  0  0  0  0
    6.5168  -15.6896   20.4903 N   0  0  0  0  0  0  0  0  0  0  0  0
    8.4337  -16.1427   21.7759 C   0  0  0  0  0  0  0  0  0  0  0  0
    7.5804  -16.5154   22.6376 O   0  0  0  0  0  0  0  0  0  0  0  0
    9.7880  -16.3408   22.0510 N   0  0  0  0  0  0  0  0  0  0  0  0
   10.2765  -17.0627   23.2464 C   0  0  1  0  0  0  0  0  0  0  0  0
   11.6556  -17.6176   22.9565 C   0  0  0  0  0  0  0  0  0  0  0  0
   11.6651  -18.7298   21.9986 C   0  0  0  0  0  0  0  0  0  0  0  0
   10.8818  -19.6871   22.1395 O   0  0  0  0  0  0  0  0  0  0  0  0
   10.3695  -16.0777   24.3335 C   0  0  0  0  0  0  0  0  0  0  0  0
   11.1397  -15.0875   24.1493 O   0  0  0  0  0  0  0  0  0  0  0  0
   12.5400  -18.7408   20.9217 O   0  0  0  0  0  0  0  0  0  0  0  0
    7.4697  -13.0737   27.9013 C   0  0  0  0  0  0  0  0  0  0  0  0
    7.7222  -13.9194   26.7107 C   0  0  1  0  0  0  0  0  0  0  0  0
    6.7601  -13.5102   25.5991 C   0  0  0  0  0  0  0  0  0  0  0  0
    9.1144  -13.9746   26.2869 C   0  0  0  0  0  0  0  0  0  0  0  0
   10.0093  -15.1113   26.6172 C   0  0  2  0  0  0  0  0  0  0  0  0
    9.6903  -16.1095   25.5602 N   0  0  0  0  0  0  0  0  0  0  0  0
    9.9554  -15.7056   27.9331 C   0  0  0  0  0  0  0  0  0  0  0  0
   10.4913  -14.9458   29.0017 O   0  0  0  0  0  0  0  0  0  0  0  0
    9.5002  -16.8123   28.2850 O   0  0  0  0  0  0  0  0  0  0  0  0
  1  2  1  0
  2  3  1  0
  3  5  1  0
  3  4  1  6
  5  6  1  1
  5  7  1  0
  7  8  2  0
  9  7  1  0
  9 10  1  0
 10 11  1  6
 12 16  1  0
 12 11  1  0
 13 12  2  0
 14 10  1  0
 14 15  2  0
 18 17  1  1
 18 20  1  0
 19 18  1  0
 21 20  1  1
 21 23  1  0
 21 22  1  0
 22 14  1  0
 23 24  1  0
 25 23  2  0
M  END
$$$$
