IDL.pdb
     RDKit          3D

 25 24  0  0  1  0  0  0  0  0999 V2000
    7.2866  -11.7332   19.6296 C   0  0  0  0  0  0  0  0  0  0  0  0
    7.5921  -13.1569   19.3509 C   0  0  0  0  0  0  0  0  0  0  0  0
    7.8941  -13.9120   20.6135 C   0  0  2  0  0  0  0  0  0  0  0  0
    9.0594  -13.1746   21.2710 C   0  0  0  0  0  0  0  0  0  0  0  0
    8.3252  -15.3062   20.2963 C   0  0  2  0  0  0  0  0  0  0  0  0
    7.2020  -16.0076   19.6476 N   0  0  0  0  0  0  0  0  0  0  0  0
    8.6255  -16.1038   21.5177 C   0  0  0  0  0  0  0  0  0  0  0  0
    7.6790  -16.6253   22.1823 O   0  0  0  0  0  0  0  0  0  0  0  0
    9.9355  -16.2997   21.9587 N   0  0  0  0  0  0  0  0  0  0  0  0
   10.2731  -17.0193   23.2064 C   0  0  1  0  0  0  0  0  0  0  0  0
   11.7350  -17.4129   23.1672 C   0  0  0  0  0  0  0  0  0  0  0  0
   12.0812  -18.3244   22.0699 C   0  0  0  0  0  0  0  0  0  0  0  0
   11.4115  -19.3556   21.8747 O   0  0  0  0  0  0  0  0  0  0  0  0
   10.0541  -16.0798   24.3156 C   0  0  0  0  0  0  0  0  0  0  0  0
   10.7054  -14.9923   24.2864 O   0  0  0  0  0  0  0  0  0  0  0  0
   13.1542  -18.0608   21.2306 O   0  0  0  0  0  0  0  0  0  0  0  0
    6.1512  -12.7706   26.6625 C   0  0  0  0  0  0  0  0  0  0  0  0
    7.5438  -13.1393   26.3143 C   0  0  1  0  0  0  0  0  0  0  0  0
    8.4964  -12.4558   27.2911 C   0  0  0  0  0  0  0  0  0  0  0  0
    7.7784  -14.5698   26.1744 C   0  0  0  0  0  0  0  0  0  0  0  0
    9.0929  -15.1986   26.4553 C   0  0  2  0  0  0  0  0  0  0  0  0
    9.1928  -16.2523   25.4089 N   0  0  0  0  0  0  0  0  0  0  0  0
    9.3628  -15.7365   27.7688 C   0  0  0  0  0  0  0  0  0  0  0  0
    8.9966  -17.0857   27.9964 O   0  0  0  0  0  0  0  0  0  0  0  0
    9.8803  -15.1844   28.7605 O   0  0  0  0  0  0  0  0  0  0  0  0
  1  2  1  0
  2  3  1  0
  3  5  1  0
  3  4  1  6
  5  6  1  1
  5  7  1  0
  7  8  2  0
  9  7  1  0
  9 10  1  0
 10 11  1  6
 12 16  1  0
 12 11  1  0
 13 12  2  0
 14 10  1  0
 14 15  2  0
 18 17  1  1
 18 20  1  0
 19 18  1  0
 21 20  1  1
 21 23  1  0
 21 22  1  0
 22 14  1  0
 23 24  1  0
 25 23  2  0
M  END
$$$$
