IDL.pdb
     RDKit          3D

 25 24  0  0  1  0  0  0  0  0999 V2000
    7.3351  -11.6730   19.0653 C   0  0  0  0  0  0  0  0  0  0  0  0
    7.6326  -13.1112   18.8623 C   0  0  0  0  0  0  0  0  0  0  0  0
    7.8162  -13.8248   20.1710 C   0  0  2  0  0  0  0  0  0  0  0  0
    8.9797  -13.1224   20.8686 C   0  0  0  0  0  0  0  0  0  0  0  0
    8.1866  -15.2527   19.9382 C   0  0  2  0  0  0  0  0  0  0  0  0
    7.0357  -15.9412   19.3253 N   0  0  0  0  0  0  0  0  0  0  0  0
    8.4479  -15.9897   21.2057 C   0  0  0  0  0  0  0  0  0  0  0  0
    7.4811  -16.4836   21.8621 O   0  0  0  0  0  0  0  0  0  0  0  0
    9.7428  -16.1578   21.6997 N   0  0  0  0  0  0  0  0  0  0  0  0
   10.0515  -16.9324   22.9217 C   0  0  1  0  0  0  0  0  0  0  0  0
   11.4507  -17.4998   22.8041 C   0  0  0  0  0  0  0  0  0  0  0  0
   11.8857  -18.2699   23.9756 C   0  0  0  0  0  0  0  0  0  0  0  0
   11.0600  -18.9225   24.6406 O   0  0  0  0  0  0  0  0  0  0  0  0
   10.0040  -15.9905   24.0494 C   0  0  0  0  0  0  0  0  0  0  0  0
   10.2826  -14.7790   23.8001 O   0  0  0  0  0  0  0  0  0  0  0  0
   13.2168  -18.2891   24.3668 O   0  0  0  0  0  0  0  0  0  0  0  0
    6.0165  -13.6802   26.7163 C   0  0  0  0  0  0  0  0  0  0  0  0
    7.3472  -13.4627   26.1011 C   0  0  1  0  0  0  0  0  0  0  0  0
    8.1930  -12.6066   27.0396 C   0  0  0  0  0  0  0  0  0  0  0  0
    8.0175  -14.6759   25.6544 C   0  0  0  0  0  0  0  0  0  0  0  0
    9.2455  -15.1994   26.3027 C   0  0  2  0  0  0  0  0  0  0  0  0
    9.6763  -16.2855   25.3808 N   0  0  0  0  0  0  0  0  0  0  0  0
    9.1907  -15.6629   27.6701 C   0  0  0  0  0  0  0  0  0  0  0  0
    8.6352  -16.9473   27.8895 O   0  0  0  0  0  0  0  0  0  0  0  0
    9.5646  -15.0941   28.7154 O   0  0  0  0  0  0  0  0  0  0  0  0
  1  2  1  0
  2  3  1  0
  3  5  1  0
  3  4  1  1
  5  6  1  1
  5  7  1  0
  7  8  2  0
  9  7  1  0
  9 10  1  0
 10 11  1  6
 12 16  1  0
 12 11  1  0
 13 12  2  0
 14 10  1  0
 14 15  2  0
 18 17  1  1
 18 20  1  0
 19 18  1  0
 21 20  1  6
 21 23  1  0
 21 22  1  0
 22 14  1  0
 23 24  1  0
 25 23  2  0
M  END
$$$$
