IDL.pdb
     RDKit          3D

 25 24  0  0  1  0  0  0  0  0999 V2000
    7.6385  -11.8401   20.8360 C   0  0  0  0  0  0  0  0  0  0  0  0
    7.4284  -13.3036   20.7271 C   0  0  0  0  0  0  0  0  0  0  0  0
    8.3590  -13.9196   19.7221 C   0  0  2  0  0  0  0  0  0  0  0  0
    7.9766  -13.3124   18.3735 C   0  0  0  0  0  0  0  0  0  0  0  0
    8.1538  -15.3975   19.6593 C   0  0  2  0  0  0  0  0  0  0  0  0
    6.7328  -15.6610   19.3665 N   0  0  0  0  0  0  0  0  0  0  0  0
    8.4099  -16.0664   20.9651 C   0  0  0  0  0  0  0  0  0  0  0  0
    7.4398  -16.3556   21.7298 O   0  0  0  0  0  0  0  0  0  0  0  0
    9.7032  -16.3914   21.3783 N   0  0  0  0  0  0  0  0  0  0  0  0
    9.9975  -17.1001   22.6432 C   0  0  1  0  0  0  0  0  0  0  0  0
   11.4470  -17.5389   22.6355 C   0  0  0  0  0  0  0  0  0  0  0  0
   11.8162  -18.4081   23.7593 C   0  0  0  0  0  0  0  0  0  0  0  0
   10.9797  -18.6891   24.6375 O   0  0  0  0  0  0  0  0  0  0  0  0
    9.7891  -16.1359   23.7330 C   0  0  0  0  0  0  0  0  0  0  0  0
   10.5511  -15.1229   23.7595 O   0  0  0  0  0  0  0  0  0  0  0  0
   13.0957  -18.9335   23.8688 O   0  0  0  0  0  0  0  0  0  0  0  0
    8.0751  -12.1912   26.4976 C   0  0  0  0  0  0  0  0  0  0  0  0
    7.1890  -13.3779   26.5538 C   0  0  1  0  0  0  0  0  0  0  0  0
    5.7451  -12.9282   26.3493 C   0  0  0  0  0  0  0  0  0  0  0  0
    7.5867  -14.4769   25.6850 C   0  0  0  0  0  0  0  0  0  0  0  0
    8.8506  -15.2314   25.8731 C   0  0  2  0  0  0  0  0  0  0  0  0
    8.8285  -16.2105   24.7523 N   0  0  0  0  0  0  0  0  0  0  0  0
    9.1132  -15.8845   27.1349 C   0  0  0  0  0  0  0  0  0  0  0  0
    9.9603  -15.2048   28.0442 O   0  0  0  0  0  0  0  0  0  0  0  0
    8.7012  -16.9825   27.5600 O   0  0  0  0  0  0  0  0  0  0  0  0
  1  2  1  0
  2  3  1  0
  3  5  1  0
  3  4  1  6
  5  6  1  1
  5  7  1  0
  7  8  2  0
  9  7  1  0
  9 10  1  0
 10 11  1  6
 12 16  1  0
 12 11  1  0
 13 12  2  0
 14 10  1  0
 14 15  2  0
 18 17  1  6
 18 20  1  0
 19 18  1  0
 21 20  1  1
 21 23  1  0
 21 22  1  0
 22 14  1  0
 23 24  1  0
 25 23  2  0
M  END
$$$$
