IDL.pdb
     RDKit          3D

 25 24  0  0  1  0  0  0  0  0999 V2000
    7.3499  -11.8335   19.0379 C   0  0  0  0  0  0  0  0  0  0  0  0
    7.8262  -13.2126   18.7748 C   0  0  0  0  0  0  0  0  0  0  0  0
    8.0586  -13.9673   20.0523 C   0  0  2  0  0  0  0  0  0  0  0  0
    9.1137  -13.1724   20.8195 C   0  0  0  0  0  0  0  0  0  0  0  0
    8.5994  -15.3287   19.7620 C   0  0  2  0  0  0  0  0  0  0  0  0
    7.6032  -16.0683   18.9651 N   0  0  0  0  0  0  0  0  0  0  0  0
    8.7904  -16.1429   20.9943 C   0  0  0  0  0  0  0  0  0  0  0  0
    7.7895  -16.6777   21.5617 O   0  0  0  0  0  0  0  0  0  0  0  0
   10.0553  -16.3402   21.5511 N   0  0  0  0  0  0  0  0  0  0  0  0
   10.2756  -17.0248   22.8439 C   0  0  1  0  0  0  0  0  0  0  0  0
   11.6911  -17.5623   22.8810 C   0  0  0  0  0  0  0  0  0  0  0  0
   11.9727  -18.5801   21.8615 C   0  0  0  0  0  0  0  0  0  0  0  0
   11.2233  -19.5661   21.7340 O   0  0  0  0  0  0  0  0  0  0  0  0
   10.1142  -16.0127   23.8977 C   0  0  0  0  0  0  0  0  0  0  0  0
   10.8213  -14.9645   23.8027 O   0  0  0  0  0  0  0  0  0  0  0  0
   13.0717  -18.4687   21.0219 O   0  0  0  0  0  0  0  0  0  0  0  0
    6.1161  -12.8144   26.4388 C   0  0  0  0  0  0  0  0  0  0  0  0
    7.5592  -12.9482   26.1286 C   0  0  1  0  0  0  0  0  0  0  0  0
    8.3696  -12.5478   27.3582 C   0  0  0  0  0  0  0  0  0  0  0  0
    7.9452  -14.2361   25.5690 C   0  0  0  0  0  0  0  0  0  0  0  0
    9.1880  -14.9434   25.9658 C   0  0  2  0  0  0  0  0  0  0  0  0
    9.2530  -16.0763   25.0028 N   0  0  0  0  0  0  0  0  0  0  0  0
    9.3469  -15.4020   27.3267 C   0  0  0  0  0  0  0  0  0  0  0  0
    8.7039  -16.6157   27.6731 O   0  0  0  0  0  0  0  0  0  0  0  0
    9.9770  -14.8827   28.2697 O   0  0  0  0  0  0  0  0  0  0  0  0
  1  2  1  0
  2  3  1  0
  3  5  1  0
  3  4  1  1
  5  6  1  6
  5  7  1  0
  7  8  2  0
  9  7  1  0
  9 10  1  0
 10 11  1  6
 12 16  1  0
 12 11  1  0
 13 12  2  0
 14 10  1  0
 14 15  2  0
 18 17  1  1
 18 20  1  0
 19 18  1  0
 21 20  1  1
 21 23  1  0
 21 22  1  0
 22 14  1  0
 23 24  1  0
 25 23  2  0
M  END
$$$$
