GCE.pdb
     RDKit          3D

 20 19  0  0  1  0  0  0  0  0999 V2000
   18.1602  -11.6433  -18.2572 N   0  0  0  0  0  0  0  0  0  0  0  0
   18.4104  -10.2219  -18.3220 C   0  0  0  0  0  0  0  0  0  0  0  0
   19.1107   -9.7218  -17.1175 C   0  0  0  0  0  0  0  0  0  0  0  0
   18.4947   -9.0407  -16.2961 O   0  0  0  0  0  0  0  0  0  0  0  0
   20.4664  -10.0235  -16.9167 N   0  0  0  0  0  0  0  0  0  0  0  0
   21.2785   -9.4971  -15.8520 C   0  0  1  0  0  0  0  0  0  0  0  0
   22.4855  -10.3482  -15.5439 C   0  0  0  0  0  0  0  0  0  0  0  0
   23.3529   -9.7603  -14.0690 S   0  0  0  0  0  0  0  0  0  0  0  0
   21.7655   -8.1278  -16.1263 C   0  0  0  0  0  0  0  0  0  0  0  0
   22.2121   -7.8921  -17.2760 O   0  0  0  0  0  0  0  0  0  0  0  0
   21.7048   -7.1623  -15.0930 N   0  0  0  0  0  0  0  0  0  0  0  0
   22.0761   -5.7697  -15.3135 C   0  0  1  0  0  0  0  0  0  0  0  0
   21.1169   -5.1343  -16.2638 C   0  0  0  0  0  0  0  0  0  0  0  0
   21.3959   -3.6897  -16.4748 C   0  0  0  0  0  0  0  0  0  0  0  0
   20.4365   -3.0364  -17.3827 C   0  0  0  0  0  0  0  0  0  0  0  0
   19.8114   -3.7179  -18.2608 O   0  0  0  0  0  0  0  0  0  0  0  0
   22.2981   -5.0540  -14.0486 C   0  0  0  0  0  0  0  0  0  0  0  0
   23.0497   -3.9026  -13.9043 O   0  0  0  0  0  0  0  0  0  0  0  0
   20.1971   -1.6834  -17.3052 O   0  0  0  0  0  0  0  0  0  0  0  0
   21.7843   -5.4882  -12.9871 O   0  0  0  0  0  0  0  0  0  0  0  0
  2  1  1  0
  3  2  1  0
  4  3  2  0
  5  3  1  0
  6  9  1  0
  6  5  1  0
  6  7  1  6
  7  8  1  0
  9 10  2  0
 11 12  1  0
 11  9  1  0
 13 14  1  0
 12 13  1  1
 15 14  1  0
 15 19  1  0
 16 15  2  0
 17 18  1  0
 17 12  1  0
 20 17  2  0
M  END
$$$$
