GCE.pdb
     RDKit          3D

 20 19  0  0  1  0  0  0  0  0999 V2000
   22.3395  -13.5791  -17.4132 N   0  0  0  0  0  0  0  0  0  0  0  0
   21.3676  -12.5807  -17.0313 C   0  0  0  0  0  0  0  0  0  0  0  0
   21.9647  -11.5050  -16.2080 C   0  0  0  0  0  0  0  0  0  0  0  0
   21.3374  -11.0573  -15.2468 O   0  0  0  0  0  0  0  0  0  0  0  0
   23.2359  -11.0017  -16.5238 N   0  0  0  0  0  0  0  0  0  0  0  0
   23.8542   -9.8683  -15.8888 C   0  0  1  0  0  0  0  0  0  0  0  0
   25.3308   -9.7537  -16.1765 C   0  0  0  0  0  0  0  0  0  0  0  0
   26.2949  -10.9040  -15.1662 S   0  0  0  0  0  0  0  0  0  0  0  0
   23.2308   -8.5842  -16.2756 C   0  0  0  0  0  0  0  0  0  0  0  0
   23.1182   -8.3422  -17.5027 O   0  0  0  0  0  0  0  0  0  0  0  0
   22.7967   -7.7023  -15.2572 N   0  0  0  0  0  0  0  0  0  0  0  0
   22.0629   -6.4782  -15.5555 C   0  0  1  0  0  0  0  0  0  0  0  0
   20.6050   -6.7762  -15.6667 C   0  0  0  0  0  0  0  0  0  0  0  0
   19.7951   -5.5627  -15.9509 C   0  0  0  0  0  0  0  0  0  0  0  0
   18.3468   -5.8280  -16.0096 C   0  0  0  0  0  0  0  0  0  0  0  0
   17.8996   -7.0109  -15.8450 O   0  0  0  0  0  0  0  0  0  0  0  0
   22.4283   -5.3834  -14.6447 C   0  0  0  0  0  0  0  0  0  0  0  0
   22.3622   -4.0364  -14.9490 O   0  0  0  0  0  0  0  0  0  0  0  0
   17.4496   -4.8111  -16.2444 O   0  0  0  0  0  0  0  0  0  0  0  0
   22.8407   -5.6460  -13.4870 O   0  0  0  0  0  0  0  0  0  0  0  0
  2  1  1  0
  3  2  1  0
  4  3  2  0
  5  3  1  0
  6  9  1  0
  6  5  1  0
  6  7  1  6
  7  8  1  0
  9 10  2  0
 11 12  1  0
 11  9  1  0
 13 14  1  0
 12 13  1  1
 15 14  1  0
 15 19  1  0
 16 15  2  0
 17 18  1  0
 17 12  1  0
 20 17  2  0
M  END
$$$$
