GCE.pdb
     RDKit          3D

 20 19  0  0  1  0  0  0  0  0999 V2000
   19.5984  -11.4994  -16.7862 N   0  0  0  0  0  0  0  0  0  0  0  0
   19.2087  -10.2083  -17.3042 C   0  0  0  0  0  0  0  0  0  0  0  0
   19.4456   -9.1198  -16.3294 C   0  0  0  0  0  0  0  0  0  0  0  0
   18.5124   -8.7126  -15.6355 O   0  0  0  0  0  0  0  0  0  0  0  0
   20.7251   -8.5584  -16.1998 N   0  0  0  0  0  0  0  0  0  0  0  0
   21.0568   -7.4537  -15.3397 C   0  0  1  0  0  0  0  0  0  0  0  0
   22.2164   -7.7406  -14.4183 C   0  0  0  0  0  0  0  0  0  0  0  0
   22.5409   -6.3498  -13.3074 S   0  0  0  0  0  0  0  0  0  0  0  0
   21.3866   -6.2226  -16.0900 C   0  0  0  0  0  0  0  0  0  0  0  0
   22.2333   -6.3165  -17.0125 O   0  0  0  0  0  0  0  0  0  0  0  0
   20.7398   -5.0142  -15.7364 N   0  0  0  0  0  0  0  0  0  0  0  0
   20.9492   -3.7786  -16.4815 C   0  0  1  0  0  0  0  0  0  0  0  0
   19.6331   -3.1599  -16.8161 C   0  0  0  0  0  0  0  0  0  0  0  0
   19.7715   -1.9562  -17.6772 C   0  0  0  0  0  0  0  0  0  0  0  0
   18.4900   -1.2801  -17.9455 C   0  0  0  0  0  0  0  0  0  0  0  0
   17.4215   -1.6680  -17.3675 O   0  0  0  0  0  0  0  0  0  0  0  0
   21.9248   -2.8985  -15.8218 C   0  0  0  0  0  0  0  0  0  0  0  0
   22.5585   -1.8226  -16.4155 O   0  0  0  0  0  0  0  0  0  0  0  0
   18.4177   -0.2223  -18.8230 O   0  0  0  0  0  0  0  0  0  0  0  0
   22.2399   -3.1038  -14.6227 O   0  0  0  0  0  0  0  0  0  0  0  0
  2  1  1  0
  3  2  1  0
  4  3  2  0
  5  3  1  0
  6  9  1  0
  6  5  1  0
  6  7  1  6
  7  8  1  0
  9 10  2  0
 11 12  1  0
 11  9  1  0
 13 14  1  0
 12 13  1  1
 15 14  1  0
 15 19  1  0
 16 15  2  0
 17 18  1  0
 17 12  1  0
 20 17  2  0
M  END
$$$$
