GCE.pdb
     RDKit          3D

 20 19  0  0  1  0  0  0  0  0999 V2000
   16.3096  -11.7307  -11.9516 N   0  0  0  0  0  0  0  0  0  0  0  0
   16.9688  -10.7594  -11.1094 C   0  0  0  0  0  0  0  0  0  0  0  0
   16.1513   -9.5407  -10.9153 C   0  0  0  0  0  0  0  0  0  0  0  0
   15.5056   -9.0860  -11.8610 O   0  0  0  0  0  0  0  0  0  0  0  0
   16.1149   -8.9110   -9.6618 N   0  0  0  0  0  0  0  0  0  0  0  0
   15.2947   -7.7753   -9.3340 C   0  0  1  0  0  0  0  0  0  0  0  0
   14.6836   -7.8567   -7.9569 C   0  0  0  0  0  0  0  0  0  0  0  0
   13.6709   -9.3440   -7.7673 S   0  0  0  0  0  0  0  0  0  0  0  0
   16.0311   -6.4952   -9.4123 C   0  0  0  0  0  0  0  0  0  0  0  0
   17.0852   -6.3918   -8.7377 O   0  0  0  0  0  0  0  0  0  0  0  0
   15.5187   -5.4624  -10.2334 N   0  0  0  0  0  0  0  0  0  0  0  0
   16.2392   -4.2124  -10.4436 C   0  0  1  0  0  0  0  0  0  0  0  0
   16.6022   -4.0733  -11.8843 C   0  0  0  0  0  0  0  0  0  0  0  0
   17.3090   -2.7981  -12.1736 C   0  0  0  0  0  0  0  0  0  0  0  0
   17.6286   -2.6187  -13.6009 C   0  0  0  0  0  0  0  0  0  0  0  0
   17.3501   -3.5330  -14.4451 O   0  0  0  0  0  0  0  0  0  0  0  0
   15.5392   -3.0676   -9.8429 C   0  0  0  0  0  0  0  0  0  0  0  0
   16.1356   -1.8835   -9.4509 O   0  0  0  0  0  0  0  0  0  0  0  0
   18.2339   -1.4677  -14.0517 O   0  0  0  0  0  0  0  0  0  0  0  0
   14.2987   -3.1257   -9.6499 O   0  0  0  0  0  0  0  0  0  0  0  0
  2  1  1  0
  3  2  1  0
  4  3  2  0
  5  3  1  0
  6  9  1  0
  6  5  1  0
  6  7  1  1
  7  8  1  0
  9 10  2  0
 11 12  1  0
 11  9  1  0
 13 14  1  0
 12 13  1  6
 15 14  1  0
 15 19  1  0
 16 15  2  0
 17 18  1  0
 17 12  1  0
 20 17  2  0
M  END
$$$$
