GCE.pdb
     RDKit          3D

 20 19  0  0  1  0  0  0  0  0999 V2000
   20.9738  -13.9727  -16.4451 N   0  0  0  0  0  0  0  0  0  0  0  0
   19.7467  -13.8012  -15.7023 C   0  0  0  0  0  0  0  0  0  0  0  0
   19.1356  -12.4724  -15.9306 C   0  0  0  0  0  0  0  0  0  0  0  0
   19.6267  -11.7144  -16.7686 O   0  0  0  0  0  0  0  0  0  0  0  0
   18.0054  -12.0828  -15.1958 N   0  0  0  0  0  0  0  0  0  0  0  0
   17.2660  -10.8664  -15.4047 C   0  0  1  0  0  0  0  0  0  0  0  0
   15.8005  -10.9923  -15.0690 C   0  0  0  0  0  0  0  0  0  0  0  0
   14.9905  -12.2450  -16.0928 S   0  0  0  0  0  0  0  0  0  0  0  0
   17.7994   -9.7303  -14.6225 C   0  0  0  0  0  0  0  0  0  0  0  0
   18.0070   -9.9175  -13.3982 O   0  0  0  0  0  0  0  0  0  0  0  0
   18.0470   -8.5033  -15.2833 N   0  0  0  0  0  0  0  0  0  0  0  0
   18.6439   -7.3630  -14.5983 C   0  0  1  0  0  0  0  0  0  0  0  0
   19.9074   -6.9645  -15.2850 C   0  0  0  0  0  0  0  0  0  0  0  0
   20.5823   -5.8204  -14.6181 C   0  0  0  0  0  0  0  0  0  0  0  0
   21.8216   -5.3987  -15.2948 C   0  0  0  0  0  0  0  0  0  0  0  0
   22.8214   -6.1874  -15.3619 O   0  0  0  0  0  0  0  0  0  0  0  0
   17.6681   -6.2870  -14.3709 C   0  0  0  0  0  0  0  0  0  0  0  0
   16.6838   -5.9008  -15.2617 O   0  0  0  0  0  0  0  0  0  0  0  0
   21.9277   -4.1502  -15.8642 O   0  0  0  0  0  0  0  0  0  0  0  0
   17.6943   -5.6377  -13.2953 O   0  0  0  0  0  0  0  0  0  0  0  0
  2  1  1  0
  3  2  1  0
  4  3  2  0
  5  3  1  0
  6  9  1  0
  6  5  1  0
  6  7  1  1
  7  8  1  0
  9 10  2  0
 11 12  1  0
 11  9  1  0
 13 14  1  0
 12 13  1  6
 15 14  1  0
 15 19  1  0
 16 15  2  0
 17 18  1  0
 17 12  1  0
 20 17  2  0
M  END
$$$$
