GCE.pdb
     RDKit          3D

 20 19  0  0  1  0  0  0  0  0999 V2000
   21.4290  -21.4490   -7.0483 N   0  0  0  0  0  0  0  0  0  0  0  0
   22.8643  -21.6041   -6.9934 C   0  0  0  0  0  0  0  0  0  0  0  0
   23.5451  -20.9096   -8.1094 C   0  0  0  0  0  0  0  0  0  0  0  0
   22.8723  -20.3801   -8.9954 O   0  0  0  0  0  0  0  0  0  0  0  0
   24.9467  -20.8572   -8.1540 N   0  0  0  0  0  0  0  0  0  0  0  0
   25.7155  -20.2709   -9.2194 C   0  0  1  0  0  0  0  0  0  0  0  0
   27.1634  -20.0474   -8.8590 C   0  0  0  0  0  0  0  0  0  0  0  0
   27.3287  -18.9774   -7.4094 S   0  0  0  0  0  0  0  0  0  0  0  0
   25.6913  -21.0812  -10.4564 C   0  0  0  0  0  0  0  0  0  0  0  0
   25.9037  -22.3138  -10.3449 O   0  0  0  0  0  0  0  0  0  0  0  0
   25.4330  -20.4362  -11.6896 N   0  0  0  0  0  0  0  0  0  0  0  0
   25.1706  -21.1844  -12.9132 C   0  0  1  0  0  0  0  0  0  0  0  0
   23.7542  -20.9812  -13.3370 C   0  0  0  0  0  0  0  0  0  0  0  0
   23.3652  -21.8642  -14.4677 C   0  0  0  0  0  0  0  0  0  0  0  0
   23.3319  -21.1688  -15.7665 C   0  0  0  0  0  0  0  0  0  0  0  0
   23.4114  -19.8972  -15.8206 O   0  0  0  0  0  0  0  0  0  0  0  0
   26.1920  -20.9326  -13.9403 C   0  0  0  0  0  0  0  0  0  0  0  0
   26.7310  -21.8886  -14.7812 O   0  0  0  0  0  0  0  0  0  0  0  0
   23.2124  -21.8723  -16.9434 O   0  0  0  0  0  0  0  0  0  0  0  0
   26.6419  -19.7703  -14.1014 O   0  0  0  0  0  0  0  0  0  0  0  0
  2  1  1  0
  3  2  1  0
  4  3  2  0
  5  3  1  0
  6  9  1  0
  6  5  1  0
  6  7  1  1
  7  8  1  0
  9 10  2  0
 11 12  1  0
 11  9  1  0
 13 14  1  0
 12 13  1  6
 15 14  1  0
 15 19  1  0
 16 15  2  0
 17 18  1  0
 17 12  1  0
 20 17  2  0
M  END
$$$$
