GCE.pdb
     RDKit          3D

 20 19  0  0  1  0  0  0  0  0999 V2000
   21.2164  -32.7115  -10.0123 N   0  0  0  0  0  0  0  0  0  0  0  0
   22.3797  -32.0069   -9.5251 C   0  0  0  0  0  0  0  0  0  0  0  0
   23.4331  -32.9302   -9.0463 C   0  0  0  0  0  0  0  0  0  0  0  0
   23.2279  -34.1450   -9.0607 O   0  0  0  0  0  0  0  0  0  0  0  0
   24.6550  -32.4213   -8.5802 N   0  0  0  0  0  0  0  0  0  0  0  0
   25.7530  -33.2209   -8.1058 C   0  0  1  0  0  0  0  0  0  0  0  0
   27.1039  -32.6686   -8.4883 C   0  0  0  0  0  0  0  0  0  0  0  0
   28.4094  -33.9035   -8.2780 S   0  0  0  0  0  0  0  0  0  0  0  0
   25.7473  -33.3877   -6.6363 C   0  0  0  0  0  0  0  0  0  0  0  0
   25.6298  -32.3514   -5.9368 O   0  0  0  0  0  0  0  0  0  0  0  0
   25.8725  -34.6903   -6.0969 N   0  0  0  0  0  0  0  0  0  0  0  0
   25.9363  -34.9293   -4.6600 C   0  0  1  0  0  0  0  0  0  0  0  0
   25.9194  -36.3968   -4.3896 C   0  0  0  0  0  0  0  0  0  0  0  0
   25.9069  -36.7085   -2.9363 C   0  0  0  0  0  0  0  0  0  0  0  0
   25.9762  -38.1521   -2.6484 C   0  0  0  0  0  0  0  0  0  0  0  0
   26.8876  -38.6157   -1.8864 O   0  0  0  0  0  0  0  0  0  0  0  0
   27.0237  -34.1704   -4.0251 C   0  0  0  0  0  0  0  0  0  0  0  0
   28.2877  -33.9914   -4.5558 O   0  0  0  0  0  0  0  0  0  0  0  0
   25.0654  -39.0275   -3.1946 O   0  0  0  0  0  0  0  0  0  0  0  0
   26.8350  -33.6247   -2.9089 O   0  0  0  0  0  0  0  0  0  0  0  0
  2  1  1  0
  3  2  1  0
  4  3  2  0
  5  3  1  0
  6  9  1  0
  6  5  1  0
  6  7  1  1
  7  8  1  0
  9 10  2  0
 11 12  1  0
 11  9  1  0
 13 14  1  0
 12 13  1  6
 15 14  1  0
 15 19  1  0
 16 15  2  0
 17 18  1  0
 17 12  1  0
 20 17  2  0
M  END
$$$$
