GCE.pdb
     RDKit          3D

 20 19  0  0  1  0  0  0  0  0999 V2000
   16.3175  -12.2846  -13.0378 N   0  0  0  0  0  0  0  0  0  0  0  0
   16.8831  -11.3122  -12.1313 C   0  0  0  0  0  0  0  0  0  0  0  0
   15.8792  -10.3268  -11.6705 C   0  0  0  0  0  0  0  0  0  0  0  0
   15.1268   -9.7981  -12.4904 O   0  0  0  0  0  0  0  0  0  0  0  0
   15.7886  -10.0001  -10.3088 N   0  0  0  0  0  0  0  0  0  0  0  0
   14.7727   -9.1629   -9.7283 C   0  0  1  0  0  0  0  0  0  0  0  0
   14.0406   -9.8178   -8.5831 C   0  0  0  0  0  0  0  0  0  0  0  0
   13.3195  -11.4022   -9.0760 S   0  0  0  0  0  0  0  0  0  0  0  0
   15.3061   -7.8767   -9.2299 C   0  0  0  0  0  0  0  0  0  0  0  0
   16.2735   -7.9224   -8.4305 O   0  0  0  0  0  0  0  0  0  0  0  0
   14.7082   -6.6726   -9.6728 N   0  0  0  0  0  0  0  0  0  0  0  0
   15.2058   -5.3653   -9.2612 C   0  0  1  0  0  0  0  0  0  0  0  0
   15.4726   -4.5235  -10.4641 C   0  0  0  0  0  0  0  0  0  0  0  0
   16.0400   -3.1946  -10.1155 C   0  0  0  0  0  0  0  0  0  0  0  0
   16.3606   -2.3696  -11.2936 C   0  0  0  0  0  0  0  0  0  0  0  0
   16.6745   -2.9189  -12.4008 O   0  0  0  0  0  0  0  0  0  0  0  0
   14.3587   -4.7569   -8.2249 C   0  0  0  0  0  0  0  0  0  0  0  0
   13.0285   -5.0603   -8.0018 O   0  0  0  0  0  0  0  0  0  0  0  0
   16.3311   -0.9953  -11.2248 O   0  0  0  0  0  0  0  0  0  0  0  0
   14.8396   -3.8850   -7.4582 O   0  0  0  0  0  0  0  0  0  0  0  0
  2  1  1  0
  3  2  1  0
  4  3  2  0
  5  3  1  0
  6  9  1  0
  6  5  1  0
  6  7  1  1
  7  8  1  0
  9 10  2  0
 11 12  1  0
 11  9  1  0
 13 14  1  0
 12 13  1  6
 15 14  1  0
 15 19  1  0
 16 15  2  0
 17 18  1  0
 17 12  1  0
 20 17  2  0
M  END
$$$$
