YDF.pdb
     RDKit          3D

 32 33  0  0  1  0  0  0  0  0999 V2000
   30.8919  -17.1326  -18.8506 O   0  0  0  0  0  0  0  0  0  0  0  0
   30.0730  -17.2983  -17.7340 C   0  0  0  0  0  0  0  0  0  0  0  0
   30.0645  -18.4799  -17.0164 C   0  0  0  0  0  0  0  0  0  0  0  0
   29.2443  -18.6128  -15.9177 C   0  0  0  0  0  0  0  0  0  0  0  0
   28.4071  -17.6094  -15.4778 C   0  0  0  0  0  0  0  0  0  0  0  0
   27.5257  -17.7692  -14.2871 C   0  0  0  0  0  0  0  0  0  0  0  0
   26.5033  -18.8297  -14.6175 C   0  0  2  0  0  0  0  0  0  0  0  0
   25.5992  -18.2608  -15.6004 N   0  0  0  0  0  0  0  0  0  0  0  0
   25.7262  -19.1312  -13.3797 C   0  0  0  0  0  0  0  0  0  0  0  0
   25.0026  -18.2528  -12.8431 O   0  0  0  0  0  0  0  0  0  0  0  0
   28.4150  -16.4222  -16.1981 C   0  0  0  0  0  0  0  0  0  0  0  0
   29.2373  -16.2916  -17.2979 C   0  0  0  0  0  0  0  0  0  0  0  0
   25.7666  -20.4078  -12.7569 N   0  0  0  0  0  0  0  0  0  0  0  0
   25.0729  -20.6918  -11.4945 C   0  0  1  0  0  0  0  0  0  0  0  0
   24.0349  -21.7559  -11.6824 C   0  0  0  0  0  0  0  0  0  0  0  0
   22.8050  -21.1409  -12.2241 C   0  0  0  0  0  0  0  0  0  0  0  0
   22.6984  -19.9228  -12.4782 O   0  0  0  0  0  0  0  0  0  0  0  0
   26.0196  -20.9055  -10.4008 C   0  0  0  0  0  0  0  0  0  0  0  0
   26.9979  -21.6840  -10.5169 O   0  0  0  0  0  0  0  0  0  0  0  0
   21.6638  -21.9225  -12.4865 O   0  0  0  0  0  0  0  0  0  0  0  0
   25.9165  -20.2580   -9.1250 N   0  0  0  0  0  0  0  0  0  0  0  0
   26.6719  -20.6736   -7.9581 C   0  0  1  0  0  0  0  0  0  0  0  0
   27.5144  -19.4714   -7.5686 C   0  0  0  0  0  0  0  0  0  0  0  0
   28.2801  -19.6419   -6.3431 C   0  0  0  0  0  0  0  0  0  0  0  0
   28.0848  -18.8000   -5.2789 C   0  0  0  0  0  0  0  0  0  0  0  0
   28.7897  -18.9291   -4.0951 C   0  0  0  0  0  0  0  0  0  0  0  0
   29.7152  -19.9421   -3.9979 C   0  0  0  0  0  0  0  0  0  0  0  0
   29.9075  -20.7787   -5.0590 C   0  0  0  0  0  0  0  0  0  0  0  0
   29.2045  -20.6475   -6.2351 C   0  0  0  0  0  0  0  0  0  0  0  0
   25.8096  -21.1635   -6.8761 C   0  0  0  0  0  0  0  0  0  0  0  0
   24.4208  -21.1179   -6.9010 O   0  0  0  0  0  0  0  0  0  0  0  0
   26.3482  -21.6591   -5.8548 O   0  0  0  0  0  0  0  0  0  0  0  0
  2  1  1  0
  3  2  2  0
  4  3  1  0
  5 11  1  0
  5  4  2  0
  6  5  1  0
  6  7  1  0
  7  8  1  6
  9 10  2  0
  9  7  1  0
 11 12  2  0
 12  2  1  0
 13  9  1  0
 14 15  1  6
 14 13  1  0
 16 15  1  0
 16 20  1  0
 17 16  2  0
 18 14  1  0
 19 18  2  0
 21 18  1  0
 22 21  1  0
 22 23  1  1
 24 23  1  0
 25 24  2  0
 26 25  1  0
 27 26  2  0
 27 28  1  0
 28 29  2  0
 29 24  1  0
 30 31  1  0
 30 22  1  0
 32 30  2  0
M  END
$$$$
