YDF.pdb
     RDKit          3D

 32 33  0  0  1  0  0  0  0  0999 V2000
   30.2029  -15.3704  -18.7167 O   0  0  0  0  0  0  0  0  0  0  0  0
   29.5247  -15.9506  -17.6452 C   0  0  0  0  0  0  0  0  0  0  0  0
   28.3640  -15.3939  -17.1411 C   0  0  0  0  0  0  0  0  0  0  0  0
   27.7171  -15.9909  -16.0816 C   0  0  0  0  0  0  0  0  0  0  0  0
   28.1705  -17.1435  -15.4759 C   0  0  0  0  0  0  0  0  0  0  0  0
   27.4589  -17.7769  -14.3302 C   0  0  0  0  0  0  0  0  0  0  0  0
   26.9852  -19.1364  -14.7849 C   0  0  2  0  0  0  0  0  0  0  0  0
   26.0774  -18.9229  -15.8973 N   0  0  0  0  0  0  0  0  0  0  0  0
   26.2223  -19.7635  -13.6662 C   0  0  0  0  0  0  0  0  0  0  0  0
   25.1293  -19.2755  -13.2784 O   0  0  0  0  0  0  0  0  0  0  0  0
   29.3363  -17.7035  -15.9815 C   0  0  0  0  0  0  0  0  0  0  0  0
   29.9823  -17.1037  -17.0426 C   0  0  0  0  0  0  0  0  0  0  0  0
   26.6883  -20.9261  -12.9951 N   0  0  0  0  0  0  0  0  0  0  0  0
   25.8861  -21.6293  -11.9864 C   0  0  1  0  0  0  0  0  0  0  0  0
   25.8119  -23.0949  -12.2887 C   0  0  0  0  0  0  0  0  0  0  0  0
   24.9191  -23.3046  -13.4477 C   0  0  0  0  0  0  0  0  0  0  0  0
   24.3023  -22.3804  -14.0179 O   0  0  0  0  0  0  0  0  0  0  0  0
   26.3025  -21.2746  -10.6302 C   0  0  0  0  0  0  0  0  0  0  0  0
   27.5124  -21.1283  -10.3279 O   0  0  0  0  0  0  0  0  0  0  0  0
   24.7168  -24.5931  -13.9777 O   0  0  0  0  0  0  0  0  0  0  0  0
   25.3846  -21.0669   -9.5478 N   0  0  0  0  0  0  0  0  0  0  0  0
   25.7996  -20.9591   -8.1617 C   0  0  1  0  0  0  0  0  0  0  0  0
   26.6560  -19.7069   -8.0889 C   0  0  0  0  0  0  0  0  0  0  0  0
   27.4393  -19.5808   -6.8692 C   0  0  0  0  0  0  0  0  0  0  0  0
   27.0917  -20.2831   -5.7444 C   0  0  0  0  0  0  0  0  0  0  0  0
   27.8108  -20.1938   -4.5654 C   0  0  0  0  0  0  0  0  0  0  0  0
   28.9102  -19.3675   -4.5367 C   0  0  0  0  0  0  0  0  0  0  0  0
   29.2539  -18.6695   -5.6581 C   0  0  0  0  0  0  0  0  0  0  0  0
   28.5364  -18.7607   -6.8292 C   0  0  0  0  0  0  0  0  0  0  0  0
   24.6621  -20.9490   -7.2341 C   0  0  0  0  0  0  0  0  0  0  0  0
   24.6957  -21.4777   -5.9493 O   0  0  0  0  0  0  0  0  0  0  0  0
   23.5813  -20.4319   -7.6127 O   0  0  0  0  0  0  0  0  0  0  0  0
  2  1  1  0
  3  2  2  0
  4  3  1  0
  5 11  1  0
  5  4  2  0
  6  5  1  0
  6  7  1  0
  7  8  1  6
  9 10  2  0
  9  7  1  0
 11 12  2  0
 12  2  1  0
 13  9  1  0
 14 15  1  6
 14 13  1  0
 16 15  1  0
 16 20  1  0
 17 16  2  0
 18 14  1  0
 19 18  2  0
 21 18  1  0
 22 21  1  0
 22 23  1  6
 24 23  1  0
 25 24  2  0
 26 25  1  0
 27 26  2  0
 27 28  1  0
 28 29  2  0
 29 24  1  0
 30 31  1  0
 30 22  1  0
 32 30  2  0
M  END
$$$$
