YDF.pdb
     RDKit          3D

 32 33  0  0  1  0  0  0  0  0999 V2000
   29.1329  -42.2733    6.3455 O   0  0  0  0  0  0  0  0  0  0  0  0
   29.0108  -40.8948    6.1741 C   0  0  0  0  0  0  0  0  0  0  0  0
   28.1800  -40.3600    5.2071 C   0  0  0  0  0  0  0  0  0  0  0  0
   28.0811  -38.9937    5.0625 C   0  0  0  0  0  0  0  0  0  0  0  0
   28.7810  -38.1014    5.8468 C   0  0  0  0  0  0  0  0  0  0  0  0
   28.6628  -36.6257    5.6776 C   0  0  0  0  0  0  0  0  0  0  0  0
   29.0493  -36.2990    4.2552 C   0  0  2  0  0  0  0  0  0  0  0  0
   30.4980  -36.3528    4.1826 N   0  0  0  0  0  0  0  0  0  0  0  0
   28.6132  -34.9024    3.9618 C   0  0  0  0  0  0  0  0  0  0  0  0
   29.3855  -33.9300    4.1643 O   0  0  0  0  0  0  0  0  0  0  0  0
   29.6157  -38.6376    6.8184 C   0  0  0  0  0  0  0  0  0  0  0  0
   29.7130  -40.0061    6.9611 C   0  0  0  0  0  0  0  0  0  0  0  0
   27.3218  -34.6089    3.4466 N   0  0  0  0  0  0  0  0  0  0  0  0
   26.8936  -33.2422    3.1232 C   0  0  1  0  0  0  0  0  0  0  0  0
   25.7440  -33.2552    2.1623 C   0  0  0  0  0  0  0  0  0  0  0  0
   26.2579  -33.4942    0.7974 C   0  0  0  0  0  0  0  0  0  0  0  0
   27.3414  -33.0347    0.3791 O   0  0  0  0  0  0  0  0  0  0  0  0
   26.7100  -32.4397    4.3318 C   0  0  0  0  0  0  0  0  0  0  0  0
   26.1822  -32.9159    5.3668 O   0  0  0  0  0  0  0  0  0  0  0  0
   25.5288  -34.2733   -0.1211 O   0  0  0  0  0  0  0  0  0  0  0  0
   27.1084  -31.0660    4.4394 N   0  0  0  0  0  0  0  0  0  0  0  0
   26.8557  -30.2536    5.6147 C   0  0  1  0  0  0  0  0  0  0  0  0
   27.7547  -29.0380    5.4709 C   0  0  0  0  0  0  0  0  0  0  0  0
   27.7240  -28.1263    6.6045 C   0  0  0  0  0  0  0  0  0  0  0  0
   26.9317  -27.0080    6.5756 C   0  0  0  0  0  0  0  0  0  0  0  0
   26.8713  -26.1172    7.6329 C   0  0  0  0  0  0  0  0  0  0  0  0
   27.6387  -26.3764    8.7446 C   0  0  0  0  0  0  0  0  0  0  0  0
   28.4266  -27.4906    8.7706 C   0  0  0  0  0  0  0  0  0  0  0  0
   28.4843  -28.3747    7.7171 C   0  0  0  0  0  0  0  0  0  0  0  0
   25.4351  -29.9199    5.7717 C   0  0  0  0  0  0  0  0  0  0  0  0
   24.5511  -29.7442    4.7139 O   0  0  0  0  0  0  0  0  0  0  0  0
   24.9742  -29.7808    6.9324 O   0  0  0  0  0  0  0  0  0  0  0  0
  2  1  1  0
  3  2  2  0
  4  3  1  0
  5 11  1  0
  5  4  2  0
  6  5  1  0
  6  7  1  0
  7  8  1  1
  9 10  2  0
  9  7  1  0
 11 12  2  0
 12  2  1  0
 13  9  1  0
 14 15  1  1
 14 13  1  0
 16 15  1  0
 16 20  1  0
 17 16  2  0
 18 14  1  0
 19 18  2  0
 21 18  1  0
 22 21  1  0
 22 23  1  6
 24 23  1  0
 25 24  2  0
 26 25  1  0
 27 26  2  0
 27 28  1  0
 28 29  2  0
 29 24  1  0
 30 31  1  0
 30 22  1  0
 32 30  2  0
M  END
$$$$
