YDF.pdb
     RDKit          3D

 32 33  0  0  1  0  0  0  0  0999 V2000
   20.4841  -14.0362  -16.6304 O   0  0  0  0  0  0  0  0  0  0  0  0
   21.0780  -15.2205  -16.1950 C   0  0  0  0  0  0  0  0  0  0  0  0
   20.3741  -16.4099  -16.1636 C   0  0  0  0  0  0  0  0  0  0  0  0
   20.9889  -17.5631  -15.7281 C   0  0  0  0  0  0  0  0  0  0  0  0
   22.3020  -17.6038  -15.3095 C   0  0  0  0  0  0  0  0  0  0  0  0
   22.9525  -18.8599  -14.8411 C   0  0  0  0  0  0  0  0  0  0  0  0
   24.0046  -19.2331  -15.8573 C   0  0  2  0  0  0  0  0  0  0  0  0
   23.3084  -19.6315  -17.0671 N   0  0  0  0  0  0  0  0  0  0  0  0
   24.7595  -20.4106  -15.3372 C   0  0  0  0  0  0  0  0  0  0  0  0
   24.2404  -21.5567  -15.3294 O   0  0  0  0  0  0  0  0  0  0  0  0
   23.0098  -16.4095  -15.3406 C   0  0  0  0  0  0  0  0  0  0  0  0
   22.3919  -15.2561  -15.7771 C   0  0  0  0  0  0  0  0  0  0  0  0
   26.0829  -20.2943  -14.8329 N   0  0  0  0  0  0  0  0  0  0  0  0
   26.8283  -21.4423  -14.3020 C   0  0  1  0  0  0  0  0  0  0  0  0
   28.2666  -21.3847  -14.7179 C   0  0  0  0  0  0  0  0  0  0  0  0
   28.3522  -21.5432  -16.1848 C   0  0  0  0  0  0  0  0  0  0  0  0
   27.5596  -22.2432  -16.8492 O   0  0  0  0  0  0  0  0  0  0  0  0
   26.5810  -21.6253  -12.8725 C   0  0  0  0  0  0  0  0  0  0  0  0
   27.0310  -22.6161  -12.2459 O   0  0  0  0  0  0  0  0  0  0  0  0
   29.3605  -20.8937  -16.9222 O   0  0  0  0  0  0  0  0  0  0  0  0
   25.8182  -20.7081  -12.0760 N   0  0  0  0  0  0  0  0  0  0  0  0
   25.5731  -20.8979  -10.6586 C   0  0  1  0  0  0  0  0  0  0  0  0
   26.1985  -19.6960   -9.9723 C   0  0  0  0  0  0  0  0  0  0  0  0
   27.3702  -20.0027   -9.1660 C   0  0  0  0  0  0  0  0  0  0  0  0
   28.4518  -20.6337   -9.7237 C   0  0  0  0  0  0  0  0  0  0  0  0
   29.5862  -20.9410   -8.9932 C   0  0  0  0  0  0  0  0  0  0  0  0
   29.6146  -20.5949   -7.6622 C   0  0  0  0  0  0  0  0  0  0  0  0
   28.5363  -19.9667   -7.1096 C   0  0  0  0  0  0  0  0  0  0  0  0
   27.4094  -19.6625   -7.8391 C   0  0  0  0  0  0  0  0  0  0  0  0
   24.1483  -21.0744  -10.3538 C   0  0  0  0  0  0  0  0  0  0  0  0
   23.1290  -20.9748  -11.2933 O   0  0  0  0  0  0  0  0  0  0  0  0
   23.8134  -21.3328   -9.1707 O   0  0  0  0  0  0  0  0  0  0  0  0
  2  1  1  0
  3  2  2  0
  4  3  1  0
  5 11  1  0
  5  4  2  0
  6  5  1  0
  6  7  1  0
  7  8  1  6
  9 10  2  0
  9  7  1  0
 11 12  2  0
 12  2  1  0
 13  9  1  0
 14 15  1  1
 14 13  1  0
 16 15  1  0
 16 20  1  0
 17 16  2  0
 18 14  1  0
 19 18  2  0
 21 18  1  0
 22 21  1  0
 22 23  1  1
 24 23  1  0
 25 24  2  0
 26 25  1  0
 27 26  2  0
 27 28  1  0
 28 29  2  0
 29 24  1  0
 30 31  1  0
 30 22  1  0
 32 30  2  0
M  END
$$$$
