YDF.pdb
     RDKit          3D

 32 33  0  0  1  0  0  0  0  0999 V2000
   25.3084  -31.6997   -9.8951 O   0  0  0  0  0  0  0  0  0  0  0  0
   25.5899  -32.4856   -8.7781 C   0  0  0  0  0  0  0  0  0  0  0  0
   25.2648  -32.0656   -7.5017 C   0  0  0  0  0  0  0  0  0  0  0  0
   25.5559  -32.8650   -6.4183 C   0  0  0  0  0  0  0  0  0  0  0  0
   26.1698  -34.0942   -6.5334 C   0  0  0  0  0  0  0  0  0  0  0  0
   26.4780  -34.9470   -5.3510 C   0  0  0  0  0  0  0  0  0  0  0  0
   27.8282  -34.5236   -4.8249 C   0  0  2  0  0  0  0  0  0  0  0  0
   28.8172  -34.9354   -5.8045 N   0  0  0  0  0  0  0  0  0  0  0  0
   28.0866  -35.2616   -3.5539 C   0  0  0  0  0  0  0  0  0  0  0  0
   28.8095  -36.2914   -3.5421 O   0  0  0  0  0  0  0  0  0  0  0  0
   26.4967  -34.5169   -7.8151 C   0  0  0  0  0  0  0  0  0  0  0  0
   26.2041  -33.7146   -8.8984 C   0  0  0  0  0  0  0  0  0  0  0  0
   27.5356  -34.8414   -2.3133 N   0  0  0  0  0  0  0  0  0  0  0  0
   27.9588  -35.4123   -1.0286 C   0  0  1  0  0  0  0  0  0  0  0  0
   29.4529  -35.4795   -0.9394 C   0  0  0  0  0  0  0  0  0  0  0  0
   29.8343  -36.0206    0.3820 C   0  0  0  0  0  0  0  0  0  0  0  0
   29.9501  -35.3168    1.4071 O   0  0  0  0  0  0  0  0  0  0  0  0
   27.2777  -34.7672    0.0932 C   0  0  0  0  0  0  0  0  0  0  0  0
   26.9422  -35.4085    1.1192 O   0  0  0  0  0  0  0  0  0  0  0  0
   30.0920  -37.3944    0.5510 O   0  0  0  0  0  0  0  0  0  0  0  0
   26.9399  -33.3734    0.1200 N   0  0  0  0  0  0  0  0  0  0  0  0
   25.6418  -32.8769    0.5365 C   0  0  1  0  0  0  0  0  0  0  0  0
   25.8565  -31.4133    0.8809 C   0  0  0  0  0  0  0  0  0  0  0  0
   26.2543  -31.1689    2.2590 C   0  0  0  0  0  0  0  0  0  0  0  0
   27.4446  -31.6543    2.7352 C   0  0  0  0  0  0  0  0  0  0  0  0
   27.8614  -31.4423    4.0376 C   0  0  0  0  0  0  0  0  0  0  0  0
   27.0420  -30.7176    4.8715 C   0  0  0  0  0  0  0  0  0  0  0  0
   25.8575  -30.2355    4.3947 C   0  0  0  0  0  0  0  0  0  0  0  0
   25.4459  -30.4482    3.0985 C   0  0  0  0  0  0  0  0  0  0  0  0
   24.6044  -33.0968   -0.4782 C   0  0  0  0  0  0  0  0  0  0  0  0
   24.8558  -33.2250   -1.8390 O   0  0  0  0  0  0  0  0  0  0  0  0
   23.4066  -33.1764   -0.1070 O   0  0  0  0  0  0  0  0  0  0  0  0
  2  1  1  0
  3  2  2  0
  4  3  1  0
  5 11  1  0
  5  4  2  0
  6  5  1  0
  6  7  1  0
  7  8  1  6
  9 10  2  0
  9  7  1  0
 11 12  2  0
 12  2  1  0
 13  9  1  0
 14 15  1  1
 14 13  1  0
 16 15  1  0
 16 20  1  0
 17 16  2  0
 18 14  1  0
 19 18  2  0
 21 18  1  0
 22 21  1  0
 22 23  1  6
 24 23  1  0
 25 24  2  0
 26 25  1  0
 27 26  2  0
 27 28  1  0
 28 29  2  0
 29 24  1  0
 30 31  1  0
 30 22  1  0
 32 30  2  0
M  END
$$$$
