YDF.pdb
     RDKit          3D

 32 33  0  0  1  0  0  0  0  0999 V2000
   23.0661  -19.3827  -21.4667 O   0  0  0  0  0  0  0  0  0  0  0  0
   23.0278  -19.1777  -20.0878 C   0  0  0  0  0  0  0  0  0  0  0  0
   22.2587  -19.9763  -19.2621 C   0  0  0  0  0  0  0  0  0  0  0  0
   22.2419  -19.7484  -17.9037 C   0  0  0  0  0  0  0  0  0  0  0  0
   22.9669  -18.7426  -17.3004 C   0  0  0  0  0  0  0  0  0  0  0  0
   22.9378  -18.5092  -15.8291 C   0  0  0  0  0  0  0  0  0  0  0  0
   24.1390  -19.2041  -15.2347 C   0  0  2  0  0  0  0  0  0  0  0  0
   23.9425  -20.6305  -15.4191 N   0  0  0  0  0  0  0  0  0  0  0  0
   24.1681  -18.9166  -13.7708 C   0  0  0  0  0  0  0  0  0  0  0  0
   24.2610  -17.7353  -13.3476 O   0  0  0  0  0  0  0  0  0  0  0  0
   23.7398  -17.9399  -18.1290 C   0  0  0  0  0  0  0  0  0  0  0  0
   23.7549  -18.1702  -19.4890 C   0  0  0  0  0  0  0  0  0  0  0  0
   24.0931  -19.9501  -12.7984 N   0  0  0  0  0  0  0  0  0  0  0  0
   23.8214  -19.6811  -11.3809 C   0  0  1  0  0  0  0  0  0  0  0  0
   22.3838  -19.9465  -11.0521 C   0  0  0  0  0  0  0  0  0  0  0  0
   22.1045  -21.3863  -11.2338 C   0  0  0  0  0  0  0  0  0  0  0  0
   21.2757  -22.0192  -10.5465 O   0  0  0  0  0  0  0  0  0  0  0  0
   24.8070  -20.3279  -10.5157 C   0  0  0  0  0  0  0  0  0  0  0  0
   25.2028  -21.5006  -10.7272 O   0  0  0  0  0  0  0  0  0  0  0  0
   22.7793  -22.1327  -12.2186 O   0  0  0  0  0  0  0  0  0  0  0  0
   25.3965  -19.6930   -9.3725 N   0  0  0  0  0  0  0  0  0  0  0  0
   26.2686  -20.3826   -8.4404 C   0  0  1  0  0  0  0  0  0  0  0  0
   27.0890  -19.2951   -7.7689 C   0  0  0  0  0  0  0  0  0  0  0  0
   27.9239  -19.7590   -6.6713 C   0  0  0  0  0  0  0  0  0  0  0  0
   27.7272  -19.2850   -5.4001 C   0  0  0  0  0  0  0  0  0  0  0  0
   28.4969  -19.7019   -4.3283 C   0  0  0  0  0  0  0  0  0  0  0  0
   29.4901  -20.6243   -4.5623 C   0  0  0  0  0  0  0  0  0  0  0  0
   29.6837  -21.0944   -5.8289 C   0  0  0  0  0  0  0  0  0  0  0  0
   28.9163  -20.6776   -6.8928 C   0  0  0  0  0  0  0  0  0  0  0  0
   25.5266  -21.2275   -7.4971 C   0  0  0  0  0  0  0  0  0  0  0  0
   26.1048  -22.2174   -6.7116 O   0  0  0  0  0  0  0  0  0  0  0  0
   24.2872  -21.0557   -7.3817 O   0  0  0  0  0  0  0  0  0  0  0  0
  2  1  1  0
  3  2  2  0
  4  3  1  0
  5 11  1  0
  5  4  2  0
  6  5  1  0
  6  7  1  0
  7  8  1  1
  9 10  2  0
  9  7  1  0
 11 12  2  0
 12  2  1  0
 13  9  1  0
 14 15  1  1
 14 13  1  0
 16 15  1  0
 16 20  1  0
 17 16  2  0
 18 14  1  0
 19 18  2  0
 21 18  1  0
 22 21  1  0
 22 23  1  1
 24 23  1  0
 25 24  2  0
 26 25  1  0
 27 26  2  0
 27 28  1  0
 28 29  2  0
 29 24  1  0
 30 31  1  0
 30 22  1  0
 32 30  2  0
M  END
$$$$
