YDF.pdb
     RDKit          3D

 32 33  0  0  1  0  0  0  0  0999 V2000
   28.1863  -16.6478  -16.4497 O   0  0  0  0  0  0  0  0  0  0  0  0
   28.0013  -18.0035  -16.1801 C   0  0  0  0  0  0  0  0  0  0  0  0
   26.8818  -18.6804  -16.6271 C   0  0  0  0  0  0  0  0  0  0  0  0
   26.7279  -20.0197  -16.3443 C   0  0  0  0  0  0  0  0  0  0  0  0
   27.6498  -20.7470  -15.6216 C   0  0  0  0  0  0  0  0  0  0  0  0
   27.4683  -22.1958  -15.3242 C   0  0  0  0  0  0  0  0  0  0  0  0
   26.5735  -22.7711  -16.3954 C   0  0  2  0  0  0  0  0  0  0  0  0
   27.1871  -22.4652  -17.6749 N   0  0  0  0  0  0  0  0  0  0  0  0
   25.2550  -22.0759  -16.3257 C   0  0  0  0  0  0  0  0  0  0  0  0
   25.0292  -21.0510  -17.0198 O   0  0  0  0  0  0  0  0  0  0  0  0
   28.7746  -20.0680  -15.1723 C   0  0  0  0  0  0  0  0  0  0  0  0
   28.9264  -18.7267  -15.4567 C   0  0  0  0  0  0  0  0  0  0  0  0
   24.2060  -22.5327  -15.4829 N   0  0  0  0  0  0  0  0  0  0  0  0
   22.9346  -21.8116  -15.3448 C   0  0  1  0  0  0  0  0  0  0  0  0
   21.9917  -22.1729  -16.4518 C   0  0  0  0  0  0  0  0  0  0  0  0
   20.7595  -21.3679  -16.3191 C   0  0  0  0  0  0  0  0  0  0  0  0
   20.7602  -20.1419  -16.0807 O   0  0  0  0  0  0  0  0  0  0  0  0
   22.4022  -21.9224  -13.9873 C   0  0  0  0  0  0  0  0  0  0  0  0
   22.2895  -23.0321  -13.4107 O   0  0  0  0  0  0  0  0  0  0  0  0
   19.4913  -21.9629  -16.4593 O   0  0  0  0  0  0  0  0  0  0  0  0
   21.9706  -20.7964  -13.2106 N   0  0  0  0  0  0  0  0  0  0  0  0
   21.4275  -20.9150  -11.8704 C   0  0  1  0  0  0  0  0  0  0  0  0
   22.2003  -19.9154  -11.0276 C   0  0  0  0  0  0  0  0  0  0  0  0
   23.4945  -20.3903  -10.5623 C   0  0  0  0  0  0  0  0  0  0  0  0
   23.6819  -20.7173   -9.2442 C   0  0  0  0  0  0  0  0  0  0  0  0
   24.8953  -21.1750   -8.7614 C   0  0  0  0  0  0  0  0  0  0  0  0
   25.9403  -21.3010   -9.6468 C   0  0  0  0  0  0  0  0  0  0  0  0
   25.7509  -20.9747  -10.9585 C   0  0  0  0  0  0  0  0  0  0  0  0
   24.5426  -20.5197  -11.4355 C   0  0  0  0  0  0  0  0  0  0  0  0
   19.9738  -20.7163  -11.8339 C   0  0  0  0  0  0  0  0  0  0  0  0
   19.1526  -21.1358  -10.7941 O   0  0  0  0  0  0  0  0  0  0  0  0
   19.4220  -20.1302  -12.7988 O   0  0  0  0  0  0  0  0  0  0  0  0
  2  1  1  0
  3  2  2  0
  4  3  1  0
  5 11  1  0
  5  4  2  0
  6  5  1  0
  6  7  1  0
  7  8  1  6
  9 10  2  0
  9  7  1  0
 11 12  2  0
 12  2  1  0
 13  9  1  0
 14 15  1  6
 14 13  1  0
 16 15  1  0
 16 20  1  0
 17 16  2  0
 18 14  1  0
 19 18  2  0
 21 18  1  0
 22 21  1  0
 22 23  1  1
 24 23  1  0
 25 24  2  0
 26 25  1  0
 27 26  2  0
 27 28  1  0
 28 29  2  0
 29 24  1  0
 30 31  1  0
 30 22  1  0
 32 30  2  0
M  END
$$$$
