YDF.pdb
     RDKit          3D

 32 33  0  0  1  0  0  0  0  0999 V2000
   41.4222    1.6523   -5.2316 O   0  0  0  0  0  0  0  0  0  0  0  0
   41.3656    0.4875   -5.9964 C   0  0  0  0  0  0  0  0  0  0  0  0
   40.9990    0.5181   -7.3290 C   0  0  0  0  0  0  0  0  0  0  0  0
   40.9527   -0.6500   -8.0578 C   0  0  0  0  0  0  0  0  0  0  0  0
   41.2587   -1.8833   -7.5228 C   0  0  0  0  0  0  0  0  0  0  0  0
   41.2036   -3.1379   -8.3250 C   0  0  0  0  0  0  0  0  0  0  0  0
   42.6153   -3.4734   -8.7416 C   0  0  2  0  0  0  0  0  0  0  0  0
   43.0018   -2.5106   -9.7569 N   0  0  0  0  0  0  0  0  0  0  0  0
   42.6102   -4.8327   -9.3572 C   0  0  0  0  0  0  0  0  0  0  0  0
   42.8687   -4.9880  -10.5787 O   0  0  0  0  0  0  0  0  0  0  0  0
   41.6271   -1.9150   -6.1844 C   0  0  0  0  0  0  0  0  0  0  0  0
   41.6727   -0.7440   -5.4567 C   0  0  0  0  0  0  0  0  0  0  0  0
   42.3168   -6.0004   -8.6025 N   0  0  0  0  0  0  0  0  0  0  0  0
   42.3611   -7.3475   -9.1847 C   0  0  1  0  0  0  0  0  0  0  0  0
   43.6508   -8.0327   -8.8498 C   0  0  0  0  0  0  0  0  0  0  0  0
   43.6289   -9.4020   -9.4054 C   0  0  0  0  0  0  0  0  0  0  0  0
   43.3783  -10.4180   -8.7236 O   0  0  0  0  0  0  0  0  0  0  0  0
   41.1410   -8.0976   -8.8896 C   0  0  0  0  0  0  0  0  0  0  0  0
   40.7763   -8.3279   -7.7104 O   0  0  0  0  0  0  0  0  0  0  0  0
   43.8973   -9.6311  -10.7684 O   0  0  0  0  0  0  0  0  0  0  0  0
   40.2709   -8.6257   -9.9003 N   0  0  0  0  0  0  0  0  0  0  0  0
   39.0515   -9.3525   -9.6006 C   0  0  1  0  0  0  0  0  0  0  0  0
   39.5004  -10.6592   -8.9699 C   0  0  0  0  0  0  0  0  0  0  0  0
   38.4148  -11.5440   -8.5756 C   0  0  0  0  0  0  0  0  0  0  0  0
   37.8059  -12.3519   -9.5007 C   0  0  0  0  0  0  0  0  0  0  0  0
   36.7723  -13.2094   -9.1670 C   0  0  0  0  0  0  0  0  0  0  0  0
   36.3522  -13.2410   -7.8575 C   0  0  0  0  0  0  0  0  0  0  0  0
   36.9603  -12.4356   -6.9387 C   0  0  0  0  0  0  0  0  0  0  0  0
   37.9882  -11.5837   -7.2739 C   0  0  0  0  0  0  0  0  0  0  0  0
   38.1292   -8.5796   -8.7602 C   0  0  0  0  0  0  0  0  0  0  0  0
   38.3102   -8.3563   -7.4005 O   0  0  0  0  0  0  0  0  0  0  0  0
   37.1052   -8.0813   -9.2911 O   0  0  0  0  0  0  0  0  0  0  0  0
  2  1  1  0
  3  2  2  0
  4  3  1  0
  5 11  1  0
  5  4  2  0
  6  5  1  0
  6  7  1  0
  7  8  1  6
  9 10  2  0
  9  7  1  0
 11 12  2  0
 12  2  1  0
 13  9  1  0
 14 15  1  1
 14 13  1  0
 16 15  1  0
 16 20  1  0
 17 16  2  0
 18 14  1  0
 19 18  2  0
 21 18  1  0
 22 21  1  0
 22 23  1  1
 24 23  1  0
 25 24  2  0
 26 25  1  0
 27 26  2  0
 27 28  1  0
 28 29  2  0
 29 24  1  0
 30 31  1  0
 30 22  1  0
 32 30  2  0
M  END
$$$$
