YDF.pdb
     RDKit          3D

 32 33  0  0  1  0  0  0  0  0999 V2000
   28.1634   -9.6389  -25.3303 O   0  0  0  0  0  0  0  0  0  0  0  0
   27.6844   -9.2212  -24.0890 C   0  0  0  0  0  0  0  0  0  0  0  0
   27.8819   -9.9781  -22.9491 C   0  0  0  0  0  0  0  0  0  0  0  0
   27.3964   -9.5384  -21.7373 C   0  0  0  0  0  0  0  0  0  0  0  0
   26.7053   -8.3546  -21.5884 C   0  0  0  0  0  0  0  0  0  0  0  0
   26.1864   -7.8930  -20.2701 C   0  0  0  0  0  0  0  0  0  0  0  0
   27.0081   -6.6978  -19.8514 C   0  0  2  0  0  0  0  0  0  0  0  0
   28.2711   -7.2033  -19.3450 N   0  0  0  0  0  0  0  0  0  0  0  0
   26.2947   -6.0075  -18.7373 C   0  0  0  0  0  0  0  0  0  0  0  0
   26.6095   -6.2239  -17.5385 O   0  0  0  0  0  0  0  0  0  0  0  0
   26.5064   -7.5937  -22.7328 C   0  0  0  0  0  0  0  0  0  0  0  0
   26.9936   -8.0362  -23.9451 C   0  0  0  0  0  0  0  0  0  0  0  0
   25.2399   -5.0855  -18.9748 N   0  0  0  0  0  0  0  0  0  0  0  0
   24.5853   -4.3400  -17.8925 C   0  0  1  0  0  0  0  0  0  0  0  0
   24.3822   -2.9063  -18.2774 C   0  0  0  0  0  0  0  0  0  0  0  0
   23.8662   -2.1611  -17.1101 C   0  0  0  0  0  0  0  0  0  0  0  0
   24.0973   -2.4882  -15.9271 O   0  0  0  0  0  0  0  0  0  0  0  0
   23.4036   -5.0446  -17.3970 C   0  0  0  0  0  0  0  0  0  0  0  0
   22.5606   -5.5506  -18.1781 O   0  0  0  0  0  0  0  0  0  0  0  0
   23.0671   -1.0149  -17.2826 O   0  0  0  0  0  0  0  0  0  0  0  0
   23.1090   -5.2163  -16.0038 N   0  0  0  0  0  0  0  0  0  0  0  0
   21.9421   -5.9291  -15.5189 C   0  0  1  0  0  0  0  0  0  0  0  0
   22.4699   -7.2326  -14.9452 C   0  0  0  0  0  0  0  0  0  0  0  0
   21.4588   -8.0698  -14.3177 C   0  0  0  0  0  0  0  0  0  0  0  0
   20.7214   -8.9491  -15.0676 C   0  0  0  0  0  0  0  0  0  0  0  0
   19.7526   -9.7648  -14.5100 C   0  0  0  0  0  0  0  0  0  0  0  0
   19.5332   -9.6789  -13.1548 C   0  0  0  0  0  0  0  0  0  0  0  0
   20.2687   -8.8026  -12.4106 C   0  0  0  0  0  0  0  0  0  0  0  0
   21.2318   -7.9926  -12.9685 C   0  0  0  0  0  0  0  0  0  0  0  0
   21.1591   -5.1389  -14.5614 C   0  0  0  0  0  0  0  0  0  0  0  0
   19.7892   -5.2742  -14.3708 O   0  0  0  0  0  0  0  0  0  0  0  0
   21.7528   -4.2806  -13.8616 O   0  0  0  0  0  0  0  0  0  0  0  0
  2  1  1  0
  3  2  2  0
  4  3  1  0
  5 11  1  0
  5  4  2  0
  6  5  1  0
  6  7  1  0
  7  8  1  1
  9 10  2  0
  9  7  1  0
 11 12  2  0
 12  2  1  0
 13  9  1  0
 14 15  1  6
 14 13  1  0
 16 15  1  0
 16 20  1  0
 17 16  2  0
 18 14  1  0
 19 18  2  0
 21 18  1  0
 22 21  1  0
 22 23  1  1
 24 23  1  0
 25 24  2  0
 26 25  1  0
 27 26  2  0
 27 28  1  0
 28 29  2  0
 29 24  1  0
 30 31  1  0
 30 22  1  0
 32 30  2  0
M  END
$$$$
