YDF.pdb
     RDKit          3D

 32 33  0  0  1  0  0  0  0  0999 V2000
   29.7823  -13.4566  -16.7205 O   0  0  0  0  0  0  0  0  0  0  0  0
   28.7298  -12.5425  -16.6835 C   0  0  0  0  0  0  0  0  0  0  0  0
   28.0324  -12.2942  -15.5159 C   0  0  0  0  0  0  0  0  0  0  0  0
   26.9973  -11.3853  -15.5117 C   0  0  0  0  0  0  0  0  0  0  0  0
   26.6035  -10.6881  -16.6342 C   0  0  0  0  0  0  0  0  0  0  0  0
   25.4813   -9.7080  -16.6129 C   0  0  0  0  0  0  0  0  0  0  0  0
   24.1961  -10.4852  -16.7664 C   0  0  2  0  0  0  0  0  0  0  0  0
   24.2241  -11.1028  -18.0798 N   0  0  0  0  0  0  0  0  0  0  0  0
   23.0587   -9.5203  -16.7223 C   0  0  0  0  0  0  0  0  0  0  0  0
   22.6511   -8.9560  -17.7704 O   0  0  0  0  0  0  0  0  0  0  0  0
   27.3034  -10.9369  -17.8074 C   0  0  0  0  0  0  0  0  0  0  0  0
   28.3395  -11.8476  -17.8090 C   0  0  0  0  0  0  0  0  0  0  0  0
   22.3910   -9.1976  -15.5101 N   0  0  0  0  0  0  0  0  0  0  0  0
   21.2350   -8.2937  -15.4629 C   0  0  1  0  0  0  0  0  0  0  0  0
   20.0998   -8.9163  -14.7088 C   0  0  0  0  0  0  0  0  0  0  0  0
   18.9121   -8.0433  -14.8159 C   0  0  0  0  0  0  0  0  0  0  0  0
   18.5209   -7.5414  -15.8905 O   0  0  0  0  0  0  0  0  0  0  0  0
   21.6248   -6.9492  -15.0401 C   0  0  0  0  0  0  0  0  0  0  0  0
   22.4535   -6.7620  -14.1156 O   0  0  0  0  0  0  0  0  0  0  0  0
   18.1446   -7.7280  -13.6785 O   0  0  0  0  0  0  0  0  0  0  0  0
   21.1056   -5.7503  -15.6320 N   0  0  0  0  0  0  0  0  0  0  0  0
   21.4793   -4.4191  -15.1923 C   0  0  1  0  0  0  0  0  0  0  0  0
   22.1377   -3.7629  -16.3934 C   0  0  0  0  0  0  0  0  0  0  0  0
   23.5023   -4.1990  -16.6476 C   0  0  0  0  0  0  0  0  0  0  0  0
   23.7455   -5.4100  -17.2423 C   0  0  0  0  0  0  0  0  0  0  0  0
   25.0273   -5.8610  -17.5041 C   0  0  0  0  0  0  0  0  0  0  0  0
   26.0840   -5.0549  -17.1494 C   0  0  0  0  0  0  0  0  0  0  0  0
   25.8389   -3.8498  -16.5575 C   0  0  0  0  0  0  0  0  0  0  0  0
   24.5626   -3.4042  -16.2986 C   0  0  0  0  0  0  0  0  0  0  0  0
   20.3396   -3.6630  -14.6597 C   0  0  0  0  0  0  0  0  0  0  0  0
   20.4556   -2.5462  -13.8408 O   0  0  0  0  0  0  0  0  0  0  0  0
   19.1774   -4.0384  -14.9552 O   0  0  0  0  0  0  0  0  0  0  0  0
  2  1  1  0
  3  2  2  0
  4  3  1  0
  5 11  1  0
  5  4  2  0
  6  5  1  0
  6  7  1  0
  7  8  1  6
  9 10  2  0
  9  7  1  0
 11 12  2  0
 12  2  1  0
 13  9  1  0
 14 15  1  1
 14 13  1  0
 16 15  1  0
 16 20  1  0
 17 16  2  0
 18 14  1  0
 19 18  2  0
 21 18  1  0
 22 21  1  0
 22 23  1  6
 24 23  1  0
 25 24  2  0
 26 25  1  0
 27 26  2  0
 27 28  1  0
 28 29  2  0
 29 24  1  0
 30 31  1  0
 30 22  1  0
 32 30  2  0
M  END
$$$$
