YDF.pdb
     RDKit          3D

 32 33  0  0  1  0  0  0  0  0999 V2000
   18.7261   -8.9481  -27.7108 O   0  0  0  0  0  0  0  0  0  0  0  0
   19.1498   -8.7140  -26.4029 C   0  0  0  0  0  0  0  0  0  0  0  0
   18.2788   -8.2466  -25.4365 C   0  0  0  0  0  0  0  0  0  0  0  0
   18.7278   -8.0251  -24.1533 C   0  0  0  0  0  0  0  0  0  0  0  0
   20.0314   -8.2479  -23.7632 C   0  0  0  0  0  0  0  0  0  0  0  0
   20.5014   -8.0031  -22.3706 C   0  0  0  0  0  0  0  0  0  0  0  0
   20.9688   -6.5697  -22.2939 C   0  0  2  0  0  0  0  0  0  0  0  0
   22.2963   -6.5208  -22.8790 N   0  0  0  0  0  0  0  0  0  0  0  0
   21.0725   -6.1885  -20.8549 C   0  0  0  0  0  0  0  0  0  0  0  0
   22.1203   -6.4246  -20.1995 O   0  0  0  0  0  0  0  0  0  0  0  0
   20.9071   -8.7174  -24.7333 C   0  0  0  0  0  0  0  0  0  0  0  0
   20.4550   -8.9384  -26.0176 C   0  0  0  0  0  0  0  0  0  0  0  0
   20.0065   -5.5493  -20.1661 N   0  0  0  0  0  0  0  0  0  0  0  0
   20.0956   -5.1740  -18.7495 C   0  0  1  0  0  0  0  0  0  0  0  0
   19.0837   -4.1223  -18.4102 C   0  0  0  0  0  0  0  0  0  0  0  0
   19.3238   -3.6478  -17.0313 C   0  0  0  0  0  0  0  0  0  0  0  0
   20.4254   -3.7462  -16.4511 O   0  0  0  0  0  0  0  0  0  0  0  0
   20.1101   -6.3527  -17.8843 C   0  0  0  0  0  0  0  0  0  0  0  0
   19.2648   -7.2730  -18.0078 O   0  0  0  0  0  0  0  0  0  0  0  0
   18.2920   -3.0454  -16.2866 O   0  0  0  0  0  0  0  0  0  0  0  0
   21.0714   -6.5577  -16.8396 N   0  0  0  0  0  0  0  0  0  0  0  0
   21.0690   -7.7211  -15.9727 C   0  0  1  0  0  0  0  0  0  0  0  0
   22.4530   -8.3320  -16.1066 C   0  0  0  0  0  0  0  0  0  0  0  0
   22.6764   -9.5090  -15.2807 C   0  0  0  0  0  0  0  0  0  0  0  0
   22.3070  -10.7514  -15.7272 C   0  0  0  0  0  0  0  0  0  0  0  0
   22.5039  -11.8960  -14.9747 C   0  0  0  0  0  0  0  0  0  0  0  0
   23.0918  -11.7665  -13.7379 C   0  0  0  0  0  0  0  0  0  0  0  0
   23.4585  -10.5283  -13.2960 C   0  0  0  0  0  0  0  0  0  0  0  0
   23.2612   -9.3918  -14.0471 C   0  0  0  0  0  0  0  0  0  0  0  0
   20.7026   -7.3906  -14.5904 C   0  0  0  0  0  0  0  0  0  0  0  0
   20.0903   -8.2750  -13.7105 O   0  0  0  0  0  0  0  0  0  0  0  0
   20.9530   -6.2366  -14.1608 O   0  0  0  0  0  0  0  0  0  0  0  0
  2  1  1  0
  3  2  2  0
  4  3  1  0
  5 11  1  0
  5  4  2  0
  6  5  1  0
  6  7  1  0
  7  8  1  1
  9 10  2  0
  9  7  1  0
 11 12  2  0
 12  2  1  0
 13  9  1  0
 14 15  1  1
 14 13  1  0
 16 15  1  0
 16 20  1  0
 17 16  2  0
 18 14  1  0
 19 18  2  0
 21 18  1  0
 22 21  1  0
 22 23  1  1
 24 23  1  0
 25 24  2  0
 26 25  1  0
 27 26  2  0
 27 28  1  0
 28 29  2  0
 29 24  1  0
 30 31  1  0
 30 22  1  0
 32 30  2  0
M  END
$$$$
