YDF.pdb
     RDKit          3D

 32 33  0  0  1  0  0  0  0  0999 V2000
   29.1267  -20.5439   -3.2450 O   0  0  0  0  0  0  0  0  0  0  0  0
   28.5651  -20.2993   -4.4979 C   0  0  0  0  0  0  0  0  0  0  0  0
   27.4225  -20.9559   -4.9154 C   0  0  0  0  0  0  0  0  0  0  0  0
   26.8919  -20.6923   -6.1590 C   0  0  0  0  0  0  0  0  0  0  0  0
   27.4478  -19.7870   -7.0378 C   0  0  0  0  0  0  0  0  0  0  0  0
   26.8614  -19.5132   -8.3800 C   0  0  0  0  0  0  0  0  0  0  0  0
   27.0768  -20.7425   -9.2294 C   0  0  2  0  0  0  0  0  0  0  0  0
   28.5012  -20.8355   -9.4937 N   0  0  0  0  0  0  0  0  0  0  0  0
   26.3677  -20.5437  -10.5272 C   0  0  0  0  0  0  0  0  0  0  0  0
   27.0033  -20.2360  -11.5685 O   0  0  0  0  0  0  0  0  0  0  0  0
   28.5955  -19.1269   -6.6192 C   0  0  0  0  0  0  0  0  0  0  0  0
   29.1249  -19.3926   -5.3735 C   0  0  0  0  0  0  0  0  0  0  0  0
   24.9593  -20.6908  -10.6465 N   0  0  0  0  0  0  0  0  0  0  0  0
   24.2789  -20.7415  -11.9465 C   0  0  1  0  0  0  0  0  0  0  0  0
   24.7791  -21.8907  -12.7675 C   0  0  0  0  0  0  0  0  0  0  0  0
   25.9262  -21.4392  -13.5825 C   0  0  0  0  0  0  0  0  0  0  0  0
   26.9567  -22.1222  -13.7593 O   0  0  0  0  0  0  0  0  0  0  0  0
   22.8277  -20.6458  -11.7942 C   0  0  0  0  0  0  0  0  0  0  0  0
   22.1818  -21.4642  -11.0943 O   0  0  0  0  0  0  0  0  0  0  0  0
   25.9099  -20.1818  -14.2156 O   0  0  0  0  0  0  0  0  0  0  0  0
   22.0302  -19.6298  -12.4180 N   0  0  0  0  0  0  0  0  0  0  0  0
   20.6259  -19.4239  -12.1175 C   0  0  1  0  0  0  0  0  0  0  0  0
   20.2395  -18.1417  -12.8341 C   0  0  0  0  0  0  0  0  0  0  0  0
   20.2926  -18.2215  -14.2860 C   0  0  0  0  0  0  0  0  0  0  0  0
   19.1781  -18.5705  -15.0040 C   0  0  0  0  0  0  0  0  0  0  0  0
   19.1852  -18.6555  -16.3852 C   0  0  0  0  0  0  0  0  0  0  0  0
   20.3588  -18.3772  -17.0466 C   0  0  0  0  0  0  0  0  0  0  0  0
   21.4667  -18.0300  -16.3292 C   0  0  0  0  0  0  0  0  0  0  0  0
   21.4562  -17.9464  -14.9553 C   0  0  0  0  0  0  0  0  0  0  0  0
   19.7974  -20.5775  -12.4875 C   0  0  0  0  0  0  0  0  0  0  0  0
   20.2200  -21.6110  -13.3150 O   0  0  0  0  0  0  0  0  0  0  0  0
   18.6277  -20.6488  -12.0339 O   0  0  0  0  0  0  0  0  0  0  0  0
  2  1  1  0
  3  2  2  0
  4  3  1  0
  5 11  1  0
  5  4  2  0
  6  5  1  0
  6  7  1  0
  7  8  1  6
  9 10  2  0
  9  7  1  0
 11 12  2  0
 12  2  1  0
 13  9  1  0
 14 15  1  1
 14 13  1  0
 16 15  1  0
 16 20  1  0
 17 16  2  0
 18 14  1  0
 19 18  2  0
 21 18  1  0
 22 21  1  0
 22 23  1  6
 24 23  1  0
 25 24  2  0
 26 25  1  0
 27 26  2  0
 27 28  1  0
 28 29  2  0
 29 24  1  0
 30 31  1  0
 30 22  1  0
 32 30  2  0
M  END
$$$$
