YDF.pdb
     RDKit          3D

 32 33  0  0  1  0  0  0  0  0999 V2000
   19.8558  -15.2970  -17.1984 O   0  0  0  0  0  0  0  0  0  0  0  0
   20.7167  -16.3194  -16.8004 C   0  0  0  0  0  0  0  0  0  0  0  0
   21.0935  -16.4699  -15.4789 C   0  0  0  0  0  0  0  0  0  0  0  0
   21.9455  -17.4901  -15.1172 C   0  0  0  0  0  0  0  0  0  0  0  0
   22.4600  -18.3965  -16.0200 C   0  0  0  0  0  0  0  0  0  0  0  0
   23.3809  -19.4947  -15.6125 C   0  0  0  0  0  0  0  0  0  0  0  0
   24.7471  -18.8877  -15.4018 C   0  0  2  0  0  0  0  0  0  0  0  0
   25.2333  -18.4669  -16.7032 N   0  0  0  0  0  0  0  0  0  0  0  0
   25.6549  -19.9505  -14.8793 C   0  0  0  0  0  0  0  0  0  0  0  0
   26.3665  -20.6322  -15.6617 O   0  0  0  0  0  0  0  0  0  0  0  0
   22.0821  -18.2461  -17.3476 C   0  0  0  0  0  0  0  0  0  0  0  0
   21.2288  -17.2237  -17.7072 C   0  0  0  0  0  0  0  0  0  0  0  0
   25.7571  -20.2389  -13.4917 N   0  0  0  0  0  0  0  0  0  0  0  0
   26.9369  -20.8872  -12.9056 C   0  0  1  0  0  0  0  0  0  0  0  0
   28.1985  -20.2389  -13.3884 C   0  0  0  0  0  0  0  0  0  0  0  0
   28.3193  -20.4435  -14.8471 C   0  0  0  0  0  0  0  0  0  0  0  0
   28.4327  -21.5684  -15.3777 O   0  0  0  0  0  0  0  0  0  0  0  0
   26.8034  -21.0303  -11.4565 C   0  0  0  0  0  0  0  0  0  0  0  0
   27.5683  -21.7729  -10.7931 O   0  0  0  0  0  0  0  0  0  0  0  0
   28.3119  -19.3481  -15.7315 O   0  0  0  0  0  0  0  0  0  0  0  0
   25.8075  -20.3492  -10.6809 N   0  0  0  0  0  0  0  0  0  0  0  0
   25.3010  -20.8520   -9.4176 C   0  0  1  0  0  0  0  0  0  0  0  0
   25.5257  -19.7340   -8.4144 C   0  0  0  0  0  0  0  0  0  0  0  0
   26.8523  -19.7161   -7.8170 C   0  0  0  0  0  0  0  0  0  0  0  0
   27.6221  -20.8503   -7.7997 C   0  0  0  0  0  0  0  0  0  0  0  0
   28.8893  -20.8753   -7.2441 C   0  0  0  0  0  0  0  0  0  0  0  0
   29.3798  -19.7139   -6.6939 C   0  0  0  0  0  0  0  0  0  0  0  0
   28.6112  -18.5862   -6.7126 C   0  0  0  0  0  0  0  0  0  0  0  0
   27.3511  -18.5648   -7.2660 C   0  0  0  0  0  0  0  0  0  0  0  0
   23.9031  -21.2900   -9.5075 C   0  0  0  0  0  0  0  0  0  0  0  0
   23.2377  -21.9927   -8.5100 O   0  0  0  0  0  0  0  0  0  0  0  0
   23.2531  -21.0191  -10.5482 O   0  0  0  0  0  0  0  0  0  0  0  0
  2  1  1  0
  3  2  2  0
  4  3  1  0
  5 11  1  0
  5  4  2  0
  6  5  1  0
  6  7  1  0
  7  8  1  6
  9 10  2  0
  9  7  1  0
 11 12  2  0
 12  2  1  0
 13  9  1  0
 14 15  1  1
 14 13  1  0
 16 15  1  0
 16 20  1  0
 17 16  2  0
 18 14  1  0
 19 18  2  0
 21 18  1  0
 22 21  1  0
 22 23  1  1
 24 23  1  0
 25 24  2  0
 26 25  1  0
 27 26  2  0
 27 28  1  0
 28 29  2  0
 29 24  1  0
 30 31  1  0
 30 22  1  0
 32 30  2  0
M  END
$$$$
