YDF.pdb
     RDKit          3D

 32 33  0  0  1  0  0  0  0  0999 V2000
   17.6832  -13.9662  -15.1111 O   0  0  0  0  0  0  0  0  0  0  0  0
   17.8063  -12.5809  -15.2136 C   0  0  0  0  0  0  0  0  0  0  0  0
   18.3686  -11.9885  -16.3290 C   0  0  0  0  0  0  0  0  0  0  0  0
   18.4761  -10.6170  -16.4003 C   0  0  0  0  0  0  0  0  0  0  0  0
   18.0443   -9.7752  -15.3974 C   0  0  0  0  0  0  0  0  0  0  0  0
   18.1679   -8.2932  -15.4900 C   0  0  0  0  0  0  0  0  0  0  0  0
   16.8886   -7.7672  -16.0949 C   0  0  2  0  0  0  0  0  0  0  0  0
   16.8558   -8.2093  -17.4771 N   0  0  0  0  0  0  0  0  0  0  0  0
   16.9419   -6.2761  -16.0769 C   0  0  0  0  0  0  0  0  0  0  0  0
   16.9909   -5.6200  -17.1494 O   0  0  0  0  0  0  0  0  0  0  0  0
   17.4793  -10.3693  -14.2767 C   0  0  0  0  0  0  0  0  0  0  0  0
   17.3727  -11.7429  -14.2076 C   0  0  0  0  0  0  0  0  0  0  0  0
   16.9398   -5.5366  -14.8635 N   0  0  0  0  0  0  0  0  0  0  0  0
   16.8504   -4.0715  -14.8328 C   0  0  1  0  0  0  0  0  0  0  0  0
   15.8522   -3.5756  -15.8342 C   0  0  0  0  0  0  0  0  0  0  0  0
   15.8294   -2.0982  -15.8028 C   0  0  0  0  0  0  0  0  0  0  0  0
   14.9667   -1.4357  -15.1891 O   0  0  0  0  0  0  0  0  0  0  0  0
   16.6897   -3.5744  -13.4671 C   0  0  0  0  0  0  0  0  0  0  0  0
   15.7349   -3.9413  -12.7388 O   0  0  0  0  0  0  0  0  0  0  0  0
   16.8073   -1.3477  -16.4829 O   0  0  0  0  0  0  0  0  0  0  0  0
   17.5900   -2.6429  -12.8513 N   0  0  0  0  0  0  0  0  0  0  0  0
   17.3556   -2.0529  -11.5467 C   0  0  1  0  0  0  0  0  0  0  0  0
   18.7171   -1.5899  -11.0581 C   0  0  0  0  0  0  0  0  0  0  0  0
   18.6971   -0.9030   -9.7756 C   0  0  0  0  0  0  0  0  0  0  0  0
   18.5581   -1.6111   -8.6101 C   0  0  0  0  0  0  0  0  0  0  0  0
   18.5370   -0.9972   -7.3701 C   0  0  0  0  0  0  0  0  0  0  0  0
   18.6609    0.3719   -7.3215 C   0  0  0  0  0  0  0  0  0  0  0  0
   18.7991    1.0744   -8.4835 C   0  0  0  0  0  0  0  0  0  0  0  0
   18.8198    0.4605   -9.7153 C   0  0  0  0  0  0  0  0  0  0  0  0
   16.3498   -0.9847  -11.5859 C   0  0  0  0  0  0  0  0  0  0  0  0
   16.2364   -0.0542  -12.6119 O   0  0  0  0  0  0  0  0  0  0  0  0
   15.5313   -0.8935  -10.6369 O   0  0  0  0  0  0  0  0  0  0  0  0
  2  1  1  0
  3  2  2  0
  4  3  1  0
  5 11  1  0
  5  4  2  0
  6  5  1  0
  6  7  1  0
  7  8  1  6
  9 10  2  0
  9  7  1  0
 11 12  2  0
 12  2  1  0
 13  9  1  0
 14 15  1  6
 14 13  1  0
 16 15  1  0
 16 20  1  0
 17 16  2  0
 18 14  1  0
 19 18  2  0
 21 18  1  0
 22 21  1  0
 22 23  1  6
 24 23  1  0
 25 24  2  0
 26 25  1  0
 27 26  2  0
 27 28  1  0
 28 29  2  0
 29 24  1  0
 30 31  1  0
 30 22  1  0
 32 30  2  0
M  END
$$$$
