ELK.pdb
     RDKit          3D

 27 26  0  0  1  0  0  0  0  0999 V2000
   26.7856  -19.5019  -14.7798 N   0  0  0  0  0  0  0  0  0  0  0  0
   26.2894  -20.8252  -15.2157 C   0  0  1  0  0  0  0  0  0  0  0  0
   27.5116  -21.7046  -15.2892 C   0  0  0  0  0  0  0  0  0  0  0  0
   28.6700  -21.0270  -15.9311 C   0  0  0  0  0  0  0  0  0  0  0  0
   28.5464  -21.3172  -17.4132 C   0  0  0  0  0  0  0  0  0  0  0  0
   28.3560  -22.4869  -17.8216 O   0  0  0  0  0  0  0  0  0  0  0  0
   25.3639  -21.3727  -14.1989 C   0  0  0  0  0  0  0  0  0  0  0  0
   24.8119  -22.4755  -14.4006 O   0  0  0  0  0  0  0  0  0  0  0  0
   28.6425  -20.2939  -18.3297 O   0  0  0  0  0  0  0  0  0  0  0  0
   26.3056  -21.9159  -10.3100 C   0  0  0  0  0  0  0  0  0  0  0  0
   25.7569  -20.4788  -10.2903 C   0  0  2  0  0  0  0  0  0  0  0  0
   25.9943  -19.9956   -8.8833 C   0  0  0  0  0  0  0  0  0  0  0  0
   24.3253  -20.5754  -10.6839 C   0  0  0  0  0  0  0  0  0  0  0  0
   24.0528  -20.9368  -12.1030 C   0  0  2  0  0  0  0  0  0  0  0  0
   25.1215  -20.6238  -13.0037 N   0  0  0  0  0  0  0  0  0  0  0  0
   22.7410  -20.4236  -12.5733 C   0  0  0  0  0  0  0  0  0  0  0  0
   22.6411  -19.2529  -13.0178 O   0  0  0  0  0  0  0  0  0  0  0  0
   21.5602  -21.2183  -12.5425 N   0  0  0  0  0  0  0  0  0  0  0  0
   20.4219  -20.9818  -13.4064 C   0  0  1  0  0  0  0  0  0  0  0  0
   20.7053  -21.4287  -14.8293 C   0  0  0  0  0  0  0  0  0  0  0  0
   20.9923  -22.8833  -14.9290 C   0  0  0  0  0  0  0  0  0  0  0  0
   21.1283  -23.2860  -16.3676 C   0  0  0  0  0  0  0  0  0  0  0  0
   21.4770  -24.7302  -16.5141 C   0  0  0  0  0  0  0  0  0  0  0  0
   21.5150  -25.1388  -17.9152 N   0  0  0  0  0  0  0  0  0  0  0  0
   19.2642  -21.7729  -12.9230 C   0  0  0  0  0  0  0  0  0  0  0  0
   18.1212  -21.5457  -13.3851 O   0  0  0  0  0  0  0  0  0  0  0  0
   19.3897  -22.7643  -11.9717 O   0  0  0  0  0  0  0  0  0  0  0  0
  2  1  1  1
  2  3  1  0
  3  4  1  0
  4  5  1  0
  5  6  2  0
  7  2  1  0
  7  8  2  0
  9  5  1  0
 11 10  1  1
 11 13  1  0
 12 11  1  0
 14 13  1  1
 14 15  1  0
 15  7  1  0
 16 18  1  0
 16 14  1  0
 17 16  2  0
 19 18  1  0
 19 25  1  0
 19 20  1  6
 21 20  1  0
 22 21  1  0
 23 22  1  0
 24 23  1  0
 25 26  2  0
 25 27  1  0
M  END
$$$$
