ELK.pdb
     RDKit          3D

 27 26  0  0  1  0  0  0  0  0999 V2000
   19.1600  -25.2241  -13.7692 N   0  0  0  0  0  0  0  0  0  0  0  0
   18.5994  -24.0601  -13.0495 C   0  0  1  0  0  0  0  0  0  0  0  0
   17.1031  -24.2129  -13.1491 C   0  0  0  0  0  0  0  0  0  0  0  0
   16.6442  -24.4890  -14.5370 C   0  0  0  0  0  0  0  0  0  0  0  0
   15.2699  -23.8604  -14.6482 C   0  0  0  0  0  0  0  0  0  0  0  0
   15.1223  -22.6216  -14.5276 O   0  0  0  0  0  0  0  0  0  0  0  0
   18.9942  -24.1150  -11.6243 C   0  0  0  0  0  0  0  0  0  0  0  0
   19.3329  -25.2080  -11.1220 O   0  0  0  0  0  0  0  0  0  0  0  0
   14.1651  -24.6479  -14.8840 O   0  0  0  0  0  0  0  0  0  0  0  0
   22.0485  -21.5923   -9.3216 C   0  0  0  0  0  0  0  0  0  0  0  0
   20.7662  -20.7993   -9.6273 C   0  0  2  0  0  0  0  0  0  0  0  0
   21.0354  -19.4142   -9.0995 C   0  0  0  0  0  0  0  0  0  0  0  0
   19.6585  -21.5224   -8.9463 C   0  0  0  0  0  0  0  0  0  0  0  0
   19.3387  -22.8816   -9.4651 C   0  0  2  0  0  0  0  0  0  0  0  0
   18.9791  -22.9108  -10.8512 N   0  0  0  0  0  0  0  0  0  0  0  0
   18.3609  -23.5970   -8.6064 C   0  0  0  0  0  0  0  0  0  0  0  0
   17.1290  -23.4992   -8.8320 O   0  0  0  0  0  0  0  0  0  0  0  0
   18.7663  -24.4098   -7.5100 N   0  0  0  0  0  0  0  0  0  0  0  0
   17.8317  -25.1132   -6.6558 C   0  0  1  0  0  0  0  0  0  0  0  0
   18.5534  -26.0209   -5.6760 C   0  0  0  0  0  0  0  0  0  0  0  0
   17.6215  -26.8211   -4.8397 C   0  0  0  0  0  0  0  0  0  0  0  0
   18.3941  -27.7265   -3.9267 C   0  0  0  0  0  0  0  0  0  0  0  0
   17.4974  -28.5191   -3.0341 C   0  0  0  0  0  0  0  0  0  0  0  0
   18.2503  -29.4492   -2.1977 N   0  0  0  0  0  0  0  0  0  0  0  0
   17.0616  -24.1308   -5.8546 C   0  0  0  0  0  0  0  0  0  0  0  0
   17.6173  -23.0771   -5.4641 O   0  0  0  0  0  0  0  0  0  0  0  0
   15.7392  -24.3269   -5.5137 O   0  0  0  0  0  0  0  0  0  0  0  0
  2  1  1  6
  2  3  1  0
  3  4  1  0
  4  5  1  0
  5  6  2  0
  7  2  1  0
  7  8  2  0
  9  5  1  0
 11 10  1  1
 11 13  1  0
 12 11  1  0
 14 13  1  1
 14 15  1  0
 15  7  1  0
 16 18  1  0
 16 14  1  0
 17 16  2  0
 19 18  1  0
 19 25  1  0
 19 20  1  1
 21 20  1  0
 22 21  1  0
 23 22  1  0
 24 23  1  0
 25 26  2  0
 25 27  1  0
M  END
$$$$
