ELK.pdb
     RDKit          3D

 27 26  0  0  1  0  0  0  0  0999 V2000
   14.3570  -11.4202  -12.1565 N   0  0  0  0  0  0  0  0  0  0  0  0
   15.5757  -10.6317  -11.8732 C   0  0  1  0  0  0  0  0  0  0  0  0
   16.3826  -10.6741  -13.1457 C   0  0  0  0  0  0  0  0  0  0  0  0
   16.9288  -12.0271  -13.4357 C   0  0  0  0  0  0  0  0  0  0  0  0
   17.7844  -11.8677  -14.6762 C   0  0  0  0  0  0  0  0  0  0  0  0
   17.9396  -10.7420  -15.2050 O   0  0  0  0  0  0  0  0  0  0  0  0
   15.2077   -9.2277  -11.5840 C   0  0  0  0  0  0  0  0  0  0  0  0
   14.1479   -8.7609  -12.0535 O   0  0  0  0  0  0  0  0  0  0  0  0
   18.4022  -12.9633  -15.2369 O   0  0  0  0  0  0  0  0  0  0  0  0
   13.5854   -6.3689   -8.4387 C   0  0  0  0  0  0  0  0  0  0  0  0
   14.8071   -7.2430   -8.1071 C   0  0  2  0  0  0  0  0  0  0  0  0
   15.0362   -7.0404   -6.6320 C   0  0  0  0  0  0  0  0  0  0  0  0
   15.9109   -6.7632   -8.9819 C   0  0  0  0  0  0  0  0  0  0  0  0
   15.7860   -7.0727  -10.4336 C   0  0  2  0  0  0  0  0  0  0  0  0
   16.0773   -8.4340  -10.7703 N   0  0  0  0  0  0  0  0  0  0  0  0
   16.5257   -6.1039  -11.2821 C   0  0  0  0  0  0  0  0  0  0  0  0
   17.7745   -6.0047  -11.1891 O   0  0  0  0  0  0  0  0  0  0  0  0
   15.8670   -5.2599  -12.2204 N   0  0  0  0  0  0  0  0  0  0  0  0
   16.5655   -4.3031  -13.0538 C   0  0  1  0  0  0  0  0  0  0  0  0
   15.9666   -4.2425  -14.4475 C   0  0  0  0  0  0  0  0  0  0  0  0
   16.2325   -5.4700  -15.2416 C   0  0  0  0  0  0  0  0  0  0  0  0
   15.6044   -5.3537  -16.5990 C   0  0  0  0  0  0  0  0  0  0  0  0
   15.8481   -6.5668  -17.4343 C   0  0  0  0  0  0  0  0  0  0  0  0
   15.2753   -6.4285  -18.7701 N   0  0  0  0  0  0  0  0  0  0  0  0
   16.4351   -2.9486  -12.4636 C   0  0  0  0  0  0  0  0  0  0  0  0
   15.5367   -2.7239  -11.6187 O   0  0  0  0  0  0  0  0  0  0  0  0
   17.2717   -1.9069  -12.8077 O   0  0  0  0  0  0  0  0  0  0  0  0
  2  1  1  6
  2  3  1  0
  3  4  1  0
  4  5  1  0
  5  6  2  0
  7  2  1  0
  7  8  2  0
  9  5  1  0
 11 10  1  6
 11 13  1  0
 12 11  1  0
 14 13  1  1
 14 15  1  0
 15  7  1  0
 16 18  1  0
 16 14  1  0
 17 16  2  0
 19 18  1  0
 19 25  1  0
 19 20  1  6
 21 20  1  0
 22 21  1  0
 23 22  1  0
 24 23  1  0
 25 26  2  0
 25 27  1  0
M  END
$$$$
