ELK.pdb
     RDKit          3D

 27 26  0  0  1  0  0  0  0  0999 V2000
   24.9916  -28.6267  -22.1366 N   0  0  0  0  0  0  0  0  0  0  0  0
   26.0959  -27.8968  -21.4769 C   0  0  1  0  0  0  0  0  0  0  0  0
   25.5175  -27.3839  -20.1828 C   0  0  0  0  0  0  0  0  0  0  0  0
   24.6225  -26.2116  -20.3773 C   0  0  0  0  0  0  0  0  0  0  0  0
   24.6895  -25.4244  -19.0843 C   0  0  0  0  0  0  0  0  0  0  0  0
   25.2820  -24.3208  -19.0381 O   0  0  0  0  0  0  0  0  0  0  0  0
   27.2020  -28.8314  -21.1719 C   0  0  0  0  0  0  0  0  0  0  0  0
   26.9583  -30.0499  -21.0393 O   0  0  0  0  0  0  0  0  0  0  0  0
   24.0973  -25.9163  -17.9425 O   0  0  0  0  0  0  0  0  0  0  0  0
   30.9315  -30.1687  -23.3260 C   0  0  0  0  0  0  0  0  0  0  0  0
   30.9874  -28.6875  -22.9145 C   0  0  2  0  0  0  0  0  0  0  0  0
   32.2762  -28.1735  -23.5014 C   0  0  0  0  0  0  0  0  0  0  0  0
   30.9263  -28.6668  -21.4280 C   0  0  0  0  0  0  0  0  0  0  0  0
   29.6643  -29.1623  -20.8112 C   0  0  2  0  0  0  0  0  0  0  0  0
   28.5303  -28.3165  -21.0354 N   0  0  0  0  0  0  0  0  0  0  0  0
   29.8379  -29.5169  -19.3796 C   0  0  0  0  0  0  0  0  0  0  0  0
   29.9144  -28.6151  -18.5083 O   0  0  0  0  0  0  0  0  0  0  0  0
   29.9243  -30.8674  -18.9376 N   0  0  0  0  0  0  0  0  0  0  0  0
   30.0356  -31.2400  -17.5424 C   0  0  1  0  0  0  0  0  0  0  0  0
   28.8609  -32.0953  -17.1030 C   0  0  0  0  0  0  0  0  0  0  0  0
   28.9724  -32.5438  -15.6907 C   0  0  0  0  0  0  0  0  0  0  0  0
   27.8415  -33.4692  -15.3514 C   0  0  0  0  0  0  0  0  0  0  0  0
   26.5314  -32.7554  -15.2961 C   0  0  0  0  0  0  0  0  0  0  0  0
   25.4389  -33.6554  -14.9388 N   0  0  0  0  0  0  0  0  0  0  0  0
   31.2627  -32.0496  -17.3454 C   0  0  0  0  0  0  0  0  0  0  0  0
   31.8643  -32.5165  -18.3412 O   0  0  0  0  0  0  0  0  0  0  0  0
   31.7811  -32.3170  -16.0951 O   0  0  0  0  0  0  0  0  0  0  0  0
  2  1  1  1
  2  3  1  0
  3  4  1  0
  4  5  1  0
  5  6  2  0
  7  2  1  0
  7  8  2  0
  9  5  1  0
 11 10  1  1
 11 13  1  0
 12 11  1  0
 14 13  1  1
 14 15  1  0
 15  7  1  0
 16 18  1  0
 16 14  1  0
 17 16  2  0
 19 18  1  0
 19 25  1  0
 19 20  1  6
 21 20  1  0
 22 21  1  0
 23 22  1  0
 24 23  1  0
 25 26  2  0
 25 27  1  0
M  END
$$$$
