ELK.pdb
     RDKit          3D

 27 26  0  0  1  0  0  0  0  0999 V2000
   21.6104  -15.9347  -16.5131 N   0  0  0  0  0  0  0  0  0  0  0  0
   21.4527  -14.7239  -17.3477 C   0  0  1  0  0  0  0  0  0  0  0  0
   19.9708  -14.6004  -17.5946 C   0  0  0  0  0  0  0  0  0  0  0  0
   19.6564  -13.9829  -18.9111 C   0  0  0  0  0  0  0  0  0  0  0  0
   19.5638  -15.1332  -19.8930 C   0  0  0  0  0  0  0  0  0  0  0  0
   19.5064  -16.3174  -19.4863 O   0  0  0  0  0  0  0  0  0  0  0  0
   21.9156  -13.5351  -16.5977 C   0  0  0  0  0  0  0  0  0  0  0  0
   21.1912  -13.0540  -15.7003 O   0  0  0  0  0  0  0  0  0  0  0  0
   19.5419  -14.8873  -21.2478 O   0  0  0  0  0  0  0  0  0  0  0  0
   27.2345  -10.4281  -15.9890 C   0  0  0  0  0  0  0  0  0  0  0  0
   25.7170  -10.3796  -15.7410 C   0  0  2  0  0  0  0  0  0  0  0  0
   25.5748  -10.2748  -14.2448 C   0  0  0  0  0  0  0  0  0  0  0  0
   25.1591  -11.6242  -16.3354 C   0  0  0  0  0  0  0  0  0  0  0  0
   23.6781  -11.7751  -16.2840 C   0  0  2  0  0  0  0  0  0  0  0  0
   23.1870  -12.9616  -16.9185 N   0  0  0  0  0  0  0  0  0  0  0  0
   22.9707  -10.5506  -16.7376 C   0  0  0  0  0  0  0  0  0  0  0  0
   22.9438  -10.2494  -17.9569 O   0  0  0  0  0  0  0  0  0  0  0  0
   22.3046   -9.6792  -15.8300 N   0  0  0  0  0  0  0  0  0  0  0  0
   21.6417   -8.4595  -16.2432 C   0  0  1  0  0  0  0  0  0  0  0  0
   20.1325   -8.6230  -16.2434 C   0  0  0  0  0  0  0  0  0  0  0  0
   19.4189   -7.3763  -16.6237 C   0  0  0  0  0  0  0  0  0  0  0  0
   17.9363   -7.6043  -16.6092 C   0  0  0  0  0  0  0  0  0  0  0  0
   17.1829   -6.4207  -17.1196 C   0  0  0  0  0  0  0  0  0  0  0  0
   15.7416   -6.5835  -16.9537 N   0  0  0  0  0  0  0  0  0  0  0  0
   21.9630   -7.3752  -15.2834 C   0  0  0  0  0  0  0  0  0  0  0  0
   22.1619   -7.6532  -14.0773 O   0  0  0  0  0  0  0  0  0  0  0  0
   22.0545   -6.0522  -15.6637 O   0  0  0  0  0  0  0  0  0  0  0  0
  2  1  1  1
  2  3  1  0
  3  4  1  0
  4  5  1  0
  5  6  2  0
  7  2  1  0
  7  8  2  0
  9  5  1  0
 11 10  1  1
 11 13  1  0
 12 11  1  0
 14 13  1  6
 14 15  1  0
 15  7  1  0
 16 18  1  0
 16 14  1  0
 17 16  2  0
 19 18  1  0
 19 25  1  0
 19 20  1  1
 21 20  1  0
 22 21  1  0
 23 22  1  0
 24 23  1  0
 25 26  2  0
 25 27  1  0
M  END
$$$$
