ELK.pdb
     RDKit          3D

 27 26  0  0  1  0  0  0  0  0999 V2000
   27.5138  -22.0904  -15.8731 N   0  0  0  0  0  0  0  0  0  0  0  0
   27.0481  -20.8746  -15.1713 C   0  0  1  0  0  0  0  0  0  0  0  0
   26.6221  -19.9241  -16.2609 C   0  0  0  0  0  0  0  0  0  0  0  0
   26.9867  -20.4064  -17.6201 C   0  0  0  0  0  0  0  0  0  0  0  0
   26.6031  -19.2893  -18.5693 C   0  0  0  0  0  0  0  0  0  0  0  0
   25.9650  -19.5344  -19.6199 O   0  0  0  0  0  0  0  0  0  0  0  0
   25.8740  -21.2001  -14.3313 C   0  0  0  0  0  0  0  0  0  0  0  0
   25.0595  -22.0638  -14.7215 O   0  0  0  0  0  0  0  0  0  0  0  0
   26.9536  -17.9882  -18.2853 O   0  0  0  0  0  0  0  0  0  0  0  0
   25.8262  -22.2993   -9.9188 C   0  0  0  0  0  0  0  0  0  0  0  0
   26.0178  -20.7921  -10.1596 C   0  0  2  0  0  0  0  0  0  0  0  0
   26.2659  -20.2123   -8.7914 C   0  0  0  0  0  0  0  0  0  0  0  0
   24.7740  -20.3161  -10.8230 C   0  0  0  0  0  0  0  0  0  0  0  0
   24.5706  -20.7479  -12.2340 C   0  0  2  0  0  0  0  0  0  0  0  0
   25.6977  -20.5158  -13.0868 N   0  0  0  0  0  0  0  0  0  0  0  0
   23.3042  -20.2246  -12.8066 C   0  0  0  0  0  0  0  0  0  0  0  0
   23.2291  -19.0319  -13.1940 O   0  0  0  0  0  0  0  0  0  0  0  0
   22.1404  -21.0337  -12.9397 N   0  0  0  0  0  0  0  0  0  0  0  0
   20.8982  -20.5498  -13.5059 C   0  0  1  0  0  0  0  0  0  0  0  0
   20.2368  -21.6064  -14.3725 C   0  0  0  0  0  0  0  0  0  0  0  0
   19.0064  -21.1123  -15.0434 C   0  0  0  0  0  0  0  0  0  0  0  0
   18.4386  -22.1788  -15.9326 C   0  0  0  0  0  0  0  0  0  0  0  0
   17.2474  -21.6979  -16.6933 C   0  0  0  0  0  0  0  0  0  0  0  0
   16.6900  -22.7445  -17.5449 N   0  0  0  0  0  0  0  0  0  0  0  0
   19.9507  -20.2275  -12.4112 C   0  0  0  0  0  0  0  0  0  0  0  0
   18.8386  -19.7171  -12.6836 O   0  0  0  0  0  0  0  0  0  0  0  0
   20.2423  -20.4677  -11.0843 O   0  0  0  0  0  0  0  0  0  0  0  0
  2  1  1  6
  2  3  1  0
  3  4  1  0
  4  5  1  0
  5  6  2  0
  7  2  1  0
  7  8  2  0
  9  5  1  0
 11 10  1  1
 11 13  1  0
 12 11  1  0
 14 13  1  1
 14 15  1  0
 15  7  1  0
 16 18  1  0
 16 14  1  0
 17 16  2  0
 19 18  1  0
 19 25  1  0
 19 20  1  6
 21 20  1  0
 22 21  1  0
 23 22  1  0
 24 23  1  0
 25 26  2  0
 25 27  1  0
M  END
$$$$
