ELK.pdb
     RDKit          3D

 27 26  0  0  1  0  0  0  0  0999 V2000
   28.5790  -22.4085  -15.9611 N   0  0  0  0  0  0  0  0  0  0  0  0
   27.7285  -21.2149  -15.7628 C   0  0  1  0  0  0  0  0  0  0  0  0
   27.0494  -20.9848  -17.0887 C   0  0  0  0  0  0  0  0  0  0  0  0
   27.9969  -20.5619  -18.1547 C   0  0  0  0  0  0  0  0  0  0  0  0
   28.2748  -19.0944  -17.8990 C   0  0  0  0  0  0  0  0  0  0  0  0
   27.3319  -18.2807  -17.7577 O   0  0  0  0  0  0  0  0  0  0  0  0
   26.6989  -21.4983  -14.7383 C   0  0  0  0  0  0  0  0  0  0  0  0
   25.8451  -22.3849  -14.9538 O   0  0  0  0  0  0  0  0  0  0  0  0
   29.5719  -18.6387  -17.8193 O   0  0  0  0  0  0  0  0  0  0  0  0
   27.2867  -22.3897  -10.3024 C   0  0  0  0  0  0  0  0  0  0  0  0
   27.4582  -20.9030  -10.6587 C   0  0  2  0  0  0  0  0  0  0  0  0
   27.9184  -20.2516   -9.3806 C   0  0  0  0  0  0  0  0  0  0  0  0
   26.1340  -20.4392  -11.1540 C   0  0  0  0  0  0  0  0  0  0  0  0
   25.7200  -20.9341  -12.4965 C   0  0  2  0  0  0  0  0  0  0  0  0
   26.7046  -20.7477  -13.5198 N   0  0  0  0  0  0  0  0  0  0  0  0
   24.3807  -20.4306  -12.8944 C   0  0  0  0  0  0  0  0  0  0  0  0
   24.2456  -19.2553  -13.3170 O   0  0  0  0  0  0  0  0  0  0  0  0
   23.2121  -21.2399  -12.8166 N   0  0  0  0  0  0  0  0  0  0  0  0
   21.8956  -20.7711  -13.1976 C   0  0  1  0  0  0  0  0  0  0  0  0
   21.1071  -21.8555  -13.9097 C   0  0  0  0  0  0  0  0  0  0  0  0
   19.7159  -21.4408  -14.2269 C   0  0  0  0  0  0  0  0  0  0  0  0
   19.0123  -22.5280  -14.9841 C   0  0  0  0  0  0  0  0  0  0  0  0
   17.6488  -22.1103  -15.4258 C   0  0  0  0  0  0  0  0  0  0  0  0
   17.0082  -23.1337  -16.2467 N   0  0  0  0  0  0  0  0  0  0  0  0
   21.1321  -20.4046  -11.9800 C   0  0  0  0  0  0  0  0  0  0  0  0
   20.0969  -19.7052  -12.0840 O   0  0  0  0  0  0  0  0  0  0  0  0
   21.5155  -20.8049  -10.7166 O   0  0  0  0  0  0  0  0  0  0  0  0
  2  1  1  6
  2  3  1  0
  3  4  1  0
  4  5  1  0
  5  6  2  0
  7  2  1  0
  7  8  2  0
  9  5  1  0
 11 10  1  1
 11 13  1  0
 12 11  1  0
 14 13  1  1
 14 15  1  0
 15  7  1  0
 16 18  1  0
 16 14  1  0
 17 16  2  0
 19 18  1  0
 19 25  1  0
 19 20  1  1
 21 20  1  0
 22 21  1  0
 23 22  1  0
 24 23  1  0
 25 26  2  0
 25 27  1  0
M  END
$$$$
