ELK.pdb
     RDKit          3D

 27 26  0  0  1  0  0  0  0  0999 V2000
   21.6399  -12.7618  -19.2793 N   0  0  0  0  0  0  0  0  0  0  0  0
   22.1533  -11.3882  -19.4720 C   0  0  1  0  0  0  0  0  0  0  0  0
   21.3067  -10.7968  -20.5701 C   0  0  0  0  0  0  0  0  0  0  0  0
   19.8615  -11.1142  -20.4165 C   0  0  0  0  0  0  0  0  0  0  0  0
   19.1717  -10.4746  -21.6045 C   0  0  0  0  0  0  0  0  0  0  0  0
   18.4606   -9.4531  -21.4566 O   0  0  0  0  0  0  0  0  0  0  0  0
   21.9541  -10.6011  -18.2348 C   0  0  0  0  0  0  0  0  0  0  0  0
   20.8882  -10.7225  -17.5940 O   0  0  0  0  0  0  0  0  0  0  0  0
   19.3203  -11.0122  -22.8636 O   0  0  0  0  0  0  0  0  0  0  0  0
   23.3041  -10.7976  -14.1507 C   0  0  0  0  0  0  0  0  0  0  0  0
   24.3968  -10.4847  -15.1873 C   0  0  2  0  0  0  0  0  0  0  0  0
   25.6932  -10.6145  -14.4310 C   0  0  0  0  0  0  0  0  0  0  0  0
   24.1059   -9.1176  -15.6975 C   0  0  0  0  0  0  0  0  0  0  0  0
   22.9088   -8.9796  -16.5731 C   0  0  2  0  0  0  0  0  0  0  0  0
   22.9906   -9.7156  -17.7990 N   0  0  0  0  0  0  0  0  0  0  0  0
   22.5253   -7.5604  -16.7838 C   0  0  0  0  0  0  0  0  0  0  0  0
   23.3259   -6.7625  -17.3321 O   0  0  0  0  0  0  0  0  0  0  0  0
   21.2589   -7.0491  -16.3820 N   0  0  0  0  0  0  0  0  0  0  0  0
   20.8493   -5.6781  -16.6068 C   0  0  1  0  0  0  0  0  0  0  0  0
   19.4030   -5.4593  -16.2003 C   0  0  0  0  0  0  0  0  0  0  0  0
   18.8955   -4.1156  -16.5811 C   0  0  0  0  0  0  0  0  0  0  0  0
   17.4467   -3.9871  -16.2141 C   0  0  0  0  0  0  0  0  0  0  0  0
   16.8847   -2.6615  -16.6087 C   0  0  0  0  0  0  0  0  0  0  0  0
   15.4326   -2.6234  -16.4617 N   0  0  0  0  0  0  0  0  0  0  0  0
   21.6783   -4.7736  -15.7735 C   0  0  0  0  0  0  0  0  0  0  0  0
   22.0778   -3.6846  -16.2488 O   0  0  0  0  0  0  0  0  0  0  0  0
   22.0361   -5.0812  -14.4770 O   0  0  0  0  0  0  0  0  0  0  0  0
  2  1  1  1
  2  3  1  0
  3  4  1  0
  4  5  1  0
  5  6  2  0
  7  2  1  0
  7  8  2  0
  9  5  1  0
 11 10  1  1
 11 13  1  0
 12 11  1  0
 14 13  1  6
 14 15  1  0
 15  7  1  0
 16 18  1  0
 16 14  1  0
 17 16  2  0
 19 18  1  0
 19 25  1  0
 19 20  1  1
 21 20  1  0
 22 21  1  0
 23 22  1  0
 24 23  1  0
 25 26  2  0
 25 27  1  0
M  END
$$$$
