ELK.pdb
     RDKit          3D

 27 26  0  0  1  0  0  0  0  0999 V2000
   26.8484  -21.3643  -16.9882 N   0  0  0  0  0  0  0  0  0  0  0  0
   25.9736  -20.3235  -16.4063 C   0  0  1  0  0  0  0  0  0  0  0  0
   25.2080  -19.7495  -17.5711 C   0  0  0  0  0  0  0  0  0  0  0  0
   26.0777  -19.0021  -18.5189 C   0  0  0  0  0  0  0  0  0  0  0  0
   26.3919  -17.6856  -17.8375 C   0  0  0  0  0  0  0  0  0  0  0  0
   27.5553  -17.4296  -17.4475 O   0  0  0  0  0  0  0  0  0  0  0  0
   25.0178  -20.9435  -15.4618 C   0  0  0  0  0  0  0  0  0  0  0  0
   24.4642  -22.0216  -15.7665 O   0  0  0  0  0  0  0  0  0  0  0  0
   25.3976  -16.7537  -17.6393 O   0  0  0  0  0  0  0  0  0  0  0  0
   25.7669  -22.2842  -11.2902 C   0  0  0  0  0  0  0  0  0  0  0  0
   25.6513  -20.7524  -11.3723 C   0  0  2  0  0  0  0  0  0  0  0  0
   25.9835  -20.2666   -9.9855 C   0  0  0  0  0  0  0  0  0  0  0  0
   24.2614  -20.4642  -11.8184 C   0  0  0  0  0  0  0  0  0  0  0  0
   23.9146  -20.8739  -13.2078 C   0  0  2  0  0  0  0  0  0  0  0  0
   24.7483  -20.2917  -14.2165 N   0  0  0  0  0  0  0  0  0  0  0  0
   22.4676  -20.7107  -13.4990 C   0  0  0  0  0  0  0  0  0  0  0  0
   21.9761  -19.5639  -13.6449 O   0  0  0  0  0  0  0  0  0  0  0  0
   21.5885  -21.8236  -13.6233 N   0  0  0  0  0  0  0  0  0  0  0  0
   20.1680  -21.6887  -13.8718 C   0  0  1  0  0  0  0  0  0  0  0  0
   19.5152  -23.0405  -14.0980 C   0  0  0  0  0  0  0  0  0  0  0  0
   18.0964  -22.9298  -14.5254 C   0  0  0  0  0  0  0  0  0  0  0  0
   17.5310  -24.2921  -14.7987 C   0  0  0  0  0  0  0  0  0  0  0  0
   16.1834  -24.2212  -15.4375 C   0  0  0  0  0  0  0  0  0  0  0  0
   15.5430  -25.5317  -15.4978 N   0  0  0  0  0  0  0  0  0  0  0  0
   19.5161  -21.0824  -12.6854 C   0  0  0  0  0  0  0  0  0  0  0  0
   19.9477  -21.3455  -11.5382 O   0  0  0  0  0  0  0  0  0  0  0  0
   18.4379  -20.2278  -12.7883 O   0  0  0  0  0  0  0  0  0  0  0  0
  2  1  1  6
  2  3  1  0
  3  4  1  0
  4  5  1  0
  5  6  2  0
  7  2  1  0
  7  8  2  0
  9  5  1  0
 11 10  1  1
 11 13  1  0
 12 11  1  0
 14 13  1  1
 14 15  1  0
 15  7  1  0
 16 18  1  0
 16 14  1  0
 17 16  2  0
 19 18  1  0
 19 25  1  0
 19 20  1  1
 21 20  1  0
 22 21  1  0
 23 22  1  0
 24 23  1  0
 25 26  2  0
 25 27  1  0
M  END
$$$$
