ELK.pdb
     RDKit          3D

 27 26  0  0  1  0  0  0  0  0999 V2000
   17.0163  -11.1536  -17.5398 N   0  0  0  0  0  0  0  0  0  0  0  0
   18.1786  -10.4261  -18.0941 C   0  0  1  0  0  0  0  0  0  0  0  0
   17.5934   -9.2897  -18.8930 C   0  0  0  0  0  0  0  0  0  0  0  0
   16.9380   -9.7465  -20.1480 C   0  0  0  0  0  0  0  0  0  0  0  0
   18.0625   -9.9888  -21.1344 C   0  0  0  0  0  0  0  0  0  0  0  0
   18.0839  -11.0267  -21.8366 O   0  0  0  0  0  0  0  0  0  0  0  0
   18.9929   -9.8688  -16.9911 C   0  0  0  0  0  0  0  0  0  0  0  0
   18.4227   -9.3517  -16.0067 O   0  0  0  0  0  0  0  0  0  0  0  0
   19.0763   -9.0666  -21.2690 O   0  0  0  0  0  0  0  0  0  0  0  0
   24.6585  -10.6593  -14.8016 C   0  0  0  0  0  0  0  0  0  0  0  0
   23.4108   -9.7618  -14.7364 C   0  0  2  0  0  0  0  0  0  0  0  0
   22.8778   -9.9446  -13.3392 C   0  0  0  0  0  0  0  0  0  0  0  0
   22.5033  -10.2330  -15.8173 C   0  0  0  0  0  0  0  0  0  0  0  0
   21.2776   -9.4200  -16.0527 C   0  0  2  0  0  0  0  0  0  0  0  0
   20.4199   -9.9351  -17.0776 N   0  0  0  0  0  0  0  0  0  0  0  0
   21.5841   -7.9785  -16.2359 C   0  0  0  0  0  0  0  0  0  0  0  0
   22.2343   -7.5914  -17.2387 O   0  0  0  0  0  0  0  0  0  0  0  0
   21.1640   -6.9890  -15.3025 N   0  0  0  0  0  0  0  0  0  0  0  0
   21.4162   -5.5737  -15.4792 C   0  0  1  0  0  0  0  0  0  0  0  0
   20.1247   -4.7760  -15.4666 C   0  0  0  0  0  0  0  0  0  0  0  0
   20.3551   -3.3081  -15.4770 C   0  0  0  0  0  0  0  0  0  0  0  0
   19.0445   -2.5793  -15.5153 C   0  0  0  0  0  0  0  0  0  0  0  0
   19.2288   -1.0997  -15.5929 C   0  0  0  0  0  0  0  0  0  0  0  0
   17.9519   -0.3997  -15.6978 N   0  0  0  0  0  0  0  0  0  0  0  0
   22.2466   -5.0774  -14.3549 C   0  0  0  0  0  0  0  0  0  0  0  0
   22.8290   -3.9718  -14.4547 O   0  0  0  0  0  0  0  0  0  0  0  0
   22.4103   -5.7891  -13.1843 O   0  0  0  0  0  0  0  0  0  0  0  0
  2  1  1  1
  2  3  1  0
  3  4  1  0
  4  5  1  0
  5  6  2  0
  7  2  1  0
  7  8  2  0
  9  5  1  0
 11 10  1  1
 11 13  1  0
 12 11  1  0
 14 13  1  6
 14 15  1  0
 15  7  1  0
 16 18  1  0
 16 14  1  0
 17 16  2  0
 19 18  1  0
 19 25  1  0
 19 20  1  1
 21 20  1  0
 22 21  1  0
 23 22  1  0
 24 23  1  0
 25 26  2  0
 25 27  1  0
M  END
$$$$
