CWH.pdb
     RDKit          3D

 31 33  0  0  1  0  0  0  0  0999 V2000
   11.7200  -16.0150   18.8665 N   0  0  0  0  0  0  0  0  0  0  0  0
   10.3214  -16.3571   19.1476 C   0  0  1  0  0  0  0  0  0  0  0  0
   10.1093  -17.8299   18.8458 C   0  0  0  0  0  0  0  0  0  0  0  0
   11.1141  -18.8252   19.9562 S   0  0  0  0  0  0  0  0  0  0  0  0
    9.9591  -15.9768   20.5235 C   0  0  0  0  0  0  0  0  0  0  0  0
   10.9090  -15.8798   21.3661 O   0  0  0  0  0  0  0  0  0  0  0  0
    8.6609  -15.7053   21.0088 N   0  0  0  0  0  0  0  0  0  0  0  0
    8.4320  -15.4600   22.3985 C   0  0  1  0  0  0  0  0  0  0  0  0
    7.0347  -14.9826   22.7320 C   0  0  0  0  0  0  0  0  0  0  0  0
    6.8619  -14.7216   24.1933 C   0  0  0  0  0  0  0  0  0  0  0  0
    6.4525  -15.7011   25.1019 C   0  0  0  0  0  0  0  0  0  0  0  0
    6.4341  -15.1180   26.2977 N   0  0  0  0  0  0  0  0  0  0  0  0
    6.8022  -13.8368   26.2154 C   0  0  0  0  0  0  0  0  0  0  0  0
    6.9343  -12.8329   27.1419 C   0  0  0  0  0  0  0  0  0  0  0  0
    7.3314  -11.5720   26.7779 C   0  0  0  0  0  0  0  0  0  0  0  0
    7.5976  -11.3358   25.4412 C   0  0  0  0  0  0  0  0  0  0  0  0
    7.4763  -12.3204   24.4793 C   0  0  0  0  0  0  0  0  0  0  0  0
    7.0743  -13.5738   24.8939 C   0  0  0  0  0  0  0  0  0  0  0  0
    8.8235  -16.5999   23.2582 C   0  0  0  0  0  0  0  0  0  0  0  0
    8.4979  -17.7930   23.0278 O   0  0  0  0  0  0  0  0  0  0  0  0
    9.6110  -16.3590   24.4135 N   0  0  0  0  0  0  0  0  0  0  0  0
   10.2361  -17.4775   25.1114 C   0  0  1  0  0  0  0  0  0  0  0  0
   11.6346  -17.6361   24.5547 C   0  0  0  0  0  0  0  0  0  0  0  0
   12.4106  -18.6825   25.2281 C   0  0  0  0  0  0  0  0  0  0  0  0
   11.9918  -19.4633   26.2930 C   0  0  0  0  0  0  0  0  0  0  0  0
   12.9957  -20.2854   26.5998 N   0  0  0  0  0  0  0  0  0  0  0  0
   14.0141  -20.0471   25.7728 C   0  0  0  0  0  0  0  0  0  0  0  0
   13.6707  -19.0584   24.9169 N   0  0  0  0  0  0  0  0  0  0  0  0
   10.2471  -17.1959   26.5575 C   0  0  0  0  0  0  0  0  0  0  0  0
    9.6101  -16.0463   27.0084 O   0  0  0  0  0  0  0  0  0  0  0  0
   10.7981  -17.9326   27.4095 O   0  0  0  0  0  0  0  0  0  0  0  0
  2  1  1  1
  3  2  1  0
  4  3  1  0
  5  6  2  0
  5  2  1  0
  7  5  1  0
  8  9  1  6
  8  7  1  0
 10 18  1  0
 10  9  1  0
 11 10  2  0
 12 11  1  0
 12 13  1  0
 13 14  1  0
 13 18  2  0
 14 15  2  0
 15 16  1  0
 17 16  2  0
 18 17  1  0
 19  8  1  0
 20 19  2  0
 21 19  1  0
 22 29  1  0
 22 21  1  0
 22 23  1  6
 24 23  1  0
 25 24  2  0
 26 27  1  0
 26 25  1  0
 27 28  2  0
 28 24  1  0
 29 30  1  0
 31 29  2  0
M  END
$$$$
