CWH.pdb
     RDKit          3D

 31 33  0  0  1  0  0  0  0  0999 V2000
    7.4384  -17.2105   20.9316 N   0  0  0  0  0  0  0  0  0  0  0  0
    8.0673  -15.8899   21.0440 C   0  0  1  0  0  0  0  0  0  0  0  0
    6.9876  -14.8262   20.9529 C   0  0  0  0  0  0  0  0  0  0  0  0
    7.7437  -13.2214   20.6594 S   0  0  0  0  0  0  0  0  0  0  0  0
    8.8812  -15.8036   22.2683 C   0  0  0  0  0  0  0  0  0  0  0  0
   10.0071  -15.2159   22.1744 O   0  0  0  0  0  0  0  0  0  0  0  0
    8.5411  -16.3060   23.5437 N   0  0  0  0  0  0  0  0  0  0  0  0
    9.4356  -16.1686   24.6503 C   0  0  1  0  0  0  0  0  0  0  0  0
    8.7579  -16.0834   26.0012 C   0  0  0  0  0  0  0  0  0  0  0  0
    7.6054  -15.1321   25.9949 C   0  0  0  0  0  0  0  0  0  0  0  0
    6.2832  -15.5339   25.7873 C   0  0  0  0  0  0  0  0  0  0  0  0
    5.5399  -14.4338   25.8730 N   0  0  0  0  0  0  0  0  0  0  0  0
    6.2944  -13.3598   26.1200 C   0  0  0  0  0  0  0  0  0  0  0  0
    6.0114  -12.0271   26.2854 C   0  0  0  0  0  0  0  0  0  0  0  0
    7.0020  -11.1105   26.5268 C   0  0  0  0  0  0  0  0  0  0  0  0
    8.3055  -11.5675   26.6000 C   0  0  0  0  0  0  0  0  0  0  0  0
    8.6302  -12.9011   26.4393 C   0  0  0  0  0  0  0  0  0  0  0  0
    7.5989  -13.7861   26.1988 C   0  0  0  0  0  0  0  0  0  0  0  0
   10.5073  -17.1900   24.6568 C   0  0  0  0  0  0  0  0  0  0  0  0
   10.2972  -18.4224   24.7969 O   0  0  0  0  0  0  0  0  0  0  0  0
   11.8564  -16.7808   24.4976 N   0  0  0  0  0  0  0  0  0  0  0  0
   12.8383  -17.7141   23.9554 C   0  0  1  0  0  0  0  0  0  0  0  0
   12.5226  -17.9038   22.4875 C   0  0  0  0  0  0  0  0  0  0  0  0
   13.4838  -18.7686   21.7955 C   0  0  0  0  0  0  0  0  0  0  0  0
   14.8608  -18.7571   21.9467 C   0  0  0  0  0  0  0  0  0  0  0  0
   15.3553  -19.6961   21.1394 N   0  0  0  0  0  0  0  0  0  0  0  0
   14.3462  -20.2857   20.4977 C   0  0  0  0  0  0  0  0  0  0  0  0
   13.1803  -19.7252   20.8906 N   0  0  0  0  0  0  0  0  0  0  0  0
   14.1893  -17.1641   24.1622 C   0  0  0  0  0  0  0  0  0  0  0  0
   14.3446  -15.7833   24.1610 O   0  0  0  0  0  0  0  0  0  0  0  0
   15.2116  -17.8682   24.3398 O   0  0  0  0  0  0  0  0  0  0  0  0
  2  1  1  1
  3  2  1  0
  4  3  1  0
  5  6  2  0
  5  2  1  0
  7  5  1  0
  8  9  1  1
  8  7  1  0
 10 18  1  0
 10  9  1  0
 11 10  2  0
 12 11  1  0
 12 13  1  0
 13 14  1  0
 13 18  2  0
 14 15  2  0
 15 16  1  0
 17 16  2  0
 18 17  1  0
 19  8  1  0
 20 19  2  0
 21 19  1  0
 22 29  1  0
 22 21  1  0
 22 23  1  6
 24 23  1  0
 25 24  2  0
 26 27  1  0
 26 25  1  0
 27 28  2  0
 28 24  1  0
 29 30  1  0
 31 29  2  0
M  END
$$$$
