CWH.pdb
     RDKit          3D

 31 33  0  0  1  0  0  0  0  0999 V2000
    6.7140  -14.4390   20.2166 N   0  0  0  0  0  0  0  0  0  0  0  0
    6.9345  -15.7100   20.9153 C   0  0  1  0  0  0  0  0  0  0  0  0
    7.2185  -16.7895   19.8861 C   0  0  0  0  0  0  0  0  0  0  0  0
    7.4761  -18.3634   20.7166 S   0  0  0  0  0  0  0  0  0  0  0  0
    7.9911  -15.5686   21.9315 C   0  0  0  0  0  0  0  0  0  0  0  0
    8.9492  -14.7738   21.6633 O   0  0  0  0  0  0  0  0  0  0  0  0
    8.0524  -16.2250   23.1805 N   0  0  0  0  0  0  0  0  0  0  0  0
    9.1496  -16.0092   24.0712 C   0  0  1  0  0  0  0  0  0  0  0  0
    8.7707  -15.9547   25.5358 C   0  0  0  0  0  0  0  0  0  0  0  0
    7.6629  -14.9860   25.7959 C   0  0  0  0  0  0  0  0  0  0  0  0
    6.3219  -15.3663   25.8952 C   0  0  0  0  0  0  0  0  0  0  0  0
    5.6360  -14.2555   26.1518 N   0  0  0  0  0  0  0  0  0  0  0  0
    6.4444  -13.1948   26.2227 C   0  0  0  0  0  0  0  0  0  0  0  0
    6.2284  -11.8590   26.4521 C   0  0  0  0  0  0  0  0  0  0  0  0
    7.2628  -10.9592   26.4631 C   0  0  0  0  0  0  0  0  0  0  0  0
    8.5409  -11.4365   26.2349 C   0  0  0  0  0  0  0  0  0  0  0  0
    8.7984  -12.7737   26.0004 C   0  0  0  0  0  0  0  0  0  0  0  0
    7.7252  -13.6414   25.9998 C   0  0  0  0  0  0  0  0  0  0  0  0
   10.2694  -16.9512   23.8467 C   0  0  0  0  0  0  0  0  0  0  0  0
   10.1292  -18.1994   23.7762 O   0  0  0  0  0  0  0  0  0  0  0  0
   11.5854  -16.4418   23.6992 N   0  0  0  0  0  0  0  0  0  0  0  0
   12.7038  -17.3620   23.5220 C   0  0  1  0  0  0  0  0  0  0  0  0
   13.8414  -16.5804   22.9011 C   0  0  0  0  0  0  0  0  0  0  0  0
   13.5505  -16.1165   21.5407 C   0  0  0  0  0  0  0  0  0  0  0  0
   12.4681  -16.4841   20.7580 C   0  0  0  0  0  0  0  0  0  0  0  0
   12.5813  -15.8376   19.5974 N   0  0  0  0  0  0  0  0  0  0  0  0
   13.6838  -15.0883   19.6289 C   0  0  0  0  0  0  0  0  0  0  0  0
   14.2967  -15.2478   20.8234 N   0  0  0  0  0  0  0  0  0  0  0  0
   13.0733  -17.9269   24.8316 C   0  0  0  0  0  0  0  0  0  0  0  0
   14.1056  -18.8557   24.8795 O   0  0  0  0  0  0  0  0  0  0  0  0
   12.5112  -17.6199   25.9096 O   0  0  0  0  0  0  0  0  0  0  0  0
  2  1  1  6
  3  2  1  0
  4  3  1  0
  5  6  2  0
  5  2  1  0
  7  5  1  0
  8  9  1  1
  8  7  1  0
 10 18  1  0
 10  9  1  0
 11 10  2  0
 12 11  1  0
 12 13  1  0
 13 14  1  0
 13 18  2  0
 14 15  2  0
 15 16  1  0
 17 16  2  0
 18 17  1  0
 19  8  1  0
 20 19  2  0
 21 19  1  0
 22 29  1  0
 22 21  1  0
 22 23  1  1
 24 23  1  0
 25 24  2  0
 26 27  1  0
 26 25  1  0
 27 28  2  0
 28 24  1  0
 29 30  1  0
 31 29  2  0
M  END
$$$$
