CWH.pdb
     RDKit          3D

 31 33  0  0  1  0  0  0  0  0999 V2000
    7.1052  -19.2932   19.3379 N   0  0  0  0  0  0  0  0  0  0  0  0
    6.7528  -18.8090   20.6772 C   0  0  1  0  0  0  0  0  0  0  0  0
    6.5916  -20.0033   21.6008 C   0  0  0  0  0  0  0  0  0  0  0  0
    6.1853  -19.4352   23.2577 S   0  0  0  0  0  0  0  0  0  0  0  0
    7.7397  -17.8238   21.1506 C   0  0  0  0  0  0  0  0  0  0  0  0
    8.9458  -17.9866   20.7753 O   0  0  0  0  0  0  0  0  0  0  0  0
    7.4869  -16.7096   21.9809 N   0  0  0  0  0  0  0  0  0  0  0  0
    8.5283  -15.7877   22.3113 C   0  0  1  0  0  0  0  0  0  0  0  0
    8.0464  -14.4084   22.7071 C   0  0  0  0  0  0  0  0  0  0  0  0
    7.3347  -14.4153   24.0212 C   0  0  0  0  0  0  0  0  0  0  0  0
    6.5873  -15.5030   24.4804 C   0  0  0  0  0  0  0  0  0  0  0  0
    6.1270  -15.1606   25.6809 N   0  0  0  0  0  0  0  0  0  0  0  0
    6.5277  -13.9322   26.0188 C   0  0  0  0  0  0  0  0  0  0  0  0
    6.3189  -13.1430   27.1221 C   0  0  0  0  0  0  0  0  0  0  0  0
    6.8533  -11.8836   27.2117 C   0  0  0  0  0  0  0  0  0  0  0  0
    7.6149  -11.4248   26.1521 C   0  0  0  0  0  0  0  0  0  0  0  0
    7.8478  -12.1894   25.0248 C   0  0  0  0  0  0  0  0  0  0  0  0
    7.2896  -13.4508   24.9809 C   0  0  0  0  0  0  0  0  0  0  0  0
    9.4798  -16.3252   23.3101 C   0  0  0  0  0  0  0  0  0  0  0  0
    9.1955  -17.2419   24.1234 O   0  0  0  0  0  0  0  0  0  0  0  0
   10.7934  -15.7928   23.3735 N   0  0  0  0  0  0  0  0  0  0  0  0
   11.8781  -16.6010   23.9204 C   0  0  1  0  0  0  0  0  0  0  0  0
   13.1790  -16.0243   23.4050 C   0  0  0  0  0  0  0  0  0  0  0  0
   14.3587  -16.7823   23.8341 C   0  0  0  0  0  0  0  0  0  0  0  0
   14.4097  -17.7229   24.8499 C   0  0  0  0  0  0  0  0  0  0  0  0
   15.6642  -18.1704   24.9122 N   0  0  0  0  0  0  0  0  0  0  0  0
   16.3887  -17.5487   23.9814 C   0  0  0  0  0  0  0  0  0  0  0  0
   15.5980  -16.6860   23.3043 N   0  0  0  0  0  0  0  0  0  0  0  0
   11.8058  -16.5700   25.3916 C   0  0  0  0  0  0  0  0  0  0  0  0
   12.4159  -17.5966   26.1019 O   0  0  0  0  0  0  0  0  0  0  0  0
   11.2251  -15.6707   26.0446 O   0  0  0  0  0  0  0  0  0  0  0  0
  2  1  1  6
  3  2  1  0
  4  3  1  0
  5  6  2  0
  5  2  1  0
  7  5  1  0
  8  9  1  1
  8  7  1  0
 10 18  1  0
 10  9  1  0
 11 10  2  0
 12 11  1  0
 12 13  1  0
 13 14  1  0
 13 18  2  0
 14 15  2  0
 15 16  1  0
 17 16  2  0
 18 17  1  0
 19  8  1  0
 20 19  2  0
 21 19  1  0
 22 29  1  0
 22 21  1  0
 22 23  1  1
 24 23  1  0
 25 24  2  0
 26 27  1  0
 26 25  1  0
 27 28  2  0
 28 24  1  0
 29 30  1  0
 31 29  2  0
M  END
$$$$
