CWH.pdb
     RDKit          3D

 31 33  0  0  1  0  0  0  0  0999 V2000
    8.9134  -18.1794   18.9459 N   0  0  0  0  0  0  0  0  0  0  0  0
    8.1220  -17.8014   20.1219 C   0  0  1  0  0  0  0  0  0  0  0  0
    7.2874  -18.9946   20.5522 C   0  0  0  0  0  0  0  0  0  0  0  0
    8.1757  -19.9342   21.8018 S   0  0  0  0  0  0  0  0  0  0  0  0
    8.9916  -17.2727   21.1863 C   0  0  0  0  0  0  0  0  0  0  0  0
   10.2431  -17.4751   21.0649 O   0  0  0  0  0  0  0  0  0  0  0  0
    8.5807  -16.5591   22.3337 N   0  0  0  0  0  0  0  0  0  0  0  0
    9.5305  -16.1323   23.3133 C   0  0  1  0  0  0  0  0  0  0  0  0
    9.4278  -14.6713   23.6957 C   0  0  0  0  0  0  0  0  0  0  0  0
    8.1375  -14.3572   24.3811 C   0  0  0  0  0  0  0  0  0  0  0  0
    7.0604  -15.2462   24.4282 C   0  0  0  0  0  0  0  0  0  0  0  0
    6.1071  -14.6420   25.1328 N   0  0  0  0  0  0  0  0  0  0  0  0
    6.5001  -13.4314   25.5374 C   0  0  0  0  0  0  0  0  0  0  0  0
    5.8946  -12.4390   26.2669 C   0  0  0  0  0  0  0  0  0  0  0  0
    6.5368  -11.2587   26.5392 C   0  0  0  0  0  0  0  0  0  0  0  0
    7.8220  -11.0923   26.0554 C   0  0  0  0  0  0  0  0  0  0  0  0
    8.4649  -12.0679   25.3177 C   0  0  0  0  0  0  0  0  0  0  0  0
    7.7784  -13.2392   25.0698 C   0  0  0  0  0  0  0  0  0  0  0  0
    9.5481  -16.9964   24.5153 C   0  0  0  0  0  0  0  0  0  0  0  0
    8.5105  -17.4246   25.0833 O   0  0  0  0  0  0  0  0  0  0  0  0
   10.7937  -17.3775   25.0775 N   0  0  0  0  0  0  0  0  0  0  0  0
   10.8274  -18.2961   26.2106 C   0  0  1  0  0  0  0  0  0  0  0  0
   12.1450  -19.0387   26.1546 C   0  0  0  0  0  0  0  0  0  0  0  0
   12.2926  -19.8663   24.9530 C   0  0  0  0  0  0  0  0  0  0  0  0
   11.3255  -20.1001   23.9890 C   0  0  0  0  0  0  0  0  0  0  0  0
   11.8670  -20.9019   23.0716 N   0  0  0  0  0  0  0  0  0  0  0  0
   13.1235  -21.1731   23.4259 C   0  0  0  0  0  0  0  0  0  0  0  0
   13.4049  -20.5410   24.5875 N   0  0  0  0  0  0  0  0  0  0  0  0
   10.6813  -17.5259   27.4581 C   0  0  0  0  0  0  0  0  0  0  0  0
   10.6562  -18.2210   28.6610 O   0  0  0  0  0  0  0  0  0  0  0  0
   10.5777  -16.2771   27.5010 O   0  0  0  0  0  0  0  0  0  0  0  0
  2  1  1  6
  3  2  1  0
  4  3  1  0
  5  6  2  0
  5  2  1  0
  7  5  1  0
  8  9  1  1
  8  7  1  0
 10 18  1  0
 10  9  1  0
 11 10  2  0
 12 11  1  0
 12 13  1  0
 13 14  1  0
 13 18  2  0
 14 15  2  0
 15 16  1  0
 17 16  2  0
 18 17  1  0
 19  8  1  0
 20 19  2  0
 21 19  1  0
 22 29  1  0
 22 21  1  0
 22 23  1  1
 24 23  1  0
 25 24  2  0
 26 27  1  0
 26 25  1  0
 27 28  2  0
 28 24  1  0
 29 30  1  0
 31 29  2  0
M  END
$$$$
