CWH.pdb
     RDKit          3D

 31 33  0  0  1  0  0  0  0  0999 V2000
    7.5476  -13.9394   19.7610 N   0  0  0  0  0  0  0  0  0  0  0  0
    7.0906  -14.9826   20.6856 C   0  0  1  0  0  0  0  0  0  0  0  0
    6.8158  -16.2492   19.8946 C   0  0  0  0  0  0  0  0  0  0  0  0
    7.7701  -17.6097   20.5815 S   0  0  0  0  0  0  0  0  0  0  0  0
    8.0576  -15.1671   21.7809 C   0  0  0  0  0  0  0  0  0  0  0  0
    9.2612  -14.8173   21.5553 O   0  0  0  0  0  0  0  0  0  0  0  0
    7.7880  -15.6930   23.0636 N   0  0  0  0  0  0  0  0  0  0  0  0
    8.8440  -15.9306   23.9976 C   0  0  1  0  0  0  0  0  0  0  0  0
    8.4190  -15.9000   25.4501 C   0  0  0  0  0  0  0  0  0  0  0  0
    7.3964  -14.8433   25.7163 C   0  0  0  0  0  0  0  0  0  0  0  0
    6.0208  -15.0882   25.6973 C   0  0  0  0  0  0  0  0  0  0  0  0
    5.4310  -13.9342   25.9988 N   0  0  0  0  0  0  0  0  0  0  0  0
    6.3330  -12.9718   26.2081 C   0  0  0  0  0  0  0  0  0  0  0  0
    6.2340  -11.6416   26.5313 C   0  0  0  0  0  0  0  0  0  0  0  0
    7.3487  -10.8577   26.6825 C   0  0  0  0  0  0  0  0  0  0  0  0
    8.5865  -11.4472   26.4991 C   0  0  0  0  0  0  0  0  0  0  0  0
    8.7270  -12.7828   26.1735 C   0  0  0  0  0  0  0  0  0  0  0  0
    7.5762  -13.5315   26.0327 C   0  0  0  0  0  0  0  0  0  0  0  0
    9.6168  -17.1567   23.6956 C   0  0  0  0  0  0  0  0  0  0  0  0
    9.3034  -17.9759   22.7938 O   0  0  0  0  0  0  0  0  0  0  0  0
   10.7815  -17.4465   24.4523 N   0  0  0  0  0  0  0  0  0  0  0  0
   11.9147  -18.1084   23.8146 C   0  0  1  0  0  0  0  0  0  0  0  0
   12.2940  -17.2900   22.5993 C   0  0  0  0  0  0  0  0  0  0  0  0
   13.4718  -17.8087   21.8964 C   0  0  0  0  0  0  0  0  0  0  0  0
   14.2103  -18.9291   22.2407 C   0  0  0  0  0  0  0  0  0  0  0  0
   15.1912  -19.0470   21.3452 N   0  0  0  0  0  0  0  0  0  0  0  0
   15.0911  -18.0506   20.4648 C   0  0  0  0  0  0  0  0  0  0  0  0
   14.0331  -17.2740   20.7896 N   0  0  0  0  0  0  0  0  0  0  0  0
   13.0217  -18.2043   24.7821 C   0  0  0  0  0  0  0  0  0  0  0  0
   13.8645  -19.3066   24.7100 O   0  0  0  0  0  0  0  0  0  0  0  0
   13.2508  -17.3490   25.6699 O   0  0  0  0  0  0  0  0  0  0  0  0
  2  1  1  6
  3  2  1  0
  4  3  1  0
  5  6  2  0
  5  2  1  0
  7  5  1  0
  8  9  1  1
  8  7  1  0
 10 18  1  0
 10  9  1  0
 11 10  2  0
 12 11  1  0
 12 13  1  0
 13 14  1  0
 13 18  2  0
 14 15  2  0
 15 16  1  0
 17 16  2  0
 18 17  1  0
 19  8  1  0
 20 19  2  0
 21 19  1  0
 22 29  1  0
 22 21  1  0
 22 23  1  6
 24 23  1  0
 25 24  2  0
 26 27  1  0
 26 25  1  0
 27 28  2  0
 28 24  1  0
 29 30  1  0
 31 29  2  0
M  END
$$$$
