CWH.pdb
     RDKit          3D

 31 33  0  0  1  0  0  0  0  0999 V2000
    8.7236  -16.9238   19.1919 N   0  0  0  0  0  0  0  0  0  0  0  0
    8.0189  -16.8986   20.4783 C   0  0  1  0  0  0  0  0  0  0  0  0
    7.2382  -18.1918   20.6322 C   0  0  0  0  0  0  0  0  0  0  0  0
    8.3007  -19.4585   21.3392 S   0  0  0  0  0  0  0  0  0  0  0  0
    8.9592  -16.6401   21.5818 C   0  0  0  0  0  0  0  0  0  0  0  0
   10.1947  -16.8426   21.3486 O   0  0  0  0  0  0  0  0  0  0  0  0
    8.6325  -16.1870   22.8790 N   0  0  0  0  0  0  0  0  0  0  0  0
    9.6489  -15.9777   23.8622 C   0  0  1  0  0  0  0  0  0  0  0  0
    9.5264  -14.6776   24.6279 C   0  0  0  0  0  0  0  0  0  0  0  0
    8.1570  -14.4832   25.1937 C   0  0  0  0  0  0  0  0  0  0  0  0
    7.2013  -15.5011   25.2503 C   0  0  0  0  0  0  0  0  0  0  0  0
    6.1267  -14.9737   25.8310 N   0  0  0  0  0  0  0  0  0  0  0  0
    6.3297  -13.6922   26.1480 C   0  0  0  0  0  0  0  0  0  0  0  0
    5.5477  -12.7329   26.7410 C   0  0  0  0  0  0  0  0  0  0  0  0
    6.0113  -11.4589   26.9459 C   0  0  0  0  0  0  0  0  0  0  0  0
    7.2987  -11.1629   26.5358 C   0  0  0  0  0  0  0  0  0  0  0  0
    8.1163  -12.1013   25.9356 C   0  0  0  0  0  0  0  0  0  0  0  0
    7.6058  -13.3702   25.7512 C   0  0  0  0  0  0  0  0  0  0  0  0
    9.8048  -17.1251   24.7847 C   0  0  0  0  0  0  0  0  0  0  0  0
    8.8669  -17.9031   25.0970 O   0  0  0  0  0  0  0  0  0  0  0  0
   11.0747  -17.3830   25.3624 N   0  0  0  0  0  0  0  0  0  0  0  0
   11.2376  -18.4998   26.2873 C   0  0  1  0  0  0  0  0  0  0  0  0
   12.6212  -19.0728   26.0687 C   0  0  0  0  0  0  0  0  0  0  0  0
   12.8175  -19.6138   24.7199 C   0  0  0  0  0  0  0  0  0  0  0  0
   11.8505  -20.1950   23.9159 C   0  0  0  0  0  0  0  0  0  0  0  0
   12.4445  -20.5499   22.7762 N   0  0  0  0  0  0  0  0  0  0  0  0
   13.7333  -20.2141   22.8408 C   0  0  0  0  0  0  0  0  0  0  0  0
   13.9828  -19.6336   24.0361 N   0  0  0  0  0  0  0  0  0  0  0  0
   11.0539  -18.0128   27.6656 C   0  0  0  0  0  0  0  0  0  0  0  0
   11.1685  -18.9261   28.7065 O   0  0  0  0  0  0  0  0  0  0  0  0
   10.7995  -16.8203   27.9581 O   0  0  0  0  0  0  0  0  0  0  0  0
  2  1  1  6
  3  2  1  0
  4  3  1  0
  5  6  2  0
  5  2  1  0
  7  5  1  0
  8  9  1  1
  8  7  1  0
 10 18  1  0
 10  9  1  0
 11 10  2  0
 12 11  1  0
 12 13  1  0
 13 14  1  0
 13 18  2  0
 14 15  2  0
 15 16  1  0
 17 16  2  0
 18 17  1  0
 19  8  1  0
 20 19  2  0
 21 19  1  0
 22 29  1  0
 22 21  1  0
 22 23  1  1
 24 23  1  0
 25 24  2  0
 26 27  1  0
 26 25  1  0
 27 28  2  0
 28 24  1  0
 29 30  1  0
 31 29  2  0
M  END
$$$$
