CWH.pdb
     RDKit          3D

 31 33  0  0  1  0  0  0  0  0999 V2000
    8.0805  -15.3810   20.5522 N   0  0  0  0  0  0  0  0  0  0  0  0
    8.0594  -16.6092   21.3543 C   0  0  1  0  0  0  0  0  0  0  0  0
    8.7830  -17.7034   20.5898 C   0  0  0  0  0  0  0  0  0  0  0  0
    8.8106  -19.2096   21.5717 S   0  0  0  0  0  0  0  0  0  0  0  0
    8.6099  -16.3627   22.6978 C   0  0  0  0  0  0  0  0  0  0  0  0
    9.5420  -15.5001   22.7920 O   0  0  0  0  0  0  0  0  0  0  0  0
    8.2087  -16.9855   23.9003 N   0  0  0  0  0  0  0  0  0  0  0  0
    8.9458  -16.7920   25.1098 C   0  0  1  0  0  0  0  0  0  0  0  0
    8.1004  -16.4259   26.3110 C   0  0  0  0  0  0  0  0  0  0  0  0
    7.2464  -15.2266   26.0550 C   0  0  0  0  0  0  0  0  0  0  0  0
    5.8857  -15.3082   25.7475 C   0  0  0  0  0  0  0  0  0  0  0  0
    5.4571  -14.0560   25.6111 N   0  0  0  0  0  0  0  0  0  0  0  0
    6.4479  -13.1827   25.8095 C   0  0  0  0  0  0  0  0  0  0  0  0
    6.5171  -11.8123   25.7760 C   0  0  0  0  0  0  0  0  0  0  0  0
    7.6934  -11.1499   26.0155 C   0  0  0  0  0  0  0  0  0  0  0  0
    8.8185  -11.9048   26.2939 C   0  0  0  0  0  0  0  0  0  0  0  0
    8.7887  -13.2857   26.3369 C   0  0  0  0  0  0  0  0  0  0  0  0
    7.5818  -13.9076   26.0898 C   0  0  0  0  0  0  0  0  0  0  0  0
    9.8510  -17.9213   25.4213 C   0  0  0  0  0  0  0  0  0  0  0  0
    9.4853  -19.1248   25.4417 O   0  0  0  0  0  0  0  0  0  0  0  0
   11.2133  -17.6572   25.7168 N   0  0  0  0  0  0  0  0  0  0  0  0
   12.0993  -18.7533   26.0943 C   0  0  1  0  0  0  0  0  0  0  0  0
   13.5150  -18.3238   25.7752 C   0  0  0  0  0  0  0  0  0  0  0  0
   13.7657  -18.1778   24.3377 C   0  0  0  0  0  0  0  0  0  0  0  0
   13.0415  -18.7615   23.3110 C   0  0  0  0  0  0  0  0  0  0  0  0
   13.5984  -18.3731   22.1635 N   0  0  0  0  0  0  0  0  0  0  0  0
   14.6325  -17.5767   22.4358 C   0  0  0  0  0  0  0  0  0  0  0  0
   14.7517  -17.4441   23.7760 N   0  0  0  0  0  0  0  0  0  0  0  0
   11.9211  -19.0433   27.5278 C   0  0  0  0  0  0  0  0  0  0  0  0
   11.0043  -18.2831   28.2435 O   0  0  0  0  0  0  0  0  0  0  0  0
   12.5483  -19.9373   28.1439 O   0  0  0  0  0  0  0  0  0  0  0  0
  2  1  1  6
  3  2  1  0
  4  3  1  0
  5  6  2  0
  5  2  1  0
  7  5  1  0
  8  9  1  1
  8  7  1  0
 10 18  1  0
 10  9  1  0
 11 10  2  0
 12 11  1  0
 12 13  1  0
 13 14  1  0
 13 18  2  0
 14 15  2  0
 15 16  1  0
 17 16  2  0
 18 17  1  0
 19  8  1  0
 20 19  2  0
 21 19  1  0
 22 29  1  0
 22 21  1  0
 22 23  1  1
 24 23  1  0
 25 24  2  0
 26 27  1  0
 26 25  1  0
 27 28  2  0
 28 24  1  0
 29 30  1  0
 31 29  2  0
M  END
$$$$
