CWH.pdb
     RDKit          3D

 31 33  0  0  1  0  0  0  0  0999 V2000
   10.2160  -17.1776   18.1526 N   0  0  0  0  0  0  0  0  0  0  0  0
    9.6772  -17.7648   19.3843 C   0  0  1  0  0  0  0  0  0  0  0  0
   10.4150  -19.0606   19.6702 C   0  0  0  0  0  0  0  0  0  0  0  0
    9.8245  -19.7637   21.2162 S   0  0  0  0  0  0  0  0  0  0  0  0
    9.7338  -16.7950   20.4911 C   0  0  0  0  0  0  0  0  0  0  0  0
   10.7948  -16.0987   20.5967 O   0  0  0  0  0  0  0  0  0  0  0  0
    8.7278  -16.5538   21.4526 N   0  0  0  0  0  0  0  0  0  0  0  0
    8.9010  -15.5584   22.4640 C   0  0  1  0  0  0  0  0  0  0  0  0
    7.7184  -14.6309   22.6442 C   0  0  0  0  0  0  0  0  0  0  0  0
    7.2961  -14.5268   24.0739 C   0  0  0  0  0  0  0  0  0  0  0  0
    6.7369  -15.5914   24.7856 C   0  0  0  0  0  0  0  0  0  0  0  0
    6.5123  -15.1411   26.0173 N   0  0  0  0  0  0  0  0  0  0  0  0
    6.8883  -13.8655   26.1407 C   0  0  0  0  0  0  0  0  0  0  0  0
    6.8582  -12.9706   27.1808 C   0  0  0  0  0  0  0  0  0  0  0  0
    7.3113  -11.6852   27.0312 C   0  0  0  0  0  0  0  0  0  0  0  0
    7.8036  -11.3103   25.7941 C   0  0  0  0  0  0  0  0  0  0  0  0
    7.8505  -12.1824   24.7232 C   0  0  0  0  0  0  0  0  0  0  0  0
    7.3839  -13.4658   24.9224 C   0  0  0  0  0  0  0  0  0  0  0  0
    9.3361  -16.1232   23.7615 C   0  0  0  0  0  0  0  0  0  0  0  0
    8.7663  -17.0909   24.3286 O   0  0  0  0  0  0  0  0  0  0  0  0
   10.4570  -15.5586   24.4229 N   0  0  0  0  0  0  0  0  0  0  0  0
   10.9169  -16.1277   25.6853 C   0  0  1  0  0  0  0  0  0  0  0  0
    9.7102  -16.7138   26.3859 C   0  0  0  0  0  0  0  0  0  0  0  0
   10.0215  -17.2724   27.7056 C   0  0  0  0  0  0  0  0  0  0  0  0
   10.9152  -16.7559   28.6296 C   0  0  0  0  0  0  0  0  0  0  0  0
   10.8984  -17.5635   29.6905 N   0  0  0  0  0  0  0  0  0  0  0  0
   10.0353  -18.5540   29.4627 C   0  0  0  0  0  0  0  0  0  0  0  0
    9.4829  -18.3908   28.2395 N   0  0  0  0  0  0  0  0  0  0  0  0
   11.9424  -17.1483   25.4069 C   0  0  0  0  0  0  0  0  0  0  0  0
   12.6338  -17.6958   26.4805 O   0  0  0  0  0  0  0  0  0  0  0  0
   12.2306  -17.5546   24.2562 O   0  0  0  0  0  0  0  0  0  0  0  0
  2  1  1  6
  3  2  1  0
  4  3  1  0
  5  6  2  0
  5  2  1  0
  7  5  1  0
  8  9  1  1
  8  7  1  0
 10 18  1  0
 10  9  1  0
 11 10  2  0
 12 11  1  0
 12 13  1  0
 13 14  1  0
 13 18  2  0
 14 15  2  0
 15 16  1  0
 17 16  2  0
 18 17  1  0
 19  8  1  0
 20 19  2  0
 21 19  1  0
 22 29  1  0
 22 21  1  0
 22 23  1  6
 24 23  1  0
 25 24  2  0
 26 27  1  0
 26 25  1  0
 27 28  2  0
 28 24  1  0
 29 30  1  0
 31 29  2  0
M  END
$$$$
