CWH.pdb
     RDKit          3D

 31 33  0  0  1  0  0  0  0  0999 V2000
   10.5054  -16.2579   18.4194 N   0  0  0  0  0  0  0  0  0  0  0  0
    9.7127  -17.1753   19.2454 C   0  0  1  0  0  0  0  0  0  0  0  0
   10.3939  -18.5322   19.2582 C   0  0  0  0  0  0  0  0  0  0  0  0
    9.4256  -19.6852   20.2413 S   0  0  0  0  0  0  0  0  0  0  0  0
    9.4942  -16.6102   20.5876 C   0  0  0  0  0  0  0  0  0  0  0  0
   10.4650  -15.9754   21.1133 O   0  0  0  0  0  0  0  0  0  0  0  0
    8.3129  -16.6976   21.3568 N   0  0  0  0  0  0  0  0  0  0  0  0
    8.2323  -16.0958   22.6511 C   0  0  1  0  0  0  0  0  0  0  0  0
    6.8335  -15.7056   23.0784 C   0  0  0  0  0  0  0  0  0  0  0  0
    6.7956  -15.1886   24.4800 C   0  0  0  0  0  0  0  0  0  0  0  0
    6.5590  -16.0041   25.5898 C   0  0  0  0  0  0  0  0  0  0  0  0
    6.6221  -15.2117   26.6567 N   0  0  0  0  0  0  0  0  0  0  0  0
    6.8816  -13.9495   26.3055 C   0  0  0  0  0  0  0  0  0  0  0  0
    7.0339  -12.7857   27.0169 C   0  0  0  0  0  0  0  0  0  0  0  0
    7.2941  -11.5940   26.3908 C   0  0  0  0  0  0  0  0  0  0  0  0
    7.4000  -11.5949   25.0116 C   0  0  0  0  0  0  0  0  0  0  0  0
    7.2533  -12.7457   24.2608 C   0  0  0  0  0  0  0  0  0  0  0  0
    6.9930  -13.9210   24.9357 C   0  0  0  0  0  0  0  0  0  0  0  0
    8.9060  -16.8927   23.7013 C   0  0  0  0  0  0  0  0  0  0  0  0
    8.6349  -18.0964   23.9469 O   0  0  0  0  0  0  0  0  0  0  0  0
    9.9187  -16.2871   24.4891 N   0  0  0  0  0  0  0  0  0  0  0  0
   10.6680  -17.0902   25.4496 C   0  0  1  0  0  0  0  0  0  0  0  0
   12.1259  -16.7029   25.3264 C   0  0  0  0  0  0  0  0  0  0  0  0
   12.7625  -17.2226   24.1118 C   0  0  0  0  0  0  0  0  0  0  0  0
   12.3682  -18.3344   23.3854 C   0  0  0  0  0  0  0  0  0  0  0  0
   13.2117  -18.4567   22.3600 N   0  0  0  0  0  0  0  0  0  0  0  0
   14.1077  -17.4712   22.4211 C   0  0  0  0  0  0  0  0  0  0  0  0
   13.8459  -16.6973   23.4984 N   0  0  0  0  0  0  0  0  0  0  0  0
   10.1424  -16.8359   26.8022 C   0  0  0  0  0  0  0  0  0  0  0  0
   10.7457  -17.4817   27.8744 O   0  0  0  0  0  0  0  0  0  0  0  0
    9.1804  -16.0696   27.0462 O   0  0  0  0  0  0  0  0  0  0  0  0
  2  1  1  6
  3  2  1  0
  4  3  1  0
  5  6  2  0
  5  2  1  0
  7  5  1  0
  8  9  1  1
  8  7  1  0
 10 18  1  0
 10  9  1  0
 11 10  2  0
 12 11  1  0
 12 13  1  0
 13 14  1  0
 13 18  2  0
 14 15  2  0
 15 16  1  0
 17 16  2  0
 18 17  1  0
 19  8  1  0
 20 19  2  0
 21 19  1  0
 22 29  1  0
 22 21  1  0
 22 23  1  1
 24 23  1  0
 25 24  2  0
 26 27  1  0
 26 25  1  0
 27 28  2  0
 28 24  1  0
 29 30  1  0
 31 29  2  0
M  END
$$$$
