CWH.pdb
     RDKit          3D

 31 33  0  0  1  0  0  0  0  0999 V2000
    7.9624  -15.1128   19.5424 N   0  0  0  0  0  0  0  0  0  0  0  0
    8.4652  -16.2904   20.2583 C   0  0  1  0  0  0  0  0  0  0  0  0
    9.4999  -16.9840   19.3902 C   0  0  0  0  0  0  0  0  0  0  0  0
   10.1593  -18.4126   20.2606 S   0  0  0  0  0  0  0  0  0  0  0  0
    8.9670  -15.9143   21.5909 C   0  0  0  0  0  0  0  0  0  0  0  0
    9.8038  -14.9558   21.6447 O   0  0  0  0  0  0  0  0  0  0  0  0
    8.6141  -16.5079   22.8228 N   0  0  0  0  0  0  0  0  0  0  0  0
    9.2901  -16.1513   24.0310 C   0  0  1  0  0  0  0  0  0  0  0  0
    8.4361  -16.2327   25.2782 C   0  0  0  0  0  0  0  0  0  0  0  0
    7.3016  -15.2605   25.2492 C   0  0  0  0  0  0  0  0  0  0  0  0
    5.9683  -15.6457   25.0861 C   0  0  0  0  0  0  0  0  0  0  0  0
    5.2474  -14.5284   25.1343 N   0  0  0  0  0  0  0  0  0  0  0  0
    6.0266  -13.4591   25.3160 C   0  0  0  0  0  0  0  0  0  0  0  0
    5.7717  -12.1148   25.4240 C   0  0  0  0  0  0  0  0  0  0  0  0
    6.7839  -11.2074   25.6030 C   0  0  0  0  0  0  0  0  0  0  0  0
    8.0799  -11.6859   25.6726 C   0  0  0  0  0  0  0  0  0  0  0  0
    8.3764  -13.0316   25.5686 C   0  0  0  0  0  0  0  0  0  0  0  0
    7.3242  -13.9066   25.3898 C   0  0  0  0  0  0  0  0  0  0  0  0
   10.5678  -16.8767   24.2134 C   0  0  0  0  0  0  0  0  0  0  0  0
   10.7687  -18.0507   23.8085 O   0  0  0  0  0  0  0  0  0  0  0  0
   11.6421  -16.2325   24.8795 N   0  0  0  0  0  0  0  0  0  0  0  0
   11.9640  -16.5949   26.2557 C   0  0  1  0  0  0  0  0  0  0  0  0
   11.2568  -15.6106   27.1621 C   0  0  0  0  0  0  0  0  0  0  0  0
   11.4480  -15.8956   28.5878 C   0  0  0  0  0  0  0  0  0  0  0  0
   10.7506  -15.3295   29.6425 C   0  0  0  0  0  0  0  0  0  0  0  0
   11.2326  -15.8612   30.7663 N   0  0  0  0  0  0  0  0  0  0  0  0
   12.1950  -16.7290   30.4526 C   0  0  0  0  0  0  0  0  0  0  0  0
   12.3426  -16.7639   29.1091 N   0  0  0  0  0  0  0  0  0  0  0  0
   11.5297  -17.9811   26.5017 C   0  0  0  0  0  0  0  0  0  0  0  0
   12.4344  -18.8601   27.0844 O   0  0  0  0  0  0  0  0  0  0  0  0
   10.3895  -18.4180   26.2163 O   0  0  0  0  0  0  0  0  0  0  0  0
  2  1  1  6
  3  2  1  0
  4  3  1  0
  5  6  2  0
  5  2  1  0
  7  5  1  0
  8  9  1  1
  8  7  1  0
 10 18  1  0
 10  9  1  0
 11 10  2  0
 12 11  1  0
 12 13  1  0
 13 14  1  0
 13 18  2  0
 14 15  2  0
 15 16  1  0
 17 16  2  0
 18 17  1  0
 19  8  1  0
 20 19  2  0
 21 19  1  0
 22 29  1  0
 22 21  1  0
 22 23  1  1
 24 23  1  0
 25 24  2  0
 26 27  1  0
 26 25  1  0
 27 28  2  0
 28 24  1  0
 29 30  1  0
 31 29  2  0
M  END
$$$$
