CWH.pdb
     RDKit          3D

 31 33  0  0  1  0  0  0  0  0999 V2000
    7.0878  -13.9351   20.3785 N   0  0  0  0  0  0  0  0  0  0  0  0
    7.2633  -15.2769   20.9449 C   0  0  1  0  0  0  0  0  0  0  0  0
    7.8104  -16.1942   19.8657 C   0  0  0  0  0  0  0  0  0  0  0  0
    7.6893  -17.9044   20.4078 S   0  0  0  0  0  0  0  0  0  0  0  0
    8.0985  -15.2251   22.1567 C   0  0  0  0  0  0  0  0  0  0  0  0
    9.0955  -14.4330   22.1388 O   0  0  0  0  0  0  0  0  0  0  0  0
    7.9074  -15.9650   23.3444 N   0  0  0  0  0  0  0  0  0  0  0  0
    8.8850  -15.9466   24.3873 C   0  0  1  0  0  0  0  0  0  0  0  0
    8.3117  -15.8917   25.7872 C   0  0  0  0  0  0  0  0  0  0  0  0
    7.3239  -14.7820   25.9489 C   0  0  0  0  0  0  0  0  0  0  0  0
    5.9408  -14.9810   25.9335 C   0  0  0  0  0  0  0  0  0  0  0  0
    5.3887  -13.7862   26.1275 N   0  0  0  0  0  0  0  0  0  0  0  0
    6.3214  -12.8402   26.2649 C   0  0  0  0  0  0  0  0  0  0  0  0
    6.2655  -11.4846   26.4716 C   0  0  0  0  0  0  0  0  0  0  0  0
    7.4052  -10.7287   26.5691 C   0  0  0  0  0  0  0  0  0  0  0  0
    8.6236  -11.3733   26.4526 C   0  0  0  0  0  0  0  0  0  0  0  0
    8.7208  -12.7359   26.2445 C   0  0  0  0  0  0  0  0  0  0  0  0
    7.5461  -13.4546   26.1539 C   0  0  0  0  0  0  0  0  0  0  0  0
    9.8818  -17.0343   24.2635 C   0  0  0  0  0  0  0  0  0  0  0  0
    9.5852  -18.2264   23.9927 O   0  0  0  0  0  0  0  0  0  0  0  0
   11.2564  -16.7407   24.4566 N   0  0  0  0  0  0  0  0  0  0  0  0
   12.2373  -17.8208   24.4455 C   0  0  1  0  0  0  0  0  0  0  0  0
   13.5360  -17.2498   23.9183 C   0  0  0  0  0  0  0  0  0  0  0  0
   13.4241  -16.7179   22.5563 C   0  0  0  0  0  0  0  0  0  0  0  0
   12.5353  -17.1347   21.5788 C   0  0  0  0  0  0  0  0  0  0  0  0
   12.7654  -16.3952   20.4935 N   0  0  0  0  0  0  0  0  0  0  0  0
   13.7553  -15.5418   20.7572 C   0  0  0  0  0  0  0  0  0  0  0  0
   14.1756  -15.7265   22.0288 N   0  0  0  0  0  0  0  0  0  0  0  0
   12.3829  -18.3516   25.8121 C   0  0  0  0  0  0  0  0  0  0  0  0
   13.2720  -19.3990   26.0196 O   0  0  0  0  0  0  0  0  0  0  0  0
   11.7513  -17.9146   26.8033 O   0  0  0  0  0  0  0  0  0  0  0  0
  2  1  1  6
  3  2  1  0
  4  3  1  0
  5  6  2  0
  5  2  1  0
  7  5  1  0
  8  9  1  1
  8  7  1  0
 10 18  1  0
 10  9  1  0
 11 10  2  0
 12 11  1  0
 12 13  1  0
 13 14  1  0
 13 18  2  0
 14 15  2  0
 15 16  1  0
 17 16  2  0
 18 17  1  0
 19  8  1  0
 20 19  2  0
 21 19  1  0
 22 29  1  0
 22 21  1  0
 22 23  1  1
 24 23  1  0
 25 24  2  0
 26 27  1  0
 26 25  1  0
 27 28  2  0
 28 24  1  0
 29 30  1  0
 31 29  2  0
M  END
$$$$
