CWH.pdb
     RDKit          3D

 31 33  0  0  1  0  0  0  0  0999 V2000
    7.0737  -14.6815   20.3261 N   0  0  0  0  0  0  0  0  0  0  0  0
    7.0928  -15.8080   21.2656 C   0  0  1  0  0  0  0  0  0  0  0  0
    7.2784  -17.0945   20.4809 C   0  0  0  0  0  0  0  0  0  0  0  0
    8.9215  -17.1256   19.7511 S   0  0  0  0  0  0  0  0  0  0  0  0
    8.1114  -15.5988   22.3084 C   0  0  0  0  0  0  0  0  0  0  0  0
    9.0512  -14.7812   22.0435 O   0  0  0  0  0  0  0  0  0  0  0  0
    8.1545  -16.2123   23.5797 N   0  0  0  0  0  0  0  0  0  0  0  0
    9.2531  -15.9891   24.4668 C   0  0  1  0  0  0  0  0  0  0  0  0
    8.8577  -15.7039   25.8999 C   0  0  0  0  0  0  0  0  0  0  0  0
    7.6658  -14.8069   25.9881 C   0  0  0  0  0  0  0  0  0  0  0  0
    6.3505  -15.2739   25.9204 C   0  0  0  0  0  0  0  0  0  0  0  0
    5.5671  -14.2071   26.0568 N   0  0  0  0  0  0  0  0  0  0  0  0
    6.2897  -13.0939   26.2061 C   0  0  0  0  0  0  0  0  0  0  0  0
    5.9605  -11.7718   26.3715 C   0  0  0  0  0  0  0  0  0  0  0  0
    6.9248  -10.8051   26.4951 C   0  0  0  0  0  0  0  0  0  0  0  0
    8.2497  -11.2000   26.4484 C   0  0  0  0  0  0  0  0  0  0  0  0
    8.6207  -12.5208   26.2836 C   0  0  0  0  0  0  0  0  0  0  0  0
    7.6146  -13.4579   26.1643 C   0  0  0  0  0  0  0  0  0  0  0  0
   10.2754  -17.0579   24.4002 C   0  0  0  0  0  0  0  0  0  0  0  0
   10.0126  -18.2611   24.1434 O   0  0  0  0  0  0  0  0  0  0  0  0
   11.6361  -16.7321   24.6353 N   0  0  0  0  0  0  0  0  0  0  0  0
   12.6459  -17.7852   24.6283 C   0  0  1  0  0  0  0  0  0  0  0  0
   13.9435  -17.1674   24.1541 C   0  0  0  0  0  0  0  0  0  0  0  0
   13.8509  -16.5849   22.8115 C   0  0  0  0  0  0  0  0  0  0  0  0
   13.0255  -17.0102   21.7833 C   0  0  0  0  0  0  0  0  0  0  0  0
   13.2514  -16.2127   20.7389 N   0  0  0  0  0  0  0  0  0  0  0  0
   14.1782  -15.3154   21.0761 C   0  0  0  0  0  0  0  0  0  0  0  0
   14.5612  -15.5299   22.3549 N   0  0  0  0  0  0  0  0  0  0  0  0
   12.7655  -18.3452   25.9858 C   0  0  0  0  0  0  0  0  0  0  0  0
   13.6730  -19.3765   26.1941 O   0  0  0  0  0  0  0  0  0  0  0  0
   12.0961  -17.9468   26.9683 O   0  0  0  0  0  0  0  0  0  0  0  0
  2  1  1  6
  3  2  1  0
  4  3  1  0
  5  6  2  0
  5  2  1  0
  7  5  1  0
  8  9  1  1
  8  7  1  0
 10 18  1  0
 10  9  1  0
 11 10  2  0
 12 11  1  0
 12 13  1  0
 13 14  1  0
 13 18  2  0
 14 15  2  0
 15 16  1  0
 17 16  2  0
 18 17  1  0
 19  8  1  0
 20 19  2  0
 21 19  1  0
 22 29  1  0
 22 21  1  0
 22 23  1  1
 24 23  1  0
 25 24  2  0
 26 27  1  0
 26 25  1  0
 27 28  2  0
 28 24  1  0
 29 30  1  0
 31 29  2  0
M  END
$$$$
