HFG.pdb
     RDKit          3D

 26 27  0  0  1  0  0  0  0  0999 V2000
   10.4456  -16.6862   19.3818 N   0  0  0  0  0  0  0  0  0  0  0  0
    9.2310  -16.9778   20.1732 C   0  0  1  0  0  0  0  0  0  0  0  0
    9.0767  -18.4551   20.2888 C   0  0  0  0  0  0  0  0  0  0  0  0
    8.5553  -19.0278   19.0376 C   0  0  0  0  0  0  0  0  0  0  0  0
    7.8534  -18.3588   18.0718 C   0  0  0  0  0  0  0  0  0  0  0  0
    7.5598  -19.2815   17.1097 N   0  0  0  0  0  0  0  0  0  0  0  0
    8.0508  -20.4712   17.4504 C   0  0  0  0  0  0  0  0  0  0  0  0
    8.6572  -20.3002   18.6324 N   0  0  0  0  0  0  0  0  0  0  0  0
    9.3467  -16.3543   21.5131 C   0  0  0  0  0  0  0  0  0  0  0  0
   10.4018  -16.3667   22.1882 O   0  0  0  0  0  0  0  0  0  0  0  0
    8.2393  -15.6787   22.1468 N   0  0  0  0  0  0  0  0  0  0  0  0
    8.3612  -15.0817   23.4622 C   0  0  1  0  0  0  0  0  0  0  0  0
    7.2713  -14.0463   23.6353 C   0  0  0  0  0  0  0  0  0  0  0  0
    7.3589  -13.3511   24.9275 C   0  0  0  0  0  0  0  0  0  0  0  0
    8.3596  -12.4391   25.1586 C   0  0  0  0  0  0  0  0  0  0  0  0
    8.4636  -11.7653   26.3791 C   0  0  0  0  0  0  0  0  0  0  0  0
    7.5466  -12.0214   27.3654 C   0  0  0  0  0  0  0  0  0  0  0  0
    6.5301  -12.9420   27.1422 C   0  0  0  0  0  0  0  0  0  0  0  0
    6.4355  -13.6111   25.9159 C   0  0  0  0  0  0  0  0  0  0  0  0
    8.1819  -16.0981   24.5352 C   0  0  0  0  0  0  0  0  0  0  0  0
    7.1065  -16.7420   24.6829 O   0  0  0  0  0  0  0  0  0  0  0  0
    9.2388  -16.3603   25.4219 N   0  0  0  0  0  0  0  0  0  0  0  0
    9.2716  -17.5654   26.1926 C   0  0  0  0  0  0  0  0  0  0  0  0
    9.5081  -17.2876   27.6229 C   0  0  0  0  0  0  0  0  0  0  0  0
    8.6035  -17.6420   28.6091 O   0  0  0  0  0  0  0  0  0  0  0  0
   10.5716  -16.7078   27.9507 O   0  0  0  0  0  0  0  0  0  0  0  0
  2  9  1  0
  2  1  1  6
  3  2  1  0
  4  3  1  0
  5  4  2  0
  6  5  1  0
  6  7  1  0
  7  8  2  0
  8  4  1  0
  9 11  1  0
 10  9  2  0
 11 12  1  0
 12 13  1  1
 13 14  1  0
 14 19  1  0
 15 14  2  0
 15 16  1  0
 16 17  2  0
 17 18  1  0
 19 18  2  0
 20 21  2  0
 20 12  1  0
 22 20  1  0
 23 22  1  0
 24 23  1  0
 25 24  1  0
 26 24  2  0
M  END
$$$$
