HFG.pdb
     RDKit          3D

 26 27  0  0  1  0  0  0  0  0999 V2000
   10.0408  -16.3235   19.3588 N   0  0  0  0  0  0  0  0  0  0  0  0
    9.1340  -16.7612   20.4417 C   0  0  1  0  0  0  0  0  0  0  0  0
    9.4509  -18.1742   20.7915 C   0  0  0  0  0  0  0  0  0  0  0  0
    9.1985  -19.0669   19.6493 C   0  0  0  0  0  0  0  0  0  0  0  0
    7.9973  -19.2598   19.0226 C   0  0  0  0  0  0  0  0  0  0  0  0
    8.2264  -20.1787   18.0396 N   0  0  0  0  0  0  0  0  0  0  0  0
    9.5058  -20.5469   18.0455 C   0  0  0  0  0  0  0  0  0  0  0  0
   10.0880  -19.8582   19.0359 N   0  0  0  0  0  0  0  0  0  0  0  0
    9.3007  -15.8772   21.6201 C   0  0  0  0  0  0  0  0  0  0  0  0
   10.3877  -15.3334   21.9229 O   0  0  0  0  0  0  0  0  0  0  0  0
    8.2102  -15.5740   22.5162 N   0  0  0  0  0  0  0  0  0  0  0  0
    8.3553  -14.6227   23.6005 C   0  0  1  0  0  0  0  0  0  0  0  0
    6.9913  -14.0750   23.9601 C   0  0  0  0  0  0  0  0  0  0  0  0
    7.0419  -13.1494   25.1009 C   0  0  0  0  0  0  0  0  0  0  0  0
    7.3225  -11.8194   24.9037 C   0  0  0  0  0  0  0  0  0  0  0  0
    7.3762  -10.9199   25.9725 C   0  0  0  0  0  0  0  0  0  0  0  0
    7.1436  -11.3765   27.2440 C   0  0  0  0  0  0  0  0  0  0  0  0
    6.8589  -12.7200   27.4548 C   0  0  0  0  0  0  0  0  0  0  0  0
    6.8077  -13.6121   26.3769 C   0  0  0  0  0  0  0  0  0  0  0  0
    8.9074  -15.2742   24.8201 C   0  0  0  0  0  0  0  0  0  0  0  0
    9.1254  -14.6361   25.8869 O   0  0  0  0  0  0  0  0  0  0  0  0
    9.2007  -16.6473   24.7971 N   0  0  0  0  0  0  0  0  0  0  0  0
    9.6679  -17.3202   25.9702 C   0  0  0  0  0  0  0  0  0  0  0  0
   11.0680  -17.7627   25.8196 C   0  0  0  0  0  0  0  0  0  0  0  0
   11.8101  -17.5084   24.6790 O   0  0  0  0  0  0  0  0  0  0  0  0
   11.6000  -18.3930   26.7654 O   0  0  0  0  0  0  0  0  0  0  0  0
  2  9  1  0
  2  1  1  6
  3  2  1  0
  4  3  1  0
  5  4  2  0
  6  5  1  0
  6  7  1  0
  7  8  2  0
  8  4  1  0
  9 11  1  0
 10  9  2  0
 11 12  1  0
 12 13  1  1
 13 14  1  0
 14 19  1  0
 15 14  2  0
 15 16  1  0
 16 17  2  0
 17 18  1  0
 19 18  2  0
 20 21  2  0
 20 12  1  0
 22 20  1  0
 23 22  1  0
 24 23  1  0
 25 24  1  0
 26 24  2  0
M  END
$$$$
