HFG.pdb
     RDKit          3D

 26 27  0  0  1  0  0  0  0  0999 V2000
    7.8111  -16.0231   21.2377 N   0  0  0  0  0  0  0  0  0  0  0  0
    9.0742  -15.2810   21.4393 C   0  0  1  0  0  0  0  0  0  0  0  0
    8.9626  -13.9534   20.7727 C   0  0  0  0  0  0  0  0  0  0  0  0
    8.7990  -14.1085   19.3185 C   0  0  0  0  0  0  0  0  0  0  0  0
    9.3617  -15.0832   18.5399 C   0  0  0  0  0  0  0  0  0  0  0  0
    8.9566  -14.8276   17.2618 N   0  0  0  0  0  0  0  0  0  0  0  0
    8.1786  -13.7475   17.2348 C   0  0  0  0  0  0  0  0  0  0  0  0
    8.0914  -13.3185   18.5007 N   0  0  0  0  0  0  0  0  0  0  0  0
    9.3332  -15.1213   22.8902 C   0  0  0  0  0  0  0  0  0  0  0  0
   10.2620  -14.4171   23.3491 O   0  0  0  0  0  0  0  0  0  0  0  0
    8.5250  -15.7729   23.8934 N   0  0  0  0  0  0  0  0  0  0  0  0
    8.8949  -15.7646   25.2951 C   0  0  1  0  0  0  0  0  0  0  0  0
    7.6504  -15.5587   26.1309 C   0  0  0  0  0  0  0  0  0  0  0  0
    7.2832  -14.1403   26.2496 C   0  0  0  0  0  0  0  0  0  0  0  0
    6.0877  -13.6883   25.7466 C   0  0  0  0  0  0  0  0  0  0  0  0
    5.7164  -12.3443   25.8473 C   0  0  0  0  0  0  0  0  0  0  0  0
    6.5648  -11.4597   26.4613 C   0  0  0  0  0  0  0  0  0  0  0  0
    7.7767  -11.9062   26.9736 C   0  0  0  0  0  0  0  0  0  0  0  0
    8.1384  -13.2546   26.8672 C   0  0  0  0  0  0  0  0  0  0  0  0
    9.4932  -17.0653   25.7033 C   0  0  0  0  0  0  0  0  0  0  0  0
    9.7748  -17.3321   26.9043 O   0  0  0  0  0  0  0  0  0  0  0  0
    9.7591  -18.0398   24.7277 N   0  0  0  0  0  0  0  0  0  0  0  0
   10.3788  -19.2813   25.0768 C   0  0  0  0  0  0  0  0  0  0  0  0
   11.8479  -19.1536   25.1437 C   0  0  0  0  0  0  0  0  0  0  0  0
   12.6963  -19.8891   24.3340 O   0  0  0  0  0  0  0  0  0  0  0  0
   12.3401  -18.3457   25.9682 O   0  0  0  0  0  0  0  0  0  0  0  0
  2  9  1  0
  2  1  1  1
  3  2  1  0
  4  3  1  0
  5  4  2  0
  6  5  1  0
  6  7  1  0
  7  8  2  0
  8  4  1  0
  9 11  1  0
 10  9  2  0
 11 12  1  0
 12 13  1  1
 13 14  1  0
 14 19  1  0
 15 14  2  0
 15 16  1  0
 16 17  2  0
 17 18  1  0
 19 18  2  0
 20 21  2  0
 20 12  1  0
 22 20  1  0
 23 22  1  0
 24 23  1  0
 25 24  1  0
 26 24  2  0
M  END
$$$$
