HFG.pdb
     RDKit          3D

 26 27  0  0  1  0  0  0  0  0999 V2000
   10.1907  -17.6311   20.6357 N   0  0  0  0  0  0  0  0  0  0  0  0
    8.9053  -17.6195   21.3668 C   0  0  1  0  0  0  0  0  0  0  0  0
    8.6188  -18.9971   21.8561 C   0  0  0  0  0  0  0  0  0  0  0  0
    8.1798  -19.8653   20.7522 C   0  0  0  0  0  0  0  0  0  0  0  0
    7.4042  -19.4922   19.6881 C   0  0  0  0  0  0  0  0  0  0  0  0
    7.2336  -20.6156   18.9317 N   0  0  0  0  0  0  0  0  0  0  0  0
    7.8683  -21.6445   19.4894 C   0  0  0  0  0  0  0  0  0  0  0  0
    8.4425  -21.1700   20.6026 N   0  0  0  0  0  0  0  0  0  0  0  0
    8.9834  -16.6647   22.4982 C   0  0  0  0  0  0  0  0  0  0  0  0
   10.0557  -16.3662   23.0729 O   0  0  0  0  0  0  0  0  0  0  0  0
    7.8161  -16.0005   23.0278 N   0  0  0  0  0  0  0  0  0  0  0  0
    7.9037  -15.0734   24.1389 C   0  0  1  0  0  0  0  0  0  0  0  0
    6.7608  -14.0859   24.0468 C   0  0  0  0  0  0  0  0  0  0  0  0
    6.7194  -13.1680   25.1941 C   0  0  0  0  0  0  0  0  0  0  0  0
    5.6799  -13.2233   26.0902 C   0  0  0  0  0  0  0  0  0  0  0  0
    5.6185  -12.3610   27.1888 C   0  0  0  0  0  0  0  0  0  0  0  0
    6.6177  -11.4411   27.3745 C   0  0  0  0  0  0  0  0  0  0  0  0
    7.6740  -11.3765   26.4741 C   0  0  0  0  0  0  0  0  0  0  0  0
    7.7254  -12.2451   25.3772 C   0  0  0  0  0  0  0  0  0  0  0  0
    7.7755  -15.7800   25.4430 C   0  0  0  0  0  0  0  0  0  0  0  0
    7.9160  -15.1881   26.5488 O   0  0  0  0  0  0  0  0  0  0  0  0
    7.4881  -17.1545   25.4587 N   0  0  0  0  0  0  0  0  0  0  0  0
    7.2203  -17.8368   26.6874 C   0  0  0  0  0  0  0  0  0  0  0  0
    8.4663  -18.2763   27.3458 C   0  0  0  0  0  0  0  0  0  0  0  0
    8.7100  -19.6002   27.6690 O   0  0  0  0  0  0  0  0  0  0  0  0
    9.3335  -17.4119   27.6202 O   0  0  0  0  0  0  0  0  0  0  0  0
  2  9  1  0
  2  1  1  1
  3  2  1  0
  4  3  1  0
  5  4  2  0
  6  5  1  0
  6  7  1  0
  7  8  2  0
  8  4  1  0
  9 11  1  0
 10  9  2  0
 11 12  1  0
 12 13  1  6
 13 14  1  0
 14 19  1  0
 15 14  2  0
 15 16  1  0
 16 17  2  0
 17 18  1  0
 19 18  2  0
 20 21  2  0
 20 12  1  0
 22 20  1  0
 23 22  1  0
 24 23  1  0
 25 24  1  0
 26 24  2  0
M  END
$$$$
