HFG.pdb
     RDKit          3D

 26 27  0  0  1  0  0  0  0  0999 V2000
    8.1296  -16.0653   19.6404 N   0  0  0  0  0  0  0  0  0  0  0  0
    9.4143  -15.4226   19.9917 C   0  0  1  0  0  0  0  0  0  0  0  0
    9.6482  -14.2793   19.0657 C   0  0  0  0  0  0  0  0  0  0  0  0
    8.9459  -14.4858   17.7892 C   0  0  0  0  0  0  0  0  0  0  0  0
    8.2243  -15.5925   17.4320 C   0  0  0  0  0  0  0  0  0  0  0  0
    7.7718  -15.3570   16.1659 N   0  0  0  0  0  0  0  0  0  0  0  0
    8.1863  -14.1637   15.7455 C   0  0  0  0  0  0  0  0  0  0  0  0
    8.9035  -13.6426   16.7496 N   0  0  0  0  0  0  0  0  0  0  0  0
    9.3722  -14.9596   21.3994 C   0  0  0  0  0  0  0  0  0  0  0  0
   10.3569  -14.4548   21.9866 O   0  0  0  0  0  0  0  0  0  0  0  0
    8.1797  -15.0570   22.2072 N   0  0  0  0  0  0  0  0  0  0  0  0
    8.1801  -14.7070   23.6140 C   0  0  1  0  0  0  0  0  0  0  0  0
    6.9909  -13.8158   23.8994 C   0  0  0  0  0  0  0  0  0  0  0  0
    6.9801  -13.3219   25.2838 C   0  0  0  0  0  0  0  0  0  0  0  0
    7.7844  -12.2713   25.6523 C   0  0  0  0  0  0  0  0  0  0  0  0
    7.7917  -11.7839   26.9626 C   0  0  0  0  0  0  0  0  0  0  0  0
    6.9781  -12.3681   27.8986 C   0  0  0  0  0  0  0  0  0  0  0  0
    6.1603  -13.4315   27.5366 C   0  0  0  0  0  0  0  0  0  0  0  0
    6.1611  -13.9115   26.2214 C   0  0  0  0  0  0  0  0  0  0  0  0
    8.0440  -15.9164   24.4714 C   0  0  0  0  0  0  0  0  0  0  0  0
    7.1002  -16.7423   24.3297 O   0  0  0  0  0  0  0  0  0  0  0  0
    8.9924  -16.1599   25.4781 N   0  0  0  0  0  0  0  0  0  0  0  0
    8.9288  -17.3439   26.2788 C   0  0  0  0  0  0  0  0  0  0  0  0
   10.2757  -17.8170   26.6544 C   0  0  0  0  0  0  0  0  0  0  0  0
   10.8343  -17.5634   27.8954 O   0  0  0  0  0  0  0  0  0  0  0  0
   10.9343  -18.4736   25.8118 O   0  0  0  0  0  0  0  0  0  0  0  0
  2  9  1  0
  2  1  1  6
  3  2  1  0
  4  3  1  0
  5  4  2  0
  6  5  1  0
  6  7  1  0
  7  8  2  0
  8  4  1  0
  9 11  1  0
 10  9  2  0
 11 12  1  0
 12 13  1  6
 13 14  1  0
 14 19  1  0
 15 14  2  0
 15 16  1  0
 16 17  2  0
 17 18  1  0
 19 18  2  0
 20 21  2  0
 20 12  1  0
 22 20  1  0
 23 22  1  0
 24 23  1  0
 25 24  1  0
 26 24  2  0
M  END
$$$$
