HFG.pdb
     RDKit          3D

 26 27  0  0  1  0  0  0  0  0999 V2000
   10.2655  -14.5908   21.6472 N   0  0  0  0  0  0  0  0  0  0  0  0
    8.8293  -14.7152   21.9768 C   0  0  1  0  0  0  0  0  0  0  0  0
    8.1585  -15.5078   20.9086 C   0  0  0  0  0  0  0  0  0  0  0  0
    8.1128  -14.7536   19.6459 C   0  0  0  0  0  0  0  0  0  0  0  0
    8.7305  -13.5586   19.3939 C   0  0  0  0  0  0  0  0  0  0  0  0
    8.4008  -13.2250   18.1120 N   0  0  0  0  0  0  0  0  0  0  0  0
    7.6157  -14.1606   17.5823 C   0  0  0  0  0  0  0  0  0  0  0  0
    7.4483  -15.0895   18.5327 N   0  0  0  0  0  0  0  0  0  0  0  0
    8.6752  -15.3737   23.2961 C   0  0  0  0  0  0  0  0  0  0  0  0
    9.6197  -15.9333   23.8994 O   0  0  0  0  0  0  0  0  0  0  0  0
    7.4109  -15.4194   23.9914 N   0  0  0  0  0  0  0  0  0  0  0  0
    7.2940  -15.9699   25.3274 C   0  0  1  0  0  0  0  0  0  0  0  0
    6.1661  -15.2678   26.0518 C   0  0  0  0  0  0  0  0  0  0  0  0
    6.4872  -13.8682   26.3658 C   0  0  0  0  0  0  0  0  0  0  0  0
    7.7949  -13.4521   26.4237 C   0  0  0  0  0  0  0  0  0  0  0  0
    8.1252  -12.1265   26.7205 C   0  0  0  0  0  0  0  0  0  0  0  0
    7.1215  -11.2238   26.9585 C   0  0  0  0  0  0  0  0  0  0  0  0
    5.7951  -11.6339   26.9025 C   0  0  0  0  0  0  0  0  0  0  0  0
    5.4758  -12.9641   26.6044 C   0  0  0  0  0  0  0  0  0  0  0  0
    6.9600  -17.4202   25.2864 C   0  0  0  0  0  0  0  0  0  0  0  0
    5.7696  -17.8395   25.2833 O   0  0  0  0  0  0  0  0  0  0  0  0
    7.9965  -18.3670   25.2497 N   0  0  0  0  0  0  0  0  0  0  0  0
    7.7865  -19.7068   25.7058 C   0  0  0  0  0  0  0  0  0  0  0  0
    9.0157  -20.5163   25.5936 C   0  0  0  0  0  0  0  0  0  0  0  0
    9.8721  -20.7207   26.6619 O   0  0  0  0  0  0  0  0  0  0  0  0
    9.2891  -21.0363   24.4847 O   0  0  0  0  0  0  0  0  0  0  0  0
  2  9  1  0
  2  1  1  6
  3  2  1  0
  4  3  1  0
  5  4  2  0
  6  5  1  0
  6  7  1  0
  7  8  2  0
  8  4  1  0
  9 11  1  0
 10  9  2  0
 11 12  1  0
 12 13  1  1
 13 14  1  0
 14 19  1  0
 15 14  2  0
 15 16  1  0
 16 17  2  0
 17 18  1  0
 19 18  2  0
 20 21  2  0
 20 12  1  0
 22 20  1  0
 23 22  1  0
 24 23  1  0
 25 24  1  0
 26 24  2  0
M  END
$$$$
