HFG.pdb
     RDKit          3D

 26 27  0  0  1  0  0  0  0  0999 V2000
    8.8948  -17.5005   19.4639 N   0  0  0  0  0  0  0  0  0  0  0  0
    8.5063  -17.8995   20.8338 C   0  0  1  0  0  0  0  0  0  0  0  0
    9.2802  -19.1131   21.2181 C   0  0  0  0  0  0  0  0  0  0  0  0
    8.6892  -20.3224   20.6236 C   0  0  0  0  0  0  0  0  0  0  0  0
    7.5821  -20.3716   19.8206 C   0  0  0  0  0  0  0  0  0  0  0  0
    7.3896  -21.6895   19.5216 N   0  0  0  0  0  0  0  0  0  0  0  0
    8.3264  -22.4337   20.1057 C   0  0  0  0  0  0  0  0  0  0  0  0
    9.1143  -21.5832   20.7765 N   0  0  0  0  0  0  0  0  0  0  0  0
    8.7748  -16.7847   21.7734 C   0  0  0  0  0  0  0  0  0  0  0  0
    9.7682  -16.0279   21.6760 O   0  0  0  0  0  0  0  0  0  0  0  0
    7.9012  -16.4850   22.8830 N   0  0  0  0  0  0  0  0  0  0  0  0
    8.2024  -15.4270   23.8273 C   0  0  1  0  0  0  0  0  0  0  0  0
    6.9062  -14.8909   24.3951 C   0  0  0  0  0  0  0  0  0  0  0  0
    7.1238  -13.7992   25.3550 C   0  0  0  0  0  0  0  0  0  0  0  0
    7.3459  -14.0756   26.6820 C   0  0  0  0  0  0  0  0  0  0  0  0
    7.5554  -13.0546   27.6137 C   0  0  0  0  0  0  0  0  0  0  0  0
    7.5386  -11.7502   27.1925 C   0  0  0  0  0  0  0  0  0  0  0  0
    7.3149  -11.4593   25.8524 C   0  0  0  0  0  0  0  0  0  0  0  0
    7.1062  -12.4898   24.9278 C   0  0  0  0  0  0  0  0  0  0  0  0
    9.0099  -15.9364   24.9696 C   0  0  0  0  0  0  0  0  0  0  0  0
    8.5099  -16.6420   25.8888 O   0  0  0  0  0  0  0  0  0  0  0  0
   10.3782  -15.6287   25.0399 N   0  0  0  0  0  0  0  0  0  0  0  0
   11.1647  -16.0233   26.1681 C   0  0  0  0  0  0  0  0  0  0  0  0
   12.5668  -15.5819   26.0322 C   0  0  0  0  0  0  0  0  0  0  0  0
   13.5105  -15.7859   27.0243 O   0  0  0  0  0  0  0  0  0  0  0  0
   12.9097  -15.0001   24.9746 O   0  0  0  0  0  0  0  0  0  0  0  0
  2  9  1  0
  2  1  1  6
  3  2  1  0
  4  3  1  0
  5  4  2  0
  6  5  1  0
  6  7  1  0
  7  8  2  0
  8  4  1  0
  9 11  1  0
 10  9  2  0
 11 12  1  0
 12 13  1  1
 13 14  1  0
 14 19  1  0
 15 14  2  0
 15 16  1  0
 16 17  2  0
 17 18  1  0
 19 18  2  0
 20 21  2  0
 20 12  1  0
 22 20  1  0
 23 22  1  0
 24 23  1  0
 25 24  1  0
 26 24  2  0
M  END
$$$$
