HFG.pdb
     RDKit          3D

 26 27  0  0  1  0  0  0  0  0999 V2000
    7.0688  -17.3472   20.9900 N   0  0  0  0  0  0  0  0  0  0  0  0
    7.6471  -16.0103   21.2448 C   0  0  1  0  0  0  0  0  0  0  0  0
    6.7444  -14.9779   20.6628 C   0  0  0  0  0  0  0  0  0  0  0  0
    7.4723  -14.1176   19.7165 C   0  0  0  0  0  0  0  0  0  0  0  0
    8.2136  -13.0117   20.0333 C   0  0  0  0  0  0  0  0  0  0  0  0
    8.6862  -12.5212   18.8503 N   0  0  0  0  0  0  0  0  0  0  0  0
    8.2651  -13.2782   17.8393 C   0  0  0  0  0  0  0  0  0  0  0  0
    7.5235  -14.2510   18.3849 N   0  0  0  0  0  0  0  0  0  0  0  0
    7.8082  -15.8060   22.7042 C   0  0  0  0  0  0  0  0  0  0  0  0
    7.0586  -16.3324   23.5587 O   0  0  0  0  0  0  0  0  0  0  0  0
    8.8529  -14.9760   23.2554 N   0  0  0  0  0  0  0  0  0  0  0  0
    9.1935  -15.0126   24.6641 C   0  0  1  0  0  0  0  0  0  0  0  0
    7.9342  -15.2509   25.4685 C   0  0  0  0  0  0  0  0  0  0  0  0
    7.4229  -14.0194   26.0872 C   0  0  0  0  0  0  0  0  0  0  0  0
    8.2846  -13.0082   26.4357 C   0  0  0  0  0  0  0  0  0  0  0  0
    7.8223  -11.8278   27.0252 C   0  0  0  0  0  0  0  0  0  0  0  0
    6.4801  -11.6779   27.2598 C   0  0  0  0  0  0  0  0  0  0  0  0
    5.5995  -12.6946   26.9112 C   0  0  0  0  0  0  0  0  0  0  0  0
    6.0735  -13.8726   26.3213 C   0  0  0  0  0  0  0  0  0  0  0  0
   10.1298  -16.1305   24.9643 C   0  0  0  0  0  0  0  0  0  0  0  0
   11.1836  -16.3267   24.2980 O   0  0  0  0  0  0  0  0  0  0  0  0
    9.8430  -17.0060   26.0242 N   0  0  0  0  0  0  0  0  0  0  0  0
   10.7688  -18.0278   26.4062 C   0  0  0  0  0  0  0  0  0  0  0  0
   10.3465  -18.7047   27.6482 C   0  0  0  0  0  0  0  0  0  0  0  0
   11.0833  -19.7233   28.2279 O   0  0  0  0  0  0  0  0  0  0  0  0
    9.2778  -18.3381   28.1943 O   0  0  0  0  0  0  0  0  0  0  0  0
  2  9  1  0
  2  1  1  1
  3  2  1  0
  4  3  1  0
  5  4  2  0
  6  5  1  0
  6  7  1  0
  7  8  2  0
  8  4  1  0
  9 11  1  0
 10  9  2  0
 11 12  1  0
 12 13  1  1
 13 14  1  0
 14 19  1  0
 15 14  2  0
 15 16  1  0
 16 17  2  0
 17 18  1  0
 19 18  2  0
 20 21  2  0
 20 12  1  0
 22 20  1  0
 23 22  1  0
 24 23  1  0
 25 24  1  0
 26 24  2  0
M  END
$$$$
