HFG.pdb
     RDKit          3D

 26 27  0  0  1  0  0  0  0  0999 V2000
   10.1004  -16.4620   19.1169 N   0  0  0  0  0  0  0  0  0  0  0  0
    8.8894  -16.6699   19.9396 C   0  0  1  0  0  0  0  0  0  0  0  0
    8.6619  -18.1337   20.0978 C   0  0  0  0  0  0  0  0  0  0  0  0
    8.1477  -18.7225   18.8511 C   0  0  0  0  0  0  0  0  0  0  0  0
    7.8954  -18.0540   17.6839 C   0  0  0  0  0  0  0  0  0  0  0  0
    7.4164  -18.9864   16.8096 N   0  0  0  0  0  0  0  0  0  0  0  0
    7.3687  -20.1815   17.3944 C   0  0  0  0  0  0  0  0  0  0  0  0
    7.8193  -20.0041   18.6433 N   0  0  0  0  0  0  0  0  0  0  0  0
    9.0651  -16.0190   21.2599 C   0  0  0  0  0  0  0  0  0  0  0  0
   10.1812  -15.8672   21.8082 O   0  0  0  0  0  0  0  0  0  0  0  0
    7.9505  -15.5058   22.0204 N   0  0  0  0  0  0  0  0  0  0  0  0
    8.1313  -14.8977   23.3239 C   0  0  1  0  0  0  0  0  0  0  0  0
    6.9675  -13.9708   23.6000 C   0  0  0  0  0  0  0  0  0  0  0  0
    7.0905  -13.2870   24.8953 C   0  0  0  0  0  0  0  0  0  0  0  0
    8.0189  -12.2896   25.0682 C   0  0  0  0  0  0  0  0  0  0  0  0
    8.1548  -11.6247   26.2905 C   0  0  0  0  0  0  0  0  0  0  0  0
    7.3435  -11.9768   27.3378 C   0  0  0  0  0  0  0  0  0  0  0  0
    6.4009  -12.9845   27.1739 C   0  0  0  0  0  0  0  0  0  0  0  0
    6.2735  -13.6437   25.9452 C   0  0  0  0  0  0  0  0  0  0  0  0
    8.1457  -15.9248   24.4016 C   0  0  0  0  0  0  0  0  0  0  0  0
    7.1630  -16.6850   24.6236 O   0  0  0  0  0  0  0  0  0  0  0  0
    9.2870  -16.0640   25.2080 N   0  0  0  0  0  0  0  0  0  0  0  0
    9.4905  -17.2383   25.9996 C   0  0  0  0  0  0  0  0  0  0  0  0
    9.4322  -16.9356   27.4432 C   0  0  0  0  0  0  0  0  0  0  0  0
    8.2380  -16.7317   28.1131 O   0  0  0  0  0  0  0  0  0  0  0  0
   10.5099  -16.8616   28.0817 O   0  0  0  0  0  0  0  0  0  0  0  0
  2  9  1  0
  2  1  1  6
  3  2  1  0
  4  3  1  0
  5  4  2  0
  6  5  1  0
  6  7  1  0
  7  8  2  0
  8  4  1  0
  9 11  1  0
 10  9  2  0
 11 12  1  0
 12 13  1  1
 13 14  1  0
 14 19  1  0
 15 14  2  0
 15 16  1  0
 16 17  2  0
 17 18  1  0
 19 18  2  0
 20 21  2  0
 20 12  1  0
 22 20  1  0
 23 22  1  0
 24 23  1  0
 25 24  1  0
 26 24  2  0
M  END
$$$$
