HFG.pdb
     RDKit          3D

 26 27  0  0  1  0  0  0  0  0999 V2000
   11.3960  -14.6882   19.9374 N   0  0  0  0  0  0  0  0  0  0  0  0
   10.1211  -14.5849   20.6795 C   0  0  1  0  0  0  0  0  0  0  0  0
    9.0903  -15.4008   19.9787 C   0  0  0  0  0  0  0  0  0  0  0  0
    8.4140  -14.6105   18.9378 C   0  0  0  0  0  0  0  0  0  0  0  0
    8.7063  -13.3217   18.5820 C   0  0  0  0  0  0  0  0  0  0  0  0
    7.8215  -12.9912   17.5965 N   0  0  0  0  0  0  0  0  0  0  0  0
    7.0126  -14.0179   17.3434 C   0  0  0  0  0  0  0  0  0  0  0  0
    7.3873  -15.0014   18.1719 N   0  0  0  0  0  0  0  0  0  0  0  0
   10.3131  -15.0611   22.0702 C   0  0  0  0  0  0  0  0  0  0  0  0
   11.1586  -15.9287   22.3890 O   0  0  0  0  0  0  0  0  0  0  0  0
    9.5310  -14.5546   23.1729 N   0  0  0  0  0  0  0  0  0  0  0  0
    9.7972  -14.9494   24.5422 C   0  0  1  0  0  0  0  0  0  0  0  0
    9.1535  -13.9483   25.4767 C   0  0  0  0  0  0  0  0  0  0  0  0
    9.5188  -14.1778   26.8819 C   0  0  0  0  0  0  0  0  0  0  0  0
   10.8345  -14.1321   27.2734 C   0  0  0  0  0  0  0  0  0  0  0  0
   11.2066  -14.3471   28.6037 C   0  0  0  0  0  0  0  0  0  0  0  0
   10.2366  -14.6089   29.5362 C   0  0  0  0  0  0  0  0  0  0  0  0
    8.9024  -14.6575   29.1510 C   0  0  0  0  0  0  0  0  0  0  0  0
    8.5411  -14.4407   27.8158 C   0  0  0  0  0  0  0  0  0  0  0  0
    9.2063  -16.2820   24.8446 C   0  0  0  0  0  0  0  0  0  0  0  0
    7.9909  -16.5463   24.6308 O   0  0  0  0  0  0  0  0  0  0  0  0
   10.0186  -17.2908   25.3874 N   0  0  0  0  0  0  0  0  0  0  0  0
    9.4859  -18.5852   25.6841 C   0  0  0  0  0  0  0  0  0  0  0  0
   10.5211  -19.4852   26.2292 C   0  0  0  0  0  0  0  0  0  0  0  0
   11.8403  -19.0948   26.3835 O   0  0  0  0  0  0  0  0  0  0  0  0
   10.1860  -20.6473   26.5637 O   0  0  0  0  0  0  0  0  0  0  0  0
  2  9  1  0
  2  1  1  6
  3  2  1  0
  4  3  1  0
  5  4  2  0
  6  5  1  0
  6  7  1  0
  7  8  2  0
  8  4  1  0
  9 11  1  0
 10  9  2  0
 11 12  1  0
 12 13  1  1
 13 14  1  0
 14 19  1  0
 15 14  2  0
 15 16  1  0
 16 17  2  0
 17 18  1  0
 19 18  2  0
 20 21  2  0
 20 12  1  0
 22 20  1  0
 23 22  1  0
 24 23  1  0
 25 24  1  0
 26 24  2  0
M  END
$$$$
