HFG.pdb
     RDKit          3D

 26 27  0  0  1  0  0  0  0  0999 V2000
    9.3125  -17.7476   17.9887 N   0  0  0  0  0  0  0  0  0  0  0  0
    9.1715  -18.1559   19.4030 C   0  0  1  0  0  0  0  0  0  0  0  0
    9.9856  -19.3822   19.6321 C   0  0  0  0  0  0  0  0  0  0  0  0
    9.4103  -20.5346   18.9205 C   0  0  0  0  0  0  0  0  0  0  0  0
    8.0782  -20.7953   18.7459 C   0  0  0  0  0  0  0  0  0  0  0  0
    8.0100  -21.9680   18.0505 N   0  0  0  0  0  0  0  0  0  0  0  0
    9.2354  -22.4239   17.7993 C   0  0  0  0  0  0  0  0  0  0  0  0
   10.0817  -21.5362   18.3378 N   0  0  0  0  0  0  0  0  0  0  0  0
    9.6195  -17.0539   20.2876 C   0  0  0  0  0  0  0  0  0  0  0  0
   10.4554  -16.1887   19.9383 O   0  0  0  0  0  0  0  0  0  0  0  0
    9.1200  -16.8940   21.6327 N   0  0  0  0  0  0  0  0  0  0  0  0
    9.5020  -15.7663   22.4597 C   0  0  1  0  0  0  0  0  0  0  0  0
    8.2606  -14.9820   22.8256 C   0  0  0  0  0  0  0  0  0  0  0  0
    7.7544  -14.1784   21.7036 C   0  0  0  0  0  0  0  0  0  0  0  0
    6.7290  -14.6487   20.9200 C   0  0  0  0  0  0  0  0  0  0  0  0
    6.2307  -13.9030   19.8476 C   0  0  0  0  0  0  0  0  0  0  0  0
    6.7779  -12.6764   19.5736 C   0  0  0  0  0  0  0  0  0  0  0  0
    7.8156  -12.1910   20.3599 C   0  0  0  0  0  0  0  0  0  0  0  0
    8.3070  -12.9464   21.4315 C   0  0  0  0  0  0  0  0  0  0  0  0
   10.1321  -16.2176   23.7308 C   0  0  0  0  0  0  0  0  0  0  0  0
    9.4526  -16.5997   24.7233 O   0  0  0  0  0  0  0  0  0  0  0  0
   11.5319  -16.2238   23.8437 N   0  0  0  0  0  0  0  0  0  0  0  0
   12.1730  -16.7083   25.0275 C   0  0  0  0  0  0  0  0  0  0  0  0
   13.6433  -16.6654   24.9037 C   0  0  0  0  0  0  0  0  0  0  0  0
   14.4880  -17.0219   25.9409 O   0  0  0  0  0  0  0  0  0  0  0  0
   14.1400  -16.2905   23.8140 O   0  0  0  0  0  0  0  0  0  0  0  0
  2  9  1  0
  2  1  1  6
  3  2  1  0
  4  3  1  0
  5  4  2  0
  6  5  1  0
  6  7  1  0
  7  8  2  0
  8  4  1  0
  9 11  1  0
 10  9  2  0
 11 12  1  0
 12 13  1  1
 13 14  1  0
 14 19  1  0
 15 14  2  0
 15 16  1  0
 16 17  2  0
 17 18  1  0
 19 18  2  0
 20 21  2  0
 20 12  1  0
 22 20  1  0
 23 22  1  0
 24 23  1  0
 25 24  1  0
 26 24  2  0
M  END
$$$$
