HFG.pdb
     RDKit          3D

 26 27  0  0  1  0  0  0  0  0999 V2000
    9.2332  -13.4352   21.6060 N   0  0  0  0  0  0  0  0  0  0  0  0
    8.5836  -14.7416   21.8473 C   0  0  1  0  0  0  0  0  0  0  0  0
    8.9460  -15.6697   20.7397 C   0  0  0  0  0  0  0  0  0  0  0  0
    8.5658  -15.1040   19.4355 C   0  0  0  0  0  0  0  0  0  0  0  0
    9.2404  -14.1328   18.7467 C   0  0  0  0  0  0  0  0  0  0  0  0
    8.5220  -13.9080   17.6080 N   0  0  0  0  0  0  0  0  0  0  0  0
    7.4495  -14.6963   17.5794 C   0  0  0  0  0  0  0  0  0  0  0  0
    7.4899  -15.4224   18.7043 N   0  0  0  0  0  0  0  0  0  0  0  0
    9.0247  -15.2845   23.1543 C   0  0  0  0  0  0  0  0  0  0  0  0
   10.1928  -15.1630   23.5901 O   0  0  0  0  0  0  0  0  0  0  0  0
    8.1305  -16.0016   24.0321 N   0  0  0  0  0  0  0  0  0  0  0  0
    8.3374  -16.0405   25.4664 C   0  0  1  0  0  0  0  0  0  0  0  0
    7.0703  -15.5876   26.1586 C   0  0  0  0  0  0  0  0  0  0  0  0
    7.0306  -14.1320   26.3590 C   0  0  0  0  0  0  0  0  0  0  0  0
    8.1917  -13.4280   26.5663 C   0  0  0  0  0  0  0  0  0  0  0  0
    8.1795  -12.0434   26.7593 C   0  0  0  0  0  0  0  0  0  0  0  0
    6.9826  -11.3755   26.7410 C   0  0  0  0  0  0  0  0  0  0  0  0
    5.8020  -12.0778   26.5321 C   0  0  0  0  0  0  0  0  0  0  0  0
    5.8259  -13.4645   26.3399 C   0  0  0  0  0  0  0  0  0  0  0  0
    8.6274  -17.4243   25.9328 C   0  0  0  0  0  0  0  0  0  0  0  0
    8.7490  -17.7137   27.1552 O   0  0  0  0  0  0  0  0  0  0  0  0
    8.7733  -18.4547   24.9899 N   0  0  0  0  0  0  0  0  0  0  0  0
   10.0697  -18.9164   24.5984 C   0  0  0  0  0  0  0  0  0  0  0  0
   10.8103  -19.4853   25.7416 C   0  0  0  0  0  0  0  0  0  0  0  0
   10.5820  -20.7669   26.2125 O   0  0  0  0  0  0  0  0  0  0  0  0
   11.6787  -18.7748   26.3036 O   0  0  0  0  0  0  0  0  0  0  0  0
  2  9  1  0
  2  1  1  6
  3  2  1  0
  4  3  1  0
  5  4  2  0
  6  5  1  0
  6  7  1  0
  7  8  2  0
  8  4  1  0
  9 11  1  0
 10  9  2  0
 11 12  1  0
 12 13  1  1
 13 14  1  0
 14 19  1  0
 15 14  2  0
 15 16  1  0
 16 17  2  0
 17 18  1  0
 19 18  2  0
 20 21  2  0
 20 12  1  0
 22 20  1  0
 23 22  1  0
 24 23  1  0
 25 24  1  0
 26 24  2  0
M  END
$$$$
