HFG.pdb
     RDKit          3D

 26 27  0  0  1  0  0  0  0  0999 V2000
   10.0513  -16.5388   19.5958 N   0  0  0  0  0  0  0  0  0  0  0  0
    9.0649  -17.0774   20.5569 C   0  0  1  0  0  0  0  0  0  0  0  0
    9.3538  -18.5213   20.7828 C   0  0  0  0  0  0  0  0  0  0  0  0
    9.1529  -19.2961   19.5480 C   0  0  0  0  0  0  0  0  0  0  0  0
    7.9774  -19.4334   18.8607 C   0  0  0  0  0  0  0  0  0  0  0  0
    8.2522  -20.2470   17.7997 N   0  0  0  0  0  0  0  0  0  0  0  0
    9.5345  -20.6048   17.8163 C   0  0  0  0  0  0  0  0  0  0  0  0
   10.0726  -20.0153   18.8920 N   0  0  0  0  0  0  0  0  0  0  0  0
    9.1425  -16.3199   21.8289 C   0  0  0  0  0  0  0  0  0  0  0  0
   10.1995  -16.1909   22.4886 O   0  0  0  0  0  0  0  0  0  0  0  0
    7.9925  -15.6672   22.4083 N   0  0  0  0  0  0  0  0  0  0  0  0
    8.0679  -14.9750   23.6798 C   0  0  1  0  0  0  0  0  0  0  0  0
    7.0355  -13.8687   23.6995 C   0  0  0  0  0  0  0  0  0  0  0  0
    7.0133  -13.1455   24.9790 C   0  0  0  0  0  0  0  0  0  0  0  0
    5.9999  -13.3612   25.8807 C   0  0  0  0  0  0  0  0  0  0  0  0
    5.9571  -12.6856   27.1038 C   0  0  0  0  0  0  0  0  0  0  0  0
    6.9483  -11.7889   27.4084 C   0  0  0  0  0  0  0  0  0  0  0  0
    7.9782  -11.5631   26.5035 C   0  0  0  0  0  0  0  0  0  0  0  0
    8.0111  -12.2454   25.2813 C   0  0  0  0  0  0  0  0  0  0  0  0
    7.7584  -15.8906   24.8123 C   0  0  0  0  0  0  0  0  0  0  0  0
    6.7173  -16.6034   24.8397 O   0  0  0  0  0  0  0  0  0  0  0  0
    8.6480  -15.9745   25.8956 N   0  0  0  0  0  0  0  0  0  0  0  0
    8.4656  -16.9523   26.9241 C   0  0  0  0  0  0  0  0  0  0  0  0
    9.7480  -17.5650   27.3228 C   0  0  0  0  0  0  0  0  0  0  0  0
   10.7200  -17.9212   26.4036 O   0  0  0  0  0  0  0  0  0  0  0  0
    9.9590  -17.7681   28.5430 O   0  0  0  0  0  0  0  0  0  0  0  0
  2  9  1  0
  2  1  1  6
  3  2  1  0
  4  3  1  0
  5  4  2  0
  6  5  1  0
  6  7  1  0
  7  8  2  0
  8  4  1  0
  9 11  1  0
 10  9  2  0
 11 12  1  0
 12 13  1  6
 13 14  1  0
 14 19  1  0
 15 14  2  0
 15 16  1  0
 16 17  2  0
 17 18  1  0
 19 18  2  0
 20 21  2  0
 20 12  1  0
 22 20  1  0
 23 22  1  0
 24 23  1  0
 25 24  1  0
 26 24  2  0
M  END
$$$$
