HFG.pdb
     RDKit          3D

 26 27  0  0  1  0  0  0  0  0999 V2000
    5.4915  -19.8993   22.0452 N   0  0  0  0  0  0  0  0  0  0  0  0
    5.8312  -19.6775   23.4673 C   0  0  1  0  0  0  0  0  0  0  0  0
    6.6787  -20.8077   23.9403 C   0  0  0  0  0  0  0  0  0  0  0  0
    5.8874  -22.0424   24.0608 C   0  0  0  0  0  0  0  0  0  0  0  0
    4.9473  -22.3112   25.0182 C   0  0  0  0  0  0  0  0  0  0  0  0
    4.4874  -23.5691   24.7546 N   0  0  0  0  0  0  0  0  0  0  0  0
    5.1052  -24.0685   23.6862 C   0  0  0  0  0  0  0  0  0  0  0  0
    5.9589  -23.1228   23.2727 N   0  0  0  0  0  0  0  0  0  0  0  0
    6.5452  -18.3867   23.6144 C   0  0  0  0  0  0  0  0  0  0  0  0
    7.4261  -17.9936   22.8152 O   0  0  0  0  0  0  0  0  0  0  0  0
    6.2753  -17.4765   24.7019 N   0  0  0  0  0  0  0  0  0  0  0  0
    7.0003  -16.2301   24.8519 C   0  0  1  0  0  0  0  0  0  0  0  0
    6.2356  -15.3266   25.7946 C   0  0  0  0  0  0  0  0  0  0  0  0
    6.8534  -13.9990   25.9231 C   0  0  0  0  0  0  0  0  0  0  0  0
    7.5902  -13.6812   27.0379 C   0  0  0  0  0  0  0  0  0  0  0  0
    8.1873  -12.4255   27.1829 C   0  0  0  0  0  0  0  0  0  0  0  0
    8.0333  -11.4924   26.1905 C   0  0  0  0  0  0  0  0  0  0  0  0
    7.2901  -11.8034   25.0585 C   0  0  0  0  0  0  0  0  0  0  0  0
    6.6965  -13.0642   24.9237 C   0  0  0  0  0  0  0  0  0  0  0  0
    8.3456  -16.4564   25.4481 C   0  0  0  0  0  0  0  0  0  0  0  0
    8.4996  -16.9189   26.6122 O   0  0  0  0  0  0  0  0  0  0  0  0
    9.4935  -16.1488   24.6997 N   0  0  0  0  0  0  0  0  0  0  0  0
   10.7988  -16.2567   25.2757 C   0  0  0  0  0  0  0  0  0  0  0  0
   11.8540  -15.9704   24.2840 C   0  0  0  0  0  0  0  0  0  0  0  0
   13.1869  -15.8370   24.6332 O   0  0  0  0  0  0  0  0  0  0  0  0
   11.5235  -15.8443   23.0800 O   0  0  0  0  0  0  0  0  0  0  0  0
  2  9  1  0
  2  1  1  6
  3  2  1  0
  4  3  1  0
  5  4  2  0
  6  5  1  0
  6  7  1  0
  7  8  2  0
  8  4  1  0
  9 11  1  0
 10  9  2  0
 11 12  1  0
 12 13  1  1
 13 14  1  0
 14 19  1  0
 15 14  2  0
 15 16  1  0
 16 17  2  0
 17 18  1  0
 19 18  2  0
 20 21  2  0
 20 12  1  0
 22 20  1  0
 23 22  1  0
 24 23  1  0
 25 24  1  0
 26 24  2  0
M  END
$$$$
