AGA.pdb
     RDKit          3D

 15 14  0  0  1  0  0  0  0  0999 V2000
    5.9146  -18.6446   21.1748 C   0  0  0  0  0  0  0  0  0  0  0  0
    7.2586  -18.0484   21.5963 C   0  0  2  0  0  0  0  0  0  0  0  0
    7.5026  -18.2916   22.9787 N   0  0  0  0  0  0  0  0  0  0  0  0
    7.1500  -16.5877   21.3694 C   0  0  0  0  0  0  0  0  0  0  0  0
    7.0484  -16.1023   20.1981 O   0  0  0  0  0  0  0  0  0  0  0  0
    7.1625  -15.7359   22.5084 N   0  0  0  0  0  0  0  0  0  0  0  0
    7.1604  -14.3005   22.3225 C   0  0  0  0  0  0  0  0  0  0  0  0
    7.7223  -13.6742   23.5617 C   0  0  0  0  0  0  0  0  0  0  0  0
    8.9580  -13.4316   23.6881 O   0  0  0  0  0  0  0  0  0  0  0  0
    6.3105  -12.2217   26.6948 C   0  0  0  0  0  0  0  0  0  0  0  0
    7.4791  -12.8114   25.8939 C   0  0  2  0  0  0  0  0  0  0  0  0
    6.9026  -13.3167   24.6651 N   0  0  0  0  0  0  0  0  0  0  0  0
    8.1068  -13.8813   26.6890 C   0  0  0  0  0  0  0  0  0  0  0  0
    7.9012  -15.0709   26.3717 O   0  0  0  0  0  0  0  0  0  0  0  0
    8.9094  -13.5975   27.7666 O   0  0  0  0  0  0  0  0  0  0  0  0
  2  1  1  1
  2  3  1  0
  4  2  1  0
  5  4  2  0
  6  4  1  0
  7  6  1  0
  8  7  1  0
  9  8  2  0
 11 10  1  1
 11 13  1  0
 11 12  1  0
 12  8  1  0
 13 15  1  0
 14 13  2  0
M  END
$$$$
