AGA.pdb
     RDKit          3D

 15 14  0  0  1  0  0  0  0  0999 V2000
   -2.9161  -27.7374   27.2262 C   0  0  0  0  0  0  0  0  0  0  0  0
   -3.1265  -26.7290   28.3568 C   0  0  2  0  0  0  0  0  0  0  0  0
   -3.0968  -27.3825   29.6223 N   0  0  0  0  0  0  0  0  0  0  0  0
   -4.4712  -26.1438   28.1410 C   0  0  0  0  0  0  0  0  0  0  0  0
   -4.6804  -25.2726   27.2381 O   0  0  0  0  0  0  0  0  0  0  0  0
   -5.5309  -26.5876   28.9793 N   0  0  0  0  0  0  0  0  0  0  0  0
   -6.8605  -26.0478   28.7902 C   0  0  0  0  0  0  0  0  0  0  0  0
   -7.0062  -24.8560   29.6857 C   0  0  0  0  0  0  0  0  0  0  0  0
   -6.5510  -24.8462   30.8666 O   0  0  0  0  0  0  0  0  0  0  0  0
   -8.0039  -21.3136   29.2242 C   0  0  0  0  0  0  0  0  0  0  0  0
   -7.7779  -22.5236   30.1406 C   0  0  2  0  0  0  0  0  0  0  0  0
   -7.6626  -23.6697   29.2627 N   0  0  0  0  0  0  0  0  0  0  0  0
   -8.9248  -22.6448   31.0575 C   0  0  0  0  0  0  0  0  0  0  0  0
   -9.0489  -21.8174   31.9838 O   0  0  0  0  0  0  0  0  0  0  0  0
   -9.8552  -23.6447   30.9142 O   0  0  0  0  0  0  0  0  0  0  0  0
  2  1  1  6
  2  3  1  0
  4  2  1  0
  5  4  2  0
  6  4  1  0
  7  6  1  0
  8  7  1  0
  9  8  2  0
 11 10  1  6
 11 13  1  0
 11 12  1  0
 12  8  1  0
 13 15  1  0
 14 13  2  0
M  END
$$$$
