AGA.pdb
     RDKit          3D

 15 14  0  0  1  0  0  0  0  0999 V2000
    5.3502  -20.5314   20.0745 C   0  0  0  0  0  0  0  0  0  0  0  0
    6.2951  -19.9524   21.1287 C   0  0  2  0  0  0  0  0  0  0  0  0
    5.5917  -19.0751   22.0035 N   0  0  0  0  0  0  0  0  0  0  0  0
    7.3191  -19.1816   20.3843 C   0  0  0  0  0  0  0  0  0  0  0  0
    8.1706  -19.7574   19.6351 O   0  0  0  0  0  0  0  0  0  0  0  0
    7.3234  -17.7671   20.5323 N   0  0  0  0  0  0  0  0  0  0  0  0
    8.3224  -16.9827   19.8383 C   0  0  0  0  0  0  0  0  0  0  0  0
    9.1360  -16.2583   20.8663 C   0  0  0  0  0  0  0  0  0  0  0  0
   10.1650  -15.5898   20.5564 O   0  0  0  0  0  0  0  0  0  0  0  0
    8.6643  -14.9084   24.1882 C   0  0  0  0  0  0  0  0  0  0  0  0
    9.6316  -15.6153   23.2293 C   0  0  2  0  0  0  0  0  0  0  0  0
    8.8007  -16.2793   22.2463 N   0  0  0  0  0  0  0  0  0  0  0  0
   10.4472  -16.5717   23.9980 C   0  0  0  0  0  0  0  0  0  0  0  0
   10.1564  -17.7848   23.9569 O   0  0  0  0  0  0  0  0  0  0  0  0
   11.5154  -16.1572   24.7550 O   0  0  0  0  0  0  0  0  0  0  0  0
  2  1  1  6
  2  3  1  0
  4  2  1  0
  5  4  2  0
  6  4  1  0
  7  6  1  0
  8  7  1  0
  9  8  2  0
 11 10  1  1
 11 13  1  0
 11 12  1  0
 12  8  1  0
 13 15  1  0
 14 13  2  0
M  END
$$$$
