AGA.pdb
     RDKit          3D

 15 14  0  0  1  0  0  0  0  0999 V2000
    7.8168  -17.9258   20.0796 C   0  0  0  0  0  0  0  0  0  0  0  0
    8.0074  -17.5874   21.5591 C   0  0  2  0  0  0  0  0  0  0  0  0
    6.8986  -18.0492   22.3251 N   0  0  0  0  0  0  0  0  0  0  0  0
    8.0730  -16.1087   21.6377 C   0  0  0  0  0  0  0  0  0  0  0  0
    9.0448  -15.4585   21.1369 O   0  0  0  0  0  0  0  0  0  0  0  0
    7.0094  -15.4307   22.2948 N   0  0  0  0  0  0  0  0  0  0  0  0
    7.0200  -13.9847   22.3585 C   0  0  0  0  0  0  0  0  0  0  0  0
    7.6463  -13.5850   23.6592 C   0  0  0  0  0  0  0  0  0  0  0  0
    8.9008  -13.5854   23.8264 O   0  0  0  0  0  0  0  0  0  0  0  0
    6.3867  -12.0229   26.8009 C   0  0  0  0  0  0  0  0  0  0  0  0
    7.4983  -12.7064   25.9935 C   0  0  2  0  0  0  0  0  0  0  0  0
    6.8701  -13.1830   24.7786 N   0  0  0  0  0  0  0  0  0  0  0  0
    8.0566  -13.8097   26.7947 C   0  0  0  0  0  0  0  0  0  0  0  0
    7.6906  -14.9783   26.5531 O   0  0  0  0  0  0  0  0  0  0  0  0
    8.9668  -13.5792   27.7969 O   0  0  0  0  0  0  0  0  0  0  0  0
  2  1  1  6
  2  3  1  0
  4  2  1  0
  5  4  2  0
  6  4  1  0
  7  6  1  0
  8  7  1  0
  9  8  2  0
 11 10  1  1
 11 13  1  0
 11 12  1  0
 12  8  1  0
 13 15  1  0
 14 13  2  0
M  END
$$$$
