AGA.pdb
     RDKit          3D

 15 14  0  0  1  0  0  0  0  0999 V2000
    5.7097  -18.6150   22.9437 C   0  0  0  0  0  0  0  0  0  0  0  0
    7.2254  -18.8151   22.9890 C   0  0  2  0  0  0  0  0  0  0  0  0
    7.6256  -19.3221   24.2588 N   0  0  0  0  0  0  0  0  0  0  0  0
    7.8236  -17.4738   22.7883 C   0  0  0  0  0  0  0  0  0  0  0  0
    7.6628  -16.8294   21.7035 O   0  0  0  0  0  0  0  0  0  0  0  0
    8.5895  -16.9223   23.8522 N   0  0  0  0  0  0  0  0  0  0  0  0
    9.1495  -15.5950   23.7112 C   0  0  0  0  0  0  0  0  0  0  0  0
    9.8294  -15.2422   24.9984 C   0  0  0  0  0  0  0  0  0  0  0  0
   11.0755  -15.3927   25.1606 O   0  0  0  0  0  0  0  0  0  0  0  0
    8.8860  -13.3592   28.0507 C   0  0  0  0  0  0  0  0  0  0  0  0
    9.7980  -14.3671   27.3385 C   0  0  2  0  0  0  0  0  0  0  0  0
    9.1166  -14.7193   26.1100 N   0  0  0  0  0  0  0  0  0  0  0  0
    9.9908  -15.5347   28.2161 C   0  0  0  0  0  0  0  0  0  0  0  0
    9.4525  -16.6181   27.9086 O   0  0  0  0  0  0  0  0  0  0  0  0
   10.7471  -15.4555   29.3597 O   0  0  0  0  0  0  0  0  0  0  0  0
  2  1  1  1
  2  3  1  0
  4  2  1  0
  5  4  2  0
  6  4  1  0
  7  6  1  0
  8  7  1  0
  9  8  2  0
 11 10  1  1
 11 13  1  0
 11 12  1  0
 12  8  1  0
 13 15  1  0
 14 13  2  0
M  END
$$$$
