AGA.pdb
     RDKit          3D

 15 14  0  0  1  0  0  0  0  0999 V2000
    7.7186  -20.6812   22.9535 C   0  0  0  0  0  0  0  0  0  0  0  0
    7.7925  -19.2370   22.4550 C   0  0  2  0  0  0  0  0  0  0  0  0
    9.1016  -18.7082   22.6452 N   0  0  0  0  0  0  0  0  0  0  0  0
    6.8307  -18.4675   23.2795 C   0  0  0  0  0  0  0  0  0  0  0  0
    5.5779  -18.6759   23.2083 O   0  0  0  0  0  0  0  0  0  0  0  0
    7.3522  -17.4804   24.1607 N   0  0  0  0  0  0  0  0  0  0  0  0
    6.4401  -16.6552   24.9235 C   0  0  0  0  0  0  0  0  0  0  0  0
    7.1214  -15.3507   25.2022 C   0  0  0  0  0  0  0  0  0  0  0  0
    8.3387  -15.1564   24.9153 O   0  0  0  0  0  0  0  0  0  0  0  0
    6.0479  -12.0300   26.5456 C   0  0  0  0  0  0  0  0  0  0  0  0
    7.1337  -13.0220   26.1076 C   0  0  2  0  0  0  0  0  0  0  0  0
    6.4424  -14.2578   25.8036 N   0  0  0  0  0  0  0  0  0  0  0  0
    8.0981  -13.1866   27.2093 C   0  0  0  0  0  0  0  0  0  0  0  0
    7.9943  -14.1776   27.9611 O   0  0  0  0  0  0  0  0  0  0  0  0
    9.1035  -12.2763   27.4246 O   0  0  0  0  0  0  0  0  0  0  0  0
  2  1  1  1
  2  3  1  0
  4  2  1  0
  5  4  2  0
  6  4  1  0
  7  6  1  0
  8  7  1  0
  9  8  2  0
 11 10  1  1
 11 13  1  0
 11 12  1  0
 12  8  1  0
 13 15  1  0
 14 13  2  0
M  END
$$$$
