AGA.pdb
     RDKit          3D

 15 14  0  0  1  0  0  0  0  0999 V2000
    8.3045  -12.5469   20.4803 C   0  0  0  0  0  0  0  0  0  0  0  0
    8.1211  -14.0654   20.4657 C   0  0  2  0  0  0  0  0  0  0  0  0
    7.1313  -14.4409   19.5124 N   0  0  0  0  0  0  0  0  0  0  0  0
    7.6568  -14.4367   21.8234 C   0  0  0  0  0  0  0  0  0  0  0  0
    6.4303  -14.3592   22.1514 O   0  0  0  0  0  0  0  0  0  0  0  0
    8.6299  -14.8864   22.7582 N   0  0  0  0  0  0  0  0  0  0  0  0
    8.1984  -15.4144   24.0349 C   0  0  0  0  0  0  0  0  0  0  0  0
    9.2204  -15.0325   25.0612 C   0  0  0  0  0  0  0  0  0  0  0  0
   10.4602  -15.0402   24.8067 O   0  0  0  0  0  0  0  0  0  0  0  0
    9.2143  -13.3876   28.3707 C   0  0  0  0  0  0  0  0  0  0  0  0
    9.8659  -14.3612   27.3796 C   0  0  2  0  0  0  0  0  0  0  0  0
    8.8585  -14.6401   26.3773 N   0  0  0  0  0  0  0  0  0  0  0  0
   10.2717  -15.5769   28.1064 C   0  0  0  0  0  0  0  0  0  0  0  0
    9.5801  -16.6096   27.9915 O   0  0  0  0  0  0  0  0  0  0  0  0
   11.3898  -15.5965   28.9036 O   0  0  0  0  0  0  0  0  0  0  0  0
  2  1  1  1
  2  3  1  0
  4  2  1  0
  5  4  2  0
  6  4  1  0
  7  6  1  0
  8  7  1  0
  9  8  2  0
 11 10  1  1
 11 13  1  0
 11 12  1  0
 12  8  1  0
 13 15  1  0
 14 13  2  0
M  END
$$$$
