AGA.pdb
     RDKit          3D

 15 14  0  0  1  0  0  0  0  0999 V2000
    9.0849  -16.8638   19.3824 C   0  0  0  0  0  0  0  0  0  0  0  0
    9.5277  -16.5524   20.8130 C   0  0  2  0  0  0  0  0  0  0  0  0
    9.4087  -17.7087   21.6367 N   0  0  0  0  0  0  0  0  0  0  0  0
    8.6067  -15.5025   21.3094 C   0  0  0  0  0  0  0  0  0  0  0  0
    8.5684  -14.3467   20.7798 O   0  0  0  0  0  0  0  0  0  0  0  0
    7.7591  -15.8263   22.4046 N   0  0  0  0  0  0  0  0  0  0  0  0
    6.8127  -14.8427   22.8861 C   0  0  0  0  0  0  0  0  0  0  0  0
    7.4515  -14.1059   24.0230 C   0  0  0  0  0  0  0  0  0  0  0  0
    8.6929  -14.1828   24.2575 O   0  0  0  0  0  0  0  0  0  0  0  0
    6.2485  -11.7039   26.6290 C   0  0  0  0  0  0  0  0  0  0  0  0
    7.3439  -12.5668   25.9883 C   0  0  2  0  0  0  0  0  0  0  0  0
    6.7029  -13.2796   24.9027 N   0  0  0  0  0  0  0  0  0  0  0  0
    7.8823  -13.4840   27.0079 C   0  0  0  0  0  0  0  0  0  0  0  0
    7.4805  -14.6655   27.0314 O   0  0  0  0  0  0  0  0  0  0  0  0
    8.8124  -13.0672   27.9283 O   0  0  0  0  0  0  0  0  0  0  0  0
  2  1  1  6
  2  3  1  0
  4  2  1  0
  5  4  2  0
  6  4  1  0
  7  6  1  0
  8  7  1  0
  9  8  2  0
 11 10  1  1
 11 13  1  0
 11 12  1  0
 12  8  1  0
 13 15  1  0
 14 13  2  0
M  END
$$$$
