AGA.pdb
     RDKit          3D

 15 14  0  0  1  0  0  0  0  0999 V2000
    7.5418  -12.5468   19.1182 C   0  0  0  0  0  0  0  0  0  0  0  0
    8.0618  -13.9227   19.5377 C   0  0  2  0  0  0  0  0  0  0  0  0
    7.0313  -14.9007   19.4325 N   0  0  0  0  0  0  0  0  0  0  0  0
    8.4688  -13.7933   20.9571 C   0  0  0  0  0  0  0  0  0  0  0  0
    9.5373  -13.1889   21.2902 O   0  0  0  0  0  0  0  0  0  0  0  0
    7.6236  -14.3690   21.9455 N   0  0  0  0  0  0  0  0  0  0  0  0
    7.8754  -14.0937   23.3440 C   0  0  0  0  0  0  0  0  0  0  0  0
    8.7523  -15.1842   23.8782 C   0  0  0  0  0  0  0  0  0  0  0  0
    8.6434  -15.6102   25.0649 O   0  0  0  0  0  0  0  0  0  0  0  0
   10.2447  -18.1027   22.7120 C   0  0  0  0  0  0  0  0  0  0  0  0
   10.5541  -16.8935   23.6048 C   0  0  2  0  0  0  0  0  0  0  0  0
    9.7555  -15.8026   23.0854 N   0  0  0  0  0  0  0  0  0  0  0  0
   11.9970  -16.6050   23.5292 C   0  0  0  0  0  0  0  0  0  0  0  0
   12.4031  -15.7636   22.7016 O   0  0  0  0  0  0  0  0  0  0  0  0
   12.8992  -17.2401   24.3469 O   0  0  0  0  0  0  0  0  0  0  0  0
  2  1  1  1
  2  3  1  0
  4  2  1  0
  5  4  2  0
  6  4  1  0
  7  6  1  0
  8  7  1  0
  9  8  2  0
 11 10  1  6
 11 13  1  0
 11 12  1  0
 12  8  1  0
 13 15  1  0
 14 13  2  0
M  END
$$$$
