AGA.pdb
     RDKit          3D

 15 14  0  0  1  0  0  0  0  0999 V2000
    8.1736  -12.5510   19.9030 C   0  0  0  0  0  0  0  0  0  0  0  0
    8.4551  -14.0393   20.1161 C   0  0  2  0  0  0  0  0  0  0  0  0
    7.8838  -14.8123   19.0647 N   0  0  0  0  0  0  0  0  0  0  0  0
    7.8044  -14.4017   21.3976 C   0  0  0  0  0  0  0  0  0  0  0  0
    6.5803  -14.7436   21.4486 O   0  0  0  0  0  0  0  0  0  0  0  0
    8.5941  -14.3561   22.5796 N   0  0  0  0  0  0  0  0  0  0  0  0
    8.0292  -14.8171   23.8300 C   0  0  0  0  0  0  0  0  0  0  0  0
    9.0808  -14.6833   24.8882 C   0  0  0  0  0  0  0  0  0  0  0  0
   10.3156  -14.7000   24.6110 O   0  0  0  0  0  0  0  0  0  0  0  0
    9.1968  -13.4104   28.3160 C   0  0  0  0  0  0  0  0  0  0  0  0
    9.7867  -14.3578   27.2628 C   0  0  2  0  0  0  0  0  0  0  0  0
    8.7542  -14.5301   26.2619 N   0  0  0  0  0  0  0  0  0  0  0  0
   10.1403  -15.6308   27.9149 C   0  0  0  0  0  0  0  0  0  0  0  0
    9.3860  -16.6147   27.7699 O   0  0  0  0  0  0  0  0  0  0  0  0
   11.2771  -15.7559   28.6750 O   0  0  0  0  0  0  0  0  0  0  0  0
  2  1  1  6
  2  3  1  0
  4  2  1  0
  5  4  2  0
  6  4  1  0
  7  6  1  0
  8  7  1  0
  9  8  2  0
 11 10  1  1
 11 13  1  0
 11 12  1  0
 12  8  1  0
 13 15  1  0
 14 13  2  0
M  END
$$$$
