AGA.pdb
     RDKit          3D

 15 14  0  0  1  0  0  0  0  0999 V2000
    7.4330  -12.9150   19.6418 C   0  0  0  0  0  0  0  0  0  0  0  0
    8.5688  -13.6483   20.3572 C   0  0  2  0  0  0  0  0  0  0  0  0
    8.7084  -14.9719   19.8490 N   0  0  0  0  0  0  0  0  0  0  0  0
    8.1812  -13.7125   21.7863 C   0  0  0  0  0  0  0  0  0  0  0  0
    8.0373  -12.6591   22.4845 O   0  0  0  0  0  0  0  0  0  0  0  0
    7.9725  -14.9968   22.3608 N   0  0  0  0  0  0  0  0  0  0  0  0
    7.4606  -15.0968   23.7110 C   0  0  0  0  0  0  0  0  0  0  0  0
    8.5876  -14.8074   24.6542 C   0  0  0  0  0  0  0  0  0  0  0  0
    9.7978  -14.8583   24.2871 O   0  0  0  0  0  0  0  0  0  0  0  0
    8.9102  -13.1293   27.9108 C   0  0  0  0  0  0  0  0  0  0  0  0
    9.4670  -14.1348   26.8941 C   0  0  2  0  0  0  0  0  0  0  0  0
    8.3644  -14.4595   26.0130 N   0  0  0  0  0  0  0  0  0  0  0  0
    9.9601  -15.3188   27.6193 C   0  0  0  0  0  0  0  0  0  0  0  0
    9.3090  -16.3818   27.5556 O   0  0  0  0  0  0  0  0  0  0  0  0
   11.1156  -15.2764   28.3601 O   0  0  0  0  0  0  0  0  0  0  0  0
  2  1  1  6
  2  3  1  0
  4  2  1  0
  5  4  2  0
  6  4  1  0
  7  6  1  0
  8  7  1  0
  9  8  2  0
 11 10  1  1
 11 13  1  0
 11 12  1  0
 12  8  1  0
 13 15  1  0
 14 13  2  0
M  END
$$$$
