AGA.pdb
     RDKit          3D

 15 14  0  0  1  0  0  0  0  0999 V2000
    8.0093  -13.0865   18.6074 C   0  0  0  0  0  0  0  0  0  0  0  0
    8.7399  -13.6941   19.8060 C   0  0  2  0  0  0  0  0  0  0  0  0
    8.9340  -15.0928   19.6173 N   0  0  0  0  0  0  0  0  0  0  0  0
    7.8588  -13.4773   20.9780 C   0  0  0  0  0  0  0  0  0  0  0  0
    7.5349  -12.3079   21.3593 O   0  0  0  0  0  0  0  0  0  0  0  0
    7.3811  -14.6238   21.6709 N   0  0  0  0  0  0  0  0  0  0  0  0
    6.5069  -14.4520   22.8116 C   0  0  0  0  0  0  0  0  0  0  0  0
    7.3346  -13.9534   23.9561 C   0  0  0  0  0  0  0  0  0  0  0  0
    8.5978  -13.9017   23.8963 O   0  0  0  0  0  0  0  0  0  0  0  0
    6.6072  -12.1662   27.1329 C   0  0  0  0  0  0  0  0  0  0  0  0
    7.5656  -12.9644   26.2389 C   0  0  2  0  0  0  0  0  0  0  0  0
    6.7513  -13.5104   25.1729 N   0  0  0  0  0  0  0  0  0  0  0  0
    8.1977  -14.0220   27.0467 C   0  0  0  0  0  0  0  0  0  0  0  0
    9.0177  -13.6995   27.9307 O   0  0  0  0  0  0  0  0  0  0  0  0
    7.9041  -15.3488   26.8476 O   0  0  0  0  0  0  0  0  0  0  0  0
  2  1  1  6
  2  3  1  0
  4  2  1  0
  5  4  2  0
  6  4  1  0
  7  6  1  0
  8  7  1  0
  9  8  2  0
 11 10  1  1
 11 13  1  0
 11 12  1  0
 12  8  1  0
 13 15  1  0
 14 13  2  0
M  END
$$$$
