AGA.pdb
     RDKit          3D

 15 14  0  0  1  0  0  0  0  0999 V2000
    8.1092  -12.3384   19.6922 C   0  0  0  0  0  0  0  0  0  0  0  0
    8.5321  -13.4422   18.7214 C   0  0  2  0  0  0  0  0  0  0  0  0
    7.5004  -13.6963   17.7724 N   0  0  0  0  0  0  0  0  0  0  0  0
    8.7465  -14.6552   19.5459 C   0  0  0  0  0  0  0  0  0  0  0  0
    7.8449  -15.5440   19.6684 O   0  0  0  0  0  0  0  0  0  0  0  0
   10.0000  -14.7990   20.2022 N   0  0  0  0  0  0  0  0  0  0  0  0
   10.3201  -16.0495   20.8570 C   0  0  0  0  0  0  0  0  0  0  0  0
   10.4878  -15.7744   22.3198 C   0  0  0  0  0  0  0  0  0  0  0  0
   11.6118  -15.4795   22.8211 O   0  0  0  0  0  0  0  0  0  0  0  0
    8.1904  -15.5431   25.2606 C   0  0  0  0  0  0  0  0  0  0  0  0
    9.5951  -15.6313   24.6491 C   0  0  2  0  0  0  0  0  0  0  0  0
    9.3971  -15.8285   23.2280 N   0  0  0  0  0  0  0  0  0  0  0  0
   10.3116  -16.7604   25.2677 C   0  0  0  0  0  0  0  0  0  0  0  0
   10.6618  -16.6729   26.4625 O   0  0  0  0  0  0  0  0  0  0  0  0
   10.6002  -17.9011   24.5597 O   0  0  0  0  0  0  0  0  0  0  0  0
  2  1  1  1
  2  3  1  0
  4  2  1  0
  5  4  2  0
  6  4  1  0
  7  6  1  0
  8  7  1  0
  9  8  2  0
 11 10  1  1
 11 13  1  0
 11 12  1  0
 12  8  1  0
 13 15  1  0
 14 13  2  0
M  END
$$$$
