AGA.pdb
     RDKit          3D

 15 14  0  0  1  0  0  0  0  0999 V2000
   -3.0927  -28.2951   26.5657 C   0  0  0  0  0  0  0  0  0  0  0  0
   -4.5236  -27.7617   26.6519 C   0  0  2  0  0  0  0  0  0  0  0  0
   -4.9895  -27.3682   25.3643 N   0  0  0  0  0  0  0  0  0  0  0  0
   -4.4669  -26.5726   27.5349 C   0  0  0  0  0  0  0  0  0  0  0  0
   -4.1739  -26.6736   28.7686 O   0  0  0  0  0  0  0  0  0  0  0  0
   -4.7517  -25.3036   26.9593 N   0  0  0  0  0  0  0  0  0  0  0  0
   -4.6399  -24.1124   27.7737 C   0  0  0  0  0  0  0  0  0  0  0  0
   -5.9654  -23.8762   28.4300 C   0  0  0  0  0  0  0  0  0  0  0  0
   -7.0556  -23.9891   27.7970 O   0  0  0  0  0  0  0  0  0  0  0  0
   -7.1665  -23.5725   31.9142 C   0  0  0  0  0  0  0  0  0  0  0  0
   -7.3696  -23.3065   30.4166 C   0  0  2  0  0  0  0  0  0  0  0  0
   -6.0761  -23.5125   29.7984 N   0  0  0  0  0  0  0  0  0  0  0  0
   -7.8505  -21.9249   30.2413 C   0  0  0  0  0  0  0  0  0  0  0  0
   -7.0269  -21.0276   29.9683 O   0  0  0  0  0  0  0  0  0  0  0  0
   -9.1800  -21.6063   30.3715 O   0  0  0  0  0  0  0  0  0  0  0  0
  2  1  1  6
  2  3  1  0
  4  2  1  0
  5  4  2  0
  6  4  1  0
  7  6  1  0
  8  7  1  0
  9  8  2  0
 11 10  1  1
 11 13  1  0
 11 12  1  0
 12  8  1  0
 13 15  1  0
 14 13  2  0
M  END
$$$$
