VIM.pdb
     RDKit          3D

 24 23  0  0  1  0  0  0  0  0999 V2000
   21.4245  -19.8707  -14.1161 C   0  0  0  0  0  0  0  0  0  0  0  0
   22.0554  -18.8433  -15.0317 C   0  0  2  0  0  0  0  0  0  0  0  0
   21.0003  -18.1316  -15.8400 C   0  0  0  0  0  0  0  0  0  0  0  0
   23.0535  -19.5760  -15.9088 C   0  0  2  0  0  0  0  0  0  0  0  0
   22.3646  -20.5185  -16.7629 N   0  0  0  0  0  0  0  0  0  0  0  0
   24.1325  -20.2057  -15.1229 C   0  0  0  0  0  0  0  0  0  0  0  0
   24.0772  -21.4489  -14.9510 O   0  0  0  0  0  0  0  0  0  0  0  0
   29.2230  -18.8828  -15.9144 C   0  0  0  0  0  0  0  0  0  0  0  0
   27.9345  -19.6343  -15.6569 C   0  0  0  0  0  0  0  0  0  0  0  0
   27.6456  -19.5762  -14.1820 C   0  0  2  0  0  0  0  0  0  0  0  0
   28.7623  -20.2853  -13.4475 C   0  0  0  0  0  0  0  0  0  0  0  0
   26.3029  -20.1891  -13.8381 C   0  0  2  0  0  0  0  0  0  0  0  0
   25.2274  -19.5052  -14.5486 N   0  0  0  0  0  0  0  0  0  0  0  0
   26.0260  -20.1446  -12.3920 C   0  0  0  0  0  0  0  0  0  0  0  0
   25.8845  -19.0468  -11.8175 O   0  0  0  0  0  0  0  0  0  0  0  0
   29.1119  -20.1125   -7.0738 C   0  0  0  0  0  0  0  0  0  0  0  0
   27.5547  -19.2364   -7.2746 S   0  0  0  0  0  0  0  0  0  0  0  0
   26.2733  -20.2667   -8.0512 C   0  0  0  0  0  0  0  0  0  0  0  0
   26.5495  -20.4756   -9.5033 C   0  0  0  0  0  0  0  0  0  0  0  0
   25.5697  -21.3445  -10.2219 C   0  0  2  0  0  0  0  0  0  0  0  0
   25.9191  -21.3375  -11.6478 N   0  0  0  0  0  0  0  0  0  0  0  0
   24.1811  -20.9047  -10.0834 C   0  0  0  0  0  0  0  0  0  0  0  0
   23.5005  -21.0892   -8.8859 O   0  0  0  0  0  0  0  0  0  0  0  0
   23.6040  -20.3563  -11.0581 O   0  0  0  0  0  0  0  0  0  0  0  0
  2  1  1  1
  3  2  1  0
  4  2  1  0
  4  6  1  0
  4  5  1  1
  6  7  2  0
  8  9  1  0
 10  9  1  0
 10 12  1  0
 10 11  1  1
 12 13  1  6
 13  6  1  0
 14 12  1  0
 14 15  2  0
 16 17  1  0
 17 18  1  0
 18 19  1  0
 20 19  1  1
 20 21  1  0
 20 22  1  0
 21 14  1  0
 22 24  2  0
 22 23  1  0
M  END
$$$$
