VIM.pdb
     RDKit          3D

 24 23  0  0  1  0  0  0  0  0999 V2000
   19.0810  -13.3936  -20.7631 C   0  0  0  0  0  0  0  0  0  0  0  0
   19.2537  -12.5902  -19.4917 C   0  0  2  0  0  0  0  0  0  0  0  0
   19.7865  -11.2140  -19.8001 C   0  0  0  0  0  0  0  0  0  0  0  0
   20.1835  -13.3763  -18.5863 C   0  0  2  0  0  0  0  0  0  0  0  0
   19.5957  -14.6585  -18.2653 N   0  0  0  0  0  0  0  0  0  0  0  0
   20.5714  -12.6128  -17.3841 C   0  0  0  0  0  0  0  0  0  0  0  0
   19.7083  -12.4696  -16.4826 O   0  0  0  0  0  0  0  0  0  0  0  0
   25.0028  -13.1887  -14.5403 C   0  0  0  0  0  0  0  0  0  0  0  0
   23.5698  -12.9060  -14.9371 C   0  0  0  0  0  0  0  0  0  0  0  0
   23.4950  -11.4924  -15.4454 C   0  0  2  0  0  0  0  0  0  0  0  0
   23.8220  -10.5554  -14.3033 C   0  0  0  0  0  0  0  0  0  0  0  0
   22.1367  -11.1677  -16.0340 C   0  0  2  0  0  0  0  0  0  0  0  0
   21.8505  -12.0301  -17.1757 N   0  0  0  0  0  0  0  0  0  0  0  0
   22.0375   -9.7609  -16.4593 C   0  0  0  0  0  0  0  0  0  0  0  0
   22.8016   -9.3204  -17.3409 O   0  0  0  0  0  0  0  0  0  0  0  0
   16.5233   -5.8224  -17.5463 C   0  0  0  0  0  0  0  0  0  0  0  0
   18.0000   -5.8320  -18.5720 S   0  0  0  0  0  0  0  0  0  0  0  0
   19.5274   -5.9255  -17.5896 C   0  0  0  0  0  0  0  0  0  0  0  0
   19.7968   -7.3215  -17.1347 C   0  0  0  0  0  0  0  0  0  0  0  0
   20.9781   -7.4839  -16.2349 C   0  0  2  0  0  0  0  0  0  0  0  0
   21.0819   -8.9037  -15.8759 N   0  0  0  0  0  0  0  0  0  0  0  0
   20.8912   -6.6999  -15.0025 C   0  0  0  0  0  0  0  0  0  0  0  0
   21.2249   -5.3509  -15.0016 O   0  0  0  0  0  0  0  0  0  0  0  0
   20.5112   -7.2557  -13.9393 O   0  0  0  0  0  0  0  0  0  0  0  0
  2  1  1  6
  3  2  1  0
  4  2  1  0
  4  6  1  0
  4  5  1  1
  6  7  2  0
  8  9  1  0
 10  9  1  0
 10 12  1  0
 10 11  1  1
 12 13  1  6
 13  6  1  0
 14 12  1  0
 14 15  2  0
 16 17  1  0
 17 18  1  0
 18 19  1  0
 20 19  1  6
 20 21  1  0
 20 22  1  0
 21 14  1  0
 22 24  2  0
 22 23  1  0
M  END
$$$$
