VIM.pdb
     RDKit          3D

 24 23  0  0  1  0  0  0  0  0999 V2000
   29.0673  -22.0847  -15.9500 C   0  0  0  0  0  0  0  0  0  0  0  0
   28.0669  -21.8258  -17.0564 C   0  0  2  0  0  0  0  0  0  0  0  0
   28.7460  -21.2139  -18.2553 C   0  0  0  0  0  0  0  0  0  0  0  0
   26.9885  -20.9243  -16.4850 C   0  0  2  0  0  0  0  0  0  0  0  0
   27.4431  -19.5510  -16.4775 N   0  0  0  0  0  0  0  0  0  0  0  0
   26.5262  -21.3764  -15.1582 C   0  0  0  0  0  0  0  0  0  0  0  0
   26.1192  -22.5605  -15.0566 O   0  0  0  0  0  0  0  0  0  0  0  0
   29.1005  -20.8900  -10.7033 C   0  0  0  0  0  0  0  0  0  0  0  0
   28.1665  -21.4089  -11.7754 C   0  0  0  0  0  0  0  0  0  0  0  0
   26.8196  -20.7713  -11.5715 C   0  0  2  0  0  0  0  0  0  0  0  0
   26.2203  -21.3176  -10.2941 C   0  0  0  0  0  0  0  0  0  0  0  0
   25.8908  -21.0098  -12.7450 C   0  0  2  0  0  0  0  0  0  0  0  0
   26.5099  -20.5674  -13.9901 N   0  0  0  0  0  0  0  0  0  0  0  0
   24.5995  -20.3203  -12.5805 C   0  0  0  0  0  0  0  0  0  0  0  0
   24.5338  -19.0811  -12.7049 O   0  0  0  0  0  0  0  0  0  0  0  0
   22.1951  -19.6676  -16.9850 C   0  0  0  0  0  0  0  0  0  0  0  0
   20.5892  -19.4195  -16.2153 S   0  0  0  0  0  0  0  0  0  0  0  0
   20.6171  -19.7517  -14.4277 C   0  0  0  0  0  0  0  0  0  0  0  0
   21.9603  -20.2286  -13.9841 C   0  0  0  0  0  0  0  0  0  0  0  0
   22.0864  -20.5158  -12.5236 C   0  0  2  0  0  0  0  0  0  0  0  0
   23.4317  -21.0520  -12.2821 N   0  0  0  0  0  0  0  0  0  0  0  0
   21.1068  -21.4827  -12.0273 C   0  0  0  0  0  0  0  0  0  0  0  0
   19.9363  -21.0485  -11.4169 O   0  0  0  0  0  0  0  0  0  0  0  0
   21.3305  -22.7144  -12.1566 O   0  0  0  0  0  0  0  0  0  0  0  0
  2  1  1  1
  3  2  1  0
  4  2  1  0
  4  6  1  0
  4  5  1  1
  6  7  2  0
  8  9  1  0
 10  9  1  0
 10 12  1  0
 10 11  1  1
 12 13  1  6
 13  6  1  0
 14 12  1  0
 14 15  2  0
 16 17  1  0
 17 18  1  0
 18 19  1  0
 20 19  1  6
 20 21  1  0
 20 22  1  0
 21 14  1  0
 22 24  2  0
 22 23  1  0
M  END
$$$$
