VIM.pdb
     RDKit          3D

 24 23  0  0  1  0  0  0  0  0999 V2000
   26.3714  -18.7148  -16.5551 C   0  0  0  0  0  0  0  0  0  0  0  0
   27.4264  -18.4036  -15.5150 C   0  0  2  0  0  0  0  0  0  0  0  0
   28.6022  -17.6999  -16.1437 C   0  0  0  0  0  0  0  0  0  0  0  0
   27.8223  -19.7184  -14.8692 C   0  0  2  0  0  0  0  0  0  0  0  0
   28.4570  -20.5781  -15.8442 N   0  0  0  0  0  0  0  0  0  0  0  0
   26.6868  -20.3723  -14.1897 C   0  0  0  0  0  0  0  0  0  0  0  0
   26.0644  -21.2614  -14.8223 O   0  0  0  0  0  0  0  0  0  0  0  0
   26.5668  -20.7736   -8.6916 C   0  0  0  0  0  0  0  0  0  0  0  0
   26.4619  -21.2233  -10.1331 C   0  0  0  0  0  0  0  0  0  0  0  0
   25.2182  -20.6173  -10.7231 C   0  0  2  0  0  0  0  0  0  0  0  0
   24.0156  -21.2549  -10.0623 C   0  0  0  0  0  0  0  0  0  0  0  0
   25.1575  -20.7883  -12.2277 C   0  0  2  0  0  0  0  0  0  0  0  0
   26.2499  -20.0671  -12.8725 N   0  0  0  0  0  0  0  0  0  0  0  0
   23.8780  -20.3214  -12.7887 C   0  0  0  0  0  0  0  0  0  0  0  0
   23.5848  -19.1099  -12.7497 O   0  0  0  0  0  0  0  0  0  0  0  0
   21.7994  -22.9256  -17.9934 C   0  0  0  0  0  0  0  0  0  0  0  0
   20.2514  -22.0901  -17.6215 S   0  0  0  0  0  0  0  0  0  0  0  0
   20.2980  -21.2195  -16.0257 C   0  0  0  0  0  0  0  0  0  0  0  0
   21.5664  -21.4999  -15.2902 C   0  0  0  0  0  0  0  0  0  0  0  0
   21.7060  -20.8121  -13.9714 C   0  0  2  0  0  0  0  0  0  0  0  0
   22.9773  -21.2362  -13.3720 N   0  0  0  0  0  0  0  0  0  0  0  0
   20.6266  -21.1169  -13.0317 C   0  0  0  0  0  0  0  0  0  0  0  0
   19.4644  -20.3552  -13.0237 O   0  0  0  0  0  0  0  0  0  0  0  0
   20.7568  -22.0763  -12.2276 O   0  0  0  0  0  0  0  0  0  0  0  0
  2  1  1  6
  3  2  1  0
  4  2  1  0
  4  6  1  0
  4  5  1  6
  6  7  2  0
  8  9  1  0
 10  9  1  0
 10 12  1  0
 10 11  1  1
 12 13  1  6
 13  6  1  0
 14 12  1  0
 14 15  2  0
 16 17  1  0
 17 18  1  0
 18 19  1  0
 20 19  1  6
 20 21  1  0
 20 22  1  0
 21 14  1  0
 22 24  2  0
 22 23  1  0
M  END
$$$$
