VIM.pdb
     RDKit          3D

 24 23  0  0  1  0  0  0  0  0999 V2000
   21.5279  -20.6841  -13.2851 C   0  0  0  0  0  0  0  0  0  0  0  0
   22.0217  -19.3896  -13.8952 C   0  0  2  0  0  0  0  0  0  0  0  0
   20.9005  -18.6744  -14.6055 C   0  0  0  0  0  0  0  0  0  0  0  0
   23.1629  -19.7409  -14.8316 C   0  0  2  0  0  0  0  0  0  0  0  0
   22.6634  -20.4945  -15.9607 N   0  0  0  0  0  0  0  0  0  0  0  0
   24.2674  -20.4283  -14.1343 C   0  0  0  0  0  0  0  0  0  0  0  0
   24.2834  -21.6840  -14.1667 O   0  0  0  0  0  0  0  0  0  0  0  0
   29.3013  -19.4700  -14.8592 C   0  0  0  0  0  0  0  0  0  0  0  0
   27.9552  -20.0956  -14.5626 C   0  0  0  0  0  0  0  0  0  0  0  0
   27.7204  -20.0194  -13.0790 C   0  0  2  0  0  0  0  0  0  0  0  0
   28.7863  -20.8374  -12.3833 C   0  0  0  0  0  0  0  0  0  0  0  0
   26.3365  -20.5024  -12.6938 C   0  0  2  0  0  0  0  0  0  0  0  0
   25.3118  -19.7700  -13.4307 N   0  0  0  0  0  0  0  0  0  0  0  0
   26.0809  -20.3619  -11.2500 C   0  0  0  0  0  0  0  0  0  0  0  0
   25.8208  -19.2413  -10.7686 O   0  0  0  0  0  0  0  0  0  0  0  0
   28.6452  -19.3852   -4.7100 C   0  0  0  0  0  0  0  0  0  0  0  0
   28.0524  -19.0051   -6.3643 S   0  0  0  0  0  0  0  0  0  0  0  0
   26.7790  -20.1730   -6.9312 C   0  0  0  0  0  0  0  0  0  0  0  0
   26.9351  -20.4854   -8.3826 C   0  0  0  0  0  0  0  0  0  0  0  0
   25.8966  -21.3930   -8.9565 C   0  0  2  0  0  0  0  0  0  0  0  0
   26.1282  -21.4884  -10.4031 N   0  0  0  0  0  0  0  0  0  0  0  0
   24.5256  -20.9318   -8.7365 C   0  0  0  0  0  0  0  0  0  0  0  0
   23.6976  -20.6457   -9.8153 O   0  0  0  0  0  0  0  0  0  0  0  0
   24.0983  -20.7951   -7.5606 O   0  0  0  0  0  0  0  0  0  0  0  0
  2  1  1  6
  3  2  1  0
  4  2  1  0
  4  6  1  0
  4  5  1  6
  6  7  2  0
  8  9  1  0
 10  9  1  0
 10 12  1  0
 10 11  1  1
 12 13  1  6
 13  6  1  0
 14 12  1  0
 14 15  2  0
 16 17  1  0
 17 18  1  0
 18 19  1  0
 20 19  1  6
 20 21  1  0
 20 22  1  0
 21 14  1  0
 22 24  2  0
 22 23  1  0
M  END
$$$$
