VIM.pdb
     RDKit          3D

 24 23  0  0  1  0  0  0  0  0999 V2000
   21.8962  -18.8831  -14.7819 C   0  0  0  0  0  0  0  0  0  0  0  0
   22.1260  -18.2621  -16.1432 C   0  0  2  0  0  0  0  0  0  0  0  0
   20.8328  -18.1746  -16.9133 C   0  0  0  0  0  0  0  0  0  0  0  0
   23.1620  -19.1118  -16.8555 C   0  0  2  0  0  0  0  0  0  0  0  0
   22.5103  -20.0313  -17.7622 N   0  0  0  0  0  0  0  0  0  0  0  0
   24.0711  -19.7926  -15.9129 C   0  0  0  0  0  0  0  0  0  0  0  0
   23.6864  -20.8810  -15.4173 O   0  0  0  0  0  0  0  0  0  0  0  0
   28.3861  -21.6353  -15.8807 C   0  0  0  0  0  0  0  0  0  0  0  0
   28.1723  -20.1428  -16.0144 C   0  0  0  0  0  0  0  0  0  0  0  0
   27.6314  -19.6286  -14.7086 C   0  0  2  0  0  0  0  0  0  0  0  0
   28.4649  -20.2054  -13.5852 C   0  0  0  0  0  0  0  0  0  0  0  0
   26.1672  -19.9721  -14.5216 C   0  0  2  0  0  0  0  0  0  0  0  0
   25.3487  -19.3040  -15.5280 N   0  0  0  0  0  0  0  0  0  0  0  0
   25.6766  -19.6027  -13.1826 C   0  0  0  0  0  0  0  0  0  0  0  0
   25.1503  -18.4875  -12.9969 O   0  0  0  0  0  0  0  0  0  0  0  0
   20.5985  -18.9310  -11.4713 C   0  0  0  0  0  0  0  0  0  0  0  0
   21.0095  -20.2398  -10.3090 S   0  0  0  0  0  0  0  0  0  0  0  0
   22.7737  -20.2484   -9.8682 C   0  0  0  0  0  0  0  0  0  0  0  0
   23.6376  -20.3175  -11.0836 C   0  0  0  0  0  0  0  0  0  0  0  0
   25.1086  -20.2917  -10.8247 C   0  0  2  0  0  0  0  0  0  0  0  0
   25.7972  -20.5029  -12.1040 N   0  0  0  0  0  0  0  0  0  0  0  0
   25.5582  -21.3166   -9.8822 C   0  0  0  0  0  0  0  0  0  0  0  0
   25.8845  -22.5907  -10.3307 O   0  0  0  0  0  0  0  0  0  0  0  0
   25.6483  -21.0371   -8.6584 O   0  0  0  0  0  0  0  0  0  0  0  0
  2  1  1  1
  3  2  1  0
  4  2  1  0
  4  6  1  0
  4  5  1  1
  6  7  2  0
  8  9  1  0
 10  9  1  0
 10 12  1  0
 10 11  1  1
 12 13  1  6
 13  6  1  0
 14 12  1  0
 14 15  2  0
 16 17  1  0
 17 18  1  0
 18 19  1  0
 20 19  1  6
 20 21  1  0
 20 22  1  0
 21 14  1  0
 22 24  2  0
 22 23  1  0
M  END
$$$$
