VIM.pdb
     RDKit          3D

 24 23  0  0  1  0  0  0  0  0999 V2000
   23.8876  -20.0093  -17.0541 C   0  0  0  0  0  0  0  0  0  0  0  0
   25.0114  -19.1632  -16.4945 C   0  0  2  0  0  0  0  0  0  0  0  0
   25.7902  -18.5093  -17.6076 C   0  0  0  0  0  0  0  0  0  0  0  0
   25.8785  -20.0732  -15.6446 C   0  0  2  0  0  0  0  0  0  0  0  0
   26.6134  -20.9887  -16.4898 N   0  0  0  0  0  0  0  0  0  0  0  0
   25.1035  -20.7660  -14.5967 C   0  0  0  0  0  0  0  0  0  0  0  0
   24.6269  -21.8943  -14.8759 O   0  0  0  0  0  0  0  0  0  0  0  0
   26.3367  -20.7544   -9.3087 C   0  0  0  0  0  0  0  0  0  0  0  0
   25.8697  -21.2343  -10.6662 C   0  0  0  0  0  0  0  0  0  0  0  0
   24.4969  -20.6722  -10.9145 C   0  0  2  0  0  0  0  0  0  0  0  0
   23.5445  -21.2713   -9.9029 C   0  0  0  0  0  0  0  0  0  0  0  0
   24.0170  -20.9389  -12.3271 C   0  0  2  0  0  0  0  0  0  0  0  0
   24.8597  -20.2467  -13.2966 N   0  0  0  0  0  0  0  0  0  0  0  0
   22.6176  -20.5241  -12.5260 C   0  0  0  0  0  0  0  0  0  0  0  0
   22.3151  -19.3147  -12.4950 O   0  0  0  0  0  0  0  0  0  0  0  0
   15.8404  -23.0001  -15.7836 C   0  0  0  0  0  0  0  0  0  0  0  0
   17.6123  -23.1019  -15.4961 S   0  0  0  0  0  0  0  0  0  0  0  0
   18.1886  -21.8849  -14.2740 C   0  0  0  0  0  0  0  0  0  0  0  0
   19.6568  -22.0087  -14.0339 C   0  0  0  0  0  0  0  0  0  0  0  0
   20.2076  -21.1186  -12.9682 C   0  0  2  0  0  0  0  0  0  0  0  0
   21.6123  -21.4867  -12.7521 N   0  0  0  0  0  0  0  0  0  0  0  0
   19.5003  -21.2220  -11.6915 C   0  0  0  0  0  0  0  0  0  0  0  0
   18.4412  -20.3699  -11.4025 O   0  0  0  0  0  0  0  0  0  0  0  0
   19.8573  -22.0902  -10.8532 O   0  0  0  0  0  0  0  0  0  0  0  0
  2  1  1  6
  3  2  1  0
  4  2  1  0
  4  6  1  0
  4  5  1  6
  6  7  2  0
  8  9  1  0
 10  9  1  0
 10 12  1  0
 10 11  1  1
 12 13  1  6
 13  6  1  0
 14 12  1  0
 14 15  2  0
 16 17  1  0
 17 18  1  0
 18 19  1  0
 20 19  1  6
 20 21  1  0
 20 22  1  0
 21 14  1  0
 22 24  2  0
 22 23  1  0
M  END
$$$$
