VIM.pdb
     RDKit          3D

 24 23  0  0  1  0  0  0  0  0999 V2000
   20.2046  -28.5536  -15.0646 C   0  0  0  0  0  0  0  0  0  0  0  0
   19.9354  -27.1745  -15.6278 C   0  0  2  0  0  0  0  0  0  0  0  0
   20.1839  -27.1491  -17.1146 C   0  0  0  0  0  0  0  0  0  0  0  0
   20.8278  -26.2017  -14.8798 C   0  0  2  0  0  0  0  0  0  0  0  0
   22.2079  -26.3973  -15.2666 N   0  0  0  0  0  0  0  0  0  0  0  0
   20.6322  -26.2732  -13.4185 C   0  0  0  0  0  0  0  0  0  0  0  0
   21.5116  -26.8628  -12.7423 O   0  0  0  0  0  0  0  0  0  0  0  0
   18.7657  -22.2259  -11.5717 C   0  0  0  0  0  0  0  0  0  0  0  0
   19.6245  -23.3091  -10.9550 C   0  0  0  0  0  0  0  0  0  0  0  0
   18.7617  -24.5209  -10.7331 C   0  0  2  0  0  0  0  0  0  0  0  0
   18.4886  -24.6486   -9.2504 C   0  0  0  0  0  0  0  0  0  0  0  0
   19.4016  -25.7847  -11.2718 C   0  0  2  0  0  0  0  0  0  0  0  0
   19.5212  -25.7224  -12.7248 N   0  0  0  0  0  0  0  0  0  0  0  0
   18.6418  -26.9920  -10.9048 C   0  0  0  0  0  0  0  0  0  0  0  0
   17.5472  -27.2307  -11.4526 O   0  0  0  0  0  0  0  0  0  0  0  0
   21.5839  -32.4370   -8.7613 C   0  0  0  0  0  0  0  0  0  0  0  0
   20.1487  -32.3716   -7.6803 S   0  0  0  0  0  0  0  0  0  0  0  0
   18.8452  -31.2779   -8.3220 C   0  0  0  0  0  0  0  0  0  0  0  0
   19.4188  -30.0180   -8.8806 C   0  0  0  0  0  0  0  0  0  0  0  0
   18.4426  -29.1222   -9.5707 C   0  0  2  0  0  0  0  0  0  0  0  0
   19.1432  -27.8846   -9.9351 N   0  0  0  0  0  0  0  0  0  0  0  0
   17.2825  -28.7731   -8.7502 C   0  0  0  0  0  0  0  0  0  0  0  0
   16.0962  -29.4872   -8.8686 O   0  0  0  0  0  0  0  0  0  0  0  0
   17.3649  -27.8191   -7.9335 O   0  0  0  0  0  0  0  0  0  0  0  0
  2  1  1  1
  3  2  1  0
  4  2  1  0
  4  6  1  0
  4  5  1  1
  6  7  2  0
  8  9  1  0
 10  9  1  0
 10 12  1  0
 10 11  1  1
 12 13  1  6
 13  6  1  0
 14 12  1  0
 14 15  2  0
 16 17  1  0
 17 18  1  0
 18 19  1  0
 20 19  1  1
 20 21  1  0
 20 22  1  0
 21 14  1  0
 22 24  2  0
 22 23  1  0
M  END
$$$$
