VIM.pdb
     RDKit          3D

 24 23  0  0  1  0  0  0  0  0999 V2000
   28.6793  -22.3205  -14.7091 C   0  0  0  0  0  0  0  0  0  0  0  0
   28.1087  -22.4705  -16.1032 C   0  0  2  0  0  0  0  0  0  0  0  0
   29.1332  -22.0887  -17.1414 C   0  0  0  0  0  0  0  0  0  0  0  0
   26.8664  -21.6024  -16.1760 C   0  0  2  0  0  0  0  0  0  0  0  0
   27.2395  -20.2053  -16.2134 N   0  0  0  0  0  0  0  0  0  0  0  0
   25.9080  -21.9052  -15.0951 C   0  0  0  0  0  0  0  0  0  0  0  0
   25.5181  -23.0939  -14.9797 O   0  0  0  0  0  0  0  0  0  0  0  0
   26.3685  -20.6807   -9.9850 C   0  0  0  0  0  0  0  0  0  0  0  0
   25.9919  -21.3932  -11.2662 C   0  0  0  0  0  0  0  0  0  0  0  0
   24.7612  -20.7330  -11.8245 C   0  0  2  0  0  0  0  0  0  0  0  0
   23.6296  -20.9178  -10.8373 C   0  0  0  0  0  0  0  0  0  0  0  0
   24.3830  -21.2857  -13.1841 C   0  0  2  0  0  0  0  0  0  0  0  0
   25.3970  -20.9481  -14.1776 N   0  0  0  0  0  0  0  0  0  0  0  0
   23.0763  -20.7844  -13.6436 C   0  0  0  0  0  0  0  0  0  0  0  0
   22.9415  -19.5828  -13.9491 O   0  0  0  0  0  0  0  0  0  0  0  0
   16.0298  -23.4214  -16.2690 C   0  0  0  0  0  0  0  0  0  0  0  0
   17.6601  -23.7018  -15.5645 S   0  0  0  0  0  0  0  0  0  0  0  0
   18.4989  -22.1518  -15.1165 C   0  0  0  0  0  0  0  0  0  0  0  0
   19.9241  -22.3930  -14.7434 C   0  0  0  0  0  0  0  0  0  0  0  0
   20.6562  -21.2037  -14.2132 C   0  0  2  0  0  0  0  0  0  0  0  0
   21.9713  -21.6549  -13.7416 N   0  0  0  0  0  0  0  0  0  0  0  0
   19.9711  -20.5367  -13.1056 C   0  0  0  0  0  0  0  0  0  0  0  0
   19.1349  -19.4530  -13.3457 O   0  0  0  0  0  0  0  0  0  0  0  0
   20.1435  -20.9513  -11.9299 O   0  0  0  0  0  0  0  0  0  0  0  0
  2  1  1  1
  3  2  1  0
  4  2  1  0
  4  6  1  0
  4  5  1  1
  6  7  2  0
  8  9  1  0
 10  9  1  0
 10 12  1  0
 10 11  1  1
 12 13  1  6
 13  6  1  0
 14 12  1  0
 14 15  2  0
 16 17  1  0
 17 18  1  0
 18 19  1  0
 20 19  1  1
 20 21  1  0
 20 22  1  0
 21 14  1  0
 22 24  2  0
 22 23  1  0
M  END
$$$$
