VIM.pdb
     RDKit          3D

 24 23  0  0  1  0  0  0  0  0999 V2000
   11.2498  -18.4118    4.2221 C   0  0  0  0  0  0  0  0  0  0  0  0
   11.5148  -16.9667    3.8571 C   0  0  2  0  0  0  0  0  0  0  0  0
   10.4844  -16.4682    2.8758 C   0  0  0  0  0  0  0  0  0  0  0  0
   12.9231  -16.8959    3.2965 C   0  0  2  0  0  0  0  0  0  0  0  0
   12.9354  -17.3617    1.9271 N   0  0  0  0  0  0  0  0  0  0  0  0
   13.8998  -17.6050    4.1461 C   0  0  0  0  0  0  0  0  0  0  0  0
   13.7514  -17.5280    5.3912 O   0  0  0  0  0  0  0  0  0  0  0  0
   15.9919  -22.4962    3.1882 C   0  0  0  0  0  0  0  0  0  0  0  0
   15.4283  -21.2818    3.8944 C   0  0  0  0  0  0  0  0  0  0  0  0
   16.5186  -20.2506    3.9942 C   0  0  2  0  0  0  0  0  0  0  0  0
   17.6202  -20.8027    4.8723 C   0  0  0  0  0  0  0  0  0  0  0  0
   16.0091  -18.9310    4.5383 C   0  0  2  0  0  0  0  0  0  0  0  0
   14.9937  -18.3673    3.6549 N   0  0  0  0  0  0  0  0  0  0  0  0
   17.0915  -17.9473    4.7133 C   0  0  0  0  0  0  0  0  0  0  0  0
   17.4590  -17.2460    3.7498 O   0  0  0  0  0  0  0  0  0  0  0  0
   19.3224  -11.2963    5.6232 C   0  0  0  0  0  0  0  0  0  0  0  0
   18.2097  -12.7082    5.5891 S   0  0  0  0  0  0  0  0  0  0  0  0
   19.0429  -14.2603    6.0405 C   0  0  0  0  0  0  0  0  0  0  0  0
   18.1312  -15.4320    5.8849 C   0  0  0  0  0  0  0  0  0  0  0  0
   18.7341  -16.7590    6.2124 C   0  0  2  0  0  0  0  0  0  0  0  0
   17.7189  -17.7906    5.9664 N   0  0  0  0  0  0  0  0  0  0  0  0
   19.1847  -16.8743    7.5997 C   0  0  0  0  0  0  0  0  0  0  0  0
   20.4329  -16.3937    7.9765 O   0  0  0  0  0  0  0  0  0  0  0  0
   18.4328  -17.4129    8.4532 O   0  0  0  0  0  0  0  0  0  0  0  0
  2  1  1  6
  3  2  1  0
  4  2  1  0
  4  6  1  0
  4  5  1  6
  6  7  2  0
  8  9  1  0
 10  9  1  0
 10 12  1  0
 10 11  1  1
 12 13  1  6
 13  6  1  0
 14 12  1  0
 14 15  2  0
 16 17  1  0
 17 18  1  0
 18 19  1  0
 20 19  1  1
 20 21  1  0
 20 22  1  0
 21 14  1  0
 22 24  2  0
 22 23  1  0
M  END
$$$$
