VIM.pdb
     RDKit          3D

 24 23  0  0  1  0  0  0  0  0999 V2000
   17.8099  -13.1853  -16.8157 C   0  0  0  0  0  0  0  0  0  0  0  0
   18.6969  -14.0641  -17.6717 C   0  0  2  0  0  0  0  0  0  0  0  0
   17.8692  -15.0424  -18.4660 C   0  0  0  0  0  0  0  0  0  0  0  0
   19.6724  -14.7601  -16.7409 C   0  0  2  0  0  0  0  0  0  0  0  0
   18.9783  -15.7484  -15.9446 N   0  0  0  0  0  0  0  0  0  0  0  0
   20.4391  -13.8046  -15.9178 C   0  0  0  0  0  0  0  0  0  0  0  0
   19.9271  -13.4294  -14.8337 O   0  0  0  0  0  0  0  0  0  0  0  0
   25.8195  -13.8213  -15.3613 C   0  0  0  0  0  0  0  0  0  0  0  0
   24.3426  -13.6985  -15.0534 C   0  0  0  0  0  0  0  0  0  0  0  0
   23.8688  -12.3632  -15.5582 C   0  0  2  0  0  0  0  0  0  0  0  0
   24.5417  -11.2785  -14.7457 C   0  0  0  0  0  0  0  0  0  0  0  0
   22.3609  -12.2283  -15.4891 C   0  0  2  0  0  0  0  0  0  0  0  0
   21.7135  -13.2808  -16.2652 N   0  0  0  0  0  0  0  0  0  0  0  0
   21.8973  -10.9183  -15.9778 C   0  0  0  0  0  0  0  0  0  0  0  0
   22.0602  -10.6056  -17.1740 O   0  0  0  0  0  0  0  0  0  0  0  0
   16.2453   -9.0378  -15.7814 C   0  0  0  0  0  0  0  0  0  0  0  0
   16.8864   -7.3865  -15.4730 S   0  0  0  0  0  0  0  0  0  0  0  0
   18.6968   -7.3050  -15.6233 C   0  0  0  0  0  0  0  0  0  0  0  0
   19.3251   -8.6318  -15.3530 C   0  0  0  0  0  0  0  0  0  0  0  0
   20.8061   -8.6879  -15.5403 C   0  0  2  0  0  0  0  0  0  0  0  0
   21.2682  -10.0104  -15.1013 N   0  0  0  0  0  0  0  0  0  0  0  0
   21.5338   -7.6686  -14.7837 C   0  0  0  0  0  0  0  0  0  0  0  0
   21.6414   -6.3722  -15.2725 O   0  0  0  0  0  0  0  0  0  0  0  0
   22.0638   -7.9731  -13.6835 O   0  0  0  0  0  0  0  0  0  0  0  0
  2  1  1  1
  3  2  1  0
  4  2  1  0
  4  6  1  0
  4  5  1  1
  6  7  2  0
  8  9  1  0
 10  9  1  0
 10 12  1  0
 10 11  1  1
 12 13  1  6
 13  6  1  0
 14 12  1  0
 14 15  2  0
 16 17  1  0
 17 18  1  0
 18 19  1  0
 20 19  1  1
 20 21  1  0
 20 22  1  0
 21 14  1  0
 22 24  2  0
 22 23  1  0
M  END
$$$$
