VIM.pdb
     RDKit          3D

 24 23  0  0  1  0  0  0  0  0999 V2000
   27.6711  -27.0691  -18.4679 C   0  0  0  0  0  0  0  0  0  0  0  0
   26.3242  -26.4069  -18.2705 C   0  0  2  0  0  0  0  0  0  0  0  0
   26.4882  -24.9265  -18.0368 C   0  0  0  0  0  0  0  0  0  0  0  0
   25.6491  -27.1012  -17.1024 C   0  0  2  0  0  0  0  0  0  0  0  0
   26.3586  -26.8105  -15.8758 N   0  0  0  0  0  0  0  0  0  0  0  0
   25.4832  -28.5497  -17.3324 C   0  0  0  0  0  0  0  0  0  0  0  0
   24.9693  -28.9106  -18.4205 O   0  0  0  0  0  0  0  0  0  0  0  0
   29.1586  -32.2093  -15.8756 C   0  0  0  0  0  0  0  0  0  0  0  0
   28.0977  -31.4754  -16.6674 C   0  0  0  0  0  0  0  0  0  0  0  0
   26.7557  -31.8167  -16.0802 C   0  0  2  0  0  0  0  0  0  0  0  0
   26.4969  -33.2907  -16.3032 C   0  0  0  0  0  0  0  0  0  0  0  0
   25.6415  -30.9799  -16.6763 C   0  0  2  0  0  0  0  0  0  0  0  0
   25.8636  -29.5624  -16.4110 N   0  0  0  0  0  0  0  0  0  0  0  0
   24.3185  -31.3636  -16.1544 C   0  0  0  0  0  0  0  0  0  0  0  0
   23.9921  -31.0516  -14.9920 O   0  0  0  0  0  0  0  0  0  0  0  0
   17.1287  -33.6381  -18.6914 C   0  0  0  0  0  0  0  0  0  0  0  0
   18.8448  -33.1898  -18.9860 S   0  0  0  0  0  0  0  0  0  0  0  0
   19.7858  -32.9916  -17.4426 C   0  0  0  0  0  0  0  0  0  0  0  0
   21.1902  -32.5640  -17.7130 C   0  0  0  0  0  0  0  0  0  0  0  0
   22.0611  -32.4301  -16.5068 C   0  0  2  0  0  0  0  0  0  0  0  0
   23.4136  -32.0839  -16.9611 N   0  0  0  0  0  0  0  0  0  0  0  0
   22.1413  -33.6486  -15.7007 C   0  0  0  0  0  0  0  0  0  0  0  0
   22.9391  -34.7109  -16.1082 O   0  0  0  0  0  0  0  0  0  0  0  0
   21.4813  -33.7299  -14.6321 O   0  0  0  0  0  0  0  0  0  0  0  0
  2  1  1  1
  3  2  1  0
  4  2  1  0
  4  6  1  0
  4  5  1  1
  6  7  2  0
  8  9  1  0
 10  9  1  0
 10 12  1  0
 10 11  1  6
 12 13  1  1
 13  6  1  0
 14 12  1  0
 14 15  2  0
 16 17  1  0
 17 18  1  0
 18 19  1  0
 20 19  1  6
 20 21  1  0
 20 22  1  0
 21 14  1  0
 22 24  2  0
 22 23  1  0
M  END
$$$$
