RQP.pdb
     RDKit          3D

 28 28  0  0  1  0  0  0  0  0999 V2000
    8.3898  -12.5199   17.8049 N   0  0  0  0  0  0  0  0  0  0  0  0
    8.5545  -13.7629   17.1303 C   0  0  0  0  0  0  0  0  0  0  0  0
    8.2048  -13.8248   15.8886 N   0  0  0  0  0  0  0  0  0  0  0  0
    9.0816  -14.9063   17.7755 N   0  0  0  0  0  0  0  0  0  0  0  0
    8.8240  -15.1331   19.2187 C   0  0  0  0  0  0  0  0  0  0  0  0
    7.4067  -14.8018   19.5324 C   0  0  0  0  0  0  0  0  0  0  0  0
    6.9225  -15.0076   20.9020 C   0  0  0  0  0  0  0  0  0  0  0  0
    6.8340  -16.3503   21.4927 C   0  0  2  0  0  0  0  0  0  0  0  0
    5.4906  -16.8488   20.9402 N   0  0  0  0  0  0  0  0  0  0  0  0
    6.6140  -16.3589   22.9643 C   0  0  0  0  0  0  0  0  0  0  0  0
    5.5940  -15.8505   23.4879 O   0  0  0  0  0  0  0  0  0  0  0  0
    8.3248  -14.6169   15.2526 N   0  0  0  0  0  0  0  0  0  0  0  0
    8.5937  -20.2848   27.1068 C   0  0  0  0  0  0  0  0  0  0  0  0
    7.7523  -19.4688   27.8745 O   0  0  0  0  0  0  0  0  0  0  0  0
    7.6467  -19.6752   29.0988 C   0  0  0  0  0  0  0  0  0  0  0  0
    6.9878  -18.3693   27.2599 C   0  0  0  0  0  0  0  0  0  0  0  0
    7.2216  -18.1225   25.8320 C   0  0  2  0  0  0  0  0  0  0  0  0
    7.3877  -16.7252   25.3306 N   0  0  0  0  0  0  0  0  0  0  0  0
    7.5396  -16.9395   23.8598 C   0  0  0  0  0  0  0  0  0  0  0  0
    8.6349  -16.0520   25.8153 O   0  0  0  0  0  0  0  0  0  0  0  0
    9.6415  -16.8046   25.8082 N   0  0  0  0  0  0  0  0  0  0  0  0
    8.7740  -14.7387   26.2446 C   0  0  0  0  0  0  0  0  0  0  0  0
    8.1642  -13.5294   25.6006 C   0  0  0  0  0  0  0  0  0  0  0  0
    7.5092  -12.8881   26.7909 C   0  0  0  0  0  0  0  0  0  0  0  0
    8.2631  -13.4289   28.0147 C   0  0  2  0  0  0  0  0  0  0  0  0
    9.4591  -14.1056   27.3264 C   0  0  0  0  0  0  0  0  0  0  0  0
   10.2967  -14.8178   28.2325 O   0  0  0  0  0  0  0  0  0  0  0  0
   11.3154  -14.1873   28.7208 O   0  0  0  0  0  0  0  0  0  0  0  0
  2  1  1  0
  3  2  2  0
  4  2  1  0
  5  4  1  0
  6  5  1  0
  7  6  1  0
  8  7  1  0
  8  9  1  6
 10 18  1  0
 10  8  1  0
 11 10  2  0
 13 14  2  0
 13 12  1  0
 15 13  1  0
 16 15  1  0
 17 16  1  6
 17 18  1  0
 19 17  1  0
 20 19  2  0
 21 22  1  0
 21 19  1  0
 23 22  1  0
 24 23  1  0
 24 25  1  0
 25 21  1  0
 26 28  1  0
 25 26  1  1
 27 26  2  0
M  END
$$$$
