RQP.pdb
     RDKit          3D

 28 28  0  0  1  0  0  0  0  0999 V2000
    8.1489  -12.3508   19.4435 N   0  0  0  0  0  0  0  0  0  0  0  0
    8.5089  -13.3239   18.4683 C   0  0  0  0  0  0  0  0  0  0  0  0
    8.7371  -12.9144   17.2650 N   0  0  0  0  0  0  0  0  0  0  0  0
    8.6204  -14.6990   18.7817 N   0  0  0  0  0  0  0  0  0  0  0  0
    8.0181  -15.2306   20.0287 C   0  0  0  0  0  0  0  0  0  0  0  0
    6.6956  -15.8433   19.7245 C   0  0  0  0  0  0  0  0  0  0  0  0
    5.8987  -16.3832   20.8318 C   0  0  0  0  0  0  0  0  0  0  0  0
    6.4413  -17.3973   21.7466 C   0  0  2  0  0  0  0  0  0  0  0  0
    5.4435  -18.5505   21.5649 N   0  0  0  0  0  0  0  0  0  0  0  0
    6.3016  -17.0588   23.1888 C   0  0  0  0  0  0  0  0  0  0  0  0
    5.1815  -16.8931   23.7283 O   0  0  0  0  0  0  0  0  0  0  0  0
    8.9900  -13.4869   16.4559 N   0  0  0  0  0  0  0  0  0  0  0  0
    8.7226  -20.2391   27.3235 C   0  0  0  0  0  0  0  0  0  0  0  0
    8.1516  -19.2631   28.1508 O   0  0  0  0  0  0  0  0  0  0  0  0
    8.1438  -19.4326   29.3853 C   0  0  0  0  0  0  0  0  0  0  0  0
    7.5582  -18.0377   27.5873 C   0  0  0  0  0  0  0  0  0  0  0  0
    7.5945  -17.9001   26.1265 C   0  0  1  0  0  0  0  0  0  0  0  0
    7.2207  -16.6032   25.4866 N   0  0  0  0  0  0  0  0  0  0  0  0
    7.4207  -16.9035   24.0367 C   0  0  0  0  0  0  0  0  0  0  0  0
    8.1339  -15.4690   25.8381 O   0  0  0  0  0  0  0  0  0  0  0  0
    9.3520  -15.7655   25.7507 N   0  0  0  0  0  0  0  0  0  0  0  0
    7.7754  -14.1848   26.2266 C   0  0  0  0  0  0  0  0  0  0  0  0
    6.5407  -13.4461   25.8037 C   0  0  0  0  0  0  0  0  0  0  0  0
    6.0088  -13.0165   27.1414 C   0  0  0  0  0  0  0  0  0  0  0  0
    7.2191  -13.0269   28.0866 C   0  0  2  0  0  0  0  0  0  0  0  0
    8.3613  -13.1937   27.0720 C   0  0  0  0  0  0  0  0  0  0  0  0
    9.6361  -13.3585   27.6866 O   0  0  0  0  0  0  0  0  0  0  0  0
   10.3590  -12.2980   27.8493 O   0  0  0  0  0  0  0  0  0  0  0  0
  2  1  1  0
  3  2  2  0
  4  2  1  0
  5  4  1  0
  6  5  1  0
  7  6  1  0
  8  7  1  0
  8  9  1  1
 10 18  1  0
 10  8  1  0
 11 10  2  0
 13 14  2  0
 13 12  1  0
 15 13  1  0
 16 15  1  0
 17 16  1  6
 17 18  1  0
 19 17  1  0
 20 19  2  0
 21 22  1  0
 21 19  1  0
 23 22  1  0
 24 23  1  0
 24 25  1  0
 25 21  1  0
 26 28  1  0
 25 26  1  1
 27 26  2  0
M  END
$$$$
