RQP.pdb
     RDKit          3D

 28 28  0  0  1  0  0  0  0  0999 V2000
    6.8235  -14.1165   17.0525 N   0  0  0  0  0  0  0  0  0  0  0  0
    8.2435  -14.0418   17.1274 C   0  0  0  0  0  0  0  0  0  0  0  0
    8.9285  -14.8329   16.3706 N   0  0  0  0  0  0  0  0  0  0  0  0
    8.9059  -13.1397   17.9927 N   0  0  0  0  0  0  0  0  0  0  0  0
    8.4104  -12.9332   19.3756 C   0  0  0  0  0  0  0  0  0  0  0  0
    7.2227  -13.7983   19.6164 C   0  0  0  0  0  0  0  0  0  0  0  0
    7.1309  -14.5303   20.8846 C   0  0  0  0  0  0  0  0  0  0  0  0
    8.3205  -14.8020   21.7035 C   0  0  2  0  0  0  0  0  0  0  0  0
    8.8593  -16.0873   21.0584 N   0  0  0  0  0  0  0  0  0  0  0  0
    8.0205  -15.2281   23.0972 C   0  0  0  0  0  0  0  0  0  0  0  0
    7.1704  -14.6376   23.8056 O   0  0  0  0  0  0  0  0  0  0  0  0
    9.9474  -14.8938   16.3037 N   0  0  0  0  0  0  0  0  0  0  0  0
    6.6226  -18.6915   28.3007 C   0  0  0  0  0  0  0  0  0  0  0  0
    6.6750  -18.8461   26.9092 O   0  0  0  0  0  0  0  0  0  0  0  0
    5.6159  -18.8619   26.2529 C   0  0  0  0  0  0  0  0  0  0  0  0
    7.9616  -18.9915   26.2059 C   0  0  0  0  0  0  0  0  0  0  0  0
    8.1475  -18.1779   24.9985 C   0  0  1  0  0  0  0  0  0  0  0  0
    8.3396  -16.7010   25.1124 N   0  0  0  0  0  0  0  0  0  0  0  0
    8.6742  -16.3222   23.7064 C   0  0  0  0  0  0  0  0  0  0  0  0
    9.5022  -16.3059   25.9704 O   0  0  0  0  0  0  0  0  0  0  0  0
   10.4967  -17.0631   25.8402 N   0  0  0  0  0  0  0  0  0  0  0  0
    9.5787  -15.2317   26.8472 C   0  0  0  0  0  0  0  0  0  0  0  0
    8.9648  -13.8788   26.6427 C   0  0  0  0  0  0  0  0  0  0  0  0
    8.2313  -13.7132   27.9433 C   0  0  0  0  0  0  0  0  0  0  0  0
    8.9391  -14.6478   28.9352 C   0  0  2  0  0  0  0  0  0  0  0  0
   10.1886  -15.0201   28.1215 C   0  0  0  0  0  0  0  0  0  0  0  0
   11.0012  -16.0002   28.7610 O   0  0  0  0  0  0  0  0  0  0  0  0
   12.2225  -15.6727   29.0349 O   0  0  0  0  0  0  0  0  0  0  0  0
  2  1  1  0
  3  2  2  0
  4  2  1  0
  5  4  1  0
  6  5  1  0
  7  6  1  0
  8  7  1  0
  8  9  1  6
 10 18  1  0
 10  8  1  0
 11 10  2  0
 13 14  2  0
 13 12  1  0
 15 13  1  0
 16 15  1  0
 17 16  1  6
 17 18  1  0
 19 17  1  0
 20 19  2  0
 21 22  1  0
 21 19  1  0
 23 22  1  0
 24 23  1  0
 24 25  1  0
 25 21  1  0
 26 28  1  0
 25 26  1  1
 27 26  2  0
M  END
$$$$
