RQP.pdb
     RDKit          3D

 28 28  0  0  1  0  0  0  0  0999 V2000
    6.5717  -13.4742   19.6473 N   0  0  0  0  0  0  0  0  0  0  0  0
    7.3681  -13.5217   18.4679 C   0  0  0  0  0  0  0  0  0  0  0  0
    8.2050  -12.5588   18.2676 N   0  0  0  0  0  0  0  0  0  0  0  0
    7.2657  -14.5775   17.5317 N   0  0  0  0  0  0  0  0  0  0  0  0
    7.9980  -15.8477   17.7575 C   0  0  0  0  0  0  0  0  0  0  0  0
    9.4635  -15.5853   17.7706 C   0  0  0  0  0  0  0  0  0  0  0  0
   10.3029  -16.2294   16.7541 C   0  0  0  0  0  0  0  0  0  0  0  0
   11.7609  -16.0469   16.7324 C   0  0  2  0  0  0  0  0  0  0  0  0
   12.2096  -17.2075   15.8325 N   0  0  0  0  0  0  0  0  0  0  0  0
   12.4350  -16.3461   18.0247 C   0  0  0  0  0  0  0  0  0  0  0  0
   12.7042  -17.5187   18.3793 O   0  0  0  0  0  0  0  0  0  0  0  0
    8.7711  -12.3974   17.4310 N   0  0  0  0  0  0  0  0  0  0  0  0
   16.8323  -15.5917   20.7220 C   0  0  0  0  0  0  0  0  0  0  0  0
   16.2951  -14.9717   21.8578 O   0  0  0  0  0  0  0  0  0  0  0  0
   16.9681  -14.9198   22.9052 C   0  0  0  0  0  0  0  0  0  0  0  0
   14.9460  -14.3794   21.8372 C   0  0  0  0  0  0  0  0  0  0  0  0
   14.2083  -14.4654   20.5713 C   0  0  1  0  0  0  0  0  0  0  0  0
   13.4179  -15.6906   20.2465 N   0  0  0  0  0  0  0  0  0  0  0  0
   12.8121  -15.3289   18.9295 C   0  0  0  0  0  0  0  0  0  0  0  0
   12.2922  -15.9552   21.1987 O   0  0  0  0  0  0  0  0  0  0  0  0
   11.4227  -15.0478   21.2055 N   0  0  0  0  0  0  0  0  0  0  0  0
   12.1280  -17.0572   22.0276 C   0  0  0  0  0  0  0  0  0  0  0  0
   12.7112  -18.4215   21.8095 C   0  0  0  0  0  0  0  0  0  0  0  0
   13.3569  -18.6582   23.1452 C   0  0  0  0  0  0  0  0  0  0  0  0
   12.6180  -17.7371   24.1270 C   0  0  2  0  0  0  0  0  0  0  0  0
   11.4338  -17.2942   23.2532 C   0  0  0  0  0  0  0  0  0  0  0  0
   10.6136  -16.3114   23.8788 O   0  0  0  0  0  0  0  0  0  0  0  0
    9.4650  -16.6970   24.3323 O   0  0  0  0  0  0  0  0  0  0  0  0
  2  1  1  0
  3  2  2  0
  4  2  1  0
  5  4  1  0
  6  5  1  0
  7  6  1  0
  8  7  1  0
  8  9  1  6
 10 18  1  0
 10  8  1  0
 11 10  2  0
 13 14  2  0
 13 12  1  0
 15 13  1  0
 16 15  1  0
 17 16  1  6
 17 18  1  0
 19 17  1  0
 20 19  2  0
 21 22  1  0
 21 19  1  0
 23 22  1  0
 24 23  1  0
 24 25  1  0
 25 21  1  0
 26 28  1  0
 25 26  1  1
 27 26  2  0
M  END
$$$$
