RQP.pdb
     RDKit          3D

 28 28  0  0  1  0  0  0  0  0999 V2000
    8.7235  -12.6322   17.7704 N   0  0  0  0  0  0  0  0  0  0  0  0
    8.9627  -13.9988   17.4496 C   0  0  0  0  0  0  0  0  0  0  0  0
    9.0369  -14.3199   16.2010 N   0  0  0  0  0  0  0  0  0  0  0  0
    9.1182  -14.9906   18.4465 N   0  0  0  0  0  0  0  0  0  0  0  0
    8.6106  -14.7530   19.8200 C   0  0  0  0  0  0  0  0  0  0  0  0
    7.1705  -14.3789   19.7640 C   0  0  0  0  0  0  0  0  0  0  0  0
    6.2152  -15.1331   20.5832 C   0  0  0  0  0  0  0  0  0  0  0  0
    6.5986  -16.3805   21.2591 C   0  0  2  0  0  0  0  0  0  0  0  0
    5.4926  -17.3408   20.7975 N   0  0  0  0  0  0  0  0  0  0  0  0
    6.4241  -16.3553   22.7365 C   0  0  0  0  0  0  0  0  0  0  0  0
    5.3220  -16.0882   23.2723 O   0  0  0  0  0  0  0  0  0  0  0  0
    9.2844  -15.2332   15.8124 N   0  0  0  0  0  0  0  0  0  0  0  0
    8.1269  -20.5074   26.5067 C   0  0  0  0  0  0  0  0  0  0  0  0
    7.6456  -19.5647   27.4247 O   0  0  0  0  0  0  0  0  0  0  0  0
    7.5381  -19.8770   28.6262 C   0  0  0  0  0  0  0  0  0  0  0  0
    7.2625  -18.2083   26.9950 C   0  0  0  0  0  0  0  0  0  0  0  0
    7.4680  -17.8837   25.5785 C   0  0  2  0  0  0  0  0  0  0  0  0
    7.2864  -16.4813   25.0972 N   0  0  0  0  0  0  0  0  0  0  0  0
    7.4880  -16.6302   23.6243 C   0  0  0  0  0  0  0  0  0  0  0  0
    8.3295  -15.5295   25.5971 O   0  0  0  0  0  0  0  0  0  0  0  0
    9.4972  -15.9888   25.5257 N   0  0  0  0  0  0  0  0  0  0  0  0
    8.1342  -14.2504   26.1012 C   0  0  0  0  0  0  0  0  0  0  0  0
    7.2858  -13.1780   25.4853 C   0  0  0  0  0  0  0  0  0  0  0  0
    6.4440  -12.7852   26.6660 C   0  0  0  0  0  0  0  0  0  0  0  0
    7.2474  -13.2125   27.9030 C   0  0  2  0  0  0  0  0  0  0  0  0
    8.5998  -13.5457   27.2531 C   0  0  0  0  0  0  0  0  0  0  0  0
    9.5397  -14.0994   28.1696 O   0  0  0  0  0  0  0  0  0  0  0  0
    9.6478  -15.3881   28.2039 O   0  0  0  0  0  0  0  0  0  0  0  0
  2  1  1  0
  3  2  2  0
  4  2  1  0
  5  4  1  0
  6  5  1  0
  7  6  1  0
  8  7  1  0
  8  9  1  6
 10 18  1  0
 10  8  1  0
 11 10  2  0
 13 14  2  0
 13 12  1  0
 15 13  1  0
 16 15  1  0
 17 16  1  6
 17 18  1  0
 19 17  1  0
 20 19  2  0
 21 22  1  0
 21 19  1  0
 23 22  1  0
 24 23  1  0
 24 25  1  0
 25 21  1  0
 26 28  1  0
 25 26  1  1
 27 26  2  0
M  END
$$$$
