RQP.pdb
     RDKit          3D

 28 28  0  0  1  0  0  0  0  0999 V2000
   14.4152  -13.4373   20.5822 N   0  0  0  0  0  0  0  0  0  0  0  0
   14.3902  -14.5917   19.7489 C   0  0  0  0  0  0  0  0  0  0  0  0
   15.2921  -14.6901   18.8298 N   0  0  0  0  0  0  0  0  0  0  0  0
   13.4213  -15.6109   19.9025 N   0  0  0  0  0  0  0  0  0  0  0  0
   12.1170  -15.5113   19.2028 C   0  0  0  0  0  0  0  0  0  0  0  0
   11.2804  -14.4632   19.8497 C   0  0  0  0  0  0  0  0  0  0  0  0
   10.4510  -13.6012   19.0003 C   0  0  0  0  0  0  0  0  0  0  0  0
    9.0485  -13.9294   18.7085 C   0  0  2  0  0  0  0  0  0  0  0  0
    8.4932  -12.5682   18.2643 N   0  0  0  0  0  0  0  0  0  0  0  0
    8.2311  -14.2476   19.9104 C   0  0  0  0  0  0  0  0  0  0  0  0
    7.8889  -13.3668   20.7352 O   0  0  0  0  0  0  0  0  0  0  0  0
   15.4537  -15.4849   18.2065 N   0  0  0  0  0  0  0  0  0  0  0  0
    3.9703  -18.6742   20.3303 C   0  0  0  0  0  0  0  0  0  0  0  0
    4.1817  -18.2723   21.6557 O   0  0  0  0  0  0  0  0  0  0  0  0
    3.2383  -18.3165   22.4687 C   0  0  0  0  0  0  0  0  0  0  0  0
    5.5012  -17.7966   22.1073 C   0  0  0  0  0  0  0  0  0  0  0  0
    6.3361  -17.1225   21.1060 C   0  0  1  0  0  0  0  0  0  0  0  0
    7.0053  -15.8287   21.4368 N   0  0  0  0  0  0  0  0  0  0  0  0
    7.7915  -15.5596   20.1952 C   0  0  0  0  0  0  0  0  0  0  0  0
    7.9794  -15.9232   22.5709 O   0  0  0  0  0  0  0  0  0  0  0  0
    8.7563  -16.9068   22.4788 N   0  0  0  0  0  0  0  0  0  0  0  0
    8.0991  -15.0644   23.6556 C   0  0  0  0  0  0  0  0  0  0  0  0
    7.8427  -13.5869   23.6454 C   0  0  0  0  0  0  0  0  0  0  0  0
    6.9081  -13.4646   24.8152 C   0  0  0  0  0  0  0  0  0  0  0  0
    7.1801  -14.6985   25.6882 C   0  0  2  0  0  0  0  0  0  0  0  0
    8.4627  -15.2279   25.0273 C   0  0  0  0  0  0  0  0  0  0  0  0
    8.8981  -16.4721   25.5679 O   0  0  0  0  0  0  0  0  0  0  0  0
    9.5479  -16.4394   26.6861 O   0  0  0  0  0  0  0  0  0  0  0  0
  2  1  1  0
  3  2  2  0
  4  2  1  0
  5  4  1  0
  6  5  1  0
  7  6  1  0
  8  7  1  0
  8  9  1  1
 10 18  1  0
 10  8  1  0
 11 10  2  0
 13 14  2  0
 13 12  1  0
 15 13  1  0
 16 15  1  0
 17 16  1  6
 17 18  1  0
 19 17  1  0
 20 19  2  0
 21 22  1  0
 21 19  1  0
 23 22  1  0
 24 23  1  0
 24 25  1  0
 25 21  1  0
 26 28  1  0
 25 26  1  6
 27 26  2  0
M  END
$$$$
