RQP.pdb
     RDKit          3D

 28 28  0  0  1  0  0  0  0  0999 V2000
   15.4454  -13.4775   19.3013 N   0  0  0  0  0  0  0  0  0  0  0  0
   14.9616  -14.7971   19.0726 C   0  0  0  0  0  0  0  0  0  0  0  0
   15.8307  -15.7280   18.8585 N   0  0  0  0  0  0  0  0  0  0  0  0
   13.5807  -15.1042   19.0754 N   0  0  0  0  0  0  0  0  0  0  0  0
   12.6161  -14.1954   19.7419 C   0  0  0  0  0  0  0  0  0  0  0  0
   11.2319  -14.7121   19.5579 C   0  0  0  0  0  0  0  0  0  0  0  0
   10.1063  -13.8836   20.0043 C   0  0  0  0  0  0  0  0  0  0  0  0
    8.7182  -14.3564   19.9091 C   0  0  2  0  0  0  0  0  0  0  0  0
    8.0517  -13.2181   19.1226 N   0  0  0  0  0  0  0  0  0  0  0  0
    7.9784  -14.3484   21.2001 C   0  0  0  0  0  0  0  0  0  0  0  0
    7.2462  -13.3891   21.5419 O   0  0  0  0  0  0  0  0  0  0  0  0
   15.6435  -16.7180   18.6818 N   0  0  0  0  0  0  0  0  0  0  0  0
    5.5798  -19.3673   23.6029 C   0  0  0  0  0  0  0  0  0  0  0  0
    5.1531  -18.5124   22.5782 O   0  0  0  0  0  0  0  0  0  0  0  0
    4.3178  -18.9186   21.7476 C   0  0  0  0  0  0  0  0  0  0  0  0
    5.6752  -17.1393   22.4635 C   0  0  0  0  0  0  0  0  0  0  0  0
    6.6821  -16.7330   23.4511 C   0  0  2  0  0  0  0  0  0  0  0  0
    7.2793  -15.3651   23.3932 N   0  0  0  0  0  0  0  0  0  0  0  0
    8.0559  -15.4194   22.1180 C   0  0  0  0  0  0  0  0  0  0  0  0
    8.2514  -15.0814   24.4969 O   0  0  0  0  0  0  0  0  0  0  0  0
    9.1335  -15.9677   24.6230 N   0  0  0  0  0  0  0  0  0  0  0  0
    8.2688  -13.9826   25.3459 C   0  0  0  0  0  0  0  0  0  0  0  0
    7.9082  -12.5746   24.9762 C   0  0  0  0  0  0  0  0  0  0  0  0
    6.9240  -12.2510   26.0641 C   0  0  0  0  0  0  0  0  0  0  0  0
    7.2502  -13.2166   27.2128 C   0  0  2  0  0  0  0  0  0  0  0  0
    8.5912  -13.7860   26.7235 C   0  0  0  0  0  0  0  0  0  0  0  0
    9.0937  -14.8279   27.5553 O   0  0  0  0  0  0  0  0  0  0  0  0
   10.2194  -14.6172   28.1571 O   0  0  0  0  0  0  0  0  0  0  0  0
  2  1  1  0
  3  2  2  0
  4  2  1  0
  5  4  1  0
  6  5  1  0
  7  6  1  0
  8  7  1  0
  8  9  1  6
 10 18  1  0
 10  8  1  0
 11 10  2  0
 13 14  2  0
 13 12  1  0
 15 13  1  0
 16 15  1  0
 17 16  1  6
 17 18  1  0
 19 17  1  0
 20 19  2  0
 21 22  1  0
 21 19  1  0
 23 22  1  0
 24 23  1  0
 24 25  1  0
 25 21  1  0
 26 28  1  0
 25 26  1  6
 27 26  2  0
M  END
$$$$
