RQP.pdb
     RDKit          3D

 28 28  0  0  1  0  0  0  0  0999 V2000
   10.3441  -13.1647   19.3489 N   0  0  0  0  0  0  0  0  0  0  0  0
    9.0364  -13.3951   18.8346 C   0  0  0  0  0  0  0  0  0  0  0  0
    8.9131  -13.5733   17.5615 N   0  0  0  0  0  0  0  0  0  0  0  0
    7.8946  -13.4330   19.6690 N   0  0  0  0  0  0  0  0  0  0  0  0
    7.7391  -14.5157   20.6711 C   0  0  0  0  0  0  0  0  0  0  0  0
    6.3764  -15.1057   20.5635 C   0  0  0  0  0  0  0  0  0  0  0  0
    6.2465  -16.5640   20.4670 C   0  0  0  0  0  0  0  0  0  0  0  0
    6.8533  -17.4577   21.4634 C   0  0  2  0  0  0  0  0  0  0  0  0
    6.0714  -18.7596   21.2353 N   0  0  0  0  0  0  0  0  0  0  0  0
    6.5264  -17.1143   22.8738 C   0  0  0  0  0  0  0  0  0  0  0  0
    5.3897  -17.3195   23.3627 O   0  0  0  0  0  0  0  0  0  0  0  0
    8.0436  -13.5982   17.0233 N   0  0  0  0  0  0  0  0  0  0  0  0
    7.7412  -20.3450   26.7627 C   0  0  0  0  0  0  0  0  0  0  0  0
    7.3459  -19.3321   27.6462 O   0  0  0  0  0  0  0  0  0  0  0  0
    7.2338  -19.5860   28.8610 C   0  0  0  0  0  0  0  0  0  0  0  0
    7.0587  -17.9693   27.1648 C   0  0  0  0  0  0  0  0  0  0  0  0
    7.2616  -17.7205   25.7326 C   0  0  1  0  0  0  0  0  0  0  0  0
    7.1361  -16.3355   25.1876 N   0  0  0  0  0  0  0  0  0  0  0  0
    7.4754  -16.5371   23.7466 C   0  0  0  0  0  0  0  0  0  0  0  0
    8.1335  -15.3702   25.7508 O   0  0  0  0  0  0  0  0  0  0  0  0
    9.2782  -15.8675   25.8991 N   0  0  0  0  0  0  0  0  0  0  0  0
    7.9208  -14.0433   26.1009 C   0  0  0  0  0  0  0  0  0  0  0  0
    6.9261  -13.1127   25.4736 C   0  0  0  0  0  0  0  0  0  0  0  0
    6.2257  -12.5970   26.6986 C   0  0  0  0  0  0  0  0  0  0  0  0
    7.2153  -12.8036   27.8545 C   0  0  2  0  0  0  0  0  0  0  0  0
    8.4877  -13.1595   27.0693 C   0  0  0  0  0  0  0  0  0  0  0  0
    9.5778  -13.5301   27.9085 O   0  0  0  0  0  0  0  0  0  0  0  0
   10.6772  -12.8594   27.7854 O   0  0  0  0  0  0  0  0  0  0  0  0
  2  1  1  0
  3  2  2  0
  4  2  1  0
  5  4  1  0
  6  5  1  0
  7  6  1  0
  8  7  1  0
  8  9  1  6
 10 18  1  0
 10  8  1  0
 11 10  2  0
 13 14  2  0
 13 12  1  0
 15 13  1  0
 16 15  1  0
 17 16  1  6
 17 18  1  0
 19 17  1  0
 20 19  2  0
 21 22  1  0
 21 19  1  0
 23 22  1  0
 24 23  1  0
 24 25  1  0
 25 21  1  0
 26 28  1  0
 25 26  1  1
 27 26  2  0
M  END
$$$$
