RQP.pdb
     RDKit          3D

 28 28  0  0  1  0  0  0  0  0999 V2000
    8.5869  -13.2612   21.1379 N   0  0  0  0  0  0  0  0  0  0  0  0
    8.3707  -12.5438   19.9271 C   0  0  0  0  0  0  0  0  0  0  0  0
    8.3279  -11.2547   19.9908 N   0  0  0  0  0  0  0  0  0  0  0  0
    8.2059  -13.1974   18.6833 N   0  0  0  0  0  0  0  0  0  0  0  0
    8.5519  -14.6331   18.5440 C   0  0  0  0  0  0  0  0  0  0  0  0
    7.4017  -15.4704   18.9832 C   0  0  0  0  0  0  0  0  0  0  0  0
    7.6700  -16.8110   19.5156 C   0  0  0  0  0  0  0  0  0  0  0  0
    8.4064  -17.0061   20.7723 C   0  0  2  0  0  0  0  0  0  0  0  0
    8.5718  -18.5326   20.8059 N   0  0  0  0  0  0  0  0  0  0  0  0
    7.6101  -16.7292   21.9983 C   0  0  0  0  0  0  0  0  0  0  0  0
    6.4218  -17.1115   22.1209 O   0  0  0  0  0  0  0  0  0  0  0  0
    8.1541  -10.6043   19.2207 N   0  0  0  0  0  0  0  0  0  0  0  0
    6.2506  -20.1114   24.9150 C   0  0  0  0  0  0  0  0  0  0  0  0
    6.5813  -19.3746   26.0599 O   0  0  0  0  0  0  0  0  0  0  0  0
    6.0379  -19.6514   27.1465 C   0  0  0  0  0  0  0  0  0  0  0  0
    7.5612  -18.2756   26.0029 C   0  0  0  0  0  0  0  0  0  0  0  0
    7.8083  -17.6814   24.6838 C   0  0  1  0  0  0  0  0  0  0  0  0
    7.5726  -16.2229   24.4630 N   0  0  0  0  0  0  0  0  0  0  0  0
    8.1434  -16.0197   23.0973 C   0  0  0  0  0  0  0  0  0  0  0  0
    8.3334  -15.3376   25.4016 O   0  0  0  0  0  0  0  0  0  0  0  0
    9.3831  -15.8677   25.8449 N   0  0  0  0  0  0  0  0  0  0  0  0
    8.0039  -14.0492   25.8018 C   0  0  0  0  0  0  0  0  0  0  0  0
    7.0386  -13.1302   25.1144 C   0  0  0  0  0  0  0  0  0  0  0  0
    6.1688  -12.7329   26.2731 C   0  0  0  0  0  0  0  0  0  0  0  0
    7.0244  -12.9657   27.5270 C   0  0  2  0  0  0  0  0  0  0  0  0
    8.3995  -13.2042   26.8834 C   0  0  0  0  0  0  0  0  0  0  0  0
    9.4018  -13.5744   27.8260 O   0  0  0  0  0  0  0  0  0  0  0  0
    9.5588  -14.8367   28.0615 O   0  0  0  0  0  0  0  0  0  0  0  0
  2  1  1  0
  3  2  2  0
  4  2  1  0
  5  4  1  0
  6  5  1  0
  7  6  1  0
  8  7  1  0
  8  9  1  1
 10 18  1  0
 10  8  1  0
 11 10  2  0
 13 14  2  0
 13 12  1  0
 15 13  1  0
 16 15  1  0
 17 16  1  6
 17 18  1  0
 19 17  1  0
 20 19  2  0
 21 22  1  0
 21 19  1  0
 23 22  1  0
 24 23  1  0
 24 25  1  0
 25 21  1  0
 26 28  1  0
 25 26  1  1
 27 26  2  0
M  END
$$$$
