RQP.pdb
     RDKit          3D

 28 28  0  0  1  0  0  0  0  0999 V2000
    8.3653  -11.8822   19.2330 N   0  0  0  0  0  0  0  0  0  0  0  0
    8.7519  -13.2508   19.3050 C   0  0  0  0  0  0  0  0  0  0  0  0
    9.4651  -13.7264   18.3391 N   0  0  0  0  0  0  0  0  0  0  0  0
    8.3808  -14.0824   20.3876 N   0  0  0  0  0  0  0  0  0  0  0  0
    7.9657  -15.4853   20.1419 C   0  0  0  0  0  0  0  0  0  0  0  0
    6.4924  -15.5426   19.9344 C   0  0  0  0  0  0  0  0  0  0  0  0
    5.6521  -16.0929   21.0038 C   0  0  0  0  0  0  0  0  0  0  0  0
    6.0599  -17.2797   21.7685 C   0  0  2  0  0  0  0  0  0  0  0  0
    4.8693  -18.2232   21.5432 N   0  0  0  0  0  0  0  0  0  0  0  0
    6.0595  -17.0877   23.2440 C   0  0  0  0  0  0  0  0  0  0  0  0
    5.0056  -16.8625   23.8858 O   0  0  0  0  0  0  0  0  0  0  0  0
    9.8217  -14.6807   18.2474 N   0  0  0  0  0  0  0  0  0  0  0  0
    8.0631  -20.7255   27.2082 C   0  0  0  0  0  0  0  0  0  0  0  0
    7.7313  -19.6703   28.0681 O   0  0  0  0  0  0  0  0  0  0  0  0
    7.7205  -19.8618   29.2994 C   0  0  0  0  0  0  0  0  0  0  0  0
    7.3933  -18.3358   27.5429 C   0  0  0  0  0  0  0  0  0  0  0  0
    7.3956  -18.1827   26.0831 C   0  0  2  0  0  0  0  0  0  0  0  0
    7.2035  -16.8338   25.4709 N   0  0  0  0  0  0  0  0  0  0  0  0
    7.2445  -17.1472   24.0106 C   0  0  0  0  0  0  0  0  0  0  0  0
    8.3196  -15.8757   25.7539 O   0  0  0  0  0  0  0  0  0  0  0  0
    9.4563  -16.3460   25.4966 N   0  0  0  0  0  0  0  0  0  0  0  0
    8.2174  -14.5805   26.2443 C   0  0  0  0  0  0  0  0  0  0  0  0
    7.2223  -13.5467   25.8084 C   0  0  0  0  0  0  0  0  0  0  0  0
    6.6725  -13.1197   27.1396 C   0  0  0  0  0  0  0  0  0  0  0  0
    7.7543  -13.4849   28.1665 C   0  0  2  0  0  0  0  0  0  0  0  0
    8.9236  -13.8232   27.2282 C   0  0  0  0  0  0  0  0  0  0  0  0
   10.0658  -14.3255   27.9162 O   0  0  0  0  0  0  0  0  0  0  0  0
   10.0985  -15.5944   28.1661 O   0  0  0  0  0  0  0  0  0  0  0  0
  2  1  1  0
  3  2  2  0
  4  2  1  0
  5  4  1  0
  6  5  1  0
  7  6  1  0
  8  7  1  0
  8  9  1  1
 10 18  1  0
 10  8  1  0
 11 10  2  0
 13 14  2  0
 13 12  1  0
 15 13  1  0
 16 15  1  0
 17 16  1  1
 17 18  1  0
 19 17  1  0
 20 19  2  0
 21 22  1  0
 21 19  1  0
 23 22  1  0
 24 23  1  0
 24 25  1  0
 25 21  1  0
 26 28  1  0
 25 26  1  1
 27 26  2  0
M  END
$$$$
