RQP.pdb
     RDKit          3D

 28 28  0  0  1  0  0  0  0  0999 V2000
    9.3020  -16.1465   16.9449 N   0  0  0  0  0  0  0  0  0  0  0  0
    8.5886  -15.0244   16.4356 C   0  0  0  0  0  0  0  0  0  0  0  0
    7.7250  -15.2349   15.4987 N   0  0  0  0  0  0  0  0  0  0  0  0
    8.7995  -13.7131   16.9229 N   0  0  0  0  0  0  0  0  0  0  0  0
    8.8381  -13.4578   18.3837 C   0  0  0  0  0  0  0  0  0  0  0  0
    7.4509  -13.3014   18.9014 C   0  0  0  0  0  0  0  0  0  0  0  0
    7.0840  -13.9827   20.1480 C   0  0  0  0  0  0  0  0  0  0  0  0
    8.0972  -14.6078   21.0095 C   0  0  2  0  0  0  0  0  0  0  0  0
    8.0279  -16.0753   20.5622 N   0  0  0  0  0  0  0  0  0  0  0  0
    7.7198  -14.6785   22.4470 C   0  0  0  0  0  0  0  0  0  0  0  0
    7.4348  -13.6537   23.1117 O   0  0  0  0  0  0  0  0  0  0  0  0
    7.2200  -14.5306   14.9554 N   0  0  0  0  0  0  0  0  0  0  0  0
    7.7528  -20.0802   25.6249 C   0  0  0  0  0  0  0  0  0  0  0  0
    7.1266  -19.2369   26.5521 O   0  0  0  0  0  0  0  0  0  0  0  0
    6.8673  -19.6643   27.6935 C   0  0  0  0  0  0  0  0  0  0  0  0
    6.7674  -17.8514   26.2020 C   0  0  0  0  0  0  0  0  0  0  0  0
    7.1755  -17.3812   24.8728 C   0  0  2  0  0  0  0  0  0  0  0  0
    7.2528  -15.9171   24.5871 N   0  0  0  0  0  0  0  0  0  0  0  0
    7.6597  -15.9026   23.1496 C   0  0  0  0  0  0  0  0  0  0  0  0
    8.3194  -15.2046   25.3607 O   0  0  0  0  0  0  0  0  0  0  0  0
    9.3807  -15.8683   25.4723 N   0  0  0  0  0  0  0  0  0  0  0  0
    8.2475  -13.9407   25.9318 C   0  0  0  0  0  0  0  0  0  0  0  0
    7.6732  -12.7128   25.2905 C   0  0  0  0  0  0  0  0  0  0  0  0
    6.7342  -12.2555   26.3703 C   0  0  0  0  0  0  0  0  0  0  0  0
    7.2699  -12.8752   27.6693 C   0  0  2  0  0  0  0  0  0  0  0  0
    8.6376  -13.3858   27.1889 C   0  0  0  0  0  0  0  0  0  0  0  0
    9.3351  -14.1343   28.1804 O   0  0  0  0  0  0  0  0  0  0  0  0
    8.8350  -15.2770   28.5236 O   0  0  0  0  0  0  0  0  0  0  0  0
  2  1  1  0
  3  2  2  0
  4  2  1  0
  5  4  1  0
  6  5  1  0
  7  6  1  0
  8  7  1  0
  8  9  1  6
 10 18  1  0
 10  8  1  0
 11 10  2  0
 13 14  2  0
 13 12  1  0
 15 13  1  0
 16 15  1  0
 17 16  1  6
 17 18  1  0
 19 17  1  0
 20 19  2  0
 21 22  1  0
 21 19  1  0
 23 22  1  0
 24 23  1  0
 24 25  1  0
 25 21  1  0
 26 28  1  0
 25 26  1  1
 27 26  2  0
M  END
$$$$
