QKS.pdb
     RDKit          3D

 25 24  0  0  1  0  0  0  0  0999 V2000
   20.1955  -14.9468  -15.9187 N   0  0  0  0  0  0  0  0  0  0  0  0
   18.8930  -15.1587  -15.3856 C   0  0  0  0  0  0  0  0  0  0  0  0
   18.5278  -16.3445  -15.2687 O   0  0  0  0  0  0  0  0  0  0  0  0
   18.0313  -14.0568  -14.9949 C   0  0  0  0  0  0  0  0  0  0  0  0
   18.5558  -12.6794  -15.1150 C   0  0  0  0  0  0  0  0  0  0  0  0
   18.6073  -12.0780  -16.4701 C   0  0  2  0  0  0  0  0  0  0  0  0
   19.3376  -12.7921  -17.4618 N   0  0  0  0  0  0  0  0  0  0  0  0
   18.9855  -10.6412  -16.4254 C   0  0  0  0  0  0  0  0  0  0  0  0
   20.1919  -10.2694  -16.5632 O   0  0  0  0  0  0  0  0  0  0  0  0
   18.0368   -9.6190  -16.2297 N   0  0  0  0  0  0  0  0  0  0  0  0
   18.3772   -8.2093  -16.2105 C   0  0  1  0  0  0  0  0  0  0  0  0
   17.1621   -7.3536  -16.4014 C   0  0  0  0  0  0  0  0  0  0  0  0
   17.5303   -5.8915  -16.5155 C   0  0  0  0  0  0  0  0  0  0  0  0
   16.2990   -5.0217  -16.6632 C   0  0  0  0  0  0  0  0  0  0  0  0
   16.7406   -3.5708  -16.7980 C   0  0  0  0  0  0  0  0  0  0  0  0
   15.5957   -2.7503  -17.1638 N   0  0  0  0  0  0  0  0  0  0  0  0
   19.1981   -7.8513  -15.0515 C   0  0  0  0  0  0  0  0  0  0  0  0
   18.8660   -8.3189  -13.9245 O   0  0  0  0  0  0  0  0  0  0  0  0
   23.0699   -7.8557  -14.7855 O   0  0  0  0  0  0  0  0  0  0  0  0
   22.1851   -7.8050  -13.7130 C   0  0  0  0  0  0  0  0  0  0  0  0
   21.1442   -6.7117  -13.9307 C   0  0  2  0  0  0  0  0  0  0  0  0
   20.3378   -7.0177  -15.1068 N   0  0  0  0  0  0  0  0  0  0  0  0
   21.8217   -5.4130  -14.1467 C   0  0  0  0  0  0  0  0  0  0  0  0
   21.7151   -4.8229  -15.2355 O   0  0  0  0  0  0  0  0  0  0  0  0
   22.5841   -4.8287  -13.1493 O   0  0  0  0  0  0  0  0  0  0  0  0
  2  1  1  0
  3  2  2  0
  4  2  1  0
  5  4  1  0
  6  8  1  0
  6  5  1  0
  6  7  1  6
  8  9  2  0
 10  8  1  0
 10 11  1  0
 11 12  1  1
 13 12  1  0
 14 13  1  0
 15 14  1  0
 16 15  1  0
 17 22  1  0
 17 11  1  0
 18 17  2  0
 20 19  1  0
 21 23  1  0
 21 20  1  6
 21 22  1  0
 23 25  1  0
 24 23  2  0
M  END
$$$$
