QKS.pdb
     RDKit          3D

 25 24  0  0  1  0  0  0  0  0999 V2000
   20.1811  -13.1489  -20.1590 N   0  0  0  0  0  0  0  0  0  0  0  0
   21.1019  -13.9607  -19.4387 C   0  0  0  0  0  0  0  0  0  0  0  0
   21.6791  -14.8542  -20.0880 O   0  0  0  0  0  0  0  0  0  0  0  0
   21.3610  -13.7626  -18.0235 C   0  0  0  0  0  0  0  0  0  0  0  0
   20.6712  -12.6518  -17.3328 C   0  0  0  0  0  0  0  0  0  0  0  0
   19.4133  -12.9650  -16.6115 C   0  0  2  0  0  0  0  0  0  0  0  0
   18.7485  -14.1705  -16.9743 N   0  0  0  0  0  0  0  0  0  0  0  0
   18.4861  -11.8035  -16.5832 C   0  0  0  0  0  0  0  0  0  0  0  0
   17.8539  -11.4355  -17.6212 O   0  0  0  0  0  0  0  0  0  0  0  0
   18.2572  -11.0516  -15.4148 N   0  0  0  0  0  0  0  0  0  0  0  0
   17.2364  -10.0261  -15.3146 C   0  0  1  0  0  0  0  0  0  0  0  0
   16.2076  -10.3816  -14.2849 C   0  0  0  0  0  0  0  0  0  0  0  0
   14.8555  -10.6228  -14.9174 C   0  0  0  0  0  0  0  0  0  0  0  0
   13.8048  -10.9365  -13.8724 C   0  0  0  0  0  0  0  0  0  0  0  0
   12.4819  -11.2052  -14.5768 C   0  0  0  0  0  0  0  0  0  0  0  0
   11.5085  -11.6856  -13.6075 N   0  0  0  0  0  0  0  0  0  0  0  0
   17.8076   -8.6855  -15.1672 C   0  0  0  0  0  0  0  0  0  0  0  0
   18.7339   -8.5272  -14.3210 O   0  0  0  0  0  0  0  0  0  0  0  0
   18.7573   -4.3743  -17.1224 O   0  0  0  0  0  0  0  0  0  0  0  0
   18.1419   -5.6198  -17.1993 C   0  0  0  0  0  0  0  0  0  0  0  0
   18.0741   -6.2680  -15.8205 C   0  0  2  0  0  0  0  0  0  0  0  0
   17.3937   -7.5551  -15.9072 N   0  0  0  0  0  0  0  0  0  0  0  0
   17.3175   -5.3946  -14.8947 C   0  0  0  0  0  0  0  0  0  0  0  0
   16.2227   -5.7644  -14.4367 O   0  0  0  0  0  0  0  0  0  0  0  0
   17.8070   -4.1548  -14.5194 O   0  0  0  0  0  0  0  0  0  0  0  0
  2  1  1  0
  3  2  2  0
  4  2  1  0
  5  4  1  0
  6  8  1  0
  6  5  1  0
  6  7  1  6
  8  9  2  0
 10  8  1  0
 10 11  1  0
 11 12  1  1
 13 12  1  0
 14 13  1  0
 15 14  1  0
 16 15  1  0
 17 22  1  0
 17 11  1  0
 18 17  2  0
 20 19  1  0
 21 23  1  0
 21 20  1  6
 21 22  1  0
 23 25  1  0
 24 23  2  0
M  END
$$$$
