QKS.pdb
     RDKit          3D

 25 24  0  0  1  0  0  0  0  0999 V2000
   28.7260  -20.7938  -18.5511 N   0  0  0  0  0  0  0  0  0  0  0  0
   29.4774  -21.4368  -17.5276 C   0  0  0  0  0  0  0  0  0  0  0  0
   30.5502  -21.9662  -17.8767 O   0  0  0  0  0  0  0  0  0  0  0  0
   29.0250  -21.4758  -16.1481 C   0  0  0  0  0  0  0  0  0  0  0  0
   27.7255  -20.8519  -15.8180 C   0  0  0  0  0  0  0  0  0  0  0  0
   26.5286  -21.7280  -15.7898 C   0  0  2  0  0  0  0  0  0  0  0  0
   26.3801  -22.6466  -16.8672 N   0  0  0  0  0  0  0  0  0  0  0  0
   25.2827  -20.9573  -15.5382 C   0  0  0  0  0  0  0  0  0  0  0  0
   25.1936  -20.1403  -14.5701 O   0  0  0  0  0  0  0  0  0  0  0  0
   24.1403  -21.0872  -16.3512 N   0  0  0  0  0  0  0  0  0  0  0  0
   22.9094  -20.3563  -16.1183 C   0  0  1  0  0  0  0  0  0  0  0  0
   22.2695  -19.9432  -17.4086 C   0  0  0  0  0  0  0  0  0  0  0  0
   21.0418  -19.0941  -17.1677 C   0  0  0  0  0  0  0  0  0  0  0  0
   20.3832  -18.6927  -18.4713 C   0  0  0  0  0  0  0  0  0  0  0  0
   19.1949  -17.7931  -18.1603 C   0  0  0  0  0  0  0  0  0  0  0  0
   18.5745  -17.3659  -19.4055 N   0  0  0  0  0  0  0  0  0  0  0  0
   22.0155  -21.0539  -15.1912 C   0  0  0  0  0  0  0  0  0  0  0  0
   21.8627  -22.3001  -15.3421 O   0  0  0  0  0  0  0  0  0  0  0  0
   21.3630  -20.1800  -11.2692 O   0  0  0  0  0  0  0  0  0  0  0  0
   21.1077  -21.3930  -11.9010 C   0  0  0  0  0  0  0  0  0  0  0  0
   20.4224  -21.1620  -13.2438 C   0  0  2  0  0  0  0  0  0  0  0  0
   21.3111  -20.4285  -14.1379 N   0  0  0  0  0  0  0  0  0  0  0  0
   19.1897  -20.3662  -13.0449 C   0  0  0  0  0  0  0  0  0  0  0  0
   18.2651  -20.8064  -12.3403 O   0  0  0  0  0  0  0  0  0  0  0  0
   19.0379  -19.1223  -13.6342 O   0  0  0  0  0  0  0  0  0  0  0  0
  2  1  1  0
  3  2  2  0
  4  2  1  0
  5  4  1  0
  6  8  1  0
  6  5  1  0
  6  7  1  6
  8  9  2  0
 10  8  1  0
 10 11  1  0
 11 12  1  6
 13 12  1  0
 14 13  1  0
 15 14  1  0
 16 15  1  0
 17 22  1  0
 17 11  1  0
 18 17  2  0
 20 19  1  0
 21 23  1  0
 21 20  1  1
 21 22  1  0
 23 25  1  0
 24 23  2  0
M  END
$$$$
