QKS.pdb
     RDKit          3D

 25 24  0  0  1  0  0  0  0  0999 V2000
   23.7197  -20.4850  -10.1872 N   0  0  0  0  0  0  0  0  0  0  0  0
   24.8219  -20.8618   -9.3694 C   0  0  0  0  0  0  0  0  0  0  0  0
   24.5464  -21.4308   -8.2954 O   0  0  0  0  0  0  0  0  0  0  0  0
   26.1962  -20.6022   -9.7604 C   0  0  0  0  0  0  0  0  0  0  0  0
   26.4406  -19.8820  -11.0286 C   0  0  0  0  0  0  0  0  0  0  0  0
   26.4905  -20.6828  -12.2765 C   0  0  2  0  0  0  0  0  0  0  0  0
   27.5841  -21.5832  -12.4180 N   0  0  0  0  0  0  0  0  0  0  0  0
   26.3033  -19.8383  -13.4854 C   0  0  0  0  0  0  0  0  0  0  0  0
   25.3455  -19.0091  -13.5720 O   0  0  0  0  0  0  0  0  0  0  0  0
   27.1691  -19.9084  -14.5937 N   0  0  0  0  0  0  0  0  0  0  0  0
   27.0267  -19.0719  -15.7700 C   0  0  1  0  0  0  0  0  0  0  0  0
   28.3023  -19.0139  -16.5539 C   0  0  0  0  0  0  0  0  0  0  0  0
   28.1694  -18.1066  -17.7562 C   0  0  0  0  0  0  0  0  0  0  0  0
   29.4158  -17.2699  -17.9574 C   0  0  0  0  0  0  0  0  0  0  0  0
   29.1941  -16.3427  -19.1445 C   0  0  0  0  0  0  0  0  0  0  0  0
   30.3249  -15.4346  -19.2651 N   0  0  0  0  0  0  0  0  0  0  0  0
   25.8424  -19.4188  -16.5589 C   0  0  0  0  0  0  0  0  0  0  0  0
   25.6002  -20.6445  -16.7543 O   0  0  0  0  0  0  0  0  0  0  0  0
   22.9190  -20.2441  -19.6061 O   0  0  0  0  0  0  0  0  0  0  0  0
   24.0556  -19.9276  -18.8687 C   0  0  0  0  0  0  0  0  0  0  0  0
   23.7342  -18.8669  -17.8211 C   0  0  2  0  0  0  0  0  0  0  0  0
   24.9505  -18.4759  -17.1175 N   0  0  0  0  0  0  0  0  0  0  0  0
   22.7729  -19.4128  -16.8361 C   0  0  0  0  0  0  0  0  0  0  0  0
   23.1569  -20.2001  -15.9541 O   0  0  0  0  0  0  0  0  0  0  0  0
   21.4337  -19.0626  -16.8729 O   0  0  0  0  0  0  0  0  0  0  0  0
  2  1  1  0
  3  2  2  0
  4  2  1  0
  5  4  1  0
  6  8  1  0
  6  5  1  0
  6  7  1  6
  8  9  2  0
 10  8  1  0
 10 11  1  0
 11 12  1  6
 13 12  1  0
 14 13  1  0
 15 14  1  0
 16 15  1  0
 17 22  1  0
 17 11  1  0
 18 17  2  0
 20 19  1  0
 21 23  1  0
 21 20  1  6
 21 22  1  0
 23 25  1  0
 24 23  2  0
M  END
$$$$
