QKS.pdb
     RDKit          3D

 25 24  0  0  1  0  0  0  0  0999 V2000
   16.7056  -15.5457  -13.4694 N   0  0  0  0  0  0  0  0  0  0  0  0
   16.7070  -16.4089  -14.6010 C   0  0  0  0  0  0  0  0  0  0  0  0
   16.1211  -17.5006  -14.4664 O   0  0  0  0  0  0  0  0  0  0  0  0
   17.3529  -16.0426  -15.8492 C   0  0  0  0  0  0  0  0  0  0  0  0
   18.0841  -14.7587  -15.9103 C   0  0  0  0  0  0  0  0  0  0  0  0
   18.8386  -14.4544  -17.1508 C   0  0  2  0  0  0  0  0  0  0  0  0
   19.7686  -15.4371  -17.5936 N   0  0  0  0  0  0  0  0  0  0  0  0
   19.4380  -13.0946  -17.1162 C   0  0  0  0  0  0  0  0  0  0  0  0
   20.5753  -12.8856  -16.5914 O   0  0  0  0  0  0  0  0  0  0  0  0
   18.7856  -11.9706  -17.6583 N   0  0  0  0  0  0  0  0  0  0  0  0
   19.3558  -10.6370  -17.6484 C   0  0  1  0  0  0  0  0  0  0  0  0
   18.7146   -9.7636  -18.6834 C   0  0  0  0  0  0  0  0  0  0  0  0
   19.1582  -10.1450  -20.0777 C   0  0  0  0  0  0  0  0  0  0  0  0
   18.1957   -9.6250  -21.1253 C   0  0  0  0  0  0  0  0  0  0  0  0
   18.6916  -10.0551  -22.4991 C   0  0  0  0  0  0  0  0  0  0  0  0
   17.6572   -9.7935  -23.4888 N   0  0  0  0  0  0  0  0  0  0  0  0
   19.3948  -10.0589  -16.3032 C   0  0  0  0  0  0  0  0  0  0  0  0
   18.4220  -10.2940  -15.5302 O   0  0  0  0  0  0  0  0  0  0  0  0
   22.3695   -7.3411  -14.8960 O   0  0  0  0  0  0  0  0  0  0  0  0
   21.8658   -8.3243  -14.0501 C   0  0  0  0  0  0  0  0  0  0  0  0
   20.4465   -8.7045  -14.4589 C   0  0  2  0  0  0  0  0  0  0  0  0
   20.4468   -9.2551  -15.8094 N   0  0  0  0  0  0  0  0  0  0  0  0
   19.5820   -7.5026  -14.4385 C   0  0  0  0  0  0  0  0  0  0  0  0
   19.1283   -7.0377  -15.4983 O   0  0  0  0  0  0  0  0  0  0  0  0
   19.2603   -6.8723  -13.2483 O   0  0  0  0  0  0  0  0  0  0  0  0
  2  1  1  0
  3  2  2  0
  4  2  1  0
  5  4  1  0
  6  8  1  0
  6  5  1  0
  6  7  1  1
  8  9  2  0
 10  8  1  0
 10 11  1  0
 11 12  1  6
 13 12  1  0
 14 13  1  0
 15 14  1  0
 16 15  1  0
 17 22  1  0
 17 11  1  0
 18 17  2  0
 20 19  1  0
 21 23  1  0
 21 20  1  6
 21 22  1  0
 23 25  1  0
 24 23  2  0
M  END
$$$$
