QKS.pdb
     RDKit          3D

 25 24  0  0  1  0  0  0  0  0999 V2000
   20.8304  -13.3929  -16.3030 N   0  0  0  0  0  0  0  0  0  0  0  0
   19.6781  -13.9675  -16.9093 C   0  0  0  0  0  0  0  0  0  0  0  0
   19.6643  -15.2099  -17.0073 O   0  0  0  0  0  0  0  0  0  0  0  0
   18.5732  -13.1558  -17.3884 C   0  0  0  0  0  0  0  0  0  0  0  0
   18.6374  -11.6926  -17.1839 C   0  0  0  0  0  0  0  0  0  0  0  0
   18.2377  -11.1648  -15.8563 C   0  0  2  0  0  0  0  0  0  0  0  0
   16.9678  -11.5733  -15.3591 N   0  0  0  0  0  0  0  0  0  0  0  0
   18.4253   -9.6931  -15.7649 C   0  0  0  0  0  0  0  0  0  0  0  0
   19.2411   -9.0814  -16.5218 O   0  0  0  0  0  0  0  0  0  0  0  0
   17.7160   -8.8998  -14.8427 N   0  0  0  0  0  0  0  0  0  0  0  0
   17.8885   -7.4643  -14.7284 C   0  0  1  0  0  0  0  0  0  0  0  0
   16.6511   -6.8083  -14.1960 C   0  0  0  0  0  0  0  0  0  0  0  0
   15.4827   -6.9890  -15.1386 C   0  0  0  0  0  0  0  0  0  0  0  0
   14.2535   -6.2565  -14.6417 C   0  0  0  0  0  0  0  0  0  0  0  0
   13.1089   -6.5104  -15.6130 C   0  0  0  0  0  0  0  0  0  0  0  0
   11.8840   -5.9373  -15.0753 N   0  0  0  0  0  0  0  0  0  0  0  0
   19.1199   -7.1070  -14.0204 C   0  0  0  0  0  0  0  0  0  0  0  0
   19.2565   -7.5122  -12.8303 O   0  0  0  0  0  0  0  0  0  0  0  0
   22.6822   -6.1416  -15.8322 O   0  0  0  0  0  0  0  0  0  0  0  0
   22.5983   -6.5873  -14.5169 C   0  0  0  0  0  0  0  0  0  0  0  0
   21.3719   -5.9959  -13.8298 C   0  0  2  0  0  0  0  0  0  0  0  0
   20.1673   -6.3390  -14.5771 N   0  0  0  0  0  0  0  0  0  0  0  0
   21.4916   -4.5211  -13.7771 C   0  0  0  0  0  0  0  0  0  0  0  0
   20.7069   -3.8042  -14.4217 O   0  0  0  0  0  0  0  0  0  0  0  0
   22.4724   -3.9093  -13.0147 O   0  0  0  0  0  0  0  0  0  0  0  0
  2  1  1  0
  3  2  2  0
  4  2  1  0
  5  4  1  0
  6  8  1  0
  6  5  1  0
  6  7  1  6
  8  9  2  0
 10  8  1  0
 10 11  1  0
 11 12  1  1
 13 12  1  0
 14 13  1  0
 15 14  1  0
 16 15  1  0
 17 22  1  0
 17 11  1  0
 18 17  2  0
 20 19  1  0
 21 23  1  0
 21 20  1  6
 21 22  1  0
 23 25  1  0
 24 23  2  0
M  END
$$$$
