QKS.pdb
     RDKit          3D

 25 24  0  0  1  0  0  0  0  0999 V2000
   25.3040  -23.7433  -14.1293 N   0  0  0  0  0  0  0  0  0  0  0  0
   26.0987  -22.8556  -14.9078 C   0  0  0  0  0  0  0  0  0  0  0  0
   27.3281  -22.8909  -14.7067 O   0  0  0  0  0  0  0  0  0  0  0  0
   25.5149  -21.9558  -15.8871 C   0  0  0  0  0  0  0  0  0  0  0  0
   24.0491  -21.9843  -16.0798 C   0  0  0  0  0  0  0  0  0  0  0  0
   23.3221  -20.6923  -16.0240 C   0  0  2  0  0  0  0  0  0  0  0  0
   24.0373  -19.5753  -15.5068 N   0  0  0  0  0  0  0  0  0  0  0  0
   21.9825  -20.8362  -15.3959 C   0  0  0  0  0  0  0  0  0  0  0  0
   21.1912  -21.7713  -15.7306 O   0  0  0  0  0  0  0  0  0  0  0  0
   21.5181  -19.9523  -14.4028 N   0  0  0  0  0  0  0  0  0  0  0  0
   20.2287  -20.0905  -13.7532 C   0  0  1  0  0  0  0  0  0  0  0  0
   20.3648  -20.0572  -12.2615 C   0  0  0  0  0  0  0  0  0  0  0  0
   20.0455  -21.4023  -11.6490 C   0  0  0  0  0  0  0  0  0  0  0  0
   20.2601  -21.3915  -10.1496 C   0  0  0  0  0  0  0  0  0  0  0  0
   20.0220  -22.7964   -9.6131 C   0  0  0  0  0  0  0  0  0  0  0  0
   20.3010  -22.8210   -8.1850 N   0  0  0  0  0  0  0  0  0  0  0  0
   19.2314  -19.1643  -14.2945 C   0  0  0  0  0  0  0  0  0  0  0  0
   19.3895  -17.9294  -14.0728 O   0  0  0  0  0  0  0  0  0  0  0  0
   15.7962  -20.4015  -16.4156 O   0  0  0  0  0  0  0  0  0  0  0  0
   16.3849  -19.1853  -16.7474 C   0  0  0  0  0  0  0  0  0  0  0  0
   17.1189  -18.6015  -15.5447 C   0  0  2  0  0  0  0  0  0  0  0  0
   18.1029  -19.5571  -15.0487 N   0  0  0  0  0  0  0  0  0  0  0  0
   16.1519  -18.3132  -14.4611 C   0  0  0  0  0  0  0  0  0  0  0  0
   16.2205  -18.9228  -13.3800 O   0  0  0  0  0  0  0  0  0  0  0  0
   15.1558  -17.3653  -14.6242 O   0  0  0  0  0  0  0  0  0  0  0  0
  2  1  1  0
  3  2  2  0
  4  2  1  0
  5  4  1  0
  6  8  1  0
  6  5  1  0
  6  7  1  1
  8  9  2  0
 10  8  1  0
 10 11  1  0
 11 12  1  1
 13 12  1  0
 14 13  1  0
 15 14  1  0
 16 15  1  0
 17 22  1  0
 17 11  1  0
 18 17  2  0
 20 19  1  0
 21 23  1  0
 21 20  1  6
 21 22  1  0
 23 25  1  0
 24 23  2  0
M  END
$$$$
