QKS.pdb
     RDKit          3D

 25 24  0  0  1  0  0  0  0  0999 V2000
   19.9502  -19.3781  -13.2574 N   0  0  0  0  0  0  0  0  0  0  0  0
   21.2915  -19.7729  -13.5232 C   0  0  0  0  0  0  0  0  0  0  0  0
   21.8628  -20.4305  -12.6320 O   0  0  0  0  0  0  0  0  0  0  0  0
   21.9635  -19.4329  -14.7650 C   0  0  0  0  0  0  0  0  0  0  0  0
   21.2568  -18.5630  -15.7297 C   0  0  0  0  0  0  0  0  0  0  0  0
   21.9499  -18.2392  -17.0008 C   0  0  2  0  0  0  0  0  0  0  0  0
   23.3305  -18.5769  -17.0830 N   0  0  0  0  0  0  0  0  0  0  0  0
   21.6909  -16.8409  -17.4333 C   0  0  0  0  0  0  0  0  0  0  0  0
   22.6321  -15.9947  -17.5367 O   0  0  0  0  0  0  0  0  0  0  0  0
   20.3993  -16.3783  -17.7505 N   0  0  0  0  0  0  0  0  0  0  0  0
   20.1365  -15.0593  -18.2935 C   0  0  1  0  0  0  0  0  0  0  0  0
   18.7646  -14.9802  -18.8906 C   0  0  0  0  0  0  0  0  0  0  0  0
   18.4917  -13.6082  -19.4645 C   0  0  0  0  0  0  0  0  0  0  0  0
   18.6502  -13.5978  -20.9708 C   0  0  0  0  0  0  0  0  0  0  0  0
   18.3436  -12.1973  -21.4835 C   0  0  0  0  0  0  0  0  0  0  0  0
   17.0219  -11.7950  -21.0262 N   0  0  0  0  0  0  0  0  0  0  0  0
   20.4476  -13.9929  -17.3389 C   0  0  0  0  0  0  0  0  0  0  0  0
   20.1717  -14.1908  -16.1207 O   0  0  0  0  0  0  0  0  0  0  0  0
   23.7791  -12.0590  -16.7965 O   0  0  0  0  0  0  0  0  0  0  0  0
   22.7578  -11.1461  -17.0402 C   0  0  0  0  0  0  0  0  0  0  0  0
   21.4033  -11.7545  -16.6921 C   0  0  2  0  0  0  0  0  0  0  0  0
   21.0359  -12.7561  -17.6866 N   0  0  0  0  0  0  0  0  0  0  0  0
   20.3680  -10.6960  -16.6823 C   0  0  0  0  0  0  0  0  0  0  0  0
   19.3938  -10.7636  -17.4513 O   0  0  0  0  0  0  0  0  0  0  0  0
   20.4590   -9.6137  -15.8233 O   0  0  0  0  0  0  0  0  0  0  0  0
  2  1  1  0
  3  2  2  0
  4  2  1  0
  5  4  1  0
  6  8  1  0
  6  5  1  0
  6  7  1  1
  8  9  2  0
 10  8  1  0
 10 11  1  0
 11 12  1  1
 13 12  1  0
 14 13  1  0
 15 14  1  0
 16 15  1  0
 17 22  1  0
 17 11  1  0
 18 17  2  0
 20 19  1  0
 21 23  1  0
 21 20  1  6
 21 22  1  0
 23 25  1  0
 24 23  2  0
M  END
$$$$
