QKS.pdb
     RDKit          3D

 25 24  0  0  1  0  0  0  0  0999 V2000
   17.6144  -30.2479  -15.2016 N   0  0  0  0  0  0  0  0  0  0  0  0
   18.2869  -31.1581  -14.3386 C   0  0  0  0  0  0  0  0  0  0  0  0
   18.1016  -32.3707  -14.5588 O   0  0  0  0  0  0  0  0  0  0  0  0
   19.1457  -30.7051  -13.2586 C   0  0  0  0  0  0  0  0  0  0  0  0
   19.4175  -29.2564  -13.1391 C   0  0  0  0  0  0  0  0  0  0  0  0
   20.5107  -28.6905  -13.9671 C   0  0  2  0  0  0  0  0  0  0  0  0
   21.8090  -29.2445  -13.7815 N   0  0  0  0  0  0  0  0  0  0  0  0
   20.5269  -27.2047  -13.9242 C   0  0  0  0  0  0  0  0  0  0  0  0
   20.6023  -26.5749  -12.8241 O   0  0  0  0  0  0  0  0  0  0  0  0
   20.4606  -26.4175  -15.0898 N   0  0  0  0  0  0  0  0  0  0  0  0
   20.5407  -24.9693  -15.0787 C   0  0  1  0  0  0  0  0  0  0  0  0
   21.4594  -24.4671  -16.1504 C   0  0  0  0  0  0  0  0  0  0  0  0
   21.5196  -22.9562  -16.1611 C   0  0  0  0  0  0  0  0  0  0  0  0
   22.4063  -22.4465  -17.2784 C   0  0  0  0  0  0  0  0  0  0  0  0
   22.3700  -20.9244  -17.2735 C   0  0  0  0  0  0  0  0  0  0  0  0
   23.1769  -20.4192  -18.3742 N   0  0  0  0  0  0  0  0  0  0  0  0
   19.2184  -24.3395  -15.0657 C   0  0  0  0  0  0  0  0  0  0  0  0
   18.3944  -24.6758  -15.9640 O   0  0  0  0  0  0  0  0  0  0  0  0
   15.8793  -21.5267  -12.8960 O   0  0  0  0  0  0  0  0  0  0  0  0
   17.1205  -22.1522  -12.8331 C   0  0  0  0  0  0  0  0  0  0  0  0
   17.5110  -22.7028  -14.2007 C   0  0  2  0  0  0  0  0  0  0  0  0
   18.7999  -23.3801  -14.1164 N   0  0  0  0  0  0  0  0  0  0  0  0
   17.6233  -21.5917  -15.1729 C   0  0  0  0  0  0  0  0  0  0  0  0
   18.6536  -20.8975  -15.2164 O   0  0  0  0  0  0  0  0  0  0  0  0
   16.5921  -21.3010  -16.0501 O   0  0  0  0  0  0  0  0  0  0  0  0
  2  1  1  0
  3  2  2  0
  4  2  1  0
  5  4  1  0
  6  8  1  0
  6  5  1  0
  6  7  1  1
  8  9  2  0
 10  8  1  0
 10 11  1  0
 11 12  1  6
 13 12  1  0
 14 13  1  0
 15 14  1  0
 16 15  1  0
 17 22  1  0
 17 11  1  0
 18 17  2  0
 20 19  1  0
 21 23  1  0
 21 20  1  1
 21 22  1  0
 23 25  1  0
 24 23  2  0
M  END
$$$$
