QKS.pdb
     RDKit          3D

 25 24  0  0  1  0  0  0  0  0999 V2000
   22.2186   -6.4568  -11.2853 N   0  0  0  0  0  0  0  0  0  0  0  0
   21.1846   -5.9180  -12.1016 C   0  0  0  0  0  0  0  0  0  0  0  0
   21.2404   -4.6945  -12.3315 O   0  0  0  0  0  0  0  0  0  0  0  0
   20.1198   -6.7445  -12.6424 C   0  0  0  0  0  0  0  0  0  0  0  0
   20.1349   -8.1926  -12.3431 C   0  0  0  0  0  0  0  0  0  0  0  0
   18.9566   -8.9934  -12.7567 C   0  0  2  0  0  0  0  0  0  0  0  0
   18.8071   -9.2426  -14.1504 N   0  0  0  0  0  0  0  0  0  0  0  0
   17.7002   -8.4898  -12.1423 C   0  0  0  0  0  0  0  0  0  0  0  0
   17.0136   -7.5750  -12.6939 O   0  0  0  0  0  0  0  0  0  0  0  0
   17.2035   -8.9934  -10.9246 N   0  0  0  0  0  0  0  0  0  0  0  0
   15.9823   -8.5165  -10.3042 C   0  0  1  0  0  0  0  0  0  0  0  0
   15.2596   -9.6257   -9.6026 C   0  0  0  0  0  0  0  0  0  0  0  0
   14.3599  -10.3844  -10.5521 C   0  0  0  0  0  0  0  0  0  0  0  0
   13.5038  -11.3931   -9.8147 C   0  0  0  0  0  0  0  0  0  0  0  0
   12.5178  -12.0075  -10.7989 C   0  0  0  0  0  0  0  0  0  0  0  0
   11.7084  -13.0033  -10.1124 N   0  0  0  0  0  0  0  0  0  0  0  0
   16.2038   -7.3214   -9.4870 C   0  0  0  0  0  0  0  0  0  0  0  0
   17.1214   -7.3612   -8.6177 O   0  0  0  0  0  0  0  0  0  0  0  0
   14.6855   -3.6111  -10.4722 O   0  0  0  0  0  0  0  0  0  0  0  0
   15.8088   -3.7060   -9.6568 C   0  0  0  0  0  0  0  0  0  0  0  0
   15.7287   -4.9514   -8.7801 C   0  0  2  0  0  0  0  0  0  0  0  0
   15.4611   -6.1250   -9.6037 N   0  0  0  0  0  0  0  0  0  0  0  0
   14.6298   -4.8018   -7.7991 C   0  0  0  0  0  0  0  0  0  0  0  0
   13.6576   -5.5760   -7.8225 O   0  0  0  0  0  0  0  0  0  0  0  0
   14.6579   -3.8038   -6.8395 O   0  0  0  0  0  0  0  0  0  0  0  0
  2  1  1  0
  3  2  2  0
  4  2  1  0
  5  4  1  0
  6  8  1  0
  6  5  1  0
  6  7  1  6
  8  9  2  0
 10  8  1  0
 10 11  1  0
 11 12  1  1
 13 12  1  0
 14 13  1  0
 15 14  1  0
 16 15  1  0
 17 22  1  0
 17 11  1  0
 18 17  2  0
 20 19  1  0
 21 23  1  0
 21 20  1  6
 21 22  1  0
 23 25  1  0
 24 23  2  0
M  END
$$$$
