QKS.pdb
     RDKit          3D

 25 24  0  0  1  0  0  0  0  0999 V2000
   23.3168  -23.8509  -17.1631 N   0  0  0  0  0  0  0  0  0  0  0  0
   22.7029  -22.7979  -16.4282 C   0  0  0  0  0  0  0  0  0  0  0  0
   23.4330  -22.1810  -15.6285 O   0  0  0  0  0  0  0  0  0  0  0  0
   21.3020  -22.4544  -16.5975 C   0  0  0  0  0  0  0  0  0  0  0  0
   20.2908  -23.2568  -15.8760 C   0  0  0  0  0  0  0  0  0  0  0  0
   20.7767  -24.2380  -14.8751 C   0  0  2  0  0  0  0  0  0  0  0  0
   21.4584  -25.3826  -15.3770 N   0  0  0  0  0  0  0  0  0  0  0  0
   19.7185  -24.6033  -13.8972 C   0  0  0  0  0  0  0  0  0  0  0  0
   18.7031  -25.2828  -14.2433 O   0  0  0  0  0  0  0  0  0  0  0  0
   19.7805  -24.2207  -12.5434 N   0  0  0  0  0  0  0  0  0  0  0  0
   18.7862  -24.6063  -11.5603 C   0  0  1  0  0  0  0  0  0  0  0  0
   19.3691  -24.6368  -10.1803 C   0  0  0  0  0  0  0  0  0  0  0  0
   18.3556  -25.1139   -9.1646 C   0  0  0  0  0  0  0  0  0  0  0  0
   18.9313  -25.1053   -7.7636 C   0  0  0  0  0  0  0  0  0  0  0  0
   17.8462  -25.5400   -6.7881 C   0  0  0  0  0  0  0  0  0  0  0  0
   18.3828  -25.5329   -5.4353 N   0  0  0  0  0  0  0  0  0  0  0  0
   17.5519  -23.8275  -11.6829 C   0  0  0  0  0  0  0  0  0  0  0  0
   17.6498  -22.5676  -11.7291 O   0  0  0  0  0  0  0  0  0  0  0  0
   13.3030  -23.1797  -13.5571 O   0  0  0  0  0  0  0  0  0  0  0  0
   14.5045  -23.8565  -13.3721 C   0  0  0  0  0  0  0  0  0  0  0  0
   15.0631  -23.5821  -11.9797 C   0  0  2  0  0  0  0  0  0  0  0  0
   16.2570  -24.3887  -11.7532 N   0  0  0  0  0  0  0  0  0  0  0  0
   14.0523  -23.9361  -10.9574 C   0  0  0  0  0  0  0  0  0  0  0  0
   13.3763  -23.0484  -10.4094 O   0  0  0  0  0  0  0  0  0  0  0  0
   13.8371  -25.2536  -10.5896 O   0  0  0  0  0  0  0  0  0  0  0  0
  2  1  1  0
  3  2  2  0
  4  2  1  0
  5  4  1  0
  6  8  1  0
  6  5  1  0
  6  7  1  6
  8  9  2  0
 10  8  1  0
 10 11  1  0
 11 12  1  1
 13 12  1  0
 14 13  1  0
 15 14  1  0
 16 15  1  0
 17 22  1  0
 17 11  1  0
 18 17  2  0
 20 19  1  0
 21 23  1  0
 21 20  1  6
 21 22  1  0
 23 25  1  0
 24 23  2  0
M  END
$$$$
