QKS.pdb
     RDKit          3D

 25 24  0  0  1  0  0  0  0  0999 V2000
   27.3735  -25.7870  -16.2748 N   0  0  0  0  0  0  0  0  0  0  0  0
   28.7239  -25.9339  -16.6997 C   0  0  0  0  0  0  0  0  0  0  0  0
   29.5239  -25.0585  -16.3168 O   0  0  0  0  0  0  0  0  0  0  0  0
   29.1535  -27.0430  -17.5331 C   0  0  0  0  0  0  0  0  0  0  0  0
   28.1906  -28.1328  -17.8016 C   0  0  0  0  0  0  0  0  0  0  0  0
   27.9788  -29.1426  -16.7357 C   0  0  2  0  0  0  0  0  0  0  0  0
   29.1062  -29.9278  -16.3624 N   0  0  0  0  0  0  0  0  0  0  0  0
   26.7777  -29.9791  -16.9947 C   0  0  0  0  0  0  0  0  0  0  0  0
   25.7995  -29.5405  -17.6754 O   0  0  0  0  0  0  0  0  0  0  0  0
   26.6564  -31.2938  -16.5050 N   0  0  0  0  0  0  0  0  0  0  0  0
   25.5857  -32.1925  -16.8920 C   0  0  1  0  0  0  0  0  0  0  0  0
   25.9065  -32.9011  -18.1726 C   0  0  0  0  0  0  0  0  0  0  0  0
   24.7784  -33.8157  -18.5938 C   0  0  0  0  0  0  0  0  0  0  0  0
   25.1198  -34.5648  -19.8651 C   0  0  0  0  0  0  0  0  0  0  0  0
   23.9848  -35.5288  -20.1826 C   0  0  0  0  0  0  0  0  0  0  0  0
   24.3471  -36.3367  -21.3376 N   0  0  0  0  0  0  0  0  0  0  0  0
   25.1748  -33.0724  -15.7956 C   0  0  0  0  0  0  0  0  0  0  0  0
   26.0623  -33.7856  -15.2454 O   0  0  0  0  0  0  0  0  0  0  0  0
   21.7955  -34.3804  -12.5202 O   0  0  0  0  0  0  0  0  0  0  0  0
   22.1374  -33.5984  -13.6190 C   0  0  0  0  0  0  0  0  0  0  0  0
   23.5017  -34.0092  -14.1630 C   0  0  2  0  0  0  0  0  0  0  0  0
   23.8522  -33.1789  -15.3097 N   0  0  0  0  0  0  0  0  0  0  0  0
   23.4604  -35.4238  -14.5986 C   0  0  0  0  0  0  0  0  0  0  0  0
   23.0443  -35.7197  -15.7319 O   0  0  0  0  0  0  0  0  0  0  0  0
   23.8807  -36.4432  -13.7610 O   0  0  0  0  0  0  0  0  0  0  0  0
  2  1  1  0
  3  2  2  0
  4  2  1  0
  5  4  1  0
  6  8  1  0
  6  5  1  0
  6  7  1  6
  8  9  2  0
 10  8  1  0
 10 11  1  0
 11 12  1  6
 13 12  1  0
 14 13  1  0
 15 14  1  0
 16 15  1  0
 17 22  1  0
 17 11  1  0
 18 17  2  0
 20 19  1  0
 21 23  1  0
 21 20  1  6
 21 22  1  0
 23 25  1  0
 24 23  2  0
M  END
$$$$
