QKS.pdb
     RDKit          3D

 25 24  0  0  1  0  0  0  0  0999 V2000
   25.7069  -22.3312  -10.9024 N   0  0  0  0  0  0  0  0  0  0  0  0
   24.8796  -21.3607  -10.2705 C   0  0  0  0  0  0  0  0  0  0  0  0
   24.5193  -21.6138   -9.1047 O   0  0  0  0  0  0  0  0  0  0  0  0
   24.4748  -20.1382  -10.9419 C   0  0  0  0  0  0  0  0  0  0  0  0
   24.7604  -20.0036  -12.3866 C   0  0  0  0  0  0  0  0  0  0  0  0
   23.6264  -20.1610  -13.3301 C   0  0  2  0  0  0  0  0  0  0  0  0
   22.6514  -21.1456  -13.0032 N   0  0  0  0  0  0  0  0  0  0  0  0
   24.0884  -20.2794  -14.7379 C   0  0  0  0  0  0  0  0  0  0  0  0
   24.9287  -19.4643  -15.2298 O   0  0  0  0  0  0  0  0  0  0  0  0
   23.6254  -21.2928  -15.5991 N   0  0  0  0  0  0  0  0  0  0  0  0
   24.1158  -21.4741  -16.9520 C   0  0  1  0  0  0  0  0  0  0  0  0
   24.0031  -22.9042  -17.3844 C   0  0  0  0  0  0  0  0  0  0  0  0
   24.9029  -23.8005  -16.5638 C   0  0  0  0  0  0  0  0  0  0  0  0
   24.7917  -25.2459  -17.0027 C   0  0  0  0  0  0  0  0  0  0  0  0
   25.8072  -26.0712  -16.2242 C   0  0  0  0  0  0  0  0  0  0  0  0
   25.6975  -27.4678  -16.6184 N   0  0  0  0  0  0  0  0  0  0  0  0
   23.5365  -20.5075  -17.8876 C   0  0  0  0  0  0  0  0  0  0  0  0
   22.2875  -20.3153  -17.8412 O   0  0  0  0  0  0  0  0  0  0  0  0
   24.7721  -16.9366  -18.4601 O   0  0  0  0  0  0  0  0  0  0  0  0
   23.5275  -17.4481  -18.8136 C   0  0  0  0  0  0  0  0  0  0  0  0
   23.6880  -18.7140  -19.6490 C   0  0  2  0  0  0  0  0  0  0  0  0
   24.2790  -19.7740  -18.8401 N   0  0  0  0  0  0  0  0  0  0  0  0
   24.5804  -18.4435  -20.7991 C   0  0  0  0  0  0  0  0  0  0  0  0
   25.6590  -19.0507  -20.9131 O   0  0  0  0  0  0  0  0  0  0  0  0
   24.2382  -17.5152  -21.7679 O   0  0  0  0  0  0  0  0  0  0  0  0
  2  1  1  0
  3  2  2  0
  4  2  1  0
  5  4  1  0
  6  8  1  0
  6  5  1  0
  6  7  1  1
  8  9  2  0
 10  8  1  0
 10 11  1  0
 11 12  1  6
 13 12  1  0
 14 13  1  0
 15 14  1  0
 16 15  1  0
 17 22  1  0
 17 11  1  0
 18 17  2  0
 20 19  1  0
 21 23  1  0
 21 20  1  1
 21 22  1  0
 23 25  1  0
 24 23  2  0
M  END
$$$$
