QKS.pdb
     RDKit          3D

 25 24  0  0  1  0  0  0  0  0999 V2000
   28.2135  -11.0139  -15.8828 N   0  0  0  0  0  0  0  0  0  0  0  0
   27.8014  -12.3466  -16.1650 C   0  0  0  0  0  0  0  0  0  0  0  0
   28.6799  -13.2271  -16.0859 O   0  0  0  0  0  0  0  0  0  0  0  0
   26.4320  -12.6704  -16.5244 C   0  0  0  0  0  0  0  0  0  0  0  0
   25.4411  -11.5737  -16.5715 C   0  0  0  0  0  0  0  0  0  0  0  0
   24.0542  -11.9157  -16.9721 C   0  0  2  0  0  0  0  0  0  0  0  0
   23.8953  -12.6141  -18.2024 N   0  0  0  0  0  0  0  0  0  0  0  0
   23.1437  -10.7449  -16.8737 C   0  0  0  0  0  0  0  0  0  0  0  0
   23.0919   -9.8675  -17.7902 O   0  0  0  0  0  0  0  0  0  0  0  0
   22.2939  -10.5432  -15.7690 N   0  0  0  0  0  0  0  0  0  0  0  0
   21.3548   -9.4417  -15.6771 C   0  0  1  0  0  0  0  0  0  0  0  0
   20.0310   -9.8986  -15.1445 C   0  0  0  0  0  0  0  0  0  0  0  0
   19.0087   -8.7850  -15.1802 C   0  0  0  0  0  0  0  0  0  0  0  0
   17.6425   -9.2752  -14.7473 C   0  0  0  0  0  0  0  0  0  0  0  0
   16.6498   -8.1279  -14.8759 C   0  0  0  0  0  0  0  0  0  0  0  0
   15.3645   -8.5390  -14.3309 N   0  0  0  0  0  0  0  0  0  0  0  0
   21.9229   -8.2831  -14.9841 C   0  0  0  0  0  0  0  0  0  0  0  0
   22.5176   -8.4838  -13.8862 O   0  0  0  0  0  0  0  0  0  0  0  0
   22.4531   -4.6077  -16.8180 O   0  0  0  0  0  0  0  0  0  0  0  0
   23.2578   -4.9751  -15.7441 C   0  0  0  0  0  0  0  0  0  0  0  0
   22.4738   -5.8360  -14.7592 C   0  0  2  0  0  0  0  0  0  0  0  0
   21.8518   -6.9543  -15.4592 N   0  0  0  0  0  0  0  0  0  0  0  0
   21.4101   -5.0254  -14.1239 C   0  0  0  0  0  0  0  0  0  0  0  0
   20.2128   -5.2807  -14.3397 O   0  0  0  0  0  0  0  0  0  0  0  0
   21.7203   -3.9716  -13.2808 O   0  0  0  0  0  0  0  0  0  0  0  0
  2  1  1  0
  3  2  2  0
  4  2  1  0
  5  4  1  0
  6  8  1  0
  6  5  1  0
  6  7  1  6
  8  9  2  0
 10  8  1  0
 10 11  1  0
 11 12  1  1
 13 12  1  0
 14 13  1  0
 15 14  1  0
 16 15  1  0
 17 22  1  0
 17 11  1  0
 18 17  2  0
 20 19  1  0
 21 23  1  0
 21 20  1  6
 21 22  1  0
 23 25  1  0
 24 23  2  0
M  END
$$$$
