AMC.pdb
     RDKit          3D

 20 19  0  0  1  0  0  0  0  0999 V2000
    7.2338  -18.4994   20.9513 C   0  0  0  0  0  0  0  0  0  0  0  0
    7.3138  -17.0610   20.4726 C   0  0  2  0  0  0  0  0  0  0  0  0
    8.0573  -17.0473   19.2460 N   0  0  0  0  0  0  0  0  0  0  0  0
    8.0266  -16.2988   21.5250 C   0  0  0  0  0  0  0  0  0  0  0  0
    9.2819  -16.3941   21.6273 O   0  0  0  0  0  0  0  0  0  0  0  0
    5.9123  -11.8695   27.0189 C   0  0  0  0  0  0  0  0  0  0  0  0
    7.0769  -13.0583   26.3469 S   0  0  0  0  0  0  0  0  0  0  0  0
    7.6815  -12.5296   24.6974 C   0  0  0  0  0  0  0  0  0  0  0  0
    7.1294  -13.5214   23.7223 C   0  0  0  0  0  0  0  0  0  0  0  0
    8.0394  -14.7029   23.4264 C   0  0  2  0  0  0  0  0  0  0  0  0
    7.2909  -15.4671   22.4098 N   0  0  0  0  0  0  0  0  0  0  0  0
    8.2426  -15.5472   24.6302 C   0  0  0  0  0  0  0  0  0  0  0  0
    7.2693  -16.2753   25.0415 O   0  0  0  0  0  0  0  0  0  0  0  0
    9.4189  -15.6386   25.3834 N   0  0  0  0  0  0  0  0  0  0  0  0
    9.7994  -16.8402   26.0702 C   0  0  1  0  0  0  0  0  0  0  0  0
    9.7966  -18.0503   25.1383 C   0  0  0  0  0  0  0  0  0  0  0  0
    9.6709  -19.5259   26.1784 S   0  0  0  0  0  0  0  0  0  0  0  0
   11.1026  -16.7407   26.7614 C   0  0  0  0  0  0  0  0  0  0  0  0
   11.3281  -17.2186   28.0333 O   0  0  0  0  0  0  0  0  0  0  0  0
   12.0892  -16.1929   26.1843 O   0  0  0  0  0  0  0  0  0  0  0  0
  2  4  1  0
  2  1  1  1
  3  2  1  0
  4  5  2  0
  7  6  1  0
  8  9  1  0
  8  7  1  0
 10  9  1  1
 10 12  1  0
 11 10  1  0
 11  4  1  0
 12 13  2  0
 14 12  1  0
 14 15  1  0
 15 18  1  0
 16 17  1  0
 15 16  1  6
 18 20  2  0
 18 19  1  0
M  END
$$$$
