AMC.pdb
     RDKit          3D

 20 19  0  0  1  0  0  0  0  0999 V2000
    7.1093  -17.7815   20.2838 C   0  0  0  0  0  0  0  0  0  0  0  0
    7.2890  -16.3074   19.9688 C   0  0  2  0  0  0  0  0  0  0  0  0
    7.9636  -16.2072   18.7069 N   0  0  0  0  0  0  0  0  0  0  0  0
    8.1217  -15.7364   21.0538 C   0  0  0  0  0  0  0  0  0  0  0  0
    9.3741  -15.6596   20.9092 O   0  0  0  0  0  0  0  0  0  0  0  0
    6.0849  -12.8567   27.5002 C   0  0  0  0  0  0  0  0  0  0  0  0
    6.6746  -12.0955   25.9856 S   0  0  0  0  0  0  0  0  0  0  0  0
    8.0253  -13.0832   25.2334 C   0  0  0  0  0  0  0  0  0  0  0  0
    7.4175  -13.7761   24.0546 C   0  0  0  0  0  0  0  0  0  0  0  0
    8.3627  -14.6914   23.2927 C   0  0  2  0  0  0  0  0  0  0  0  0
    7.5031  -15.2801   22.2476 N   0  0  0  0  0  0  0  0  0  0  0  0
    8.8936  -15.7703   24.1630 C   0  0  0  0  0  0  0  0  0  0  0  0
    8.1033  -16.7156   24.5213 O   0  0  0  0  0  0  0  0  0  0  0  0
   10.2041  -15.8703   24.6448 N   0  0  0  0  0  0  0  0  0  0  0  0
   10.6430  -16.9725   25.4527 C   0  0  1  0  0  0  0  0  0  0  0  0
   12.1390  -17.2338   25.2899 C   0  0  0  0  0  0  0  0  0  0  0  0
   12.4418  -17.5295   23.5304 S   0  0  0  0  0  0  0  0  0  0  0  0
   10.3112  -16.8260   26.8861 C   0  0  0  0  0  0  0  0  0  0  0  0
   10.6227  -17.7697   27.8398 O   0  0  0  0  0  0  0  0  0  0  0  0
    9.7080  -15.7900   27.2974 O   0  0  0  0  0  0  0  0  0  0  0  0
  2  4  1  0
  2  1  1  1
  3  2  1  0
  4  5  2  0
  7  6  1  0
  8  9  1  0
  8  7  1  0
 10  9  1  1
 10 12  1  0
 11 10  1  0
 11  4  1  0
 12 13  2  0
 14 12  1  0
 14 15  1  0
 15 18  1  0
 16 17  1  0
 15 16  1  1
 18 20  2  0
 18 19  1  0
M  END
$$$$
