AMC.pdb
     RDKit          3D

 20 19  0  0  1  0  0  0  0  0999 V2000
    8.0142  -17.3495   20.1179 C   0  0  0  0  0  0  0  0  0  0  0  0
    7.8517  -15.8401   20.1153 C   0  0  2  0  0  0  0  0  0  0  0  0
    8.6869  -15.3105   19.0763 N   0  0  0  0  0  0  0  0  0  0  0  0
    8.3003  -15.3590   21.4434 C   0  0  0  0  0  0  0  0  0  0  0  0
    9.5261  -15.1336   21.6478 O   0  0  0  0  0  0  0  0  0  0  0  0
    7.9771  -11.8618   27.6888 C   0  0  0  0  0  0  0  0  0  0  0  0
    7.7181  -12.4285   26.0057 S   0  0  0  0  0  0  0  0  0  0  0  0
    6.7468  -13.9845   25.9757 C   0  0  0  0  0  0  0  0  0  0  0  0
    6.5598  -14.3221   24.5299 C   0  0  0  0  0  0  0  0  0  0  0  0
    7.8346  -14.6933   23.7891 C   0  0  2  0  0  0  0  0  0  0  0  0
    7.3466  -15.1556   22.4754 N   0  0  0  0  0  0  0  0  0  0  0  0
    8.5546  -15.8001   24.4674 C   0  0  0  0  0  0  0  0  0  0  0  0
    8.0163  -16.9648   24.4830 O   0  0  0  0  0  0  0  0  0  0  0  0
    9.7962  -15.7055   25.1069 N   0  0  0  0  0  0  0  0  0  0  0  0
   10.4730  -16.8521   25.6429 C   0  0  1  0  0  0  0  0  0  0  0  0
   11.9611  -16.8438   25.2986 C   0  0  0  0  0  0  0  0  0  0  0  0
   12.7010  -18.2938   26.0890 S   0  0  0  0  0  0  0  0  0  0  0  0
   10.2952  -17.0175   27.1013 C   0  0  0  0  0  0  0  0  0  0  0  0
   10.3786  -18.2321   27.7455 O   0  0  0  0  0  0  0  0  0  0  0  0
   10.0517  -16.0104   27.8313 O   0  0  0  0  0  0  0  0  0  0  0  0
  2  4  1  0
  2  1  1  1
  3  2  1  0
  4  5  2  0
  7  6  1  0
  8  9  1  0
  8  7  1  0
 10  9  1  1
 10 12  1  0
 11 10  1  0
 11  4  1  0
 12 13  2  0
 14 12  1  0
 14 15  1  0
 15 18  1  0
 16 17  1  0
 15 16  1  1
 18 20  2  0
 18 19  1  0
M  END
$$$$
