AMC.pdb
     RDKit          3D

 20 19  0  0  1  0  0  0  0  0999 V2000
    7.0871  -17.0162   20.3102 C   0  0  0  0  0  0  0  0  0  0  0  0
    7.2537  -15.5074   20.3241 C   0  0  2  0  0  0  0  0  0  0  0  0
    7.9716  -15.1341   19.1397 N   0  0  0  0  0  0  0  0  0  0  0  0
    8.0370  -15.1744   21.5374 C   0  0  0  0  0  0  0  0  0  0  0  0
    9.2982  -15.1385   21.4796 O   0  0  0  0  0  0  0  0  0  0  0  0
    6.3531  -10.8355   26.4152 C   0  0  0  0  0  0  0  0  0  0  0  0
    6.3990  -12.5221   27.0273 S   0  0  0  0  0  0  0  0  0  0  0  0
    7.7220  -13.4879   26.2011 C   0  0  0  0  0  0  0  0  0  0  0  0
    7.1954  -13.8223   24.8408 C   0  0  0  0  0  0  0  0  0  0  0  0
    8.1756  -14.5525   23.9366 C   0  0  2  0  0  0  0  0  0  0  0  0
    7.3615  -14.8983   22.7554 N   0  0  0  0  0  0  0  0  0  0  0  0
    8.6788  -15.7958   24.5724 C   0  0  0  0  0  0  0  0  0  0  0  0
    7.8778  -16.7907   24.6955 O   0  0  0  0  0  0  0  0  0  0  0  0
    9.9732  -16.0049   25.0626 N   0  0  0  0  0  0  0  0  0  0  0  0
   10.4021  -17.2726   25.5816 C   0  0  1  0  0  0  0  0  0  0  0  0
   11.8042  -17.6376   25.0981 C   0  0  0  0  0  0  0  0  0  0  0  0
   11.8016  -17.4955   23.2940 S   0  0  0  0  0  0  0  0  0  0  0  0
   10.3398  -17.3612   27.0562 C   0  0  0  0  0  0  0  0  0  0  0  0
   10.7124  -18.4800   27.7679 O   0  0  0  0  0  0  0  0  0  0  0  0
    9.9267  -16.3748   27.7364 O   0  0  0  0  0  0  0  0  0  0  0  0
  2  4  1  0
  2  1  1  6
  3  2  1  0
  4  5  2  0
  7  6  1  0
  8  9  1  0
  8  7  1  0
 10  9  1  1
 10 12  1  0
 11 10  1  0
 11  4  1  0
 12 13  2  0
 14 12  1  0
 14 15  1  0
 15 18  1  0
 16 17  1  0
 15 16  1  1
 18 20  2  0
 18 19  1  0
M  END
$$$$
