AMC.pdb
     RDKit          3D

 20 19  0  0  1  0  0  0  0  0999 V2000
    7.6947  -12.6927   19.7708 C   0  0  0  0  0  0  0  0  0  0  0  0
    7.7552  -14.1325   20.2483 C   0  0  2  0  0  0  0  0  0  0  0  0
    6.4098  -14.6216   20.3392 N   0  0  0  0  0  0  0  0  0  0  0  0
    8.3965  -14.1137   21.5843 C   0  0  0  0  0  0  0  0  0  0  0  0
    9.6112  -13.7852   21.6926 O   0  0  0  0  0  0  0  0  0  0  0  0
    7.2597  -11.2624   27.4958 C   0  0  0  0  0  0  0  0  0  0  0  0
    6.0314  -12.1552   26.5391 S   0  0  0  0  0  0  0  0  0  0  0  0
    6.6792  -12.5952   24.8801 C   0  0  0  0  0  0  0  0  0  0  0  0
    7.1553  -14.0097   24.9889 C   0  0  0  0  0  0  0  0  0  0  0  0
    8.2944  -14.3757   24.0508 C   0  0  2  0  0  0  0  0  0  0  0  0
    7.6382  -14.4656   22.7321 N   0  0  0  0  0  0  0  0  0  0  0  0
    8.8852  -15.6916   24.4008 C   0  0  0  0  0  0  0  0  0  0  0  0
    8.1454  -16.7372   24.3240 O   0  0  0  0  0  0  0  0  0  0  0  0
   10.2031  -15.9194   24.8139 N   0  0  0  0  0  0  0  0  0  0  0  0
   10.7115  -17.2378   25.0662 C   0  0  1  0  0  0  0  0  0  0  0  0
   12.1157  -17.4224   24.4942 C   0  0  0  0  0  0  0  0  0  0  0  0
   12.0570  -16.9146   22.7583 S   0  0  0  0  0  0  0  0  0  0  0  0
   10.6972  -17.6153   26.4957 C   0  0  0  0  0  0  0  0  0  0  0  0
   11.0922  -18.8501   26.9609 O   0  0  0  0  0  0  0  0  0  0  0  0
   10.3071  -16.7845   27.3697 O   0  0  0  0  0  0  0  0  0  0  0  0
  2  4  1  0
  2  1  1  1
  3  2  1  0
  4  5  2  0
  7  6  1  0
  8  9  1  0
  8  7  1  0
 10  9  1  1
 10 12  1  0
 11 10  1  0
 11  4  1  0
 12 13  2  0
 14 12  1  0
 14 15  1  0
 15 18  1  0
 16 17  1  0
 15 16  1  1
 18 20  2  0
 18 19  1  0
M  END
$$$$
