AMC.pdb
     RDKit          3D

 20 19  0  0  1  0  0  0  0  0999 V2000
    8.9578  -17.6896   21.0095 C   0  0  0  0  0  0  0  0  0  0  0  0
    8.9871  -16.1732   20.9444 C   0  0  2  0  0  0  0  0  0  0  0  0
   10.1222  -15.7896   20.1557 N   0  0  0  0  0  0  0  0  0  0  0  0
    9.1298  -15.6877   22.3374 C   0  0  0  0  0  0  0  0  0  0  0  0
   10.2793  -15.5801   22.8496 O   0  0  0  0  0  0  0  0  0  0  0  0
    8.4963  -11.7726   27.4548 C   0  0  0  0  0  0  0  0  0  0  0  0
    7.2886  -12.0552   26.1576 S   0  0  0  0  0  0  0  0  0  0  0  0
    6.6506  -13.7744   26.2135 C   0  0  0  0  0  0  0  0  0  0  0  0
    6.7737  -14.3018   24.8185 C   0  0  0  0  0  0  0  0  0  0  0  0
    8.1576  -14.8091   24.4458 C   0  0  2  0  0  0  0  0  0  0  0  0
    7.9713  -15.3473   23.0844 N   0  0  0  0  0  0  0  0  0  0  0  0
    8.5997  -15.8980   25.3526 C   0  0  0  0  0  0  0  0  0  0  0  0
    8.2010  -17.0945   25.1158 O   0  0  0  0  0  0  0  0  0  0  0  0
    9.4325  -15.7539   26.4684 N   0  0  0  0  0  0  0  0  0  0  0  0
   10.1121  -16.8670   27.0679 C   0  0  1  0  0  0  0  0  0  0  0  0
   11.1992  -17.4267   26.1526 C   0  0  0  0  0  0  0  0  0  0  0  0
   12.5376  -16.2096   26.1054 S   0  0  0  0  0  0  0  0  0  0  0  0
   10.6811  -16.5670   28.3993 C   0  0  0  0  0  0  0  0  0  0  0  0
   10.6831  -15.3091   28.9603 O   0  0  0  0  0  0  0  0  0  0  0  0
   11.2037  -17.4913   29.0913 O   0  0  0  0  0  0  0  0  0  0  0  0
  2  4  1  0
  2  1  1  1
  3  2  1  0
  4  5  2  0
  7  6  1  0
  8  9  1  0
  8  7  1  0
 10  9  1  1
 10 12  1  0
 11 10  1  0
 11  4  1  0
 12 13  2  0
 14 12  1  0
 14 15  1  0
 15 18  1  0
 16 17  1  0
 15 16  1  6
 18 20  2  0
 18 19  1  0
M  END
$$$$
