AMC.pdb
     RDKit          3D

 20 19  0  0  1  0  0  0  0  0999 V2000
    7.5003  -16.9317   20.2058 C   0  0  0  0  0  0  0  0  0  0  0  0
    7.3570  -15.4569   20.5361 C   0  0  2  0  0  0  0  0  0  0  0  0
    7.9884  -14.7089   19.4876 N   0  0  0  0  0  0  0  0  0  0  0  0
    8.0521  -15.2378   21.8267 C   0  0  0  0  0  0  0  0  0  0  0  0
    9.2925  -15.4582   21.9164 O   0  0  0  0  0  0  0  0  0  0  0  0
    6.3146  -11.0402   25.6884 C   0  0  0  0  0  0  0  0  0  0  0  0
    6.5680  -12.1637   27.0649 S   0  0  0  0  0  0  0  0  0  0  0  0
    7.4506  -13.6789   26.5258 C   0  0  0  0  0  0  0  0  0  0  0  0
    6.9925  -13.9429   25.1259 C   0  0  0  0  0  0  0  0  0  0  0  0
    8.0534  -14.5222   24.2037 C   0  0  2  0  0  0  0  0  0  0  0  0
    7.3161  -14.7815   22.9519 N   0  0  0  0  0  0  0  0  0  0  0  0
    8.5952  -15.7987   24.7329 C   0  0  0  0  0  0  0  0  0  0  0  0
    7.9522  -16.8838   24.4971 O   0  0  0  0  0  0  0  0  0  0  0  0
    9.7693  -15.9486   25.4802 N   0  0  0  0  0  0  0  0  0  0  0  0
   10.4231  -17.2167   25.6367 C   0  0  1  0  0  0  0  0  0  0  0  0
   11.5391  -17.4090   24.6118 C   0  0  0  0  0  0  0  0  0  0  0  0
   11.8617  -19.1861   24.4995 S   0  0  0  0  0  0  0  0  0  0  0  0
   10.9465  -17.4497   26.9998 C   0  0  0  0  0  0  0  0  0  0  0  0
   10.7724  -16.5676   28.0431 O   0  0  0  0  0  0  0  0  0  0  0  0
   11.5954  -18.5067   27.2606 O   0  0  0  0  0  0  0  0  0  0  0  0
  2  4  1  0
  2  1  1  6
  3  2  1  0
  4  5  2  0
  7  6  1  0
  8  9  1  0
  8  7  1  0
 10  9  1  1
 10 12  1  0
 11 10  1  0
 11  4  1  0
 12 13  2  0
 14 12  1  0
 14 15  1  0
 15 18  1  0
 16 17  1  0
 15 16  1  6
 18 20  2  0
 18 19  1  0
M  END
$$$$
