AMC.pdb
     RDKit          3D

 20 19  0  0  1  0  0  0  0  0999 V2000
   -0.7194  -27.3736   27.8468 C   0  0  0  0  0  0  0  0  0  0  0  0
   -2.2252  -27.4785   27.6850 C   0  0  2  0  0  0  0  0  0  0  0  0
   -2.5007  -27.7423   26.3023 N   0  0  0  0  0  0  0  0  0  0  0  0
   -2.7914  -26.1704   28.0910 C   0  0  0  0  0  0  0  0  0  0  0  0
   -2.6656  -25.7755   29.2841 O   0  0  0  0  0  0  0  0  0  0  0  0
   -4.4499  -19.1252   25.2417 C   0  0  0  0  0  0  0  0  0  0  0  0
   -3.8084  -20.8003   25.1810 S   0  0  0  0  0  0  0  0  0  0  0  0
   -4.4289  -21.7958   26.5915 C   0  0  0  0  0  0  0  0  0  0  0  0
   -3.7985  -23.1454   26.4482 C   0  0  0  0  0  0  0  0  0  0  0  0
   -4.0790  -24.1076   27.5915 C   0  0  2  0  0  0  0  0  0  0  0  0
   -3.4710  -25.3719   27.1337 N   0  0  0  0  0  0  0  0  0  0  0  0
   -5.5366  -24.3031   27.7921 C   0  0  0  0  0  0  0  0  0  0  0  0
   -6.2264  -24.8074   26.8347 O   0  0  0  0  0  0  0  0  0  0  0  0
   -6.2583  -23.9901   28.9499 N   0  0  0  0  0  0  0  0  0  0  0  0
   -7.6785  -24.1758   29.0430 C   0  0  1  0  0  0  0  0  0  0  0  0
   -8.0409  -25.2915   30.0212 C   0  0  0  0  0  0  0  0  0  0  0  0
   -7.3104  -26.8196   29.3839 S   0  0  0  0  0  0  0  0  0  0  0  0
   -8.4162  -22.9426   29.3912 C   0  0  0  0  0  0  0  0  0  0  0  0
   -7.8012  -21.7598   29.7373 O   0  0  0  0  0  0  0  0  0  0  0  0
   -9.6835  -22.9347   29.3818 O   0  0  0  0  0  0  0  0  0  0  0  0
  2  4  1  0
  2  1  1  6
  3  2  1  0
  4  5  2  0
  7  6  1  0
  8  9  1  0
  8  7  1  0
 10  9  1  6
 10 12  1  0
 11 10  1  0
 11  4  1  0
 12 13  2  0
 14 12  1  0
 14 15  1  0
 15 18  1  0
 16 17  1  0
 15 16  1  1
 18 20  2  0
 18 19  1  0
M  END
$$$$
