AMC.pdb
     RDKit          3D

 20 19  0  0  1  0  0  0  0  0999 V2000
    7.6316  -13.1209   19.6703 C   0  0  0  0  0  0  0  0  0  0  0  0
    7.8285  -14.5314   20.1958 C   0  0  2  0  0  0  0  0  0  0  0  0
    6.5642  -15.2056   20.1280 N   0  0  0  0  0  0  0  0  0  0  0  0
    8.2792  -14.4051   21.6021 C   0  0  0  0  0  0  0  0  0  0  0  0
    9.4091  -13.9009   21.8558 O   0  0  0  0  0  0  0  0  0  0  0  0
    7.5738  -11.9171   28.0391 C   0  0  0  0  0  0  0  0  0  0  0  0
    7.4285  -12.4734   26.3389 S   0  0  0  0  0  0  0  0  0  0  0  0
    6.6927  -14.1518   26.2546 C   0  0  0  0  0  0  0  0  0  0  0  0
    6.5514  -14.4637   24.7978 C   0  0  0  0  0  0  0  0  0  0  0  0
    7.8637  -14.5983   24.0418 C   0  0  2  0  0  0  0  0  0  0  0  0
    7.4355  -14.8527   22.6527 N   0  0  0  0  0  0  0  0  0  0  0  0
    8.6586  -15.7511   24.5340 C   0  0  0  0  0  0  0  0  0  0  0  0
    8.1008  -16.9056   24.5839 O   0  0  0  0  0  0  0  0  0  0  0  0
    9.9921  -15.7114   24.9581 N   0  0  0  0  0  0  0  0  0  0  0  0
   10.6882  -16.8814   25.4128 C   0  0  1  0  0  0  0  0  0  0  0  0
   12.1837  -16.8034   25.1121 C   0  0  0  0  0  0  0  0  0  0  0  0
   12.3564  -16.4591   23.3440 S   0  0  0  0  0  0  0  0  0  0  0  0
   10.4782  -17.1766   26.8463 C   0  0  0  0  0  0  0  0  0  0  0  0
   11.0296  -18.2631   27.4884 O   0  0  0  0  0  0  0  0  0  0  0  0
    9.7581  -16.4114   27.5550 O   0  0  0  0  0  0  0  0  0  0  0  0
  2  4  1  0
  2  1  1  1
  3  2  1  0
  4  5  2  0
  7  6  1  0
  8  9  1  0
  8  7  1  0
 10  9  1  1
 10 12  1  0
 11 10  1  0
 11  4  1  0
 12 13  2  0
 14 12  1  0
 14 15  1  0
 15 18  1  0
 16 17  1  0
 15 16  1  1
 18 20  2  0
 18 19  1  0
M  END
$$$$
