AMC.pdb
     RDKit          3D

 20 19  0  0  1  0  0  0  0  0999 V2000
    8.7384  -15.4090   19.7473 C   0  0  0  0  0  0  0  0  0  0  0  0
    9.2163  -16.3957   20.7973 C   0  0  2  0  0  0  0  0  0  0  0  0
    8.2217  -17.4220   20.9202 N   0  0  0  0  0  0  0  0  0  0  0  0
    9.3481  -15.6404   22.0657 C   0  0  0  0  0  0  0  0  0  0  0  0
   10.2186  -14.7309   22.1667 O   0  0  0  0  0  0  0  0  0  0  0  0
    5.7916  -11.5789   26.2976 C   0  0  0  0  0  0  0  0  0  0  0  0
    6.8858  -13.0011   26.2648 S   0  0  0  0  0  0  0  0  0  0  0  0
    6.3479  -14.2183   25.0020 C   0  0  0  0  0  0  0  0  0  0  0  0
    7.3064  -15.3630   25.1029 C   0  0  0  0  0  0  0  0  0  0  0  0
    8.6337  -15.1510   24.3922 C   0  0  2  0  0  0  0  0  0  0  0  0
    8.4932  -15.9466   23.1573 N   0  0  0  0  0  0  0  0  0  0  0  0
    9.7685  -15.6751   25.1926 C   0  0  0  0  0  0  0  0  0  0  0  0
   10.8224  -16.0725   24.5777 O   0  0  0  0  0  0  0  0  0  0  0  0
    9.8133  -15.7812   26.5877 N   0  0  0  0  0  0  0  0  0  0  0  0
   11.0277  -16.0673   27.2973 C   0  0  1  0  0  0  0  0  0  0  0  0
   11.6415  -14.8059   27.9014 C   0  0  0  0  0  0  0  0  0  0  0  0
   10.3077  -13.9063   28.7302 S   0  0  0  0  0  0  0  0  0  0  0  0
   10.8740  -17.1019   28.3424 C   0  0  0  0  0  0  0  0  0  0  0  0
   11.9191  -17.5751   29.1045 O   0  0  0  0  0  0  0  0  0  0  0  0
    9.7344  -17.6039   28.5786 O   0  0  0  0  0  0  0  0  0  0  0  0
  2  4  1  0
  2  1  1  6
  3  2  1  0
  4  5  2  0
  7  6  1  0
  8  9  1  0
  8  7  1  0
 10  9  1  1
 10 12  1  0
 11 10  1  0
 11  4  1  0
 12 13  2  0
 14 12  1  0
 14 15  1  0
 15 18  1  0
 16 17  1  0
 15 16  1  1
 18 20  2  0
 18 19  1  0
M  END
$$$$
