AMC.pdb
     RDKit          3D

 20 19  0  0  1  0  0  0  0  0999 V2000
    7.3081  -13.5593   19.5519 C   0  0  0  0  0  0  0  0  0  0  0  0
    7.4738  -14.9094   20.2258 C   0  0  2  0  0  0  0  0  0  0  0  0
    6.1642  -15.4370   20.4796 N   0  0  0  0  0  0  0  0  0  0  0  0
    8.1956  -14.6674   21.4974 C   0  0  0  0  0  0  0  0  0  0  0  0
    9.4211  -14.3625   21.4749 O   0  0  0  0  0  0  0  0  0  0  0  0
    6.4286  -10.8980   26.6701 C   0  0  0  0  0  0  0  0  0  0  0  0
    6.2593  -12.6427   27.0555 S   0  0  0  0  0  0  0  0  0  0  0  0
    7.6072  -13.6218   26.2873 C   0  0  0  0  0  0  0  0  0  0  0  0
    7.1573  -13.9109   24.8897 C   0  0  0  0  0  0  0  0  0  0  0  0
    8.2361  -14.4621   23.9710 C   0  0  2  0  0  0  0  0  0  0  0  0
    7.5019  -14.7805   22.7311 N   0  0  0  0  0  0  0  0  0  0  0  0
    8.8381  -15.7018   24.5224 C   0  0  0  0  0  0  0  0  0  0  0  0
    8.0688  -16.6952   24.7829 O   0  0  0  0  0  0  0  0  0  0  0  0
   10.1959  -15.9089   24.7922 N   0  0  0  0  0  0  0  0  0  0  0  0
   10.7195  -17.1959   25.1523 C   0  0  1  0  0  0  0  0  0  0  0  0
   12.0987  -17.4373   24.5420 C   0  0  0  0  0  0  0  0  0  0  0  0
   13.0769  -15.9409   24.8222 S   0  0  0  0  0  0  0  0  0  0  0  0
   10.7675  -17.4293   26.6116 C   0  0  0  0  0  0  0  0  0  0  0  0
   10.4098  -16.4827   27.5460 O   0  0  0  0  0  0  0  0  0  0  0  0
   11.1531  -18.5482   27.0650 O   0  0  0  0  0  0  0  0  0  0  0  0
  2  4  1  0
  2  1  1  1
  3  2  1  0
  4  5  2  0
  7  6  1  0
  8  9  1  0
  8  7  1  0
 10  9  1  1
 10 12  1  0
 11 10  1  0
 11  4  1  0
 12 13  2  0
 14 12  1  0
 14 15  1  0
 15 18  1  0
 16 17  1  0
 15 16  1  1
 18 20  2  0
 18 19  1  0
M  END
$$$$
