AMC.pdb
     RDKit          3D

 20 19  0  0  1  0  0  0  0  0999 V2000
    7.7874  -17.0095   20.0616 C   0  0  0  0  0  0  0  0  0  0  0  0
    8.0785  -15.5230   20.1626 C   0  0  2  0  0  0  0  0  0  0  0  0
    9.2097  -15.2395   19.3274 N   0  0  0  0  0  0  0  0  0  0  0  0
    8.3944  -15.2444   21.5835 C   0  0  0  0  0  0  0  0  0  0  0  0
    9.5647  -15.4407   22.0162 O   0  0  0  0  0  0  0  0  0  0  0  0
    7.9408  -11.6538   27.6961 C   0  0  0  0  0  0  0  0  0  0  0  0
    7.7991  -12.2652   26.0147 S   0  0  0  0  0  0  0  0  0  0  0  0
    6.5223  -13.5772   25.8953 C   0  0  0  0  0  0  0  0  0  0  0  0
    6.4444  -13.9412   24.4459 C   0  0  0  0  0  0  0  0  0  0  0  0
    7.7271  -14.5077   23.8583 C   0  0  2  0  0  0  0  0  0  0  0  0
    7.3772  -14.7584   22.4468 N   0  0  0  0  0  0  0  0  0  0  0  0
    8.1047  -15.7869   24.5096 C   0  0  0  0  0  0  0  0  0  0  0  0
    7.6620  -16.8838   24.0122 O   0  0  0  0  0  0  0  0  0  0  0  0
    8.9193  -15.9274   25.6393 N   0  0  0  0  0  0  0  0  0  0  0  0
    9.8329  -17.0233   25.7955 C   0  0  1  0  0  0  0  0  0  0  0  0
   10.8597  -17.0703   24.6657 C   0  0  0  0  0  0  0  0  0  0  0  0
   11.9709  -18.4565   25.0102 S   0  0  0  0  0  0  0  0  0  0  0  0
   10.5231  -17.0380   27.1031 C   0  0  0  0  0  0  0  0  0  0  0  0
   10.4100  -16.0301   28.0349 O   0  0  0  0  0  0  0  0  0  0  0  0
   11.2674  -18.0140   27.4191 O   0  0  0  0  0  0  0  0  0  0  0  0
  2  4  1  0
  2  1  1  1
  3  2  1  0
  4  5  2  0
  7  6  1  0
  8  9  1  0
  8  7  1  0
 10  9  1  1
 10 12  1  0
 11 10  1  0
 11  4  1  0
 12 13  2  0
 14 12  1  0
 14 15  1  0
 15 18  1  0
 16 17  1  0
 15 16  1  6
 18 20  2  0
 18 19  1  0
M  END
$$$$
