AMC.pdb
     RDKit          3D

 20 19  0  0  1  0  0  0  0  0999 V2000
    8.2069  -19.7175   18.6003 C   0  0  0  0  0  0  0  0  0  0  0  0
    8.1531  -18.3107   18.0323 C   0  0  2  0  0  0  0  0  0  0  0  0
    8.9633  -18.2839   16.8490 N   0  0  0  0  0  0  0  0  0  0  0  0
    8.7102  -17.4092   19.0684 C   0  0  0  0  0  0  0  0  0  0  0  0
    9.9606  -17.2582   19.1619 O   0  0  0  0  0  0  0  0  0  0  0  0
    8.3583  -11.2478   19.9079 C   0  0  0  0  0  0  0  0  0  0  0  0
    8.5730  -12.8786   20.6259 S   0  0  0  0  0  0  0  0  0  0  0  0
    6.9813  -13.7890   20.6831 C   0  0  0  0  0  0  0  0  0  0  0  0
    7.2485  -15.0306   21.4745 C   0  0  0  0  0  0  0  0  0  0  0  0
    8.4260  -15.8595   20.9867 C   0  0  2  0  0  0  0  0  0  0  0  0
    7.8319  -16.7225   19.9475 N   0  0  0  0  0  0  0  0  0  0  0  0
    8.9831  -16.7041   22.0729 C   0  0  0  0  0  0  0  0  0  0  0  0
    8.2213  -17.5771   22.6244 O   0  0  0  0  0  0  0  0  0  0  0  0
   10.2902  -16.6499   22.5707 N   0  0  0  0  0  0  0  0  0  0  0  0
   10.7661  -17.5545   23.5783 C   0  0  1  0  0  0  0  0  0  0  0  0
   11.9378  -18.3960   23.0762 C   0  0  0  0  0  0  0  0  0  0  0  0
   13.2531  -17.2492   22.5969 S   0  0  0  0  0  0  0  0  0  0  0  0
   11.1319  -16.8895   24.8472 C   0  0  0  0  0  0  0  0  0  0  0  0
   11.5138  -17.5713   25.9814 O   0  0  0  0  0  0  0  0  0  0  0  0
   11.1046  -15.6254   24.9344 O   0  0  0  0  0  0  0  0  0  0  0  0
  2  4  1  0
  2  1  1  1
  3  2  1  0
  4  5  2  0
  7  6  1  0
  8  9  1  0
  8  7  1  0
 10  9  1  1
 10 12  1  0
 11 10  1  0
 11  4  1  0
 12 13  2  0
 14 12  1  0
 14 15  1  0
 15 18  1  0
 16 17  1  0
 15 16  1  6
 18 20  2  0
 18 19  1  0
M  END
$$$$
