AMC.pdb
     RDKit          3D

 20 19  0  0  1  0  0  0  0  0999 V2000
    7.5988  -17.0464   20.2044 C   0  0  0  0  0  0  0  0  0  0  0  0
    7.6900  -15.5339   20.2981 C   0  0  2  0  0  0  0  0  0  0  0  0
    8.6232  -15.0880   19.3042 N   0  0  0  0  0  0  0  0  0  0  0  0
    8.1848  -15.2185   21.6591 C   0  0  0  0  0  0  0  0  0  0  0  0
    9.4275  -15.1559   21.8760 O   0  0  0  0  0  0  0  0  0  0  0  0
    7.9767  -11.6315   27.8804 C   0  0  0  0  0  0  0  0  0  0  0  0
    7.6893  -12.2346   26.2146 S   0  0  0  0  0  0  0  0  0  0  0  0
    6.7898  -13.8333   26.2379 C   0  0  0  0  0  0  0  0  0  0  0  0
    6.5490  -14.1880   24.8042 C   0  0  0  0  0  0  0  0  0  0  0  0
    7.7862  -14.6260   24.0366 C   0  0  2  0  0  0  0  0  0  0  0  0
    7.2559  -14.9892   22.7083 N   0  0  0  0  0  0  0  0  0  0  0  0
    8.4193  -15.8154   24.6593 C   0  0  0  0  0  0  0  0  0  0  0  0
    7.7437  -16.9039   24.7315 O   0  0  0  0  0  0  0  0  0  0  0  0
    9.7141  -15.8779   25.1876 N   0  0  0  0  0  0  0  0  0  0  0  0
   10.2470  -17.0747   25.7740 C   0  0  1  0  0  0  0  0  0  0  0  0
   11.7411  -17.2254   25.4950 C   0  0  0  0  0  0  0  0  0  0  0  0
   11.9561  -17.1886   23.6985 S   0  0  0  0  0  0  0  0  0  0  0  0
    9.9928  -17.1874   27.2262 C   0  0  0  0  0  0  0  0  0  0  0  0
   10.4322  -18.2414   27.9963 O   0  0  0  0  0  0  0  0  0  0  0  0
    9.3388  -16.2851   27.8300 O   0  0  0  0  0  0  0  0  0  0  0  0
  2  4  1  0
  2  1  1  1
  3  2  1  0
  4  5  2  0
  7  6  1  0
  8  9  1  0
  8  7  1  0
 10  9  1  1
 10 12  1  0
 11 10  1  0
 11  4  1  0
 12 13  2  0
 14 12  1  0
 14 15  1  0
 15 18  1  0
 16 17  1  0
 15 16  1  1
 18 20  2  0
 18 19  1  0
M  END
$$$$
