AMC.pdb
     RDKit          3D

 20 19  0  0  1  0  0  0  0  0999 V2000
    7.8477  -14.0432   20.2586 C   0  0  0  0  0  0  0  0  0  0  0  0
    8.6501  -15.1060   20.9874 C   0  0  2  0  0  0  0  0  0  0  0  0
    7.9135  -16.3350   20.9206 N   0  0  0  0  0  0  0  0  0  0  0  0
    8.7848  -14.6525   22.3920 C   0  0  0  0  0  0  0  0  0  0  0  0
    9.4015  -13.5806   22.6488 O   0  0  0  0  0  0  0  0  0  0  0  0
    5.7920  -11.4451   26.6186 C   0  0  0  0  0  0  0  0  0  0  0  0
    6.8937  -12.8393   26.3669 S   0  0  0  0  0  0  0  0  0  0  0  0
    6.0066  -14.2515   25.6024 C   0  0  0  0  0  0  0  0  0  0  0  0
    7.0204  -15.3429   25.4606 C   0  0  0  0  0  0  0  0  0  0  0  0
    8.3316  -14.9192   24.8181 C   0  0  2  0  0  0  0  0  0  0  0  0
    8.2183  -15.4282   23.4377 N   0  0  0  0  0  0  0  0  0  0  0  0
    9.4947  -15.5548   25.4864 C   0  0  0  0  0  0  0  0  0  0  0  0
   10.0601  -16.5552   24.9155 O   0  0  0  0  0  0  0  0  0  0  0  0
   10.0583  -15.1645   26.7068 N   0  0  0  0  0  0  0  0  0  0  0  0
   11.1439  -15.8801   27.3149 C   0  0  1  0  0  0  0  0  0  0  0  0
   11.6892  -15.1483   28.5396 C   0  0  0  0  0  0  0  0  0  0  0  0
   10.8479  -13.5484   28.6252 S   0  0  0  0  0  0  0  0  0  0  0  0
   10.8086  -17.2754   27.6708 C   0  0  0  0  0  0  0  0  0  0  0  0
    9.5582  -17.8260   27.4966 O   0  0  0  0  0  0  0  0  0  0  0  0
   11.6933  -18.0365   28.1652 O   0  0  0  0  0  0  0  0  0  0  0  0
  2  4  1  0
  2  1  1  6
  3  2  1  0
  4  5  2  0
  7  6  1  0
  8  9  1  0
  8  7  1  0
 10  9  1  1
 10 12  1  0
 11 10  1  0
 11  4  1  0
 12 13  2  0
 14 12  1  0
 14 15  1  0
 15 18  1  0
 16 17  1  0
 15 16  1  1
 18 20  2  0
 18 19  1  0
M  END
$$$$
