VMF.pdb
     RDKit          3D

 27 27  0  0  1  0  0  0  0  0999 V2000
   27.1800  -17.9939  -14.2278 C   0  0  0  0  0  0  0  0  0  0  0  0
   27.7054  -19.1569  -15.0425 C   0  0  1  0  0  0  0  0  0  0  0  0
   28.9032  -18.6572  -15.8236 C   0  0  0  0  0  0  0  0  0  0  0  0
   28.1783  -20.2991  -14.1812 C   0  0  2  0  0  0  0  0  0  0  0  0
   28.7310  -21.3062  -15.0536 N   0  0  0  0  0  0  0  0  0  0  0  0
   27.0889  -20.8421  -13.3201 C   0  0  0  0  0  0  0  0  0  0  0  0
   26.2500  -21.6111  -13.8446 O   0  0  0  0  0  0  0  0  0  0  0  0
   26.2313  -20.1264   -6.6238 C   0  0  0  0  0  0  0  0  0  0  0  0
   27.7925  -20.6972   -7.3748 S   0  0  0  0  0  0  0  0  0  0  0  0
   27.4725  -21.1548   -9.0977 C   0  0  0  0  0  0  0  0  0  0  0  0
   26.2057  -20.4997   -9.5840 C   0  0  0  0  0  0  0  0  0  0  0  0
   25.9208  -20.7840  -11.0523 C   0  0  2  0  0  0  0  0  0  0  0  0
   26.9791  -20.5173  -11.9494 N   0  0  0  0  0  0  0  0  0  0  0  0
   24.5912  -20.3053  -11.3908 C   0  0  0  0  0  0  0  0  0  0  0  0
   24.4403  -19.0313  -11.3421 O   0  0  0  0  0  0  0  0  0  0  0  0
   23.5030  -21.1108  -11.7533 N   0  0  0  0  0  0  0  0  0  0  0  0
   22.2334  -20.5401  -12.1376 C   0  0  1  0  0  0  0  0  0  0  0  0
   22.4516  -19.7824  -13.4186 C   0  0  0  0  0  0  0  0  0  0  0  0
   22.6826  -20.6291  -14.6051 C   0  0  0  0  0  0  0  0  0  0  0  0
   21.7025  -21.4273  -15.1937 C   0  0  0  0  0  0  0  0  0  0  0  0
   22.0004  -22.1877  -16.3017 C   0  0  0  0  0  0  0  0  0  0  0  0
   23.2700  -22.1592  -16.8295 C   0  0  0  0  0  0  0  0  0  0  0  0
   24.2751  -21.3712  -16.2650 C   0  0  0  0  0  0  0  0  0  0  0  0
   23.9548  -20.6266  -15.1673 C   0  0  0  0  0  0  0  0  0  0  0  0
   21.1805  -21.5472  -12.3084 C   0  0  0  0  0  0  0  0  0  0  0  0
   19.8925  -21.1343  -12.6145 O   0  0  0  0  0  0  0  0  0  0  0  0
   21.3344  -22.7965  -12.1990 O   0  0  0  0  0  0  0  0  0  0  0  0
  2  4  1  0
  2  1  1  1
  3  2  1  0
  4  5  1  6
  6  4  1  0
  7  6  2  0
  9  8  1  0
 10  9  1  0
 10 11  1  0
 12 11  1  1
 12 13  1  0
 13  6  1  0
 14 16  1  0
 14 12  1  0
 15 14  2  0
 17 18  1  6
 17 16  1  0
 18 19  1  0
 19 24  2  0
 20 19  1  0
 20 21  2  0
 21 22  1  0
 22 23  2  0
 24 23  1  0
 25 17  1  0
 25 26  1  0
 27 25  2  0
M  END
$$$$
