VMF.pdb
     RDKit          3D

 27 27  0  0  1  0  0  0  0  0999 V2000
   25.6665  -17.2562  -18.7876 C   0  0  0  0  0  0  0  0  0  0  0  0
   24.8106  -18.0838  -17.8522 C   0  0  1  0  0  0  0  0  0  0  0  0
   23.7320  -18.7407  -18.6885 C   0  0  0  0  0  0  0  0  0  0  0  0
   25.5882  -19.1855  -17.1800 C   0  0  2  0  0  0  0  0  0  0  0  0
   26.1710  -20.0046  -18.2145 N   0  0  0  0  0  0  0  0  0  0  0  0
   24.7413  -19.9822  -16.2467 C   0  0  0  0  0  0  0  0  0  0  0  0
   24.0115  -20.8782  -16.7311 O   0  0  0  0  0  0  0  0  0  0  0  0
   26.1488  -20.6350   -9.8993 C   0  0  0  0  0  0  0  0  0  0  0  0
   24.3319  -20.7267   -9.7671 S   0  0  0  0  0  0  0  0  0  0  0  0
   23.6424  -20.9648  -11.4249 C   0  0  0  0  0  0  0  0  0  0  0  0
   24.3464  -20.0734  -12.4149 C   0  0  0  0  0  0  0  0  0  0  0  0
   23.9338  -20.3492  -13.8542 C   0  0  2  0  0  0  0  0  0  0  0  0
   24.7400  -19.7569  -14.8519 N   0  0  0  0  0  0  0  0  0  0  0  0
   22.4901  -20.2365  -13.9758 C   0  0  0  0  0  0  0  0  0  0  0  0
   22.0608  -19.0827  -14.3400 O   0  0  0  0  0  0  0  0  0  0  0  0
   21.5692  -21.2644  -13.7313 N   0  0  0  0  0  0  0  0  0  0  0  0
   20.1695  -21.1198  -14.0556 C   0  0  1  0  0  0  0  0  0  0  0  0
   20.0536  -21.1262  -15.5553 C   0  0  0  0  0  0  0  0  0  0  0  0
   19.8643  -19.7958  -16.1657 C   0  0  0  0  0  0  0  0  0  0  0  0
   18.8273  -18.9264  -15.8297 C   0  0  0  0  0  0  0  0  0  0  0  0
   18.7228  -17.7002  -16.4463 C   0  0  0  0  0  0  0  0  0  0  0  0
   19.6454  -17.3323  -17.3974 C   0  0  0  0  0  0  0  0  0  0  0  0
   20.6960  -18.1785  -17.7577 C   0  0  0  0  0  0  0  0  0  0  0  0
   20.7779  -19.3884  -17.1320 C   0  0  0  0  0  0  0  0  0  0  0  0
   19.3337  -22.1740  -13.4705 C   0  0  0  0  0  0  0  0  0  0  0  0
   17.9748  -22.1914  -13.7464 O   0  0  0  0  0  0  0  0  0  0  0  0
   19.7418  -23.0988  -12.7124 O   0  0  0  0  0  0  0  0  0  0  0  0
  2  4  1  0
  2  1  1  6
  3  2  1  0
  4  5  1  6
  6  4  1  0
  7  6  2  0
  9  8  1  0
 10  9  1  0
 10 11  1  0
 12 11  1  1
 12 13  1  0
 13  6  1  0
 14 16  1  0
 14 12  1  0
 15 14  2  0
 17 18  1  6
 17 16  1  0
 18 19  1  0
 19 24  2  0
 20 19  1  0
 20 21  2  0
 21 22  1  0
 22 23  2  0
 24 23  1  0
 25 17  1  0
 25 26  1  0
 27 25  2  0
M  END
$$$$
