VMF.pdb
     RDKit          3D

 27 27  0  0  1  0  0  0  0  0999 V2000
   18.3861  -10.7777  -12.6952 C   0  0  0  0  0  0  0  0  0  0  0  0
   17.5442   -9.6149  -12.2139 C   0  0  1  0  0  0  0  0  0  0  0  0
   16.5157   -9.3263  -13.2878 C   0  0  0  0  0  0  0  0  0  0  0  0
   16.7915   -9.9315  -10.9476 C   0  0  2  0  0  0  0  0  0  0  0  0
   16.0874  -11.1732  -11.1552 N   0  0  0  0  0  0  0  0  0  0  0  0
   15.8720   -8.8272  -10.5495 C   0  0  0  0  0  0  0  0  0  0  0  0
   14.8334   -8.6507  -11.2279 O   0  0  0  0  0  0  0  0  0  0  0  0
   11.3711   -9.0116   -6.8478 C   0  0  0  0  0  0  0  0  0  0  0  0
   12.0346   -7.3154   -6.7494 S   0  0  0  0  0  0  0  0  0  0  0  0
   13.0657   -7.0119   -8.2071 C   0  0  0  0  0  0  0  0  0  0  0  0
   14.5228   -7.0084   -7.8230 C   0  0  0  0  0  0  0  0  0  0  0  0
   15.4476   -6.8302   -9.0192 C   0  0  2  0  0  0  0  0  0  0  0  0
   16.1370   -7.9877   -9.4444 N   0  0  0  0  0  0  0  0  0  0  0  0
   16.1975   -5.5940   -8.8734 C   0  0  0  0  0  0  0  0  0  0  0  0
   17.2361   -5.6702   -8.1225 O   0  0  0  0  0  0  0  0  0  0  0  0
   15.8753   -4.3698   -9.4751 N   0  0  0  0  0  0  0  0  0  0  0  0
   16.7188   -3.2074   -9.3252 C   0  0  1  0  0  0  0  0  0  0  0  0
   17.4210   -2.9905  -10.6377 C   0  0  0  0  0  0  0  0  0  0  0  0
   16.5289   -2.6757  -11.7706 C   0  0  0  0  0  0  0  0  0  0  0  0
   16.0761   -1.3915  -12.0703 C   0  0  0  0  0  0  0  0  0  0  0  0
   15.2458   -1.1827  -13.1481 C   0  0  0  0  0  0  0  0  0  0  0  0
   14.8619   -2.2457  -13.9316 C   0  0  0  0  0  0  0  0  0  0  0  0
   15.2968   -3.5445  -13.6597 C   0  0  0  0  0  0  0  0  0  0  0  0
   16.1192   -3.7253  -12.5860 C   0  0  0  0  0  0  0  0  0  0  0  0
   15.9740   -2.0052   -8.9354 C   0  0  0  0  0  0  0  0  0  0  0  0
   16.6662   -0.8266   -8.7012 O   0  0  0  0  0  0  0  0  0  0  0  0
   14.7215   -1.9339   -8.7844 O   0  0  0  0  0  0  0  0  0  0  0  0
  2  4  1  0
  2  1  1  6
  3  2  1  0
  4  5  1  6
  6  4  1  0
  7  6  2  0
  9  8  1  0
 10  9  1  0
 10 11  1  0
 12 11  1  1
 12 13  1  0
 13  6  1  0
 14 16  1  0
 14 12  1  0
 15 14  2  0
 17 18  1  6
 17 16  1  0
 18 19  1  0
 19 24  2  0
 20 19  1  0
 20 21  2  0
 21 22  1  0
 22 23  2  0
 24 23  1  0
 25 17  1  0
 25 26  1  0
 27 25  2  0
M  END
$$$$
