VMF.pdb
     RDKit          3D

 27 27  0  0  1  0  0  0  0  0999 V2000
   25.8511  -14.8042  -14.9462 C   0  0  0  0  0  0  0  0  0  0  0  0
   25.5589  -16.0866  -14.1961 C   0  0  1  0  0  0  0  0  0  0  0  0
   24.1114  -16.4455  -14.4611 C   0  0  0  0  0  0  0  0  0  0  0  0
   26.4005  -17.2409  -14.6750 C   0  0  2  0  0  0  0  0  0  0  0  0
   26.2172  -17.3548  -16.1012 N   0  0  0  0  0  0  0  0  0  0  0  0
   26.0695  -18.5100  -13.9657 C   0  0  0  0  0  0  0  0  0  0  0  0
   24.8918  -18.9326  -14.0311 O   0  0  0  0  0  0  0  0  0  0  0  0
   29.8219  -23.1115  -15.0258 C   0  0  0  0  0  0  0  0  0  0  0  0
   28.0729  -23.2013  -15.5357 S   0  0  0  0  0  0  0  0  0  0  0  0
   27.1723  -21.8364  -14.7571 C   0  0  0  0  0  0  0  0  0  0  0  0
   27.6362  -21.6499  -13.3357 C   0  0  0  0  0  0  0  0  0  0  0  0
   26.9206  -20.5083  -12.6267 C   0  0  2  0  0  0  0  0  0  0  0  0
   27.0341  -19.2373  -13.2330 N   0  0  0  0  0  0  0  0  0  0  0  0
   27.1405  -20.6123  -11.1941 C   0  0  0  0  0  0  0  0  0  0  0  0
   28.3697  -20.5733  -10.8256 O   0  0  0  0  0  0  0  0  0  0  0  0
   26.1382  -20.7474  -10.2236 N   0  0  0  0  0  0  0  0  0  0  0  0
   26.4564  -20.9566   -8.8307 C   0  0  1  0  0  0  0  0  0  0  0  0
   27.4192  -19.8751   -8.4232 C   0  0  0  0  0  0  0  0  0  0  0  0
   27.8679  -19.9449   -7.0189 C   0  0  0  0  0  0  0  0  0  0  0  0
   27.4317  -19.0765   -6.0190 C   0  0  0  0  0  0  0  0  0  0  0  0
   27.8989  -19.2109   -4.7313 C   0  0  0  0  0  0  0  0  0  0  0  0
   28.7996  -20.2058   -4.4309 C   0  0  0  0  0  0  0  0  0  0  0  0
   29.2571  -21.0924   -5.4079 C   0  0  0  0  0  0  0  0  0  0  0  0
   28.7789  -20.9385   -6.6767 C   0  0  0  0  0  0  0  0  0  0  0  0
   25.2725  -20.9447   -7.9644 C   0  0  0  0  0  0  0  0  0  0  0  0
   24.0561  -20.5313   -8.4864 O   0  0  0  0  0  0  0  0  0  0  0  0
   25.2498  -21.2833   -6.7472 O   0  0  0  0  0  0  0  0  0  0  0  0
  2  4  1  0
  2  1  1  6
  3  2  1  0
  4  5  1  6
  6  4  1  0
  7  6  2  0
  9  8  1  0
 10  9  1  0
 10 11  1  0
 12 11  1  6
 12 13  1  0
 13  6  1  0
 14 16  1  0
 14 12  1  0
 15 14  2  0
 17 18  1  1
 17 16  1  0
 18 19  1  0
 19 24  2  0
 20 19  1  0
 20 21  2  0
 21 22  1  0
 22 23  2  0
 24 23  1  0
 25 17  1  0
 25 26  1  0
 27 25  2  0
M  END
$$$$
