VMF.pdb
     RDKit          3D

 27 27  0  0  1  0  0  0  0  0999 V2000
   21.1329  -11.1655  -15.5466 C   0  0  0  0  0  0  0  0  0  0  0  0
   20.6364  -11.8029  -16.8271 C   0  0  1  0  0  0  0  0  0  0  0  0
   20.3031  -13.2469  -16.5136 C   0  0  0  0  0  0  0  0  0  0  0  0
   19.3780  -11.1559  -17.3446 C   0  0  2  0  0  0  0  0  0  0  0  0
   18.9270  -11.9216  -18.4809 N   0  0  0  0  0  0  0  0  0  0  0  0
   19.5840   -9.7189  -17.6850 C   0  0  0  0  0  0  0  0  0  0  0  0
   20.2377   -9.4451  -18.7184 O   0  0  0  0  0  0  0  0  0  0  0  0
   16.1851   -5.4580  -19.9329 C   0  0  0  0  0  0  0  0  0  0  0  0
   16.9803   -4.2879  -18.7816 S   0  0  0  0  0  0  0  0  0  0  0  0
   18.4080   -5.1034  -18.0219 C   0  0  0  0  0  0  0  0  0  0  0  0
   18.1138   -6.5636  -17.7948 C   0  0  0  0  0  0  0  0  0  0  0  0
   19.2238   -7.2777  -17.0359 C   0  0  2  0  0  0  0  0  0  0  0  0
   19.0694   -8.6739  -16.8853 N   0  0  0  0  0  0  0  0  0  0  0  0
   19.5972   -6.4944  -15.8703 C   0  0  0  0  0  0  0  0  0  0  0  0
   18.7703   -6.5459  -14.8896 O   0  0  0  0  0  0  0  0  0  0  0  0
   20.7561   -5.7154  -15.7493 N   0  0  0  0  0  0  0  0  0  0  0  0
   21.0707   -5.0109  -14.5287 C   0  0  1  0  0  0  0  0  0  0  0  0
   22.3838   -5.5465  -14.0273 C   0  0  0  0  0  0  0  0  0  0  0  0
   22.3723   -6.9800  -13.6760 C   0  0  0  0  0  0  0  0  0  0  0  0
   21.7623   -7.4956  -12.5331 C   0  0  0  0  0  0  0  0  0  0  0  0
   21.7959   -8.8481  -12.2792 C   0  0  0  0  0  0  0  0  0  0  0  0
   22.4339   -9.6930  -13.1568 C   0  0  0  0  0  0  0  0  0  0  0  0
   23.0549   -9.2100  -14.3105 C   0  0  0  0  0  0  0  0  0  0  0  0
   23.0077   -7.8657  -14.5398 C   0  0  0  0  0  0  0  0  0  0  0  0
   21.1432   -3.5567  -14.7086 C   0  0  0  0  0  0  0  0  0  0  0  0
   20.9452   -3.0206  -15.9721 O   0  0  0  0  0  0  0  0  0  0  0  0
   21.3781   -2.7147  -13.7964 O   0  0  0  0  0  0  0  0  0  0  0  0
  2  4  1  0
  2  1  1  1
  3  2  1  0
  4  5  1  6
  6  4  1  0
  7  6  2  0
  9  8  1  0
 10  9  1  0
 10 11  1  0
 12 11  1  1
 12 13  1  0
 13  6  1  0
 14 16  1  0
 14 12  1  0
 15 14  2  0
 17 18  1  6
 17 16  1  0
 18 19  1  0
 19 24  2  0
 20 19  1  0
 20 21  2  0
 21 22  1  0
 22 23  2  0
 24 23  1  0
 25 17  1  0
 25 26  1  0
 27 25  2  0
M  END
$$$$
