VMF.pdb
     RDKit          3D

 27 27  0  0  1  0  0  0  0  0999 V2000
   27.7201  -16.6558  -15.6660 C   0  0  0  0  0  0  0  0  0  0  0  0
   26.5498  -17.5719  -15.3767 C   0  0  1  0  0  0  0  0  0  0  0  0
   25.3504  -17.0217  -16.1203 C   0  0  0  0  0  0  0  0  0  0  0  0
   26.7783  -18.9759  -15.8736 C   0  0  2  0  0  0  0  0  0  0  0  0
   25.4960  -19.6338  -15.9330 N   0  0  0  0  0  0  0  0  0  0  0  0
   27.7504  -19.7215  -15.0238 C   0  0  0  0  0  0  0  0  0  0  0  0
   28.9276  -19.2965  -14.9621 O   0  0  0  0  0  0  0  0  0  0  0  0
   31.7551  -20.5249  -10.9975 C   0  0  0  0  0  0  0  0  0  0  0  0
   30.6918  -21.8809  -10.3995 S   0  0  0  0  0  0  0  0  0  0  0  0
   28.9863  -21.5467  -10.9093 C   0  0  0  0  0  0  0  0  0  0  0  0
   28.9339  -21.2401  -12.3837 C   0  0  0  0  0  0  0  0  0  0  0  0
   27.5107  -21.1371  -12.9144 C   0  0  2  0  0  0  0  0  0  0  0  0
   27.3848  -20.8769  -14.2973 N   0  0  0  0  0  0  0  0  0  0  0  0
   26.7022  -20.3611  -11.9892 C   0  0  0  0  0  0  0  0  0  0  0  0
   26.4529  -19.1571  -12.3585 O   0  0  0  0  0  0  0  0  0  0  0  0
   26.1953  -20.8216  -10.7663 N   0  0  0  0  0  0  0  0  0  0  0  0
   24.9506  -20.3257  -10.2279 C   0  0  1  0  0  0  0  0  0  0  0  0
   23.8772  -20.6126  -11.2419 C   0  0  0  0  0  0  0  0  0  0  0  0
   22.5245  -20.1703  -10.8511 C   0  0  0  0  0  0  0  0  0  0  0  0
   21.8631  -20.6106   -9.7053 C   0  0  0  0  0  0  0  0  0  0  0  0
   20.6007  -20.1470   -9.4117 C   0  0  0  0  0  0  0  0  0  0  0  0
   19.9904  -19.2460  -10.2526 C   0  0  0  0  0  0  0  0  0  0  0  0
   20.6242  -18.7845  -11.4081 C   0  0  0  0  0  0  0  0  0  0  0  0
   21.8750  -19.2590  -11.6770 C   0  0  0  0  0  0  0  0  0  0  0  0
   24.6077  -20.9235   -8.9327 C   0  0  0  0  0  0  0  0  0  0  0  0
   24.1032  -20.1139   -7.9262 O   0  0  0  0  0  0  0  0  0  0  0  0
   24.7322  -22.1442   -8.6313 O   0  0  0  0  0  0  0  0  0  0  0  0
  2  4  1  0
  2  1  1  6
  3  2  1  0
  4  5  1  1
  6  4  1  0
  7  6  2  0
  9  8  1  0
 10  9  1  0
 10 11  1  0
 12 11  1  1
 12 13  1  0
 13  6  1  0
 14 16  1  0
 14 12  1  0
 15 14  2  0
 17 18  1  6
 17 16  1  0
 18 19  1  0
 19 24  2  0
 20 19  1  0
 20 21  2  0
 21 22  1  0
 22 23  2  0
 24 23  1  0
 25 17  1  0
 25 26  1  0
 27 25  2  0
M  END
$$$$
