VMF.pdb
     RDKit          3D

 27 27  0  0  1  0  0  0  0  0999 V2000
   28.0036  -17.5580  -15.6753 C   0  0  0  0  0  0  0  0  0  0  0  0
   27.0274  -18.3974  -14.8786 C   0  0  1  0  0  0  0  0  0  0  0  0
   25.8474  -18.6963  -15.7800 C   0  0  0  0  0  0  0  0  0  0  0  0
   27.6131  -19.7197  -14.4558 C   0  0  2  0  0  0  0  0  0  0  0  0
   27.9646  -20.4457  -15.6517 N   0  0  0  0  0  0  0  0  0  0  0  0
   26.6826  -20.4938  -13.5851 C   0  0  0  0  0  0  0  0  0  0  0  0
   26.0021  -21.4047  -14.1117 O   0  0  0  0  0  0  0  0  0  0  0  0
   26.6723  -19.6168   -7.1146 C   0  0  0  0  0  0  0  0  0  0  0  0
   27.9333  -20.7267   -7.8251 S   0  0  0  0  0  0  0  0  0  0  0  0
   27.4753  -21.1025   -9.5367 C   0  0  0  0  0  0  0  0  0  0  0  0
   26.0569  -20.6692   -9.8034 C   0  0  0  0  0  0  0  0  0  0  0  0
   25.6631  -20.8089  -11.2674 C   0  0  2  0  0  0  0  0  0  0  0  0
   26.5501  -20.2314  -12.2031 N   0  0  0  0  0  0  0  0  0  0  0  0
   24.2404  -20.5516  -11.4144 C   0  0  0  0  0  0  0  0  0  0  0  0
   23.8016  -19.5274  -10.7767 O   0  0  0  0  0  0  0  0  0  0  0  0
   23.3484  -21.3179  -12.1770 N   0  0  0  0  0  0  0  0  0  0  0  0
   21.9709  -20.9228  -12.3541 C   0  0  1  0  0  0  0  0  0  0  0  0
   21.9734  -19.5613  -12.9936 C   0  0  0  0  0  0  0  0  0  0  0  0
   22.4893  -19.5293  -14.3760 C   0  0  0  0  0  0  0  0  0  0  0  0
   21.7943  -20.0278  -15.4772 C   0  0  0  0  0  0  0  0  0  0  0  0
   22.3469  -19.9578  -16.7359 C   0  0  0  0  0  0  0  0  0  0  0  0
   23.5895  -19.3938  -16.9069 C   0  0  0  0  0  0  0  0  0  0  0  0
   24.3126  -18.8852  -15.8260 C   0  0  0  0  0  0  0  0  0  0  0  0
   23.7432  -18.9664  -14.5886 C   0  0  0  0  0  0  0  0  0  0  0  0
   21.2024  -21.8717  -13.1673 C   0  0  0  0  0  0  0  0  0  0  0  0
   19.8359  -21.6860  -13.3134 O   0  0  0  0  0  0  0  0  0  0  0  0
   21.6770  -22.8774  -13.7672 O   0  0  0  0  0  0  0  0  0  0  0  0
  2  4  1  0
  2  1  1  6
  3  2  1  0
  4  5  1  6
  6  4  1  0
  7  6  2  0
  9  8  1  0
 10  9  1  0
 10 11  1  0
 12 11  1  1
 12 13  1  0
 13  6  1  0
 14 16  1  0
 14 12  1  0
 15 14  2  0
 17 18  1  6
 17 16  1  0
 18 19  1  0
 19 24  2  0
 20 19  1  0
 20 21  2  0
 21 22  1  0
 22 23  2  0
 24 23  1  0
 25 17  1  0
 25 26  1  0
 27 25  2  0
M  END
$$$$
