VMF.pdb
     RDKit          3D

 27 27  0  0  1  0  0  0  0  0999 V2000
   21.3369  -14.9878  -18.9209 C   0  0  0  0  0  0  0  0  0  0  0  0
   21.9297  -16.2533  -18.3383 C   0  0  1  0  0  0  0  0  0  0  0  0
   21.5875  -17.3885  -19.2809 C   0  0  0  0  0  0  0  0  0  0  0  0
   23.4319  -16.1942  -18.2366 C   0  0  2  0  0  0  0  0  0  0  0  0
   23.9541  -16.0045  -19.5678 N   0  0  0  0  0  0  0  0  0  0  0  0
   23.9989  -17.4076  -17.5813 C   0  0  0  0  0  0  0  0  0  0  0  0
   24.3325  -18.3705  -18.3104 O   0  0  0  0  0  0  0  0  0  0  0  0
   29.1734  -18.5050  -14.5377 C   0  0  0  0  0  0  0  0  0  0  0  0
   28.1084  -19.2379  -13.2510 S   0  0  0  0  0  0  0  0  0  0  0  0
   26.4753  -19.5592  -13.9652 C   0  0  0  0  0  0  0  0  0  0  0  0
   25.9721  -18.3354  -14.6860 C   0  0  0  0  0  0  0  0  0  0  0  0
   24.6555  -18.5777  -15.4110 C   0  0  2  0  0  0  0  0  0  0  0  0
   24.1673  -17.4988  -16.1814 N   0  0  0  0  0  0  0  0  0  0  0  0
   23.7327  -19.2669  -14.5249 C   0  0  0  0  0  0  0  0  0  0  0  0
   23.2429  -18.5487  -13.5802 O   0  0  0  0  0  0  0  0  0  0  0  0
   23.3555  -20.6128  -14.6285 N   0  0  0  0  0  0  0  0  0  0  0  0
   22.3412  -21.1827  -13.7731 C   0  0  1  0  0  0  0  0  0  0  0  0
   23.0026  -22.2469  -12.9407 C   0  0  0  0  0  0  0  0  0  0  0  0
   23.9699  -21.7414  -11.9472 C   0  0  0  0  0  0  0  0  0  0  0  0
   25.3515  -21.8908  -12.0611 C   0  0  0  0  0  0  0  0  0  0  0  0
   26.1860  -21.3876  -11.0890 C   0  0  0  0  0  0  0  0  0  0  0  0
   25.6539  -20.7352  -10.0016 C   0  0  0  0  0  0  0  0  0  0  0  0
   24.2752  -20.5681   -9.8563 C   0  0  0  0  0  0  0  0  0  0  0  0
   23.4692  -21.0758  -10.8333 C   0  0  0  0  0  0  0  0  0  0  0  0
   21.6907  -20.1875  -12.9137 C   0  0  0  0  0  0  0  0  0  0  0  0
   20.4584  -20.4822  -12.3502 O   0  0  0  0  0  0  0  0  0  0  0  0
   22.1561  -19.0483  -12.6270 O   0  0  0  0  0  0  0  0  0  0  0  0
  2  4  1  0
  2  1  1  6
  3  2  1  0
  4  5  1  6
  6  4  1  0
  7  6  2  0
  9  8  1  0
 10  9  1  0
 10 11  1  0
 12 11  1  1
 12 13  1  0
 13  6  1  0
 14 16  1  0
 14 12  1  0
 15 14  2  0
 17 18  1  1
 17 16  1  0
 18 19  1  0
 19 24  2  0
 20 19  1  0
 20 21  2  0
 21 22  1  0
 22 23  2  0
 24 23  1  0
 25 17  1  0
 25 26  1  0
 27 25  2  0
M  END
$$$$
