VMF.pdb
     RDKit          3D

 27 27  0  0  1  0  0  0  0  0999 V2000
   27.1721  -22.1810  -18.0767 C   0  0  0  0  0  0  0  0  0  0  0  0
   28.3198  -21.2486  -17.7510 C   0  0  1  0  0  0  0  0  0  0  0  0
   28.6478  -20.4775  -19.0128 C   0  0  0  0  0  0  0  0  0  0  0  0
   27.9617  -20.2396  -16.6909 C   0  0  2  0  0  0  0  0  0  0  0  0
   28.9685  -19.2068  -16.7111 N   0  0  0  0  0  0  0  0  0  0  0  0
   27.8279  -20.8636  -15.3434 C   0  0  0  0  0  0  0  0  0  0  0  0
   26.8869  -21.6698  -15.1573 O   0  0  0  0  0  0  0  0  0  0  0  0
   32.1351  -22.6469  -10.3662 C   0  0  0  0  0  0  0  0  0  0  0  0
   31.2208  -21.1867   -9.7670 S   0  0  0  0  0  0  0  0  0  0  0  0
   29.6312  -21.1044  -10.6312 C   0  0  0  0  0  0  0  0  0  0  0  0
   29.8397  -20.7002  -12.0678 C   0  0  0  0  0  0  0  0  0  0  0  0
   28.5724  -20.8175  -12.9033 C   0  0  2  0  0  0  0  0  0  0  0  0
   28.7206  -20.5744  -14.2871 N   0  0  0  0  0  0  0  0  0  0  0  0
   27.4690  -20.1806  -12.2043 C   0  0  0  0  0  0  0  0  0  0  0  0
   27.1216  -19.0328  -12.6625 O   0  0  0  0  0  0  0  0  0  0  0  0
   26.7841  -20.7153  -11.1045 N   0  0  0  0  0  0  0  0  0  0  0  0
   25.4720  -20.2443  -10.7279 C   0  0  1  0  0  0  0  0  0  0  0  0
   24.5307  -20.5965  -11.8470 C   0  0  0  0  0  0  0  0  0  0  0  0
   23.1284  -20.1936  -11.6243 C   0  0  0  0  0  0  0  0  0  0  0  0
   22.3458  -20.6538  -10.5660 C   0  0  0  0  0  0  0  0  0  0  0  0
   21.0444  -20.2269  -10.4288 C   0  0  0  0  0  0  0  0  0  0  0  0
   20.5151  -19.3430  -11.3398 C   0  0  0  0  0  0  0  0  0  0  0  0
   21.2709  -18.8624  -12.4111 C   0  0  0  0  0  0  0  0  0  0  0  0
   22.5582  -19.3006  -12.5251 C   0  0  0  0  0  0  0  0  0  0  0  0
   25.0006  -20.8137   -9.4607 C   0  0  0  0  0  0  0  0  0  0  0  0
   24.4055  -19.9812   -8.5247 O   0  0  0  0  0  0  0  0  0  0  0  0
   25.0873  -22.0285   -9.1240 O   0  0  0  0  0  0  0  0  0  0  0  0
  2  4  1  0
  2  1  1  6
  3  2  1  0
  4  5  1  1
  6  4  1  0
  7  6  2  0
  9  8  1  0
 10  9  1  0
 10 11  1  0
 12 11  1  1
 12 13  1  0
 13  6  1  0
 14 16  1  0
 14 12  1  0
 15 14  2  0
 17 18  1  6
 17 16  1  0
 18 19  1  0
 19 24  2  0
 20 19  1  0
 20 21  2  0
 21 22  1  0
 22 23  2  0
 24 23  1  0
 25 17  1  0
 25 26  1  0
 27 25  2  0
M  END
$$$$
