VMF.pdb
     RDKit          3D

 27 27  0  0  1  0  0  0  0  0999 V2000
   27.5480  -17.0092  -14.5918 C   0  0  0  0  0  0  0  0  0  0  0  0
   27.5346  -18.0532  -13.4953 C   0  0  1  0  0  0  0  0  0  0  0  0
   26.1088  -18.1667  -12.9966 C   0  0  0  0  0  0  0  0  0  0  0  0
   27.9449  -19.4160  -13.9898 C   0  0  2  0  0  0  0  0  0  0  0  0
   27.0674  -19.7695  -15.0788 N   0  0  0  0  0  0  0  0  0  0  0  0
   27.9268  -20.4370  -12.9033 C   0  0  0  0  0  0  0  0  0  0  0  0
   26.8773  -21.1002  -12.7342 O   0  0  0  0  0  0  0  0  0  0  0  0
   33.3903  -21.9713   -9.4557 C   0  0  0  0  0  0  0  0  0  0  0  0
   32.2933  -23.3556   -9.0005 S   0  0  0  0  0  0  0  0  0  0  0  0
   30.5866  -22.8956   -9.3956 C   0  0  0  0  0  0  0  0  0  0  0  0
   30.5621  -21.9273  -10.5499 C   0  0  0  0  0  0  0  0  0  0  0  0
   29.1510  -21.5061  -10.9364 C   0  0  2  0  0  0  0  0  0  0  0  0
   29.0448  -20.6726  -12.0721 N   0  0  0  0  0  0  0  0  0  0  0  0
   28.4078  -21.1434   -9.7415 C   0  0  0  0  0  0  0  0  0  0  0  0
   29.1249  -20.7683   -8.7448 O   0  0  0  0  0  0  0  0  0  0  0  0
   27.0129  -21.1744   -9.6089 N   0  0  0  0  0  0  0  0  0  0  0  0
   26.3700  -20.9970   -8.3281 C   0  0  1  0  0  0  0  0  0  0  0  0
   26.7886  -19.6528   -7.7985 C   0  0  0  0  0  0  0  0  0  0  0  0
   27.6165  -19.7006   -6.5776 C   0  0  0  0  0  0  0  0  0  0  0  0
   28.5023  -18.6926   -6.1988 C   0  0  0  0  0  0  0  0  0  0  0  0
   29.2379  -18.8144   -5.0417 C   0  0  0  0  0  0  0  0  0  0  0  0
   29.0977  -19.9352   -4.2571 C   0  0  0  0  0  0  0  0  0  0  0  0
   28.2199  -20.9632   -4.6070 C   0  0  0  0  0  0  0  0  0  0  0  0
   27.5021  -20.8187   -5.7585 C   0  0  0  0  0  0  0  0  0  0  0  0
   24.9078  -21.0879   -8.4032 C   0  0  0  0  0  0  0  0  0  0  0  0
   24.1963  -21.4895   -7.2826 O   0  0  0  0  0  0  0  0  0  0  0  0
   24.2073  -20.8297   -9.4226 O   0  0  0  0  0  0  0  0  0  0  0  0
  2  4  1  0
  2  1  1  6
  3  2  1  0
  4  5  1  6
  6  4  1  0
  7  6  2  0
  9  8  1  0
 10  9  1  0
 10 11  1  0
 12 11  1  1
 12 13  1  0
 13  6  1  0
 14 16  1  0
 14 12  1  0
 15 14  2  0
 17 18  1  6
 17 16  1  0
 18 19  1  0
 19 24  2  0
 20 19  1  0
 20 21  2  0
 21 22  1  0
 22 23  2  0
 24 23  1  0
 25 17  1  0
 25 26  1  0
 27 25  2  0
M  END
$$$$
