VMF.pdb
     RDKit          3D

 27 27  0  0  1  0  0  0  0  0999 V2000
   10.9227  -10.1039  -10.8636 C   0  0  0  0  0  0  0  0  0  0  0  0
   11.4104  -11.5311  -10.7308 C   0  0  1  0  0  0  0  0  0  0  0  0
   10.3183  -12.4338  -11.2661 C   0  0  0  0  0  0  0  0  0  0  0  0
   12.6494  -11.7967  -11.5460 C   0  0  2  0  0  0  0  0  0  0  0  0
   13.0135  -13.1789  -11.3521 N   0  0  0  0  0  0  0  0  0  0  0  0
   13.7633  -10.8704  -11.1934 C   0  0  0  0  0  0  0  0  0  0  0  0
   14.3520  -11.0443  -10.1010 O   0  0  0  0  0  0  0  0  0  0  0  0
   18.3371  -10.6764  -15.9562 C   0  0  0  0  0  0  0  0  0  0  0  0
   17.6178   -9.1881  -15.1852 S   0  0  0  0  0  0  0  0  0  0  0  0
   16.7199   -9.6858  -13.6931 C   0  0  0  0  0  0  0  0  0  0  0  0
   15.9969   -8.5035  -13.1016 C   0  0  0  0  0  0  0  0  0  0  0  0
   15.1926   -8.8647  -11.8604 C   0  0  2  0  0  0  0  0  0  0  0  0
   14.1664   -9.8178  -12.0454 N   0  0  0  0  0  0  0  0  0  0  0  0
   14.8873   -7.6576  -11.1111 C   0  0  0  0  0  0  0  0  0  0  0  0
   13.7045   -7.1901  -11.2864 O   0  0  0  0  0  0  0  0  0  0  0  0
   15.7645   -6.9942  -10.2423 N   0  0  0  0  0  0  0  0  0  0  0  0
   15.3567   -5.8217   -9.5045 C   0  0  1  0  0  0  0  0  0  0  0  0
   14.1571   -6.2044   -8.6816 C   0  0  0  0  0  0  0  0  0  0  0  0
   13.6502   -5.1380   -7.7961 C   0  0  0  0  0  0  0  0  0  0  0  0
   13.8729   -3.7783   -8.0099 C   0  0  0  0  0  0  0  0  0  0  0  0
   13.3628   -2.8459   -7.1352 C   0  0  0  0  0  0  0  0  0  0  0  0
   12.6309   -3.2582   -6.0464 C   0  0  0  0  0  0  0  0  0  0  0  0
   12.3891   -4.6117   -5.8025 C   0  0  0  0  0  0  0  0  0  0  0  0
   12.9053   -5.5163   -6.6842 C   0  0  0  0  0  0  0  0  0  0  0  0
   16.4194   -5.2860   -8.6467 C   0  0  0  0  0  0  0  0  0  0  0  0
   16.5035   -3.9159   -8.4493 O   0  0  0  0  0  0  0  0  0  0  0  0
   17.2976   -5.9714   -8.0505 O   0  0  0  0  0  0  0  0  0  0  0  0
  2  4  1  0
  2  1  1  6
  3  2  1  0
  4  5  1  1
  6  4  1  0
  7  6  2  0
  9  8  1  0
 10  9  1  0
 10 11  1  0
 12 11  1  6
 12 13  1  0
 13  6  1  0
 14 16  1  0
 14 12  1  0
 15 14  2  0
 17 18  1  1
 17 16  1  0
 18 19  1  0
 19 24  2  0
 20 19  1  0
 20 21  2  0
 21 22  1  0
 22 23  2  0
 24 23  1  0
 25 17  1  0
 25 26  1  0
 27 25  2  0
M  END
$$$$
