VMF.pdb
     RDKit          3D

 27 27  0  0  1  0  0  0  0  0999 V2000
   28.9647  -17.9498  -16.0515 C   0  0  0  0  0  0  0  0  0  0  0  0
   27.9200  -18.7172  -15.2691 C   0  0  1  0  0  0  0  0  0  0  0  0
   26.7771  -19.0190  -16.2162 C   0  0  0  0  0  0  0  0  0  0  0  0
   28.4358  -20.0368  -14.7562 C   0  0  2  0  0  0  0  0  0  0  0  0
   28.8952  -20.7988  -15.8916 N   0  0  0  0  0  0  0  0  0  0  0  0
   27.4074  -20.7739  -13.9675 C   0  0  0  0  0  0  0  0  0  0  0  0
   26.6637  -21.5793  -14.5743 O   0  0  0  0  0  0  0  0  0  0  0  0
   26.9682  -19.7076   -7.5522 C   0  0  0  0  0  0  0  0  0  0  0  0
   25.3407  -20.5131   -7.7237 S   0  0  0  0  0  0  0  0  0  0  0  0
   25.1317  -21.0346   -9.4455 C   0  0  0  0  0  0  0  0  0  0  0  0
   26.2898  -20.5522  -10.2802 C   0  0  0  0  0  0  0  0  0  0  0  0
   26.1622  -20.9410  -11.7466 C   0  0  2  0  0  0  0  0  0  0  0  0
   27.2516  -20.5908  -12.5752 N   0  0  0  0  0  0  0  0  0  0  0  0
   24.8176  -20.6460  -12.2121 C   0  0  0  0  0  0  0  0  0  0  0  0
   24.5663  -19.4017  -12.4038 O   0  0  0  0  0  0  0  0  0  0  0  0
   23.8141  -21.5934  -12.4569 N   0  0  0  0  0  0  0  0  0  0  0  0
   22.5537  -21.2233  -13.0567 C   0  0  1  0  0  0  0  0  0  0  0  0
   22.5831  -21.6901  -14.4864 C   0  0  0  0  0  0  0  0  0  0  0  0
   22.8091  -23.1384  -14.6586 C   0  0  0  0  0  0  0  0  0  0  0  0
   21.7961  -24.0951  -14.6066 C   0  0  0  0  0  0  0  0  0  0  0  0
   22.0917  -25.4283  -14.7792 C   0  0  0  0  0  0  0  0  0  0  0  0
   23.3916  -25.8171  -15.0036 C   0  0  0  0  0  0  0  0  0  0  0  0
   24.4300  -24.8853  -15.0615 C   0  0  0  0  0  0  0  0  0  0  0  0
   24.1112  -23.5700  -14.8874 C   0  0  0  0  0  0  0  0  0  0  0  0
   21.3967  -21.7892  -12.3544 C   0  0  0  0  0  0  0  0  0  0  0  0
   20.1192  -21.4822  -12.7981 O   0  0  0  0  0  0  0  0  0  0  0  0
   21.4492  -22.5534  -11.3495 O   0  0  0  0  0  0  0  0  0  0  0  0
  2  4  1  0
  2  1  1  6
  3  2  1  0
  4  5  1  6
  6  4  1  0
  7  6  2  0
  9  8  1  0
 10  9  1  0
 10 11  1  0
 12 11  1  1
 12 13  1  0
 13  6  1  0
 14 16  1  0
 14 12  1  0
 15 14  2  0
 17 18  1  6
 17 16  1  0
 18 19  1  0
 19 24  2  0
 20 19  1  0
 20 21  2  0
 21 22  1  0
 22 23  2  0
 24 23  1  0
 25 17  1  0
 25 26  1  0
 27 25  2  0
M  END
$$$$
