CRD.pdb
     RDKit          3D

 26 25  0  0  1  0  0  0  0  0999 V2000
    6.8561  -13.7694   18.1195 N   0  0  0  0  0  0  0  0  0  0  0  0
    7.9981  -13.4714   18.9660 C   0  0  1  0  0  0  0  0  0  0  0  0
    7.4606  -12.7393   20.1894 C   0  0  0  0  0  0  0  0  0  0  0  0
    8.8583  -12.3937   21.3009 S   0  0  0  0  0  0  0  0  0  0  0  0
    8.6006  -14.7566   19.4160 C   0  0  0  0  0  0  0  0  0  0  0  0
    7.8839  -15.7022   19.8447 O   0  0  0  0  0  0  0  0  0  0  0  0
   10.7347  -16.8721   14.4764 N   0  0  0  0  0  0  0  0  0  0  0  0
    9.7728  -17.8783   14.7843 C   0  0  0  0  0  0  0  0  0  0  0  0
    9.3777  -18.7541   13.9308 N   0  0  0  0  0  0  0  0  0  0  0  0
    9.2183  -17.9203   16.0913 N   0  0  0  0  0  0  0  0  0  0  0  0
    9.7415  -17.0726   17.1225 C   0  0  0  0  0  0  0  0  0  0  0  0
   11.1008  -17.5259   17.6213 C   0  0  0  0  0  0  0  0  0  0  0  0
   11.5668  -16.6322   18.7295 C   0  0  0  0  0  0  0  0  0  0  0  0
   10.5467  -16.3095   19.7667 C   0  0  2  0  0  0  0  0  0  0  0  0
   10.0041  -14.9884   19.3882 N   0  0  0  0  0  0  0  0  0  0  0  0
   11.0916  -16.2070   21.1274 C   0  0  0  0  0  0  0  0  0  0  0  0
   11.6132  -15.1398   21.5305 O   0  0  0  0  0  0  0  0  0  0  0  0
    8.6841  -19.4817   14.2453 N   0  0  0  0  0  0  0  0  0  0  0  0
   11.0487  -17.2933   22.0219 C   0  0  2  0  0  0  0  0  0  0  0  0
   11.5497  -17.1218   23.3704 C   0  0  0  0  0  0  0  0  0  0  0  0
   10.9053  -18.1821   24.2399 C   0  0  0  0  0  0  0  0  0  0  0  0
   11.4556  -18.2488   25.6092 O   0  0  0  0  0  0  0  0  0  0  0  0
   12.5820  -18.8036   25.7936 C   0  0  0  0  0  0  0  0  0  0  0  0
   13.0163  -17.2974   23.2972 O   0  0  0  0  0  0  0  0  0  0  0  0
   13.9092  -16.6816   24.1404 O   0  0  0  0  0  0  0  0  0  0  0  0
   10.8430  -17.7515   26.7449 O   0  0  0  0  0  0  0  0  0  0  0  0
  2  1  1  6
  3  2  1  0
  4  3  1  0
  5  2  1  0
  5  6  2  0
  7  8  1  0
  8  9  2  0
  8 10  1  0
 10 11  1  0
 11 12  1  0
 12 13  1  0
 14 13  1  6
 14 15  1  0
 15  5  1  0
 16 14  1  0
 17 16  2  0
 18 16  1  0
 19 18  1  0
 19 20  1  1
 20 21  1  0
 21 25  1  0
 22 21  2  0
 23 19  1  0
 24 23  1  0
 26 23  2  0
M  END
$$$$
