CRD.pdb
     RDKit          3D

 26 25  0  0  1  0  0  0  0  0999 V2000
    6.0867  -14.9936   24.6407 N   0  0  0  0  0  0  0  0  0  0  0  0
    7.2989  -14.4170   24.0860 C   0  0  1  0  0  0  0  0  0  0  0  0
    8.0351  -13.7457   25.2388 C   0  0  0  0  0  0  0  0  0  0  0  0
    7.0818  -12.2807   25.7420 S   0  0  0  0  0  0  0  0  0  0  0  0
    8.1516  -15.5210   23.5649 C   0  0  0  0  0  0  0  0  0  0  0  0
    8.1399  -16.6651   24.0962 O   0  0  0  0  0  0  0  0  0  0  0  0
    6.4555  -13.4323   17.1665 N   0  0  0  0  0  0  0  0  0  0  0  0
    7.8125  -13.8628   17.2412 C   0  0  0  0  0  0  0  0  0  0  0  0
    8.8095  -13.0613   17.1171 N   0  0  0  0  0  0  0  0  0  0  0  0
    8.0844  -15.2397   17.4596 N   0  0  0  0  0  0  0  0  0  0  0  0
    9.2051  -15.6334   18.2624 C   0  0  0  0  0  0  0  0  0  0  0  0
    8.8484  -15.7965   19.7282 C   0  0  0  0  0  0  0  0  0  0  0  0
   10.0589  -16.2058   20.5101 C   0  0  0  0  0  0  0  0  0  0  0  0
    9.8264  -16.4835   21.9555 C   0  0  2  0  0  0  0  0  0  0  0  0
    9.0184  -15.3496   22.4497 N   0  0  0  0  0  0  0  0  0  0  0  0
   11.0572  -16.5505   22.7553 C   0  0  0  0  0  0  0  0  0  0  0  0
   11.6123  -15.5036   23.1667 O   0  0  0  0  0  0  0  0  0  0  0  0
    9.7801  -13.4442   17.2607 N   0  0  0  0  0  0  0  0  0  0  0  0
   11.6540  -17.7817   23.0870 C   0  0  1  0  0  0  0  0  0  0  0  0
   12.9260  -17.7892   23.7805 C   0  0  0  0  0  0  0  0  0  0  0  0
   13.0549  -19.1202   24.4927 C   0  0  0  0  0  0  0  0  0  0  0  0
   12.1831  -19.2517   25.6780 O   0  0  0  0  0  0  0  0  0  0  0  0
   11.5547  -18.2315   26.0962 C   0  0  0  0  0  0  0  0  0  0  0  0
   13.9683  -17.6248   22.7443 O   0  0  0  0  0  0  0  0  0  0  0  0
   13.7763  -17.8872   21.4095 O   0  0  0  0  0  0  0  0  0  0  0  0
   11.9800  -20.4141   26.3992 O   0  0  0  0  0  0  0  0  0  0  0  0
  2  1  1  1
  3  2  1  0
  4  3  1  0
  5  2  1  0
  5  6  2  0
  7  8  1  0
  8  9  2  0
  8 10  1  0
 10 11  1  0
 11 12  1  0
 12 13  1  0
 14 13  1  6
 14 15  1  0
 15  5  1  0
 16 14  1  0
 17 16  2  0
 18 16  1  0
 19 18  1  0
 19 20  1  1
 20 21  1  0
 21 25  1  0
 22 21  2  0
 23 19  1  0
 24 23  1  0
 26 23  2  0
M  END
$$$$
