CRD.pdb
     RDKit          3D

 26 25  0  0  1  0  0  0  0  0999 V2000
   13.4264  -17.3249   16.3273 N   0  0  0  0  0  0  0  0  0  0  0  0
   12.7479  -18.0080   17.4148 C   0  0  1  0  0  0  0  0  0  0  0  0
   13.6169  -19.2000   17.7968 C   0  0  0  0  0  0  0  0  0  0  0  0
   13.1921  -20.5850   16.6970 S   0  0  0  0  0  0  0  0  0  0  0  0
   12.6784  -17.0856   18.5817 C   0  0  0  0  0  0  0  0  0  0  0  0
   13.5484  -16.1901   18.7623 O   0  0  0  0  0  0  0  0  0  0  0  0
    7.1076  -13.3594   17.1543 N   0  0  0  0  0  0  0  0  0  0  0  0
    7.6282  -13.1541   18.4655 C   0  0  0  0  0  0  0  0  0  0  0  0
    6.8863  -13.1040   19.5137 N   0  0  0  0  0  0  0  0  0  0  0  0
    9.0298  -12.9936   18.6298 N   0  0  0  0  0  0  0  0  0  0  0  0
    9.7183  -13.7019   19.6690 C   0  0  0  0  0  0  0  0  0  0  0  0
    9.4608  -15.1966   19.6304 C   0  0  0  0  0  0  0  0  0  0  0  0
   10.1148  -15.8621   20.8023 C   0  0  0  0  0  0  0  0  0  0  0  0
   11.5640  -16.1688   20.6407 C   0  0  2  0  0  0  0  0  0  0  0  0
   11.6375  -17.1613   19.5487 N   0  0  0  0  0  0  0  0  0  0  0  0
   12.1860  -16.7564   21.8352 C   0  0  0  0  0  0  0  0  0  0  0  0
   11.8747  -17.9095   22.2187 O   0  0  0  0  0  0  0  0  0  0  0  0
    7.3477  -12.9376   20.4457 N   0  0  0  0  0  0  0  0  0  0  0  0
   13.1465  -16.0534   22.5871 C   0  0  2  0  0  0  0  0  0  0  0  0
   13.6965  -16.6620   23.7812 C   0  0  0  0  0  0  0  0  0  0  0  0
   14.9913  -15.9466   24.1087 C   0  0  0  0  0  0  0  0  0  0  0  0
   16.0527  -16.1380   23.0992 O   0  0  0  0  0  0  0  0  0  0  0  0
   16.5731  -15.1180   22.5520 C   0  0  0  0  0  0  0  0  0  0  0  0
   12.6889  -16.4761   24.8476 O   0  0  0  0  0  0  0  0  0  0  0  0
   12.7836  -17.0280   26.1022 O   0  0  0  0  0  0  0  0  0  0  0  0
   16.5487  -17.3585   22.6785 O   0  0  0  0  0  0  0  0  0  0  0  0
  2  1  1  6
  3  2  1  0
  4  3  1  0
  5  2  1  0
  5  6  2  0
  7  8  1  0
  8  9  2  0
  8 10  1  0
 10 11  1  0
 11 12  1  0
 12 13  1  0
 14 13  1  1
 14 15  1  0
 15  5  1  0
 16 14  1  0
 17 16  2  0
 18 16  1  0
 19 18  1  0
 19 20  1  6
 20 21  1  0
 21 25  1  0
 22 21  2  0
 23 19  1  0
 24 23  1  0
 26 23  2  0
M  END
$$$$
