CRD.pdb
     RDKit          3D

 26 25  0  0  1  0  0  0  0  0999 V2000
    7.0307  -18.8425   26.7249 N   0  0  0  0  0  0  0  0  0  0  0  0
    7.8142  -17.6254   26.6042 C   0  0  1  0  0  0  0  0  0  0  0  0
    8.9355  -17.7196   27.6316 C   0  0  0  0  0  0  0  0  0  0  0  0
    8.2420  -17.3169   29.2641 S   0  0  0  0  0  0  0  0  0  0  0  0
    8.4244  -17.5891   25.2464 C   0  0  0  0  0  0  0  0  0  0  0  0
    8.8525  -18.6382   24.6917 O   0  0  0  0  0  0  0  0  0  0  0  0
    6.8211  -11.8874   19.4420 N   0  0  0  0  0  0  0  0  0  0  0  0
    7.5567  -13.0570   19.0912 C   0  0  0  0  0  0  0  0  0  0  0  0
    8.0394  -13.2549   17.9166 N   0  0  0  0  0  0  0  0  0  0  0  0
    7.7682  -14.0562   20.0782 N   0  0  0  0  0  0  0  0  0  0  0  0
    6.8385  -14.2082   21.1591 C   0  0  0  0  0  0  0  0  0  0  0  0
    7.2272  -15.3204   22.1152 C   0  0  0  0  0  0  0  0  0  0  0  0
    8.6842  -15.2257   22.4500 C   0  0  0  0  0  0  0  0  0  0  0  0
    9.2479  -16.3838   23.1993 C   0  0  2  0  0  0  0  0  0  0  0  0
    8.5577  -16.3818   24.5056 N   0  0  0  0  0  0  0  0  0  0  0  0
   10.6932  -16.2880   23.4459 C   0  0  0  0  0  0  0  0  0  0  0  0
   11.1455  -15.4966   24.3077 O   0  0  0  0  0  0  0  0  0  0  0  0
    8.5613  -14.1514   17.7347 N   0  0  0  0  0  0  0  0  0  0  0  0
   11.6163  -17.0743   22.7305 C   0  0  2  0  0  0  0  0  0  0  0  0
   13.0323  -16.9254   22.9984 C   0  0  0  0  0  0  0  0  0  0  0  0
   13.6840  -18.2785   22.7986 C   0  0  0  0  0  0  0  0  0  0  0  0
   13.4779  -19.2140   23.9232 O   0  0  0  0  0  0  0  0  0  0  0  0
   13.8152  -20.4293   23.7828 C   0  0  0  0  0  0  0  0  0  0  0  0
   13.5391  -15.9303   22.0288 O   0  0  0  0  0  0  0  0  0  0  0  0
   14.7782  -15.3417   22.1051 O   0  0  0  0  0  0  0  0  0  0  0  0
   12.9348  -18.8841   25.1516 O   0  0  0  0  0  0  0  0  0  0  0  0
  2  1  1  6
  3  2  1  0
  4  3  1  0
  5  2  1  0
  5  6  2  0
  7  8  1  0
  8  9  2  0
  8 10  1  0
 10 11  1  0
 11 12  1  0
 12 13  1  0
 14 13  1  6
 14 15  1  0
 15  5  1  0
 16 14  1  0
 17 16  2  0
 18 16  1  0
 19 18  1  0
 19 20  1  1
 20 21  1  0
 21 25  1  0
 22 21  2  0
 23 19  1  0
 24 23  1  0
 26 23  2  0
M  END
$$$$
