CRD.pdb
     RDKit          3D

 26 25  0  0  1  0  0  0  0  0999 V2000
   14.8801  -15.1875   14.5364 N   0  0  0  0  0  0  0  0  0  0  0  0
   14.2210  -16.1091   15.4451 C   0  0  1  0  0  0  0  0  0  0  0  0
   15.1936  -17.2558   15.6918 C   0  0  0  0  0  0  0  0  0  0  0  0
   14.4807  -18.3371   16.9689 S   0  0  0  0  0  0  0  0  0  0  0  0
   13.9839  -15.4093   16.7380 C   0  0  0  0  0  0  0  0  0  0  0  0
   14.8672  -14.6728   17.2564 O   0  0  0  0  0  0  0  0  0  0  0  0
    6.7108  -13.3208   17.1374 N   0  0  0  0  0  0  0  0  0  0  0  0
    7.2221  -13.3045   18.4681 C   0  0  0  0  0  0  0  0  0  0  0  0
    6.4859  -13.0863   19.4986 N   0  0  0  0  0  0  0  0  0  0  0  0
    8.6083  -13.5363   18.6732 N   0  0  0  0  0  0  0  0  0  0  0  0
    9.1316  -13.6383   20.0042 C   0  0  0  0  0  0  0  0  0  0  0  0
   10.6392  -13.8079   20.0305 C   0  0  0  0  0  0  0  0  0  0  0  0
   11.0946  -14.5533   18.8135 C   0  0  0  0  0  0  0  0  0  0  0  0
   12.5625  -14.7909   18.7176 C   0  0  2  0  0  0  0  0  0  0  0  0
   12.7604  -15.5304   17.4539 N   0  0  0  0  0  0  0  0  0  0  0  0
   13.1078  -15.6040   19.8133 C   0  0  0  0  0  0  0  0  0  0  0  0
   12.8910  -16.8384   19.8649 O   0  0  0  0  0  0  0  0  0  0  0  0
    6.9476  -13.0502   20.4446 N   0  0  0  0  0  0  0  0  0  0  0  0
   13.8875  -15.0329   20.8370 C   0  0  1  0  0  0  0  0  0  0  0  0
   14.4062  -15.8813   21.8905 C   0  0  0  0  0  0  0  0  0  0  0  0
   15.6749  -15.2409   22.4155 C   0  0  0  0  0  0  0  0  0  0  0  0
   16.7628  -15.1633   21.4191 O   0  0  0  0  0  0  0  0  0  0  0  0
   17.0445  -16.1935   20.7338 C   0  0  0  0  0  0  0  0  0  0  0  0
   13.3581  -15.9430   22.9320 O   0  0  0  0  0  0  0  0  0  0  0  0
   13.4615  -16.6800   24.0868 O   0  0  0  0  0  0  0  0  0  0  0  0
   17.5287  -14.0428   21.1536 O   0  0  0  0  0  0  0  0  0  0  0  0
  2  1  1  6
  3  2  1  0
  4  3  1  0
  5  2  1  0
  5  6  2  0
  7  8  1  0
  8  9  2  0
  8 10  1  0
 10 11  1  0
 11 12  1  0
 12 13  1  0
 14 13  1  1
 14 15  1  0
 15  5  1  0
 16 14  1  0
 17 16  2  0
 18 16  1  0
 19 18  1  0
 19 20  1  1
 20 21  1  0
 21 25  1  0
 22 21  2  0
 23 19  1  0
 24 23  1  0
 26 23  2  0
M  END
$$$$
