CRD.pdb
     RDKit          3D

 26 25  0  0  1  0  0  0  0  0999 V2000
    9.3425  -16.2798   27.8567 N   0  0  0  0  0  0  0  0  0  0  0  0
    9.4957  -15.3182   26.7790 C   0  0  1  0  0  0  0  0  0  0  0  0
   10.9196  -14.7828   26.8651 C   0  0  0  0  0  0  0  0  0  0  0  0
   11.0211  -13.6749   28.3040 S   0  0  0  0  0  0  0  0  0  0  0  0
    9.3416  -16.0336   25.4821 C   0  0  0  0  0  0  0  0  0  0  0  0
    9.3252  -17.2938   25.4264 O   0  0  0  0  0  0  0  0  0  0  0  0
    7.9559  -13.9207   17.2878 N   0  0  0  0  0  0  0  0  0  0  0  0
    8.1688  -13.3464   18.5752 C   0  0  0  0  0  0  0  0  0  0  0  0
    9.0819  -12.4731   18.8103 N   0  0  0  0  0  0  0  0  0  0  0  0
    7.3401  -13.7547   19.6540 N   0  0  0  0  0  0  0  0  0  0  0  0
    7.5413  -13.2066   20.9635 C   0  0  0  0  0  0  0  0  0  0  0  0
    8.6129  -13.9400   21.7482 C   0  0  0  0  0  0  0  0  0  0  0  0
    8.1202  -15.2969   22.1483 C   0  0  0  0  0  0  0  0  0  0  0  0
    9.0562  -16.0995   22.9850 C   0  0  2  0  0  0  0  0  0  0  0  0
    9.2054  -15.3434   24.2455 N   0  0  0  0  0  0  0  0  0  0  0  0
   10.3902  -16.2682   22.3926 C   0  0  0  0  0  0  0  0  0  0  0  0
   10.5325  -16.8420   21.2862 O   0  0  0  0  0  0  0  0  0  0  0  0
    9.2706  -12.2036   19.8108 N   0  0  0  0  0  0  0  0  0  0  0  0
   11.5484  -15.7959   23.0388 C   0  0  2  0  0  0  0  0  0  0  0  0
   12.8367  -15.9646   22.3981 C   0  0  0  0  0  0  0  0  0  0  0  0
   13.0775  -14.7530   21.5209 C   0  0  0  0  0  0  0  0  0  0  0  0
   13.8294  -15.0493   20.2843 O   0  0  0  0  0  0  0  0  0  0  0  0
   14.1038  -16.2564   20.0050 C   0  0  0  0  0  0  0  0  0  0  0  0
   13.8357  -16.0551   23.4848 O   0  0  0  0  0  0  0  0  0  0  0  0
   15.0738  -16.6347   23.3473 O   0  0  0  0  0  0  0  0  0  0  0  0
   14.2785  -14.1098   19.3742 O   0  0  0  0  0  0  0  0  0  0  0  0
  2  1  1  1
  3  2  1  0
  4  3  1  0
  5  2  1  0
  5  6  2  0
  7  8  1  0
  8  9  2  0
  8 10  1  0
 10 11  1  0
 11 12  1  0
 12 13  1  0
 14 13  1  6
 14 15  1  0
 15  5  1  0
 16 14  1  0
 17 16  2  0
 18 16  1  0
 19 18  1  0
 19 20  1  6
 20 21  1  0
 21 25  1  0
 22 21  2  0
 23 19  1  0
 24 23  1  0
 26 23  2  0
M  END
$$$$
