CRD.pdb
     RDKit          3D

 26 25  0  0  1  0  0  0  0  0999 V2000
    7.1146  -13.0996   17.8877 N   0  0  0  0  0  0  0  0  0  0  0  0
    8.0073  -14.2301   18.0742 C   0  0  1  0  0  0  0  0  0  0  0  0
    9.4274  -13.7008   17.9163 C   0  0  0  0  0  0  0  0  0  0  0  0
    9.7616  -13.4996   16.1398 S   0  0  0  0  0  0  0  0  0  0  0  0
    7.8470  -14.7339   19.4663 C   0  0  0  0  0  0  0  0  0  0  0  0
    7.5354  -13.9594   20.4120 O   0  0  0  0  0  0  0  0  0  0  0  0
    2.8684  -18.2912   21.0057 N   0  0  0  0  0  0  0  0  0  0  0  0
    2.8979  -19.1622   22.1339 C   0  0  0  0  0  0  0  0  0  0  0  0
    1.8377  -19.6627   22.6603 N   0  0  0  0  0  0  0  0  0  0  0  0
    4.1523  -19.4950   22.7110 N   0  0  0  0  0  0  0  0  0  0  0  0
    5.3372  -19.5003   21.9036 C   0  0  0  0  0  0  0  0  0  0  0  0
    6.2812  -18.3610   22.2396 C   0  0  0  0  0  0  0  0  0  0  0  0
    6.7086  -17.6601   20.9865 C   0  0  0  0  0  0  0  0  0  0  0  0
    7.7206  -16.5814   21.1670 C   0  0  2  0  0  0  0  0  0  0  0  0
    8.0341  -16.1031   19.8047 N   0  0  0  0  0  0  0  0  0  0  0  0
    8.9710  -17.0352   21.7911 C   0  0  0  0  0  0  0  0  0  0  0  0
    9.5567  -18.0648   21.3785 O   0  0  0  0  0  0  0  0  0  0  0  0
    1.9464  -20.3167   23.4787 N   0  0  0  0  0  0  0  0  0  0  0  0
    9.5535  -16.3371   22.8661 C   0  0  1  0  0  0  0  0  0  0  0  0
   10.7314  -16.8815   23.5101 C   0  0  0  0  0  0  0  0  0  0  0  0
   11.7927  -15.8003   23.5202 C   0  0  0  0  0  0  0  0  0  0  0  0
   12.8561  -15.9960   22.5137 O   0  0  0  0  0  0  0  0  0  0  0  0
   12.8648  -17.0632   21.8270 C   0  0  0  0  0  0  0  0  0  0  0  0
   10.3235  -17.2545   24.8818 O   0  0  0  0  0  0  0  0  0  0  0  0
   11.0359  -18.1035   25.6938 O   0  0  0  0  0  0  0  0  0  0  0  0
   13.8754  -15.1024   22.2397 O   0  0  0  0  0  0  0  0  0  0  0  0
  2  1  1  1
  3  2  1  0
  4  3  1  0
  5  2  1  0
  5  6  2  0
  7  8  1  0
  8  9  2  0
  8 10  1  0
 10 11  1  0
 11 12  1  0
 12 13  1  0
 14 13  1  6
 14 15  1  0
 15  5  1  0
 16 14  1  0
 17 16  2  0
 18 16  1  0
 19 18  1  0
 19 20  1  1
 20 21  1  0
 21 25  1  0
 22 21  2  0
 23 19  1  0
 24 23  1  0
 26 23  2  0
M  END
$$$$
