CRD.pdb
     RDKit          3D

 26 25  0  0  1  0  0  0  0  0999 V2000
   14.6712  -14.0420   17.6530 N   0  0  0  0  0  0  0  0  0  0  0  0
   13.6046  -15.0061   17.8590 C   0  0  1  0  0  0  0  0  0  0  0  0
   14.2601  -16.3797   17.9317 C   0  0  0  0  0  0  0  0  0  0  0  0
   14.8194  -16.8286   16.2602 S   0  0  0  0  0  0  0  0  0  0  0  0
   12.9601  -14.7243   19.1715 C   0  0  0  0  0  0  0  0  0  0  0  0
   13.5426  -14.0356   20.0535 O   0  0  0  0  0  0  0  0  0  0  0  0
    7.3905  -14.8202   15.9971 N   0  0  0  0  0  0  0  0  0  0  0  0
    7.8244  -13.4824   16.2306 C   0  0  0  0  0  0  0  0  0  0  0  0
    7.7577  -12.5589   15.3393 N   0  0  0  0  0  0  0  0  0  0  0  0
    8.3590  -13.1467   17.5029 N   0  0  0  0  0  0  0  0  0  0  0  0
    8.7820  -14.1809   18.4013 C   0  0  0  0  0  0  0  0  0  0  0  0
    9.2780  -13.6384   19.7286 C   0  0  0  0  0  0  0  0  0  0  0  0
    9.6442  -14.7679   20.6419 C   0  0  0  0  0  0  0  0  0  0  0  0
   11.1047  -14.9790   20.8490 C   0  0  2  0  0  0  0  0  0  0  0  0
   11.6645  -15.2107   19.5015 N   0  0  0  0  0  0  0  0  0  0  0  0
   11.4262  -16.1445   21.6841 C   0  0  0  0  0  0  0  0  0  0  0  0
   10.9569  -17.2760   21.4137 O   0  0  0  0  0  0  0  0  0  0  0  0
    8.0584  -11.5850   15.6046 N   0  0  0  0  0  0  0  0  0  0  0  0
   12.2660  -16.0358   22.8088 C   0  0  1  0  0  0  0  0  0  0  0  0
   12.5649  -17.2201   23.5878 C   0  0  0  0  0  0  0  0  0  0  0  0
   14.0183  -17.5746   23.3484 C   0  0  0  0  0  0  0  0  0  0  0  0
   14.9358  -16.4191   23.4197 O   0  0  0  0  0  0  0  0  0  0  0  0
   14.4802  -15.2930   23.7869 C   0  0  0  0  0  0  0  0  0  0  0  0
   12.3188  -16.8638   25.0018 O   0  0  0  0  0  0  0  0  0  0  0  0
   11.8559  -15.6393   25.4188 O   0  0  0  0  0  0  0  0  0  0  0  0
   16.2844  -16.4458   23.1144 O   0  0  0  0  0  0  0  0  0  0  0  0
  2  1  1  1
  3  2  1  0
  4  3  1  0
  5  2  1  0
  5  6  2  0
  7  8  1  0
  8  9  2  0
  8 10  1  0
 10 11  1  0
 11 12  1  0
 12 13  1  0
 14 13  1  6
 14 15  1  0
 15  5  1  0
 16 14  1  0
 17 16  2  0
 18 16  1  0
 19 18  1  0
 19 20  1  6
 20 21  1  0
 21 25  1  0
 22 21  2  0
 23 19  1  0
 24 23  1  0
 26 23  2  0
M  END
$$$$
