CRD.pdb
     RDKit          3D

 26 25  0  0  1  0  0  0  0  0999 V2000
    6.5408  -15.3214   27.1791 N   0  0  0  0  0  0  0  0  0  0  0  0
    6.9480  -14.3885   26.1430 C   0  0  1  0  0  0  0  0  0  0  0  0
    7.9900  -13.4669   26.7647 C   0  0  0  0  0  0  0  0  0  0  0  0
    7.1841  -11.8835   27.1543 S   0  0  0  0  0  0  0  0  0  0  0  0
    7.5971  -15.1563   25.0446 C   0  0  0  0  0  0  0  0  0  0  0  0
    7.8218  -16.3929   25.1530 O   0  0  0  0  0  0  0  0  0  0  0  0
    6.6593  -13.2912   18.3353 N   0  0  0  0  0  0  0  0  0  0  0  0
    7.7925  -13.8955   17.7163 C   0  0  0  0  0  0  0  0  0  0  0  0
    8.5594  -13.2699   16.8964 N   0  0  0  0  0  0  0  0  0  0  0  0
    8.0934  -15.2519   18.0113 N   0  0  0  0  0  0  0  0  0  0  0  0
    7.9469  -15.7470   19.3489 C   0  0  0  0  0  0  0  0  0  0  0  0
    9.0329  -15.2455   20.2823 C   0  0  0  0  0  0  0  0  0  0  0  0
    8.4191  -14.6280   21.5013 C   0  0  0  0  0  0  0  0  0  0  0  0
    8.6818  -15.3398   22.7838 C   0  0  2  0  0  0  0  0  0  0  0  0
    7.9961  -14.5449   23.8234 N   0  0  0  0  0  0  0  0  0  0  0  0
   10.1053  -15.4246   23.1379 C   0  0  0  0  0  0  0  0  0  0  0  0
   10.8593  -14.4310   23.0049 O   0  0  0  0  0  0  0  0  0  0  0  0
    9.3482  -13.8016   16.4444 N   0  0  0  0  0  0  0  0  0  0  0  0
   10.6710  -16.6138   23.6356 C   0  0  2  0  0  0  0  0  0  0  0  0
   12.1099  -16.7804   23.6080 C   0  0  0  0  0  0  0  0  0  0  0  0
   12.3995  -18.2514   23.3896 C   0  0  0  0  0  0  0  0  0  0  0  0
   11.8364  -19.1335   24.4322 O   0  0  0  0  0  0  0  0  0  0  0  0
   12.0955  -18.8900   25.6504 C   0  0  0  0  0  0  0  0  0  0  0  0
   12.6048  -15.9569   22.4837 O   0  0  0  0  0  0  0  0  0  0  0  0
   11.7939  -15.3714   21.5418 O   0  0  0  0  0  0  0  0  0  0  0  0
   11.0306  -20.2338   24.2025 O   0  0  0  0  0  0  0  0  0  0  0  0
  2  1  1  1
  3  2  1  0
  4  3  1  0
  5  2  1  0
  5  6  2  0
  7  8  1  0
  8  9  2  0
  8 10  1  0
 10 11  1  0
 11 12  1  0
 12 13  1  0
 14 13  1  6
 14 15  1  0
 15  5  1  0
 16 14  1  0
 17 16  2  0
 18 16  1  0
 19 18  1  0
 19 20  1  6
 20 21  1  0
 21 25  1  0
 22 21  2  0
 23 19  1  0
 24 23  1  0
 26 23  2  0
M  END
$$$$
