CRD.pdb
     RDKit          3D

 26 25  0  0  1  0  0  0  0  0999 V2000
    6.3314  -19.6989   25.9373 N   0  0  0  0  0  0  0  0  0  0  0  0
    6.8372  -18.3548   26.1547 C   0  0  1  0  0  0  0  0  0  0  0  0
    7.9831  -18.4712   27.1522 C   0  0  0  0  0  0  0  0  0  0  0  0
    7.2894  -18.3383   28.8283 S   0  0  0  0  0  0  0  0  0  0  0  0
    7.3856  -17.8428   24.8684 C   0  0  0  0  0  0  0  0  0  0  0  0
    7.8040  -18.6289   23.9749 O   0  0  0  0  0  0  0  0  0  0  0  0
    8.9978  -13.6772   18.1296 N   0  0  0  0  0  0  0  0  0  0  0  0
    7.6362  -13.7398   18.5474 C   0  0  0  0  0  0  0  0  0  0  0  0
    6.6581  -13.3566   17.8071 N   0  0  0  0  0  0  0  0  0  0  0  0
    7.3382  -14.2446   19.8411 N   0  0  0  0  0  0  0  0  0  0  0  0
    8.3985  -14.5450   20.7583 C   0  0  0  0  0  0  0  0  0  0  0  0
    8.2655  -13.7997   22.0732 C   0  0  0  0  0  0  0  0  0  0  0  0
    7.5212  -14.6378   23.0670 C   0  0  0  0  0  0  0  0  0  0  0  0
    8.0895  -15.9921   23.3190 C   0  0  2  0  0  0  0  0  0  0  0  0
    7.4677  -16.4525   24.5776 N   0  0  0  0  0  0  0  0  0  0  0  0
    9.5478  -16.0027   23.4989 C   0  0  0  0  0  0  0  0  0  0  0  0
   10.0791  -15.4021   24.4635 O   0  0  0  0  0  0  0  0  0  0  0  0
    5.6777  -13.4721   18.1742 N   0  0  0  0  0  0  0  0  0  0  0  0
   10.3956  -16.6820   22.6034 C   0  0  2  0  0  0  0  0  0  0  0  0
   11.8216  -16.7070   22.8577 C   0  0  0  0  0  0  0  0  0  0  0  0
   12.3562  -18.0328   22.3556 C   0  0  0  0  0  0  0  0  0  0  0  0
   11.9745  -19.1880   23.1935 O   0  0  0  0  0  0  0  0  0  0  0  0
   11.7417  -20.3034   22.6349 C   0  0  0  0  0  0  0  0  0  0  0  0
   12.4000  -15.5700   22.1094 O   0  0  0  0  0  0  0  0  0  0  0  0
   11.8157  -14.9965   21.0060 O   0  0  0  0  0  0  0  0  0  0  0  0
   11.8406  -19.1710   24.5699 O   0  0  0  0  0  0  0  0  0  0  0  0
  2  1  1  6
  3  2  1  0
  4  3  1  0
  5  2  1  0
  5  6  2  0
  7  8  1  0
  8  9  2  0
  8 10  1  0
 10 11  1  0
 11 12  1  0
 12 13  1  0
 14 13  1  1
 14 15  1  0
 15  5  1  0
 16 14  1  0
 17 16  2  0
 18 16  1  0
 19 18  1  0
 19 20  1  1
 20 21  1  0
 21 25  1  0
 22 21  2  0
 23 19  1  0
 24 23  1  0
 26 23  2  0
M  END
$$$$
