CRD.pdb
     RDKit          3D

 26 25  0  0  1  0  0  0  0  0999 V2000
    5.6070  -12.7657   27.0833 N   0  0  0  0  0  0  0  0  0  0  0  0
    6.9507  -12.7468   26.5321 C   0  0  1  0  0  0  0  0  0  0  0  0
    7.9051  -13.0189   27.6884 C   0  0  0  0  0  0  0  0  0  0  0  0
    9.5903  -13.1378   27.0146 S   0  0  0  0  0  0  0  0  0  0  0  0
    7.0743  -13.8597   25.5506 C   0  0  0  0  0  0  0  0  0  0  0  0
    6.4990  -14.9665   25.7384 O   0  0  0  0  0  0  0  0  0  0  0  0
    7.8522  -12.4817   17.8397 N   0  0  0  0  0  0  0  0  0  0  0  0
    8.0768  -13.8636   17.5705 C   0  0  0  0  0  0  0  0  0  0  0  0
    8.6797  -14.2826   16.5157 N   0  0  0  0  0  0  0  0  0  0  0  0
    7.6138  -14.8285   18.5042 N   0  0  0  0  0  0  0  0  0  0  0  0
    6.9010  -14.4117   19.6763 C   0  0  0  0  0  0  0  0  0  0  0  0
    7.3277  -15.1659   20.9217 C   0  0  0  0  0  0  0  0  0  0  0  0
    7.4004  -14.2312   22.0901 C   0  0  0  0  0  0  0  0  0  0  0  0
    7.8582  -14.8386   23.3714 C   0  0  2  0  0  0  0  0  0  0  0  0
    7.8402  -13.7387   24.3577 N   0  0  0  0  0  0  0  0  0  0  0  0
    9.2218  -15.3835   23.3192 C   0  0  0  0  0  0  0  0  0  0  0  0
   10.0686  -14.9169   22.5200 O   0  0  0  0  0  0  0  0  0  0  0  0
    8.8251  -15.3194   16.4012 N   0  0  0  0  0  0  0  0  0  0  0  0
    9.6254  -16.4403   24.1574 C   0  0  1  0  0  0  0  0  0  0  0  0
   10.9006  -17.0857   23.9208 C   0  0  0  0  0  0  0  0  0  0  0  0
   11.9554  -16.3191   24.6922 C   0  0  0  0  0  0  0  0  0  0  0  0
   13.0439  -15.7847   23.8485 O   0  0  0  0  0  0  0  0  0  0  0  0
   12.9798  -15.9388   22.5904 C   0  0  0  0  0  0  0  0  0  0  0  0
   10.7660  -18.4724   24.4167 O   0  0  0  0  0  0  0  0  0  0  0  0
   11.2577  -19.5760   23.7625 O   0  0  0  0  0  0  0  0  0  0  0  0
   14.1611  -15.1134   24.3107 O   0  0  0  0  0  0  0  0  0  0  0  0
  2  1  1  1
  3  2  1  0
  4  3  1  0
  5  2  1  0
  5  6  2  0
  7  8  1  0
  8  9  2  0
  8 10  1  0
 10 11  1  0
 11 12  1  0
 12 13  1  0
 14 13  1  6
 14 15  1  0
 15  5  1  0
 16 14  1  0
 17 16  2  0
 18 16  1  0
 19 18  1  0
 19 20  1  6
 20 21  1  0
 21 25  1  0
 22 21  2  0
 23 19  1  0
 24 23  1  0
 26 23  2  0
M  END
$$$$
