CRD.pdb
     RDKit          3D

 26 25  0  0  1  0  0  0  0  0999 V2000
    9.0211  -22.0679   22.0728 N   0  0  0  0  0  0  0  0  0  0  0  0
    8.7908  -20.8325   22.8010 C   0  0  1  0  0  0  0  0  0  0  0  0
    9.2139  -21.0855   24.2428 C   0  0  0  0  0  0  0  0  0  0  0  0
   11.0291  -21.0020   24.3224 S   0  0  0  0  0  0  0  0  0  0  0  0
    9.6737  -19.7771   22.2319 C   0  0  0  0  0  0  0  0  0  0  0  0
   10.6598  -20.0706   21.5019 O   0  0  0  0  0  0  0  0  0  0  0  0
    6.4519  -12.8885   19.3217 N   0  0  0  0  0  0  0  0  0  0  0  0
    7.8764  -12.9102   19.2705 C   0  0  0  0  0  0  0  0  0  0  0  0
    8.5824  -11.8783   18.9731 N   0  0  0  0  0  0  0  0  0  0  0  0
    8.5548  -14.1246   19.5572 N   0  0  0  0  0  0  0  0  0  0  0  0
    7.8130  -15.2900   19.9410 C   0  0  0  0  0  0  0  0  0  0  0  0
    8.7034  -16.4858   20.2229 C   0  0  0  0  0  0  0  0  0  0  0  0
    9.4952  -16.2545   21.4734 C   0  0  0  0  0  0  0  0  0  0  0  0
   10.3692  -17.3840   21.8986 C   0  0  2  0  0  0  0  0  0  0  0  0
    9.4569  -18.3924   22.4765 N   0  0  0  0  0  0  0  0  0  0  0  0
   11.3570  -17.0204   22.9237 C   0  0  0  0  0  0  0  0  0  0  0  0
   11.1550  -17.2884   24.1324 O   0  0  0  0  0  0  0  0  0  0  0  0
    9.6283  -11.9874   18.9152 N   0  0  0  0  0  0  0  0  0  0  0  0
   12.5568  -16.3635   22.5905 C   0  0  2  0  0  0  0  0  0  0  0  0
   13.7468  -16.6186   23.3764 C   0  0  0  0  0  0  0  0  0  0  0  0
   13.9367  -18.1198   23.4513 C   0  0  0  0  0  0  0  0  0  0  0  0
   15.0597  -18.5386   24.3149 O   0  0  0  0  0  0  0  0  0  0  0  0
   15.7233  -17.6523   24.9349 C   0  0  0  0  0  0  0  0  0  0  0  0
   14.8662  -15.9646   22.6648 O   0  0  0  0  0  0  0  0  0  0  0  0
   15.8908  -15.2957   23.2896 O   0  0  0  0  0  0  0  0  0  0  0  0
   15.4718  -19.8430   24.5183 O   0  0  0  0  0  0  0  0  0  0  0  0
  2  1  1  6
  3  2  1  0
  4  3  1  0
  5  2  1  0
  5  6  2  0
  7  8  1  0
  8  9  2  0
  8 10  1  0
 10 11  1  0
 11 12  1  0
 12 13  1  0
 14 13  1  1
 14 15  1  0
 15  5  1  0
 16 14  1  0
 17 16  2  0
 18 16  1  0
 19 18  1  0
 19 20  1  6
 20 21  1  0
 21 25  1  0
 22 21  2  0
 23 19  1  0
 24 23  1  0
 26 23  2  0
M  END
$$$$
