QRK.pdb
     RDKit          3D

 30 29  0  0  1  0  0  0  0  0999 V2000
   15.8629  -14.4327  -14.0111 N   0  0  0  0  0  0  0  0  0  0  0  0
   15.3428  -14.1716  -15.3049 C   0  0  0  0  0  0  0  0  0  0  0  0
   14.5955  -15.0095  -15.8591 O   0  0  0  0  0  0  0  0  0  0  0  0
   15.6848  -12.9231  -15.9814 C   0  0  0  0  0  0  0  0  0  0  0  0
   16.5651  -11.9944  -15.2018 C   0  0  0  0  0  0  0  0  0  0  0  0
   17.0480  -10.8007  -15.9768 C   0  0  2  0  0  0  0  0  0  0  0  0
   17.2009  -11.0848  -17.3881 N   0  0  0  0  0  0  0  0  0  0  0  0
   18.3867  -10.4052  -15.4476 C   0  0  0  0  0  0  0  0  0  0  0  0
   18.6172  -10.3407  -14.2262 O   0  0  0  0  0  0  0  0  0  0  0  0
   26.6232  -12.4573  -16.9186 N   0  0  0  0  0  0  0  0  0  0  0  0
   26.7672  -11.3063  -16.0918 C   0  0  0  0  0  0  0  0  0  0  0  0
   27.9061  -10.8973  -15.6866 N   0  0  0  0  0  0  0  0  0  0  0  0
   25.6039  -10.5867  -15.7030 N   0  0  0  0  0  0  0  0  0  0  0  0
   24.3529  -10.9053  -16.3187 C   0  0  0  0  0  0  0  0  0  0  0  0
   23.2156  -10.0443  -15.8103 C   0  0  0  0  0  0  0  0  0  0  0  0
   21.9039  -10.4887  -16.4206 C   0  0  0  0  0  0  0  0  0  0  0  0
   20.7506   -9.7408  -15.8647 C   0  0  2  0  0  0  0  0  0  0  0  0
   19.4623  -10.0832  -16.3014 N   0  0  0  0  0  0  0  0  0  0  0  0
   20.9799   -8.2906  -16.0848 C   0  0  0  0  0  0  0  0  0  0  0  0
   21.2120   -7.8805  -17.2463 O   0  0  0  0  0  0  0  0  0  0  0  0
   27.9933  -10.0702  -15.0651 N   0  0  0  0  0  0  0  0  0  0  0  0
   20.9352   -7.3955  -14.9952 C   0  0  1  0  0  0  0  0  0  0  0  0
   21.1372   -5.9290  -15.2364 C   0  0  0  0  0  0  0  0  0  0  0  0
   19.7901   -5.3660  -15.2795 C   0  0  0  0  0  0  0  0  0  0  0  0
   18.9063   -5.4111  -16.4556 C   0  0  0  0  0  0  0  0  0  0  0  0
   17.5724   -4.7587  -16.3430 C   0  0  0  0  0  0  0  0  0  0  0  0
   16.7533   -4.9864  -17.6261 N   0  0  0  0  0  0  0  0  0  0  0  0
   15.4987   -4.3041  -17.5673 C   0  0  0  0  0  0  0  0  0  0  0  0
   22.1772   -5.4431  -14.3542 O   0  0  0  0  0  0  0  0  0  0  0  0
   22.6764   -6.0997  -13.4077 O   0  0  0  0  0  0  0  0  0  0  0  0
  1  2  1  0
  2  3  2  0
  4  5  1  0
  4  2  1  0
  6  5  1  0
  6  7  1  6
  8  6  1  0
  9  8  2  0
 10 11  1  0
 11 13  1  0
 11 12  2  0
 13 14  1  0
 14 15  1  0
 17 16  1  6
 16 15  1  0
 17 18  1  0
 18  8  1  0
 19 17  1  0
 19 20  2  0
 21 19  1  0
 22 21  1  0
 22 23  1  1
 24 23  1  0
 25 24  1  0
 26 25  1  0
 27 26  1  0
 28 22  1  0
 29 28  2  0
 30 28  1  0
M  END
$$$$
