QRK.pdb
     RDKit          3D

 30 29  0  0  1  0  0  0  0  0999 V2000
   28.9581  -19.5021  -19.2469 N   0  0  0  0  0  0  0  0  0  0  0  0
   29.5740  -20.1918  -18.1710 C   0  0  0  0  0  0  0  0  0  0  0  0
   30.8143  -20.3618  -18.1657 O   0  0  0  0  0  0  0  0  0  0  0  0
   28.7526  -20.6992  -17.0750 C   0  0  0  0  0  0  0  0  0  0  0  0
   27.2873  -20.4063  -17.1861 C   0  0  0  0  0  0  0  0  0  0  0  0
   26.4601  -20.9399  -16.0504 C   0  0  2  0  0  0  0  0  0  0  0  0
   26.6070  -22.3708  -15.8864 N   0  0  0  0  0  0  0  0  0  0  0  0
   25.0227  -20.6637  -16.3437 C   0  0  0  0  0  0  0  0  0  0  0  0
   24.4540  -21.1367  -17.3447 O   0  0  0  0  0  0  0  0  0  0  0  0
   18.9171  -21.5410  -13.9206 N   0  0  0  0  0  0  0  0  0  0  0  0
   19.3511  -22.4942  -12.9552 C   0  0  0  0  0  0  0  0  0  0  0  0
   18.5664  -22.9717  -12.0693 N   0  0  0  0  0  0  0  0  0  0  0  0
   20.7045  -22.9302  -12.9769 N   0  0  0  0  0  0  0  0  0  0  0  0
   21.7440  -21.9589  -13.1235 C   0  0  0  0  0  0  0  0  0  0  0  0
   21.9907  -21.5812  -14.5693 C   0  0  0  0  0  0  0  0  0  0  0  0
   21.8824  -20.0823  -14.7488 C   0  0  0  0  0  0  0  0  0  0  0  0
   22.8754  -19.5659  -15.7213 C   0  0  2  0  0  0  0  0  0  0  0  0
   24.2312  -19.8525  -15.5040 N   0  0  0  0  0  0  0  0  0  0  0  0
   22.6925  -18.0979  -15.8461 C   0  0  0  0  0  0  0  0  0  0  0  0
   23.2261  -17.3440  -14.9989 O   0  0  0  0  0  0  0  0  0  0  0  0
   18.9022  -23.6513  -11.3599 N   0  0  0  0  0  0  0  0  0  0  0  0
   21.9268  -17.5696  -16.9067 C   0  0  2  0  0  0  0  0  0  0  0  0
   21.7432  -16.0850  -17.0160 C   0  0  0  0  0  0  0  0  0  0  0  0
   21.8175  -15.8013  -18.4470 C   0  0  0  0  0  0  0  0  0  0  0  0
   21.6748  -14.4611  -19.0382 C   0  0  0  0  0  0  0  0  0  0  0  0
   21.7515  -14.3483  -20.5212 C   0  0  0  0  0  0  0  0  0  0  0  0
   21.5779  -12.8826  -20.9580 N   0  0  0  0  0  0  0  0  0  0  0  0
   21.6020  -12.7604  -22.3819 C   0  0  0  0  0  0  0  0  0  0  0  0
   20.6322  -15.6827  -16.1795 O   0  0  0  0  0  0  0  0  0  0  0  0
   19.6769  -16.4286  -15.8519 O   0  0  0  0  0  0  0  0  0  0  0  0
  1  2  1  0
  2  3  2  0
  4  5  1  0
  4  2  1  0
  6  5  1  0
  6  7  1  6
  8  6  1  0
  9  8  2  0
 10 11  1  0
 11 13  1  0
 11 12  2  0
 13 14  1  0
 14 15  1  0
 17 16  1  1
 16 15  1  0
 17 18  1  0
 18  8  1  0
 19 17  1  0
 19 20  2  0
 21 19  1  0
 22 21  1  0
 22 23  1  6
 24 23  1  0
 25 24  1  0
 26 25  1  0
 27 26  1  0
 28 22  1  0
 29 28  2  0
 30 28  1  0
M  END
$$$$
