QRK.pdb
     RDKit          3D

 30 29  0  0  1  0  0  0  0  0999 V2000
   16.1685  -19.9924  -14.1879 N   0  0  0  0  0  0  0  0  0  0  0  0
   16.1695  -21.3355  -13.7310 C   0  0  0  0  0  0  0  0  0  0  0  0
   15.0936  -21.9713  -13.6565 O   0  0  0  0  0  0  0  0  0  0  0  0
   17.4304  -21.9668  -13.3503 C   0  0  0  0  0  0  0  0  0  0  0  0
   18.6443  -21.0978  -13.4781 C   0  0  0  0  0  0  0  0  0  0  0  0
   19.6971  -21.6352  -14.4062 C   0  0  2  0  0  0  0  0  0  0  0  0
   20.5221  -22.6455  -13.7779 N   0  0  0  0  0  0  0  0  0  0  0  0
   20.5901  -20.5087  -14.8090 C   0  0  0  0  0  0  0  0  0  0  0  0
   20.1471  -19.4842  -15.3599 O   0  0  0  0  0  0  0  0  0  0  0  0
   27.8573  -20.3983  -16.5644 N   0  0  0  0  0  0  0  0  0  0  0  0
   27.8697  -21.6679  -15.9187 C   0  0  0  0  0  0  0  0  0  0  0  0
   28.4604  -22.6815  -16.4211 N   0  0  0  0  0  0  0  0  0  0  0  0
   27.2017  -21.8138  -14.6718 N   0  0  0  0  0  0  0  0  0  0  0  0
   26.3955  -20.7367  -14.1865 C   0  0  0  0  0  0  0  0  0  0  0  0
   25.0844  -20.6061  -14.9332 C   0  0  0  0  0  0  0  0  0  0  0  0
   24.2257  -19.5286  -14.3068 C   0  0  0  0  0  0  0  0  0  0  0  0
   22.8633  -19.4943  -14.8907 C   0  0  2  0  0  0  0  0  0  0  0  0
   21.9827  -20.5433  -14.5879 N   0  0  0  0  0  0  0  0  0  0  0  0
   22.9860  -19.3593  -16.3641 C   0  0  0  0  0  0  0  0  0  0  0  0
   23.0337  -20.3951  -17.0682 O   0  0  0  0  0  0  0  0  0  0  0  0
   28.4972  -23.5893  -15.9186 N   0  0  0  0  0  0  0  0  0  0  0  0
   23.0475  -18.0788  -16.9530 C   0  0  1  0  0  0  0  0  0  0  0  0
   22.9986  -17.9504  -18.4465 C   0  0  0  0  0  0  0  0  0  0  0  0
   22.0155  -16.9006  -18.7017 C   0  0  0  0  0  0  0  0  0  0  0  0
   21.4696  -16.5766  -20.0295 C   0  0  0  0  0  0  0  0  0  0  0  0
   20.4028  -15.5401  -20.1039 C   0  0  0  0  0  0  0  0  0  0  0  0
   19.9853  -15.3032  -21.5664 N   0  0  0  0  0  0  0  0  0  0  0  0
   18.8830  -14.3971  -21.6498 C   0  0  0  0  0  0  0  0  0  0  0  0
   24.3505  -17.9201  -18.9634 O   0  0  0  0  0  0  0  0  0  0  0  0
   25.3657  -17.6098  -18.2930 O   0  0  0  0  0  0  0  0  0  0  0  0
  1  2  1  0
  2  3  2  0
  4  5  1  0
  4  2  1  0
  6  5  1  0
  6  7  1  1
  8  6  1  0
  9  8  2  0
 10 11  1  0
 11 13  1  0
 11 12  2  0
 13 14  1  0
 14 15  1  0
 17 16  1  1
 16 15  1  0
 17 18  1  0
 18  8  1  0
 19 17  1  0
 19 20  2  0
 21 19  1  0
 22 21  1  0
 22 23  1  6
 24 23  1  0
 25 24  1  0
 26 25  1  0
 27 26  1  0
 28 22  1  0
 29 28  2  0
 30 28  1  0
M  END
$$$$
