QRK.pdb
     RDKit          3D

 30 29  0  0  1  0  0  0  0  0999 V2000
   22.0276  -15.0382  -17.6681 N   0  0  0  0  0  0  0  0  0  0  0  0
   21.1984  -15.6148  -18.6644 C   0  0  0  0  0  0  0  0  0  0  0  0
   21.0142  -15.0156  -19.7481 O   0  0  0  0  0  0  0  0  0  0  0  0
   20.5646  -16.9071  -18.4161 C   0  0  0  0  0  0  0  0  0  0  0  0
   20.9099  -17.5468  -17.1059 C   0  0  0  0  0  0  0  0  0  0  0  0
   22.2131  -18.2956  -17.1054 C   0  0  2  0  0  0  0  0  0  0  0  0
   22.4681  -18.9587  -18.3668 N   0  0  0  0  0  0  0  0  0  0  0  0
   22.1528  -19.3460  -16.0464 C   0  0  0  0  0  0  0  0  0  0  0  0
   21.7930  -20.5110  -16.2967 O   0  0  0  0  0  0  0  0  0  0  0  0
   25.6062  -22.8254  -11.9151 N   0  0  0  0  0  0  0  0  0  0  0  0
   26.2264  -21.8638  -11.0668 C   0  0  0  0  0  0  0  0  0  0  0  0
   27.4008  -22.0286  -10.5954 N   0  0  0  0  0  0  0  0  0  0  0  0
   25.5148  -20.6789  -10.7319 N   0  0  0  0  0  0  0  0  0  0  0  0
   24.1417  -20.7804  -10.3447 C   0  0  0  0  0  0  0  0  0  0  0  0
   23.2167  -20.9963  -11.5243 C   0  0  0  0  0  0  0  0  0  0  0  0
   23.3510  -19.8598  -12.5148 C   0  0  0  0  0  0  0  0  0  0  0  0
   22.4219  -20.0086  -13.6606 C   0  0  2  0  0  0  0  0  0  0  0  0
   22.4995  -19.0766  -14.7060 N   0  0  0  0  0  0  0  0  0  0  0  0
   21.0331  -20.0530  -13.1378 C   0  0  0  0  0  0  0  0  0  0  0  0
   20.4386  -18.9761  -12.8974 O   0  0  0  0  0  0  0  0  0  0  0  0
   27.8594  -21.2966  -10.0193 N   0  0  0  0  0  0  0  0  0  0  0  0
   20.4009  -21.2950  -12.9180 C   0  0  1  0  0  0  0  0  0  0  0  0
   18.9297  -21.4300  -13.1768 C   0  0  0  0  0  0  0  0  0  0  0  0
   18.7071  -20.7446  -14.4474 C   0  0  0  0  0  0  0  0  0  0  0  0
   17.3972  -20.2636  -14.9153 C   0  0  0  0  0  0  0  0  0  0  0  0
   17.3409  -19.5963  -16.2454 C   0  0  0  0  0  0  0  0  0  0  0  0
   15.8842  -19.2723  -16.6224 N   0  0  0  0  0  0  0  0  0  0  0  0
   15.8178  -18.5318  -17.8432 C   0  0  0  0  0  0  0  0  0  0  0  0
   18.5290  -22.7987  -12.9277 O   0  0  0  0  0  0  0  0  0  0  0  0
   17.4778  -23.1387  -12.3314 O   0  0  0  0  0  0  0  0  0  0  0  0
  1  2  1  0
  2  3  2  0
  4  5  1  0
  4  2  1  0
  6  5  1  0
  6  7  1  6
  8  6  1  0
  9  8  2  0
 10 11  1  0
 11 13  1  0
 11 12  2  0
 13 14  1  0
 14 15  1  0
 17 16  1  1
 16 15  1  0
 17 18  1  0
 18  8  1  0
 19 17  1  0
 19 20  2  0
 21 19  1  0
 22 21  1  0
 22 23  1  1
 24 23  1  0
 25 24  1  0
 26 25  1  0
 27 26  1  0
 28 22  1  0
 29 28  2  0
 30 28  1  0
M  END
$$$$
