QRK.pdb
     RDKit          3D

 30 29  0  0  1  0  0  0  0  0999 V2000
   11.2266  -10.5143   -9.6147 N   0  0  0  0  0  0  0  0  0  0  0  0
   11.6665  -11.5712  -10.4525 C   0  0  0  0  0  0  0  0  0  0  0  0
   10.8489  -12.4265  -10.8616 O   0  0  0  0  0  0  0  0  0  0  0  0
   13.0747  -11.6526  -10.8317 C   0  0  0  0  0  0  0  0  0  0  0  0
   13.9569  -10.5937  -10.2438 C   0  0  0  0  0  0  0  0  0  0  0  0
   15.3881  -10.6557  -10.6985 C   0  0  2  0  0  0  0  0  0  0  0  0
   16.1006  -11.7776  -10.1245 N   0  0  0  0  0  0  0  0  0  0  0  0
   16.0778   -9.4079  -10.2559 C   0  0  0  0  0  0  0  0  0  0  0  0
   16.4781   -9.2580   -9.0869 O   0  0  0  0  0  0  0  0  0  0  0  0
   22.0867   -7.0708  -11.2109 N   0  0  0  0  0  0  0  0  0  0  0  0
   21.8782   -7.7171  -12.4630 C   0  0  0  0  0  0  0  0  0  0  0  0
   22.4483   -8.8184  -12.7640 N   0  0  0  0  0  0  0  0  0  0  0  0
   21.0056   -7.1168  -13.4120 N   0  0  0  0  0  0  0  0  0  0  0  0
   19.8947   -6.3474  -12.9433 C   0  0  0  0  0  0  0  0  0  0  0  0
   19.0419   -7.1014  -11.9444 C   0  0  0  0  0  0  0  0  0  0  0  0
   17.7275   -6.3840  -11.7252 C   0  0  0  0  0  0  0  0  0  0  0  0
   16.8599   -7.0969  -10.7570 C   0  0  2  0  0  0  0  0  0  0  0  0
   16.3132   -8.3317  -11.1367 N   0  0  0  0  0  0  0  0  0  0  0  0
   15.7703   -6.1800  -10.3374 C   0  0  0  0  0  0  0  0  0  0  0  0
   14.6332   -6.3123  -10.8479 O   0  0  0  0  0  0  0  0  0  0  0  0
   22.2605   -9.2948  -13.6672 N   0  0  0  0  0  0  0  0  0  0  0  0
   16.0219   -5.1773   -9.3773 C   0  0  1  0  0  0  0  0  0  0  0  0
   14.9124   -4.2564   -8.9642 C   0  0  0  0  0  0  0  0  0  0  0  0
   13.8963   -5.1295   -8.3820 C   0  0  0  0  0  0  0  0  0  0  0  0
   12.7189   -4.6549   -7.6372 C   0  0  0  0  0  0  0  0  0  0  0  0
   11.7948   -5.6807   -7.0791 C   0  0  0  0  0  0  0  0  0  0  0  0
   10.6521   -5.0063   -6.2989 N   0  0  0  0  0  0  0  0  0  0  0  0
    9.6718   -5.9617   -5.8874 C   0  0  0  0  0  0  0  0  0  0  0  0
   15.4763   -3.1166   -8.2724 O   0  0  0  0  0  0  0  0  0  0  0  0
   14.8150   -2.1341   -7.8558 O   0  0  0  0  0  0  0  0  0  0  0  0
  1  2  1  0
  2  3  2  0
  4  5  1  0
  4  2  1  0
  6  5  1  0
  6  7  1  1
  8  6  1  0
  9  8  2  0
 10 11  1  0
 11 13  1  0
 11 12  2  0
 13 14  1  0
 14 15  1  0
 17 16  1  6
 16 15  1  0
 17 18  1  0
 18  8  1  0
 19 17  1  0
 19 20  2  0
 21 19  1  0
 22 21  1  0
 22 23  1  6
 24 23  1  0
 25 24  1  0
 26 25  1  0
 27 26  1  0
 28 22  1  0
 29 28  2  0
 30 28  1  0
M  END
$$$$
