QRK.pdb
     RDKit          3D

 30 29  0  0  1  0  0  0  0  0999 V2000
   26.3944  -18.3383  -15.1107 N   0  0  0  0  0  0  0  0  0  0  0  0
   27.4897  -19.1768  -14.7796 C   0  0  0  0  0  0  0  0  0  0  0  0
   28.6194  -18.6777  -14.5741 O   0  0  0  0  0  0  0  0  0  0  0  0
   27.2891  -20.6202  -14.6808 C   0  0  0  0  0  0  0  0  0  0  0  0
   25.8712  -21.0800  -14.8330 C   0  0  0  0  0  0  0  0  0  0  0  0
   25.0892  -21.1150  -13.5500 C   0  0  2  0  0  0  0  0  0  0  0  0
   25.3778  -22.2938  -12.7607 N   0  0  0  0  0  0  0  0  0  0  0  0
   23.6346  -21.1404  -13.8851 C   0  0  0  0  0  0  0  0  0  0  0  0
   23.2144  -21.6285  -14.9501 O   0  0  0  0  0  0  0  0  0  0  0  0
   17.6844  -24.6986   -9.8085 N   0  0  0  0  0  0  0  0  0  0  0  0
   18.8934  -24.1078   -9.3412 C   0  0  0  0  0  0  0  0  0  0  0  0
   19.2340  -24.1357   -8.1117 N   0  0  0  0  0  0  0  0  0  0  0  0
   19.7518  -23.4639  -10.2744 N   0  0  0  0  0  0  0  0  0  0  0  0
   19.4123  -23.4925  -11.6635 C   0  0  0  0  0  0  0  0  0  0  0  0
   20.4465  -22.8066  -12.5317 C   0  0  0  0  0  0  0  0  0  0  0  0
   20.3722  -21.3054  -12.3546 C   0  0  0  0  0  0  0  0  0  0  0  0
   21.2813  -20.5907  -13.2824 C   0  0  2  0  0  0  0  0  0  0  0  0
   22.6580  -20.6132  -13.0145 N   0  0  0  0  0  0  0  0  0  0  0  0
   20.8219  -19.1839  -13.4009 C   0  0  0  0  0  0  0  0  0  0  0  0
   21.0402  -18.3907  -12.4553 O   0  0  0  0  0  0  0  0  0  0  0  0
   20.0976  -23.6648   -7.7795 N   0  0  0  0  0  0  0  0  0  0  0  0
   20.1500  -18.7564  -14.5655 C   0  0  1  0  0  0  0  0  0  0  0  0
   19.6672  -17.3395  -14.6606 C   0  0  0  0  0  0  0  0  0  0  0  0
   19.9625  -16.9329  -16.0321 C   0  0  0  0  0  0  0  0  0  0  0  0
   19.6686  -15.6019  -16.5872 C   0  0  0  0  0  0  0  0  0  0  0  0
   19.9591  -15.3754  -18.0301 C   0  0  0  0  0  0  0  0  0  0  0  0
   19.7064  -13.9039  -18.4042 N   0  0  0  0  0  0  0  0  0  0  0  0
   20.9240  -13.1551  -18.4111 C   0  0  0  0  0  0  0  0  0  0  0  0
   18.3498  -17.2477  -14.0672 O   0  0  0  0  0  0  0  0  0  0  0  0
   17.8361  -16.1901  -13.6270 O   0  0  0  0  0  0  0  0  0  0  0  0
  1  2  1  0
  2  3  2  0
  4  5  1  0
  4  2  1  0
  6  5  1  0
  6  7  1  6
  8  6  1  0
  9  8  2  0
 10 11  1  0
 11 13  1  0
 11 12  2  0
 13 14  1  0
 14 15  1  0
 17 16  1  1
 16 15  1  0
 17 18  1  0
 18  8  1  0
 19 17  1  0
 19 20  2  0
 21 19  1  0
 22 21  1  0
 22 23  1  1
 24 23  1  0
 25 24  1  0
 26 25  1  0
 27 26  1  0
 28 22  1  0
 29 28  2  0
 30 28  1  0
M  END
$$$$
