QRK.pdb
     RDKit          3D

 30 29  0  0  1  0  0  0  0  0999 V2000
   28.2807  -26.8897  -15.5798 N   0  0  0  0  0  0  0  0  0  0  0  0
   28.3930  -26.9400  -16.9930 C   0  0  0  0  0  0  0  0  0  0  0  0
   28.3044  -28.0377  -17.5886 O   0  0  0  0  0  0  0  0  0  0  0  0
   28.6118  -25.7062  -17.7436 C   0  0  0  0  0  0  0  0  0  0  0  0
   28.7153  -24.4632  -16.9134 C   0  0  0  0  0  0  0  0  0  0  0  0
   28.0046  -23.2710  -17.4900 C   0  0  2  0  0  0  0  0  0  0  0  0
   28.8661  -22.1121  -17.5923 N   0  0  0  0  0  0  0  0  0  0  0  0
   26.8722  -22.9141  -16.5850 C   0  0  0  0  0  0  0  0  0  0  0  0
   25.9791  -23.7316  -16.2968 O   0  0  0  0  0  0  0  0  0  0  0  0
   23.8809  -20.0822  -10.4010 N   0  0  0  0  0  0  0  0  0  0  0  0
   25.1198  -20.3167   -9.7383 C   0  0  0  0  0  0  0  0  0  0  0  0
   25.1799  -20.7879   -8.5539 N   0  0  0  0  0  0  0  0  0  0  0  0
   26.3326  -20.0161  -10.4173 N   0  0  0  0  0  0  0  0  0  0  0  0
   26.2748  -19.5611  -11.7720 C   0  0  0  0  0  0  0  0  0  0  0  0
   25.8842  -20.6581  -12.7404 C   0  0  0  0  0  0  0  0  0  0  0  0
   25.9842  -20.1627  -14.1670 C   0  0  0  0  0  0  0  0  0  0  0  0
   25.7148  -21.2399  -15.1495 C   0  0  2  0  0  0  0  0  0  0  0  0
   26.7524  -21.6327  -16.0078 N   0  0  0  0  0  0  0  0  0  0  0  0
   24.5250  -20.8586  -15.9515 C   0  0  0  0  0  0  0  0  0  0  0  0
   24.6714  -20.0870  -16.9283 O   0  0  0  0  0  0  0  0  0  0  0  0
   26.0905  -20.9468   -8.0812 N   0  0  0  0  0  0  0  0  0  0  0  0
   23.2525  -21.3631  -15.6102 C   0  0  2  0  0  0  0  0  0  0  0  0
   22.0481  -20.9094  -16.3805 C   0  0  0  0  0  0  0  0  0  0  0  0
   21.0195  -21.9053  -16.0909 C   0  0  0  0  0  0  0  0  0  0  0  0
   19.6658  -21.8958  -16.6684 C   0  0  0  0  0  0  0  0  0  0  0  0
   18.7896  -23.0684  -16.3947 C   0  0  0  0  0  0  0  0  0  0  0  0
   17.4076  -22.8688  -17.0423 N   0  0  0  0  0  0  0  0  0  0  0  0
   16.5824  -24.0227  -16.8674 C   0  0  0  0  0  0  0  0  0  0  0  0
   21.8629  -19.4883  -16.1755 O   0  0  0  0  0  0  0  0  0  0  0  0
   22.0910  -18.8856  -15.0980 O   0  0  0  0  0  0  0  0  0  0  0  0
  1  2  1  0
  2  3  2  0
  4  5  1  0
  4  2  1  0
  6  5  1  0
  6  7  1  1
  8  6  1  0
  9  8  2  0
 10 11  1  0
 11 13  1  0
 11 12  2  0
 13 14  1  0
 14 15  1  0
 17 16  1  6
 16 15  1  0
 17 18  1  0
 18  8  1  0
 19 17  1  0
 19 20  2  0
 21 19  1  0
 22 21  1  0
 22 23  1  6
 24 23  1  0
 25 24  1  0
 26 25  1  0
 27 26  1  0
 28 22  1  0
 29 28  2  0
 30 28  1  0
M  END
$$$$
