QRK.pdb
     RDKit          3D

 30 29  0  0  1  0  0  0  0  0999 V2000
   27.6502  -21.2702  -17.4008 N   0  0  0  0  0  0  0  0  0  0  0  0
   27.5373  -20.4955  -18.5838 C   0  0  0  0  0  0  0  0  0  0  0  0
   28.5567  -20.2431  -19.2655 O   0  0  0  0  0  0  0  0  0  0  0  0
   26.2281  -19.9974  -18.9977 C   0  0  0  0  0  0  0  0  0  0  0  0
   25.0815  -20.4154  -18.1284 C   0  0  0  0  0  0  0  0  0  0  0  0
   24.3913  -19.2812  -17.4240 C   0  0  2  0  0  0  0  0  0  0  0  0
   25.3254  -18.3847  -16.7764 N   0  0  0  0  0  0  0  0  0  0  0  0
   23.5055  -19.8523  -16.3667 C   0  0  0  0  0  0  0  0  0  0  0  0
   22.7532  -20.8181  -16.5912 O   0  0  0  0  0  0  0  0  0  0  0  0
   25.9697  -22.9032  -12.2573 N   0  0  0  0  0  0  0  0  0  0  0  0
   26.6360  -21.6475  -12.1658 C   0  0  0  0  0  0  0  0  0  0  0  0
   27.7754  -21.4406  -12.7019 N   0  0  0  0  0  0  0  0  0  0  0  0
   26.0125  -20.5865  -11.4531 N   0  0  0  0  0  0  0  0  0  0  0  0
   24.6962  -20.7822  -10.9290 C   0  0  0  0  0  0  0  0  0  0  0  0
   23.6651  -21.0177  -12.0130 C   0  0  0  0  0  0  0  0  0  0  0  0
   23.2276  -19.7020  -12.6197 C   0  0  0  0  0  0  0  0  0  0  0  0
   22.7208  -19.8692  -14.0029 C   0  0  2  0  0  0  0  0  0  0  0  0
   23.4724  -19.3294  -15.0571 N   0  0  0  0  0  0  0  0  0  0  0  0
   21.3337  -19.3434  -14.0627 C   0  0  0  0  0  0  0  0  0  0  0  0
   21.1542  -18.1038  -14.1106 O   0  0  0  0  0  0  0  0  0  0  0  0
   28.2316  -20.5090  -12.6589 N   0  0  0  0  0  0  0  0  0  0  0  0
   20.2402  -20.2349  -14.0648 C   0  0  1  0  0  0  0  0  0  0  0  0
   18.8444  -19.6906  -13.9962 C   0  0  0  0  0  0  0  0  0  0  0  0
   18.0263  -20.6612  -14.7189 C   0  0  0  0  0  0  0  0  0  0  0  0
   16.5764  -20.5305  -14.9355 C   0  0  0  0  0  0  0  0  0  0  0  0
   15.8997  -21.5868  -15.7379 C   0  0  0  0  0  0  0  0  0  0  0  0
   14.4202  -21.2259  -15.9617 N   0  0  0  0  0  0  0  0  0  0  0  0
   13.7816  -22.1705  -16.8238 C   0  0  0  0  0  0  0  0  0  0  0  0
   18.5677  -19.2668  -12.6398 O   0  0  0  0  0  0  0  0  0  0  0  0
   18.7870  -19.9591  -11.6156 O   0  0  0  0  0  0  0  0  0  0  0  0
  1  2  1  0
  2  3  2  0
  4  5  1  0
  4  2  1  0
  6  5  1  0
  6  7  1  1
  8  6  1  0
  9  8  2  0
 10 11  1  0
 11 13  1  0
 11 12  2  0
 13 14  1  0
 14 15  1  0
 17 16  1  1
 16 15  1  0
 17 18  1  0
 18  8  1  0
 19 17  1  0
 19 20  2  0
 21 19  1  0
 22 21  1  0
 22 23  1  6
 24 23  1  0
 25 24  1  0
 26 25  1  0
 27 26  1  0
 28 22  1  0
 29 28  2  0
 30 28  1  0
M  END
$$$$
