QRK.pdb
     RDKit          3D

 30 29  0  0  1  0  0  0  0  0999 V2000
   22.1791  -15.2932  -15.7409 N   0  0  0  0  0  0  0  0  0  0  0  0
   23.2715  -14.9551  -16.5804 C   0  0  0  0  0  0  0  0  0  0  0  0
   23.6929  -13.7767  -16.6140 O   0  0  0  0  0  0  0  0  0  0  0  0
   23.8973  -15.9887  -17.4011 C   0  0  0  0  0  0  0  0  0  0  0  0
   23.2644  -17.3440  -17.3140 C   0  0  0  0  0  0  0  0  0  0  0  0
   23.6743  -18.1439  -16.1094 C   0  0  2  0  0  0  0  0  0  0  0  0
   25.0786  -18.4950  -16.1328 N   0  0  0  0  0  0  0  0  0  0  0  0
   22.8907  -19.4145  -16.0984 C   0  0  0  0  0  0  0  0  0  0  0  0
   22.8563  -20.1735  -17.0842 O   0  0  0  0  0  0  0  0  0  0  0  0
   18.6719  -22.8841   -9.2680 N   0  0  0  0  0  0  0  0  0  0  0  0
   19.1861  -23.5565  -10.4136 C   0  0  0  0  0  0  0  0  0  0  0  0
   19.3279  -24.8241  -10.4525 N   0  0  0  0  0  0  0  0  0  0  0  0
   19.5552  -22.7915  -11.5542 N   0  0  0  0  0  0  0  0  0  0  0  0
   20.0428  -21.4599  -11.3683 C   0  0  0  0  0  0  0  0  0  0  0  0
   20.3092  -20.7473  -12.6778 C   0  0  0  0  0  0  0  0  0  0  0  0
   21.1397  -21.6201  -13.5938 C   0  0  0  0  0  0  0  0  0  0  0  0
   21.3624  -20.9853  -14.9150 C   0  0  2  0  0  0  0  0  0  0  0  0
   22.1472  -19.8241  -14.9719 N   0  0  0  0  0  0  0  0  0  0  0  0
   20.0413  -20.7222  -15.5394 C   0  0  0  0  0  0  0  0  0  0  0  0
   19.5711  -19.5610  -15.5023 O   0  0  0  0  0  0  0  0  0  0  0  0
   19.5988  -25.3108  -11.3287 N   0  0  0  0  0  0  0  0  0  0  0  0
   19.3337  -21.7715  -16.1628 C   0  0  2  0  0  0  0  0  0  0  0  0
   18.0364  -21.4769  -16.8555 C   0  0  0  0  0  0  0  0  0  0  0  0
   17.8118  -22.6210  -17.7355 C   0  0  0  0  0  0  0  0  0  0  0  0
   16.7375  -22.7014  -18.7383 C   0  0  0  0  0  0  0  0  0  0  0  0
   16.5740  -23.9857  -19.4742 C   0  0  0  0  0  0  0  0  0  0  0  0
   15.3989  -23.8916  -20.4640 N   0  0  0  0  0  0  0  0  0  0  0  0
   15.2613  -25.0965  -21.2204 C   0  0  0  0  0  0  0  0  0  0  0  0
   17.0708  -21.0206  -15.8781 O   0  0  0  0  0  0  0  0  0  0  0  0
   17.0191  -21.4134  -14.6867 O   0  0  0  0  0  0  0  0  0  0  0  0
  1  2  1  0
  2  3  2  0
  4  5  1  0
  4  2  1  0
  6  5  1  0
  6  7  1  6
  8  6  1  0
  9  8  2  0
 10 11  1  0
 11 13  1  0
 11 12  2  0
 13 14  1  0
 14 15  1  0
 17 16  1  1
 16 15  1  0
 17 18  1  0
 18  8  1  0
 19 17  1  0
 19 20  2  0
 21 19  1  0
 22 21  1  0
 22 23  1  6
 24 23  1  0
 25 24  1  0
 26 25  1  0
 27 26  1  0
 28 22  1  0
 29 28  2  0
 30 28  1  0
M  END
$$$$
