QRK.pdb
     RDKit          3D

 30 29  0  0  1  0  0  0  0  0999 V2000
   28.5719  -16.7825  -17.8278 N   0  0  0  0  0  0  0  0  0  0  0  0
   28.8168  -17.6541  -18.9200 C   0  0  0  0  0  0  0  0  0  0  0  0
   29.4910  -17.2574  -19.8975 O   0  0  0  0  0  0  0  0  0  0  0  0
   28.2783  -19.0116  -18.8943 C   0  0  0  0  0  0  0  0  0  0  0  0
   27.5883  -19.4012  -17.6226 C   0  0  0  0  0  0  0  0  0  0  0  0
   28.0708  -20.6934  -17.0257 C   0  0  2  0  0  0  0  0  0  0  0  0
   28.1507  -21.7569  -18.0048 N   0  0  0  0  0  0  0  0  0  0  0  0
   27.0998  -21.1187  -15.9745 C   0  0  0  0  0  0  0  0  0  0  0  0
   26.1248  -21.8464  -16.2369 O   0  0  0  0  0  0  0  0  0  0  0  0
   23.4273  -19.7966   -9.9170 N   0  0  0  0  0  0  0  0  0  0  0  0
   23.7482  -20.7288   -8.8889 C   0  0  0  0  0  0  0  0  0  0  0  0
   22.9073  -21.0684   -7.9910 N   0  0  0  0  0  0  0  0  0  0  0  0
   25.0493  -21.3021   -8.8595 N   0  0  0  0  0  0  0  0  0  0  0  0
   26.0183  -20.8730   -9.8201 C   0  0  0  0  0  0  0  0  0  0  0  0
   25.5961  -21.1635  -11.2453 C   0  0  0  0  0  0  0  0  0  0  0  0
   26.6820  -20.7447  -12.2128 C   0  0  0  0  0  0  0  0  0  0  0  0
   26.2900  -20.9787  -13.6234 C   0  0  2  0  0  0  0  0  0  0  0  0
   27.2337  -20.7197  -14.6283 N   0  0  0  0  0  0  0  0  0  0  0  0
   25.0482  -20.2135  -13.8999 C   0  0  0  0  0  0  0  0  0  0  0  0
   25.0921  -18.9609  -13.8984 O   0  0  0  0  0  0  0  0  0  0  0  0
   23.1683  -21.7182   -7.2245 N   0  0  0  0  0  0  0  0  0  0  0  0
   23.8412  -20.8964  -14.1592 C   0  0  1  0  0  0  0  0  0  0  0  0
   22.6082  -20.1126  -14.4984 C   0  0  0  0  0  0  0  0  0  0  0  0
   22.6250  -19.9969  -15.9544 C   0  0  0  0  0  0  0  0  0  0  0  0
   22.0273  -18.8826  -16.7077 C   0  0  0  0  0  0  0  0  0  0  0  0
   22.1005  -18.9356  -18.1942 C   0  0  0  0  0  0  0  0  0  0  0  0
   21.3858  -17.7197  -18.8106 N   0  0  0  0  0  0  0  0  0  0  0  0
   21.4356  -17.7591  -20.2386 C   0  0  0  0  0  0  0  0  0  0  0  0
   21.4878  -20.6469  -13.7533 O   0  0  0  0  0  0  0  0  0  0  0  0
   21.4929  -21.7442  -13.1432 O   0  0  0  0  0  0  0  0  0  0  0  0
  1  2  1  0
  2  3  2  0
  4  5  1  0
  4  2  1  0
  6  5  1  0
  6  7  1  6
  8  6  1  0
  9  8  2  0
 10 11  1  0
 11 13  1  0
 11 12  2  0
 13 14  1  0
 14 15  1  0
 17 16  1  1
 16 15  1  0
 17 18  1  0
 18  8  1  0
 19 17  1  0
 19 20  2  0
 21 19  1  0
 22 21  1  0
 22 23  1  6
 24 23  1  0
 25 24  1  0
 26 25  1  0
 27 26  1  0
 28 22  1  0
 29 28  2  0
 30 28  1  0
M  END
$$$$
