QRK.pdb
     RDKit          3D

 30 29  0  0  1  0  0  0  0  0999 V2000
   15.5542  -26.8107   -9.1197 N   0  0  0  0  0  0  0  0  0  0  0  0
   15.2564  -25.4259   -9.1975 C   0  0  0  0  0  0  0  0  0  0  0  0
   14.2298  -25.0401   -9.8013 O   0  0  0  0  0  0  0  0  0  0  0  0
   16.1534  -24.4588   -8.5701 C   0  0  0  0  0  0  0  0  0  0  0  0
   17.3988  -25.0378   -7.9708 C   0  0  0  0  0  0  0  0  0  0  0  0
   17.7973  -24.4263   -6.6570 C   0  0  2  0  0  0  0  0  0  0  0  0
   19.0772  -24.9139   -6.1879 N   0  0  0  0  0  0  0  0  0  0  0  0
   16.7719  -24.7932   -5.6359 C   0  0  0  0  0  0  0  0  0  0  0  0
   15.5977  -24.3870   -5.7091 O   0  0  0  0  0  0  0  0  0  0  0  0
   16.7074  -30.3880    0.9792 N   0  0  0  0  0  0  0  0  0  0  0  0
   17.1138  -30.5615   -0.3749 C   0  0  0  0  0  0  0  0  0  0  0  0
   18.1854  -31.1784   -0.6905 N   0  0  0  0  0  0  0  0  0  0  0  0
   16.2995  -30.0299   -1.4126 N   0  0  0  0  0  0  0  0  0  0  0  0
   16.9070  -29.6735   -2.6574 C   0  0  0  0  0  0  0  0  0  0  0  0
   17.1428  -28.1831   -2.7867 C   0  0  0  0  0  0  0  0  0  0  0  0
   15.9384  -27.5105   -3.4092 C   0  0  0  0  0  0  0  0  0  0  0  0
   16.1432  -26.0522   -3.5809 C   0  0  2  0  0  0  0  0  0  0  0  0
   17.0770  -25.6187   -4.5337 N   0  0  0  0  0  0  0  0  0  0  0  0
   16.4747  -25.4645   -2.2585 C   0  0  0  0  0  0  0  0  0  0  0  0
   17.6725  -25.2157   -1.9861 O   0  0  0  0  0  0  0  0  0  0  0  0
   18.5099  -31.2285   -1.6755 N   0  0  0  0  0  0  0  0  0  0  0  0
   15.4484  -25.1941   -1.3289 C   0  0  2  0  0  0  0  0  0  0  0  0
   15.7948  -24.5786   -0.0058 C   0  0  0  0  0  0  0  0  0  0  0  0
   14.8725  -23.4551    0.1392 C   0  0  0  0  0  0  0  0  0  0  0  0
   14.8897  -22.5038    1.2621 C   0  0  0  0  0  0  0  0  0  0  0  0
   14.0265  -21.2949    1.1568 C   0  0  0  0  0  0  0  0  0  0  0  0
   14.3217  -20.3220    2.3125 N   0  0  0  0  0  0  0  0  0  0  0  0
   13.4648  -19.1792    2.2588 C   0  0  0  0  0  0  0  0  0  0  0  0
   15.9358  -25.6276    0.9819 O   0  0  0  0  0  0  0  0  0  0  0  0
   16.0933  -25.4348    2.2124 O   0  0  0  0  0  0  0  0  0  0  0  0
  1  2  1  0
  2  3  2  0
  4  5  1  0
  4  2  1  0
  6  5  1  0
  6  7  1  1
  8  6  1  0
  9  8  2  0
 10 11  1  0
 11 13  1  0
 11 12  2  0
 13 14  1  0
 14 15  1  0
 17 16  1  1
 16 15  1  0
 17 18  1  0
 18  8  1  0
 19 17  1  0
 19 20  2  0
 21 19  1  0
 22 21  1  0
 22 23  1  1
 24 23  1  0
 25 24  1  0
 26 25  1  0
 27 26  1  0
 28 22  1  0
 29 28  2  0
 30 28  1  0
M  END
$$$$
