QRK.pdb
     RDKit          3D

 30 29  0  0  1  0  0  0  0  0999 V2000
   13.4569  -13.9371  -12.9953 N   0  0  0  0  0  0  0  0  0  0  0  0
   13.5199  -13.8651  -14.4107 C   0  0  0  0  0  0  0  0  0  0  0  0
   12.8523  -14.6625  -15.1077 O   0  0  0  0  0  0  0  0  0  0  0  0
   14.3663  -12.8575  -15.0447 C   0  0  0  0  0  0  0  0  0  0  0  0
   15.0958  -11.9504  -14.1011 C   0  0  0  0  0  0  0  0  0  0  0  0
   16.5278  -11.6887  -14.4747 C   0  0  2  0  0  0  0  0  0  0  0  0
   17.3231  -12.8983  -14.4910 N   0  0  0  0  0  0  0  0  0  0  0  0
   17.1205  -10.7717  -13.4566 C   0  0  0  0  0  0  0  0  0  0  0  0
   17.3971  -11.1584  -12.3063 O   0  0  0  0  0  0  0  0  0  0  0  0
   23.1236   -6.0008  -16.1549 N   0  0  0  0  0  0  0  0  0  0  0  0
   23.0943   -7.4118  -16.3480 C   0  0  0  0  0  0  0  0  0  0  0  0
   23.9475   -8.0168  -17.0792 N   0  0  0  0  0  0  0  0  0  0  0  0
   22.0807   -8.1748  -15.7055 N   0  0  0  0  0  0  0  0  0  0  0  0
   21.1873   -7.5193  -14.8012 C   0  0  0  0  0  0  0  0  0  0  0  0
   20.0942   -8.4361  -14.2928 C   0  0  0  0  0  0  0  0  0  0  0  0
   19.1226   -7.6671  -13.4238 C   0  0  0  0  0  0  0  0  0  0  0  0
   18.0605   -8.5410  -12.8701 C   0  0  2  0  0  0  0  0  0  0  0  0
   17.3990   -9.4187  -13.7417 N   0  0  0  0  0  0  0  0  0  0  0  0
   17.0642   -7.6880  -12.1745 C   0  0  0  0  0  0  0  0  0  0  0  0
   16.2978   -6.9679  -12.8564 O   0  0  0  0  0  0  0  0  0  0  0  0
   23.9984   -9.0535  -17.1049 N   0  0  0  0  0  0  0  0  0  0  0  0
   16.9897   -7.6953  -10.7656 C   0  0  1  0  0  0  0  0  0  0  0  0
   15.9300   -6.8862  -10.0787 C   0  0  0  0  0  0  0  0  0  0  0  0
   14.9774   -7.8695   -9.5692 C   0  0  0  0  0  0  0  0  0  0  0  0
   13.7943   -7.5395   -8.7583 C   0  0  0  0  0  0  0  0  0  0  0  0
   12.9819   -8.6701   -8.2295 C   0  0  0  0  0  0  0  0  0  0  0  0
   11.8267   -8.1409   -7.3607 N   0  0  0  0  0  0  0  0  0  0  0  0
   11.0607   -9.2138   -6.8085 C   0  0  0  0  0  0  0  0  0  0  0  0
   16.5637   -5.8844   -9.2477 O   0  0  0  0  0  0  0  0  0  0  0  0
   17.7770   -5.8861   -8.9251 O   0  0  0  0  0  0  0  0  0  0  0  0
  1  2  1  0
  2  3  2  0
  4  5  1  0
  4  2  1  0
  6  5  1  0
  6  7  1  1
  8  6  1  0
  9  8  2  0
 10 11  1  0
 11 13  1  0
 11 12  2  0
 13 14  1  0
 14 15  1  0
 17 16  1  6
 16 15  1  0
 17 18  1  0
 18  8  1  0
 19 17  1  0
 19 20  2  0
 21 19  1  0
 22 21  1  0
 22 23  1  6
 24 23  1  0
 25 24  1  0
 26 25  1  0
 27 26  1  0
 28 22  1  0
 29 28  2  0
 30 28  1  0
M  END
$$$$
