QRK.pdb
     RDKit          3D

 30 29  0  0  1  0  0  0  0  0999 V2000
   27.0908  -20.9613  -18.3506 N   0  0  0  0  0  0  0  0  0  0  0  0
   27.3692  -19.5788  -18.5042 C   0  0  0  0  0  0  0  0  0  0  0  0
   28.5479  -19.1652  -18.4199 O   0  0  0  0  0  0  0  0  0  0  0  0
   26.2742  -18.6466  -18.7604 C   0  0  0  0  0  0  0  0  0  0  0  0
   24.9310  -19.2790  -18.9628 C   0  0  0  0  0  0  0  0  0  0  0  0
   23.7906  -18.5274  -18.3356 C   0  0  2  0  0  0  0  0  0  0  0  0
   24.2124  -17.2705  -17.7541 N   0  0  0  0  0  0  0  0  0  0  0  0
   23.2210  -19.3645  -17.2385 C   0  0  0  0  0  0  0  0  0  0  0  0
   22.7507  -20.4967  -17.4529 O   0  0  0  0  0  0  0  0  0  0  0  0
   25.5616  -20.5831   -9.1473 N   0  0  0  0  0  0  0  0  0  0  0  0
   25.9844  -21.0736  -10.4160 C   0  0  0  0  0  0  0  0  0  0  0  0
   27.1727  -21.4900  -10.6234 N   0  0  0  0  0  0  0  0  0  0  0  0
   25.0526  -21.1010  -11.4900 N   0  0  0  0  0  0  0  0  0  0  0  0
   23.7252  -20.6162  -11.2694 C   0  0  0  0  0  0  0  0  0  0  0  0
   22.8863  -20.6163  -12.5303 C   0  0  0  0  0  0  0  0  0  0  0  0
   23.5103  -19.7213  -13.5791 C   0  0  0  0  0  0  0  0  0  0  0  0
   22.7034  -19.6758  -14.8222 C   0  0  2  0  0  0  0  0  0  0  0  0
   23.1845  -18.9189  -15.9007 N   0  0  0  0  0  0  0  0  0  0  0  0
   21.3305  -19.2294  -14.4761 C   0  0  0  0  0  0  0  0  0  0  0  0
   21.1492  -18.0428  -14.1154 O   0  0  0  0  0  0  0  0  0  0  0  0
   27.4887  -21.7715  -11.5715 N   0  0  0  0  0  0  0  0  0  0  0  0
   20.2524  -20.1359  -14.5553 C   0  0  2  0  0  0  0  0  0  0  0  0
   18.8697  -19.6700  -14.2078 C   0  0  0  0  0  0  0  0  0  0  0  0
   18.0737  -19.9290  -15.4050 C   0  0  0  0  0  0  0  0  0  0  0  0
   16.6343  -19.6464  -15.5246 C   0  0  0  0  0  0  0  0  0  0  0  0
   15.9738  -19.9610  -16.8217 C   0  0  0  0  0  0  0  0  0  0  0  0
   14.4881  -19.5612  -16.7786 N   0  0  0  0  0  0  0  0  0  0  0  0
   13.8356  -19.8596  -18.0148 C   0  0  0  0  0  0  0  0  0  0  0  0
   18.5192  -20.1666  -12.8939 O   0  0  0  0  0  0  0  0  0  0  0  0
   18.9888  -21.2088  -12.3746 O   0  0  0  0  0  0  0  0  0  0  0  0
  1  2  1  0
  2  3  2  0
  4  5  1  0
  4  2  1  0
  6  5  1  0
  6  7  1  1
  8  6  1  0
  9  8  2  0
 10 11  1  0
 11 13  1  0
 11 12  2  0
 13 14  1  0
 14 15  1  0
 17 16  1  1
 16 15  1  0
 17 18  1  0
 18  8  1  0
 19 17  1  0
 19 20  2  0
 21 19  1  0
 22 21  1  0
 22 23  1  6
 24 23  1  0
 25 24  1  0
 26 25  1  0
 27 26  1  0
 28 22  1  0
 29 28  2  0
 30 28  1  0
M  END
$$$$
