QRK.pdb
     RDKit          3D

 30 29  0  0  1  0  0  0  0  0999 V2000
   26.6074  -19.7263  -19.7777 N   0  0  0  0  0  0  0  0  0  0  0  0
   27.9723  -19.4001  -19.5698 C   0  0  0  0  0  0  0  0  0  0  0  0
   28.6864  -19.0522  -20.5375 O   0  0  0  0  0  0  0  0  0  0  0  0
   28.5345  -19.4733  -18.2237 C   0  0  0  0  0  0  0  0  0  0  0  0
   27.5626  -19.8423  -17.1446 C   0  0  0  0  0  0  0  0  0  0  0  0
   27.9588  -21.0471  -16.3382 C   0  0  2  0  0  0  0  0  0  0  0  0
   28.0914  -22.2364  -17.1529 N   0  0  0  0  0  0  0  0  0  0  0  0
   26.8926  -21.3086  -15.3265 C   0  0  0  0  0  0  0  0  0  0  0  0
   25.8731  -21.9673  -15.6021 O   0  0  0  0  0  0  0  0  0  0  0  0
   22.6078  -20.4391   -9.3526 N   0  0  0  0  0  0  0  0  0  0  0  0
   23.3525  -21.0303   -8.2920 C   0  0  0  0  0  0  0  0  0  0  0  0
   22.7891  -21.6231   -7.3124 N   0  0  0  0  0  0  0  0  0  0  0  0
   24.7724  -20.9588   -8.3232 N   0  0  0  0  0  0  0  0  0  0  0  0
   25.4060  -20.1915   -9.3506 C   0  0  0  0  0  0  0  0  0  0  0  0
   25.0699  -20.6877  -10.7415 C   0  0  0  0  0  0  0  0  0  0  0  0
   26.2907  -20.6232  -11.6338 C   0  0  0  0  0  0  0  0  0  0  0  0
   25.9638  -20.9344  -13.0461 C   0  0  2  0  0  0  0  0  0  0  0  0
   26.9818  -20.8243  -14.0048 N   0  0  0  0  0  0  0  0  0  0  0  0
   24.8048  -20.1017  -13.4553 C   0  0  0  0  0  0  0  0  0  0  0  0
   25.0101  -18.9433  -13.8877 O   0  0  0  0  0  0  0  0  0  0  0  0
   23.3452  -22.0415   -6.5419 N   0  0  0  0  0  0  0  0  0  0  0  0
   23.4951  -20.6165  -13.3547 C   0  0  1  0  0  0  0  0  0  0  0  0
   22.4253  -20.0953  -14.2677 C   0  0  0  0  0  0  0  0  0  0  0  0
   23.0356  -20.0858  -15.5949 C   0  0  0  0  0  0  0  0  0  0  0  0
   22.4505  -19.4296  -16.7753 C   0  0  0  0  0  0  0  0  0  0  0  0
   22.9335  -18.0629  -17.1165 C   0  0  0  0  0  0  0  0  0  0  0  0
   22.2190  -17.5396  -18.3754 N   0  0  0  0  0  0  0  0  0  0  0  0
   22.6484  -16.2160  -18.7019 C   0  0  0  0  0  0  0  0  0  0  0  0
   21.1785  -20.7670  -13.9677 O   0  0  0  0  0  0  0  0  0  0  0  0
   21.0801  -21.9676  -13.6140 O   0  0  0  0  0  0  0  0  0  0  0  0
  1  2  1  0
  2  3  2  0
  4  5  1  0
  4  2  1  0
  6  5  1  0
  6  7  1  6
  8  6  1  0
  9  8  2  0
 10 11  1  0
 11 13  1  0
 11 12  2  0
 13 14  1  0
 14 15  1  0
 17 16  1  1
 16 15  1  0
 17 18  1  0
 18  8  1  0
 19 17  1  0
 19 20  2  0
 21 19  1  0
 22 21  1  0
 22 23  1  6
 24 23  1  0
 25 24  1  0
 26 25  1  0
 27 26  1  0
 28 22  1  0
 29 28  2  0
 30 28  1  0
M  END
$$$$
