QRK.pdb
     RDKit          3D

 30 29  0  0  1  0  0  0  0  0999 V2000
   17.9519  -22.1848  -13.5610 N   0  0  0  0  0  0  0  0  0  0  0  0
   17.4503  -21.8068  -12.2890 C   0  0  0  0  0  0  0  0  0  0  0  0
   16.5732  -22.5040  -11.7303 O   0  0  0  0  0  0  0  0  0  0  0  0
   17.9633  -20.6031  -11.6399 C   0  0  0  0  0  0  0  0  0  0  0  0
   19.0509  -19.8901  -12.3842 C   0  0  0  0  0  0  0  0  0  0  0  0
   20.4277  -20.0943  -11.8170 C   0  0  2  0  0  0  0  0  0  0  0  0
   20.6585  -19.2980  -10.6302 N   0  0  0  0  0  0  0  0  0  0  0  0
   21.4274  -19.6759  -12.8437 C   0  0  0  0  0  0  0  0  0  0  0  0
   21.5874  -18.4817  -13.1560 O   0  0  0  0  0  0  0  0  0  0  0  0
   26.1371  -24.4894  -15.7691 N   0  0  0  0  0  0  0  0  0  0  0  0
   26.0889  -23.9224  -17.0749 C   0  0  0  0  0  0  0  0  0  0  0  0
   25.9310  -24.6354  -18.1214 N   0  0  0  0  0  0  0  0  0  0  0  0
   26.2214  -22.5139  -17.2203 N   0  0  0  0  0  0  0  0  0  0  0  0
   26.3670  -21.7063  -16.0489 C   0  0  0  0  0  0  0  0  0  0  0  0
   25.2153  -20.7416  -15.8577 C   0  0  0  0  0  0  0  0  0  0  0  0
   24.2965  -21.2284  -14.7580 C   0  0  0  0  0  0  0  0  0  0  0  0
   23.1873  -20.2790  -14.4996 C   0  0  2  0  0  0  0  0  0  0  0  0
   22.2441  -20.6093  -13.5153 N   0  0  0  0  0  0  0  0  0  0  0  0
   22.4913  -20.0080  -15.7826 C   0  0  0  0  0  0  0  0  0  0  0  0
   21.7056  -20.8694  -16.2426 O   0  0  0  0  0  0  0  0  0  0  0  0
   25.9253  -24.2106  -19.0688 N   0  0  0  0  0  0  0  0  0  0  0  0
   22.7183  -18.7950  -16.4664 C   0  0  1  0  0  0  0  0  0  0  0  0
   21.9883  -18.5227  -17.7480 C   0  0  0  0  0  0  0  0  0  0  0  0
   21.9902  -19.7981  -18.4601 C   0  0  0  0  0  0  0  0  0  0  0  0
   21.1544  -20.0972  -19.6340 C   0  0  0  0  0  0  0  0  0  0  0  0
   21.2797  -21.4494  -20.2450 C   0  0  0  0  0  0  0  0  0  0  0  0
   20.3601  -21.5710  -21.4733 N   0  0  0  0  0  0  0  0  0  0  0  0
   20.5503  -22.8205  -22.1409 C   0  0  0  0  0  0  0  0  0  0  0  0
   20.7843  -17.7733  -17.4569 O   0  0  0  0  0  0  0  0  0  0  0  0
   19.8874  -18.1426  -16.6596 O   0  0  0  0  0  0  0  0  0  0  0  0
  1  2  1  0
  2  3  2  0
  4  5  1  0
  4  2  1  0
  6  5  1  0
  6  7  1  1
  8  6  1  0
  9  8  2  0
 10 11  1  0
 11 13  1  0
 11 12  2  0
 13 14  1  0
 14 15  1  0
 17 16  1  6
 16 15  1  0
 17 18  1  0
 18  8  1  0
 19 17  1  0
 19 20  2  0
 21 19  1  0
 22 21  1  0
 22 23  1  6
 24 23  1  0
 25 24  1  0
 26 25  1  0
 27 26  1  0
 28 22  1  0
 29 28  2  0
 30 28  1  0
M  END
$$$$
