LMG.pdb
     RDKit          3D

 21 20  0  0  1  0  0  0  0  0999 V2000
   19.7679  -11.9219  -20.6873 C   0  0  0  0  0  0  0  0  0  0  0  0
   18.7151  -11.5642  -19.6312 C   0  0  2  0  0  0  0  0  0  0  0  0
   17.7705  -10.5409  -20.2204 C   0  0  0  0  0  0  0  0  0  0  0  0
   19.4646  -11.0135  -18.4605 C   0  0  0  0  0  0  0  0  0  0  0  0
   20.4438  -12.0160  -17.9441 C   0  0  2  0  0  0  0  0  0  0  0  0
   19.7554  -13.2068  -17.5320 N   0  0  0  0  0  0  0  0  0  0  0  0
   21.2187  -11.4117  -16.8183 C   0  0  0  0  0  0  0  0  0  0  0  0
   20.7979  -11.5777  -15.6525 O   0  0  0  0  0  0  0  0  0  0  0  0
   27.4510  -11.9500  -15.1704 C   0  0  0  0  0  0  0  0  0  0  0  0
   27.1843  -10.1830  -15.4964 S   0  0  0  0  0  0  0  0  0  0  0  0
   25.4395   -9.7939  -15.1057 C   0  0  0  0  0  0  0  0  0  0  0  0
   24.5908  -10.3967  -16.1855 C   0  0  0  0  0  0  0  0  0  0  0  0
   23.1412  -10.1383  -15.9188 C   0  0  2  0  0  0  0  0  0  0  0  0
   22.3907  -10.6757  -17.0672 N   0  0  0  0  0  0  0  0  0  0  0  0
   22.7964   -8.7108  -15.7462 C   0  0  0  0  0  0  0  0  0  0  0  0
   23.2788   -8.0026  -14.8403 O   0  0  0  0  0  0  0  0  0  0  0  0
   21.8727   -8.0748  -16.6359 N   0  0  0  0  0  0  0  0  0  0  0  0
   21.6814   -6.6367  -16.5777 C   0  0  0  0  0  0  0  0  0  0  0  0
   20.6434   -6.3362  -15.5647 C   0  0  0  0  0  0  0  0  0  0  0  0
   20.2522   -5.0092  -15.3571 O   0  0  0  0  0  0  0  0  0  0  0  0
   20.1124   -7.2451  -14.8940 O   0  0  0  0  0  0  0  0  0  0  0  0
  2  3  1  6
  2  1  1  0
  4  5  1  0
  4  2  1  0
  5  6  1  1
  5  7  1  0
  7  8  2  0
  9 10  1  0
 10 11  1  0
 11 12  1  0
 13 12  1  6
 14  7  1  0
 14 13  1  0
 15 13  1  0
 15 16  2  0
 17 18  1  0
 17 15  1  0
 19 18  1  0
 20 19  1  0
 21 19  2  0
M  END
$$$$
