LMG.pdb
     RDKit          3D

 21 20  0  0  1  0  0  0  0  0999 V2000
   27.0711  -17.7964  -17.0097 C   0  0  0  0  0  0  0  0  0  0  0  0
   28.0484  -17.8244  -15.8282 C   0  0  2  0  0  0  0  0  0  0  0  0
   29.4467  -18.0331  -16.3649 C   0  0  0  0  0  0  0  0  0  0  0  0
   27.6181  -18.9584  -14.9539 C   0  0  0  0  0  0  0  0  0  0  0  0
   26.1486  -18.8945  -14.6949 C   0  0  2  0  0  0  0  0  0  0  0  0
   25.8025  -17.6135  -14.1464 N   0  0  0  0  0  0  0  0  0  0  0  0
   25.7624  -20.0082  -13.7765 C   0  0  0  0  0  0  0  0  0  0  0  0
   26.0099  -21.1817  -14.1306 O   0  0  0  0  0  0  0  0  0  0  0  0
   26.0910  -19.3661   -7.8973 C   0  0  0  0  0  0  0  0  0  0  0  0
   27.3910  -20.3517   -8.6963 S   0  0  0  0  0  0  0  0  0  0  0  0
   26.6980  -21.0588  -10.2351 C   0  0  0  0  0  0  0  0  0  0  0  0
   25.2679  -20.6163  -10.3302 C   0  0  0  0  0  0  0  0  0  0  0  0
   24.7287  -20.8761  -11.7017 C   0  0  2  0  0  0  0  0  0  0  0  0
   25.1368  -19.7399  -12.5461 N   0  0  0  0  0  0  0  0  0  0  0  0
   23.2580  -21.0159  -11.7639 C   0  0  0  0  0  0  0  0  0  0  0  0
   22.6114  -21.7280  -10.9703 O   0  0  0  0  0  0  0  0  0  0  0  0
   22.5048  -20.3208  -12.7633 N   0  0  0  0  0  0  0  0  0  0  0  0
   21.0550  -20.4007  -12.7665 C   0  0  0  0  0  0  0  0  0  0  0  0
   20.6413  -21.4902  -13.6805 C   0  0  0  0  0  0  0  0  0  0  0  0
   19.4566  -22.1882  -13.4229 O   0  0  0  0  0  0  0  0  0  0  0  0
   21.3303  -21.7961  -14.6753 O   0  0  0  0  0  0  0  0  0  0  0  0
  2  3  1  6
  2  1  1  0
  4  5  1  0
  4  2  1  0
  5  6  1  1
  5  7  1  0
  7  8  2  0
  9 10  1  0
 10 11  1  0
 11 12  1  0
 13 12  1  1
 14  7  1  0
 14 13  1  0
 15 13  1  0
 15 16  2  0
 17 18  1  0
 17 15  1  0
 19 18  1  0
 20 19  1  0
 21 19  2  0
M  END
$$$$
