LMG.pdb
     RDKit          3D

 21 20  0  0  1  0  0  0  0  0999 V2000
   27.3478  -18.7001  -16.9718 C   0  0  0  0  0  0  0  0  0  0  0  0
   27.9632  -18.1619  -15.6743 C   0  0  2  0  0  0  0  0  0  0  0  0
   29.3332  -17.6032  -15.9868 C   0  0  0  0  0  0  0  0  0  0  0  0
   28.0417  -19.3217  -14.7340 C   0  0  0  0  0  0  0  0  0  0  0  0
   26.6751  -19.8291  -14.4094 C   0  0  2  0  0  0  0  0  0  0  0  0
   25.7185  -18.7634  -14.5145 N   0  0  0  0  0  0  0  0  0  0  0  0
   26.6847  -20.4257  -13.0393 C   0  0  0  0  0  0  0  0  0  0  0  0
   27.3179  -21.4890  -12.8601 O   0  0  0  0  0  0  0  0  0  0  0  0
   28.8089  -19.8956   -7.3712 C   0  0  0  0  0  0  0  0  0  0  0  0
   27.0422  -19.6513   -7.0264 S   0  0  0  0  0  0  0  0  0  0  0  0
   26.0883  -20.5255   -8.3202 C   0  0  0  0  0  0  0  0  0  0  0  0
   26.3320  -19.8139   -9.6179 C   0  0  0  0  0  0  0  0  0  0  0  0
   25.7400  -20.5828  -10.7569 C   0  0  2  0  0  0  0  0  0  0  0  0
   25.9982  -19.8045  -11.9809 N   0  0  0  0  0  0  0  0  0  0  0  0
   24.2859  -20.8252  -10.6406 C   0  0  0  0  0  0  0  0  0  0  0  0
   23.7670  -21.3629   -9.6423 O   0  0  0  0  0  0  0  0  0  0  0  0
   23.3997  -20.4414  -11.6971 N   0  0  0  0  0  0  0  0  0  0  0  0
   21.9688  -20.6427  -11.5540 C   0  0  0  0  0  0  0  0  0  0  0  0
   21.5186  -21.6042  -12.5868 C   0  0  0  0  0  0  0  0  0  0  0  0
   22.4683  -22.2283  -13.4027 O   0  0  0  0  0  0  0  0  0  0  0  0
   20.3083  -21.8668  -12.7416 O   0  0  0  0  0  0  0  0  0  0  0  0
  2  3  1  6
  2  1  1  0
  4  5  1  0
  4  2  1  0
  5  6  1  1
  5  7  1  0
  7  8  2  0
  9 10  1  0
 10 11  1  0
 11 12  1  0
 13 12  1  1
 14  7  1  0
 14 13  1  0
 15 13  1  0
 15 16  2  0
 17 18  1  0
 17 15  1  0
 19 18  1  0
 20 19  1  0
 21 19  2  0
M  END
$$$$
