LMG.pdb
     RDKit          3D

 21 20  0  0  1  0  0  0  0  0999 V2000
   24.6082  -21.6236   -9.7302 C   0  0  0  0  0  0  0  0  0  0  0  0
   25.8876  -21.0195  -10.3218 C   0  0  2  0  0  0  0  0  0  0  0  0
   26.7157  -20.4465   -9.1937 C   0  0  0  0  0  0  0  0  0  0  0  0
   25.4477  -19.9574  -11.2778 C   0  0  0  0  0  0  0  0  0  0  0  0
   24.6635  -20.5527  -12.4008 C   0  0  2  0  0  0  0  0  0  0  0  0
   25.3954  -21.6396  -12.9879 N   0  0  0  0  0  0  0  0  0  0  0  0
   24.3586  -19.4894  -13.4055 C   0  0  0  0  0  0  0  0  0  0  0  0
   23.7269  -18.4790  -13.0262 O   0  0  0  0  0  0  0  0  0  0  0  0
   28.5758  -19.6327  -16.8695 C   0  0  0  0  0  0  0  0  0  0  0  0
   28.3478  -17.8483  -16.6176 S   0  0  0  0  0  0  0  0  0  0  0  0
   26.7561  -17.5995  -15.7500 C   0  0  0  0  0  0  0  0  0  0  0  0
   25.7019  -18.3353  -16.5228 C   0  0  0  0  0  0  0  0  0  0  0  0
   24.4779  -18.5311  -15.6845 C   0  0  2  0  0  0  0  0  0  0  0  0
   24.7730  -19.6247  -14.7423 N   0  0  0  0  0  0  0  0  0  0  0  0
   23.2606  -18.8738  -16.4508 C   0  0  0  0  0  0  0  0  0  0  0  0
   23.2208  -18.8668  -17.6971 O   0  0  0  0  0  0  0  0  0  0  0  0
   22.0534  -19.2348  -15.7715 N   0  0  0  0  0  0  0  0  0  0  0  0
   20.8447  -19.5011  -16.5307 C   0  0  0  0  0  0  0  0  0  0  0  0
   20.6068  -20.9629  -16.5479 C   0  0  0  0  0  0  0  0  0  0  0  0
   19.9361  -21.5609  -15.4758 O   0  0  0  0  0  0  0  0  0  0  0  0
   20.9939  -21.6695  -17.5012 O   0  0  0  0  0  0  0  0  0  0  0  0
  2  3  1  1
  2  1  1  0
  4  5  1  0
  4  2  1  0
  5  6  1  6
  5  7  1  0
  7  8  2  0
  9 10  1  0
 10 11  1  0
 11 12  1  0
 13 12  1  6
 14  7  1  0
 14 13  1  0
 15 13  1  0
 15 16  2  0
 17 18  1  0
 17 15  1  0
 19 18  1  0
 20 19  1  0
 21 19  2  0
M  END
$$$$
