LMG.pdb
     RDKit          3D

 21 20  0  0  1  0  0  0  0  0999 V2000
   27.9021  -17.7068  -15.0257 C   0  0  0  0  0  0  0  0  0  0  0  0
   26.9735  -18.7184  -15.7084 C   0  0  2  0  0  0  0  0  0  0  0  0
   25.9254  -17.9587  -16.4900 C   0  0  0  0  0  0  0  0  0  0  0  0
   26.3625  -19.5332  -14.6137 C   0  0  0  0  0  0  0  0  0  0  0  0
   27.4229  -20.1954  -13.7965 C   0  0  2  0  0  0  0  0  0  0  0  0
   28.1040  -21.1836  -14.5846 N   0  0  0  0  0  0  0  0  0  0  0  0
   26.8007  -20.7973  -12.5784 C   0  0  0  0  0  0  0  0  0  0  0  0
   26.4085  -21.9832  -12.6373 O   0  0  0  0  0  0  0  0  0  0  0  0
   28.4249  -20.1755   -6.2046 C   0  0  0  0  0  0  0  0  0  0  0  0
   26.6994  -19.6262   -6.3480 S   0  0  0  0  0  0  0  0  0  0  0  0
   25.9445  -20.5013   -7.7666 C   0  0  0  0  0  0  0  0  0  0  0  0
   26.6161  -20.0039   -9.0121 C   0  0  0  0  0  0  0  0  0  0  0  0
   26.0617  -20.6944  -10.2183 C   0  0  2  0  0  0  0  0  0  0  0  0
   26.6613  -20.0463  -11.3978 N   0  0  0  0  0  0  0  0  0  0  0  0
   24.5889  -20.6334  -10.3346 C   0  0  0  0  0  0  0  0  0  0  0  0
   23.8217  -21.0503   -9.4444 O   0  0  0  0  0  0  0  0  0  0  0  0
   23.9757  -20.0794  -11.5035 N   0  0  0  0  0  0  0  0  0  0  0  0
   22.5513  -19.7982  -11.5124 C   0  0  0  0  0  0  0  0  0  0  0  0
   21.8631  -20.8559  -12.2880 C   0  0  0  0  0  0  0  0  0  0  0  0
   22.6126  -21.9038  -12.8330 O   0  0  0  0  0  0  0  0  0  0  0  0
   20.6276  -20.8285  -12.4635 O   0  0  0  0  0  0  0  0  0  0  0  0
  2  3  1  1
  2  1  1  0
  4  5  1  0
  4  2  1  0
  5  6  1  6
  5  7  1  0
  7  8  2  0
  9 10  1  0
 10 11  1  0
 11 12  1  0
 13 12  1  1
 14  7  1  0
 14 13  1  0
 15 13  1  0
 15 16  2  0
 17 18  1  0
 17 15  1  0
 19 18  1  0
 20 19  1  0
 21 19  2  0
M  END
$$$$
