LMG.pdb
     RDKit          3D

 21 20  0  0  1  0  0  0  0  0999 V2000
   23.3038  -20.3814   -9.5742 C   0  0  0  0  0  0  0  0  0  0  0  0
   24.5451  -21.1397   -9.0885 C   0  0  2  0  0  0  0  0  0  0  0  0
   24.5981  -21.0602   -7.5794 C   0  0  0  0  0  0  0  0  0  0  0  0
   25.7221  -20.4660   -9.7181 C   0  0  0  0  0  0  0  0  0  0  0  0
   25.6510  -20.5657  -11.2066 C   0  0  2  0  0  0  0  0  0  0  0  0
   25.3360  -21.9121  -11.5935 N   0  0  0  0  0  0  0  0  0  0  0  0
   26.9501  -20.1154  -11.7920 C   0  0  0  0  0  0  0  0  0  0  0  0
   27.3583  -18.9661  -11.5157 O   0  0  0  0  0  0  0  0  0  0  0  0
   31.4318  -22.6693   -9.5367 C   0  0  0  0  0  0  0  0  0  0  0  0
   31.9994  -22.0953  -11.1640 S   0  0  0  0  0  0  0  0  0  0  0  0
   30.8455  -20.7968  -11.7386 C   0  0  0  0  0  0  0  0  0  0  0  0
   30.0315  -21.3796  -12.8556 C   0  0  0  0  0  0  0  0  0  0  0  0
   28.9281  -20.4459  -13.2428 C   0  0  2  0  0  0  0  0  0  0  0  0
   27.6919  -20.9648  -12.6319 N   0  0  0  0  0  0  0  0  0  0  0  0
   28.7231  -20.3133  -14.7012 C   0  0  0  0  0  0  0  0  0  0  0  0
   29.6609  -20.1326  -15.5030 O   0  0  0  0  0  0  0  0  0  0  0  0
   27.4068  -20.3897  -15.2588 N   0  0  0  0  0  0  0  0  0  0  0  0
   27.2161  -20.2539  -16.6917 C   0  0  0  0  0  0  0  0  0  0  0  0
   25.7726  -20.3911  -16.9940 C   0  0  0  0  0  0  0  0  0  0  0  0
   25.3324  -20.2505  -18.3144 O   0  0  0  0  0  0  0  0  0  0  0  0
   24.9432  -20.6296  -16.0923 O   0  0  0  0  0  0  0  0  0  0  0  0
  2  3  1  1
  2  1  1  0
  4  5  1  0
  4  2  1  0
  5  6  1  1
  5  7  1  0
  7  8  2  0
  9 10  1  0
 10 11  1  0
 11 12  1  0
 13 12  1  6
 14  7  1  0
 14 13  1  0
 15 13  1  0
 15 16  2  0
 17 18  1  0
 17 15  1  0
 19 18  1  0
 20 19  1  0
 21 19  2  0
M  END
$$$$
