LMG.pdb
     RDKit          3D

 21 20  0  0  1  0  0  0  0  0999 V2000
   26.0135  -35.3468   -3.9967 C   0  0  0  0  0  0  0  0  0  0  0  0
   26.9913  -34.1656   -4.0182 C   0  0  2  0  0  0  0  0  0  0  0  0
   28.3326  -34.6598   -4.5113 C   0  0  0  0  0  0  0  0  0  0  0  0
   27.0719  -33.6613   -2.6129 C   0  0  0  0  0  0  0  0  0  0  0  0
   25.7809  -33.0301   -2.2059 C   0  0  2  0  0  0  0  0  0  0  0  0
   25.3944  -32.0385   -3.1698 N   0  0  0  0  0  0  0  0  0  0  0  0
   25.9308  -32.4405   -0.8409 C   0  0  0  0  0  0  0  0  0  0  0  0
   26.5589  -31.3654   -0.7251 O   0  0  0  0  0  0  0  0  0  0  0  0
   20.9916  -29.7065    1.9402 C   0  0  0  0  0  0  0  0  0  0  0  0
   22.0323  -30.9633    2.7383 S   0  0  0  0  0  0  0  0  0  0  0  0
   23.4649  -31.2861    1.6469 C   0  0  0  0  0  0  0  0  0  0  0  0
   24.2757  -32.3784    2.2788 C   0  0  0  0  0  0  0  0  0  0  0  0
   25.6109  -32.4927    1.6129 C   0  0  2  0  0  0  0  0  0  0  0  0
   25.3783  -33.0810    0.2823 N   0  0  0  0  0  0  0  0  0  0  0  0
   26.5883  -33.3286    2.3426 C   0  0  0  0  0  0  0  0  0  0  0  0
   26.8030  -34.5236    2.0581 O   0  0  0  0  0  0  0  0  0  0  0  0
   27.3422  -32.7815    3.4296 N   0  0  0  0  0  0  0  0  0  0  0  0
   28.2840  -33.6168    4.1532 C   0  0  0  0  0  0  0  0  0  0  0  0
   28.9326  -32.8001    5.2050 C   0  0  0  0  0  0  0  0  0  0  0  0
   29.8714  -33.3959    6.0539 O   0  0  0  0  0  0  0  0  0  0  0  0
   28.6565  -31.5912    5.3468 O   0  0  0  0  0  0  0  0  0  0  0  0
  2  3  1  1
  2  1  1  0
  4  5  1  0
  4  2  1  0
  5  6  1  6
  5  7  1  0
  7  8  2  0
  9 10  1  0
 10 11  1  0
 11 12  1  0
 13 12  1  1
 14  7  1  0
 14 13  1  0
 15 13  1  0
 15 16  2  0
 17 18  1  0
 17 15  1  0
 19 18  1  0
 20 19  1  0
 21 19  2  0
M  END
$$$$
