LMG.pdb
     RDKit          3D

 21 20  0  0  1  0  0  0  0  0999 V2000
   14.7935  -14.3062    5.2172 C   0  0  0  0  0  0  0  0  0  0  0  0
   15.2472  -14.1077    3.7658 C   0  0  2  0  0  0  0  0  0  0  0  0
   14.0280  -14.1394    2.8717 C   0  0  0  0  0  0  0  0  0  0  0  0
   16.1842  -15.2322    3.4610 C   0  0  0  0  0  0  0  0  0  0  0  0
   17.4008  -15.1514    4.3234 C   0  0  2  0  0  0  0  0  0  0  0  0
   18.2168  -14.0419    3.9177 N   0  0  0  0  0  0  0  0  0  0  0  0
   18.1485  -16.4427    4.2410 C   0  0  0  0  0  0  0  0  0  0  0  0
   18.9708  -16.5933    3.3110 O   0  0  0  0  0  0  0  0  0  0  0  0
   22.4029  -19.2494    7.6288 C   0  0  0  0  0  0  0  0  0  0  0  0
   21.0045  -20.3763    7.9013 S   0  0  0  0  0  0  0  0  0  0  0  0
   19.9571  -20.3493    6.4013 C   0  0  0  0  0  0  0  0  0  0  0  0
   19.1495  -19.0859    6.4383 C   0  0  0  0  0  0  0  0  0  0  0  0
   18.6964  -18.7125    5.0619 C   0  0  2  0  0  0  0  0  0  0  0  0
   17.9306  -17.4602    5.1867 N   0  0  0  0  0  0  0  0  0  0  0  0
   17.8498  -19.7285    4.4004 C   0  0  0  0  0  0  0  0  0  0  0  0
   16.6233  -19.8244    4.6042 O   0  0  0  0  0  0  0  0  0  0  0  0
   18.4230  -20.6621    3.4790 N   0  0  0  0  0  0  0  0  0  0  0  0
   17.5738  -21.6185    2.7917 C   0  0  0  0  0  0  0  0  0  0  0  0
   17.2280  -22.7089    3.7325 C   0  0  0  0  0  0  0  0  0  0  0  0
   16.4804  -23.7987    3.2738 O   0  0  0  0  0  0  0  0  0  0  0  0
   17.5915  -22.6724    4.9260 O   0  0  0  0  0  0  0  0  0  0  0  0
  2  3  1  6
  2  1  1  0
  4  5  1  0
  4  2  1  0
  5  6  1  6
  5  7  1  0
  7  8  2  0
  9 10  1  0
 10 11  1  0
 11 12  1  0
 13 12  1  1
 14  7  1  0
 14 13  1  0
 15 13  1  0
 15 16  2  0
 17 18  1  0
 17 15  1  0
 19 18  1  0
 20 19  1  0
 21 19  2  0
M  END
$$$$
