LMG.pdb
     RDKit          3D

 21 20  0  0  1  0  0  0  0  0999 V2000
   28.1371  -12.6064  -15.3584 C   0  0  0  0  0  0  0  0  0  0  0  0
   27.1891  -12.8961  -16.5286 C   0  0  2  0  0  0  0  0  0  0  0  0
   27.7889  -13.9980  -17.3727 C   0  0  0  0  0  0  0  0  0  0  0  0
   27.0658  -11.6186  -17.2955 C   0  0  0  0  0  0  0  0  0  0  0  0
   26.4464  -10.5550  -16.4495 C   0  0  2  0  0  0  0  0  0  0  0  0
   25.3604  -11.1045  -15.6878 N   0  0  0  0  0  0  0  0  0  0  0  0
   25.9910   -9.4331  -17.3254 C   0  0  0  0  0  0  0  0  0  0  0  0
   26.8446   -8.8387  -18.0196 O   0  0  0  0  0  0  0  0  0  0  0  0
   21.8105   -8.2736  -22.2494 C   0  0  0  0  0  0  0  0  0  0  0  0
   22.1751   -9.7198  -21.2124 S   0  0  0  0  0  0  0  0  0  0  0  0
   23.6032   -9.3045  -20.1465 C   0  0  0  0  0  0  0  0  0  0  0  0
   23.1098   -8.3826  -19.0711 C   0  0  0  0  0  0  0  0  0  0  0  0
   24.2465   -7.9194  -18.2153 C   0  0  2  0  0  0  0  0  0  0  0  0
   24.6364   -9.0581  -17.3656 N   0  0  0  0  0  0  0  0  0  0  0  0
   23.9288   -6.7626  -17.3507 C   0  0  0  0  0  0  0  0  0  0  0  0
   23.6013   -5.6481  -17.8042 O   0  0  0  0  0  0  0  0  0  0  0  0
   23.9877   -6.8842  -15.9256 N   0  0  0  0  0  0  0  0  0  0  0  0
   23.7292   -5.7276  -15.0867 C   0  0  0  0  0  0  0  0  0  0  0  0
   22.2825   -5.6826  -14.7724 C   0  0  0  0  0  0  0  0  0  0  0  0
   21.8045   -4.7160  -13.8811 O   0  0  0  0  0  0  0  0  0  0  0  0
   21.4835   -6.4909  -15.2882 O   0  0  0  0  0  0  0  0  0  0  0  0
  2  3  1  6
  2  1  1  0
  4  5  1  0
  4  2  1  0
  5  6  1  6
  5  7  1  0
  7  8  2  0
  9 10  1  0
 10 11  1  0
 11 12  1  0
 13 12  1  1
 14  7  1  0
 14 13  1  0
 15 13  1  0
 15 16  2  0
 17 18  1  0
 17 15  1  0
 19 18  1  0
 20 19  1  0
 21 19  2  0
M  END
$$$$
