LMG.pdb
     RDKit          3D

 21 20  0  0  1  0  0  0  0  0999 V2000
   17.7433  -12.4430    6.0017 C   0  0  0  0  0  0  0  0  0  0  0  0
   18.6221  -13.2889    5.0722 C   0  0  2  0  0  0  0  0  0  0  0  0
   19.7941  -12.4471    4.6200 C   0  0  0  0  0  0  0  0  0  0  0  0
   17.7540  -13.6888    3.9224 C   0  0  0  0  0  0  0  0  0  0  0  0
   16.7541  -14.7126    4.3496 C   0  0  2  0  0  0  0  0  0  0  0  0
   16.8734  -14.9563    5.7595 N   0  0  0  0  0  0  0  0  0  0  0  0
   16.9605  -15.9623    3.5565 C   0  0  0  0  0  0  0  0  0  0  0  0
   16.7855  -15.9149    2.3192 O   0  0  0  0  0  0  0  0  0  0  0  0
   21.5727  -18.3551    1.6352 C   0  0  0  0  0  0  0  0  0  0  0  0
   20.3510  -17.6421    0.4954 S   0  0  0  0  0  0  0  0  0  0  0  0
   18.6905  -17.8815    1.2257 C   0  0  0  0  0  0  0  0  0  0  0  0
   18.8787  -18.1894    2.6816 C   0  0  0  0  0  0  0  0  0  0  0  0
   17.5542  -18.3569    3.3576 C   0  0  2  0  0  0  0  0  0  0  0  0
   17.3416  -17.1591    4.1886 N   0  0  0  0  0  0  0  0  0  0  0  0
   17.4524  -19.5585    4.2134 C   0  0  0  0  0  0  0  0  0  0  0  0
   18.1653  -19.7343    5.2212 O   0  0  0  0  0  0  0  0  0  0  0  0
   16.5073  -20.5892    3.9072 N   0  0  0  0  0  0  0  0  0  0  0  0
   16.4464  -21.7857    4.7275 C   0  0  0  0  0  0  0  0  0  0  0  0
   17.4397  -22.7604    4.2205 C   0  0  0  0  0  0  0  0  0  0  0  0
   17.5656  -24.0022    4.8523 O   0  0  0  0  0  0  0  0  0  0  0  0
   18.1653  -22.4935    3.2406 O   0  0  0  0  0  0  0  0  0  0  0  0
  2  3  1  6
  2  1  1  0
  4  5  1  0
  4  2  1  0
  5  6  1  1
  5  7  1  0
  7  8  2  0
  9 10  1  0
 10 11  1  0
 11 12  1  0
 13 12  1  1
 14  7  1  0
 14 13  1  0
 15 13  1  0
 15 16  2  0
 17 18  1  0
 17 15  1  0
 19 18  1  0
 20 19  1  0
 21 19  2  0
M  END
$$$$
