LMG.pdb
     RDKit          3D

 21 20  0  0  1  0  0  0  0  0999 V2000
   22.0327  -11.0838  -21.7157 C   0  0  0  0  0  0  0  0  0  0  0  0
   20.7205  -11.6273  -21.1373 C   0  0  2  0  0  0  0  0  0  0  0  0
   19.5669  -10.9837  -21.8733 C   0  0  0  0  0  0  0  0  0  0  0  0
   20.7195  -11.2663  -19.6864 C   0  0  0  0  0  0  0  0  0  0  0  0
   21.9298  -11.8171  -19.0066 C   0  0  2  0  0  0  0  0  0  0  0  0
   21.8120  -13.2420  -18.8738 N   0  0  0  0  0  0  0  0  0  0  0  0
   22.0925  -11.1529  -17.6779 C   0  0  0  0  0  0  0  0  0  0  0  0
   21.4722  -11.6240  -16.6996 O   0  0  0  0  0  0  0  0  0  0  0  0
   27.3958  -12.3771  -15.1920 C   0  0  0  0  0  0  0  0  0  0  0  0
   26.7674  -10.6822  -15.3707 S   0  0  0  0  0  0  0  0  0  0  0  0
   24.9588  -10.7752  -15.6322 C   0  0  0  0  0  0  0  0  0  0  0  0
   24.4594   -9.3747  -15.8295 C   0  0  0  0  0  0  0  0  0  0  0  0
   23.0130   -9.3828  -16.2130 C   0  0  2  0  0  0  0  0  0  0  0  0
   22.9227  -10.0271  -17.5349 N   0  0  0  0  0  0  0  0  0  0  0  0
   22.3933   -8.0424  -16.2894 C   0  0  0  0  0  0  0  0  0  0  0  0
   22.6191   -7.2443  -17.2206 O   0  0  0  0  0  0  0  0  0  0  0  0
   21.4890   -7.6021  -15.2709 N   0  0  0  0  0  0  0  0  0  0  0  0
   20.7599   -6.3573  -15.4357 C   0  0  0  0  0  0  0  0  0  0  0  0
   21.5336   -5.2658  -14.8002 C   0  0  0  0  0  0  0  0  0  0  0  0
   22.8006   -5.5399  -14.2743 O   0  0  0  0  0  0  0  0  0  0  0  0
   21.0753   -4.1072  -14.7258 O   0  0  0  0  0  0  0  0  0  0  0  0
  2  3  1  6
  2  1  1  0
  4  5  1  0
  4  2  1  0
  5  6  1  1
  5  7  1  0
  7  8  2  0
  9 10  1  0
 10 11  1  0
 11 12  1  0
 13 12  1  6
 14  7  1  0
 14 13  1  0
 15 13  1  0
 15 16  2  0
 17 18  1  0
 17 15  1  0
 19 18  1  0
 20 19  1  0
 21 19  2  0
M  END
$$$$
