LMG.pdb
     RDKit          3D

 21 20  0  0  1  0  0  0  0  0999 V2000
   19.9004  -12.9059  -20.5542 C   0  0  0  0  0  0  0  0  0  0  0  0
   21.3890  -13.1449  -20.2736 C   0  0  2  0  0  0  0  0  0  0  0  0
   21.6746  -14.6230  -20.4160 C   0  0  0  0  0  0  0  0  0  0  0  0
   21.6355  -12.6673  -18.8784 C   0  0  0  0  0  0  0  0  0  0  0  0
   21.2711  -11.2252  -18.7441 C   0  0  2  0  0  0  0  0  0  0  0  0
   21.9467  -10.4530  -19.7486 N   0  0  0  0  0  0  0  0  0  0  0  0
   21.6155  -10.7572  -17.3672 C   0  0  0  0  0  0  0  0  0  0  0  0
   21.0772  -11.3297  -16.3945 O   0  0  0  0  0  0  0  0  0  0  0  0
   27.1796   -9.8198  -16.7870 C   0  0  0  0  0  0  0  0  0  0  0  0
   26.5885  -10.5842  -15.2488 S   0  0  0  0  0  0  0  0  0  0  0  0
   24.7608  -10.6418  -15.3131 C   0  0  0  0  0  0  0  0  0  0  0  0
   24.2768   -9.2554  -15.6189 C   0  0  0  0  0  0  0  0  0  0  0  0
   22.7913   -9.2463  -15.7985 C   0  0  2  0  0  0  0  0  0  0  0  0
   22.5221   -9.6999  -17.1741 N   0  0  0  0  0  0  0  0  0  0  0  0
   22.1593   -7.9247  -15.5970 C   0  0  0  0  0  0  0  0  0  0  0  0
   22.2350   -7.2946  -14.5236 O   0  0  0  0  0  0  0  0  0  0  0  0
   21.4188   -7.3059  -16.6543 N   0  0  0  0  0  0  0  0  0  0  0  0
   20.7747   -6.0231  -16.4357 C   0  0  0  0  0  0  0  0  0  0  0  0
   21.7883   -4.9523  -16.5768 C   0  0  0  0  0  0  0  0  0  0  0  0
   21.3910   -3.6148  -16.4760 O   0  0  0  0  0  0  0  0  0  0  0  0
   22.9892   -5.2223  -16.7838 O   0  0  0  0  0  0  0  0  0  0  0  0
  2  3  1  1
  2  1  1  0
  4  5  1  0
  4  2  1  0
  5  6  1  6
  5  7  1  0
  7  8  2  0
  9 10  1  0
 10 11  1  0
 11 12  1  0
 13 12  1  6
 14  7  1  0
 14 13  1  0
 15 13  1  0
 15 16  2  0
 17 18  1  0
 17 15  1  0
 19 18  1  0
 20 19  1  0
 21 19  2  0
M  END
$$$$
