LMG.pdb
     RDKit          3D

 21 20  0  0  1  0  0  0  0  0999 V2000
   27.8289  -22.8509  -17.0218 C   0  0  0  0  0  0  0  0  0  0  0  0
   26.3964  -23.1071  -17.5055 C   0  0  2  0  0  0  0  0  0  0  0  0
   26.1108  -22.1888  -18.6724 C   0  0  0  0  0  0  0  0  0  0  0  0
   25.5022  -22.8165  -16.3430 C   0  0  0  0  0  0  0  0  0  0  0  0
   25.8502  -23.6878  -15.1811 C   0  0  2  0  0  0  0  0  0  0  0  0
   25.4371  -25.0384  -15.4396 N   0  0  0  0  0  0  0  0  0  0  0  0
   25.2063  -23.1428  -13.9476 C   0  0  0  0  0  0  0  0  0  0  0  0
   24.0330  -23.4892  -13.6887 O   0  0  0  0  0  0  0  0  0  0  0  0
   26.1415  -19.6075   -7.0488 C   0  0  0  0  0  0  0  0  0  0  0  0
   26.9080  -20.3312   -8.5282 S   0  0  0  0  0  0  0  0  0  0  0  0
   25.5831  -20.6616   -9.7462 C   0  0  0  0  0  0  0  0  0  0  0  0
   26.2290  -21.2477  -10.9666 C   0  0  0  0  0  0  0  0  0  0  0  0
   25.1905  -21.6717  -11.9570 C   0  0  2  0  0  0  0  0  0  0  0  0
   25.9049  -22.2630  -13.1019 N   0  0  0  0  0  0  0  0  0  0  0  0
   24.3273  -20.5749  -12.4451 C   0  0  0  0  0  0  0  0  0  0  0  0
   24.7140  -19.7261  -13.2727 O   0  0  0  0  0  0  0  0  0  0  0  0
   22.9823  -20.4451  -11.9725 N   0  0  0  0  0  0  0  0  0  0  0  0
   22.1709  -19.3164  -12.3919 C   0  0  0  0  0  0  0  0  0  0  0  0
   21.3484  -19.7278  -13.5528 C   0  0  0  0  0  0  0  0  0  0  0  0
   21.4040  -18.9779  -14.7325 O   0  0  0  0  0  0  0  0  0  0  0  0
   20.6074  -20.7307  -13.4971 O   0  0  0  0  0  0  0  0  0  0  0  0
  2  3  1  6
  2  1  1  0
  4  5  1  0
  4  2  1  0
  5  6  1  6
  5  7  1  0
  7  8  2  0
  9 10  1  0
 10 11  1  0
 11 12  1  0
 13 12  1  1
 14  7  1  0
 14 13  1  0
 15 13  1  0
 15 16  2  0
 17 18  1  0
 17 15  1  0
 19 18  1  0
 20 19  1  0
 21 19  2  0
M  END
$$$$
