LMG.pdb
     RDKit          3D

 21 20  0  0  1  0  0  0  0  0999 V2000
   26.6159  -17.1579  -18.6639 C   0  0  0  0  0  0  0  0  0  0  0  0
   27.1948  -17.0198  -17.2505 C   0  0  2  0  0  0  0  0  0  0  0  0
   28.7002  -16.9219  -17.3543 C   0  0  0  0  0  0  0  0  0  0  0  0
   26.7718  -18.2430  -16.5020 C   0  0  0  0  0  0  0  0  0  0  0  0
   25.2851  -18.3839  -16.5219 C   0  0  2  0  0  0  0  0  0  0  0  0
   24.6695  -17.1394  -16.1561 N   0  0  0  0  0  0  0  0  0  0  0  0
   24.8834  -19.4881  -15.5986 C   0  0  0  0  0  0  0  0  0  0  0  0
   25.3479  -20.6309  -15.8035 O   0  0  0  0  0  0  0  0  0  0  0  0
   26.3717  -20.6696   -9.8554 C   0  0  0  0  0  0  0  0  0  0  0  0
   24.5620  -20.6722   -9.6983 S   0  0  0  0  0  0  0  0  0  0  0  0
   23.8553  -21.1439  -11.3188 C   0  0  0  0  0  0  0  0  0  0  0  0
   24.1294  -20.0204  -12.2741 C   0  0  0  0  0  0  0  0  0  0  0  0
   23.6428  -20.3679  -13.6458 C   0  0  2  0  0  0  0  0  0  0  0  0
   24.0054  -19.2447  -14.5276 N   0  0  0  0  0  0  0  0  0  0  0  0
   22.1850  -20.5982  -13.7372 C   0  0  0  0  0  0  0  0  0  0  0  0
   21.3534  -19.6695  -13.7646 O   0  0  0  0  0  0  0  0  0  0  0  0
   21.6634  -21.9298  -13.7990 N   0  0  0  0  0  0  0  0  0  0  0  0
   20.2388  -22.1440  -13.9809 C   0  0  0  0  0  0  0  0  0  0  0  0
   19.5794  -22.1055  -12.6552 C   0  0  0  0  0  0  0  0  0  0  0  0
   20.0321  -22.9545  -11.6396 O   0  0  0  0  0  0  0  0  0  0  0  0
   18.6281  -21.3299  -12.4287 O   0  0  0  0  0  0  0  0  0  0  0  0
  2  3  1  6
  2  1  1  0
  4  5  1  0
  4  2  1  0
  5  6  1  1
  5  7  1  0
  7  8  2  0
  9 10  1  0
 10 11  1  0
 11 12  1  0
 13 12  1  1
 14  7  1  0
 14 13  1  0
 15 13  1  0
 15 16  2  0
 17 18  1  0
 17 15  1  0
 19 18  1  0
 20 19  1  0
 21 19  2  0
M  END
$$$$
