LMG.pdb
     RDKit          3D

 21 20  0  0  1  0  0  0  0  0999 V2000
   13.3390   -9.2305   -9.4972 C   0  0  0  0  0  0  0  0  0  0  0  0
   13.3813   -8.1068   -8.4544 C   0  0  2  0  0  0  0  0  0  0  0  0
   11.9641   -7.7825   -8.0384 C   0  0  0  0  0  0  0  0  0  0  0  0
   14.0414   -6.9415   -9.1191 C   0  0  0  0  0  0  0  0  0  0  0  0
   15.4450   -7.2799   -9.5013 C   0  0  2  0  0  0  0  0  0  0  0  0
   16.2195   -7.5603   -8.3252 N   0  0  0  0  0  0  0  0  0  0  0  0
   16.0270   -6.1492  -10.2860 C   0  0  0  0  0  0  0  0  0  0  0  0
   15.4690   -5.8208  -11.3558 O   0  0  0  0  0  0  0  0  0  0  0  0
   18.2693   -0.6537   -7.9825 C   0  0  0  0  0  0  0  0  0  0  0  0
   16.6362   -1.4480   -7.9391 S   0  0  0  0  0  0  0  0  0  0  0  0
   16.4815   -2.5023   -9.4265 C   0  0  0  0  0  0  0  0  0  0  0  0
   17.8028   -3.1801   -9.6378 C   0  0  0  0  0  0  0  0  0  0  0  0
   17.6611   -4.3168  -10.6006 C   0  0  2  0  0  0  0  0  0  0  0  0
   17.1731   -5.4740   -9.8301 N   0  0  0  0  0  0  0  0  0  0  0  0
   18.9136   -4.6936  -11.2902 C   0  0  0  0  0  0  0  0  0  0  0  0
   19.5896   -3.8846  -11.9562 O   0  0  0  0  0  0  0  0  0  0  0  0
   19.4074   -6.0352  -11.2159 N   0  0  0  0  0  0  0  0  0  0  0  0
   20.6099   -6.4076  -11.9394 C   0  0  0  0  0  0  0  0  0  0  0  0
   20.2174   -7.0918  -13.1931 C   0  0  0  0  0  0  0  0  0  0  0  0
   21.1789   -7.8099  -13.9120 O   0  0  0  0  0  0  0  0  0  0  0  0
   19.0452   -7.0389  -13.6187 O   0  0  0  0  0  0  0  0  0  0  0  0
  2  3  1  6
  2  1  1  0
  4  5  1  0
  4  2  1  0
  5  6  1  1
  5  7  1  0
  7  8  2  0
  9 10  1  0
 10 11  1  0
 11 12  1  0
 13 12  1  1
 14  7  1  0
 14 13  1  0
 15 13  1  0
 15 16  2  0
 17 18  1  0
 17 15  1  0
 19 18  1  0
 20 19  1  0
 21 19  2  0
M  END
$$$$
