LMG.pdb
     RDKit          3D

 21 20  0  0  1  0  0  0  0  0999 V2000
   25.5133  -13.7215  -17.3343 C   0  0  0  0  0  0  0  0  0  0  0  0
   24.0205  -13.9664  -17.0821 C   0  0  2  0  0  0  0  0  0  0  0  0
   23.5418  -15.0412  -18.0321 C   0  0  0  0  0  0  0  0  0  0  0  0
   23.3327  -12.6627  -17.3324 C   0  0  0  0  0  0  0  0  0  0  0  0
   23.7998  -11.6271  -16.3628 C   0  0  2  0  0  0  0  0  0  0  0  0
   23.7786  -12.1588  -15.0292 N   0  0  0  0  0  0  0  0  0  0  0  0
   22.9354  -10.4142  -16.4847 C   0  0  0  0  0  0  0  0  0  0  0  0
   22.9008   -9.8187  -17.5837 O   0  0  0  0  0  0  0  0  0  0  0  0
   17.0560  -11.6211  -17.0040 C   0  0  0  0  0  0  0  0  0  0  0  0
   17.6696  -10.3528  -15.8574 S   0  0  0  0  0  0  0  0  0  0  0  0
   19.3982   -9.9658  -16.3159 C   0  0  0  0  0  0  0  0  0  0  0  0
   19.9640   -9.0876  -15.2397 C   0  0  0  0  0  0  0  0  0  0  0  0
   21.3836   -8.7286  -15.5481 C   0  0  2  0  0  0  0  0  0  0  0  0
   22.1815   -9.9569  -15.3893 N   0  0  0  0  0  0  0  0  0  0  0  0
   21.9497   -7.6735  -14.6804 C   0  0  0  0  0  0  0  0  0  0  0  0
   22.3103   -7.8845  -13.5055 O   0  0  0  0  0  0  0  0  0  0  0  0
   22.1077   -6.3381  -15.1710 N   0  0  0  0  0  0  0  0  0  0  0  0
   22.7578   -5.3341  -14.3478 C   0  0  0  0  0  0  0  0  0  0  0  0
   21.7264   -4.6370  -13.5454 C   0  0  0  0  0  0  0  0  0  0  0  0
   22.1019   -3.5649  -12.7290 O   0  0  0  0  0  0  0  0  0  0  0  0
   20.5296   -4.9891  -13.5848 O   0  0  0  0  0  0  0  0  0  0  0  0
  2  3  1  6
  2  1  1  0
  4  5  1  0
  4  2  1  0
  5  6  1  1
  5  7  1  0
  7  8  2  0
  9 10  1  0
 10 11  1  0
 11 12  1  0
 13 12  1  1
 14  7  1  0
 14 13  1  0
 15 13  1  0
 15 16  2  0
 17 18  1  0
 17 15  1  0
 19 18  1  0
 20 19  1  0
 21 19  2  0
M  END
$$$$
