GKT.pdb
     RDKit          3D

 21 20  0  0  1  0  0  0  0  0999 V2000
   26.8359  -22.1860  -15.1035 N   0  0  0  0  0  0  0  0  0  0  0  0
   26.0012  -21.2432  -14.3902 C   0  0  0  0  0  0  0  0  0  0  0  0
   24.5694  -21.5594  -14.5146 C   0  0  0  0  0  0  0  0  0  0  0  0
   24.2147  -22.3980  -15.3690 O   0  0  0  0  0  0  0  0  0  0  0  0
   23.5914  -20.9559  -13.7121 N   0  0  0  0  0  0  0  0  0  0  0  0
   22.1772  -21.1594  -13.8012 C   0  0  1  0  0  0  0  0  0  0  0  0
   21.4722  -21.1943  -12.4746 C   0  0  0  0  0  0  0  0  0  0  0  0
   20.0176  -21.5215  -12.5493 C   0  0  0  0  0  0  0  0  0  0  0  0
   19.3476  -21.7492  -11.2477 C   0  0  0  0  0  0  0  0  0  0  0  0
   17.8783  -21.9622  -11.2623 C   0  0  0  0  0  0  0  0  0  0  0  0
   17.2407  -22.1305  -10.0018 N   0  0  0  0  0  0  0  0  0  0  0  0
   21.5165  -20.0649  -14.5959 C   0  0  0  0  0  0  0  0  0  0  0  0
   21.7914  -18.8644  -14.3497 O   0  0  0  0  0  0  0  0  0  0  0  0
   19.3319  -18.5966  -18.7551 C   0  0  0  0  0  0  0  0  0  0  0  0
   19.9944  -19.6585  -17.9147 C   0  0  1  0  0  0  0  0  0  0  0  0
   21.3297  -19.7323  -18.3153 O   0  0  0  0  0  0  0  0  0  0  0  0
   19.9822  -19.3058  -16.4425 C   0  0  2  0  0  0  0  0  0  0  0  0
   20.5781  -20.3343  -15.6317 N   0  0  0  0  0  0  0  0  0  0  0  0
   18.6117  -19.0456  -15.9510 C   0  0  0  0  0  0  0  0  0  0  0  0
   17.9292  -20.0040  -15.5198 O   0  0  0  0  0  0  0  0  0  0  0  0
   18.0394  -17.7872  -15.9428 O   0  0  0  0  0  0  0  0  0  0  0  0
  2  1  1  0
  3  4  2  0
  3  2  1  0
  5  3  1  0
  6  5  1  0
  6 12  1  0
  6  7  1  1
  8  7  1  0
  9 10  1  0
  9  8  1  0
 10 11  1  0
 12 13  2  0
 15 14  1  6
 15 16  1  0
 17 19  1  0
 17 15  1  0
 18 12  1  0
 17 18  1  1
 19 21  1  0
 20 19  2  0
M  END
$$$$
