GKT.pdb
     RDKit          3D

 21 20  0  0  1  0  0  0  0  0999 V2000
   16.7695  -24.8393   -4.5941 N   0  0  0  0  0  0  0  0  0  0  0  0
   16.8130  -25.4545   -3.2849 C   0  0  0  0  0  0  0  0  0  0  0  0
   15.8766  -24.8247   -2.3405 C   0  0  0  0  0  0  0  0  0  0  0  0
   15.1926  -23.8567   -2.7332 O   0  0  0  0  0  0  0  0  0  0  0  0
   15.7241  -25.2696   -1.0201 N   0  0  0  0  0  0  0  0  0  0  0  0
   14.8175  -24.7410   -0.0463 C   0  0  1  0  0  0  0  0  0  0  0  0
   13.8861  -25.7590    0.5490 C   0  0  0  0  0  0  0  0  0  0  0  0
   12.9398  -26.3825   -0.4226 C   0  0  0  0  0  0  0  0  0  0  0  0
   11.9754  -27.3469    0.1560 C   0  0  0  0  0  0  0  0  0  0  0  0
   10.9722  -27.9451   -0.7606 C   0  0  0  0  0  0  0  0  0  0  0  0
   10.0779  -28.8989   -0.2003 N   0  0  0  0  0  0  0  0  0  0  0  0
   15.5569  -24.1249    1.1112 C   0  0  0  0  0  0  0  0  0  0  0  0
   16.6106  -24.6624    1.5334 O   0  0  0  0  0  0  0  0  0  0  0  0
   16.6147  -20.4083    1.1493 C   0  0  0  0  0  0  0  0  0  0  0  0
   15.9202  -20.7321    2.4476 C   0  0  1  0  0  0  0  0  0  0  0  0
   14.5949  -20.3102    2.3264 O   0  0  0  0  0  0  0  0  0  0  0  0
   15.8981  -22.2207    2.7228 C   0  0  2  0  0  0  0  0  0  0  0  0
   15.1075  -22.9403    1.7598 N   0  0  0  0  0  0  0  0  0  0  0  0
   15.3882  -22.5214    4.0782 C   0  0  0  0  0  0  0  0  0  0  0  0
   14.3055  -23.1414    4.1958 O   0  0  0  0  0  0  0  0  0  0  0  0
   16.0511  -22.1502    5.2332 O   0  0  0  0  0  0  0  0  0  0  0  0
  2  1  1  0
  3  4  2  0
  3  2  1  0
  5  3  1  0
  6  5  1  0
  6 12  1  0
  6  7  1  1
  8  7  1  0
  9 10  1  0
  9  8  1  0
 10 11  1  0
 12 13  2  0
 15 14  1  6
 15 16  1  0
 17 19  1  0
 17 15  1  0
 18 12  1  0
 17 18  1  6
 19 21  1  0
 20 19  2  0
M  END
$$$$
