GKT.pdb
     RDKit          3D

 21 20  0  0  1  0  0  0  0  0999 V2000
   14.6690   -9.6770   -9.6661 N   0  0  0  0  0  0  0  0  0  0  0  0
   14.7033   -9.0163  -10.9533 C   0  0  0  0  0  0  0  0  0  0  0  0
   16.0009   -9.1760  -11.6287 C   0  0  0  0  0  0  0  0  0  0  0  0
   16.9604   -9.6390  -10.9775 O   0  0  0  0  0  0  0  0  0  0  0  0
   16.1996   -8.8289  -12.9721 N   0  0  0  0  0  0  0  0  0  0  0  0
   17.4111   -8.9859  -13.7184 C   0  0  1  0  0  0  0  0  0  0  0  0
   17.2233   -9.5824  -15.0848 C   0  0  0  0  0  0  0  0  0  0  0  0
   18.4900   -9.8549  -15.8262 C   0  0  0  0  0  0  0  0  0  0  0  0
   18.3255  -10.4587  -17.1691 C   0  0  0  0  0  0  0  0  0  0  0  0
   19.5539  -10.9023  -17.8751 C   0  0  0  0  0  0  0  0  0  0  0  0
   19.3779  -11.5223  -19.1433 N   0  0  0  0  0  0  0  0  0  0  0  0
   18.0970   -7.6630  -13.9316 C   0  0  0  0  0  0  0  0  0  0  0  0
   17.4121   -6.6394  -14.1777 O   0  0  0  0  0  0  0  0  0  0  0  0
   22.3079   -4.9860  -13.5632 C   0  0  0  0  0  0  0  0  0  0  0  0
   21.6380   -6.3365  -13.5619 C   0  0  1  0  0  0  0  0  0  0  0  0
   21.6911   -6.8254  -12.2553 O   0  0  0  0  0  0  0  0  0  0  0  0
   20.1781   -6.2456  -13.9524 C   0  0  2  0  0  0  0  0  0  0  0  0
   19.5115   -7.5177  -13.8656 N   0  0  0  0  0  0  0  0  0  0  0  0
   20.0074   -5.7105  -15.3205 C   0  0  0  0  0  0  0  0  0  0  0  0
   20.2306   -6.4616  -16.2985 O   0  0  0  0  0  0  0  0  0  0  0  0
   19.6104   -4.4116  -15.5785 O   0  0  0  0  0  0  0  0  0  0  0  0
  2  1  1  0
  3  4  2  0
  3  2  1  0
  5  3  1  0
  6  5  1  0
  6 12  1  0
  6  7  1  6
  8  7  1  0
  9 10  1  0
  9  8  1  0
 10 11  1  0
 12 13  2  0
 15 14  1  1
 15 16  1  0
 17 19  1  0
 17 15  1  0
 18 12  1  0
 17 18  1  6
 19 21  1  0
 20 19  2  0
M  END
$$$$
