GKT.pdb
     RDKit          3D

 21 20  0  0  1  0  0  0  0  0999 V2000
   25.4268  -12.3702  -15.9453 N   0  0  0  0  0  0  0  0  0  0  0  0
   24.1527  -12.2083  -15.2783 C   0  0  0  0  0  0  0  0  0  0  0  0
   23.4121  -11.0342  -15.7664 C   0  0  0  0  0  0  0  0  0  0  0  0
   23.9220  -10.3391  -16.6697 O   0  0  0  0  0  0  0  0  0  0  0  0
   22.1588  -10.6677  -15.2566 N   0  0  0  0  0  0  0  0  0  0  0  0
   21.2965   -9.6499  -15.7760 C   0  0  1  0  0  0  0  0  0  0  0  0
   19.8343   -9.9930  -15.7264 C   0  0  0  0  0  0  0  0  0  0  0  0
   19.4485  -11.1965  -16.5208 C   0  0  0  0  0  0  0  0  0  0  0  0
   18.0094  -11.5473  -16.4885 C   0  0  0  0  0  0  0  0  0  0  0  0
   17.5693  -12.7076  -17.3035 C   0  0  0  0  0  0  0  0  0  0  0  0
   16.2223  -13.1345  -17.1394 N   0  0  0  0  0  0  0  0  0  0  0  0
   21.4488   -8.3620  -15.0118 C   0  0  0  0  0  0  0  0  0  0  0  0
   21.5039   -8.3857  -13.7572 O   0  0  0  0  0  0  0  0  0  0  0  0
   22.6908   -3.5690  -14.9269 C   0  0  0  0  0  0  0  0  0  0  0  0
   22.4592   -4.8274  -15.7241 C   0  0  1  0  0  0  0  0  0  0  0  0
   23.7106   -5.3843  -15.9942 O   0  0  0  0  0  0  0  0  0  0  0  0
   21.6654   -5.8543  -14.9447 C   0  0  2  0  0  0  0  0  0  0  0  0
   21.5346   -7.0968  -15.6583 N   0  0  0  0  0  0  0  0  0  0  0  0
   20.3154   -5.3587  -14.5993 C   0  0  0  0  0  0  0  0  0  0  0  0
   19.3942   -5.4689  -15.4417 O   0  0  0  0  0  0  0  0  0  0  0  0
   20.0146   -4.7744  -13.3830 O   0  0  0  0  0  0  0  0  0  0  0  0
  2  1  1  0
  3  4  2  0
  3  2  1  0
  5  3  1  0
  6  5  1  0
  6 12  1  0
  6  7  1  1
  8  7  1  0
  9 10  1  0
  9  8  1  0
 10 11  1  0
 12 13  2  0
 15 14  1  1
 15 16  1  0
 17 19  1  0
 17 15  1  0
 18 12  1  0
 17 18  1  6
 19 21  1  0
 20 19  2  0
M  END
$$$$
