GKT.pdb
     RDKit          3D

 21 20  0  0  1  0  0  0  0  0999 V2000
   13.0407   -4.3568  -14.4423 N   0  0  0  0  0  0  0  0  0  0  0  0
   14.3267   -4.1047  -15.0564 C   0  0  0  0  0  0  0  0  0  0  0  0
   15.3572   -5.0525  -14.6036 C   0  0  0  0  0  0  0  0  0  0  0  0
   15.5434   -5.1917  -13.3768 O   0  0  0  0  0  0  0  0  0  0  0  0
   16.1356   -5.8031  -15.4956 N   0  0  0  0  0  0  0  0  0  0  0  0
   17.1532   -6.7473  -15.1459 C   0  0  1  0  0  0  0  0  0  0  0  0
   17.0037   -8.0902  -15.8035 C   0  0  0  0  0  0  0  0  0  0  0  0
   18.0059   -9.1100  -15.3747 C   0  0  0  0  0  0  0  0  0  0  0  0
   17.8615  -10.4468  -15.9969 C   0  0  0  0  0  0  0  0  0  0  0  0
   18.7626  -11.5254  -15.5182 C   0  0  0  0  0  0  0  0  0  0  0  0
   18.6574  -12.7864  -16.1681 N   0  0  0  0  0  0  0  0  0  0  0  0
   18.5196   -6.2452  -15.5289 C   0  0  0  0  0  0  0  0  0  0  0  0
   18.7021   -5.7435  -16.6657 O   0  0  0  0  0  0  0  0  0  0  0  0
   22.8268   -4.3189  -14.2642 C   0  0  0  0  0  0  0  0  0  0  0  0
   21.4421   -4.8184  -13.9390 C   0  0  1  0  0  0  0  0  0  0  0  0
   20.5877   -3.7145  -13.9552 O   0  0  0  0  0  0  0  0  0  0  0  0
   20.9351   -5.7986  -14.9755 C   0  0  2  0  0  0  0  0  0  0  0  0
   19.6333   -6.3148  -14.6451 N   0  0  0  0  0  0  0  0  0  0  0  0
   21.8651   -6.9337  -15.1598 C   0  0  0  0  0  0  0  0  0  0  0  0
   21.9111   -7.8292  -14.2844 O   0  0  0  0  0  0  0  0  0  0  0  0
   22.6944   -7.0587  -16.2588 O   0  0  0  0  0  0  0  0  0  0  0  0
  2  1  1  0
  3  4  2  0
  3  2  1  0
  5  3  1  0
  6  5  1  0
  6 12  1  0
  6  7  1  6
  8  7  1  0
  9 10  1  0
  9  8  1  0
 10 11  1  0
 12 13  2  0
 15 14  1  6
 15 16  1  0
 17 19  1  0
 17 15  1  0
 18 12  1  0
 17 18  1  1
 19 21  1  0
 20 19  2  0
M  END
$$$$
