GKT.pdb
     RDKit          3D

 21 20  0  0  1  0  0  0  0  0999 V2000
   19.8221  -14.6863  -18.9061 N   0  0  0  0  0  0  0  0  0  0  0  0
   20.4782  -14.0569  -17.7801 C   0  0  0  0  0  0  0  0  0  0  0  0
   19.9636  -12.7033  -17.5191 C   0  0  0  0  0  0  0  0  0  0  0  0
   20.1890  -11.8063  -18.3580 O   0  0  0  0  0  0  0  0  0  0  0  0
   19.2317  -12.3839  -16.3671 N   0  0  0  0  0  0  0  0  0  0  0  0
   18.6536  -11.1119  -16.0551 C   0  0  1  0  0  0  0  0  0  0  0  0
   17.4279  -11.1850  -15.1888 C   0  0  0  0  0  0  0  0  0  0  0  0
   16.3371  -12.0528  -15.7230 C   0  0  0  0  0  0  0  0  0  0  0  0
   15.1052  -12.1066  -14.9017 C   0  0  0  0  0  0  0  0  0  0  0  0
   13.9638  -12.8950  -15.4309 C   0  0  0  0  0  0  0  0  0  0  0  0
   12.7935  -12.9524  -14.6242 N   0  0  0  0  0  0  0  0  0  0  0  0
   19.6308  -10.2325  -15.3217 C   0  0  0  0  0  0  0  0  0  0  0  0
   20.0871  -10.6008  -14.2111 O   0  0  0  0  0  0  0  0  0  0  0  0
   23.0043   -9.1517  -16.4574 C   0  0  0  0  0  0  0  0  0  0  0  0
   22.2484   -7.8938  -16.1126 C   0  0  1  0  0  0  0  0  0  0  0  0
   21.7398   -7.3747  -17.3047 O   0  0  0  0  0  0  0  0  0  0  0  0
   21.0718   -8.1712  -15.2012 C   0  0  2  0  0  0  0  0  0  0  0  0
   20.0682   -8.9809  -15.8395 N   0  0  0  0  0  0  0  0  0  0  0  0
   20.4420   -6.9221  -14.7212 C   0  0  0  0  0  0  0  0  0  0  0  0
   19.2926   -6.6277  -15.1246 O   0  0  0  0  0  0  0  0  0  0  0  0
   21.0621   -6.0541  -13.8419 O   0  0  0  0  0  0  0  0  0  0  0  0
  2  1  1  0
  3  4  2  0
  3  2  1  0
  5  3  1  0
  6  5  1  0
  6 12  1  0
  6  7  1  1
  8  7  1  0
  9 10  1  0
  9  8  1  0
 10 11  1  0
 12 13  2  0
 15 14  1  6
 15 16  1  0
 17 19  1  0
 17 15  1  0
 18 12  1  0
 17 18  1  6
 19 21  1  0
 20 19  2  0
M  END
$$$$
