GKT.pdb
     RDKit          3D

 21 20  0  0  1  0  0  0  0  0999 V2000
   18.5608  -14.6684  -21.4049 N   0  0  0  0  0  0  0  0  0  0  0  0
   19.2081  -13.4077  -21.1109 C   0  0  0  0  0  0  0  0  0  0  0  0
   18.7426  -12.8232  -19.8433 C   0  0  0  0  0  0  0  0  0  0  0  0
   17.7901  -12.0162  -19.8715 O   0  0  0  0  0  0  0  0  0  0  0  0
   19.3268  -13.1374  -18.6085 N   0  0  0  0  0  0  0  0  0  0  0  0
   18.8487  -12.7409  -17.3187 C   0  0  1  0  0  0  0  0  0  0  0  0
   18.9479  -13.8093  -16.2666 C   0  0  0  0  0  0  0  0  0  0  0  0
   18.1007  -15.0126  -16.5174 C   0  0  0  0  0  0  0  0  0  0  0  0
   18.0952  -16.0251  -15.4358 C   0  0  0  0  0  0  0  0  0  0  0  0
   17.2201  -17.2113  -15.6132 C   0  0  0  0  0  0  0  0  0  0  0  0
   17.1833  -18.1485  -14.5437 N   0  0  0  0  0  0  0  0  0  0  0  0
   19.6194  -11.5613  -16.7890 C   0  0  0  0  0  0  0  0  0  0  0  0
   20.8688  -11.6319  -16.6813 O   0  0  0  0  0  0  0  0  0  0  0  0
   20.4459   -8.3917  -18.1501 C   0  0  0  0  0  0  0  0  0  0  0  0
   19.7016   -8.0551  -16.8830 C   0  0  1  0  0  0  0  0  0  0  0  0
   18.3729   -7.8100  -17.2343 O   0  0  0  0  0  0  0  0  0  0  0  0
   19.7051   -9.2069  -15.9004 C   0  0  2  0  0  0  0  0  0  0  0  0
   18.9848  -10.3487  -16.3980 N   0  0  0  0  0  0  0  0  0  0  0  0
   19.1343   -8.8159  -14.5933 C   0  0  0  0  0  0  0  0  0  0  0  0
   18.0472   -9.3222  -14.2296 O   0  0  0  0  0  0  0  0  0  0  0  0
   19.7442   -7.9117  -13.7438 O   0  0  0  0  0  0  0  0  0  0  0  0
  2  1  1  0
  3  4  2  0
  3  2  1  0
  5  3  1  0
  6  5  1  0
  6 12  1  0
  6  7  1  1
  8  7  1  0
  9 10  1  0
  9  8  1  0
 10 11  1  0
 12 13  2  0
 15 14  1  6
 15 16  1  0
 17 19  1  0
 17 15  1  0
 18 12  1  0
 17 18  1  6
 19 21  1  0
 20 19  2  0
M  END
$$$$
