GKT.pdb
     RDKit          3D

 21 20  0  0  1  0  0  0  0  0999 V2000
   16.1741   -4.0139   -6.9125 N   0  0  0  0  0  0  0  0  0  0  0  0
   16.0433   -4.1492   -8.3475 C   0  0  0  0  0  0  0  0  0  0  0  0
   16.7124   -5.3563   -8.8578 C   0  0  0  0  0  0  0  0  0  0  0  0
   17.6271   -5.8656   -8.1772 O   0  0  0  0  0  0  0  0  0  0  0  0
   16.3624   -5.9545  -10.0762 N   0  0  0  0  0  0  0  0  0  0  0  0
   16.9622   -7.1198  -10.6522 C   0  0  1  0  0  0  0  0  0  0  0  0
   15.9782   -8.1461  -11.1386 C   0  0  0  0  0  0  0  0  0  0  0  0
   15.0926   -8.7128  -10.0789 C   0  0  0  0  0  0  0  0  0  0  0  0
   14.1035   -9.7135  -10.5425 C   0  0  0  0  0  0  0  0  0  0  0  0
   13.1278  -10.2239   -9.5465 C   0  0  0  0  0  0  0  0  0  0  0  0
   12.1910  -11.1924  -10.0024 N   0  0  0  0  0  0  0  0  0  0  0  0
   17.8158   -6.7647  -11.8402 C   0  0  0  0  0  0  0  0  0  0  0  0
   17.4418   -5.8599  -12.6270 O   0  0  0  0  0  0  0  0  0  0  0  0
   21.3102   -5.3457  -12.3270 C   0  0  0  0  0  0  0  0  0  0  0  0
   21.2586   -6.7294  -12.9232 C   0  0  1  0  0  0  0  0  0  0  0  0
   21.7180   -7.6186  -11.9498 O   0  0  0  0  0  0  0  0  0  0  0  0
   19.8462   -7.1402  -13.2813 C   0  0  2  0  0  0  0  0  0  0  0  0
   19.0490   -7.4196  -12.1165 N   0  0  0  0  0  0  0  0  0  0  0  0
   19.8262   -8.3239  -14.1677 C   0  0  0  0  0  0  0  0  0  0  0  0
   19.3861   -9.4092  -13.7215 O   0  0  0  0  0  0  0  0  0  0  0  0
   20.2723   -8.2945  -15.4758 O   0  0  0  0  0  0  0  0  0  0  0  0
  2  1  1  0
  3  4  2  0
  3  2  1  0
  5  3  1  0
  6  5  1  0
  6 12  1  0
  6  7  1  6
  8  7  1  0
  9 10  1  0
  9  8  1  0
 10 11  1  0
 12 13  2  0
 15 14  1  1
 15 16  1  0
 17 19  1  0
 17 15  1  0
 18 12  1  0
 17 18  1  1
 19 21  1  0
 20 19  2  0
M  END
$$$$
