GKT.pdb
     RDKit          3D

 21 20  0  0  1  0  0  0  0  0999 V2000
   26.4825  -17.3560  -16.9506 N   0  0  0  0  0  0  0  0  0  0  0  0
   25.2609  -16.7910  -16.4188 C   0  0  0  0  0  0  0  0  0  0  0  0
   25.0441  -15.4066  -16.8680 C   0  0  0  0  0  0  0  0  0  0  0  0
   25.9357  -14.8506  -17.5425 O   0  0  0  0  0  0  0  0  0  0  0  0
   23.8771  -14.6904  -16.5677 N   0  0  0  0  0  0  0  0  0  0  0  0
   23.4982  -13.4206  -17.1095 C   0  0  1  0  0  0  0  0  0  0  0  0
   22.0941  -13.3693  -17.6424 C   0  0  0  0  0  0  0  0  0  0  0  0
   21.8182  -14.3129  -18.7657 C   0  0  0  0  0  0  0  0  0  0  0  0
   21.0347  -15.5183  -18.4080 C   0  0  0  0  0  0  0  0  0  0  0  0
   20.7254  -16.4811  -19.4951 C   0  0  0  0  0  0  0  0  0  0  0  0
   19.9686  -17.6317  -19.1386 N   0  0  0  0  0  0  0  0  0  0  0  0
   23.5904  -12.3341  -16.0717 C   0  0  0  0  0  0  0  0  0  0  0  0
   23.0778  -12.5107  -14.9388 O   0  0  0  0  0  0  0  0  0  0  0  0
   26.8597  -10.7522  -14.9495 C   0  0  0  0  0  0  0  0  0  0  0  0
   25.9048   -9.6303  -15.2694 C   0  0  1  0  0  0  0  0  0  0  0  0
   26.2222   -9.1661  -16.5472 O   0  0  0  0  0  0  0  0  0  0  0  0
   24.4667  -10.1021  -15.3034 C   0  0  2  0  0  0  0  0  0  0  0  0
   24.2435  -11.0942  -16.3212 N   0  0  0  0  0  0  0  0  0  0  0  0
   23.5254   -8.9813  -15.5158 C   0  0  0  0  0  0  0  0  0  0  0  0
   22.8639   -8.9373  -16.5792 O   0  0  0  0  0  0  0  0  0  0  0  0
   23.3361   -7.9697  -14.5927 O   0  0  0  0  0  0  0  0  0  0  0  0
  2  1  1  0
  3  4  2  0
  3  2  1  0
  5  3  1  0
  6  5  1  0
  6 12  1  0
  6  7  1  1
  8  7  1  0
  9 10  1  0
  9  8  1  0
 10 11  1  0
 12 13  2  0
 15 14  1  6
 15 16  1  0
 17 19  1  0
 17 15  1  0
 18 12  1  0
 17 18  1  6
 19 21  1  0
 20 19  2  0
M  END
$$$$
