GKT.pdb
     RDKit          3D

 21 20  0  0  1  0  0  0  0  0999 V2000
   15.3307   -9.4866  -15.0902 N   0  0  0  0  0  0  0  0  0  0  0  0
   16.2952   -8.7185  -15.8481 C   0  0  0  0  0  0  0  0  0  0  0  0
   17.6583   -8.8457  -15.3086 C   0  0  0  0  0  0  0  0  0  0  0  0
   17.8033   -8.9731  -14.0750 O   0  0  0  0  0  0  0  0  0  0  0  0
   18.7972   -8.8292  -16.1256 N   0  0  0  0  0  0  0  0  0  0  0  0
   20.1562   -8.9357  -15.6884 C   0  0  1  0  0  0  0  0  0  0  0  0
   21.0087   -9.8406  -16.5325 C   0  0  0  0  0  0  0  0  0  0  0  0
   20.3981  -11.1683  -16.8367 C   0  0  0  0  0  0  0  0  0  0  0  0
   21.2677  -12.1169  -17.5709 C   0  0  0  0  0  0  0  0  0  0  0  0
   20.6934  -13.4401  -17.9227 C   0  0  0  0  0  0  0  0  0  0  0  0
   21.5058  -14.3054  -18.7067 N   0  0  0  0  0  0  0  0  0  0  0  0
   20.8391   -7.5942  -15.6945 C   0  0  0  0  0  0  0  0  0  0  0  0
   21.3627   -7.1674  -16.7533 O   0  0  0  0  0  0  0  0  0  0  0  0
   19.5013   -4.4430  -15.7020 C   0  0  0  0  0  0  0  0  0  0  0  0
   20.4146   -4.3749  -14.5044 C   0  0  1  0  0  0  0  0  0  0  0  0
   19.6318   -4.6040  -13.3714 O   0  0  0  0  0  0  0  0  0  0  0  0
   21.4809   -5.4490  -14.5428 C   0  0  2  0  0  0  0  0  0  0  0  0
   20.9193   -6.7737  -14.5342 N   0  0  0  0  0  0  0  0  0  0  0  0
   22.4268   -5.3250  -13.4127 C   0  0  0  0  0  0  0  0  0  0  0  0
   23.1116   -4.2809  -13.3058 O   0  0  0  0  0  0  0  0  0  0  0  0
   22.5960   -6.3113  -12.4588 O   0  0  0  0  0  0  0  0  0  0  0  0
  2  1  1  0
  3  4  2  0
  3  2  1  0
  5  3  1  0
  6  5  1  0
  6 12  1  0
  6  7  1  6
  8  7  1  0
  9 10  1  0
  9  8  1  0
 10 11  1  0
 12 13  2  0
 15 14  1  6
 15 16  1  0
 17 19  1  0
 17 15  1  0
 18 12  1  0
 17 18  1  1
 19 21  1  0
 20 19  2  0
M  END
$$$$
