GKT.pdb
     RDKit          3D

 21 20  0  0  1  0  0  0  0  0999 V2000
   27.5433  -21.7085  -16.4545 N   0  0  0  0  0  0  0  0  0  0  0  0
   28.3755  -22.6220  -15.7012 C   0  0  0  0  0  0  0  0  0  0  0  0
   28.9572  -23.6753  -16.5482 C   0  0  0  0  0  0  0  0  0  0  0  0
   28.6354  -23.7183  -17.7539 O   0  0  0  0  0  0  0  0  0  0  0  0
   29.8569  -24.6297  -16.0536 N   0  0  0  0  0  0  0  0  0  0  0  0
   30.4035  -25.7361  -16.7792 C   0  0  1  0  0  0  0  0  0  0  0  0
   31.9017  -25.8355  -16.7198 C   0  0  0  0  0  0  0  0  0  0  0  0
   32.6258  -24.5916  -17.1156 C   0  0  0  0  0  0  0  0  0  0  0  0
   34.1045  -24.6793  -17.0906 C   0  0  0  0  0  0  0  0  0  0  0  0
   34.7409  -25.7447  -17.9055 C   0  0  0  0  0  0  0  0  0  0  0  0
   36.1624  -25.7962  -17.8993 N   0  0  0  0  0  0  0  0  0  0  0  0
   29.8776  -27.0460  -16.2562 C   0  0  0  0  0  0  0  0  0  0  0  0
   29.8127  -27.2403  -15.0170 O   0  0  0  0  0  0  0  0  0  0  0  0
   27.0520  -31.0140  -16.8452 C   0  0  0  0  0  0  0  0  0  0  0  0
   27.5958  -29.6910  -17.3212 C   0  0  1  0  0  0  0  0  0  0  0  0
   26.6626  -28.7108  -16.9788 O   0  0  0  0  0  0  0  0  0  0  0  0
   28.8986  -29.3344  -16.6373 C   0  0  2  0  0  0  0  0  0  0  0  0
   29.4431  -28.0923  -17.1179 N   0  0  0  0  0  0  0  0  0  0  0  0
   29.9148  -30.3961  -16.8030 C   0  0  0  0  0  0  0  0  0  0  0  0
   30.7789  -30.2745  -17.7024 O   0  0  0  0  0  0  0  0  0  0  0  0
   29.9610  -31.5268  -16.0088 O   0  0  0  0  0  0  0  0  0  0  0  0
  2  1  1  0
  3  4  2  0
  3  2  1  0
  5  3  1  0
  6  5  1  0
  6 12  1  0
  6  7  1  1
  8  7  1  0
  9 10  1  0
  9  8  1  0
 10 11  1  0
 12 13  2  0
 15 14  1  1
 15 16  1  0
 17 19  1  0
 17 15  1  0
 18 12  1  0
 17 18  1  6
 19 21  1  0
 20 19  2  0
M  END
$$$$
