GKT.pdb
     RDKit          3D

 21 20  0  0  1  0  0  0  0  0999 V2000
   25.6975  -12.3500  -16.1446 N   0  0  0  0  0  0  0  0  0  0  0  0
   24.6453  -11.9402  -15.2394 C   0  0  0  0  0  0  0  0  0  0  0  0
   23.7224  -10.9746  -15.8566 C   0  0  0  0  0  0  0  0  0  0  0  0
   23.9282  -10.6213  -17.0364 O   0  0  0  0  0  0  0  0  0  0  0  0
   22.6235  -10.4378  -15.1715 N   0  0  0  0  0  0  0  0  0  0  0  0
   21.6257   -9.5686  -15.7176 C   0  0  1  0  0  0  0  0  0  0  0  0
   20.2253  -10.1077  -15.6391 C   0  0  0  0  0  0  0  0  0  0  0  0
   19.9291  -11.2165  -16.5937 C   0  0  0  0  0  0  0  0  0  0  0  0
   18.5944  -11.8430  -16.4488 C   0  0  0  0  0  0  0  0  0  0  0  0
   18.2854  -13.0047  -17.3203 C   0  0  0  0  0  0  0  0  0  0  0  0
   17.0795  -13.7088  -17.0492 N   0  0  0  0  0  0  0  0  0  0  0  0
   21.6035   -8.2444  -15.0020 C   0  0  0  0  0  0  0  0  0  0  0  0
   21.6766   -8.2132  -13.7486 O   0  0  0  0  0  0  0  0  0  0  0  0
   22.1077   -3.2946  -15.2574 C   0  0  0  0  0  0  0  0  0  0  0  0
   21.9771   -4.6159  -15.9714 C   0  0  1  0  0  0  0  0  0  0  0  0
   23.2395   -4.9468  -16.4674 O   0  0  0  0  0  0  0  0  0  0  0  0
   21.5533   -5.7271  -15.0346 C   0  0  2  0  0  0  0  0  0  0  0  0
   21.5017   -7.0048  -15.6942 N   0  0  0  0  0  0  0  0  0  0  0  0
   20.2362   -5.4549  -14.4194 C   0  0  0  0  0  0  0  0  0  0  0  0
   19.1977   -5.6786  -15.0842 O   0  0  0  0  0  0  0  0  0  0  0  0
   20.0903   -4.9614  -13.1363 O   0  0  0  0  0  0  0  0  0  0  0  0
  2  1  1  0
  3  4  2  0
  3  2  1  0
  5  3  1  0
  6  5  1  0
  6 12  1  0
  6  7  1  1
  8  7  1  0
  9 10  1  0
  9  8  1  0
 10 11  1  0
 12 13  2  0
 15 14  1  1
 15 16  1  0
 17 19  1  0
 17 15  1  0
 18 12  1  0
 17 18  1  6
 19 21  1  0
 20 19  2  0
M  END
$$$$
