MRS.pdb
     RDKit          3D

 26 25  0  0  1  0  0  0  0  0999 V2000
   27.6700  -19.2681   -7.4293 C   0  0  0  0  0  0  0  0  0  0  0  0
   28.7892  -20.5921   -7.8866 S   0  0  0  0  0  0  0  0  0  0  0  0
   28.7414  -20.9893   -9.6452 C   0  0  0  0  0  0  0  0  0  0  0  0
   27.4483  -21.7223  -10.0134 C   0  0  0  0  0  0  0  0  0  0  0  0
   27.0650  -21.2308  -11.3882 C   0  0  2  0  0  0  0  0  0  0  0  0
   27.1962  -19.8207  -11.4342 N   0  0  0  0  0  0  0  0  0  0  0  0
   25.7081  -21.6581  -11.7945 C   0  0  0  0  0  0  0  0  0  0  0  0
   25.3681  -22.8389  -12.0059 O   0  0  0  0  0  0  0  0  0  0  0  0
   18.1209  -21.8054   -9.6171 N   0  0  0  0  0  0  0  0  0  0  0  0
   19.0803  -22.3478   -8.7125 C   0  0  0  0  0  0  0  0  0  0  0  0
   18.7775  -23.2960   -7.9018 N   0  0  0  0  0  0  0  0  0  0  0  0
   20.4004  -21.8302   -8.7012 N   0  0  0  0  0  0  0  0  0  0  0  0
   20.8621  -20.8101   -9.6186 C   0  0  0  0  0  0  0  0  0  0  0  0
   21.9272  -21.3871  -10.5209 C   0  0  0  0  0  0  0  0  0  0  0  0
   22.3800  -20.3459  -11.4943 C   0  0  0  0  0  0  0  0  0  0  0  0
   23.3974  -20.9381  -12.4352 C   0  0  2  0  0  0  0  0  0  0  0  0
   24.7149  -20.6478  -11.9575 N   0  0  0  0  0  0  0  0  0  0  0  0
   23.2124  -20.4352  -13.8258 C   0  0  0  0  0  0  0  0  0  0  0  0
   23.6039  -19.2937  -14.1638 O   0  0  0  0  0  0  0  0  0  0  0  0
   19.5476  -23.7119   -7.3215 O   0  0  0  0  0  0  0  0  0  0  0  0
   22.5595  -23.1847  -16.7397 C   0  0  0  0  0  0  0  0  0  0  0  0
   23.0529  -21.9075  -17.0476 C   0  0  1  0  0  0  0  0  0  0  0  0
   22.4010  -20.8815  -16.1343 N   0  0  0  0  0  0  0  0  0  0  0  0
   22.5746  -21.2857  -14.7745 C   0  0  0  0  0  0  0  0  0  0  0  0
   20.9669  -20.7829  -16.4563 O   0  0  0  0  0  0  0  0  0  0  0  0
   20.5826  -20.3530  -17.7113 O   0  0  0  0  0  0  0  0  0  0  0  0
  2  1  1  0
  3  4  1  0
  3  2  1  0
  4  5  1  0
  5  6  1  1
  7  5  1  0
  7  8  2  0
 10  9  1  0
 11 10  2  0
 12 10  1  0
 13 14  1  0
 13 12  1  0
 14 15  1  0
 16 15  1  1
 16 17  1  0
 17  7  1  0
 18 16  1  0
 19 18  2  0
 21 20  1  0
 22 21  1  1
 22 24  1  0
 22 23  1  0
 23 18  1  0
 24 25  1  0
 26 24  2  0
M  END
$$$$
