MRS.pdb
     RDKit          3D

 26 25  0  0  1  0  0  0  0  0999 V2000
   30.1491  -21.0815   -7.4315 C   0  0  0  0  0  0  0  0  0  0  0  0
   30.9917  -22.1177   -8.6278 S   0  0  0  0  0  0  0  0  0  0  0  0
   30.3250  -21.9652  -10.2967 C   0  0  0  0  0  0  0  0  0  0  0  0
   28.9428  -21.3060  -10.2839 C   0  0  0  0  0  0  0  0  0  0  0  0
   28.4952  -21.2431  -11.7240 C   0  0  2  0  0  0  0  0  0  0  0  0
   29.5465  -20.7220  -12.5183 N   0  0  0  0  0  0  0  0  0  0  0  0
   27.2487  -20.4674  -11.9059 C   0  0  0  0  0  0  0  0  0  0  0  0
   26.9257  -19.4718  -11.2283 O   0  0  0  0  0  0  0  0  0  0  0  0
   26.8167  -18.3131  -18.2695 N   0  0  0  0  0  0  0  0  0  0  0  0
   27.9787  -18.1624  -17.4570 C   0  0  0  0  0  0  0  0  0  0  0  0
   29.1560  -18.3711  -17.9241 N   0  0  0  0  0  0  0  0  0  0  0  0
   27.8370  -17.7760  -16.1000 N   0  0  0  0  0  0  0  0  0  0  0  0
   26.5649  -17.4338  -15.4998 C   0  0  0  0  0  0  0  0  0  0  0  0
   26.3626  -18.2508  -14.2455 C   0  0  0  0  0  0  0  0  0  0  0  0
   25.3980  -19.3607  -14.5185 C   0  0  0  0  0  0  0  0  0  0  0  0
   25.1650  -20.1528  -13.2578 C   0  0  2  0  0  0  0  0  0  0  0  0
   26.3490  -20.8869  -12.9297 N   0  0  0  0  0  0  0  0  0  0  0  0
   23.9941  -21.0645  -13.3948 C   0  0  0  0  0  0  0  0  0  0  0  0
   24.1130  -22.3042  -13.2545 O   0  0  0  0  0  0  0  0  0  0  0  0
   29.9686  -18.2922  -17.2636 O   0  0  0  0  0  0  0  0  0  0  0  0
   20.4141  -21.4555  -11.0642 C   0  0  0  0  0  0  0  0  0  0  0  0
   21.5230  -20.8092  -11.6319 C   0  0  2  0  0  0  0  0  0  0  0  0
   21.5205  -21.0312  -13.1360 N   0  0  0  0  0  0  0  0  0  0  0  0
   22.7227  -20.4942  -13.6919 C   0  0  0  0  0  0  0  0  0  0  0  0
   20.3460  -20.3656  -13.7256 O   0  0  0  0  0  0  0  0  0  0  0  0
   19.2101  -21.1055  -13.9900 O   0  0  0  0  0  0  0  0  0  0  0  0
  2  1  1  0
  3  4  1  0
  3  2  1  0
  4  5  1  0
  5  6  1  6
  7  5  1  0
  7  8  2  0
 10  9  1  0
 11 10  2  0
 12 10  1  0
 13 14  1  0
 13 12  1  0
 14 15  1  0
 16 15  1  6
 16 17  1  0
 17  7  1  0
 18 16  1  0
 19 18  2  0
 21 20  1  0
 22 21  1  1
 22 24  1  0
 22 23  1  0
 23 18  1  0
 24 25  1  0
 26 24  2  0
M  END
$$$$
