MRS.pdb
     RDKit          3D

 26 25  0  0  1  0  0  0  0  0999 V2000
   27.3318  -18.1136  -19.4332 C   0  0  0  0  0  0  0  0  0  0  0  0
   28.5913  -18.0663  -18.1580 S   0  0  0  0  0  0  0  0  0  0  0  0
   28.5456  -19.4954  -17.0586 C   0  0  0  0  0  0  0  0  0  0  0  0
   27.1105  -19.8276  -16.6401 C   0  0  0  0  0  0  0  0  0  0  0  0
   27.2121  -20.9868  -15.6787 C   0  0  2  0  0  0  0  0  0  0  0  0
   27.8043  -22.0917  -16.3390 N   0  0  0  0  0  0  0  0  0  0  0  0
   25.9101  -21.3534  -15.0795 C   0  0  0  0  0  0  0  0  0  0  0  0
   25.2522  -22.3702  -15.3759 O   0  0  0  0  0  0  0  0  0  0  0  0
   22.7889  -19.8566   -9.0280 N   0  0  0  0  0  0  0  0  0  0  0  0
   23.6540  -20.9643   -8.7879 C   0  0  0  0  0  0  0  0  0  0  0  0
   23.3118  -21.9272   -8.0110 N   0  0  0  0  0  0  0  0  0  0  0  0
   24.9243  -21.0078   -9.4166 N   0  0  0  0  0  0  0  0  0  0  0  0
   25.4921  -19.8895  -10.1394 C   0  0  0  0  0  0  0  0  0  0  0  0
   25.4849  -20.1893  -11.6198 C   0  0  0  0  0  0  0  0  0  0  0  0
   24.0995  -20.5488  -12.0535 C   0  0  0  0  0  0  0  0  0  0  0  0
   24.0494  -20.6571  -13.5558 C   0  0  2  0  0  0  0  0  0  0  0  0
   25.3651  -20.4817  -14.0910 N   0  0  0  0  0  0  0  0  0  0  0  0
   23.0999  -19.6697  -14.1427 C   0  0  0  0  0  0  0  0  0  0  0  0
   23.5079  -18.6197  -14.6917 O   0  0  0  0  0  0  0  0  0  0  0  0
   23.9948  -22.7124   -7.8701 O   0  0  0  0  0  0  0  0  0  0  0  0
   20.7570  -18.6272  -17.3142 C   0  0  0  0  0  0  0  0  0  0  0  0
   21.6207  -18.9617  -16.2599 C   0  0  1  0  0  0  0  0  0  0  0  0
   20.8169  -19.5776  -15.1256 N   0  0  0  0  0  0  0  0  0  0  0  0
   21.7039  -19.9447  -14.0669 C   0  0  0  0  0  0  0  0  0  0  0  0
   20.1007  -20.7646  -15.6236 O   0  0  0  0  0  0  0  0  0  0  0  0
   18.9445  -20.5982  -16.3606 O   0  0  0  0  0  0  0  0  0  0  0  0
  2  1  1  0
  3  4  1  0
  3  2  1  0
  4  5  1  0
  5  6  1  6
  7  5  1  0
  7  8  2  0
 10  9  1  0
 11 10  2  0
 12 10  1  0
 13 14  1  0
 13 12  1  0
 14 15  1  0
 16 15  1  1
 16 17  1  0
 17  7  1  0
 18 16  1  0
 19 18  2  0
 21 20  1  0
 22 21  1  1
 22 24  1  0
 22 23  1  0
 23 18  1  0
 24 25  1  0
 26 24  2  0
M  END
$$$$
