MRS.pdb
     RDKit          3D

 26 25  0  0  1  0  0  0  0  0999 V2000
   30.1303  -11.8885  -18.6570 C   0  0  0  0  0  0  0  0  0  0  0  0
   29.4691  -13.0741  -17.4857 S   0  0  0  0  0  0  0  0  0  0  0  0
   28.3128  -12.3442  -16.3096 C   0  0  0  0  0  0  0  0  0  0  0  0
   27.3169  -11.4177  -17.0131 C   0  0  0  0  0  0  0  0  0  0  0  0
   26.4685  -10.8094  -15.9230 C   0  0  2  0  0  0  0  0  0  0  0  0
   25.7373  -11.8341  -15.2725 N   0  0  0  0  0  0  0  0  0  0  0  0
   25.5725   -9.7418  -16.4191 C   0  0  0  0  0  0  0  0  0  0  0  0
   25.9540   -8.7063  -16.9997 O   0  0  0  0  0  0  0  0  0  0  0  0
   17.9414  -12.7168  -16.6417 N   0  0  0  0  0  0  0  0  0  0  0  0
   18.8171  -12.2968  -15.5978 C   0  0  0  0  0  0  0  0  0  0  0  0
   18.5081  -12.4478  -14.3610 N   0  0  0  0  0  0  0  0  0  0  0  0
   20.0583  -11.6952  -15.9268 N   0  0  0  0  0  0  0  0  0  0  0  0
   20.5293  -11.5373  -17.2864 C   0  0  0  0  0  0  0  0  0  0  0  0
   21.9073  -10.9188  -17.2746 C   0  0  0  0  0  0  0  0  0  0  0  0
   21.8400   -9.5521  -16.6710 C   0  0  0  0  0  0  0  0  0  0  0  0
   23.2146   -8.9344  -16.6574 C   0  0  2  0  0  0  0  0  0  0  0  0
   24.1700   -9.9060  -16.2197 N   0  0  0  0  0  0  0  0  0  0  0  0
   23.2582   -7.7191  -15.7959 C   0  0  0  0  0  0  0  0  0  0  0  0
   23.2059   -7.8033  -14.5466 O   0  0  0  0  0  0  0  0  0  0  0  0
   19.2038  -12.1370  -13.6384 O   0  0  0  0  0  0  0  0  0  0  0  0
   23.7373   -2.8839  -15.8350 C   0  0  0  0  0  0  0  0  0  0  0  0
   23.6485   -4.0636  -16.5900 C   0  0  2  0  0  0  0  0  0  0  0  0
   23.3929   -5.2392  -15.6602 N   0  0  0  0  0  0  0  0  0  0  0  0
   23.3614   -6.4455  -16.4261 C   0  0  0  0  0  0  0  0  0  0  0  0
   22.1077   -5.0430  -14.9675 O   0  0  0  0  0  0  0  0  0  0  0  0
   22.0823   -4.3578  -13.7686 O   0  0  0  0  0  0  0  0  0  0  0  0
  2  1  1  0
  3  4  1  0
  3  2  1  0
  4  5  1  0
  5  6  1  6
  7  5  1  0
  7  8  2  0
 10  9  1  0
 11 10  2  0
 12 10  1  0
 13 14  1  0
 13 12  1  0
 14 15  1  0
 16 15  1  1
 16 17  1  0
 17  7  1  0
 18 16  1  0
 19 18  2  0
 21 20  1  0
 22 21  1  1
 22 24  1  0
 22 23  1  0
 23 18  1  0
 24 25  1  0
 26 24  2  0
M  END
$$$$
