MRS.pdb
     RDKit          3D

 26 25  0  0  1  0  0  0  0  0999 V2000
   26.3738  -29.7601  -18.3759 C   0  0  0  0  0  0  0  0  0  0  0  0
   27.6028  -28.9823  -19.4245 S   0  0  0  0  0  0  0  0  0  0  0  0
   28.0444  -27.3174  -18.8897 C   0  0  0  0  0  0  0  0  0  0  0  0
   27.2885  -26.9248  -17.6171 C   0  0  0  0  0  0  0  0  0  0  0  0
   27.7296  -25.5201  -17.2843 C   0  0  2  0  0  0  0  0  0  0  0  0
   28.7168  -25.5681  -16.2689 N   0  0  0  0  0  0  0  0  0  0  0  0
   26.6048  -24.6396  -16.8994 C   0  0  0  0  0  0  0  0  0  0  0  0
   25.6151  -24.3956  -17.6174 O   0  0  0  0  0  0  0  0  0  0  0  0
   24.8731  -20.5443   -9.0342 N   0  0  0  0  0  0  0  0  0  0  0  0
   23.7237  -20.4691   -9.8745 C   0  0  0  0  0  0  0  0  0  0  0  0
   22.6166  -19.9730   -9.4548 N   0  0  0  0  0  0  0  0  0  0  0  0
   23.7979  -20.9543  -11.2049 N   0  0  0  0  0  0  0  0  0  0  0  0
   24.9153  -21.7243  -11.7089 C   0  0  0  0  0  0  0  0  0  0  0  0
   24.7131  -22.0041  -13.1794 C   0  0  0  0  0  0  0  0  0  0  0  0
   25.8502  -22.8270  -13.6958 C   0  0  0  0  0  0  0  0  0  0  0  0
   25.6444  -23.1157  -15.1605 C   0  0  2  0  0  0  0  0  0  0  0  0
   26.6538  -24.0232  -15.6143 N   0  0  0  0  0  0  0  0  0  0  0  0
   25.6509  -21.8642  -15.9695 C   0  0  0  0  0  0  0  0  0  0  0  0
   26.6942  -21.1843  -16.1104 O   0  0  0  0  0  0  0  0  0  0  0  0
   21.8107  -19.9297  -10.1266 O   0  0  0  0  0  0  0  0  0  0  0  0
   25.0172  -21.2948  -19.3782 C   0  0  0  0  0  0  0  0  0  0  0  0
   23.9801  -20.5659  -18.7760 C   0  0  2  0  0  0  0  0  0  0  0  0
   24.3612  -20.2386  -17.3409 N   0  0  0  0  0  0  0  0  0  0  0  0
   24.4352  -21.4503  -16.5866 C   0  0  0  0  0  0  0  0  0  0  0  0
   23.3493  -19.3392  -16.7604 O   0  0  0  0  0  0  0  0  0  0  0  0
   23.1479  -18.0938  -17.3224 O   0  0  0  0  0  0  0  0  0  0  0  0
  2  1  1  0
  3  4  1  0
  3  2  1  0
  4  5  1  0
  5  6  1  1
  7  5  1  0
  7  8  2  0
 10  9  1  0
 11 10  2  0
 12 10  1  0
 13 14  1  0
 13 12  1  0
 14 15  1  0
 16 15  1  1
 16 17  1  0
 17  7  1  0
 18 16  1  0
 19 18  2  0
 21 20  1  0
 22 21  1  6
 22 24  1  0
 22 23  1  0
 23 18  1  0
 24 25  1  0
 26 24  2  0
M  END
$$$$
