MRS.pdb
     RDKit          3D

 26 25  0  0  1  0  0  0  0  0999 V2000
   12.7965  -13.9461  -13.4306 C   0  0  0  0  0  0  0  0  0  0  0  0
   12.2574  -12.8301  -14.7263 S   0  0  0  0  0  0  0  0  0  0  0  0
   13.4950  -11.5919  -15.1602 C   0  0  0  0  0  0  0  0  0  0  0  0
   14.1378  -10.9877  -13.9084 C   0  0  0  0  0  0  0  0  0  0  0  0
   15.1256   -9.9578  -14.4002 C   0  0  2  0  0  0  0  0  0  0  0  0
   16.4303  -10.5095  -14.3707 N   0  0  0  0  0  0  0  0  0  0  0  0
   15.0608   -8.6897  -13.6409 C   0  0  0  0  0  0  0  0  0  0  0  0
   14.0527   -7.9605  -13.5595 O   0  0  0  0  0  0  0  0  0  0  0  0
   21.8529   -6.4245   -9.2037 N   0  0  0  0  0  0  0  0  0  0  0  0
   21.3923   -5.7717  -10.3847 C   0  0  0  0  0  0  0  0  0  0  0  0
   22.1874   -5.0940  -11.1306 N   0  0  0  0  0  0  0  0  0  0  0  0
   20.0249   -5.8672  -10.7476 N   0  0  0  0  0  0  0  0  0  0  0  0
   18.9402   -5.7553   -9.7956 C   0  0  0  0  0  0  0  0  0  0  0  0
   17.6193   -5.8196  -10.5254 C   0  0  0  0  0  0  0  0  0  0  0  0
   17.5834   -7.0363  -11.3943 C   0  0  0  0  0  0  0  0  0  0  0  0
   16.2523   -7.1208  -12.0957 C   0  0  2  0  0  0  0  0  0  0  0  0
   16.2358   -8.2680  -12.9514 N   0  0  0  0  0  0  0  0  0  0  0  0
   15.9612   -5.8783  -12.8653 C   0  0  0  0  0  0  0  0  0  0  0  0
   16.5248   -5.6420  -13.9595 O   0  0  0  0  0  0  0  0  0  0  0  0
   21.8112   -4.7163  -12.0354 O   0  0  0  0  0  0  0  0  0  0  0  0
   12.7720   -3.7315  -11.5991 C   0  0  0  0  0  0  0  0  0  0  0  0
   13.1952   -3.5025  -12.9174 C   0  0  1  0  0  0  0  0  0  0  0  0
   14.6933   -3.7436  -13.0151 N   0  0  0  0  0  0  0  0  0  0  0  0
   15.0200   -4.9534  -12.3279 C   0  0  0  0  0  0  0  0  0  0  0  0
   15.4108   -2.6069  -12.4126 O   0  0  0  0  0  0  0  0  0  0  0  0
   15.2495   -1.3439  -12.9477 O   0  0  0  0  0  0  0  0  0  0  0  0
  2  1  1  0
  3  4  1  0
  3  2  1  0
  4  5  1  0
  5  6  1  1
  7  5  1  0
  7  8  2  0
 10  9  1  0
 11 10  2  0
 12 10  1  0
 13 14  1  0
 13 12  1  0
 14 15  1  0
 16 15  1  6
 16 17  1  0
 17  7  1  0
 18 16  1  0
 19 18  2  0
 21 20  1  0
 22 21  1  6
 22 24  1  0
 22 23  1  0
 23 18  1  0
 24 25  1  0
 26 24  2  0
M  END
$$$$
