MRS.pdb
     RDKit          3D

 26 25  0  0  1  0  0  0  0  0999 V2000
   31.2995  -23.3617   -8.6005 C   0  0  0  0  0  0  0  0  0  0  0  0
   32.2672  -22.2944   -9.6679 S   0  0  0  0  0  0  0  0  0  0  0  0
   31.2608  -21.3317  -10.8139 C   0  0  0  0  0  0  0  0  0  0  0  0
   29.8089  -21.8184  -10.8208 C   0  0  0  0  0  0  0  0  0  0  0  0
   29.1138  -21.0476  -11.9167 C   0  0  2  0  0  0  0  0  0  0  0  0
   29.2075  -19.6602  -11.6446 N   0  0  0  0  0  0  0  0  0  0  0  0
   27.7073  -21.4638  -12.1100 C   0  0  0  0  0  0  0  0  0  0  0  0
   27.3492  -22.5482  -12.6104 O   0  0  0  0  0  0  0  0  0  0  0  0
   20.0420  -21.8004   -9.5600 N   0  0  0  0  0  0  0  0  0  0  0  0
   21.0727  -21.7597   -8.5756 C   0  0  0  0  0  0  0  0  0  0  0  0
   21.0243  -22.4919   -7.5223 N   0  0  0  0  0  0  0  0  0  0  0  0
   22.1782  -20.8904   -8.7571 N   0  0  0  0  0  0  0  0  0  0  0  0
   22.2524  -19.9103   -9.8199 C   0  0  0  0  0  0  0  0  0  0  0  0
   23.0424  -20.4776  -10.9755 C   0  0  0  0  0  0  0  0  0  0  0  0
   24.5026  -20.2493  -10.7468 C   0  0  0  0  0  0  0  0  0  0  0  0
   25.2936  -20.8373  -11.8869 C   0  0  2  0  0  0  0  0  0  0  0  0
   26.6847  -20.5606  -11.6952 N   0  0  0  0  0  0  0  0  0  0  0  0
   24.8237  -20.3176  -13.2022 C   0  0  0  0  0  0  0  0  0  0  0  0
   24.8485  -19.0927  -13.4659 O   0  0  0  0  0  0  0  0  0  0  0  0
   21.8018  -22.3994   -6.8225 O   0  0  0  0  0  0  0  0  0  0  0  0
   23.6036  -21.5660  -17.7058 C   0  0  0  0  0  0  0  0  0  0  0  0
   24.0251  -21.9826  -16.4336 C   0  0  2  0  0  0  0  0  0  0  0  0
   23.9051  -20.8227  -15.4578 N   0  0  0  0  0  0  0  0  0  0  0  0
   24.3399  -21.2498  -14.1651 C   0  0  0  0  0  0  0  0  0  0  0  0
   22.5025  -20.3762  -15.4007 O   0  0  0  0  0  0  0  0  0  0  0  0
   22.0746  -19.3771  -16.2529 O   0  0  0  0  0  0  0  0  0  0  0  0
  2  1  1  0
  3  4  1  0
  3  2  1  0
  4  5  1  0
  5  6  1  1
  7  5  1  0
  7  8  2  0
 10  9  1  0
 11 10  2  0
 12 10  1  0
 13 14  1  0
 13 12  1  0
 14 15  1  0
 16 15  1  1
 16 17  1  0
 17  7  1  0
 18 16  1  0
 19 18  2  0
 21 20  1  0
 22 21  1  6
 22 24  1  0
 22 23  1  0
 23 18  1  0
 24 25  1  0
 26 24  2  0
M  END
$$$$
