MRS.pdb
     RDKit          3D

 26 25  0  0  1  0  0  0  0  0999 V2000
   28.5372  -13.4194  -14.7873 C   0  0  0  0  0  0  0  0  0  0  0  0
   27.6264  -11.9424  -15.2386 S   0  0  0  0  0  0  0  0  0  0  0  0
   25.9415  -12.2836  -15.7840 C   0  0  0  0  0  0  0  0  0  0  0  0
   25.1573  -10.9873  -16.0069 C   0  0  0  0  0  0  0  0  0  0  0  0
   23.7826  -11.4037  -16.4708 C   0  0  2  0  0  0  0  0  0  0  0  0
   23.8981  -12.1337  -17.6797 N   0  0  0  0  0  0  0  0  0  0  0  0
   22.8547  -10.2610  -16.6194 C   0  0  0  0  0  0  0  0  0  0  0  0
   22.7352   -9.5719  -17.6517 O   0  0  0  0  0  0  0  0  0  0  0  0
   14.4358   -9.6358  -14.6245 N   0  0  0  0  0  0  0  0  0  0  0  0
   14.8462   -8.4023  -15.2101 C   0  0  0  0  0  0  0  0  0  0  0  0
   13.9915   -7.5397  -15.6264 N   0  0  0  0  0  0  0  0  0  0  0  0
   16.2290   -8.1170  -15.3412 N   0  0  0  0  0  0  0  0  0  0  0  0
   17.2670   -9.1059  -15.1410 C   0  0  0  0  0  0  0  0  0  0  0  0
   18.6180   -8.4764  -15.3863 C   0  0  0  0  0  0  0  0  0  0  0  0
   19.6902   -9.5057  -15.2197 C   0  0  0  0  0  0  0  0  0  0  0  0
   21.0279   -8.9073  -15.5712 C   0  0  2  0  0  0  0  0  0  0  0  0
   22.0367   -9.9203  -15.5021 N   0  0  0  0  0  0  0  0  0  0  0  0
   21.3634   -7.7602  -14.6810 C   0  0  0  0  0  0  0  0  0  0  0  0
   21.9232   -7.9362  -13.5737 O   0  0  0  0  0  0  0  0  0  0  0  0
   14.3550   -6.6756  -16.0996 O   0  0  0  0  0  0  0  0  0  0  0  0
   23.0752   -3.6433  -14.0429 C   0  0  0  0  0  0  0  0  0  0  0  0
   22.7157   -4.7535  -14.8224 C   0  0  2  0  0  0  0  0  0  0  0  0
   21.3796   -5.2963  -14.3408 N   0  0  0  0  0  0  0  0  0  0  0  0
   21.0320   -6.4449  -15.1171 C   0  0  0  0  0  0  0  0  0  0  0  0
   20.3487   -4.2540  -14.4853 O   0  0  0  0  0  0  0  0  0  0  0  0
   20.2513   -3.2609  -13.5304 O   0  0  0  0  0  0  0  0  0  0  0  0
  2  1  1  0
  3  4  1  0
  3  2  1  0
  4  5  1  0
  5  6  1  6
  7  5  1  0
  7  8  2  0
 10  9  1  0
 11 10  2  0
 12 10  1  0
 13 14  1  0
 13 12  1  0
 14 15  1  0
 16 15  1  1
 16 17  1  0
 17  7  1  0
 18 16  1  0
 19 18  2  0
 21 20  1  0
 22 21  1  1
 22 24  1  0
 22 23  1  0
 23 18  1  0
 24 25  1  0
 26 24  2  0
M  END
$$$$
