MRS.pdb
     RDKit          3D

 26 25  0  0  1  0  0  0  0  0999 V2000
   27.5951  -17.5840   -3.2667 C   0  0  0  0  0  0  0  0  0  0  0  0
   27.5277  -19.3744   -3.1981 S   0  0  0  0  0  0  0  0  0  0  0  0
   28.2101  -20.1695   -4.6661 C   0  0  0  0  0  0  0  0  0  0  0  0
   27.5935  -19.5956   -5.9451 C   0  0  0  0  0  0  0  0  0  0  0  0
   28.2287  -20.3466   -7.0900 C   0  0  2  0  0  0  0  0  0  0  0  0
   29.6314  -20.1486   -7.0582 N   0  0  0  0  0  0  0  0  0  0  0  0
   27.6632  -19.9757   -8.4057 C   0  0  0  0  0  0  0  0  0  0  0  0
   27.5523  -18.8079   -8.8283 O   0  0  0  0  0  0  0  0  0  0  0  0
   31.6500  -23.3402  -10.6322 N   0  0  0  0  0  0  0  0  0  0  0  0
   32.0512  -22.6543  -11.8161 C   0  0  0  0  0  0  0  0  0  0  0  0
   33.2757  -22.6401  -12.2013 N   0  0  0  0  0  0  0  0  0  0  0  0
   31.0804  -21.9679  -12.5888 N   0  0  0  0  0  0  0  0  0  0  0  0
   29.6699  -22.2925  -12.5635 C   0  0  0  0  0  0  0  0  0  0  0  0
   28.9597  -21.3817  -11.5901 C   0  0  0  0  0  0  0  0  0  0  0  0
   27.5112  -21.7479  -11.5237 C   0  0  0  0  0  0  0  0  0  0  0  0
   26.7888  -20.7988  -10.6027 C   0  0  2  0  0  0  0  0  0  0  0  0
   27.2104  -21.0286   -9.2544 N   0  0  0  0  0  0  0  0  0  0  0  0
   25.3102  -20.9355  -10.7287 C   0  0  0  0  0  0  0  0  0  0  0  0
   24.6906  -21.8655  -10.1614 O   0  0  0  0  0  0  0  0  0  0  0  0
   33.5142  -22.0884  -13.0624 O   0  0  0  0  0  0  0  0  0  0  0  0
   21.3952  -19.1444  -12.9894 C   0  0  0  0  0  0  0  0  0  0  0  0
   22.7546  -18.9812  -12.6813 C   0  0  1  0  0  0  0  0  0  0  0  0
   23.2201  -20.1456  -11.8215 N   0  0  0  0  0  0  0  0  0  0  0  0
   24.6061  -19.9787  -11.5154 C   0  0  0  0  0  0  0  0  0  0  0  0
   23.0091  -21.4069  -12.5527 O   0  0  0  0  0  0  0  0  0  0  0  0
   21.8322  -22.1065  -12.3707 O   0  0  0  0  0  0  0  0  0  0  0  0
  2  1  1  0
  3  4  1  0
  3  2  1  0
  4  5  1  0
  5  6  1  6
  7  5  1  0
  7  8  2  0
 10  9  1  0
 11 10  2  0
 12 10  1  0
 13 14  1  0
 13 12  1  0
 14 15  1  0
 16 15  1  6
 16 17  1  0
 17  7  1  0
 18 16  1  0
 19 18  2  0
 21 20  1  0
 22 21  1  1
 22 24  1  0
 22 23  1  0
 23 18  1  0
 24 25  1  0
 26 24  2  0
M  END
$$$$
