MRS.pdb
     RDKit          3D

 26 25  0  0  1  0  0  0  0  0999 V2000
   27.2250  -19.0176  -15.2140 C   0  0  0  0  0  0  0  0  0  0  0  0
   27.9538  -19.3434  -13.6085 S   0  0  0  0  0  0  0  0  0  0  0  0
   27.2462  -20.7830  -12.7841 C   0  0  0  0  0  0  0  0  0  0  0  0
   26.0662  -21.3521  -13.5770 C   0  0  0  0  0  0  0  0  0  0  0  0
   24.8215  -20.7730  -12.9496 C   0  0  2  0  0  0  0  0  0  0  0  0
   24.6536  -21.3196  -11.6531 N   0  0  0  0  0  0  0  0  0  0  0  0
   23.6125  -20.9737  -13.7782 C   0  0  0  0  0  0  0  0  0  0  0  0
   23.4990  -20.6181  -14.9679 O   0  0  0  0  0  0  0  0  0  0  0  0
   19.5178  -26.4757  -10.0488 N   0  0  0  0  0  0  0  0  0  0  0  0
   19.2666  -25.0721  -10.0483 C   0  0  0  0  0  0  0  0  0  0  0  0
   18.9752  -24.4427   -8.9681 N   0  0  0  0  0  0  0  0  0  0  0  0
   19.3361  -24.3495  -11.2664 N   0  0  0  0  0  0  0  0  0  0  0  0
   19.6531  -24.9642  -12.5382 C   0  0  0  0  0  0  0  0  0  0  0  0
   20.6357  -24.0956  -13.2876 C   0  0  0  0  0  0  0  0  0  0  0  0
   20.3336  -22.6543  -13.0271 C   0  0  0  0  0  0  0  0  0  0  0  0
   21.2456  -21.7862  -13.8552 C   0  0  2  0  0  0  0  0  0  0  0  0
   22.4937  -21.6201  -13.1748 N   0  0  0  0  0  0  0  0  0  0  0  0
   20.6211  -20.4660  -14.1520 C   0  0  0  0  0  0  0  0  0  0  0  0
   20.7023  -19.5103  -13.3454 O   0  0  0  0  0  0  0  0  0  0  0  0
   18.7191  -23.4271   -9.0442 O   0  0  0  0  0  0  0  0  0  0  0  0
   18.4350  -17.8070  -17.5529 C   0  0  0  0  0  0  0  0  0  0  0  0
   19.0402  -19.0280  -17.2177 C   0  0  2  0  0  0  0  0  0  0  0  0
   19.2715  -19.0805  -15.7158 N   0  0  0  0  0  0  0  0  0  0  0  0
   19.9221  -20.3089  -15.3835 C   0  0  0  0  0  0  0  0  0  0  0  0
   17.9770  -18.9860  -15.0191 O   0  0  0  0  0  0  0  0  0  0  0  0
   17.4750  -17.7425  -14.6886 O   0  0  0  0  0  0  0  0  0  0  0  0
  2  1  1  0
  3  4  1  0
  3  2  1  0
  4  5  1  0
  5  6  1  1
  7  5  1  0
  7  8  2  0
 10  9  1  0
 11 10  2  0
 12 10  1  0
 13 14  1  0
 13 12  1  0
 14 15  1  0
 16 15  1  1
 16 17  1  0
 17  7  1  0
 18 16  1  0
 19 18  2  0
 21 20  1  0
 22 21  1  6
 22 24  1  0
 22 23  1  0
 23 18  1  0
 24 25  1  0
 26 24  2  0
M  END
$$$$
