MRS.pdb
     RDKit          3D

 26 25  0  0  1  0  0  0  0  0999 V2000
   18.3114  -17.8904  -14.5804 C   0  0  0  0  0  0  0  0  0  0  0  0
   17.9033  -19.4827  -15.2966 S   0  0  0  0  0  0  0  0  0  0  0  0
   19.3508  -20.5055  -15.6302 C   0  0  0  0  0  0  0  0  0  0  0  0
   20.6428  -19.6904  -15.5227 C   0  0  0  0  0  0  0  0  0  0  0  0
   21.7266  -20.5393  -16.1417 C   0  0  2  0  0  0  0  0  0  0  0  0
   21.8397  -21.7531  -15.4194 N   0  0  0  0  0  0  0  0  0  0  0  0
   23.0277  -19.8404  -16.2255 C   0  0  0  0  0  0  0  0  0  0  0  0
   23.1725  -18.6430  -16.5418 O   0  0  0  0  0  0  0  0  0  0  0  0
   25.1500  -20.3889   -9.9590 N   0  0  0  0  0  0  0  0  0  0  0  0
   26.0051  -20.9247  -10.9664 C   0  0  0  0  0  0  0  0  0  0  0  0
   25.8754  -22.1313  -11.3848 N   0  0  0  0  0  0  0  0  0  0  0  0
   27.0262  -20.1118  -11.5208 N   0  0  0  0  0  0  0  0  0  0  0  0
   27.5843  -20.3257  -12.8392 C   0  0  0  0  0  0  0  0  0  0  0  0
   26.6931  -19.6820  -13.8751 C   0  0  0  0  0  0  0  0  0  0  0  0
   26.4037  -20.6611  -14.9679 C   0  0  0  0  0  0  0  0  0  0  0  0
   25.5150  -20.0199  -16.0025 C   0  0  2  0  0  0  0  0  0  0  0  0
   24.2038  -20.5882  -15.9235 N   0  0  0  0  0  0  0  0  0  0  0  0
   26.0785  -20.1694  -17.3740 C   0  0  0  0  0  0  0  0  0  0  0  0
   26.1516  -21.2900  -17.9302 O   0  0  0  0  0  0  0  0  0  0  0  0
   26.5319  -22.4659  -12.1331 O   0  0  0  0  0  0  0  0  0  0  0  0
   25.7374  -18.1531  -21.1091 C   0  0  0  0  0  0  0  0  0  0  0  0
   26.6951  -17.8220  -20.1382 C   0  0  2  0  0  0  0  0  0  0  0  0
   27.0848  -19.0732  -19.3671 N   0  0  0  0  0  0  0  0  0  0  0  0
   26.5379  -19.0015  -18.0486 C   0  0  0  0  0  0  0  0  0  0  0  0
   28.5533  -19.1699  -19.3039 O   0  0  0  0  0  0  0  0  0  0  0  0
   29.2166  -19.9931  -20.1926 O   0  0  0  0  0  0  0  0  0  0  0  0
  2  1  1  0
  3  4  1  0
  3  2  1  0
  4  5  1  0
  5  6  1  1
  7  5  1  0
  7  8  2  0
 10  9  1  0
 11 10  2  0
 12 10  1  0
 13 14  1  0
 13 12  1  0
 14 15  1  0
 16 15  1  1
 16 17  1  0
 17  7  1  0
 18 16  1  0
 19 18  2  0
 21 20  1  0
 22 21  1  6
 22 24  1  0
 22 23  1  0
 23 18  1  0
 24 25  1  0
 26 24  2  0
M  END
$$$$
