CLH.pdb
     RDKit          3D

 25 25  0  0  1  0  0  0  0  0999 V2000
   19.4347  -15.1324  -16.9660 N   0  0  0  0  0  0  0  0  0  0  0  0
   20.0533  -14.0345  -17.6340 C   0  0  1  0  0  0  0  0  0  0  0  0
   19.0749  -13.4178  -18.6031 C   0  0  0  0  0  0  0  0  0  0  0  0
   17.5651  -13.0033  -17.6958 S   0  0  0  0  0  0  0  0  0  0  0  0
   20.5399  -12.9799  -16.7222 C   0  0  0  0  0  0  0  0  0  0  0  0
   20.0096  -12.9154  -15.5804 O   0  0  0  0  0  0  0  0  0  0  0  0
   23.5876  -10.1263  -13.5871 C   0  0  0  0  0  0  0  0  0  0  0  0
   24.0480  -10.0771  -15.0418 C   0  0  1  0  0  0  0  0  0  0  0  0
   25.5492  -10.2828  -15.0169 C   0  0  0  0  0  0  0  0  0  0  0  0
   23.3914  -11.1513  -15.8438 C   0  0  0  0  0  0  0  0  0  0  0  0
   21.9554  -10.9799  -16.1172 C   0  0  2  0  0  0  0  0  0  0  0  0
   21.5443  -12.0484  -17.0308 N   0  0  0  0  0  0  0  0  0  0  0  0
   21.5317   -9.6778  -16.6149 C   0  0  0  0  0  0  0  0  0  0  0  0
   22.0314   -9.2010  -17.6524 O   0  0  0  0  0  0  0  0  0  0  0  0
   20.5527   -8.9307  -15.9393 N   0  0  0  0  0  0  0  0  0  0  0  0
   20.0657   -7.6066  -16.3458 C   0  0  1  0  0  0  0  0  0  0  0  0
   18.7301   -7.3092  -15.7513 C   0  0  0  0  0  0  0  0  0  0  0  0
   18.3138   -5.9344  -16.0810 C   0  0  0  0  0  0  0  0  0  0  0  0
   18.6805   -4.7103  -15.6005 C   0  0  0  0  0  0  0  0  0  0  0  0
   18.0414   -3.7427  -16.2911 N   0  0  0  0  0  0  0  0  0  0  0  0
   17.2700   -4.3326  -17.2098 C   0  0  0  0  0  0  0  0  0  0  0  0
   17.4291   -5.6418  -17.0889 N   0  0  0  0  0  0  0  0  0  0  0  0
   21.0428   -6.6650  -15.6724 C   0  0  0  0  0  0  0  0  0  0  0  0
   21.5399   -6.8163  -14.4126 O   0  0  0  0  0  0  0  0  0  0  0  0
   21.4165   -5.6583  -16.3628 O   0  0  0  0  0  0  0  0  0  0  0  0
  2  1  1  1
  3  2  1  0
  3  4  1  0
  5  6  2  0
  5  2  1  0
  8  7  1  1
  8 10  1  0
  9  8  1  0
 11 10  1  6
 11 13  1  0
 11 12  1  0
 12  5  1  0
 13 14  2  0
 15 13  1  0
 15 16  1  0
 16 17  1  1
 17 18  1  0
 18 22  1  0
 19 18  2  0
 19 20  1  0
 20 21  1  0
 22 21  2  0
 23 16  1  0
 24 23  1  0
 25 23  2  0
M  END
$$$$
