CLH.pdb
     RDKit          3D

 25 25  0  0  1  0  0  0  0  0999 V2000
   28.1307  -22.2042  -16.3614 N   0  0  0  0  0  0  0  0  0  0  0  0
   27.5080  -21.0677  -15.7655 C   0  0  1  0  0  0  0  0  0  0  0  0
   26.8191  -20.2530  -16.8325 C   0  0  0  0  0  0  0  0  0  0  0  0
   28.0897  -19.4456  -17.8365 S   0  0  0  0  0  0  0  0  0  0  0  0
   26.5199  -21.4081  -14.7225 C   0  0  0  0  0  0  0  0  0  0  0  0
   25.7301  -22.3600  -14.9655 O   0  0  0  0  0  0  0  0  0  0  0  0
   25.7870  -20.4975   -8.6844 C   0  0  0  0  0  0  0  0  0  0  0  0
   25.1574  -21.0721   -9.9510 C   0  0  1  0  0  0  0  0  0  0  0  0
   23.7866  -20.4366  -10.0670 C   0  0  0  0  0  0  0  0  0  0  0  0
   25.9832  -20.7447  -11.1507 C   0  0  0  0  0  0  0  0  0  0  0  0
   25.4423  -21.1656  -12.4532 C   0  0  2  0  0  0  0  0  0  0  0  0
   26.3952  -20.7536  -13.4864 N   0  0  0  0  0  0  0  0  0  0  0  0
   24.0944  -20.7198  -12.7805 C   0  0  0  0  0  0  0  0  0  0  0  0
   23.8390  -19.5061  -12.9030 O   0  0  0  0  0  0  0  0  0  0  0  0
   23.0535  -21.6445  -12.9654 N   0  0  0  0  0  0  0  0  0  0  0  0
   21.7707  -21.3581  -13.6196 C   0  0  1  0  0  0  0  0  0  0  0  0
   21.0666  -22.6124  -14.0152 C   0  0  0  0  0  0  0  0  0  0  0  0
   19.7669  -22.3001  -14.6361 C   0  0  0  0  0  0  0  0  0  0  0  0
   19.1094  -21.1289  -14.8801 C   0  0  0  0  0  0  0  0  0  0  0  0
   17.9597  -21.3838  -15.5395 N   0  0  0  0  0  0  0  0  0  0  0  0
   17.8734  -22.7052  -15.7223 C   0  0  0  0  0  0  0  0  0  0  0  0
   18.9505  -23.2575  -15.1848 N   0  0  0  0  0  0  0  0  0  0  0  0
   20.9484  -20.7510  -12.5015 C   0  0  0  0  0  0  0  0  0  0  0  0
   20.1752  -19.6343  -12.6108 O   0  0  0  0  0  0  0  0  0  0  0  0
   20.9995  -21.3546  -11.3777 O   0  0  0  0  0  0  0  0  0  0  0  0
  2  1  1  6
  3  2  1  0
  3  4  1  0
  5  6  2  0
  5  2  1  0
  8  7  1  1
  8 10  1  0
  9  8  1  0
 11 10  1  1
 11 13  1  0
 11 12  1  0
 12  5  1  0
 13 14  2  0
 15 13  1  0
 15 16  1  0
 16 17  1  1
 17 18  1  0
 18 22  1  0
 19 18  2  0
 19 20  1  0
 20 21  1  0
 22 21  2  0
 23 16  1  0
 24 23  1  0
 25 23  2  0
M  END
$$$$
