CLH.pdb
     RDKit          3D

 25 25  0  0  1  0  0  0  0  0999 V2000
   27.8389  -22.2113  -16.8160 N   0  0  0  0  0  0  0  0  0  0  0  0
   27.2748  -21.0720  -16.1692 C   0  0  1  0  0  0  0  0  0  0  0  0
   26.4080  -20.3157  -17.1456 C   0  0  0  0  0  0  0  0  0  0  0  0
   27.4764  -19.2449  -18.1388 S   0  0  0  0  0  0  0  0  0  0  0  0
   26.4649  -21.4024  -14.9796 C   0  0  0  0  0  0  0  0  0  0  0  0
   25.7753  -22.4567  -15.0265 O   0  0  0  0  0  0  0  0  0  0  0  0
   25.6415  -21.9520   -9.6668 C   0  0  0  0  0  0  0  0  0  0  0  0
   25.4611  -20.5218  -10.1698 C   0  0  1  0  0  0  0  0  0  0  0  0
   26.0494  -19.6214   -9.1022 C   0  0  0  0  0  0  0  0  0  0  0  0
   26.1725  -20.3208  -11.4666 C   0  0  0  0  0  0  0  0  0  0  0  0
   25.6106  -21.0146  -12.6366 C   0  0  2  0  0  0  0  0  0  0  0  0
   26.4061  -20.6337  -13.8060 N   0  0  0  0  0  0  0  0  0  0  0  0
   24.1883  -20.8281  -12.8913 C   0  0  0  0  0  0  0  0  0  0  0  0
   23.3432  -21.1284  -12.0258 O   0  0  0  0  0  0  0  0  0  0  0  0
   23.7366  -20.3068  -14.1149 N   0  0  0  0  0  0  0  0  0  0  0  0
   22.3581  -19.8913  -14.4028 C   0  0  1  0  0  0  0  0  0  0  0  0
   22.2983  -18.9690  -15.5738 C   0  0  0  0  0  0  0  0  0  0  0  0
   20.9024  -18.5981  -15.8671 C   0  0  0  0  0  0  0  0  0  0  0  0
   19.9317  -17.9753  -15.1367 C   0  0  0  0  0  0  0  0  0  0  0  0
   18.8275  -17.8136  -15.8957 N   0  0  0  0  0  0  0  0  0  0  0  0
   19.0797  -18.3246  -17.1050 C   0  0  0  0  0  0  0  0  0  0  0  0
   20.3179  -18.7943  -17.0935 N   0  0  0  0  0  0  0  0  0  0  0  0
   21.7025  -21.1810  -14.8516 C   0  0  0  0  0  0  0  0  0  0  0  0
   22.3560  -22.2523  -15.3829 O   0  0  0  0  0  0  0  0  0  0  0  0
   20.4355  -21.2447  -14.7077 O   0  0  0  0  0  0  0  0  0  0  0  0
  2  1  1  6
  3  2  1  0
  3  4  1  0
  5  6  2  0
  5  2  1  0
  8  7  1  1
  8 10  1  0
  9  8  1  0
 11 10  1  1
 11 13  1  0
 11 12  1  0
 12  5  1  0
 13 14  2  0
 15 13  1  0
 15 16  1  0
 16 17  1  6
 17 18  1  0
 18 22  1  0
 19 18  2  0
 19 20  1  0
 20 21  1  0
 22 21  2  0
 23 16  1  0
 24 23  1  0
 25 23  2  0
M  END
$$$$
