CLH.pdb
     RDKit          3D

 25 25  0  0  1  0  0  0  0  0999 V2000
   22.5403  -15.9676  -18.0967 N   0  0  0  0  0  0  0  0  0  0  0  0
   22.9034  -14.7574  -18.7584 C   0  0  1  0  0  0  0  0  0  0  0  0
   21.7560  -14.2898  -19.6196 C   0  0  0  0  0  0  0  0  0  0  0  0
   21.3897  -15.5870  -20.8269 S   0  0  0  0  0  0  0  0  0  0  0  0
   23.2768  -13.6643  -17.8386 C   0  0  0  0  0  0  0  0  0  0  0  0
   22.5704  -13.5139  -16.8054 O   0  0  0  0  0  0  0  0  0  0  0  0
   26.3875  -10.5768  -14.7575 C   0  0  0  0  0  0  0  0  0  0  0  0
   26.6450  -10.3951  -16.2513 C   0  0  1  0  0  0  0  0  0  0  0  0
   28.1484  -10.2921  -16.4112 C   0  0  0  0  0  0  0  0  0  0  0  0
   26.1202  -11.5579  -17.0264 C   0  0  0  0  0  0  0  0  0  0  0  0
   24.6561  -11.6775  -17.1177 C   0  0  2  0  0  0  0  0  0  0  0  0
   24.3546  -12.7845  -18.0281 N   0  0  0  0  0  0  0  0  0  0  0  0
   23.9207  -10.4778  -17.4953 C   0  0  0  0  0  0  0  0  0  0  0  0
   24.0694   -9.9705  -18.6240 O   0  0  0  0  0  0  0  0  0  0  0  0
   23.0290   -9.8660  -16.5990 N   0  0  0  0  0  0  0  0  0  0  0  0
   22.2285   -8.6685  -16.8836 C   0  0  1  0  0  0  0  0  0  0  0  0
   20.7691   -8.9371  -16.7299 C   0  0  0  0  0  0  0  0  0  0  0  0
   19.9907   -7.7092  -16.9718 C   0  0  0  0  0  0  0  0  0  0  0  0
   19.3630   -6.8263  -16.1410 C   0  0  0  0  0  0  0  0  0  0  0  0
   18.8372   -5.8171  -16.8666 N   0  0  0  0  0  0  0  0  0  0  0  0
   19.1218   -6.0424  -18.1533 C   0  0  0  0  0  0  0  0  0  0  0  0
   19.8110   -7.1712  -18.2217 N   0  0  0  0  0  0  0  0  0  0  0  0
   22.6037   -7.7337  -15.7521 C   0  0  0  0  0  0  0  0  0  0  0  0
   22.6134   -6.3730  -15.8264 O   0  0  0  0  0  0  0  0  0  0  0  0
   22.9308   -8.2906  -14.6509 O   0  0  0  0  0  0  0  0  0  0  0  0
  2  1  1  1
  3  2  1  0
  3  4  1  0
  5  6  2  0
  5  2  1  0
  8  7  1  1
  8 10  1  0
  9  8  1  0
 11 10  1  6
 11 13  1  0
 11 12  1  0
 12  5  1  0
 13 14  2  0
 15 13  1  0
 15 16  1  0
 16 17  1  1
 17 18  1  0
 18 22  1  0
 19 18  2  0
 19 20  1  0
 20 21  1  0
 22 21  2  0
 23 16  1  0
 24 23  1  0
 25 23  2  0
M  END
$$$$
