CLH.pdb
     RDKit          3D

 25 25  0  0  1  0  0  0  0  0999 V2000
   30.8595  -25.5024  -21.5994 N   0  0  0  0  0  0  0  0  0  0  0  0
   29.6115  -26.1912  -21.5485 C   0  0  1  0  0  0  0  0  0  0  0  0
   29.7206  -27.4892  -22.3100 C   0  0  0  0  0  0  0  0  0  0  0  0
   28.0929  -28.2797  -22.3167 S   0  0  0  0  0  0  0  0  0  0  0  0
   29.1501  -26.4877  -20.1776 C   0  0  0  0  0  0  0  0  0  0  0  0
   30.0118  -26.9033  -19.3567 O   0  0  0  0  0  0  0  0  0  0  0  0
   25.9863  -23.1030  -17.4961 C   0  0  0  0  0  0  0  0  0  0  0  0
   27.0619  -24.1124  -17.8896 C   0  0  1  0  0  0  0  0  0  0  0  0
   28.1303  -24.0304  -16.8180 C   0  0  0  0  0  0  0  0  0  0  0  0
   26.4974  -25.4928  -17.9536 C   0  0  0  0  0  0  0  0  0  0  0  0
   27.4314  -26.5658  -18.3310 C   0  0  2  0  0  0  0  0  0  0  0  0
   27.8297  -26.3419  -19.7226 N   0  0  0  0  0  0  0  0  0  0  0  0
   26.9741  -27.9351  -18.1342 C   0  0  0  0  0  0  0  0  0  0  0  0
   26.2491  -28.4906  -18.9823 O   0  0  0  0  0  0  0  0  0  0  0  0
   27.3383  -28.6597  -16.9875 N   0  0  0  0  0  0  0  0  0  0  0  0
   26.9521  -30.0474  -16.7028 C   0  0  1  0  0  0  0  0  0  0  0  0
   27.5906  -30.5466  -15.4503 C   0  0  0  0  0  0  0  0  0  0  0  0
   27.1665  -31.9304  -15.1717 C   0  0  0  0  0  0  0  0  0  0  0  0
   26.4367  -32.8408  -15.8804 C   0  0  0  0  0  0  0  0  0  0  0  0
   26.3829  -34.0056  -15.2010 N   0  0  0  0  0  0  0  0  0  0  0  0
   27.0712  -33.8528  -14.0652 C   0  0  0  0  0  0  0  0  0  0  0  0
   27.5417  -32.6150  -14.0428 N   0  0  0  0  0  0  0  0  0  0  0  0
   25.4721  -29.9318  -16.4010 C   0  0  0  0  0  0  0  0  0  0  0  0
   24.5433  -30.9007  -16.6367 O   0  0  0  0  0  0  0  0  0  0  0  0
   25.0908  -28.8292  -15.8827 O   0  0  0  0  0  0  0  0  0  0  0  0
  2  1  1  1
  3  2  1  0
  3  4  1  0
  5  6  2  0
  5  2  1  0
  8  7  1  1
  8 10  1  0
  9  8  1  0
 11 10  1  6
 11 13  1  0
 11 12  1  0
 12  5  1  0
 13 14  2  0
 15 13  1  0
 15 16  1  0
 16 17  1  1
 17 18  1  0
 18 22  1  0
 19 18  2  0
 19 20  1  0
 20 21  1  0
 22 21  2  0
 23 16  1  0
 24 23  1  0
 25 23  2  0
M  END
$$$$
