CLH.pdb
     RDKit          3D

 25 25  0  0  1  0  0  0  0  0999 V2000
   20.0946  -16.3674  -17.5394 N   0  0  0  0  0  0  0  0  0  0  0  0
   20.4226  -15.0868  -18.0749 C   0  0  1  0  0  0  0  0  0  0  0  0
   19.1878  -14.4592  -18.6733 C   0  0  0  0  0  0  0  0  0  0  0  0
   18.8709  -15.2464  -20.2715 S   0  0  0  0  0  0  0  0  0  0  0  0
   20.9903  -14.1533  -17.0817 C   0  0  0  0  0  0  0  0  0  0  0  0
   20.3232  -13.9541  -16.0308 O   0  0  0  0  0  0  0  0  0  0  0  0
   26.1005  -14.2149  -15.5601 C   0  0  0  0  0  0  0  0  0  0  0  0
   24.5795  -14.1120  -15.6437 C   0  0  1  0  0  0  0  0  0  0  0  0
   24.0597  -14.3967  -14.2490 C   0  0  0  0  0  0  0  0  0  0  0  0
   24.1625  -12.7478  -16.0833 C   0  0  0  0  0  0  0  0  0  0  0  0
   22.7157  -12.5203  -16.2295 C   0  0  2  0  0  0  0  0  0  0  0  0
   22.2117  -13.4744  -17.2200 N   0  0  0  0  0  0  0  0  0  0  0  0
   22.2926  -11.1637  -16.5511 C   0  0  0  0  0  0  0  0  0  0  0  0
   22.5390  -10.6696  -17.6684 O   0  0  0  0  0  0  0  0  0  0  0  0
   21.5988  -10.3826  -15.6123 N   0  0  0  0  0  0  0  0  0  0  0  0
   21.0498   -9.0442  -15.8626 C   0  0  1  0  0  0  0  0  0  0  0  0
   19.6274   -8.9458  -15.4236 C   0  0  0  0  0  0  0  0  0  0  0  0
   19.0830   -7.6119  -15.7344 C   0  0  0  0  0  0  0  0  0  0  0  0
   19.5848   -6.5356  -16.4078 C   0  0  0  0  0  0  0  0  0  0  0  0
   18.6501   -5.5640  -16.4695 N   0  0  0  0  0  0  0  0  0  0  0  0
   17.5541   -6.0057  -15.8443 C   0  0  0  0  0  0  0  0  0  0  0  0
   17.8071   -7.2287  -15.4035 N   0  0  0  0  0  0  0  0  0  0  0  0
   21.8426   -8.1698  -14.9130 C   0  0  0  0  0  0  0  0  0  0  0  0
   22.2388   -6.8909  -15.1666 O   0  0  0  0  0  0  0  0  0  0  0  0
   22.1494   -8.6964  -13.7912 O   0  0  0  0  0  0  0  0  0  0  0  0
  2  1  1  1
  3  2  1  0
  3  4  1  0
  5  6  2  0
  5  2  1  0
  8  7  1  1
  8 10  1  0
  9  8  1  0
 11 10  1  6
 11 13  1  0
 11 12  1  0
 12  5  1  0
 13 14  2  0
 15 13  1  0
 15 16  1  0
 16 17  1  1
 17 18  1  0
 18 22  1  0
 19 18  2  0
 19 20  1  0
 20 21  1  0
 22 21  2  0
 23 16  1  0
 24 23  1  0
 25 23  2  0
M  END
$$$$
