CLH.pdb
     RDKit          3D

 25 25  0  0  1  0  0  0  0  0999 V2000
   17.0346  -11.2559  -17.7575 N   0  0  0  0  0  0  0  0  0  0  0  0
   17.8464  -10.1287  -18.0816 C   0  0  1  0  0  0  0  0  0  0  0  0
   16.9690   -8.9925  -18.5463 C   0  0  0  0  0  0  0  0  0  0  0  0
   16.3577   -9.3906  -20.2024 S   0  0  0  0  0  0  0  0  0  0  0  0
   18.6786   -9.6514  -16.9592 C   0  0  0  0  0  0  0  0  0  0  0  0
   18.1149   -9.5184  -15.8396 O   0  0  0  0  0  0  0  0  0  0  0  0
   22.1620   -9.5122  -13.1619 C   0  0  0  0  0  0  0  0  0  0  0  0
   22.8323   -9.5257  -14.5336 C   0  0  1  0  0  0  0  0  0  0  0  0
   23.9206  -10.5777  -14.4614 C   0  0  0  0  0  0  0  0  0  0  0  0
   21.8488   -9.8704  -15.6024 C   0  0  0  0  0  0  0  0  0  0  0  0
   20.8298   -8.8534  -15.9078 C   0  0  2  0  0  0  0  0  0  0  0  0
   20.0443   -9.3364  -17.0458 N   0  0  0  0  0  0  0  0  0  0  0  0
   21.3048   -7.4961  -16.1417 C   0  0  0  0  0  0  0  0  0  0  0  0
   22.0268   -7.2362  -17.1238 O   0  0  0  0  0  0  0  0  0  0  0  0
   20.9615   -6.4509  -15.2685 N   0  0  0  0  0  0  0  0  0  0  0  0
   21.3658   -5.0480  -15.4243 C   0  0  1  0  0  0  0  0  0  0  0  0
   20.3093   -4.1167  -14.9322 C   0  0  0  0  0  0  0  0  0  0  0  0
   19.7483   -3.3369  -16.0499 C   0  0  0  0  0  0  0  0  0  0  0  0
   19.9542   -3.3635  -17.3992 C   0  0  0  0  0  0  0  0  0  0  0  0
   19.1350   -2.4750  -18.0000 N   0  0  0  0  0  0  0  0  0  0  0  0
   18.4052   -1.8798  -17.0512 C   0  0  0  0  0  0  0  0  0  0  0  0
   18.7672   -2.3912  -15.8844 N   0  0  0  0  0  0  0  0  0  0  0  0
   22.5223   -4.9193  -14.4544 C   0  0  0  0  0  0  0  0  0  0  0  0
   23.7172   -4.3246  -14.7297 O   0  0  0  0  0  0  0  0  0  0  0  0
   22.3361   -5.4136  -13.2922 O   0  0  0  0  0  0  0  0  0  0  0  0
  2  1  1  1
  3  2  1  0
  3  4  1  0
  5  6  2  0
  5  2  1  0
  8  7  1  1
  8 10  1  0
  9  8  1  0
 11 10  1  6
 11 13  1  0
 11 12  1  0
 12  5  1  0
 13 14  2  0
 15 13  1  0
 15 16  1  0
 16 17  1  1
 17 18  1  0
 18 22  1  0
 19 18  2  0
 19 20  1  0
 20 21  1  0
 22 21  2  0
 23 16  1  0
 24 23  1  0
 25 23  2  0
M  END
$$$$
