CLH.pdb
     RDKit          3D

 25 25  0  0  1  0  0  0  0  0999 V2000
   31.2657  -25.1713  -16.7377 N   0  0  0  0  0  0  0  0  0  0  0  0
   30.8284  -24.0133  -17.4463 C   0  0  1  0  0  0  0  0  0  0  0  0
   30.6180  -24.3610  -18.8994 C   0  0  0  0  0  0  0  0  0  0  0  0
   32.2352  -24.6856  -19.6433 S   0  0  0  0  0  0  0  0  0  0  0  0
   29.5805  -23.4272  -16.9176 C   0  0  0  0  0  0  0  0  0  0  0  0
   28.7151  -24.2249  -16.4662 O   0  0  0  0  0  0  0  0  0  0  0  0
   26.3972  -20.1493  -14.1251 C   0  0  0  0  0  0  0  0  0  0  0  0
   27.1717  -19.4309  -15.2273 C   0  0  1  0  0  0  0  0  0  0  0  0
   27.6425  -18.1212  -14.6276 C   0  0  0  0  0  0  0  0  0  0  0  0
   28.3401  -20.2457  -15.6735 C   0  0  0  0  0  0  0  0  0  0  0  0
   28.0327  -21.5160  -16.3504 C   0  0  2  0  0  0  0  0  0  0  0  0
   29.2876  -22.0544  -16.8804 N   0  0  0  0  0  0  0  0  0  0  0  0
   27.0049  -21.4793  -17.3824 C   0  0  0  0  0  0  0  0  0  0  0  0
   27.2326  -20.9488  -18.4870 O   0  0  0  0  0  0  0  0  0  0  0  0
   25.7366  -22.0394  -17.1578 N   0  0  0  0  0  0  0  0  0  0  0  0
   24.6102  -21.9929  -18.0985 C   0  0  1  0  0  0  0  0  0  0  0  0
   23.8058  -23.2484  -18.0506 C   0  0  0  0  0  0  0  0  0  0  0  0
   22.6630  -23.1641  -18.9774 C   0  0  0  0  0  0  0  0  0  0  0  0
   22.2593  -22.2166  -19.8735 C   0  0  0  0  0  0  0  0  0  0  0  0
   21.1652  -22.6532  -20.5322 N   0  0  0  0  0  0  0  0  0  0  0  0
   20.8637  -23.8706  -20.0695 C   0  0  0  0  0  0  0  0  0  0  0  0
   21.7553  -24.1808  -19.1407 N   0  0  0  0  0  0  0  0  0  0  0  0
   23.7277  -20.9078  -17.5167 C   0  0  0  0  0  0  0  0  0  0  0  0
   23.2358  -20.8911  -16.2460 O   0  0  0  0  0  0  0  0  0  0  0  0
   23.4383  -19.9418  -18.2996 O   0  0  0  0  0  0  0  0  0  0  0  0
  2  1  1  1
  3  2  1  0
  3  4  1  0
  5  6  2  0
  5  2  1  0
  8  7  1  1
  8 10  1  0
  9  8  1  0
 11 10  1  6
 11 13  1  0
 11 12  1  0
 12  5  1  0
 13 14  2  0
 15 13  1  0
 15 16  1  0
 16 17  1  1
 17 18  1  0
 18 22  1  0
 19 18  2  0
 19 20  1  0
 20 21  1  0
 22 21  2  0
 23 16  1  0
 24 23  1  0
 25 23  2  0
M  END
$$$$
