CLH.pdb
     RDKit          3D

 25 25  0  0  1  0  0  0  0  0999 V2000
   28.1121  -19.7598  -16.1389 N   0  0  0  0  0  0  0  0  0  0  0  0
   27.1691  -18.9741  -15.4122 C   0  0  1  0  0  0  0  0  0  0  0  0
   26.5432  -17.9571  -16.3345 C   0  0  0  0  0  0  0  0  0  0  0  0
   27.7570  -16.6511  -16.6436 S   0  0  0  0  0  0  0  0  0  0  0  0
   26.0921  -19.7656  -14.7847 C   0  0  0  0  0  0  0  0  0  0  0  0
   25.6573  -20.7589  -15.4276 O   0  0  0  0  0  0  0  0  0  0  0  0
   26.1074  -20.4236   -9.3701 C   0  0  0  0  0  0  0  0  0  0  0  0
   26.0581  -20.6364  -10.8811 C   0  0  1  0  0  0  0  0  0  0  0  0
   26.3134  -22.1128  -11.1082 C   0  0  0  0  0  0  0  0  0  0  0  0
   24.7239  -20.2514  -11.4288 C   0  0  0  0  0  0  0  0  0  0  0  0
   24.5503  -20.3832  -12.8843 C   0  0  2  0  0  0  0  0  0  0  0  0
   25.5191  -19.4954  -13.5316 N   0  0  0  0  0  0  0  0  0  0  0  0
   23.2094  -20.1617  -13.4094 C   0  0  0  0  0  0  0  0  0  0  0  0
   22.6520  -19.0543  -13.2812 O   0  0  0  0  0  0  0  0  0  0  0  0
   22.5148  -21.1878  -14.0708 N   0  0  0  0  0  0  0  0  0  0  0  0
   21.1974  -21.0490  -14.7040 C   0  0  1  0  0  0  0  0  0  0  0  0
   20.8291  -22.2727  -15.4737 C   0  0  0  0  0  0  0  0  0  0  0  0
   19.5526  -22.0712  -16.1823 C   0  0  0  0  0  0  0  0  0  0  0  0
   18.9434  -20.9679  -16.7071 C   0  0  0  0  0  0  0  0  0  0  0  0
   17.7963  -21.3316  -17.3181 N   0  0  0  0  0  0  0  0  0  0  0  0
   17.6637  -22.6559  -17.1920 C   0  0  0  0  0  0  0  0  0  0  0  0
   18.7103  -23.1028  -16.5146 N   0  0  0  0  0  0  0  0  0  0  0  0
   20.2554  -21.0005  -13.5186 C   0  0  0  0  0  0  0  0  0  0  0  0
   19.0684  -20.3321  -13.4841 O   0  0  0  0  0  0  0  0  0  0  0  0
   20.6256  -21.6478  -12.4824 O   0  0  0  0  0  0  0  0  0  0  0  0
  2  1  1  6
  3  2  1  0
  3  4  1  0
  5  6  2  0
  5  2  1  0
  8  7  1  1
  8 10  1  0
  9  8  1  0
 11 10  1  1
 11 13  1  0
 11 12  1  0
 12  5  1  0
 13 14  2  0
 15 13  1  0
 15 16  1  0
 16 17  1  6
 17 18  1  0
 18 22  1  0
 19 18  2  0
 19 20  1  0
 20 21  1  0
 22 21  2  0
 23 16  1  0
 24 23  1  0
 25 23  2  0
M  END
$$$$
