CLH.pdb
     RDKit          3D

 25 25  0  0  1  0  0  0  0  0999 V2000
   25.2074  -23.4280  -17.2915 N   0  0  0  0  0  0  0  0  0  0  0  0
   25.7613  -23.5112  -15.9797 C   0  0  1  0  0  0  0  0  0  0  0  0
   27.1527  -24.0900  -16.0559 C   0  0  0  0  0  0  0  0  0  0  0  0
   28.2093  -22.9100  -16.9309 S   0  0  0  0  0  0  0  0  0  0  0  0
   25.8296  -22.2136  -15.2784 C   0  0  0  0  0  0  0  0  0  0  0  0
   26.1862  -22.2300  -14.0694 O   0  0  0  0  0  0  0  0  0  0  0  0
   27.5068  -17.2303  -14.1967 C   0  0  0  0  0  0  0  0  0  0  0  0
   26.4783  -17.3761  -15.3155 C   0  0  1  0  0  0  0  0  0  0  0  0
   26.9155  -16.4314  -16.4168 C   0  0  0  0  0  0  0  0  0  0  0  0
   26.4398  -18.7797  -15.8223 C   0  0  0  0  0  0  0  0  0  0  0  0
   25.5533  -19.7109  -15.1058 C   0  0  2  0  0  0  0  0  0  0  0  0
   25.5285  -20.9692  -15.8551 N   0  0  0  0  0  0  0  0  0  0  0  0
   24.2016  -19.2463  -14.8235 C   0  0  0  0  0  0  0  0  0  0  0  0
   24.0075  -18.2908  -14.0471 O   0  0  0  0  0  0  0  0  0  0  0  0
   23.0880  -19.8623  -15.4179 N   0  0  0  0  0  0  0  0  0  0  0  0
   21.6980  -19.4074  -15.2894 C   0  0  1  0  0  0  0  0  0  0  0  0
   21.1968  -18.8144  -16.5633 C   0  0  0  0  0  0  0  0  0  0  0  0
   19.7809  -18.4274  -16.4298 C   0  0  0  0  0  0  0  0  0  0  0  0
   18.8980  -18.4718  -15.3895 C   0  0  0  0  0  0  0  0  0  0  0  0
   17.7214  -17.9318  -15.7709 N   0  0  0  0  0  0  0  0  0  0  0  0
   17.8404  -17.5404  -17.0436 C   0  0  0  0  0  0  0  0  0  0  0  0
   19.0688  -17.8338  -17.4421 N   0  0  0  0  0  0  0  0  0  0  0  0
   20.9341  -20.7019  -15.1010 C   0  0  0  0  0  0  0  0  0  0  0  0
   19.7584  -20.8300  -14.4241 O   0  0  0  0  0  0  0  0  0  0  0  0
   21.4538  -21.7408  -15.6306 O   0  0  0  0  0  0  0  0  0  0  0  0
  2  1  1  6
  3  2  1  0
  3  4  1  0
  5  6  2  0
  5  2  1  0
  8  7  1  1
  8 10  1  0
  9  8  1  0
 11 10  1  6
 11 13  1  0
 11 12  1  0
 12  5  1  0
 13 14  2  0
 15 13  1  0
 15 16  1  0
 16 17  1  6
 17 18  1  0
 18 22  1  0
 19 18  2  0
 19 20  1  0
 20 21  1  0
 22 21  2  0
 23 16  1  0
 24 23  1  0
 25 23  2  0
M  END
$$$$
