CLH.pdb
     RDKit          3D

 25 25  0  0  1  0  0  0  0  0999 V2000
   28.6622  -29.7714  -21.8581 N   0  0  0  0  0  0  0  0  0  0  0  0
   28.4342  -29.3432  -20.5168 C   0  0  1  0  0  0  0  0  0  0  0  0
   27.2295  -28.4357  -20.4752 C   0  0  0  0  0  0  0  0  0  0  0  0
   26.9703  -27.9177  -18.7609 S   0  0  0  0  0  0  0  0  0  0  0  0
   28.2206  -30.4521  -19.5655 C   0  0  0  0  0  0  0  0  0  0  0  0
   27.3719  -31.3284  -19.8830 O   0  0  0  0  0  0  0  0  0  0  0  0
   32.1636  -32.7171  -16.4638 C   0  0  0  0  0  0  0  0  0  0  0  0
   30.9488  -32.5338  -17.3702 C   0  0  1  0  0  0  0  0  0  0  0  0
   30.5887  -33.9154  -17.8781 C   0  0  0  0  0  0  0  0  0  0  0  0
   29.8046  -31.9458  -16.6130 C   0  0  0  0  0  0  0  0  0  0  0  0
   28.5820  -31.6688  -17.3840 C   0  0  2  0  0  0  0  0  0  0  0  0
   28.8891  -30.6023  -18.3398 N   0  0  0  0  0  0  0  0  0  0  0  0
   27.3808  -31.3545  -16.6217 C   0  0  0  0  0  0  0  0  0  0  0  0
   27.3521  -30.3689  -15.8593 O   0  0  0  0  0  0  0  0  0  0  0  0
   26.2298  -32.1525  -16.7272 N   0  0  0  0  0  0  0  0  0  0  0  0
   24.9834  -31.9466  -15.9791 C   0  0  1  0  0  0  0  0  0  0  0  0
   23.8529  -31.5941  -16.8865 C   0  0  0  0  0  0  0  0  0  0  0  0
   22.6096  -31.4151  -16.1156 C   0  0  0  0  0  0  0  0  0  0  0  0
   22.3366  -31.4085  -14.7780 C   0  0  0  0  0  0  0  0  0  0  0  0
   21.0290  -31.1364  -14.5840 N   0  0  0  0  0  0  0  0  0  0  0  0
   20.4608  -30.9671  -15.7822 C   0  0  0  0  0  0  0  0  0  0  0  0
   21.4006  -31.1321  -16.7006 N   0  0  0  0  0  0  0  0  0  0  0  0
   24.6761  -33.3307  -15.4455 C   0  0  0  0  0  0  0  0  0  0  0  0
   25.3990  -34.4547  -15.7118 O   0  0  0  0  0  0  0  0  0  0  0  0
   23.6541  -33.4238  -14.6861 O   0  0  0  0  0  0  0  0  0  0  0  0
  2  1  1  6
  3  2  1  0
  3  4  1  0
  5  6  2  0
  5  2  1  0
  8  7  1  1
  8 10  1  0
  9  8  1  0
 11 10  1  1
 11 13  1  0
 11 12  1  0
 12  5  1  0
 13 14  2  0
 15 13  1  0
 15 16  1  0
 16 17  1  6
 17 18  1  0
 18 22  1  0
 19 18  2  0
 19 20  1  0
 20 21  1  0
 22 21  2  0
 23 16  1  0
 24 23  1  0
 25 23  2  0
M  END
$$$$
