CLH.pdb
     RDKit          3D

 25 25  0  0  1  0  0  0  0  0999 V2000
   20.9873  -13.7923  -19.5845 N   0  0  0  0  0  0  0  0  0  0  0  0
   21.8237  -12.6437  -19.7091 C   0  0  1  0  0  0  0  0  0  0  0  0
   21.0831  -11.5589  -20.4518 C   0  0  0  0  0  0  0  0  0  0  0  0
   20.5120  -12.2408  -22.0277 S   0  0  0  0  0  0  0  0  0  0  0  0
   22.2837  -12.0985  -18.4163 C   0  0  0  0  0  0  0  0  0  0  0  0
   21.6086  -12.3936  -17.3934 O   0  0  0  0  0  0  0  0  0  0  0  0
   27.3958  -11.5354  -15.4963 C   0  0  0  0  0  0  0  0  0  0  0  0
   26.0177  -10.8816  -15.5630 C   0  0  1  0  0  0  0  0  0  0  0  0
   26.2574   -9.3859  -15.5192 C   0  0  0  0  0  0  0  0  0  0  0  0
   25.3121  -11.2564  -16.8239 C   0  0  0  0  0  0  0  0  0  0  0  0
   23.8997  -10.8559  -16.9282 C   0  0  2  0  0  0  0  0  0  0  0  0
   23.4114  -11.2801  -18.2424 N   0  0  0  0  0  0  0  0  0  0  0  0
   23.5949   -9.4516  -16.6879 C   0  0  0  0  0  0  0  0  0  0  0  0
   23.8327   -8.9304  -15.5811 O   0  0  0  0  0  0  0  0  0  0  0  0
   23.0273   -8.6539  -17.6951 N   0  0  0  0  0  0  0  0  0  0  0  0
   21.7120   -8.0054  -17.6231 C   0  0  1  0  0  0  0  0  0  0  0  0
   20.6599   -8.9535  -17.1541 C   0  0  0  0  0  0  0  0  0  0  0  0
   19.3510   -8.2793  -17.0876 C   0  0  0  0  0  0  0  0  0  0  0  0
   18.9316   -7.0253  -17.4273 C   0  0  0  0  0  0  0  0  0  0  0  0
   17.6007   -6.9234  -17.2279 N   0  0  0  0  0  0  0  0  0  0  0  0
   17.1618   -8.0985  -16.7655 C   0  0  0  0  0  0  0  0  0  0  0  0
   18.2032   -8.9121  -16.6801 N   0  0  0  0  0  0  0  0  0  0  0  0
   21.8928   -6.9957  -16.5084 C   0  0  0  0  0  0  0  0  0  0  0  0
   22.4523   -7.2569  -15.2936 O   0  0  0  0  0  0  0  0  0  0  0  0
   21.4820   -5.8120  -16.7532 O   0  0  0  0  0  0  0  0  0  0  0  0
  2  1  1  1
  3  2  1  0
  3  4  1  0
  5  6  2  0
  5  2  1  0
  8  7  1  6
  8 10  1  0
  9  8  1  0
 11 10  1  6
 11 13  1  0
 11 12  1  0
 12  5  1  0
 13 14  2  0
 15 13  1  0
 15 16  1  0
 16 17  1  1
 17 18  1  0
 18 22  1  0
 19 18  2  0
 19 20  1  0
 20 21  1  0
 22 21  2  0
 23 16  1  0
 24 23  1  0
 25 23  2  0
M  END
$$$$
