CLH.pdb
     RDKit          3D

 25 25  0  0  1  0  0  0  0  0999 V2000
   17.0344  -15.1710  -16.7864 N   0  0  0  0  0  0  0  0  0  0  0  0
   16.4759  -14.4556  -15.6860 C   0  0  1  0  0  0  0  0  0  0  0  0
   17.2856  -14.7305  -14.4428 C   0  0  0  0  0  0  0  0  0  0  0  0
   18.9422  -14.0430  -14.6831 S   0  0  0  0  0  0  0  0  0  0  0  0
   16.4150  -12.9951  -15.8942 C   0  0  0  0  0  0  0  0  0  0  0  0
   17.0868  -12.5205  -16.8495 O   0  0  0  0  0  0  0  0  0  0  0  0
   11.8414   -9.9283  -15.6891 C   0  0  0  0  0  0  0  0  0  0  0  0
   13.2091  -10.4376  -16.1372 C   0  0  1  0  0  0  0  0  0  0  0  0
   13.5628   -9.6547  -17.3857 C   0  0  0  0  0  0  0  0  0  0  0  0
   14.2343  -10.2112  -15.0762 C   0  0  0  0  0  0  0  0  0  0  0  0
   15.6021  -10.6617  -15.3799 C   0  0  2  0  0  0  0  0  0  0  0  0
   15.6683  -12.1001  -15.1112 N   0  0  0  0  0  0  0  0  0  0  0  0
   16.6897   -9.9571  -14.7141 C   0  0  0  0  0  0  0  0  0  0  0  0
   16.9886  -10.2211  -13.5332 O   0  0  0  0  0  0  0  0  0  0  0  0
   17.4252   -8.9662  -15.3849 N   0  0  0  0  0  0  0  0  0  0  0  0
   18.5556   -8.2196  -14.8188 C   0  0  1  0  0  0  0  0  0  0  0  0
   19.3214   -7.5007  -15.8782 C   0  0  0  0  0  0  0  0  0  0  0  0
   20.4750   -6.7955  -15.2916 C   0  0  0  0  0  0  0  0  0  0  0  0
   21.2985   -7.0731  -14.2387 C   0  0  0  0  0  0  0  0  0  0  0  0
   22.2567   -6.1267  -14.1515 N   0  0  0  0  0  0  0  0  0  0  0  0
   22.0577   -5.2461  -15.1374 C   0  0  0  0  0  0  0  0  0  0  0  0
   20.9948   -5.6410  -15.8217 N   0  0  0  0  0  0  0  0  0  0  0  0
   17.8740   -7.1472  -13.9941 C   0  0  0  0  0  0  0  0  0  0  0  0
   16.5796   -6.7465  -14.1399 O   0  0  0  0  0  0  0  0  0  0  0  0
   18.5909   -6.5915  -13.0957 O   0  0  0  0  0  0  0  0  0  0  0  0
  2  1  1  6
  3  2  1  0
  3  4  1  0
  5  6  2  0
  5  2  1  0
  8  7  1  1
  8 10  1  0
  9  8  1  0
 11 10  1  1
 11 13  1  0
 11 12  1  0
 12  5  1  0
 13 14  2  0
 15 13  1  0
 15 16  1  0
 16 17  1  6
 17 18  1  0
 18 22  1  0
 19 18  2  0
 19 20  1  0
 20 21  1  0
 22 21  2  0
 23 16  1  0
 24 23  1  0
 25 23  2  0
M  END
$$$$
