QVF.pdb
     RDKit          3D

 28 28  0  0  1  0  0  0  0  0999 V2000
   31.2338  -23.4178  -19.6254 N   0  0  0  0  0  0  0  0  0  0  0  0
   29.9531  -23.0920  -20.1392 C   0  0  0  0  0  0  0  0  0  0  0  0
   29.8836  -22.6490  -21.3069 O   0  0  0  0  0  0  0  0  0  0  0  0
   28.7656  -23.2785  -19.3095 C   0  0  0  0  0  0  0  0  0  0  0  0
   28.8357  -22.5395  -18.0078 C   0  0  0  0  0  0  0  0  0  0  0  0
   28.4747  -21.0841  -18.1033 C   0  0  2  0  0  0  0  0  0  0  0  0
   29.5170  -20.3544  -18.7971 N   0  0  0  0  0  0  0  0  0  0  0  0
   28.3036  -20.5928  -16.7074 C   0  0  0  0  0  0  0  0  0  0  0  0
   29.2680  -20.6534  -15.9041 O   0  0  0  0  0  0  0  0  0  0  0  0
   26.2181  -17.4531  -13.6839 C   0  0  0  0  0  0  0  0  0  0  0  0
   26.4262  -17.9952  -15.0919 C   0  0  1  0  0  0  0  0  0  0  0  0
   27.4056  -17.1070  -15.7879 C   0  0  0  0  0  0  0  0  0  0  0  0
   26.9504  -19.4119  -14.9289 C   0  0  2  0  0  0  0  0  0  0  0  0
   27.0833  -20.0532  -16.2420 N   0  0  0  0  0  0  0  0  0  0  0  0
   25.9941  -20.2137  -14.1208 C   0  0  0  0  0  0  0  0  0  0  0  0
   24.8893  -20.5735  -14.5945 O   0  0  0  0  0  0  0  0  0  0  0  0
   26.2828  -20.5986  -12.8072 N   0  0  0  0  0  0  0  0  0  0  0  0
   25.4185  -21.3688  -11.9466 C   0  0  1  0  0  0  0  0  0  0  0  0
   26.0858  -22.0088  -10.8085 C   0  0  0  0  0  0  0  0  0  0  0  0
   26.2835  -21.0329   -9.7221 C   0  0  0  0  0  0  0  0  0  0  0  0
   27.4112  -20.2427   -9.7646 C   0  0  0  0  0  0  0  0  0  0  0  0
   27.6762  -19.2850   -8.8210 C   0  0  0  0  0  0  0  0  0  0  0  0
   26.7605  -19.1250   -7.7965 C   0  0  0  0  0  0  0  0  0  0  0  0
   25.6246  -19.8887   -7.7141 C   0  0  0  0  0  0  0  0  0  0  0  0
   25.3913  -20.8466   -8.6866 C   0  0  0  0  0  0  0  0  0  0  0  0
   24.3091  -20.5074  -11.5225 C   0  0  0  0  0  0  0  0  0  0  0  0
   24.3283  -19.1282  -11.4146 O   0  0  0  0  0  0  0  0  0  0  0  0
   23.1858  -21.0378  -11.2060 O   0  0  0  0  0  0  0  0  0  0  0  0
  2  1  1  0
  2  3  2  0
  4  2  1  0
  5  4  1  0
  5  6  1  0
  6  8  1  0
  6  7  1  1
  8  9  2  0
 11 13  1  0
 11 10  1  1
 12 11  1  0
 13 14  1  6
 14  8  1  0
 15 17  1  0
 15 13  1  0
 16 15  2  0
 18 26  1  0
 18 17  1  0
 18 19  1  1
 20 19  1  0
 21 20  2  0
 22 21  1  0
 23 24  1  0
 23 22  2  0
 24 25  2  0
 25 20  1  0
 26 27  1  0
 28 26  2  0
M  END
$$$$
