QVF.pdb
     RDKit          3D

 28 28  0  0  1  0  0  0  0  0999 V2000
   22.7021  -18.0456  -13.6956 N   0  0  0  0  0  0  0  0  0  0  0  0
   21.3691  -18.5267  -13.6518 C   0  0  0  0  0  0  0  0  0  0  0  0
   20.5308  -18.0064  -14.4207 O   0  0  0  0  0  0  0  0  0  0  0  0
   21.0114  -19.6000  -12.7279 C   0  0  0  0  0  0  0  0  0  0  0  0
   22.1852  -20.1354  -11.9657 C   0  0  0  0  0  0  0  0  0  0  0  0
   23.2558  -20.7435  -12.8269 C   0  0  2  0  0  0  0  0  0  0  0  0
   22.7302  -21.8866  -13.5463 N   0  0  0  0  0  0  0  0  0  0  0  0
   24.3660  -21.1380  -11.9153 C   0  0  0  0  0  0  0  0  0  0  0  0
   24.2670  -22.1886  -11.2330 O   0  0  0  0  0  0  0  0  0  0  0  0
   29.1009  -20.7986  -10.6775 C   0  0  0  0  0  0  0  0  0  0  0  0
   27.9847  -20.3437  -11.6085 C   0  0  1  0  0  0  0  0  0  0  0  0
   28.2096  -20.9780  -12.9425 C   0  0  0  0  0  0  0  0  0  0  0  0
   26.6845  -20.7989  -10.9677 C   0  0  2  0  0  0  0  0  0  0  0  0
   25.5437  -20.3683  -11.7840 N   0  0  0  0  0  0  0  0  0  0  0  0
   26.5437  -20.1844   -9.6211 C   0  0  0  0  0  0  0  0  0  0  0  0
   26.0698  -19.0310   -9.4824 O   0  0  0  0  0  0  0  0  0  0  0  0
   26.9306  -20.8611   -8.4594 N   0  0  0  0  0  0  0  0  0  0  0  0
   27.0972  -20.2671   -7.1555 C   0  0  1  0  0  0  0  0  0  0  0  0
   27.5395  -21.1897   -6.1050 C   0  0  0  0  0  0  0  0  0  0  0  0
   27.8968  -20.4391   -4.8882 C   0  0  0  0  0  0  0  0  0  0  0  0
   29.2057  -20.0348   -4.7429 C   0  0  0  0  0  0  0  0  0  0  0  0
   29.6372  -19.3075   -3.6647 C   0  0  0  0  0  0  0  0  0  0  0  0
   28.7030  -18.9793   -2.6985 C   0  0  0  0  0  0  0  0  0  0  0  0
   27.3897  -19.3602   -2.8016 C   0  0  0  0  0  0  0  0  0  0  0  0
   26.9914  -20.0944   -3.9061 C   0  0  0  0  0  0  0  0  0  0  0  0
   27.9932  -19.1130   -7.2892 C   0  0  0  0  0  0  0  0  0  0  0  0
   29.2882  -19.1242   -7.7759 O   0  0  0  0  0  0  0  0  0  0  0  0
   27.5831  -17.9529   -6.9298 O   0  0  0  0  0  0  0  0  0  0  0  0
  2  1  1  0
  2  3  2  0
  4  2  1  0
  5  4  1  0
  5  6  1  0
  6  8  1  0
  6  7  1  1
  8  9  2  0
 11 13  1  0
 11 10  1  1
 12 11  1  0
 13 14  1  6
 14  8  1  0
 15 17  1  0
 15 13  1  0
 16 15  2  0
 18 26  1  0
 18 17  1  0
 18 19  1  1
 20 19  1  0
 21 20  2  0
 22 21  1  0
 23 24  1  0
 23 22  2  0
 24 25  2  0
 25 20  1  0
 26 27  1  0
 28 26  2  0
M  END
$$$$
