QVF.pdb
     RDKit          3D

 28 28  0  0  1  0  0  0  0  0999 V2000
   23.1499  -20.6722  -18.7842 N   0  0  0  0  0  0  0  0  0  0  0  0
   23.3253  -21.6729  -19.7732 C   0  0  0  0  0  0  0  0  0  0  0  0
   22.5603  -21.6619  -20.7628 O   0  0  0  0  0  0  0  0  0  0  0  0
   24.3764  -22.6751  -19.6179 C   0  0  0  0  0  0  0  0  0  0  0  0
   25.2098  -22.4679  -18.3899 C   0  0  0  0  0  0  0  0  0  0  0  0
   26.2354  -21.3772  -18.5160 C   0  0  2  0  0  0  0  0  0  0  0  0
   27.3700  -21.8439  -19.2876 N   0  0  0  0  0  0  0  0  0  0  0  0
   26.6363  -21.0040  -17.1307 C   0  0  0  0  0  0  0  0  0  0  0  0
   27.5725  -21.6234  -16.5659 O   0  0  0  0  0  0  0  0  0  0  0  0
   26.8041  -17.6773  -13.5599 C   0  0  0  0  0  0  0  0  0  0  0  0
   26.5086  -18.0265  -15.0126 C   0  0  1  0  0  0  0  0  0  0  0  0
   27.6162  -17.4792  -15.8530 C   0  0  0  0  0  0  0  0  0  0  0  0
   26.4326  -19.5425  -15.0786 C   0  0  2  0  0  0  0  0  0  0  0  0
   25.9979  -19.9667  -16.4144 N   0  0  0  0  0  0  0  0  0  0  0  0
   25.4383  -20.0411  -14.0920 C   0  0  0  0  0  0  0  0  0  0  0  0
   24.2115  -19.8264  -14.2447 O   0  0  0  0  0  0  0  0  0  0  0  0
   25.8249  -20.7656  -12.9595 N   0  0  0  0  0  0  0  0  0  0  0  0
   24.9332  -21.3238  -11.9726 C   0  0  1  0  0  0  0  0  0  0  0  0
   25.5849  -22.1137  -10.9231 C   0  0  0  0  0  0  0  0  0  0  0  0
   26.1320  -21.2235   -9.8839 C   0  0  0  0  0  0  0  0  0  0  0  0
   27.4811  -21.3003   -9.6163 C   0  0  0  0  0  0  0  0  0  0  0  0
   28.0959  -20.4983   -8.6907 C   0  0  0  0  0  0  0  0  0  0  0  0
   27.3094  -19.5844   -8.0123 C   0  0  0  0  0  0  0  0  0  0  0  0
   25.9628  -19.4730   -8.2462 C   0  0  0  0  0  0  0  0  0  0  0  0
   25.3774  -20.3009   -9.1893 C   0  0  0  0  0  0  0  0  0  0  0  0
   24.1226  -20.2332  -11.4191 C   0  0  0  0  0  0  0  0  0  0  0  0
   22.8115  -20.3162  -10.9850 O   0  0  0  0  0  0  0  0  0  0  0  0
   24.6339  -19.0630  -11.3076 O   0  0  0  0  0  0  0  0  0  0  0  0
  2  1  1  0
  2  3  2  0
  4  2  1  0
  5  4  1  0
  5  6  1  0
  6  8  1  0
  6  7  1  6
  8  9  2  0
 11 13  1  0
 11 10  1  1
 12 11  1  0
 13 14  1  6
 14  8  1  0
 15 17  1  0
 15 13  1  0
 16 15  2  0
 18 26  1  0
 18 17  1  0
 18 19  1  1
 20 19  1  0
 21 20  2  0
 22 21  1  0
 23 24  1  0
 23 22  2  0
 24 25  2  0
 25 20  1  0
 26 27  1  0
 28 26  2  0
M  END
$$$$
