QVF.pdb
     RDKit          3D

 28 28  0  0  1  0  0  0  0  0999 V2000
   46.6314  -14.3517   -6.6853 N   0  0  0  0  0  0  0  0  0  0  0  0
   46.3478  -14.2759   -8.0725 C   0  0  0  0  0  0  0  0  0  0  0  0
   47.0626  -14.9395   -8.8557 O   0  0  0  0  0  0  0  0  0  0  0  0
   45.2471  -13.4412   -8.5471 C   0  0  0  0  0  0  0  0  0  0  0  0
   44.4668  -12.8088   -7.4351 C   0  0  0  0  0  0  0  0  0  0  0  0
   45.0314  -11.5044   -6.9481 C   0  0  2  0  0  0  0  0  0  0  0  0
   45.7993  -11.7124   -5.7368 N   0  0  0  0  0  0  0  0  0  0  0  0
   43.8729  -10.5989   -6.7090 C   0  0  0  0  0  0  0  0  0  0  0  0
   43.0573  -10.8618   -5.7898 O   0  0  0  0  0  0  0  0  0  0  0  0
   42.2194   -6.0962   -6.5740 C   0  0  0  0  0  0  0  0  0  0  0  0
   43.3330   -7.1091   -6.8055 C   0  0  1  0  0  0  0  0  0  0  0  0
   44.1524   -7.1867   -5.5585 C   0  0  0  0  0  0  0  0  0  0  0  0
   42.6489   -8.4272   -7.1264 C   0  0  2  0  0  0  0  0  0  0  0  0
   43.6495   -9.4391   -7.4846 N   0  0  0  0  0  0  0  0  0  0  0  0
   41.7364   -8.2524   -8.2872 C   0  0  0  0  0  0  0  0  0  0  0  0
   42.1814   -8.2109   -9.4597 O   0  0  0  0  0  0  0  0  0  0  0  0
   40.3527   -8.1277   -8.1233 N   0  0  0  0  0  0  0  0  0  0  0  0
   39.4018   -7.8575   -9.1737 C   0  0  1  0  0  0  0  0  0  0  0  0
   38.1251   -8.5687   -9.0535 C   0  0  0  0  0  0  0  0  0  0  0  0
   37.5443   -8.3462   -7.7176 C   0  0  0  0  0  0  0  0  0  0  0  0
   36.7827   -7.2140   -7.5278 C   0  0  0  0  0  0  0  0  0  0  0  0
   36.1739   -6.9267   -6.3342 C   0  0  0  0  0  0  0  0  0  0  0  0
   36.3459   -7.8239   -5.2954 C   0  0  0  0  0  0  0  0  0  0  0  0
   37.0951   -8.9635   -5.4389 C   0  0  0  0  0  0  0  0  0  0  0  0
   37.6949   -9.2196   -6.6605 C   0  0  0  0  0  0  0  0  0  0  0  0
   39.2177   -6.4045   -9.2619 C   0  0  0  0  0  0  0  0  0  0  0  0
   38.7449   -5.6961  -10.3523 O   0  0  0  0  0  0  0  0  0  0  0  0
   39.5130   -5.6704   -8.2535 O   0  0  0  0  0  0  0  0  0  0  0  0
  2  1  1  0
  2  3  2  0
  4  2  1  0
  5  4  1  0
  5  6  1  0
  6  8  1  0
  6  7  1  1
  8  9  2  0
 11 13  1  0
 11 10  1  1
 12 11  1  0
 13 14  1  6
 14  8  1  0
 15 17  1  0
 15 13  1  0
 16 15  2  0
 18 26  1  0
 18 17  1  0
 18 19  1  1
 20 19  1  0
 21 20  2  0
 22 21  1  0
 23 24  1  0
 23 22  2  0
 24 25  2  0
 25 20  1  0
 26 27  1  0
 28 26  2  0
M  END
$$$$
