QVF.pdb
     RDKit          3D

 28 28  0  0  1  0  0  0  0  0999 V2000
   19.7414  -16.7680  -14.3584 N   0  0  0  0  0  0  0  0  0  0  0  0
   18.5663  -16.1286  -14.8282 C   0  0  0  0  0  0  0  0  0  0  0  0
   17.6056  -16.0090  -14.0362 O   0  0  0  0  0  0  0  0  0  0  0  0
   18.5054  -15.6321  -16.2005 C   0  0  0  0  0  0  0  0  0  0  0  0
   19.0590  -14.2476  -16.3500 C   0  0  0  0  0  0  0  0  0  0  0  0
   18.9743  -13.6957  -17.7449 C   0  0  2  0  0  0  0  0  0  0  0  0
   19.9093  -14.3833  -18.6129 N   0  0  0  0  0  0  0  0  0  0  0  0
   19.2878  -12.2424  -17.6502 C   0  0  0  0  0  0  0  0  0  0  0  0
   20.4582  -11.8429  -17.8728 O   0  0  0  0  0  0  0  0  0  0  0  0
   17.7520   -7.6447  -17.9947 C   0  0  0  0  0  0  0  0  0  0  0  0
   17.5895   -9.1368  -18.2532 C   0  0  1  0  0  0  0  0  0  0  0  0
   17.8823   -9.3893  -19.6964 C   0  0  0  0  0  0  0  0  0  0  0  0
   18.5771   -9.8374  -17.3354 C   0  0  2  0  0  0  0  0  0  0  0  0
   18.3089  -11.2799  -17.3155 N   0  0  0  0  0  0  0  0  0  0  0  0
   18.4286   -9.3234  -15.9482 C   0  0  0  0  0  0  0  0  0  0  0  0
   17.3708   -9.5085  -15.2992 O   0  0  0  0  0  0  0  0  0  0  0  0
   19.4543   -8.6165  -15.3117 N   0  0  0  0  0  0  0  0  0  0  0  0
   19.4522   -8.1881  -13.9342 C   0  0  1  0  0  0  0  0  0  0  0  0
   20.7762   -8.0956  -13.3108 C   0  0  0  0  0  0  0  0  0  0  0  0
   21.6413   -7.1914  -14.0891 C   0  0  0  0  0  0  0  0  0  0  0  0
   21.7356   -5.8799  -13.6783 C   0  0  0  0  0  0  0  0  0  0  0  0
   22.5334   -4.9642  -14.3130 C   0  0  0  0  0  0  0  0  0  0  0  0
   23.2621   -5.3985  -15.4059 C   0  0  0  0  0  0  0  0  0  0  0  0
   23.1993   -6.6943  -15.8499 C   0  0  0  0  0  0  0  0  0  0  0  0
   22.3817   -7.5908  -15.1823 C   0  0  0  0  0  0  0  0  0  0  0  0
   18.7127   -6.9237  -13.8492 C   0  0  0  0  0  0  0  0  0  0  0  0
   18.4253   -6.0626  -14.8933 O   0  0  0  0  0  0  0  0  0  0  0  0
   18.2683   -6.5298  -12.7132 O   0  0  0  0  0  0  0  0  0  0  0  0
  2  1  1  0
  2  3  2  0
  4  2  1  0
  5  4  1  0
  5  6  1  0
  6  8  1  0
  6  7  1  6
  8  9  2  0
 11 13  1  0
 11 10  1  6
 12 11  1  0
 13 14  1  1
 14  8  1  0
 15 17  1  0
 15 13  1  0
 16 15  2  0
 18 26  1  0
 18 17  1  0
 18 19  1  6
 20 19  1  0
 21 20  2  0
 22 21  1  0
 23 24  1  0
 23 22  2  0
 24 25  2  0
 25 20  1  0
 26 27  1  0
 28 26  2  0
M  END
$$$$
