QVF.pdb
     RDKit          3D

 28 28  0  0  1  0  0  0  0  0999 V2000
   28.6868  -22.2868  -15.1554 N   0  0  0  0  0  0  0  0  0  0  0  0
   28.6720  -21.1206  -15.9617 C   0  0  0  0  0  0  0  0  0  0  0  0
   28.1157  -21.1863  -17.0801 O   0  0  0  0  0  0  0  0  0  0  0  0
   29.2941  -19.8911  -15.4770 C   0  0  0  0  0  0  0  0  0  0  0  0
   28.4447  -19.1528  -14.4876 C   0  0  0  0  0  0  0  0  0  0  0  0
   26.9692  -19.2301  -14.7609 C   0  0  2  0  0  0  0  0  0  0  0  0
   26.5601  -18.1324  -15.6141 N   0  0  0  0  0  0  0  0  0  0  0  0
   26.2853  -19.1755  -13.4386 C   0  0  0  0  0  0  0  0  0  0  0  0
   26.0870  -18.0643  -12.8864 O   0  0  0  0  0  0  0  0  0  0  0  0
   23.0837  -21.0067  -10.3196 C   0  0  0  0  0  0  0  0  0  0  0  0
   23.7958  -21.0955  -11.6630 C   0  0  1  0  0  0  0  0  0  0  0  0
   22.8868  -20.5297  -12.7051 C   0  0  0  0  0  0  0  0  0  0  0  0
   25.0765  -20.2907  -11.5194 C   0  0  2  0  0  0  0  0  0  0  0  0
   25.8437  -20.3390  -12.7693 N   0  0  0  0  0  0  0  0  0  0  0  0
   25.9189  -20.8715  -10.4407 C   0  0  0  0  0  0  0  0  0  0  0  0
   26.5246  -21.9577  -10.6065 O   0  0  0  0  0  0  0  0  0  0  0  0
   26.0712  -20.2364   -9.2035 N   0  0  0  0  0  0  0  0  0  0  0  0
   26.9364  -20.6722   -8.1347 C   0  0  1  0  0  0  0  0  0  0  0  0
   28.1358  -19.8530   -7.9336 C   0  0  0  0  0  0  0  0  0  0  0  0
   28.4262  -19.7232   -6.4947 C   0  0  0  0  0  0  0  0  0  0  0  0
   27.9874  -18.5877   -5.8498 C   0  0  0  0  0  0  0  0  0  0  0  0
   28.1791  -18.3808   -4.5089 C   0  0  0  0  0  0  0  0  0  0  0  0
   28.8416  -19.3652   -3.7975 C   0  0  0  0  0  0  0  0  0  0  0  0
   29.2957  -20.5115   -4.3976 C   0  0  0  0  0  0  0  0  0  0  0  0
   29.0830  -20.6847   -5.7550 C   0  0  0  0  0  0  0  0  0  0  0  0
   26.1330  -20.7836   -6.9120 C   0  0  0  0  0  0  0  0  0  0  0  0
   25.0002  -20.0538   -6.5981 O   0  0  0  0  0  0  0  0  0  0  0  0
   26.4748  -21.6268   -6.0090 O   0  0  0  0  0  0  0  0  0  0  0  0
  2  1  1  0
  2  3  2  0
  4  2  1  0
  5  4  1  0
  5  6  1  0
  6  8  1  0
  6  7  1  6
  8  9  2  0
 11 13  1  0
 11 10  1  1
 12 11  1  0
 13 14  1  6
 14  8  1  0
 15 17  1  0
 15 13  1  0
 16 15  2  0
 18 26  1  0
 18 17  1  0
 18 19  1  1
 20 19  1  0
 21 20  2  0
 22 21  1  0
 23 24  1  0
 23 22  2  0
 24 25  2  0
 25 20  1  0
 26 27  1  0
 28 26  2  0
M  END
$$$$
