QVF.pdb
     RDKit          3D

 28 28  0  0  1  0  0  0  0  0999 V2000
  -17.1947  -10.6655  -51.2673 N   0  0  0  0  0  0  0  0  0  0  0  0
  -17.0209  -10.5279  -49.8669 C   0  0  0  0  0  0  0  0  0  0  0  0
  -18.0401  -10.3581  -49.1620 O   0  0  0  0  0  0  0  0  0  0  0  0
  -15.6807  -10.5875  -49.2892 C   0  0  0  0  0  0  0  0  0  0  0  0
  -15.2584   -9.3000  -48.6492 C   0  0  0  0  0  0  0  0  0  0  0  0
  -13.8343   -9.2861  -48.1702 C   0  0  2  0  0  0  0  0  0  0  0  0
  -12.9896   -8.6053  -49.1311 N   0  0  0  0  0  0  0  0  0  0  0  0
  -13.4262  -10.7085  -47.9989 C   0  0  0  0  0  0  0  0  0  0  0  0
  -12.2249  -10.9860  -47.7559 O   0  0  0  0  0  0  0  0  0  0  0  0
  -12.3531  -14.6439  -47.0030 C   0  0  0  0  0  0  0  0  0  0  0  0
  -13.0531  -13.8520  -48.0996 C   0  0  1  0  0  0  0  0  0  0  0  0
  -13.5952  -14.8243  -49.0962 C   0  0  0  0  0  0  0  0  0  0  0  0
  -14.1527  -13.0579  -47.4148 C   0  0  2  0  0  0  0  0  0  0  0  0
  -14.3477  -11.7750  -48.0999 N   0  0  0  0  0  0  0  0  0  0  0  0
  -13.7675  -12.7732  -46.0073 C   0  0  0  0  0  0  0  0  0  0  0  0
  -14.4321  -11.9752  -45.3032 O   0  0  0  0  0  0  0  0  0  0  0  0
  -12.6557  -13.3785  -45.4119 N   0  0  0  0  0  0  0  0  0  0  0  0
  -11.2812  -13.1846  -45.8041 C   0  0  1  0  0  0  0  0  0  0  0  0
  -11.0858  -12.3323  -46.9812 C   0  0  0  0  0  0  0  0  0  0  0  0
  -10.2208  -11.1886  -46.6414 C   0  0  0  0  0  0  0  0  0  0  0  0
   -9.9822  -10.9363  -45.3083 C   0  0  0  0  0  0  0  0  0  0  0  0
   -9.1704   -9.9167  -44.8849 C   0  0  0  0  0  0  0  0  0  0  0  0
   -8.5795   -9.1246  -45.8529 C   0  0  0  0  0  0  0  0  0  0  0  0
   -8.7883   -9.3390  -47.1911 C   0  0  0  0  0  0  0  0  0  0  0  0
   -9.6153  -10.3794  -47.5804 C   0  0  0  0  0  0  0  0  0  0  0  0
  -10.5372  -12.6943  -44.6383 C   0  0  0  0  0  0  0  0  0  0  0  0
   -9.5848  -11.6908  -44.6281 O   0  0  0  0  0  0  0  0  0  0  0  0
  -10.7528  -13.2180  -43.4884 O   0  0  0  0  0  0  0  0  0  0  0  0
  2  1  1  0
  2  3  2  0
  4  2  1  0
  5  4  1  0
  5  6  1  0
  6  8  1  0
  6  7  1  6
  8  9  2  0
 11 13  1  0
 11 10  1  1
 12 11  1  0
 13 14  1  6
 14  8  1  0
 15 17  1  0
 15 13  1  0
 16 15  2  0
 18 26  1  0
 18 17  1  0
 18 19  1  6
 20 19  1  0
 21 20  2  0
 22 21  1  0
 23 24  1  0
 23 22  2  0
 24 25  2  0
 25 20  1  0
 26 27  1  0
 28 26  2  0
M  END
$$$$
