QVF.pdb
     RDKit          3D

 28 28  0  0  1  0  0  0  0  0999 V2000
   29.4031  -18.5580  -18.7221 N   0  0  0  0  0  0  0  0  0  0  0  0
   29.2191  -17.2968  -18.1009 C   0  0  0  0  0  0  0  0  0  0  0  0
   29.0135  -16.3047  -18.8344 O   0  0  0  0  0  0  0  0  0  0  0  0
   29.2717  -17.1864  -16.6454 C   0  0  0  0  0  0  0  0  0  0  0  0
   27.9214  -17.0109  -16.0198 C   0  0  0  0  0  0  0  0  0  0  0  0
   26.9543  -18.1222  -16.3156 C   0  0  2  0  0  0  0  0  0  0  0  0
   26.1523  -17.7919  -17.4766 N   0  0  0  0  0  0  0  0  0  0  0  0
   26.1091  -18.2892  -15.1003 C   0  0  0  0  0  0  0  0  0  0  0  0
   25.7152  -17.2745  -14.4724 O   0  0  0  0  0  0  0  0  0  0  0  0
   22.6625  -20.5466  -12.6952 C   0  0  0  0  0  0  0  0  0  0  0  0
   23.4863  -20.2874  -13.9497 C   0  0  1  0  0  0  0  0  0  0  0  0
   22.7389  -19.3112  -14.7987 C   0  0  0  0  0  0  0  0  0  0  0  0
   24.8197  -19.7340  -13.4760 C   0  0  2  0  0  0  0  0  0  0  0  0
   25.7261  -19.5605  -14.6168 N   0  0  0  0  0  0  0  0  0  0  0  0
   25.4530  -20.6874  -12.5270 C   0  0  0  0  0  0  0  0  0  0  0  0
   25.8439  -21.8169  -12.9086 O   0  0  0  0  0  0  0  0  0  0  0  0
   25.6388  -20.3683  -11.1776 N   0  0  0  0  0  0  0  0  0  0  0  0
   26.0856  -21.2783  -10.1514 C   0  0  1  0  0  0  0  0  0  0  0  0
   27.5046  -21.1680   -9.7988 C   0  0  0  0  0  0  0  0  0  0  0  0
   27.6544  -20.4658   -8.5118 C   0  0  0  0  0  0  0  0  0  0  0  0
   27.1266  -19.1978   -8.4057 C   0  0  0  0  0  0  0  0  0  0  0  0
   27.1854  -18.4695   -7.2464 C   0  0  0  0  0  0  0  0  0  0  0  0
   27.8038  -19.0524   -6.1548 C   0  0  0  0  0  0  0  0  0  0  0  0
   28.3429  -20.3118   -6.2145 C   0  0  0  0  0  0  0  0  0  0  0  0
   28.2639  -21.0170   -7.4037 C   0  0  0  0  0  0  0  0  0  0  0  0
   25.2126  -21.1156   -8.9835 C   0  0  0  0  0  0  0  0  0  0  0  0
   25.1542  -21.9403   -7.8741 O   0  0  0  0  0  0  0  0  0  0  0  0
   24.3999  -20.1253   -8.9382 O   0  0  0  0  0  0  0  0  0  0  0  0
  2  1  1  0
  2  3  2  0
  4  2  1  0
  5  4  1  0
  5  6  1  0
  6  8  1  0
  6  7  1  6
  8  9  2  0
 11 13  1  0
 11 10  1  1
 12 11  1  0
 13 14  1  6
 14  8  1  0
 15 17  1  0
 15 13  1  0
 16 15  2  0
 18 26  1  0
 18 17  1  0
 18 19  1  1
 20 19  1  0
 21 20  2  0
 22 21  1  0
 23 24  1  0
 23 22  2  0
 24 25  2  0
 25 20  1  0
 26 27  1  0
 28 26  2  0
M  END
$$$$
