QVF.pdb
     RDKit          3D

 28 28  0  0  1  0  0  0  0  0999 V2000
   27.3581  -23.0422  -14.8343 N   0  0  0  0  0  0  0  0  0  0  0  0
   28.3695  -22.5864  -15.7172 C   0  0  0  0  0  0  0  0  0  0  0  0
   28.6924  -23.3259  -16.6730 O   0  0  0  0  0  0  0  0  0  0  0  0
   28.9993  -21.2872  -15.4960 C   0  0  0  0  0  0  0  0  0  0  0  0
   28.4000  -20.5308  -14.3496 C   0  0  0  0  0  0  0  0  0  0  0  0
   27.0224  -19.9938  -14.6166 C   0  0  2  0  0  0  0  0  0  0  0  0
   27.0977  -18.8240  -15.4687 N   0  0  0  0  0  0  0  0  0  0  0  0
   26.4270  -19.6640  -13.2914 C   0  0  0  0  0  0  0  0  0  0  0  0
   26.7084  -18.5717  -12.7376 O   0  0  0  0  0  0  0  0  0  0  0  0
   22.9416  -20.3343   -9.9340 C   0  0  0  0  0  0  0  0  0  0  0  0
   23.4554  -20.5702  -11.3482 C   0  0  1  0  0  0  0  0  0  0  0  0
   22.6755  -19.6947  -12.2743 C   0  0  0  0  0  0  0  0  0  0  0  0
   24.9324  -20.2143  -11.3288 C   0  0  2  0  0  0  0  0  0  0  0  0
   25.5457  -20.5418  -12.6211 N   0  0  0  0  0  0  0  0  0  0  0  0
   25.6275  -21.0031  -10.2775 C   0  0  0  0  0  0  0  0  0  0  0  0
   25.7377  -22.2495  -10.3702 O   0  0  0  0  0  0  0  0  0  0  0  0
   26.1845  -20.3939   -9.1480 N   0  0  0  0  0  0  0  0  0  0  0  0
   26.8690  -21.0744   -8.0761 C   0  0  1  0  0  0  0  0  0  0  0  0
   28.2192  -20.5799   -7.7889 C   0  0  0  0  0  0  0  0  0  0  0  0
   28.2527  -19.9370   -6.4632 C   0  0  0  0  0  0  0  0  0  0  0  0
   28.6105  -20.7115   -5.3817 C   0  0  0  0  0  0  0  0  0  0  0  0
   28.7011  -20.2065   -4.1110 C   0  0  0  0  0  0  0  0  0  0  0  0
   28.4172  -18.8641   -3.9339 C   0  0  0  0  0  0  0  0  0  0  0  0
   28.0572  -18.0554   -4.9812 C   0  0  0  0  0  0  0  0  0  0  0  0
   27.9766  -18.6022   -6.2509 C   0  0  0  0  0  0  0  0  0  0  0  0
   26.0063  -21.0438   -6.8897 C   0  0  0  0  0  0  0  0  0  0  0  0
   26.0267  -21.9330   -5.8299 O   0  0  0  0  0  0  0  0  0  0  0  0
   25.1247  -20.1202   -6.7762 O   0  0  0  0  0  0  0  0  0  0  0  0
  2  1  1  0
  2  3  2  0
  4  2  1  0
  5  4  1  0
  5  6  1  0
  6  8  1  0
  6  7  1  6
  8  9  2  0
 11 13  1  0
 11 10  1  1
 12 11  1  0
 13 14  1  6
 14  8  1  0
 15 17  1  0
 15 13  1  0
 16 15  2  0
 18 26  1  0
 18 17  1  0
 18 19  1  1
 20 19  1  0
 21 20  2  0
 22 21  1  0
 23 24  1  0
 23 22  2  0
 24 25  2  0
 25 20  1  0
 26 27  1  0
 28 26  2  0
M  END
$$$$
