QVF.pdb
     RDKit          3D

 28 28  0  0  1  0  0  0  0  0999 V2000
   22.0343  -23.3752  -13.8201 N   0  0  0  0  0  0  0  0  0  0  0  0
   21.9441  -24.7168  -14.2700 C   0  0  0  0  0  0  0  0  0  0  0  0
   20.8243  -25.1419  -14.6305 O   0  0  0  0  0  0  0  0  0  0  0  0
   23.1387  -25.5566  -14.3030 C   0  0  0  0  0  0  0  0  0  0  0  0
   24.3747  -24.8389  -13.8526 C   0  0  0  0  0  0  0  0  0  0  0  0
   24.8149  -23.7322  -14.7685 C   0  0  2  0  0  0  0  0  0  0  0  0
   25.4177  -24.2833  -15.9657 N   0  0  0  0  0  0  0  0  0  0  0  0
   25.7869  -22.9032  -14.0022 C   0  0  0  0  0  0  0  0  0  0  0  0
   27.0148  -23.1617  -14.0710 O   0  0  0  0  0  0  0  0  0  0  0  0
   26.9528  -18.5140  -12.3886 C   0  0  0  0  0  0  0  0  0  0  0  0
   25.9732  -19.4499  -13.0843 C   0  0  1  0  0  0  0  0  0  0  0  0
   26.1406  -19.2792  -14.5592 C   0  0  0  0  0  0  0  0  0  0  0  0
   26.3272  -20.8541  -12.6246 C   0  0  2  0  0  0  0  0  0  0  0  0
   25.3795  -21.8220  -13.1889 N   0  0  0  0  0  0  0  0  0  0  0  0
   26.2403  -20.9366  -11.1426 C   0  0  0  0  0  0  0  0  0  0  0  0
   25.1449  -21.1508  -10.5695 O   0  0  0  0  0  0  0  0  0  0  0  0
   27.3679  -20.7801  -10.3296 N   0  0  0  0  0  0  0  0  0  0  0  0
   27.3773  -20.8164   -8.8876 C   0  0  1  0  0  0  0  0  0  0  0  0
   28.5962  -20.2946   -8.2613 C   0  0  0  0  0  0  0  0  0  0  0  0
   28.3874  -20.1194   -6.8131 C   0  0  0  0  0  0  0  0  0  0  0  0
   28.8904  -21.0852   -5.9693 C   0  0  0  0  0  0  0  0  0  0  0  0
   28.7769  -21.0047   -4.6060 C   0  0  0  0  0  0  0  0  0  0  0  0
   28.1278  -19.9012   -4.0817 C   0  0  0  0  0  0  0  0  0  0  0  0
   27.6116  -18.9156   -4.8833 C   0  0  0  0  0  0  0  0  0  0  0  0
   27.7461  -19.0322   -6.2566 C   0  0  0  0  0  0  0  0  0  0  0  0
   26.1726  -20.1322   -8.4046 C   0  0  0  0  0  0  0  0  0  0  0  0
   25.2449  -20.6280   -7.5058 O   0  0  0  0  0  0  0  0  0  0  0  0
   25.9050  -18.9531   -8.8304 O   0  0  0  0  0  0  0  0  0  0  0  0
  2  1  1  0
  2  3  2  0
  4  2  1  0
  5  4  1  0
  5  6  1  0
  6  8  1  0
  6  7  1  6
  8  9  2  0
 11 13  1  0
 11 10  1  1
 12 11  1  0
 13 14  1  6
 14  8  1  0
 15 17  1  0
 15 13  1  0
 16 15  2  0
 18 26  1  0
 18 17  1  0
 18 19  1  1
 20 19  1  0
 21 20  2  0
 22 21  1  0
 23 24  1  0
 23 22  2  0
 24 25  2  0
 25 20  1  0
 26 27  1  0
 28 26  2  0
M  END
$$$$
