QVF.pdb
     RDKit          3D

 28 28  0  0  1  0  0  0  0  0999 V2000
   17.9166  -13.0542  -15.6619 N   0  0  0  0  0  0  0  0  0  0  0  0
   18.2819  -13.1098  -17.0308 C   0  0  0  0  0  0  0  0  0  0  0  0
   17.4086  -12.8371  -17.8838 O   0  0  0  0  0  0  0  0  0  0  0  0
   19.6448  -13.4762  -17.4073 C   0  0  0  0  0  0  0  0  0  0  0  0
   20.5225  -12.2896  -17.6665 C   0  0  0  0  0  0  0  0  0  0  0  0
   20.3417  -11.6722  -19.0243 C   0  0  2  0  0  0  0  0  0  0  0  0
   21.0125  -12.4708  -20.0306 N   0  0  0  0  0  0  0  0  0  0  0  0
   20.9135  -10.2987  -18.9499 C   0  0  0  0  0  0  0  0  0  0  0  0
   22.1291  -10.1160  -19.2109 O   0  0  0  0  0  0  0  0  0  0  0  0
   20.2594   -5.4810  -19.1257 C   0  0  0  0  0  0  0  0  0  0  0  0
   19.8622   -6.9091  -19.4754 C   0  0  1  0  0  0  0  0  0  0  0  0
   20.1749   -7.1344  -20.9190 C   0  0  0  0  0  0  0  0  0  0  0  0
   20.6758   -7.8121  -18.5636 C   0  0  2  0  0  0  0  0  0  0  0  0
   20.1340   -9.1756  -18.5924 N   0  0  0  0  0  0  0  0  0  0  0  0
   20.5989   -7.3168  -17.1639 C   0  0  0  0  0  0  0  0  0  0  0  0
   19.4981   -7.2278  -16.5684 O   0  0  0  0  0  0  0  0  0  0  0  0
   21.7422   -6.9314  -16.4559 N   0  0  0  0  0  0  0  0  0  0  0  0
   21.7657   -6.4314  -15.1030 C   0  0  1  0  0  0  0  0  0  0  0  0
   22.0980   -7.4269  -14.0789 C   0  0  0  0  0  0  0  0  0  0  0  0
   23.2343   -8.2529  -14.5241 C   0  0  0  0  0  0  0  0  0  0  0  0
   23.1996   -9.6006  -14.2411 C   0  0  0  0  0  0  0  0  0  0  0  0
   24.1898  -10.4622  -14.6346 C   0  0  0  0  0  0  0  0  0  0  0  0
   25.2547   -9.9335  -15.3420 C   0  0  0  0  0  0  0  0  0  0  0  0
   25.3311   -8.5985  -15.6462 C   0  0  0  0  0  0  0  0  0  0  0  0
   24.3108   -7.7591  -15.2315 C   0  0  0  0  0  0  0  0  0  0  0  0
   22.6650   -5.2729  -15.0586 C   0  0  0  0  0  0  0  0  0  0  0  0
   23.4783   -4.8184  -16.0815 O   0  0  0  0  0  0  0  0  0  0  0  0
   22.7442   -4.5785  -13.9840 O   0  0  0  0  0  0  0  0  0  0  0  0
  2  1  1  0
  2  3  2  0
  4  2  1  0
  5  4  1  0
  5  6  1  0
  6  8  1  0
  6  7  1  6
  8  9  2  0
 11 13  1  0
 11 10  1  1
 12 11  1  0
 13 14  1  1
 14  8  1  0
 15 17  1  0
 15 13  1  0
 16 15  2  0
 18 26  1  0
 18 17  1  0
 18 19  1  1
 20 19  1  0
 21 20  2  0
 22 21  1  0
 23 24  1  0
 23 22  2  0
 24 25  2  0
 25 20  1  0
 26 27  1  0
 28 26  2  0
M  END
$$$$
