QVF.pdb
     RDKit          3D

 28 28  0  0  1  0  0  0  0  0999 V2000
   28.2534  -20.6175  -16.8720 N   0  0  0  0  0  0  0  0  0  0  0  0
   29.0842  -21.5626  -16.2188 C   0  0  0  0  0  0  0  0  0  0  0  0
   29.5925  -22.4741  -16.9082 O   0  0  0  0  0  0  0  0  0  0  0  0
   29.3245  -21.4522  -14.7822 C   0  0  0  0  0  0  0  0  0  0  0  0
   28.7682  -20.1942  -14.1879 C   0  0  0  0  0  0  0  0  0  0  0  0
   27.2797  -20.0484  -14.3321 C   0  0  2  0  0  0  0  0  0  0  0  0
   26.9693  -18.9941  -15.2768 N   0  0  0  0  0  0  0  0  0  0  0  0
   26.7465  -19.7381  -12.9761 C   0  0  0  0  0  0  0  0  0  0  0  0
   26.9119  -18.5912  -12.4902 O   0  0  0  0  0  0  0  0  0  0  0  0
   23.4589  -20.4721   -9.5015 C   0  0  0  0  0  0  0  0  0  0  0  0
   23.9987  -20.8393  -10.8775 C   0  0  1  0  0  0  0  0  0  0  0  0
   23.1620  -20.1442  -11.9017 C   0  0  0  0  0  0  0  0  0  0  0  0
   25.4448  -20.3740  -10.9049 C   0  0  2  0  0  0  0  0  0  0  0  0
   26.0518  -20.6945  -12.2019 N   0  0  0  0  0  0  0  0  0  0  0  0
   26.2207  -21.0761   -9.8487 C   0  0  0  0  0  0  0  0  0  0  0  0
   26.5894  -22.2659   -9.9994 O   0  0  0  0  0  0  0  0  0  0  0  0
   26.5705  -20.4448   -8.6502 N   0  0  0  0  0  0  0  0  0  0  0  0
   27.3005  -21.0490   -7.5627 C   0  0  1  0  0  0  0  0  0  0  0  0
   28.6836  -20.5863   -7.4106 C   0  0  0  0  0  0  0  0  0  0  0  0
   28.8660  -19.9578   -6.0902 C   0  0  0  0  0  0  0  0  0  0  0  0
   28.3352  -18.7013   -5.8971 C   0  0  0  0  0  0  0  0  0  0  0  0
   28.4229  -18.0400   -4.7001 C   0  0  0  0  0  0  0  0  0  0  0  0
   29.0746  -18.6803   -3.6612 C   0  0  0  0  0  0  0  0  0  0  0  0
   29.6180  -19.9307   -3.8079 C   0  0  0  0  0  0  0  0  0  0  0  0
   29.5090  -20.5673   -5.0329 C   0  0  0  0  0  0  0  0  0  0  0  0
   26.5207  -20.8704   -6.3328 C   0  0  0  0  0  0  0  0  0  0  0  0
   26.6356  -21.6068   -5.1671 O   0  0  0  0  0  0  0  0  0  0  0  0
   25.6263  -19.9535   -6.2822 O   0  0  0  0  0  0  0  0  0  0  0  0
  2  1  1  0
  2  3  2  0
  4  2  1  0
  5  4  1  0
  5  6  1  0
  6  8  1  0
  6  7  1  6
  8  9  2  0
 11 13  1  0
 11 10  1  1
 12 11  1  0
 13 14  1  6
 14  8  1  0
 15 17  1  0
 15 13  1  0
 16 15  2  0
 18 26  1  0
 18 17  1  0
 18 19  1  1
 20 19  1  0
 21 20  2  0
 22 21  1  0
 23 24  1  0
 23 22  2  0
 24 25  2  0
 25 20  1  0
 26 27  1  0
 28 26  2  0
M  END
$$$$
