PVY.pdb
     RDKit          3D

 27 28  0  0  1  0  0  0  0  0999 V2000
   24.7697  -17.9510  -17.7367 N   0  0  0  0  0  0  0  0  0  0  0  0
   24.2087  -17.0366  -18.7183 C   0  0  0  0  0  0  0  0  0  0  0  0
   25.2809  -16.9722  -19.7928 C   0  0  0  0  0  0  0  0  0  0  0  0
   26.1633  -18.1905  -19.5465 C   0  0  0  0  0  0  0  0  0  0  0  0
   25.3338  -18.9760  -18.5737 C   0  0  1  0  0  0  0  0  0  0  0  0
   26.0881  -19.9254  -17.7619 C   0  0  0  0  0  0  0  0  0  0  0  0
   26.5999  -20.9889  -18.2010 O   0  0  0  0  0  0  0  0  0  0  0  0
   29.2411  -20.6989  -14.2535 C   0  0  0  0  0  0  0  0  0  0  0  0
   28.3527  -19.9200  -15.1694 C   0  0  2  0  0  0  0  0  0  0  0  0
   28.1665  -18.5470  -14.5524 C   0  0  0  0  0  0  0  0  0  0  0  0
   27.0609  -20.5768  -15.5206 C   0  0  2  0  0  0  0  0  0  0  0  0
   26.2764  -19.6643  -16.3836 N   0  0  0  0  0  0  0  0  0  0  0  0
   26.2074  -20.9849  -14.3978 C   0  0  0  0  0  0  0  0  0  0  0  0
   26.6106  -21.8879  -13.6272 O   0  0  0  0  0  0  0  0  0  0  0  0
   21.1262  -21.3138   -7.4449 O   0  0  0  0  0  0  0  0  0  0  0  0
   21.8932  -20.9570   -8.5460 C   0  0  0  0  0  0  0  0  0  0  0  0
   21.2928  -20.3211   -9.6141 C   0  0  0  0  0  0  0  0  0  0  0  0
   22.0464  -19.9656  -10.7060 C   0  0  0  0  0  0  0  0  0  0  0  0
   23.4129  -20.2409  -10.7463 C   0  0  0  0  0  0  0  0  0  0  0  0
   24.1583  -19.8450  -11.9426 C   0  0  0  0  0  0  0  0  0  0  0  0
   24.1697  -20.9209  -13.0209 C   0  0  2  0  0  0  0  0  0  0  0  0
   24.9582  -20.3962  -14.1536 N   0  0  0  0  0  0  0  0  0  0  0  0
   22.8016  -21.1568  -13.4989 C   0  0  0  0  0  0  0  0  0  0  0  0
   22.0485  -22.1863  -12.9765 O   0  0  0  0  0  0  0  0  0  0  0  0
   24.0019  -20.8776   -9.6718 C   0  0  0  0  0  0  0  0  0  0  0  0
   23.2403  -21.2282   -8.5864 C   0  0  0  0  0  0  0  0  0  0  0  0
   22.2674  -20.4456  -14.3874 O   0  0  0  0  0  0  0  0  0  0  0  0
  1  2  1  0
  2  3  1  0
  4  3  1  0
  5  1  1  0
  5  4  1  0
  5  6  1  1
  7  6  2  0
  9 11  1  0
  9  8  1  1
 10  9  1  0
 11 12  1  6
 12  6  1  0
 13 11  1  0
 14 13  2  0
 16 15  1  0
 17 16  2  0
 18 17  1  0
 19 25  1  0
 19 18  2  0
 21 20  1  1
 20 19  1  0
 21 23  1  0
 21 22  1  0
 22 13  1  0
 23 24  1  0
 25 26  2  0
 26 16  1  0
 27 23  2  0
M  END
$$$$
