PVY.pdb
     RDKit          3D

 27 28  0  0  1  0  0  0  0  0999 V2000
   19.3807  -10.7780  -18.0369 N   0  0  0  0  0  0  0  0  0  0  0  0
   18.5568  -11.5249  -18.9737 C   0  0  0  0  0  0  0  0  0  0  0  0
   17.7619  -12.4587  -18.0768 C   0  0  0  0  0  0  0  0  0  0  0  0
   17.8771  -11.8604  -16.6794 C   0  0  0  0  0  0  0  0  0  0  0  0
   18.4500  -10.5053  -16.9744 C   0  0  1  0  0  0  0  0  0  0  0  0
   19.1421   -9.8821  -15.8511 C   0  0  0  0  0  0  0  0  0  0  0  0
   18.6112   -9.6337  -14.7366 O   0  0  0  0  0  0  0  0  0  0  0  0
   23.4370   -9.7502  -15.8952 C   0  0  0  0  0  0  0  0  0  0  0  0
   22.5385   -9.7361  -14.7005 C   0  0  2  0  0  0  0  0  0  0  0  0
   22.2953  -11.1803  -14.3059 C   0  0  0  0  0  0  0  0  0  0  0  0
   21.2760   -8.9584  -14.8574 C   0  0  2  0  0  0  0  0  0  0  0  0
   20.5032   -9.5192  -15.9893 N   0  0  0  0  0  0  0  0  0  0  0  0
   21.4199   -7.5140  -15.0778 C   0  0  0  0  0  0  0  0  0  0  0  0
   21.6990   -7.1014  -16.2283 O   0  0  0  0  0  0  0  0  0  0  0  0
   16.4554   -4.7184  -18.3697 O   0  0  0  0  0  0  0  0  0  0  0  0
   17.3555   -4.6736  -17.3134 C   0  0  0  0  0  0  0  0  0  0  0  0
   17.8271   -3.4527  -16.8746 C   0  0  0  0  0  0  0  0  0  0  0  0
   18.7176   -3.4022  -15.8301 C   0  0  0  0  0  0  0  0  0  0  0  0
   19.1503   -4.5729  -15.2080 C   0  0  0  0  0  0  0  0  0  0  0  0
   20.1074   -4.4521  -14.1067 C   0  0  0  0  0  0  0  0  0  0  0  0
   21.4304   -5.1528  -14.3874 C   0  0  2  0  0  0  0  0  0  0  0  0
   21.2511   -6.5782  -14.0470 N   0  0  0  0  0  0  0  0  0  0  0  0
   22.4739   -4.6103  -13.5082 C   0  0  0  0  0  0  0  0  0  0  0  0
   22.9721   -3.3424  -13.7175 O   0  0  0  0  0  0  0  0  0  0  0  0
   18.6716   -5.7881  -15.6561 C   0  0  0  0  0  0  0  0  0  0  0  0
   17.7826   -5.8274  -16.6998 C   0  0  0  0  0  0  0  0  0  0  0  0
   22.9495   -5.2646  -12.5457 O   0  0  0  0  0  0  0  0  0  0  0  0
  1  2  1  0
  2  3  1  0
  4  3  1  0
  5  1  1  0
  5  4  1  0
  5  6  1  1
  7  6  2  0
  9 11  1  0
  9  8  1  6
 10  9  1  0
 11 12  1  6
 12  6  1  0
 13 11  1  0
 14 13  2  0
 16 15  1  0
 17 16  2  0
 18 17  1  0
 19 25  1  0
 19 18  2  0
 21 20  1  1
 20 19  1  0
 21 23  1  0
 21 22  1  0
 22 13  1  0
 23 24  1  0
 25 26  2  0
 26 16  1  0
 27 23  2  0
M  END
$$$$
