PVY.pdb
     RDKit          3D

 27 28  0  0  1  0  0  0  0  0999 V2000
   22.5056  -12.2557  -19.8603 N   0  0  0  0  0  0  0  0  0  0  0  0
   21.6132  -13.2382  -20.4540 C   0  0  0  0  0  0  0  0  0  0  0  0
   20.2808  -12.9562  -19.7808 C   0  0  0  0  0  0  0  0  0  0  0  0
   20.4224  -11.5578  -19.1908 C   0  0  0  0  0  0  0  0  0  0  0  0
   21.6824  -11.0760  -19.8477 C   0  0  1  0  0  0  0  0  0  0  0  0
   22.3633   -9.9988  -19.1368 C   0  0  0  0  0  0  0  0  0  0  0  0
   23.2453  -10.1735  -18.2552 O   0  0  0  0  0  0  0  0  0  0  0  0
   23.7197   -5.2789  -19.0330 C   0  0  0  0  0  0  0  0  0  0  0  0
   23.1456   -6.5166  -19.6442 C   0  0  2  0  0  0  0  0  0  0  0  0
   22.1034   -6.0755  -20.6540 C   0  0  0  0  0  0  0  0  0  0  0  0
   22.6248   -7.5260  -18.6782 C   0  0  2  0  0  0  0  0  0  0  0  0
   22.0343   -8.6546  -19.4334 N   0  0  0  0  0  0  0  0  0  0  0  0
   21.6246   -7.0533  -17.7130 C   0  0  0  0  0  0  0  0  0  0  0  0
   20.4427   -6.8873  -18.0972 O   0  0  0  0  0  0  0  0  0  0  0  0
   18.0370  -12.1002  -16.1347 O   0  0  0  0  0  0  0  0  0  0  0  0
   18.7298  -10.9766  -15.7042 C   0  0  0  0  0  0  0  0  0  0  0  0
   18.0301   -9.8356  -15.3663 C   0  0  0  0  0  0  0  0  0  0  0  0
   18.7101   -8.7211  -14.9397 C   0  0  0  0  0  0  0  0  0  0  0  0
   20.1013   -8.7307  -14.8445 C   0  0  0  0  0  0  0  0  0  0  0  0
   20.7673   -7.5078  -14.3923 C   0  0  0  0  0  0  0  0  0  0  0  0
   20.8321   -6.4317  -15.4685 C   0  0  2  0  0  0  0  0  0  0  0  0
   21.9435   -6.7853  -16.3739 N   0  0  0  0  0  0  0  0  0  0  0  0
   21.1497   -5.1363  -14.8543 C   0  0  0  0  0  0  0  0  0  0  0  0
   20.2012   -4.4649  -14.1132 O   0  0  0  0  0  0  0  0  0  0  0  0
   20.7901   -9.8779  -15.1855 C   0  0  0  0  0  0  0  0  0  0  0  0
   20.1014  -10.9853  -15.6102 C   0  0  0  0  0  0  0  0  0  0  0  0
   22.2771   -4.5931  -14.9749 O   0  0  0  0  0  0  0  0  0  0  0  0
  1  2  1  0
  2  3  1  0
  4  3  1  0
  5  1  1  0
  5  4  1  0
  5  6  1  1
  7  6  2  0
  9 11  1  0
  9  8  1  1
 10  9  1  0
 11 12  1  6
 12  6  1  0
 13 11  1  0
 14 13  2  0
 16 15  1  0
 17 16  2  0
 18 17  1  0
 19 25  1  0
 19 18  2  0
 21 20  1  1
 20 19  1  0
 21 23  1  0
 21 22  1  0
 22 13  1  0
 23 24  1  0
 25 26  2  0
 26 16  1  0
 27 23  2  0
M  END
$$$$
