PVY.pdb
     RDKit          3D

 27 28  0  0  1  0  0  0  0  0999 V2000
   27.7198  -18.6581  -16.1958 N   0  0  0  0  0  0  0  0  0  0  0  0
   28.6913  -18.0635  -17.0996 C   0  0  0  0  0  0  0  0  0  0  0  0
   29.7785  -19.1206  -17.1932 C   0  0  0  0  0  0  0  0  0  0  0  0
   29.1290  -20.4037  -16.6879 C   0  0  0  0  0  0  0  0  0  0  0  0
   27.6788  -20.0199  -16.6578 C   0  0  1  0  0  0  0  0  0  0  0  0
   26.8564  -20.8269  -15.7625 C   0  0  0  0  0  0  0  0  0  0  0  0
   26.5028  -22.0129  -15.9956 O   0  0  0  0  0  0  0  0  0  0  0  0
   25.5559  -21.8464  -11.1967 C   0  0  0  0  0  0  0  0  0  0  0  0
   26.3020  -21.1544  -12.2919 C   0  0  2  0  0  0  0  0  0  0  0  0
   26.7440  -19.8080  -11.7512 C   0  0  0  0  0  0  0  0  0  0  0  0
   25.5789  -21.0473  -13.5915 C   0  0  2  0  0  0  0  0  0  0  0  0
   26.4083  -20.2703  -14.5407 N   0  0  0  0  0  0  0  0  0  0  0  0
   24.2445  -20.4364  -13.5498 C   0  0  0  0  0  0  0  0  0  0  0  0
   24.1404  -19.2292  -13.2277 O   0  0  0  0  0  0  0  0  0  0  0  0
   15.9746  -18.3243  -15.3616 O   0  0  0  0  0  0  0  0  0  0  0  0
   17.2137  -18.9446  -15.2738 C   0  0  0  0  0  0  0  0  0  0  0  0
   18.2914  -18.4070  -15.9483 C   0  0  0  0  0  0  0  0  0  0  0  0
   19.5196  -19.0163  -15.8650 C   0  0  0  0  0  0  0  0  0  0  0  0
   19.6888  -20.1733  -15.1052 C   0  0  0  0  0  0  0  0  0  0  0  0
   21.0207  -20.7798  -15.0648 C   0  0  0  0  0  0  0  0  0  0  0  0
   21.7974  -20.4284  -13.8024 C   0  0  2  0  0  0  0  0  0  0  0  0
   23.0814  -21.1549  -13.8627 N   0  0  0  0  0  0  0  0  0  0  0  0
   21.0667  -20.9079  -12.6224 C   0  0  0  0  0  0  0  0  0  0  0  0
   20.3148  -20.0349  -11.8658 O   0  0  0  0  0  0  0  0  0  0  0  0
   18.6031  -20.7017  -14.4352 C   0  0  0  0  0  0  0  0  0  0  0  0
   17.3811  -20.0854  -14.5250 C   0  0  0  0  0  0  0  0  0  0  0  0
   21.0941  -22.1105  -12.2571 O   0  0  0  0  0  0  0  0  0  0  0  0
  1  2  1  0
  2  3  1  0
  4  3  1  0
  5  1  1  0
  5  4  1  0
  5  6  1  1
  7  6  2  0
  9 11  1  0
  9  8  1  1
 10  9  1  0
 11 12  1  6
 12  6  1  0
 13 11  1  0
 14 13  2  0
 16 15  1  0
 17 16  2  0
 18 17  1  0
 19 25  1  0
 19 18  2  0
 21 20  1  6
 20 19  1  0
 21 23  1  0
 21 22  1  0
 22 13  1  0
 23 24  1  0
 25 26  2  0
 26 16  1  0
 27 23  2  0
M  END
$$$$
