PVY.pdb
     RDKit          3D

 27 28  0  0  1  0  0  0  0  0999 V2000
   23.1224  -22.0428  -14.7147 N   0  0  0  0  0  0  0  0  0  0  0  0
   22.0362  -22.4530  -15.5900 C   0  0  0  0  0  0  0  0  0  0  0  0
   22.7161  -22.6260  -16.9377 C   0  0  0  0  0  0  0  0  0  0  0  0
   24.2038  -22.7283  -16.6214 C   0  0  0  0  0  0  0  0  0  0  0  0
   24.1868  -22.9155  -15.1328 C   0  0  1  0  0  0  0  0  0  0  0  0
   25.4286  -22.5469  -14.4610 C   0  0  0  0  0  0  0  0  0  0  0  0
   26.5016  -23.2015  -14.5383 O   0  0  0  0  0  0  0  0  0  0  0  0
   26.3330  -18.4110  -12.7978 C   0  0  0  0  0  0  0  0  0  0  0  0
   26.9991  -19.5132  -13.5571 C   0  0  2  0  0  0  0  0  0  0  0  0
   26.6352  -19.3337  -15.0186 C   0  0  0  0  0  0  0  0  0  0  0  0
   26.7261  -20.8913  -13.0576 C   0  0  2  0  0  0  0  0  0  0  0  0
   25.4650  -21.3803  -13.6604 N   0  0  0  0  0  0  0  0  0  0  0  0
   26.6253  -21.0520  -11.6018 C   0  0  0  0  0  0  0  0  0  0  0  0
   25.5202  -21.3704  -11.1023 O   0  0  0  0  0  0  0  0  0  0  0  0
   27.9813  -19.8945   -3.0390 O   0  0  0  0  0  0  0  0  0  0  0  0
   28.1636  -20.0136   -4.4103 C   0  0  0  0  0  0  0  0  0  0  0  0
   27.7131  -19.0103   -5.2447 C   0  0  0  0  0  0  0  0  0  0  0  0
   27.8907  -19.1226   -6.6021 C   0  0  0  0  0  0  0  0  0  0  0  0
   28.5220  -20.2407   -7.1460 C   0  0  0  0  0  0  0  0  0  0  0  0
   28.6721  -20.3048   -8.6010 C   0  0  0  0  0  0  0  0  0  0  0  0
   27.4758  -20.9421   -9.2960 C   0  0  2  0  0  0  0  0  0  0  0  0
   27.7236  -20.8668  -10.7496 N   0  0  0  0  0  0  0  0  0  0  0  0
   26.2640  -20.1647   -9.0074 C   0  0  0  0  0  0  0  0  0  0  0  0
   25.3133  -20.6531   -8.1371 O   0  0  0  0  0  0  0  0  0  0  0  0
   28.9680  -21.2377   -6.3011 C   0  0  0  0  0  0  0  0  0  0  0  0
   28.7858  -21.1157   -4.9472 C   0  0  0  0  0  0  0  0  0  0  0  0
   26.0441  -19.0429   -9.5305 O   0  0  0  0  0  0  0  0  0  0  0  0
  1  2  1  0
  2  3  1  0
  4  3  1  0
  5  1  1  0
  5  4  1  0
  5  6  1  1
  7  6  2  0
  9 11  1  0
  9  8  1  1
 10  9  1  0
 11 12  1  6
 12  6  1  0
 13 11  1  0
 14 13  2  0
 16 15  1  0
 17 16  2  0
 18 17  1  0
 19 25  1  0
 19 18  2  0
 21 20  1  1
 20 19  1  0
 21 23  1  0
 21 22  1  0
 22 13  1  0
 23 24  1  0
 25 26  2  0
 26 16  1  0
 27 23  2  0
M  END
$$$$
