PVY.pdb
     RDKit          3D

 27 28  0  0  1  0  0  0  0  0999 V2000
   16.4683  -27.1560   -0.1488 N   0  0  0  0  0  0  0  0  0  0  0  0
   16.5565  -28.2177   -1.1384 C   0  0  0  0  0  0  0  0  0  0  0  0
   15.1742  -28.8471   -1.1039 C   0  0  0  0  0  0  0  0  0  0  0  0
   14.2848  -27.8146   -0.4208 C   0  0  0  0  0  0  0  0  0  0  0  0
   15.1690  -26.6023   -0.4221 C   0  0  1  0  0  0  0  0  0  0  0  0
   14.8293  -25.6030    0.5856 C   0  0  0  0  0  0  0  0  0  0  0  0
   13.7363  -24.9793    0.6300 O   0  0  0  0  0  0  0  0  0  0  0  0
   17.4059  -25.1234    4.0744 C   0  0  0  0  0  0  0  0  0  0  0  0
   15.9303  -24.9035    3.9787 C   0  0  2  0  0  0  0  0  0  0  0  0
   15.2579  -26.2158    4.3341 C   0  0  0  0  0  0  0  0  0  0  0  0
   15.4493  -24.3382    2.6855 C   0  0  2  0  0  0  0  0  0  0  0  0
   15.7691  -25.2891    1.5964 N   0  0  0  0  0  0  0  0  0  0  0  0
   15.9796  -23.0220    2.3088 C   0  0  0  0  0  0  0  0  0  0  0  0
   17.0569  -22.9628    1.6702 O   0  0  0  0  0  0  0  0  0  0  0  0
    9.9661  -18.4110    2.5760 O   0  0  0  0  0  0  0  0  0  0  0  0
   11.2391  -18.8222    2.2042 C   0  0  0  0  0  0  0  0  0  0  0  0
   12.2675  -17.9019    2.1720 C   0  0  0  0  0  0  0  0  0  0  0  0
   13.5289  -18.3029    1.8051 C   0  0  0  0  0  0  0  0  0  0  0  0
   13.7812  -19.6314    1.4645 C   0  0  0  0  0  0  0  0  0  0  0  0
   15.1448  -19.9931    1.0731 C   0  0  0  0  0  0  0  0  0  0  0  0
   15.9637  -20.5633    2.2240 C   0  0  2  0  0  0  0  0  0  0  0  0
   15.3205  -21.8275    2.6339 N   0  0  0  0  0  0  0  0  0  0  0  0
   15.9154  -19.6447    3.3684 C   0  0  0  0  0  0  0  0  0  0  0  0
   16.5829  -18.4397    3.3238 O   0  0  0  0  0  0  0  0  0  0  0  0
   12.7442  -20.5427    1.5003 C   0  0  0  0  0  0  0  0  0  0  0  0
   11.4885  -20.1318    1.8682 C   0  0  0  0  0  0  0  0  0  0  0  0
   15.2766  -19.9109    4.4181 O   0  0  0  0  0  0  0  0  0  0  0  0
  1  2  1  0
  2  3  1  0
  4  3  1  0
  5  1  1  0
  5  4  1  0
  5  6  1  1
  7  6  2  0
  9 11  1  0
  9  8  1  6
 10  9  1  0
 11 12  1  6
 12  6  1  0
 13 11  1  0
 14 13  2  0
 16 15  1  0
 17 16  2  0
 18 17  1  0
 19 25  1  0
 19 18  2  0
 21 20  1  6
 20 19  1  0
 21 23  1  0
 21 22  1  0
 22 13  1  0
 23 24  1  0
 25 26  2  0
 26 16  1  0
 27 23  2  0
M  END
$$$$
