PVY.pdb
     RDKit          3D

 27 28  0  0  1  0  0  0  0  0999 V2000
   24.8472   -9.4309  -15.8998 N   0  0  0  0  0  0  0  0  0  0  0  0
   26.1983   -9.9222  -16.1179 C   0  0  0  0  0  0  0  0  0  0  0  0
   25.9848  -11.3686  -16.5307 C   0  0  0  0  0  0  0  0  0  0  0  0
   24.5186  -11.4526  -16.9391 C   0  0  0  0  0  0  0  0  0  0  0  0
   24.1397  -10.0027  -17.0143 C   0  0  1  0  0  0  0  0  0  0  0  0
   22.7097   -9.7422  -16.8854 C   0  0  0  0  0  0  0  0  0  0  0  0
   21.8356  -10.1509  -17.6945 O   0  0  0  0  0  0  0  0  0  0  0  0
   21.0677   -8.9910  -13.0988 C   0  0  0  0  0  0  0  0  0  0  0  0
   20.3416   -9.3877  -14.3439 C   0  0  2  0  0  0  0  0  0  0  0  0
   20.4041  -10.9003  -14.4362 C   0  0  0  0  0  0  0  0  0  0  0  0
   20.7957   -8.7122  -15.5932 C   0  0  2  0  0  0  0  0  0  0  0  0
   22.2386   -8.9819  -15.7885 N   0  0  0  0  0  0  0  0  0  0  0  0
   20.5920   -7.2600  -15.6635 C   0  0  0  0  0  0  0  0  0  0  0  0
   21.4552   -6.5020  -15.1611 O   0  0  0  0  0  0  0  0  0  0  0  0
   22.6763   -4.3892  -21.5621 O   0  0  0  0  0  0  0  0  0  0  0  0
   21.7070   -4.5006  -20.5742 C   0  0  0  0  0  0  0  0  0  0  0  0
   21.2991   -3.3715  -19.8927 C   0  0  0  0  0  0  0  0  0  0  0  0
   20.3405   -3.4756  -18.9146 C   0  0  0  0  0  0  0  0  0  0  0  0
   19.7748   -4.7115  -18.6028 C   0  0  0  0  0  0  0  0  0  0  0  0
   18.7649   -4.7571  -17.5438 C   0  0  0  0  0  0  0  0  0  0  0  0
   19.3252   -5.2220  -16.2057 C   0  0  2  0  0  0  0  0  0  0  0  0
   19.4675   -6.6899  -16.2776 N   0  0  0  0  0  0  0  0  0  0  0  0
   18.3674   -4.9169  -15.1354 C   0  0  0  0  0  0  0  0  0  0  0  0
   18.2110   -3.6226  -14.6880 O   0  0  0  0  0  0  0  0  0  0  0  0
   20.1912   -5.8338  -19.2913 C   0  0  0  0  0  0  0  0  0  0  0  0
   21.1489   -5.7187  -20.2663 C   0  0  0  0  0  0  0  0  0  0  0  0
   17.6624   -5.8039  -14.5907 O   0  0  0  0  0  0  0  0  0  0  0  0
  1  2  1  0
  2  3  1  0
  4  3  1  0
  5  1  1  0
  5  4  1  0
  5  6  1  1
  7  6  2  0
  9 11  1  0
  9  8  1  1
 10  9  1  0
 11 12  1  1
 12  6  1  0
 13 11  1  0
 14 13  2  0
 16 15  1  0
 17 16  2  0
 18 17  1  0
 19 25  1  0
 19 18  2  0
 21 20  1  6
 20 19  1  0
 21 23  1  0
 21 22  1  0
 22 13  1  0
 23 24  1  0
 25 26  2  0
 26 16  1  0
 27 23  2  0
M  END
$$$$
