PVY.pdb
     RDKit          3D

 27 28  0  0  1  0  0  0  0  0999 V2000
   27.6257  -19.6474  -15.9312 N   0  0  0  0  0  0  0  0  0  0  0  0
   28.3149  -19.2080  -17.1338 C   0  0  0  0  0  0  0  0  0  0  0  0
   27.5450  -17.9651  -17.5468 C   0  0  0  0  0  0  0  0  0  0  0  0
   26.7625  -17.5522  -16.3055 C   0  0  0  0  0  0  0  0  0  0  0  0
   27.4001  -18.4026  -15.2464 C   0  0  1  0  0  0  0  0  0  0  0  0
   26.5711  -18.6243  -14.0662 C   0  0  0  0  0  0  0  0  0  0  0  0
   26.0465  -17.7067  -13.3817 O   0  0  0  0  0  0  0  0  0  0  0  0
   23.1893  -21.6563  -12.3370 C   0  0  0  0  0  0  0  0  0  0  0  0
   24.3558  -21.2922  -13.1982 C   0  0  2  0  0  0  0  0  0  0  0  0
   25.0765  -22.5810  -13.5444 C   0  0  0  0  0  0  0  0  0  0  0  0
   25.2659  -20.2524  -12.6380 C   0  0  2  0  0  0  0  0  0  0  0  0
   26.3191  -19.9482  -13.6336 N   0  0  0  0  0  0  0  0  0  0  0  0
   25.9240  -20.5751  -11.3658 C   0  0  0  0  0  0  0  0  0  0  0  0
   26.8110  -21.4610  -11.3500 O   0  0  0  0  0  0  0  0  0  0  0  0
   29.5432  -19.8196   -3.4305 O   0  0  0  0  0  0  0  0  0  0  0  0
   28.8376  -19.6385   -4.6125 C   0  0  0  0  0  0  0  0  0  0  0  0
   29.3716  -18.8438   -5.6070 C   0  0  0  0  0  0  0  0  0  0  0  0
   28.6782  -18.6611   -6.7785 C   0  0  0  0  0  0  0  0  0  0  0  0
   27.4392  -19.2707   -6.9733 C   0  0  0  0  0  0  0  0  0  0  0  0
   26.7463  -19.0286   -8.2401 C   0  0  0  0  0  0  0  0  0  0  0  0
   26.3490  -20.3126   -8.9569 C   0  0  2  0  0  0  0  0  0  0  0  0
   25.5986  -19.9232  -10.1675 N   0  0  0  0  0  0  0  0  0  0  0  0
   25.4470  -21.0967   -8.1039 C   0  0  0  0  0  0  0  0  0  0  0  0
   24.0881  -21.0895   -8.3343 O   0  0  0  0  0  0  0  0  0  0  0  0
   26.9154  -20.0631   -5.9711 C   0  0  0  0  0  0  0  0  0  0  0  0
   27.6160  -20.2391   -4.8052 C   0  0  0  0  0  0  0  0  0  0  0  0
   25.8652  -21.7945   -7.1454 O   0  0  0  0  0  0  0  0  0  0  0  0
  1  2  1  0
  2  3  1  0
  4  3  1  0
  5  1  1  0
  5  4  1  0
  5  6  1  1
  7  6  2  0
  9 11  1  0
  9  8  1  1
 10  9  1  0
 11 12  1  6
 12  6  1  0
 13 11  1  0
 14 13  2  0
 16 15  1  0
 17 16  2  0
 18 17  1  0
 19 25  1  0
 19 18  2  0
 21 20  1  1
 20 19  1  0
 21 23  1  0
 21 22  1  0
 22 13  1  0
 23 24  1  0
 25 26  2  0
 26 16  1  0
 27 23  2  0
M  END
$$$$
