PVY.pdb
     RDKit          3D

 27 28  0  0  1  0  0  0  0  0999 V2000
   28.7510  -21.7488  -16.7059 N   0  0  0  0  0  0  0  0  0  0  0  0
   29.4727  -21.0212  -17.7374 C   0  0  0  0  0  0  0  0  0  0  0  0
   28.3685  -20.3289  -18.5183 C   0  0  0  0  0  0  0  0  0  0  0  0
   27.1513  -20.3652  -17.6014 C   0  0  0  0  0  0  0  0  0  0  0  0
   27.7642  -20.7849  -16.2977 C   0  0  1  0  0  0  0  0  0  0  0  0
   26.8299  -21.3939  -15.3567 C   0  0  0  0  0  0  0  0  0  0  0  0
   26.1098  -22.3943  -15.6147 O   0  0  0  0  0  0  0  0  0  0  0  0
   25.4005  -21.7806  -10.6157 C   0  0  0  0  0  0  0  0  0  0  0  0
   26.2983  -21.3201  -11.7188 C   0  0  2  0  0  0  0  0  0  0  0  0
   26.7899  -19.9342  -11.3473 C   0  0  0  0  0  0  0  0  0  0  0  0
   25.7121  -21.3785  -13.0886 C   0  0  2  0  0  0  0  0  0  0  0  0
   26.6990  -20.8487  -14.0571 N   0  0  0  0  0  0  0  0  0  0  0  0
   24.4476  -20.6604  -13.2907 C   0  0  0  0  0  0  0  0  0  0  0  0
   24.4826  -19.4400  -13.5760 O   0  0  0  0  0  0  0  0  0  0  0  0
   16.8678  -17.9544  -16.2374 O   0  0  0  0  0  0  0  0  0  0  0  0
   18.0330  -18.6294  -15.8989 C   0  0  0  0  0  0  0  0  0  0  0  0
   19.2275  -17.9391  -15.8495 C   0  0  0  0  0  0  0  0  0  0  0  0
   20.3834  -18.6015  -15.5151 C   0  0  0  0  0  0  0  0  0  0  0  0
   20.3622  -19.9653  -15.2247 C   0  0  0  0  0  0  0  0  0  0  0  0
   21.6294  -20.6148  -14.8846 C   0  0  0  0  0  0  0  0  0  0  0  0
   21.9980  -20.4689  -13.4138 C   0  0  2  0  0  0  0  0  0  0  0  0
   23.2008  -21.2930  -13.1807 N   0  0  0  0  0  0  0  0  0  0  0  0
   20.9177  -21.0068  -12.5773 C   0  0  0  0  0  0  0  0  0  0  0  0
   20.8923  -22.3446  -12.2468 O   0  0  0  0  0  0  0  0  0  0  0  0
   19.1613  -20.6448  -15.2777 C   0  0  0  0  0  0  0  0  0  0  0  0
   18.0129  -19.9738  -15.6126 C   0  0  0  0  0  0  0  0  0  0  0  0
   19.9873  -20.2862  -12.1350 O   0  0  0  0  0  0  0  0  0  0  0  0
  1  2  1  0
  2  3  1  0
  4  3  1  0
  5  1  1  0
  5  4  1  0
  5  6  1  1
  7  6  2  0
  9 11  1  0
  9  8  1  1
 10  9  1  0
 11 12  1  6
 12  6  1  0
 13 11  1  0
 14 13  2  0
 16 15  1  0
 17 16  2  0
 18 17  1  0
 19 25  1  0
 19 18  2  0
 21 20  1  6
 20 19  1  0
 21 23  1  0
 21 22  1  0
 22 13  1  0
 23 24  1  0
 25 26  2  0
 26 16  1  0
 27 23  2  0
M  END
$$$$
