PVY.pdb
     RDKit          3D

 27 28  0  0  1  0  0  0  0  0999 V2000
   22.9882  -16.2677  -16.5473 N   0  0  0  0  0  0  0  0  0  0  0  0
   21.9295  -15.4537  -17.1226 C   0  0  0  0  0  0  0  0  0  0  0  0
   21.4653  -16.2715  -18.3159 C   0  0  0  0  0  0  0  0  0  0  0  0
   21.9937  -17.6787  -18.0624 C   0  0  0  0  0  0  0  0  0  0  0  0
   22.4243  -17.5887  -16.6279 C   0  0  1  0  0  0  0  0  0  0  0  0
   23.4170  -18.5812  -16.2294 C   0  0  0  0  0  0  0  0  0  0  0  0
   23.1790  -19.8097  -16.0880 O   0  0  0  0  0  0  0  0  0  0  0  0
   28.1069  -19.8616  -16.4739 C   0  0  0  0  0  0  0  0  0  0  0  0
   26.9638  -18.9070  -16.6047 C   0  0  2  0  0  0  0  0  0  0  0  0
   27.5339  -17.5066  -16.4850 C   0  0  0  0  0  0  0  0  0  0  0  0
   25.8194  -19.1472  -15.6796 C   0  0  2  0  0  0  0  0  0  0  0  0
   24.7474  -18.1697  -15.9766 N   0  0  0  0  0  0  0  0  0  0  0  0
   26.1129  -19.0760  -14.2428 C   0  0  0  0  0  0  0  0  0  0  0  0
   26.3387  -17.9566  -13.7252 O   0  0  0  0  0  0  0  0  0  0  0  0
   27.0303  -19.8243   -5.6909 O   0  0  0  0  0  0  0  0  0  0  0  0
   26.6662  -19.8584   -7.0304 C   0  0  0  0  0  0  0  0  0  0  0  0
   25.8994  -20.9063   -7.4990 C   0  0  0  0  0  0  0  0  0  0  0  0
   25.5361  -20.9453   -8.8230 C   0  0  0  0  0  0  0  0  0  0  0  0
   25.9345  -19.9362   -9.6992 C   0  0  0  0  0  0  0  0  0  0  0  0
   25.5226  -20.0409  -11.1002 C   0  0  0  0  0  0  0  0  0  0  0  0
   26.6993  -20.0635  -12.0672 C   0  0  2  0  0  0  0  0  0  0  0  0
   26.1447  -20.2163  -13.4271 N   0  0  0  0  0  0  0  0  0  0  0  0
   27.5423  -21.2342  -11.7934 C   0  0  0  0  0  0  0  0  0  0  0  0
   28.6918  -21.1054  -11.0438 O   0  0  0  0  0  0  0  0  0  0  0  0
   26.7015  -18.8934   -9.2186 C   0  0  0  0  0  0  0  0  0  0  0  0
   27.0587  -18.8640   -7.8947 C   0  0  0  0  0  0  0  0  0  0  0  0
   27.2593  -22.3818  -12.2217 O   0  0  0  0  0  0  0  0  0  0  0  0
  1  2  1  0
  2  3  1  0
  4  3  1  0
  5  1  1  0
  5  4  1  0
  5  6  1  6
  7  6  2  0
  9 11  1  0
  9  8  1  1
 10  9  1  0
 11 12  1  6
 12  6  1  0
 13 11  1  0
 14 13  2  0
 16 15  1  0
 17 16  2  0
 18 17  1  0
 19 25  1  0
 19 18  2  0
 21 20  1  1
 20 19  1  0
 21 23  1  0
 21 22  1  0
 22 13  1  0
 23 24  1  0
 25 26  2  0
 26 16  1  0
 27 23  2  0
M  END
$$$$
