PVY.pdb
     RDKit          3D

 27 28  0  0  1  0  0  0  0  0999 V2000
   19.5088  -20.0377  -13.6350 N   0  0  0  0  0  0  0  0  0  0  0  0
   18.7010  -18.9682  -14.1990 C   0  0  0  0  0  0  0  0  0  0  0  0
   19.2277  -17.7245  -13.5031 C   0  0  0  0  0  0  0  0  0  0  0  0
   20.5815  -18.1320  -12.9330 C   0  0  0  0  0  0  0  0  0  0  0  0
   20.8192  -19.4443  -13.6206 C   0  0  1  0  0  0  0  0  0  0  0  0
   21.7596  -20.3257  -12.9364 C   0  0  0  0  0  0  0  0  0  0  0  0
   21.4257  -21.2474  -12.1460 O   0  0  0  0  0  0  0  0  0  0  0  0
   25.9972  -22.6607  -13.3482 C   0  0  0  0  0  0  0  0  0  0  0  0
   24.9625  -21.6524  -13.7329 C   0  0  2  0  0  0  0  0  0  0  0  0
   25.6694  -20.5607  -14.5132 C   0  0  0  0  0  0  0  0  0  0  0  0
   24.1378  -21.1204  -12.6104 C   0  0  2  0  0  0  0  0  0  0  0  0
   23.1486  -20.1613  -13.1529 N   0  0  0  0  0  0  0  0  0  0  0  0
   24.8648  -20.4553  -11.5219 C   0  0  0  0  0  0  0  0  0  0  0  0
   25.0659  -19.2198  -11.5938 O   0  0  0  0  0  0  0  0  0  0  0  0
   29.7242  -18.8134   -4.4410 O   0  0  0  0  0  0  0  0  0  0  0  0
   28.8192  -19.3671   -5.3367 C   0  0  0  0  0  0  0  0  0  0  0  0
   28.2707  -18.5746   -6.3250 C   0  0  0  0  0  0  0  0  0  0  0  0
   27.3750  -19.1169   -7.2139 C   0  0  0  0  0  0  0  0  0  0  0  0
   27.0139  -20.4611   -7.1279 C   0  0  0  0  0  0  0  0  0  0  0  0
   26.0472  -20.9761   -8.0993 C   0  0  0  0  0  0  0  0  0  0  0  0
   26.2785  -20.4462   -9.5086 C   0  0  2  0  0  0  0  0  0  0  0  0
   25.3382  -21.1528  -10.4012 N   0  0  0  0  0  0  0  0  0  0  0  0
   27.6418  -20.7754   -9.9435 C   0  0  0  0  0  0  0  0  0  0  0  0
   28.6618  -19.8610   -9.7918 O   0  0  0  0  0  0  0  0  0  0  0  0
   27.5692  -21.2436   -6.1349 C   0  0  0  0  0  0  0  0  0  0  0  0
   28.4627  -20.6922   -5.2524 C   0  0  0  0  0  0  0  0  0  0  0  0
   27.9332  -21.8827  -10.4628 O   0  0  0  0  0  0  0  0  0  0  0  0
  1  2  1  0
  2  3  1  0
  4  3  1  0
  5  1  1  0
  5  4  1  0
  5  6  1  1
  7  6  2  0
  9 11  1  0
  9  8  1  1
 10  9  1  0
 11 12  1  6
 12  6  1  0
 13 11  1  0
 14 13  2  0
 16 15  1  0
 17 16  2  0
 18 17  1  0
 19 25  1  0
 19 18  2  0
 21 20  1  1
 20 19  1  0
 21 23  1  0
 21 22  1  0
 22 13  1  0
 23 24  1  0
 25 26  2  0
 26 16  1  0
 27 23  2  0
M  END
$$$$
