TAT.pdb
     RDKit          3D

 20 19  0  0  1  0  0  0  0  0999 V2000
   19.2591  -10.2456  -18.6190 C   0  0  0  0  0  0  0  0  0  0  0  0
   18.5560  -11.2891  -17.7696 C   0  0  1  0  0  0  0  0  0  0  0  0
   17.8608  -12.2088  -18.5151 O   0  0  0  0  0  0  0  0  0  0  0  0
   19.6434  -11.9424  -16.9183 C   0  0  2  0  0  0  0  0  0  0  0  0
   19.1511  -13.1144  -16.2639 N   0  0  0  0  0  0  0  0  0  0  0  0
   20.2515  -10.9699  -15.9737 C   0  0  0  0  0  0  0  0  0  0  0  0
   19.5315  -10.4012  -15.1133 O   0  0  0  0  0  0  0  0  0  0  0  0
   23.6603  -10.0865  -14.8368 C   0  0  0  0  0  0  0  0  0  0  0  0
   22.1790   -9.7524  -15.0500 C   0  0  2  0  0  0  0  0  0  0  0  0
   21.6355  -10.6533  -16.0060 N   0  0  0  0  0  0  0  0  0  0  0  0
   22.0644   -8.3259  -15.4457 C   0  0  0  0  0  0  0  0  0  0  0  0
   22.2966   -7.8934  -16.5939 O   0  0  0  0  0  0  0  0  0  0  0  0
   19.2926   -6.3417  -15.8987 C   0  0  0  0  0  0  0  0  0  0  0  0
   20.0295   -5.6292  -14.8266 C   0  0  1  0  0  0  0  0  0  0  0  0
   19.4058   -5.8526  -13.6067 O   0  0  0  0  0  0  0  0  0  0  0  0
   21.4953   -5.9687  -14.7514 C   0  0  2  0  0  0  0  0  0  0  0  0
   21.6656   -7.3792  -14.4652 N   0  0  0  0  0  0  0  0  0  0  0  0
   22.2436   -5.1116  -13.8166 C   0  0  0  0  0  0  0  0  0  0  0  0
   22.4823   -3.7774  -13.9884 O   0  0  0  0  0  0  0  0  0  0  0  0
   22.7071   -5.6526  -12.7629 O   0  0  0  0  0  0  0  0  0  0  0  0
  2  1  1  6
  2  3  1  0
  4  2  1  0
  4  5  1  1
  6 10  1  0
  6  4  1  0
  7  6  2  0
  9  8  1  6
  9 11  1  0
  9 10  1  0
 11 12  2  0
 14 13  1  6
 15 14  1  0
 16 18  1  0
 16 14  1  0
 17 11  1  0
 16 17  1  1
 18 19  1  0
 20 18  2  0
M  END
$$$$
