TAT.pdb
     RDKit          3D

 20 19  0  0  1  0  0  0  0  0999 V2000
   19.5789   -9.5877  -19.2397 C   0  0  0  0  0  0  0  0  0  0  0  0
   18.5117  -10.4693  -18.6163 C   0  0  1  0  0  0  0  0  0  0  0  0
   17.8308  -11.2231  -19.5400 O   0  0  0  0  0  0  0  0  0  0  0  0
   19.2306  -11.3360  -17.5838 C   0  0  2  0  0  0  0  0  0  0  0  0
   18.3861  -12.3920  -17.1195 N   0  0  0  0  0  0  0  0  0  0  0  0
   19.7850  -10.5148  -16.4766 C   0  0  0  0  0  0  0  0  0  0  0  0
   19.0375   -9.7144  -15.8580 O   0  0  0  0  0  0  0  0  0  0  0  0
   23.0288  -10.2622  -14.6237 C   0  0  0  0  0  0  0  0  0  0  0  0
   21.6378   -9.7693  -15.0407 C   0  0  2  0  0  0  0  0  0  0  0  0
   21.1470  -10.6006  -16.0842 N   0  0  0  0  0  0  0  0  0  0  0  0
   21.7333   -8.3364  -15.4177 C   0  0  0  0  0  0  0  0  0  0  0  0
   22.0401   -7.9276  -16.5571 O   0  0  0  0  0  0  0  0  0  0  0  0
   20.2263   -3.8195  -14.8253 C   0  0  0  0  0  0  0  0  0  0  0  0
   20.2111   -5.2986  -14.7152 C   0  0  1  0  0  0  0  0  0  0  0  0
   19.4479   -5.8332  -15.7442 O   0  0  0  0  0  0  0  0  0  0  0  0
   21.5779   -5.9309  -14.6747 C   0  0  2  0  0  0  0  0  0  0  0  0
   21.4608   -7.3543  -14.4287 N   0  0  0  0  0  0  0  0  0  0  0  0
   22.4961   -5.2717  -13.7309 C   0  0  0  0  0  0  0  0  0  0  0  0
   22.8470   -5.7568  -12.5029 O   0  0  0  0  0  0  0  0  0  0  0  0
   23.0060   -4.1609  -14.0830 O   0  0  0  0  0  0  0  0  0  0  0  0
  2  1  1  6
  2  3  1  0
  4  2  1  0
  4  5  1  1
  6 10  1  0
  6  4  1  0
  7  6  2  0
  9  8  1  6
  9 11  1  0
  9 10  1  0
 11 12  2  0
 14 13  1  6
 15 14  1  0
 16 18  1  0
 16 14  1  0
 17 11  1  0
 16 17  1  1
 18 19  1  0
 20 18  2  0
M  END
$$$$
