TAT.pdb
     RDKit          3D

 20 19  0  0  1  0  0  0  0  0999 V2000
   16.1436   -9.1072  -14.6615 C   0  0  0  0  0  0  0  0  0  0  0  0
   17.2011  -10.1961  -14.6913 C   0  0  1  0  0  0  0  0  0  0  0  0
   16.6828  -11.4535  -14.5042 O   0  0  0  0  0  0  0  0  0  0  0  0
   17.9088  -10.0600  -16.0383 C   0  0  2  0  0  0  0  0  0  0  0  0
   18.7447  -11.1905  -16.2979 N   0  0  0  0  0  0  0  0  0  0  0  0
   18.6391   -8.7701  -16.1406 C   0  0  0  0  0  0  0  0  0  0  0  0
   19.7300   -8.6202  -15.5326 O   0  0  0  0  0  0  0  0  0  0  0  0
   18.2326   -5.5681  -18.0523 C   0  0  0  0  0  0  0  0  0  0  0  0
   18.9265   -6.5054  -17.0566 C   0  0  2  0  0  0  0  0  0  0  0  0
   18.1450   -7.6838  -16.9103 N   0  0  0  0  0  0  0  0  0  0  0  0
   19.1413   -5.7729  -15.7830 C   0  0  0  0  0  0  0  0  0  0  0  0
   18.2915   -5.6802  -14.8728 O   0  0  0  0  0  0  0  0  0  0  0  0
   23.1717   -5.0564  -14.7090 C   0  0  0  0  0  0  0  0  0  0  0  0
   22.0188   -5.1186  -13.7779 C   0  0  1  0  0  0  0  0  0  0  0  0
   22.3708   -4.5454  -12.5636 O   0  0  0  0  0  0  0  0  0  0  0  0
   20.7536   -4.5032  -14.3165 C   0  0  2  0  0  0  0  0  0  0  0  0
   20.3900   -5.1305  -15.5714 N   0  0  0  0  0  0  0  0  0  0  0  0
   20.8190   -3.0358  -14.4206 C   0  0  0  0  0  0  0  0  0  0  0  0
   20.6359   -2.1627  -13.3857 O   0  0  0  0  0  0  0  0  0  0  0  0
   21.0657   -2.5361  -15.5640 O   0  0  0  0  0  0  0  0  0  0  0  0
  2  1  1  6
  2  3  1  0
  4  2  1  0
  4  5  1  1
  6 10  1  0
  6  4  1  0
  7  6  2  0
  9  8  1  6
  9 11  1  0
  9 10  1  0
 11 12  2  0
 14 13  1  6
 15 14  1  0
 16 18  1  0
 16 14  1  0
 17 11  1  0
 16 17  1  6
 18 19  1  0
 20 18  2  0
M  END
$$$$
