TAT.pdb
     RDKit          3D

 20 19  0  0  1  0  0  0  0  0999 V2000
   18.6416  -12.5950  -18.2449 C   0  0  0  0  0  0  0  0  0  0  0  0
   17.6768  -12.5571  -17.0733 C   0  0  1  0  0  0  0  0  0  0  0  0
   17.1595  -13.7905  -16.7635 O   0  0  0  0  0  0  0  0  0  0  0  0
   18.4537  -11.9495  -15.9066 C   0  0  2  0  0  0  0  0  0  0  0  0
   17.7920  -12.1950  -14.6632 N   0  0  0  0  0  0  0  0  0  0  0  0
   18.7348  -10.5082  -16.1329 C   0  0  0  0  0  0  0  0  0  0  0  0
   19.4228  -10.1543  -17.1246 O   0  0  0  0  0  0  0  0  0  0  0  0
   17.4659   -7.2515  -14.9120 C   0  0  0  0  0  0  0  0  0  0  0  0
   18.5710   -8.1366  -15.5010 C   0  0  2  0  0  0  0  0  0  0  0  0
   18.2489   -9.4999  -15.2590 N   0  0  0  0  0  0  0  0  0  0  0  0
   19.8734   -7.7218  -14.9211 C   0  0  0  0  0  0  0  0  0  0  0  0
   20.4437   -8.3109  -13.9793 O   0  0  0  0  0  0  0  0  0  0  0  0
   23.9590   -5.0765  -15.8350 C   0  0  0  0  0  0  0  0  0  0  0  0
   22.6131   -5.5899  -16.1885 C   0  0  1  0  0  0  0  0  0  0  0  0
   22.7274   -6.5384  -17.1955 O   0  0  0  0  0  0  0  0  0  0  0  0
   21.8320   -6.1356  -15.0216 C   0  0  2  0  0  0  0  0  0  0  0  0
   20.5256   -6.5823  -15.4623 N   0  0  0  0  0  0  0  0  0  0  0  0
   21.7524   -5.2008  -13.8867 C   0  0  0  0  0  0  0  0  0  0  0  0
   20.8503   -4.1818  -13.7659 O   0  0  0  0  0  0  0  0  0  0  0  0
   22.5887   -5.3500  -12.9401 O   0  0  0  0  0  0  0  0  0  0  0  0
  2  1  1  6
  2  3  1  0
  4  2  1  0
  4  5  1  1
  6 10  1  0
  6  4  1  0
  7  6  2  0
  9  8  1  1
  9 11  1  0
  9 10  1  0
 11 12  2  0
 14 13  1  1
 15 14  1  0
 16 18  1  0
 16 14  1  0
 17 11  1  0
 16 17  1  6
 18 19  1  0
 20 18  2  0
M  END
$$$$
