TAT.pdb
     RDKit          3D

 20 19  0  0  1  0  0  0  0  0999 V2000
   19.4892   -9.9359  -18.8934 C   0  0  0  0  0  0  0  0  0  0  0  0
   18.5432  -10.8245  -18.1058 C   0  0  1  0  0  0  0  0  0  0  0  0
   17.7960  -11.6545  -18.9043 O   0  0  0  0  0  0  0  0  0  0  0  0
   19.4160  -11.6036  -17.1234 C   0  0  2  0  0  0  0  0  0  0  0  0
   18.6671  -12.6335  -16.4733 N   0  0  0  0  0  0  0  0  0  0  0  0
   20.0974  -10.6962  -16.1642 C   0  0  0  0  0  0  0  0  0  0  0  0
   19.4137   -9.9578  -15.4096 O   0  0  0  0  0  0  0  0  0  0  0  0
   23.5577  -10.2035  -14.8723 C   0  0  0  0  0  0  0  0  0  0  0  0
   22.1172   -9.7456  -15.1311 C   0  0  2  0  0  0  0  0  0  0  0  0
   21.5125  -10.6300  -16.0655 N   0  0  0  0  0  0  0  0  0  0  0  0
   22.1406   -8.3309  -15.5814 C   0  0  0  0  0  0  0  0  0  0  0  0
   22.4846   -7.9617  -16.7236 O   0  0  0  0  0  0  0  0  0  0  0  0
   19.6337   -6.1792  -16.3569 C   0  0  0  0  0  0  0  0  0  0  0  0
   20.3169   -5.4573  -15.2559 C   0  0  1  0  0  0  0  0  0  0  0  0
   19.5533   -5.5432  -14.0998 O   0  0  0  0  0  0  0  0  0  0  0  0
   21.7309   -5.9105  -15.0015 C   0  0  2  0  0  0  0  0  0  0  0  0
   21.7489   -7.3199  -14.6642 N   0  0  0  0  0  0  0  0  0  0  0  0
   22.4358   -5.0858  -14.0058 C   0  0  0  0  0  0  0  0  0  0  0  0
   22.8365   -3.7932  -14.1937 O   0  0  0  0  0  0  0  0  0  0  0  0
   22.6946   -5.6152  -12.8787 O   0  0  0  0  0  0  0  0  0  0  0  0
  2  1  1  6
  2  3  1  0
  4  2  1  0
  4  5  1  1
  6 10  1  0
  6  4  1  0
  7  6  2  0
  9  8  1  6
  9 11  1  0
  9 10  1  0
 11 12  2  0
 14 13  1  6
 15 14  1  0
 16 18  1  0
 16 14  1  0
 17 11  1  0
 16 17  1  1
 18 19  1  0
 20 18  2  0
M  END
$$$$
