TAT.pdb
     RDKit          3D

 20 19  0  0  1  0  0  0  0  0999 V2000
   23.5992  -35.2066  -10.0081 C   0  0  0  0  0  0  0  0  0  0  0  0
   24.8544  -34.4952  -10.4806 C   0  0  1  0  0  0  0  0  0  0  0  0
   24.9886  -34.4935  -11.8470 O   0  0  0  0  0  0  0  0  0  0  0  0
   24.7785  -33.0809   -9.9082 C   0  0  2  0  0  0  0  0  0  0  0  0
   25.7955  -32.2442  -10.4650 N   0  0  0  0  0  0  0  0  0  0  0  0
   24.7954  -33.0943   -8.4226 C   0  0  0  0  0  0  0  0  0  0  0  0
   25.8918  -33.0278   -7.8099 O   0  0  0  0  0  0  0  0  0  0  0  0
   22.2453  -33.2261   -5.6707 C   0  0  0  0  0  0  0  0  0  0  0  0
   23.6685  -33.1512   -6.2368 C   0  0  2  0  0  0  0  0  0  0  0  0
   23.6027  -33.1806   -7.6566 N   0  0  0  0  0  0  0  0  0  0  0  0
   24.4711  -34.2572   -5.6562 C   0  0  0  0  0  0  0  0  0  0  0  0
   24.5705  -35.3948   -6.1615 O   0  0  0  0  0  0  0  0  0  0  0  0
   28.0123  -33.3259   -4.6478 C   0  0  0  0  0  0  0  0  0  0  0  0
   27.4863  -34.7117   -4.7001 C   0  0  1  0  0  0  0  0  0  0  0  0
   28.4636  -35.5964   -4.2651 O   0  0  0  0  0  0  0  0  0  0  0  0
   26.2005  -34.9153   -3.9420 C   0  0  2  0  0  0  0  0  0  0  0  0
   25.1777  -34.0213   -4.4472 N   0  0  0  0  0  0  0  0  0  0  0  0
   26.3637  -34.8138   -2.4820 C   0  0  0  0  0  0  0  0  0  0  0  0
   26.9520  -35.7561   -1.6867 O   0  0  0  0  0  0  0  0  0  0  0  0
   25.9230  -33.7662   -1.9109 O   0  0  0  0  0  0  0  0  0  0  0  0
  2  1  1  6
  2  3  1  0
  4  2  1  0
  4  5  1  6
  6 10  1  0
  6  4  1  0
  7  6  2  0
  9  8  1  1
  9 11  1  0
  9 10  1  0
 11 12  2  0
 14 13  1  1
 15 14  1  0
 16 18  1  0
 16 14  1  0
 17 11  1  0
 16 17  1  6
 18 19  1  0
 20 18  2  0
M  END
$$$$
