TAT.pdb
     RDKit          3D

 20 19  0  0  1  0  0  0  0  0999 V2000
   25.9629  -10.8449  -15.1479 C   0  0  0  0  0  0  0  0  0  0  0  0
   26.1355  -11.3629  -16.5645 C   0  0  1  0  0  0  0  0  0  0  0  0
   27.0538  -12.3794  -16.6565 O   0  0  0  0  0  0  0  0  0  0  0  0
   24.7461  -11.7991  -17.0262 C   0  0  2  0  0  0  0  0  0  0  0  0
   24.8127  -12.4969  -18.2724 N   0  0  0  0  0  0  0  0  0  0  0  0
   23.8000  -10.6540  -17.0590 C   0  0  0  0  0  0  0  0  0  0  0  0
   24.0408   -9.6660  -17.7992 O   0  0  0  0  0  0  0  0  0  0  0  0
   20.4183   -9.8635  -15.6698 C   0  0  0  0  0  0  0  0  0  0  0  0
   21.7613   -9.4973  -16.3132 C   0  0  2  0  0  0  0  0  0  0  0  0
   22.6165  -10.6322  -16.2746 N   0  0  0  0  0  0  0  0  0  0  0  0
   22.3166   -8.3108  -15.6142 C   0  0  0  0  0  0  0  0  0  0  0  0
   23.0713   -8.3687  -14.6210 O   0  0  0  0  0  0  0  0  0  0  0  0
   23.0981   -3.4243  -15.9657 C   0  0  0  0  0  0  0  0  0  0  0  0
   22.5953   -4.7121  -16.5031 C   0  0  1  0  0  0  0  0  0  0  0  0
   23.4147   -5.1340  -17.5412 O   0  0  0  0  0  0  0  0  0  0  0  0
   22.4370   -5.7955  -15.4685 C   0  0  2  0  0  0  0  0  0  0  0  0
   21.9763   -7.0186  -16.0949 N   0  0  0  0  0  0  0  0  0  0  0  0
   21.5921   -5.3946  -14.3309 C   0  0  0  0  0  0  0  0  0  0  0  0
   20.2406   -5.5771  -14.2494 O   0  0  0  0  0  0  0  0  0  0  0  0
   22.1621   -4.8328  -13.3424 O   0  0  0  0  0  0  0  0  0  0  0  0
  2  1  1  1
  2  3  1  0
  4  2  1  0
  4  5  1  6
  6 10  1  0
  6  4  1  0
  7  6  2  0
  9  8  1  1
  9 11  1  0
  9 10  1  0
 11 12  2  0
 14 13  1  1
 15 14  1  0
 16 18  1  0
 16 14  1  0
 17 11  1  0
 16 17  1  6
 18 19  1  0
 20 18  2  0
M  END
$$$$
