TAT.pdb
     RDKit          3D

 20 19  0  0  1  0  0  0  0  0999 V2000
   17.3413   -9.5437  -18.2282 C   0  0  0  0  0  0  0  0  0  0  0  0
   16.8890  -10.4002  -17.0591 C   0  0  1  0  0  0  0  0  0  0  0  0
   16.2021  -11.5229  -17.4500 O   0  0  0  0  0  0  0  0  0  0  0  0
   18.1537  -10.7438  -16.2739 C   0  0  2  0  0  0  0  0  0  0  0  0
   17.9174  -11.8183  -15.3608 N   0  0  0  0  0  0  0  0  0  0  0  0
   18.7254   -9.5428  -15.6119 C   0  0  0  0  0  0  0  0  0  0  0  0
   17.9604   -8.7083  -15.0636 O   0  0  0  0  0  0  0  0  0  0  0  0
   22.1424   -8.1676  -14.9135 C   0  0  0  0  0  0  0  0  0  0  0  0
   20.6153   -8.0819  -15.0250 C   0  0  2  0  0  0  0  0  0  0  0  0
   20.1236   -9.2974  -15.5742 N   0  0  0  0  0  0  0  0  0  0  0  0
   20.2627   -6.8824  -15.8260 C   0  0  0  0  0  0  0  0  0  0  0  0
   19.6634   -6.9189  -16.9209 O   0  0  0  0  0  0  0  0  0  0  0  0
   18.2782   -2.9713  -16.6336 C   0  0  0  0  0  0  0  0  0  0  0  0
   18.7742   -4.2966  -16.1891 C   0  0  1  0  0  0  0  0  0  0  0  0
   18.3457   -5.2746  -17.0762 O   0  0  0  0  0  0  0  0  0  0  0  0
   20.2661   -4.3655  -15.9921 C   0  0  2  0  0  0  0  0  0  0  0  0
   20.6239   -5.6027  -15.3275 N   0  0  0  0  0  0  0  0  0  0  0  0
   20.8182   -3.1823  -15.3113 C   0  0  0  0  0  0  0  0  0  0  0  0
   21.4388   -2.1341  -15.9301 O   0  0  0  0  0  0  0  0  0  0  0  0
   20.7112   -3.1272  -14.0450 O   0  0  0  0  0  0  0  0  0  0  0  0
  2  1  1  6
  2  3  1  0
  4  2  1  0
  4  5  1  1
  6 10  1  0
  6  4  1  0
  7  6  2  0
  9  8  1  6
  9 11  1  0
  9 10  1  0
 11 12  2  0
 14 13  1  6
 15 14  1  0
 16 18  1  0
 16 14  1  0
 17 11  1  0
 16 17  1  1
 18 19  1  0
 20 18  2  0
M  END
$$$$
