TAT.pdb
     RDKit          3D

 20 19  0  0  1  0  0  0  0  0999 V2000
   16.5531  -11.7589  -10.2929 C   0  0  0  0  0  0  0  0  0  0  0  0
   15.1277  -12.0835  -10.7024 C   0  0  1  0  0  0  0  0  0  0  0  0
   14.7953  -13.3991  -10.4940 O   0  0  0  0  0  0  0  0  0  0  0  0
   14.2339  -11.1316   -9.9093 C   0  0  2  0  0  0  0  0  0  0  0  0
   12.8510  -11.4279  -10.1193 N   0  0  0  0  0  0  0  0  0  0  0  0
   14.5664   -9.7114  -10.1923 C   0  0  0  0  0  0  0  0  0  0  0  0
   14.2329   -9.1991  -11.2916 O   0  0  0  0  0  0  0  0  0  0  0  0
   15.8946   -6.7859   -8.2960 C   0  0  0  0  0  0  0  0  0  0  0  0
   15.5806   -7.5542   -9.5855 C   0  0  2  0  0  0  0  0  0  0  0  0
   15.2568   -8.8983   -9.2549 N   0  0  0  0  0  0  0  0  0  0  0  0
   16.7382   -7.4314  -10.5072 C   0  0  0  0  0  0  0  0  0  0  0  0
   17.8695   -7.9105  -10.2835 O   0  0  0  0  0  0  0  0  0  0  0  0
   17.0860   -8.8582  -13.7721 C   0  0  0  0  0  0  0  0  0  0  0  0
   17.1891   -7.3920  -13.9708 C   0  0  1  0  0  0  0  0  0  0  0  0
   15.9931   -6.9072  -14.4824 O   0  0  0  0  0  0  0  0  0  0  0  0
   17.5963   -6.6270  -12.7385 C   0  0  2  0  0  0  0  0  0  0  0  0
   16.5631   -6.7258  -11.7271 N   0  0  0  0  0  0  0  0  0  0  0  0
   17.9761   -5.2321  -13.0189 C   0  0  0  0  0  0  0  0  0  0  0  0
   19.1414   -4.8359  -13.6120 O   0  0  0  0  0  0  0  0  0  0  0  0
   17.1565   -4.3191  -12.6836 O   0  0  0  0  0  0  0  0  0  0  0  0
  2  1  1  1
  2  3  1  0
  4  2  1  0
  4  5  1  6
  6 10  1  0
  6  4  1  0
  7  6  2  0
  9  8  1  1
  9 11  1  0
  9 10  1  0
 11 12  2  0
 14 13  1  1
 15 14  1  0
 16 18  1  0
 16 14  1  0
 17 11  1  0
 16 17  1  1
 18 19  1  0
 20 18  2  0
M  END
$$$$
