TAT.pdb
     RDKit          3D

 20 19  0  0  1  0  0  0  0  0999 V2000
   20.0674  -11.4996  -15.0157 C   0  0  0  0  0  0  0  0  0  0  0  0
   19.6523  -11.6475  -16.4686 C   0  0  1  0  0  0  0  0  0  0  0  0
   19.4736  -12.9554  -16.8456 O   0  0  0  0  0  0  0  0  0  0  0  0
   18.3762  -10.8230  -16.6286 C   0  0  2  0  0  0  0  0  0  0  0  0
   17.7844  -11.0333  -17.9130 N   0  0  0  0  0  0  0  0  0  0  0  0
   18.6170   -9.3865  -16.3354 C   0  0  0  0  0  0  0  0  0  0  0  0
   19.6014   -8.7997  -16.8539 O   0  0  0  0  0  0  0  0  0  0  0  0
   16.7610   -6.6217  -14.6373 C   0  0  0  0  0  0  0  0  0  0  0  0
   18.0044   -7.2531  -15.2752 C   0  0  2  0  0  0  0  0  0  0  0  0
   17.7652   -8.6395  -15.4792 N   0  0  0  0  0  0  0  0  0  0  0  0
   19.1780   -6.9737  -14.4095 C   0  0  0  0  0  0  0  0  0  0  0  0
   19.3900   -7.5285  -13.3111 O   0  0  0  0  0  0  0  0  0  0  0  0
   22.5134   -7.7333  -15.0960 C   0  0  0  0  0  0  0  0  0  0  0  0
   22.5401   -6.2662  -14.8795 C   0  0  1  0  0  0  0  0  0  0  0  0
   22.6832   -5.6191  -16.0993 O   0  0  0  0  0  0  0  0  0  0  0  0
   21.3535   -5.7299  -14.1220 C   0  0  2  0  0  0  0  0  0  0  0  0
   20.1306   -6.0151  -14.8457 N   0  0  0  0  0  0  0  0  0  0  0  0
   21.4809   -4.3046  -13.7745 C   0  0  0  0  0  0  0  0  0  0  0  0
   20.6961   -3.2998  -14.2657 O   0  0  0  0  0  0  0  0  0  0  0  0
   22.3937   -3.9778  -12.9512 O   0  0  0  0  0  0  0  0  0  0  0  0
  2  1  1  1
  2  3  1  0
  4  2  1  0
  4  5  1  6
  6 10  1  0
  6  4  1  0
  7  6  2  0
  9  8  1  1
  9 11  1  0
  9 10  1  0
 11 12  2  0
 14 13  1  6
 15 14  1  0
 16 18  1  0
 16 14  1  0
 17 11  1  0
 16 17  1  6
 18 19  1  0
 20 18  2  0
M  END
$$$$
