TAT.pdb
     RDKit          3D

 20 19  0  0  1  0  0  0  0  0999 V2000
   17.5078  -12.1194  -18.6713 C   0  0  0  0  0  0  0  0  0  0  0  0
   18.1998  -11.1622  -17.7175 C   0  0  1  0  0  0  0  0  0  0  0  0
   17.5381  -11.0225  -16.5227 O   0  0  0  0  0  0  0  0  0  0  0  0
   19.6162  -11.7033  -17.5309 C   0  0  2  0  0  0  0  0  0  0  0  0
   19.5954  -13.0268  -16.9905 N   0  0  0  0  0  0  0  0  0  0  0  0
   20.4536  -10.7704  -16.7333 C   0  0  0  0  0  0  0  0  0  0  0  0
   20.1955  -10.5845  -15.5163 O   0  0  0  0  0  0  0  0  0  0  0  0
   23.6044   -8.8184  -17.2380 C   0  0  0  0  0  0  0  0  0  0  0  0
   22.3037   -9.1657  -16.5037 C   0  0  2  0  0  0  0  0  0  0  0  0
   21.5506  -10.0700  -17.3012 N   0  0  0  0  0  0  0  0  0  0  0  0
   21.5821   -7.9063  -16.1913 C   0  0  0  0  0  0  0  0  0  0  0  0
   20.8529   -7.2942  -16.9993 O   0  0  0  0  0  0  0  0  0  0  0  0
   18.8866   -7.2071  -14.0978 C   0  0  0  0  0  0  0  0  0  0  0  0
   19.9687   -6.3577  -13.5434 C   0  0  1  0  0  0  0  0  0  0  0  0
   20.4353   -6.9132  -12.3599 O   0  0  0  0  0  0  0  0  0  0  0  0
   21.1035   -6.0976  -14.4995 C   0  0  2  0  0  0  0  0  0  0  0  0
   21.7202   -7.3488  -14.8924 N   0  0  0  0  0  0  0  0  0  0  0  0
   22.0836   -5.1247  -13.9882 C   0  0  0  0  0  0  0  0  0  0  0  0
   21.8429   -3.7953  -13.7849 O   0  0  0  0  0  0  0  0  0  0  0  0
   23.2494   -5.5519  -13.7121 O   0  0  0  0  0  0  0  0  0  0  0  0
  2  1  1  6
  2  3  1  0
  4  2  1  0
  4  5  1  1
  6 10  1  0
  6  4  1  0
  7  6  2  0
  9  8  1  6
  9 11  1  0
  9 10  1  0
 11 12  2  0
 14 13  1  6
 15 14  1  0
 16 18  1  0
 16 14  1  0
 17 11  1  0
 16 17  1  1
 18 19  1  0
 20 18  2  0
M  END
$$$$
