TAT.pdb
     RDKit          3D

 20 19  0  0  1  0  0  0  0  0999 V2000
   15.7910  -10.3771  -14.9746 C   0  0  0  0  0  0  0  0  0  0  0  0
   16.5710  -11.6505  -14.7012 C   0  0  1  0  0  0  0  0  0  0  0  0
   15.7635  -12.7269  -14.4286 O   0  0  0  0  0  0  0  0  0  0  0  0
   17.4436  -11.8834  -15.9334 C   0  0  2  0  0  0  0  0  0  0  0  0
   18.0254  -13.1893  -15.9136 N   0  0  0  0  0  0  0  0  0  0  0  0
   18.4546  -10.8066  -16.0947 C   0  0  0  0  0  0  0  0  0  0  0  0
   19.4796  -10.7981  -15.3657 O   0  0  0  0  0  0  0  0  0  0  0  0
   19.0875   -8.0038  -18.4878 C   0  0  0  0  0  0  0  0  0  0  0  0
   19.3043   -8.7670  -17.1755 C   0  0  2  0  0  0  0  0  0  0  0  0
   18.3054   -9.7711  -17.0549 N   0  0  0  0  0  0  0  0  0  0  0  0
   19.3075   -7.7943  -16.0537 C   0  0  0  0  0  0  0  0  0  0  0  0
   18.3065   -7.5160  -15.3609 O   0  0  0  0  0  0  0  0  0  0  0  0
   22.2764   -5.3207  -12.9362 C   0  0  0  0  0  0  0  0  0  0  0  0
   22.0646   -6.1757  -14.1296 C   0  0  1  0  0  0  0  0  0  0  0  0
   22.5145   -7.4621  -13.8652 O   0  0  0  0  0  0  0  0  0  0  0  0
   20.6452   -6.1953  -14.6337 C   0  0  2  0  0  0  0  0  0  0  0  0
   20.5209   -7.1287  -15.7354 N   0  0  0  0  0  0  0  0  0  0  0  0
   20.1289   -4.8578  -14.9701 C   0  0  0  0  0  0  0  0  0  0  0  0
   19.3556   -4.0824  -14.1531 O   0  0  0  0  0  0  0  0  0  0  0  0
   20.4240   -4.3819  -16.1121 O   0  0  0  0  0  0  0  0  0  0  0  0
  2  1  1  6
  2  3  1  0
  4  2  1  0
  4  5  1  1
  6 10  1  0
  6  4  1  0
  7  6  2  0
  9  8  1  6
  9 11  1  0
  9 10  1  0
 11 12  2  0
 14 13  1  1
 15 14  1  0
 16 18  1  0
 16 14  1  0
 17 11  1  0
 16 17  1  6
 18 19  1  0
 20 18  2  0
M  END
$$$$
