MRS.pdb
     RDKit          3D

 26 25  0  0  1  0  0  0  0  0999 V2000
    7.6101  -11.1382   27.1992 C   0  0  0  0  0  0  0  0  0  0  0  0
    6.3457  -12.1693   27.9429 S   0  0  0  0  0  0  0  0  0  0  0  0
    5.8722  -13.5709   26.9114 C   0  0  0  0  0  0  0  0  0  0  0  0
    7.0633  -14.0911   26.1015 C   0  0  0  0  0  0  0  0  0  0  0  0
    6.5470  -15.2631   25.3027 C   0  0  2  0  0  0  0  0  0  0  0  0
    6.0826  -16.2656   26.1899 N   0  0  0  0  0  0  0  0  0  0  0  0
    7.5503  -15.8031   24.3591 C   0  0  0  0  0  0  0  0  0  0  0  0
    8.1039  -16.9149   24.4694 O   0  0  0  0  0  0  0  0  0  0  0  0
    8.8866  -14.6594   16.3286 N   0  0  0  0  0  0  0  0  0  0  0  0
    8.8783  -13.8503   17.5026 C   0  0  0  0  0  0  0  0  0  0  0  0
    9.8985  -13.1485   17.8414 N   0  0  0  0  0  0  0  0  0  0  0  0
    7.7205  -13.8179   18.3207 N   0  0  0  0  0  0  0  0  0  0  0  0
    7.6474  -13.0831   19.5657 C   0  0  0  0  0  0  0  0  0  0  0  0
    7.5816  -14.0535   20.7214 C   0  0  0  0  0  0  0  0  0  0  0  0
    8.9665  -14.3955   21.1706 C   0  0  0  0  0  0  0  0  0  0  0  0
    8.9035  -15.4010   22.2913 C   0  0  2  0  0  0  0  0  0  0  0  0
    7.9129  -14.9952   23.2413 N   0  0  0  0  0  0  0  0  0  0  0  0
   10.2311  -15.5718   22.9464 C   0  0  0  0  0  0  0  0  0  0  0  0
   10.6252  -14.7827   23.8367 O   0  0  0  0  0  0  0  0  0  0  0  0
    9.8236  -12.5568   18.7057 O   0  0  0  0  0  0  0  0  0  0  0  0
   11.5145  -18.6552   24.3874 C   0  0  0  0  0  0  0  0  0  0  0  0
   12.5317  -18.3025   23.4871 C   0  0  2  0  0  0  0  0  0  0  0  0
   12.3622  -16.8474   23.0798 N   0  0  0  0  0  0  0  0  0  0  0  0
   11.0533  -16.6610   22.5370 C   0  0  0  0  0  0  0  0  0  0  0  0
   13.3831  -16.4995   22.0764 O   0  0  0  0  0  0  0  0  0  0  0  0
   12.9851  -16.1085   20.8129 O   0  0  0  0  0  0  0  0  0  0  0  0
  2  1  1  0
  3  4  1  0
  3  2  1  0
  4  5  1  0
  5  6  1  1
  7  5  1  0
  7  8  2  0
 10  9  1  0
 11 10  2  0
 12 10  1  0
 13 14  1  0
 13 12  1  0
 14 15  1  0
 16 15  1  6
 16 17  1  0
 17  7  1  0
 18 16  1  0
 19 18  2  0
 21 20  1  0
 22 21  1  1
 22 24  1  0
 22 23  1  0
 23 18  1  0
 24 25  1  0
 26 24  2  0
M  END
$$$$
