MRS.pdb
     RDKit          3D

 26 25  0  0  1  0  0  0  0  0999 V2000
    7.8832  -12.9350   28.3287 C   0  0  0  0  0  0  0  0  0  0  0  0
    6.5151  -11.9046   27.7984 S   0  0  0  0  0  0  0  0  0  0  0  0
    5.7424  -12.4767   26.2724 C   0  0  0  0  0  0  0  0  0  0  0  0
    6.1859  -13.9010   25.9262 C   0  0  0  0  0  0  0  0  0  0  0  0
    7.4080  -13.7584   25.0519 C   0  0  2  0  0  0  0  0  0  0  0  0
    7.1130  -12.8872   23.9740 N   0  0  0  0  0  0  0  0  0  0  0  0
    7.9238  -15.0576   24.5673 C   0  0  0  0  0  0  0  0  0  0  0  0
    8.0122  -16.0904   25.2602 O   0  0  0  0  0  0  0  0  0  0  0  0
    8.7663  -12.2708   18.4093 N   0  0  0  0  0  0  0  0  0  0  0  0
    8.4397  -13.6195   18.0819 C   0  0  0  0  0  0  0  0  0  0  0  0
    7.6015  -13.9002   17.1510 N   0  0  0  0  0  0  0  0  0  0  0  0
    9.0493  -14.6799   18.7994 N   0  0  0  0  0  0  0  0  0  0  0  0
    8.4350  -15.9793   18.9717 C   0  0  0  0  0  0  0  0  0  0  0  0
    8.1301  -16.2036   20.4340 C   0  0  0  0  0  0  0  0  0  0  0  0
    9.3800  -16.0419   21.2390 C   0  0  0  0  0  0  0  0  0  0  0  0
    9.0763  -16.2612   22.6987 C   0  0  2  0  0  0  0  0  0  0  0  0
    8.3522  -15.1372   23.2095 N   0  0  0  0  0  0  0  0  0  0  0  0
   10.3199  -16.4956   23.4857 C   0  0  0  0  0  0  0  0  0  0  0  0
   11.0563  -15.5454   23.8397 O   0  0  0  0  0  0  0  0  0  0  0  0
    7.4357  -14.9127   16.9269 O   0  0  0  0  0  0  0  0  0  0  0  0
   11.5531  -18.0406   27.3424 C   0  0  0  0  0  0  0  0  0  0  0  0
   10.7931  -17.6587   26.2262 C   0  0  1  0  0  0  0  0  0  0  0  0
   11.4920  -18.1221   24.9578 N   0  0  0  0  0  0  0  0  0  0  0  0
   10.6601  -17.8352   23.8317 C   0  0  0  0  0  0  0  0  0  0  0  0
   11.7497  -19.5699   25.0439 O   0  0  0  0  0  0  0  0  0  0  0  0
   12.7891  -20.0272   25.8303 O   0  0  0  0  0  0  0  0  0  0  0  0
  2  1  1  0
  3  4  1  0
  3  2  1  0
  4  5  1  0
  5  6  1  6
  7  5  1  0
  7  8  2  0
 10  9  1  0
 11 10  2  0
 12 10  1  0
 13 14  1  0
 13 12  1  0
 14 15  1  0
 16 15  1  6
 16 17  1  0
 17  7  1  0
 18 16  1  0
 19 18  2  0
 21 20  1  0
 22 21  1  6
 22 24  1  0
 22 23  1  0
 23 18  1  0
 24 25  1  0
 26 24  2  0
M  END
$$$$
