MRS.pdb
     RDKit          3D

 26 25  0  0  1  0  0  0  0  0999 V2000
    8.0660  -11.6393   26.9905 C   0  0  0  0  0  0  0  0  0  0  0  0
    6.3418  -12.1021   27.1575 S   0  0  0  0  0  0  0  0  0  0  0  0
    6.0235  -13.8268   26.7367 C   0  0  0  0  0  0  0  0  0  0  0  0
    7.2615  -14.4852   26.1209 C   0  0  0  0  0  0  0  0  0  0  0  0
    6.7469  -15.4929   25.1219 C   0  0  2  0  0  0  0  0  0  0  0  0
    5.9362  -16.4430   25.7910 N   0  0  0  0  0  0  0  0  0  0  0  0
    7.8299  -16.1522   24.3597 C   0  0  0  0  0  0  0  0  0  0  0  0
    8.2646  -17.2982   24.5887 O   0  0  0  0  0  0  0  0  0  0  0  0
    6.9991  -13.4391   16.5032 N   0  0  0  0  0  0  0  0  0  0  0  0
    8.0215  -13.7307   17.4533 C   0  0  0  0  0  0  0  0  0  0  0  0
    9.0834  -14.3711   17.1214 N   0  0  0  0  0  0  0  0  0  0  0  0
    7.8665  -13.3087   18.7981 N   0  0  0  0  0  0  0  0  0  0  0  0
    8.9077  -13.4350   19.7958 C   0  0  0  0  0  0  0  0  0  0  0  0
    8.7373  -14.7378   20.5410 C   0  0  0  0  0  0  0  0  0  0  0  0
    9.9011  -14.9498   21.4560 C   0  0  0  0  0  0  0  0  0  0  0  0
    9.5280  -15.9362   22.5325 C   0  0  2  0  0  0  0  0  0  0  0  0
    8.4221  -15.4263   23.2845 N   0  0  0  0  0  0  0  0  0  0  0  0
   10.6848  -16.2354   23.4232 C   0  0  0  0  0  0  0  0  0  0  0  0
   11.0586  -15.4232   24.3014 O   0  0  0  0  0  0  0  0  0  0  0  0
    9.8188  -14.5190   17.8563 O   0  0  0  0  0  0  0  0  0  0  0  0
   11.2887  -19.2876   25.3795 C   0  0  0  0  0  0  0  0  0  0  0  0
   12.4228  -19.1990   24.5577 C   0  0  2  0  0  0  0  0  0  0  0  0
   12.5394  -17.7854   24.0100 N   0  0  0  0  0  0  0  0  0  0  0  0
   11.3657  -17.4757   23.2557 C   0  0  0  0  0  0  0  0  0  0  0  0
   13.7340  -17.6910   23.1533 O   0  0  0  0  0  0  0  0  0  0  0  0
   14.9738  -17.9875   23.6850 O   0  0  0  0  0  0  0  0  0  0  0  0
  2  1  1  0
  3  4  1  0
  3  2  1  0
  4  5  1  0
  5  6  1  1
  7  5  1  0
  7  8  2  0
 10  9  1  0
 11 10  2  0
 12 10  1  0
 13 14  1  0
 13 12  1  0
 14 15  1  0
 16 15  1  6
 16 17  1  0
 17  7  1  0
 18 16  1  0
 19 18  2  0
 21 20  1  0
 22 21  1  1
 22 24  1  0
 22 23  1  0
 23 18  1  0
 24 25  1  0
 26 24  2  0
M  END
$$$$
