MRS.pdb
     RDKit          3D

 26 25  0  0  1  0  0  0  0  0999 V2000
    7.9903  -11.4855   27.7924 C   0  0  0  0  0  0  0  0  0  0  0  0
    6.4142  -11.2458   26.9718 S   0  0  0  0  0  0  0  0  0  0  0  0
    5.8523  -12.7027   26.0694 C   0  0  0  0  0  0  0  0  0  0  0  0
    6.9946  -13.7014   25.8618 C   0  0  0  0  0  0  0  0  0  0  0  0
    6.4331  -14.8073   25.0017 C   0  0  2  0  0  0  0  0  0  0  0  0
    5.3509  -15.4227   25.6784 N   0  0  0  0  0  0  0  0  0  0  0  0
    7.4537  -15.8018   24.6041 C   0  0  0  0  0  0  0  0  0  0  0  0
    7.5691  -16.9396   25.1008 O   0  0  0  0  0  0  0  0  0  0  0  0
    8.4758  -12.2104   19.0811 N   0  0  0  0  0  0  0  0  0  0  0  0
    7.8946  -13.3807   18.5104 C   0  0  0  0  0  0  0  0  0  0  0  0
    6.7524  -13.3461   17.9256 N   0  0  0  0  0  0  0  0  0  0  0  0
    8.5882  -14.6149   18.5897 N   0  0  0  0  0  0  0  0  0  0  0  0
    9.6056  -14.8926   19.5814 C   0  0  0  0  0  0  0  0  0  0  0  0
    8.9628  -15.4921   20.8098 C   0  0  0  0  0  0  0  0  0  0  0  0
   10.0071  -15.7499   21.8489 C   0  0  0  0  0  0  0  0  0  0  0  0
    9.3656  -16.3382   23.0791 C   0  0  2  0  0  0  0  0  0  0  0  0
    8.3744  -15.4347   23.5787 N   0  0  0  0  0  0  0  0  0  0  0  0
   10.3785  -16.6498   24.1268 C   0  0  0  0  0  0  0  0  0  0  0  0
   11.0184  -15.7410   24.7058 O   0  0  0  0  0  0  0  0  0  0  0  0
    6.3296  -14.2566   17.6174 O   0  0  0  0  0  0  0  0  0  0  0  0
   10.7406  -20.5776   25.0363 C   0  0  0  0  0  0  0  0  0  0  0  0
   11.2540  -19.7244   26.0253 C   0  0  1  0  0  0  0  0  0  0  0  0
   11.6217  -18.3891   25.3979 N   0  0  0  0  0  0  0  0  0  0  0  0
   10.6088  -18.0154   24.4615 C   0  0  0  0  0  0  0  0  0  0  0  0
   12.9227  -18.5112   24.7180 O   0  0  0  0  0  0  0  0  0  0  0  0
   14.0426  -18.8462   25.4537 O   0  0  0  0  0  0  0  0  0  0  0  0
  2  1  1  0
  3  4  1  0
  3  2  1  0
  4  5  1  0
  5  6  1  1
  7  5  1  0
  7  8  2  0
 10  9  1  0
 11 10  2  0
 12 10  1  0
 13 14  1  0
 13 12  1  0
 14 15  1  0
 16 15  1  6
 16 17  1  0
 17  7  1  0
 18 16  1  0
 19 18  2  0
 21 20  1  0
 22 21  1  1
 22 24  1  0
 22 23  1  0
 23 18  1  0
 24 25  1  0
 26 24  2  0
M  END
$$$$
