MRS.pdb
     RDKit          3D

 26 25  0  0  1  0  0  0  0  0999 V2000
    7.0449  -10.7744   26.2140 C   0  0  0  0  0  0  0  0  0  0  0  0
    6.6568  -12.0993   27.3581 S   0  0  0  0  0  0  0  0  0  0  0  0
    6.2077  -13.6408   26.5365 C   0  0  0  0  0  0  0  0  0  0  0  0
    7.4501  -14.3929   26.0507 C   0  0  0  0  0  0  0  0  0  0  0  0
    6.9431  -15.6217   25.3357 C   0  0  2  0  0  0  0  0  0  0  0  0
    6.1432  -16.3829   26.2237 N   0  0  0  0  0  0  0  0  0  0  0  0
    8.0307  -16.4402   24.7561 C   0  0  0  0  0  0  0  0  0  0  0  0
    8.5694  -17.4111   25.3234 O   0  0  0  0  0  0  0  0  0  0  0  0
    7.1595  -13.6671   17.7042 N   0  0  0  0  0  0  0  0  0  0  0  0
    8.2343  -13.2294   18.5326 C   0  0  0  0  0  0  0  0  0  0  0  0
    8.2346  -12.0646   19.0722 N   0  0  0  0  0  0  0  0  0  0  0  0
    9.3325  -14.0952   18.7677 N   0  0  0  0  0  0  0  0  0  0  0  0
    9.1883  -15.4396   19.2847 C   0  0  0  0  0  0  0  0  0  0  0  0
    9.4001  -15.4307   20.7802 C   0  0  0  0  0  0  0  0  0  0  0  0
    9.2956  -16.8248   21.3113 C   0  0  0  0  0  0  0  0  0  0  0  0
    9.5433  -16.8222   22.7979 C   0  0  2  0  0  0  0  0  0  0  0  0
    8.4995  -16.0954   23.4542 N   0  0  0  0  0  0  0  0  0  0  0  0
   10.8792  -16.2499   23.1275 C   0  0  0  0  0  0  0  0  0  0  0  0
   11.0831  -15.0136   23.1023 O   0  0  0  0  0  0  0  0  0  0  0  0
    9.0745  -11.7840   19.6368 O   0  0  0  0  0  0  0  0  0  0  0  0
   13.5344  -18.9590   24.3622 C   0  0  0  0  0  0  0  0  0  0  0  0
   13.9461  -17.6569   24.6854 C   0  0  1  0  0  0  0  0  0  0  0  0
   13.2459  -16.6649   23.7701 N   0  0  0  0  0  0  0  0  0  0  0  0
   11.9322  -17.1444   23.4754 C   0  0  0  0  0  0  0  0  0  0  0  0
   14.0230  -16.5148   22.5277 O   0  0  0  0  0  0  0  0  0  0  0  0
   15.2903  -15.9684   22.5835 O   0  0  0  0  0  0  0  0  0  0  0  0
  2  1  1  0
  3  4  1  0
  3  2  1  0
  4  5  1  0
  5  6  1  1
  7  5  1  0
  7  8  2  0
 10  9  1  0
 11 10  2  0
 12 10  1  0
 13 14  1  0
 13 12  1  0
 14 15  1  0
 16 15  1  6
 16 17  1  0
 17  7  1  0
 18 16  1  0
 19 18  2  0
 21 20  1  0
 22 21  1  1
 22 24  1  0
 22 23  1  0
 23 18  1  0
 24 25  1  0
 26 24  2  0
M  END
$$$$
