MRS.pdb
     RDKit          3D

 26 25  0  0  1  0  0  0  0  0999 V2000
    6.2087  -11.1612   25.8392 C   0  0  0  0  0  0  0  0  0  0  0  0
    6.8544  -11.6957   27.4242 S   0  0  0  0  0  0  0  0  0  0  0  0
    7.4292  -13.4052   27.4192 C   0  0  0  0  0  0  0  0  0  0  0  0
    6.6131  -14.2620   26.4470 C   0  0  0  0  0  0  0  0  0  0  0  0
    7.2448  -15.6327   26.4647 C   0  0  2  0  0  0  0  0  0  0  0  0
    8.6045  -15.5163   26.8457 N   0  0  0  0  0  0  0  0  0  0  0  0
    7.1067  -16.3467   25.1764 C   0  0  0  0  0  0  0  0  0  0  0  0
    6.3104  -17.2823   24.9639 O   0  0  0  0  0  0  0  0  0  0  0  0
    7.8982  -12.9163   17.3722 N   0  0  0  0  0  0  0  0  0  0  0  0
    8.4119  -12.8183   18.6986 C   0  0  0  0  0  0  0  0  0  0  0  0
    8.9492  -11.7360   19.1321 N   0  0  0  0  0  0  0  0  0  0  0  0
    8.3331  -13.9396   19.5630 N   0  0  0  0  0  0  0  0  0  0  0  0
    7.4161  -15.0403   19.3553 C   0  0  0  0  0  0  0  0  0  0  0  0
    7.6615  -16.1054   20.3979 C   0  0  0  0  0  0  0  0  0  0  0  0
    7.7417  -15.4750   21.7517 C   0  0  0  0  0  0  0  0  0  0  0  0
    7.8798  -16.5455   22.8034 C   0  0  2  0  0  0  0  0  0  0  0  0
    7.9447  -15.9376   24.0974 N   0  0  0  0  0  0  0  0  0  0  0  0
    9.0744  -17.4017   22.5568 C   0  0  0  0  0  0  0  0  0  0  0  0
    9.1520  -18.1368   21.5448 O   0  0  0  0  0  0  0  0  0  0  0  0
    9.4064  -11.7578   20.0772 O   0  0  0  0  0  0  0  0  0  0  0  0
   12.0817  -16.5502   21.7125 C   0  0  0  0  0  0  0  0  0  0  0  0
   12.4568  -17.2327   22.8800 C   0  0  2  0  0  0  0  0  0  0  0  0
   11.3227  -18.1466   23.3163 N   0  0  0  0  0  0  0  0  0  0  0  0
   10.1385  -17.3688   23.5037 C   0  0  0  0  0  0  0  0  0  0  0  0
   11.6939  -18.8188   24.5733 O   0  0  0  0  0  0  0  0  0  0  0  0
   12.7585  -19.6986   24.5821 O   0  0  0  0  0  0  0  0  0  0  0  0
  2  1  1  0
  3  4  1  0
  3  2  1  0
  4  5  1  0
  5  6  1  6
  7  5  1  0
  7  8  2  0
 10  9  1  0
 11 10  2  0
 12 10  1  0
 13 14  1  0
 13 12  1  0
 14 15  1  0
 16 15  1  6
 16 17  1  0
 17  7  1  0
 18 16  1  0
 19 18  2  0
 21 20  1  0
 22 21  1  6
 22 24  1  0
 22 23  1  0
 23 18  1  0
 24 25  1  0
 26 24  2  0
M  END
$$$$
