MRS.pdb
     RDKit          3D

 26 25  0  0  1  0  0  0  0  0999 V2000
    7.6453  -10.9595   26.5798 C   0  0  0  0  0  0  0  0  0  0  0  0
    6.1904  -11.8131   27.1875 S   0  0  0  0  0  0  0  0  0  0  0  0
    5.8416  -13.3451   26.3018 C   0  0  0  0  0  0  0  0  0  0  0  0
    7.1333  -14.0878   25.9483 C   0  0  0  0  0  0  0  0  0  0  0  0
    6.7194  -15.2719   25.1087 C   0  0  2  0  0  0  0  0  0  0  0  0
    5.8539  -16.1013   25.8641 N   0  0  0  0  0  0  0  0  0  0  0  0
    7.8722  -16.0356   24.5828 C   0  0  0  0  0  0  0  0  0  0  0  0
    8.2705  -17.1256   25.0389 O   0  0  0  0  0  0  0  0  0  0  0  0
    7.9563  -12.1142   18.7908 N   0  0  0  0  0  0  0  0  0  0  0  0
    7.7550  -13.3272   18.0688 C   0  0  0  0  0  0  0  0  0  0  0  0
    6.9752  -13.3806   17.0504 N   0  0  0  0  0  0  0  0  0  0  0  0
    8.4265  -14.5058   18.4818 N   0  0  0  0  0  0  0  0  0  0  0  0
    9.4846  -14.5129   19.4697 C   0  0  0  0  0  0  0  0  0  0  0  0
    9.0934  -15.4077   20.6219 C   0  0  0  0  0  0  0  0  0  0  0  0
   10.1598  -15.3735   21.6699 C   0  0  0  0  0  0  0  0  0  0  0  0
    9.7061  -16.1458   22.8819 C   0  0  2  0  0  0  0  0  0  0  0  0
    8.5817  -15.4873   23.4740 N   0  0  0  0  0  0  0  0  0  0  0  0
   10.8096  -16.3075   23.8704 C   0  0  0  0  0  0  0  0  0  0  0  0
   11.2066  -15.3448   24.5677 O   0  0  0  0  0  0  0  0  0  0  0  0
    6.9074  -14.2900   16.5297 O   0  0  0  0  0  0  0  0  0  0  0  0
   11.3656  -19.4190   26.1091 C   0  0  0  0  0  0  0  0  0  0  0  0
   12.5465  -19.2079   25.3808 C   0  0  2  0  0  0  0  0  0  0  0  0
   12.5582  -17.7870   24.8400 N   0  0  0  0  0  0  0  0  0  0  0  0
   11.4119  -17.5913   24.0093 C   0  0  0  0  0  0  0  0  0  0  0  0
   13.7915  -17.5703   24.0640 O   0  0  0  0  0  0  0  0  0  0  0  0
   15.0167  -17.7484   24.6761 O   0  0  0  0  0  0  0  0  0  0  0  0
  2  1  1  0
  3  4  1  0
  3  2  1  0
  4  5  1  0
  5  6  1  1
  7  5  1  0
  7  8  2  0
 10  9  1  0
 11 10  2  0
 12 10  1  0
 13 14  1  0
 13 12  1  0
 14 15  1  0
 16 15  1  6
 16 17  1  0
 17  7  1  0
 18 16  1  0
 19 18  2  0
 21 20  1  0
 22 21  1  1
 22 24  1  0
 22 23  1  0
 23 18  1  0
 24 25  1  0
 26 24  2  0
M  END
$$$$
