MRS.pdb
     RDKit          3D

 26 25  0  0  1  0  0  0  0  0999 V2000
    7.8896  -11.3327   27.2133 C   0  0  0  0  0  0  0  0  0  0  0  0
    6.2621  -11.9536   27.6384 S   0  0  0  0  0  0  0  0  0  0  0  0
    5.9276  -13.5934   26.9661 C   0  0  0  0  0  0  0  0  0  0  0  0
    6.8813  -13.9261   25.8150 C   0  0  0  0  0  0  0  0  0  0  0  0
    6.4311  -15.2598   25.2701 C   0  0  2  0  0  0  0  0  0  0  0  0
    6.5120  -16.2352   26.2947 N   0  0  0  0  0  0  0  0  0  0  0  0
    7.1890  -15.6767   24.0699 C   0  0  0  0  0  0  0  0  0  0  0  0
    7.8292  -16.7417   23.9679 O   0  0  0  0  0  0  0  0  0  0  0  0
    9.2679  -15.8449   16.3327 N   0  0  0  0  0  0  0  0  0  0  0  0
    8.4355  -14.7105   16.5635 C   0  0  0  0  0  0  0  0  0  0  0  0
    7.6136  -14.2885   15.6723 N   0  0  0  0  0  0  0  0  0  0  0  0
    8.5145  -14.0267   17.8032 N   0  0  0  0  0  0  0  0  0  0  0  0
    9.2717  -14.5179   18.9350 C   0  0  0  0  0  0  0  0  0  0  0  0
    9.1087  -13.5712   20.1006 C   0  0  0  0  0  0  0  0  0  0  0  0
    7.8381  -13.8809   20.8263 C   0  0  0  0  0  0  0  0  0  0  0  0
    8.0850  -14.9658   21.8427 C   0  0  2  0  0  0  0  0  0  0  0  0
    7.1897  -14.7980   22.9467 N   0  0  0  0  0  0  0  0  0  0  0  0
    9.5025  -14.9703   22.3026 C   0  0  0  0  0  0  0  0  0  0  0  0
   10.0020  -13.9798   22.8856 O   0  0  0  0  0  0  0  0  0  0  0  0
    7.0595  -13.4220   15.8847 O   0  0  0  0  0  0  0  0  0  0  0  0
   11.3115  -18.5436   22.6679 C   0  0  0  0  0  0  0  0  0  0  0  0
   11.8927  -17.4327   23.2987 C   0  0  1  0  0  0  0  0  0  0  0  0
   11.6636  -16.1931   22.4486 N   0  0  0  0  0  0  0  0  0  0  0  0
   10.2882  -16.1348   22.0644 C   0  0  0  0  0  0  0  0  0  0  0  0
   12.5231  -16.2551   21.2538 O   0  0  0  0  0  0  0  0  0  0  0  0
   11.9407  -16.3045   20.0024 O   0  0  0  0  0  0  0  0  0  0  0  0
  2  1  1  0
  3  4  1  0
  3  2  1  0
  4  5  1  0
  5  6  1  1
  7  5  1  0
  7  8  2  0
 10  9  1  0
 11 10  2  0
 12 10  1  0
 13 14  1  0
 13 12  1  0
 14 15  1  0
 16 15  1  6
 16 17  1  0
 17  7  1  0
 18 16  1  0
 19 18  2  0
 21 20  1  0
 22 21  1  1
 22 24  1  0
 22 23  1  0
 23 18  1  0
 24 25  1  0
 26 24  2  0
M  END
$$$$
