MRS.pdb
     RDKit          3D

 26 25  0  0  1  0  0  0  0  0999 V2000
    5.5774  -12.3775   19.9526 C   0  0  0  0  0  0  0  0  0  0  0  0
    6.5033  -11.7058   18.5718 S   0  0  0  0  0  0  0  0  0  0  0  0
    8.1410  -12.4388   18.3887 C   0  0  0  0  0  0  0  0  0  0  0  0
    8.2339  -13.7796   19.1226 C   0  0  0  0  0  0  0  0  0  0  0  0
    9.6653  -14.2368   18.9804 C   0  0  2  0  0  0  0  0  0  0  0  0
    9.9271  -14.5390   17.6211 N   0  0  0  0  0  0  0  0  0  0  0  0
    9.9939  -15.3813   19.8585 C   0  0  0  0  0  0  0  0  0  0  0  0
    9.7398  -15.4376   21.0779 O   0  0  0  0  0  0  0  0  0  0  0  0
   12.2496  -23.4937   21.5486 N   0  0  0  0  0  0  0  0  0  0  0  0
   12.1472  -22.9964   20.2162 C   0  0  0  0  0  0  0  0  0  0  0  0
   11.2146  -23.3854   19.4244 N   0  0  0  0  0  0  0  0  0  0  0  0
   13.0959  -22.0523   19.7480 N   0  0  0  0  0  0  0  0  0  0  0  0
   12.7360  -20.8730   18.9896 C   0  0  0  0  0  0  0  0  0  0  0  0
   12.1317  -19.8431   19.9146 C   0  0  0  0  0  0  0  0  0  0  0  0
   11.7869  -18.6115   19.1394 C   0  0  0  0  0  0  0  0  0  0  0  0
   11.1139  -17.6127   20.0452 C   0  0  2  0  0  0  0  0  0  0  0  0
   10.6494  -16.5028   19.2701 N   0  0  0  0  0  0  0  0  0  0  0  0
   12.0279  -17.1584   21.1311 C   0  0  0  0  0  0  0  0  0  0  0  0
   13.1113  -16.5837   20.8735 O   0  0  0  0  0  0  0  0  0  0  0  0
   11.1384  -22.9185   18.4869 O   0  0  0  0  0  0  0  0  0  0  0  0
   10.6347  -17.7148   24.9116 C   0  0  0  0  0  0  0  0  0  0  0  0
   11.5805  -16.6864   24.7806 C   0  0  1  0  0  0  0  0  0  0  0  0
   12.4615  -16.9625   23.5725 N   0  0  0  0  0  0  0  0  0  0  0  0
   11.6428  -17.3925   22.4827 C   0  0  0  0  0  0  0  0  0  0  0  0
   13.4438  -18.0060   23.9131 O   0  0  0  0  0  0  0  0  0  0  0  0
   14.3968  -17.7494   24.8794 O   0  0  0  0  0  0  0  0  0  0  0  0
  2  1  1  0
  3  4  1  0
  3  2  1  0
  4  5  1  0
  5  6  1  6
  7  5  1  0
  7  8  2  0
 10  9  1  0
 11 10  2  0
 12 10  1  0
 13 14  1  0
 13 12  1  0
 14 15  1  0
 16 15  1  6
 16 17  1  0
 17  7  1  0
 18 16  1  0
 19 18  2  0
 21 20  1  0
 22 21  1  6
 22 24  1  0
 22 23  1  0
 23 18  1  0
 24 25  1  0
 26 24  2  0
M  END
$$$$
