MRS.pdb
     RDKit          3D

 26 25  0  0  1  0  0  0  0  0999 V2000
    5.7368  -12.4491   26.9558 C   0  0  0  0  0  0  0  0  0  0  0  0
    7.4046  -12.3826   27.6106 S   0  0  0  0  0  0  0  0  0  0  0  0
    8.0694  -14.0054   28.0320 C   0  0  0  0  0  0  0  0  0  0  0  0
    8.5859  -14.7335   26.7877 C   0  0  0  0  0  0  0  0  0  0  0  0
    7.4501  -15.6057   26.3109 C   0  0  2  0  0  0  0  0  0  0  0  0
    7.2267  -16.6397   27.2536 N   0  0  0  0  0  0  0  0  0  0  0  0
    7.6752  -16.1537   24.9553 C   0  0  0  0  0  0  0  0  0  0  0  0
    8.1532  -17.2797   24.7139 O   0  0  0  0  0  0  0  0  0  0  0  0
    8.9050  -12.4291   17.3868 N   0  0  0  0  0  0  0  0  0  0  0  0
    8.5437  -13.7955   17.1978 C   0  0  0  0  0  0  0  0  0  0  0  0
    9.2271  -14.5714   16.4370 N   0  0  0  0  0  0  0  0  0  0  0  0
    7.4027  -14.3145   17.8607 N   0  0  0  0  0  0  0  0  0  0  0  0
    7.0291  -13.9427   19.2089 C   0  0  0  0  0  0  0  0  0  0  0  0
    7.7830  -14.8016   20.1966 C   0  0  0  0  0  0  0  0  0  0  0  0
    7.2821  -14.5345   21.5803 C   0  0  0  0  0  0  0  0  0  0  0  0
    7.8795  -15.5326   22.5384 C   0  0  2  0  0  0  0  0  0  0  0  0
    7.3211  -15.3364   23.8415 N   0  0  0  0  0  0  0  0  0  0  0  0
    9.3659  -15.4314   22.5753 C   0  0  0  0  0  0  0  0  0  0  0  0
    9.9390  -14.4114   23.0243 O   0  0  0  0  0  0  0  0  0  0  0  0
    8.9431  -15.5809   16.3811 O   0  0  0  0  0  0  0  0  0  0  0  0
   11.2860  -18.8330   22.4720 C   0  0  0  0  0  0  0  0  0  0  0  0
   12.0900  -17.7293   22.7957 C   0  0  1  0  0  0  0  0  0  0  0  0
   11.5607  -16.4939   22.0847 N   0  0  0  0  0  0  0  0  0  0  0  0
   10.1319  -16.5281   22.0849 C   0  0  0  0  0  0  0  0  0  0  0  0
   12.0686  -16.4714   20.7022 O   0  0  0  0  0  0  0  0  0  0  0  0
   13.4294  -16.3860   20.4820 O   0  0  0  0  0  0  0  0  0  0  0  0
  2  1  1  0
  3  4  1  0
  3  2  1  0
  4  5  1  0
  5  6  1  1
  7  5  1  0
  7  8  2  0
 10  9  1  0
 11 10  2  0
 12 10  1  0
 13 14  1  0
 13 12  1  0
 14 15  1  0
 16 15  1  6
 16 17  1  0
 17  7  1  0
 18 16  1  0
 19 18  2  0
 21 20  1  0
 22 21  1  1
 22 24  1  0
 22 23  1  0
 23 18  1  0
 24 25  1  0
 26 24  2  0
M  END
$$$$
