MRS.pdb
     RDKit          3D

 26 25  0  0  1  0  0  0  0  0999 V2000
   10.0834  -12.9007   28.4869 C   0  0  0  0  0  0  0  0  0  0  0  0
   10.1102  -14.5834   29.1054 S   0  0  0  0  0  0  0  0  0  0  0  0
    8.8341  -15.6299   28.3778 C   0  0  0  0  0  0  0  0  0  0  0  0
    9.0443  -15.7939   26.8698 C   0  0  0  0  0  0  0  0  0  0  0  0
    7.8792  -16.6138   26.3711 C   0  0  2  0  0  0  0  0  0  0  0  0
    7.8429  -17.8471   27.0678 N   0  0  0  0  0  0  0  0  0  0  0  0
    7.9083  -16.8241   24.9070 C   0  0  0  0  0  0  0  0  0  0  0  0
    8.2037  -17.8993   24.3490 O   0  0  0  0  0  0  0  0  0  0  0  0
    7.9217  -12.5126   17.9558 N   0  0  0  0  0  0  0  0  0  0  0  0
    8.1522  -13.9108   17.7979 C   0  0  0  0  0  0  0  0  0  0  0  0
    9.1677  -14.3547   17.1500 N   0  0  0  0  0  0  0  0  0  0  0  0
    7.2409  -14.8375   18.3648 N   0  0  0  0  0  0  0  0  0  0  0  0
    6.7332  -14.7277   19.7160 C   0  0  0  0  0  0  0  0  0  0  0  0
    7.8514  -14.3136   20.6433 C   0  0  0  0  0  0  0  0  0  0  0  0
    7.3920  -14.4170   22.0628 C   0  0  0  0  0  0  0  0  0  0  0  0
    8.0238  -15.6198   22.7150 C   0  0  2  0  0  0  0  0  0  0  0  0
    7.5753  -15.7181   24.0706 N   0  0  0  0  0  0  0  0  0  0  0  0
    9.5113  -15.5577   22.6495 C   0  0  0  0  0  0  0  0  0  0  0  0
   10.1696  -14.8438   23.4417 O   0  0  0  0  0  0  0  0  0  0  0  0
    9.2984  -15.3951   17.0928 O   0  0  0  0  0  0  0  0  0  0  0  0
   12.8925  -17.2240   23.4878 C   0  0  0  0  0  0  0  0  0  0  0  0
   12.0242  -17.6447   22.4688 C   0  0  2  0  0  0  0  0  0  0  0  0
   11.6034  -16.4435   21.6370 N   0  0  0  0  0  0  0  0  0  0  0  0
   10.1786  -16.3335   21.6581 C   0  0  0  0  0  0  0  0  0  0  0  0
   12.0796  -16.6168   20.2538 O   0  0  0  0  0  0  0  0  0  0  0  0
   13.4140  -16.4070   19.9657 O   0  0  0  0  0  0  0  0  0  0  0  0
  2  1  1  0
  3  4  1  0
  3  2  1  0
  4  5  1  0
  5  6  1  1
  7  5  1  0
  7  8  2  0
 10  9  1  0
 11 10  2  0
 12 10  1  0
 13 14  1  0
 13 12  1  0
 14 15  1  0
 16 15  1  1
 16 17  1  0
 17  7  1  0
 18 16  1  0
 19 18  2  0
 21 20  1  0
 22 21  1  1
 22 24  1  0
 22 23  1  0
 23 18  1  0
 24 25  1  0
 26 24  2  0
M  END
$$$$
