MRS.pdb
     RDKit          3D

 26 25  0  0  1  0  0  0  0  0999 V2000
    6.0215  -11.2870   26.5267 C   0  0  0  0  0  0  0  0  0  0  0  0
    6.9428  -12.3418   27.6463 S   0  0  0  0  0  0  0  0  0  0  0  0
    6.7076  -14.1006   27.3232 C   0  0  0  0  0  0  0  0  0  0  0  0
    7.7882  -14.6412   26.3824 C   0  0  0  0  0  0  0  0  0  0  0  0
    7.2588  -15.9478   25.8431 C   0  0  2  0  0  0  0  0  0  0  0  0
    7.1070  -16.8672   26.9105 N   0  0  0  0  0  0  0  0  0  0  0  0
    8.1023  -16.5096   24.7655 C   0  0  0  0  0  0  0  0  0  0  0  0
    8.7883  -17.5459   24.8667 O   0  0  0  0  0  0  0  0  0  0  0  0
    7.9098  -13.9589   16.6465 N   0  0  0  0  0  0  0  0  0  0  0  0
    8.4607  -13.3863   17.8304 C   0  0  0  0  0  0  0  0  0  0  0  0
    9.0545  -12.2483   17.8122 N   0  0  0  0  0  0  0  0  0  0  0  0
    8.3559  -14.0864   19.0591 N   0  0  0  0  0  0  0  0  0  0  0  0
    7.3702  -15.1177   19.3047 C   0  0  0  0  0  0  0  0  0  0  0  0
    7.4533  -15.5624   20.7459 C   0  0  0  0  0  0  0  0  0  0  0  0
    8.8176  -15.2707   21.2844 C   0  0  0  0  0  0  0  0  0  0  0  0
    9.0819  -16.1320   22.4925 C   0  0  2  0  0  0  0  0  0  0  0  0
    8.1357  -15.8173   23.5191 N   0  0  0  0  0  0  0  0  0  0  0  0
   10.4782  -15.9659   22.9862 C   0  0  0  0  0  0  0  0  0  0  0  0
   10.7860  -15.0394   23.7719 O   0  0  0  0  0  0  0  0  0  0  0  0
    9.4724  -11.8970   18.7092 O   0  0  0  0  0  0  0  0  0  0  0  0
   14.6373  -18.1154   23.8204 C   0  0  0  0  0  0  0  0  0  0  0  0
   13.3114  -18.1954   23.3677 C   0  0  2  0  0  0  0  0  0  0  0  0
   12.8197  -16.8047   22.9987 N   0  0  0  0  0  0  0  0  0  0  0  0
   11.4678  -16.8902   22.5431 C   0  0  0  0  0  0  0  0  0  0  0  0
   13.6791  -16.2484   21.9395 O   0  0  0  0  0  0  0  0  0  0  0  0
   14.9789  -15.8910   22.2401 O   0  0  0  0  0  0  0  0  0  0  0  0
  2  1  1  0
  3  4  1  0
  3  2  1  0
  4  5  1  0
  5  6  1  1
  7  5  1  0
  7  8  2  0
 10  9  1  0
 11 10  2  0
 12 10  1  0
 13 14  1  0
 13 12  1  0
 14 15  1  0
 16 15  1  6
 16 17  1  0
 17  7  1  0
 18 16  1  0
 19 18  2  0
 21 20  1  0
 22 21  1  1
 22 24  1  0
 22 23  1  0
 23 18  1  0
 24 25  1  0
 26 24  2  0
M  END
$$$$
