RGN.pdb
     RDKit          3D

 24 23  0  0  1  0  0  0  0  0999 V2000
    8.8258  -11.6093   20.0750 N   0  0  0  0  0  0  0  0  0  0  0  0
    8.9159  -12.8352   19.3326 C   0  0  0  0  0  0  0  0  0  0  0  0
    9.9366  -13.0166   18.5975 N   0  0  0  0  0  0  0  0  0  0  0  0
    7.8731  -13.7970   19.4401 N   0  0  0  0  0  0  0  0  0  0  0  0
    7.2987  -14.1769   20.7082 C   0  0  0  0  0  0  0  0  0  0  0  0
    7.3387  -15.6552   20.8479 C   0  0  0  0  0  0  0  0  0  0  0  0
    6.7767  -16.2321   22.0917 C   0  0  0  0  0  0  0  0  0  0  0  0
    7.0995  -15.5290   23.3635 C   0  0  2  0  0  0  0  0  0  0  0  0
    8.5215  -15.3715   23.5588 N   0  0  0  0  0  0  0  0  0  0  0  0
    6.6015  -16.4103   24.4788 C   0  0  0  0  0  0  0  0  0  0  0  0
    5.3864  -16.5933   24.6475 O   0  0  0  0  0  0  0  0  0  0  0  0
   10.0866  -13.9017   18.1064 N   0  0  0  0  0  0  0  0  0  0  0  0
    7.5162  -17.0517   25.3629 C   0  0  0  0  0  0  0  0  0  0  0  0
    7.3297  -18.3917   25.7911 C   0  0  0  0  0  0  0  0  0  0  0  0
    8.4122  -18.9424   26.6435 O   0  0  0  0  0  0  0  0  0  0  0  0
    8.2916  -20.1127   27.1520 N   0  0  0  0  0  0  0  0  0  0  0  0
   12.4013  -17.2774   24.7995 C   0  0  0  0  0  0  0  0  0  0  0  0
   12.1810  -18.4050   25.6061 O   0  0  0  0  0  0  0  0  0  0  0  0
   12.0927  -19.5208   24.9764 C   0  0  0  0  0  0  0  0  0  0  0  0
   12.0428  -18.4716   27.0493 C   0  0  2  0  0  0  0  0  0  0  0  0
   10.7481  -18.9907   27.5854 N   0  0  0  0  0  0  0  0  0  0  0  0
    9.6193  -18.2695   26.9600 C   0  0  0  0  0  0  0  0  0  0  0  0
   10.6145  -18.8540   29.0389 O   0  0  0  0  0  0  0  0  0  0  0  0
    9.7351  -18.1316   29.5417 O   0  0  0  0  0  0  0  0  0  0  0  0
  1  2  1  0
  2  3  2  0
  4  5  1  0
  4  2  1  0
  6  5  1  0
  7  6  1  0
  7  8  1  0
  8  9  1  1
 10  8  1  0
 10 12  1  0
 11 10  2  0
 13 12  1  0
 13 14  1  0
 14 21  1  0
 15 14  2  0
 17 16  1  0
 18 17  2  0
 19 17  1  0
 20 19  1  6
 20 22  1  0
 21 20  1  0
 22 23  2  0
 22 24  1  0
M  END
$$$$
