RGN.pdb
     RDKit          3D

 24 23  0  0  1  0  0  0  0  0999 V2000
    6.3573  -14.0783   19.8609 N   0  0  0  0  0  0  0  0  0  0  0  0
    7.6928  -13.8068   19.4080 C   0  0  0  0  0  0  0  0  0  0  0  0
    7.8426  -13.0151   18.4253 N   0  0  0  0  0  0  0  0  0  0  0  0
    8.7936  -14.4248   20.0640 N   0  0  0  0  0  0  0  0  0  0  0  0
    8.6207  -15.3915   21.1214 C   0  0  0  0  0  0  0  0  0  0  0  0
    8.0370  -16.6382   20.5633 C   0  0  0  0  0  0  0  0  0  0  0  0
    8.9549  -17.5499   19.8408 C   0  0  0  0  0  0  0  0  0  0  0  0
    8.4382  -18.9094   19.5232 C   0  0  2  0  0  0  0  0  0  0  0  0
    7.1616  -19.1714   20.1449 N   0  0  0  0  0  0  0  0  0  0  0  0
    9.4190  -19.8890   20.1123 C   0  0  0  0  0  0  0  0  0  0  0  0
   10.5595  -20.0061   19.6392 O   0  0  0  0  0  0  0  0  0  0  0  0
    8.7732  -12.7202   18.1183 N   0  0  0  0  0  0  0  0  0  0  0  0
    9.0564  -20.7014   21.2251 C   0  0  0  0  0  0  0  0  0  0  0  0
    9.9987  -21.5330   21.8843 C   0  0  0  0  0  0  0  0  0  0  0  0
   11.0942  -20.8191   22.5856 O   0  0  0  0  0  0  0  0  0  0  0  0
   12.2784  -20.8274   22.0951 N   0  0  0  0  0  0  0  0  0  0  0  0
   11.4258  -16.3551   25.2615 C   0  0  0  0  0  0  0  0  0  0  0  0
   11.7415  -16.6539   23.9267 O   0  0  0  0  0  0  0  0  0  0  0  0
   11.8144  -15.6409   23.1406 C   0  0  0  0  0  0  0  0  0  0  0  0
   11.9958  -17.9502   23.3257 C   0  0  1  0  0  0  0  0  0  0  0  0
   11.9835  -19.1358   24.2353 N   0  0  0  0  0  0  0  0  0  0  0  0
   10.9488  -20.0960   23.7964 C   0  0  0  0  0  0  0  0  0  0  0  0
   11.7154  -18.8007   25.6371 O   0  0  0  0  0  0  0  0  0  0  0  0
   10.6400  -19.1102   26.1810 O   0  0  0  0  0  0  0  0  0  0  0  0
  1  2  1  0
  2  3  2  0
  4  5  1  0
  4  2  1  0
  6  5  1  0
  7  6  1  0
  7  8  1  0
  8  9  1  1
 10  8  1  0
 10 12  1  0
 11 10  2  0
 13 12  1  0
 13 14  1  0
 14 21  1  0
 15 14  2  0
 17 16  1  0
 18 17  2  0
 19 17  1  0
 20 19  1  6
 20 22  1  0
 21 20  1  0
 22 23  2  0
 22 24  1  0
M  END
$$$$
