RGN.pdb
     RDKit          3D

 24 23  0  0  1  0  0  0  0  0999 V2000
    5.1486  -19.5996   21.6568 N   0  0  0  0  0  0  0  0  0  0  0  0
    4.1713  -20.0650   20.7131 C   0  0  0  0  0  0  0  0  0  0  0  0
    3.1888  -20.7409   21.1524 N   0  0  0  0  0  0  0  0  0  0  0  0
    4.3305  -19.7602   19.3327 N   0  0  0  0  0  0  0  0  0  0  0  0
    5.5675  -19.2521   18.7902 C   0  0  0  0  0  0  0  0  0  0  0  0
    5.5786  -17.7697   18.8842 C   0  0  0  0  0  0  0  0  0  0  0  0
    6.7980  -17.0716   18.4138 C   0  0  0  0  0  0  0  0  0  0  0  0
    7.9343  -16.9863   19.3717 C   0  0  2  0  0  0  0  0  0  0  0  0
    8.0328  -18.1555   20.2133 N   0  0  0  0  0  0  0  0  0  0  0  0
    7.6434  -15.8198   20.2789 C   0  0  0  0  0  0  0  0  0  0  0  0
    7.4121  -14.6948   19.8105 O   0  0  0  0  0  0  0  0  0  0  0  0
    2.4364  -21.0491   20.5312 N   0  0  0  0  0  0  0  0  0  0  0  0
    7.6280  -15.9846   21.6940 C   0  0  0  0  0  0  0  0  0  0  0  0
    7.3117  -14.9137   22.5697 C   0  0  0  0  0  0  0  0  0  0  0  0
    7.3226  -15.2508   24.0146 O   0  0  0  0  0  0  0  0  0  0  0  0
    6.9538  -14.3772   24.8769 N   0  0  0  0  0  0  0  0  0  0  0  0
    8.2740  -17.0127   28.3382 C   0  0  0  0  0  0  0  0  0  0  0  0
    8.6192  -18.0502   27.4578 O   0  0  0  0  0  0  0  0  0  0  0  0
    8.6329  -19.2259   27.9745 C   0  0  0  0  0  0  0  0  0  0  0  0
    8.9584  -17.9660   26.0492 C   0  0  2  0  0  0  0  0  0  0  0  0
    8.9110  -16.6123   25.4180 N   0  0  0  0  0  0  0  0  0  0  0  0
    7.7162  -16.5013   24.5546 C   0  0  0  0  0  0  0  0  0  0  0  0
   10.0853  -16.3032   24.5967 O   0  0  0  0  0  0  0  0  0  0  0  0
   10.0945  -16.5265   23.3727 O   0  0  0  0  0  0  0  0  0  0  0  0
  1  2  1  0
  2  3  2  0
  4  5  1  0
  4  2  1  0
  6  5  1  0
  7  6  1  0
  7  8  1  0
  8  9  1  1
 10  8  1  0
 10 12  1  0
 11 10  2  0
 13 12  1  0
 13 14  1  0
 14 21  1  0
 15 14  2  0
 17 16  1  0
 18 17  2  0
 19 17  1  0
 20 19  1  1
 20 22  1  0
 21 20  1  0
 22 23  2  0
 22 24  1  0
M  END
$$$$
