RGN.pdb
     RDKit          3D

 24 23  0  0  1  0  0  0  0  0999 V2000
    6.6439  -14.6050   15.5378 N   0  0  0  0  0  0  0  0  0  0  0  0
    7.9741  -14.1994   15.8961 C   0  0  0  0  0  0  0  0  0  0  0  0
    8.9483  -14.8914   15.4634 N   0  0  0  0  0  0  0  0  0  0  0  0
    8.1591  -13.0506   16.7146 N   0  0  0  0  0  0  0  0  0  0  0  0
    8.2605  -13.1328   18.1518 C   0  0  0  0  0  0  0  0  0  0  0  0
    7.1626  -13.9834   18.6787 C   0  0  0  0  0  0  0  0  0  0  0  0
    7.1721  -14.2762   20.1312 C   0  0  0  0  0  0  0  0  0  0  0  0
    8.4452  -14.0209   20.8592 C   0  0  2  0  0  0  0  0  0  0  0  0
    9.5576  -14.7462   20.2922 N   0  0  0  0  0  0  0  0  0  0  0  0
    8.2514  -14.5446   22.2581 C   0  0  0  0  0  0  0  0  0  0  0  0
    7.1554  -14.4372   22.8288 O   0  0  0  0  0  0  0  0  0  0  0  0
    9.9156  -14.6450   15.6881 N   0  0  0  0  0  0  0  0  0  0  0  0
    9.3232  -15.1738   22.9545 C   0  0  0  0  0  0  0  0  0  0  0  0
    9.1451  -15.7541   24.2372 C   0  0  0  0  0  0  0  0  0  0  0  0
   10.3918  -16.1778   24.9211 O   0  0  0  0  0  0  0  0  0  0  0  0
   10.3289  -16.7529   26.0648 N   0  0  0  0  0  0  0  0  0  0  0  0
   13.1497  -20.4574   22.8871 C   0  0  0  0  0  0  0  0  0  0  0  0
   12.5143  -19.6017   23.8007 O   0  0  0  0  0  0  0  0  0  0  0  0
   12.3942  -20.0643   24.9927 C   0  0  0  0  0  0  0  0  0  0  0  0
   11.9813  -18.2710   23.5736 C   0  0  2  0  0  0  0  0  0  0  0  0
   12.6353  -17.1428   24.3034 N   0  0  0  0  0  0  0  0  0  0  0  0
   11.7012  -16.0017   24.4066 C   0  0  0  0  0  0  0  0  0  0  0  0
   13.8620  -16.6587   23.6631 O   0  0  0  0  0  0  0  0  0  0  0  0
   14.9750  -17.1281   23.9615 O   0  0  0  0  0  0  0  0  0  0  0  0
  1  2  1  0
  2  3  2  0
  4  5  1  0
  4  2  1  0
  6  5  1  0
  7  6  1  0
  7  8  1  0
  8  9  1  6
 10  8  1  0
 10 12  1  0
 11 10  2  0
 13 12  1  0
 13 14  1  0
 14 21  1  0
 15 14  2  0
 17 16  1  0
 18 17  2  0
 19 17  1  0
 20 19  1  1
 20 22  1  0
 21 20  1  0
 22 23  2  0
 22 24  1  0
M  END
$$$$
