RGN.pdb
     RDKit          3D

 24 23  0  0  1  0  0  0  0  0999 V2000
-113711.7500109666.8828-146763.1094 N   0  0  0  0  0  0  0  0  0  0  0  0
-113712.1172109666.5547-146764.4062 C   0  0  0  0  0  0  0  0  0  0  0  0
-113712.8281109667.3672-146765.0469 N   0  0  0  0  0  0  0  0  0  0  0  0
-113711.6484109665.3438-146765.0000 N   0  0  0  0  0  0  0  0  0  0  0  0
-113710.2578109665.1406-146765.3594 C   0  0  0  0  0  0  0  0  0  0  0  0
-113709.6016109666.4531-146765.5000 C   0  0  0  0  0  0  0  0  0  0  0  0
-113708.2891109666.4688-146766.1719 C   0  0  0  0  0  0  0  0  0  0  0  0
-113708.2109109667.3672-146767.4062 C   0  0  2  0  0  0  0  0  0  0  0  0
-113709.4844109668.0234-146767.6875 N   0  0  0  0  0  0  0  0  0  0  0  0
-113707.8672109666.4844-146768.5469 C   0  0  0  0  0  0  0  0  0  0  0  0
-113707.9609109665.2188-146768.5156 O   0  0  0  0  0  0  0  0  0  0  0  0
-113713.3516109668.0859-146764.6719 N   0  0  0  0  0  0  0  0  0  0  0  0
-113707.4375109666.9688-146769.8281 C   0  0  0  0  0  0  0  0  0  0  0  0
-113706.5547109666.2031-146770.6562 C   0  0  0  0  0  0  0  0  0  0  0  0
-113705.6797109665.2734-146769.9844 O   0  0  0  0  0  0  0  0  0  0  0  0
-113705.3906109665.4922-146768.7812 N   0  0  0  0  0  0  0  0  0  0  0  0
-113701.7031109666.2031-146771.5000 C   0  0  0  0  0  0  0  0  0  0  0  0
-113702.1875109664.9297-146771.1094 O   0  0  0  0  0  0  0  0  0  0  0  0
-113702.0156109663.9844-146771.9844 C   0  0  0  0  0  0  0  0  0  0  0  0
-113702.8125109664.5391-146769.8594 C   0  0  2  0  0  0  0  0  0  0  0  0
-113703.8672109663.4766-146769.8906 N   0  0  0  0  0  0  0  0  0  0  0  0
-113705.1016109664.0859-146770.5312 C   0  0  0  0  0  0  0  0  0  0  0  0
-113704.2812109662.9141-146768.6094 O   0  0  0  0  0  0  0  0  0  0  0  0
-113705.4531109662.8125-146768.2969 O   0  0  0  0  0  0  0  0  0  0  0  0
  1  2  1  0
  2  3  2  0
  4  5  1  0
  4  2  1  0
  6  5  1  0
  7  6  1  0
  7  8  1  0
  8  9  1  6
 10  8  1  0
 10 12  1  0
 11 10  2  0
 13 12  1  0
 13 14  1  0
 14 21  1  0
 15 14  2  0
 17 16  1  0
 18 17  2  0
 19 17  1  0
 20 19  1  6
 20 22  1  0
 21 20  1  0
 22 23  2  0
 22 24  1  0
M  END
$$$$
