RGN.pdb
     RDKit          3D

 24 23  0  0  1  0  0  0  0  0999 V2000
    8.0721  -11.7050   20.3131 N   0  0  0  0  0  0  0  0  0  0  0  0
    8.8174  -12.8267   19.8146 C   0  0  0  0  0  0  0  0  0  0  0  0
   10.0861  -12.7731   19.8656 N   0  0  0  0  0  0  0  0  0  0  0  0
    8.1224  -13.9493   19.2849 N   0  0  0  0  0  0  0  0  0  0  0  0
    8.7908  -15.1809   18.9399 C   0  0  0  0  0  0  0  0  0  0  0  0
    7.7912  -16.1717   18.4652 C   0  0  0  0  0  0  0  0  0  0  0  0
    8.3032  -17.4903   18.0240 C   0  0  0  0  0  0  0  0  0  0  0  0
    8.2870  -18.5876   19.0299 C   0  0  2  0  0  0  0  0  0  0  0  0
    7.0028  -18.7218   19.6763 N   0  0  0  0  0  0  0  0  0  0  0  0
    9.2750  -18.2028   20.0997 C   0  0  0  0  0  0  0  0  0  0  0  0
   10.4652  -17.9960   19.8185 O   0  0  0  0  0  0  0  0  0  0  0  0
   10.6642  -13.5445   19.5222 N   0  0  0  0  0  0  0  0  0  0  0  0
    8.8625  -18.0685   21.4568 C   0  0  0  0  0  0  0  0  0  0  0  0
    9.7323  -17.5632   22.4578 C   0  0  0  0  0  0  0  0  0  0  0  0
   10.4386  -18.5903   23.2626 O   0  0  0  0  0  0  0  0  0  0  0  0
   10.1260  -19.8269   23.1361 N   0  0  0  0  0  0  0  0  0  0  0  0
   14.7812  -17.6004   23.4256 C   0  0  0  0  0  0  0  0  0  0  0  0
   14.2070  -18.8405   23.7463 O   0  0  0  0  0  0  0  0  0  0  0  0
   14.2500  -19.7223   22.8135 C   0  0  0  0  0  0  0  0  0  0  0  0
   13.5772  -19.2518   24.9875 C   0  0  2  0  0  0  0  0  0  0  0  0
   12.0919  -19.4153   24.9750 N   0  0  0  0  0  0  0  0  0  0  0  0
   11.4719  -18.3227   24.1958 C   0  0  0  0  0  0  0  0  0  0  0  0
   11.4868  -19.4102   26.3103 O   0  0  0  0  0  0  0  0  0  0  0  0
   10.6766  -18.5287   26.6489 O   0  0  0  0  0  0  0  0  0  0  0  0
  1  2  1  0
  2  3  2  0
  4  5  1  0
  4  2  1  0
  6  5  1  0
  7  6  1  0
  7  8  1  0
  8  9  1  1
 10  8  1  0
 10 12  1  0
 11 10  2  0
 13 12  1  0
 13 14  1  0
 14 21  1  0
 15 14  2  0
 17 16  1  0
 18 17  2  0
 19 17  1  0
 20 19  1  6
 20 22  1  0
 21 20  1  0
 22 23  2  0
 22 24  1  0
M  END
$$$$
