RGN.pdb
     RDKit          3D

 24 23  0  0  1  0  0  0  0  0999 V2000
    9.8881  -13.2389   19.7869 N   0  0  0  0  0  0  0  0  0  0  0  0
    8.5108  -13.1394   19.3924 C   0  0  0  0  0  0  0  0  0  0  0  0
    7.8327  -12.1566   19.8274 N   0  0  0  0  0  0  0  0  0  0  0  0
    7.9538  -14.1315   18.5384 N   0  0  0  0  0  0  0  0  0  0  0  0
    7.5325  -15.4232   19.0249 C   0  0  0  0  0  0  0  0  0  0  0  0
    8.7230  -16.2857   19.2375 C   0  0  0  0  0  0  0  0  0  0  0  0
    8.6731  -17.2393   20.3705 C   0  0  0  0  0  0  0  0  0  0  0  0
    8.1401  -16.7218   21.6605 C   0  0  2  0  0  0  0  0  0  0  0  0
    8.0616  -15.2802   21.6841 N   0  0  0  0  0  0  0  0  0  0  0  0
    9.1289  -17.1217   22.7240 C   0  0  0  0  0  0  0  0  0  0  0  0
    9.2835  -18.3139   23.0295 O   0  0  0  0  0  0  0  0  0  0  0  0
    6.8557  -12.0232   19.5539 N   0  0  0  0  0  0  0  0  0  0  0  0
    9.9068  -16.1387   23.4010 C   0  0  0  0  0  0  0  0  0  0  0  0
   10.6718  -16.4523   24.5542 C   0  0  0  0  0  0  0  0  0  0  0  0
   10.0906  -16.0028   25.8433 O   0  0  0  0  0  0  0  0  0  0  0  0
    9.0149  -16.5441   26.2819 N   0  0  0  0  0  0  0  0  0  0  0  0
    7.0598  -12.9975   25.8450 C   0  0  0  0  0  0  0  0  0  0  0  0
    8.2319  -13.2239   26.5836 O   0  0  0  0  0  0  0  0  0  0  0  0
    9.1920  -12.4024   26.3538 C   0  0  0  0  0  0  0  0  0  0  0  0
    8.4957  -14.2579   27.5673 C   0  0  2  0  0  0  0  0  0  0  0  0
    9.9272  -14.5415   27.8888 N   0  0  0  0  0  0  0  0  0  0  0  0
   10.6368  -14.9904   26.6721 C   0  0  0  0  0  0  0  0  0  0  0  0
   10.1080  -15.5714   28.9163 O   0  0  0  0  0  0  0  0  0  0  0  0
   10.4669  -15.2763   30.0705 O   0  0  0  0  0  0  0  0  0  0  0  0
  1  2  1  0
  2  3  2  0
  4  5  1  0
  4  2  1  0
  6  5  1  0
  7  6  1  0
  7  8  1  0
  8  9  1  6
 10  8  1  0
 10 12  1  0
 11 10  2  0
 13 12  1  0
 13 14  1  0
 14 21  1  0
 15 14  2  0
 17 16  1  0
 18 17  2  0
 19 17  1  0
 20 19  1  6
 20 22  1  0
 21 20  1  0
 22 23  2  0
 22 24  1  0
M  END
$$$$
