RGN.pdb
     RDKit          3D

 24 23  0  0  1  0  0  0  0  0999 V2000
    8.3734  -14.9369   15.8817 N   0  0  0  0  0  0  0  0  0  0  0  0
    7.9627  -13.6355   15.4342 C   0  0  0  0  0  0  0  0  0  0  0  0
    8.2676  -13.2852   14.2513 N   0  0  0  0  0  0  0  0  0  0  0  0
    7.2373  -12.7883   16.3173 N   0  0  0  0  0  0  0  0  0  0  0  0
    7.0574  -13.0999   17.7148 C   0  0  0  0  0  0  0  0  0  0  0  0
    8.0705  -14.1019   18.1342 C   0  0  0  0  0  0  0  0  0  0  0  0
    8.6909  -13.9188   19.4673 C   0  0  0  0  0  0  0  0  0  0  0  0
    8.5978  -15.0638   20.4139 C   0  0  2  0  0  0  0  0  0  0  0  0
    7.3111  -15.1355   21.0651 N   0  0  0  0  0  0  0  0  0  0  0  0
    9.6185  -14.8121   21.4926 C   0  0  0  0  0  0  0  0  0  0  0  0
    9.2920  -14.2724   22.5606 O   0  0  0  0  0  0  0  0  0  0  0  0
    7.9486  -12.3939   13.8628 N   0  0  0  0  0  0  0  0  0  0  0  0
   10.9801  -15.1888   21.3081 C   0  0  0  0  0  0  0  0  0  0  0  0
   11.9099  -15.1867   22.3801 C   0  0  0  0  0  0  0  0  0  0  0  0
   11.6428  -16.1749   23.4542 O   0  0  0  0  0  0  0  0  0  0  0  0
   10.9028  -15.8517   24.4496 N   0  0  0  0  0  0  0  0  0  0  0  0
   10.3074  -21.8316   25.0439 C   0  0  0  0  0  0  0  0  0  0  0  0
   10.5700  -20.4630   25.2126 O   0  0  0  0  0  0  0  0  0  0  0  0
   10.4738  -20.0308   26.4181 C   0  0  0  0  0  0  0  0  0  0  0  0
   10.9352  -19.4814   24.2078 C   0  0  2  0  0  0  0  0  0  0  0  0
   11.8679  -18.3922   24.6285 N   0  0  0  0  0  0  0  0  0  0  0  0
   12.1476  -17.4994   23.4839 C   0  0  0  0  0  0  0  0  0  0  0  0
   13.1529  -18.8803   25.1381 O   0  0  0  0  0  0  0  0  0  0  0  0
   13.2180  -19.5690   26.1723 O   0  0  0  0  0  0  0  0  0  0  0  0
  1  2  1  0
  2  3  2  0
  4  5  1  0
  4  2  1  0
  6  5  1  0
  7  6  1  0
  7  8  1  0
  8  9  1  1
 10  8  1  0
 10 12  1  0
 11 10  2  0
 13 12  1  0
 13 14  1  0
 14 21  1  0
 15 14  2  0
 17 16  1  0
 18 17  2  0
 19 17  1  0
 20 19  1  1
 20 22  1  0
 21 20  1  0
 22 23  2  0
 22 24  1  0
M  END
$$$$
