RGN.pdb
     RDKit          3D

 24 23  0  0  1  0  0  0  0  0999 V2000
    6.9060  -13.0728   16.5756 N   0  0  0  0  0  0  0  0  0  0  0  0
    7.9266  -14.0695   16.7404 C   0  0  0  0  0  0  0  0  0  0  0  0
    7.8588  -15.1198   16.0281 N   0  0  0  0  0  0  0  0  0  0  0  0
    8.9690  -13.8545   17.6844 N   0  0  0  0  0  0  0  0  0  0  0  0
    8.7187  -13.3434   19.0105 C   0  0  0  0  0  0  0  0  0  0  0  0
    7.3573  -13.7452   19.4482 C   0  0  0  0  0  0  0  0  0  0  0  0
    7.2442  -14.4417   20.7512 C   0  0  0  0  0  0  0  0  0  0  0  0
    8.4417  -15.1937   21.2165 C   0  0  2  0  0  0  0  0  0  0  0  0
    8.5987  -16.4554   20.5321 N   0  0  0  0  0  0  0  0  0  0  0  0
    8.2093  -15.5125   22.6701 C   0  0  0  0  0  0  0  0  0  0  0  0
    8.0395  -14.6053   23.4987 O   0  0  0  0  0  0  0  0  0  0  0  0
    8.5687  -15.8536   16.0953 N   0  0  0  0  0  0  0  0  0  0  0  0
    8.1798  -16.8630   23.1231 C   0  0  0  0  0  0  0  0  0  0  0  0
    8.0639  -17.1893   24.4993 C   0  0  0  0  0  0  0  0  0  0  0  0
    9.1152  -16.6193   25.3776 O   0  0  0  0  0  0  0  0  0  0  0  0
   10.3202  -16.5233   24.9516 N   0  0  0  0  0  0  0  0  0  0  0  0
    8.7465  -13.2832   25.8811 C   0  0  0  0  0  0  0  0  0  0  0  0
    8.8995  -13.2718   27.2764 O   0  0  0  0  0  0  0  0  0  0  0  0
    8.4315  -12.2340   27.8708 C   0  0  0  0  0  0  0  0  0  0  0  0
    9.5123  -14.2752   28.1274 C   0  0  2  0  0  0  0  0  0  0  0  0
   10.0016  -15.5220   27.4648 N   0  0  0  0  0  0  0  0  0  0  0  0
    8.9038  -16.1485   26.6981 C   0  0  0  0  0  0  0  0  0  0  0  0
   10.5195  -16.5235   28.4019 O   0  0  0  0  0  0  0  0  0  0  0  0
    9.9121  -17.5893   28.6091 O   0  0  0  0  0  0  0  0  0  0  0  0
  1  2  1  0
  2  3  2  0
  4  5  1  0
  4  2  1  0
  6  5  1  0
  7  6  1  0
  7  8  1  0
  8  9  1  6
 10  8  1  0
 10 12  1  0
 11 10  2  0
 13 12  1  0
 13 14  1  0
 14 21  1  0
 15 14  2  0
 17 16  1  0
 18 17  2  0
 19 17  1  0
 20 19  1  6
 20 22  1  0
 21 20  1  0
 22 23  2  0
 22 24  1  0
M  END
$$$$
