RGN.pdb
     RDKit          3D

 24 23  0  0  1  0  0  0  0  0999 V2000
    8.8932  -14.1582   20.1181 N   0  0  0  0  0  0  0  0  0  0  0  0
    8.3831  -13.5412   18.9259 C   0  0  0  0  0  0  0  0  0  0  0  0
    8.2338  -12.2791   18.9215 N   0  0  0  0  0  0  0  0  0  0  0  0
    8.0637  -14.3506   17.8004 N   0  0  0  0  0  0  0  0  0  0  0  0
    7.4937  -15.6698   17.9329 C   0  0  0  0  0  0  0  0  0  0  0  0
    8.5353  -16.6144   18.4119 C   0  0  0  0  0  0  0  0  0  0  0  0
    8.0960  -17.7038   19.3150 C   0  0  0  0  0  0  0  0  0  0  0  0
    7.7183  -17.3151   20.7015 C   0  0  2  0  0  0  0  0  0  0  0  0
    6.9105  -16.1188   20.7362 N   0  0  0  0  0  0  0  0  0  0  0  0
    9.0019  -16.9951   21.4216 C   0  0  0  0  0  0  0  0  0  0  0  0
    9.7661  -17.9009   21.7875 O   0  0  0  0  0  0  0  0  0  0  0  0
    7.8317  -11.7950   18.1146 N   0  0  0  0  0  0  0  0  0  0  0  0
    9.3644  -15.6451   21.6973 C   0  0  0  0  0  0  0  0  0  0  0  0
   10.5453  -15.3177   22.4128 C   0  0  0  0  0  0  0  0  0  0  0  0
   10.4866  -15.5529   23.8766 O   0  0  0  0  0  0  0  0  0  0  0  0
   11.4921  -15.2525   24.6124 N   0  0  0  0  0  0  0  0  0  0  0  0
    8.5982  -12.9400   26.6184 C   0  0  0  0  0  0  0  0  0  0  0  0
    7.6124  -13.9302   26.4836 O   0  0  0  0  0  0  0  0  0  0  0  0
    6.4010  -13.5142   26.5779 C   0  0  0  0  0  0  0  0  0  0  0  0
    7.7847  -15.3524   26.2513 C   0  0  2  0  0  0  0  0  0  0  0  0
    9.1770  -15.8383   26.0096 N   0  0  0  0  0  0  0  0  0  0  0  0
    9.3759  -16.0990   24.5681 C   0  0  0  0  0  0  0  0  0  0  0  0
    9.5065  -17.0688   26.7352 O   0  0  0  0  0  0  0  0  0  0  0  0
    9.5370  -17.0970   27.9787 O   0  0  0  0  0  0  0  0  0  0  0  0
  1  2  1  0
  2  3  2  0
  4  5  1  0
  4  2  1  0
  6  5  1  0
  7  6  1  0
  7  8  1  0
  8  9  1  6
 10  8  1  0
 10 12  1  0
 11 10  2  0
 13 12  1  0
 13 14  1  0
 14 21  1  0
 15 14  2  0
 17 16  1  0
 18 17  2  0
 19 17  1  0
 20 19  1  6
 20 22  1  0
 21 20  1  0
 22 23  2  0
 22 24  1  0
M  END
$$$$
