RGN.pdb
     RDKit          3D

 24 23  0  0  1  0  0  0  0  0999 V2000
    8.4267  -14.8167   14.5948 N   0  0  0  0  0  0  0  0  0  0  0  0
    7.4282  -13.7851   14.5616 C   0  0  0  0  0  0  0  0  0  0  0  0
    7.4115  -12.9996   13.5627 N   0  0  0  0  0  0  0  0  0  0  0  0
    6.5003  -13.6743   15.6343 N   0  0  0  0  0  0  0  0  0  0  0  0
    6.8072  -14.1204   16.9720 C   0  0  0  0  0  0  0  0  0  0  0  0
    7.8117  -13.2107   17.5801 C   0  0  0  0  0  0  0  0  0  0  0  0
    8.2322  -13.5011   18.9710 C   0  0  0  0  0  0  0  0  0  0  0  0
    9.0786  -14.7080   19.1782 C   0  0  2  0  0  0  0  0  0  0  0  0
    8.3677  -15.9329   18.8968 N   0  0  0  0  0  0  0  0  0  0  0  0
    9.4332  -14.7365   20.6418 C   0  0  0  0  0  0  0  0  0  0  0  0
   10.0553  -13.7978   21.1616 O   0  0  0  0  0  0  0  0  0  0  0  0
    6.7579  -12.2136   13.5164 N   0  0  0  0  0  0  0  0  0  0  0  0
    9.0613  -15.8427   21.4591 C   0  0  0  0  0  0  0  0  0  0  0  0
    9.4644  -15.9405   22.8162 C   0  0  0  0  0  0  0  0  0  0  0  0
   10.7948  -16.5579   23.0404 O   0  0  0  0  0  0  0  0  0  0  0  0
   11.7063  -16.4531   22.1455 N   0  0  0  0  0  0  0  0  0  0  0  0
   15.1448  -16.5660   22.2116 C   0  0  0  0  0  0  0  0  0  0  0  0
   14.7088  -16.5488   23.5458 O   0  0  0  0  0  0  0  0  0  0  0  0
   15.6110  -16.8125   24.4209 C   0  0  0  0  0  0  0  0  0  0  0  0
   13.3800  -16.2718   24.0596 C   0  0  2  0  0  0  0  0  0  0  0  0
   12.5929  -17.4341   24.5718 N   0  0  0  0  0  0  0  0  0  0  0  0
   11.1701  -17.2812   24.2006 C   0  0  0  0  0  0  0  0  0  0  0  0
   12.6594  -17.5958   26.0274 O   0  0  0  0  0  0  0  0  0  0  0  0
   13.7073  -17.9620   26.5895 O   0  0  0  0  0  0  0  0  0  0  0  0
  1  2  1  0
  2  3  2  0
  4  5  1  0
  4  2  1  0
  6  5  1  0
  7  6  1  0
  7  8  1  0
  8  9  1  1
 10  8  1  0
 10 12  1  0
 11 10  2  0
 13 12  1  0
 13 14  1  0
 14 21  1  0
 15 14  2  0
 17 16  1  0
 18 17  2  0
 19 17  1  0
 20 19  1  6
 20 22  1  0
 21 20  1  0
 22 23  2  0
 22 24  1  0
M  END
$$$$
