RGN.pdb
     RDKit          3D

 24 23  0  0  1  0  0  0  0  0999 V2000
    8.0577  -11.8972   18.3839 N   0  0  0  0  0  0  0  0  0  0  0  0
    8.3625  -13.2094   17.8864 C   0  0  0  0  0  0  0  0  0  0  0  0
    8.2730  -13.4112   16.6349 N   0  0  0  0  0  0  0  0  0  0  0  0
    8.7497  -14.2310   18.7976 N   0  0  0  0  0  0  0  0  0  0  0  0
    7.7892  -14.9979   19.5539 C   0  0  0  0  0  0  0  0  0  0  0  0
    7.1988  -14.1441   20.6164 C   0  0  0  0  0  0  0  0  0  0  0  0
    7.2543  -14.6580   22.0051 C   0  0  0  0  0  0  0  0  0  0  0  0
    7.9776  -15.9416   22.2175 C   0  0  2  0  0  0  0  0  0  0  0  0
    7.0891  -17.0797   22.2177 N   0  0  0  0  0  0  0  0  0  0  0  0
    8.5895  -15.8663   23.5918 C   0  0  0  0  0  0  0  0  0  0  0  0
    9.4291  -14.9951   23.8649 O   0  0  0  0  0  0  0  0  0  0  0  0
    8.5520  -14.3039   16.2198 N   0  0  0  0  0  0  0  0  0  0  0  0
    8.2164  -16.7946   24.6062 C   0  0  0  0  0  0  0  0  0  0  0  0
    8.7110  -16.6940   25.9325 C   0  0  0  0  0  0  0  0  0  0  0  0
    9.3257  -17.9300   26.4763 O   0  0  0  0  0  0  0  0  0  0  0  0
    8.6956  -19.0436   26.3997 N   0  0  0  0  0  0  0  0  0  0  0  0
   13.3382  -20.4654   25.0572 C   0  0  0  0  0  0  0  0  0  0  0  0
   12.9639  -19.3814   25.8668 O   0  0  0  0  0  0  0  0  0  0  0  0
   12.9507  -18.2386   25.2811 C   0  0  0  0  0  0  0  0  0  0  0  0
   12.5913  -19.3863   27.2695 C   0  0  2  0  0  0  0  0  0  0  0  0
   11.1343  -19.2876   27.5864 N   0  0  0  0  0  0  0  0  0  0  0  0
   10.5988  -17.9998   27.0964 C   0  0  0  0  0  0  0  0  0  0  0  0
   10.8348  -19.3793   29.0186 O   0  0  0  0  0  0  0  0  0  0  0  0
   10.3943  -18.4021   29.6503 O   0  0  0  0  0  0  0  0  0  0  0  0
  1  2  1  0
  2  3  2  0
  4  5  1  0
  4  2  1  0
  6  5  1  0
  7  6  1  0
  7  8  1  0
  8  9  1  1
 10  8  1  0
 10 12  1  0
 11 10  2  0
 13 12  1  0
 13 14  1  0
 14 21  1  0
 15 14  2  0
 17 16  1  0
 18 17  2  0
 19 17  1  0
 20 19  1  6
 20 22  1  0
 21 20  1  0
 22 23  2  0
 22 24  1  0
M  END
$$$$
