RGN.pdb
     RDKit          3D

 24 23  0  0  1  0  0  0  0  0999 V2000
    8.0916  -13.9320   15.0950 N   0  0  0  0  0  0  0  0  0  0  0  0
    8.4265  -13.7144   16.4745 C   0  0  0  0  0  0  0  0  0  0  0  0
    9.6526  -13.7531   16.8065 N   0  0  0  0  0  0  0  0  0  0  0  0
    7.3892  -13.4660   17.4158 N   0  0  0  0  0  0  0  0  0  0  0  0
    7.6542  -13.2277   18.8143 C   0  0  0  0  0  0  0  0  0  0  0  0
    7.6048  -14.5143   19.5549 C   0  0  0  0  0  0  0  0  0  0  0  0
    7.8437  -14.4627   21.0163 C   0  0  0  0  0  0  0  0  0  0  0  0
    7.8856  -15.7651   21.7361 C   0  0  2  0  0  0  0  0  0  0  0  0
    6.6040  -16.4300   21.7444 N   0  0  0  0  0  0  0  0  0  0  0  0
    8.2230  -15.4515   23.1701 C   0  0  0  0  0  0  0  0  0  0  0  0
    9.3037  -14.9189   23.4651 O   0  0  0  0  0  0  0  0  0  0  0  0
    9.9406  -13.6673   17.7846 N   0  0  0  0  0  0  0  0  0  0  0  0
    7.3077  -15.7605   24.2172 C   0  0  0  0  0  0  0  0  0  0  0  0
    7.5966  -15.4681   25.5755 C   0  0  0  0  0  0  0  0  0  0  0  0
    8.6451  -16.3138   26.1978 O   0  0  0  0  0  0  0  0  0  0  0  0
    8.3664  -17.5100   26.5642 N   0  0  0  0  0  0  0  0  0  0  0  0
   12.0698  -17.1124   24.2490 C   0  0  0  0  0  0  0  0  0  0  0  0
   12.6850  -16.4154   25.3007 O   0  0  0  0  0  0  0  0  0  0  0  0
   13.6777  -15.6747   24.9610 C   0  0  0  0  0  0  0  0  0  0  0  0
   12.3451  -16.4227   26.7117 C   0  0  2  0  0  0  0  0  0  0  0  0
   10.9516  -16.8229   27.0735 N   0  0  0  0  0  0  0  0  0  0  0  0
    9.9830  -15.9080   26.4331 C   0  0  0  0  0  0  0  0  0  0  0  0
   10.6903  -16.8109   28.5160 O   0  0  0  0  0  0  0  0  0  0  0  0
   11.0134  -17.7705   29.2390 O   0  0  0  0  0  0  0  0  0  0  0  0
  1  2  1  0
  2  3  2  0
  4  5  1  0
  4  2  1  0
  6  5  1  0
  7  6  1  0
  7  8  1  0
  8  9  1  1
 10  8  1  0
 10 12  1  0
 11 10  2  0
 13 12  1  0
 13 14  1  0
 14 21  1  0
 15 14  2  0
 17 16  1  0
 18 17  2  0
 19 17  1  0
 20 19  1  6
 20 22  1  0
 21 20  1  0
 22 23  2  0
 22 24  1  0
M  END
$$$$
