RGN.pdb
     RDKit          3D

 24 23  0  0  1  0  0  0  0  0999 V2000
    8.2643  -13.3412   17.5735 N   0  0  0  0  0  0  0  0  0  0  0  0
    8.1823  -13.2654   19.0052 C   0  0  0  0  0  0  0  0  0  0  0  0
    8.0247  -12.1216   19.5364 N   0  0  0  0  0  0  0  0  0  0  0  0
    8.2795  -14.4571   19.7761 N   0  0  0  0  0  0  0  0  0  0  0  0
    8.9986  -15.6203   19.3152 C   0  0  0  0  0  0  0  0  0  0  0  0
    8.0600  -16.7640   19.1841 C   0  0  0  0  0  0  0  0  0  0  0  0
    8.0360  -17.7491   20.2908 C   0  0  0  0  0  0  0  0  0  0  0  0
    7.1129  -17.4639   21.4234 C   0  0  2  0  0  0  0  0  0  0  0  0
    6.9183  -16.0483   21.6309 N   0  0  0  0  0  0  0  0  0  0  0  0
    7.7789  -17.9986   22.6640 C   0  0  0  0  0  0  0  0  0  0  0  0
    7.8054  -19.2171   22.8941 O   0  0  0  0  0  0  0  0  0  0  0  0
    8.0798  -11.9950   20.5503 N   0  0  0  0  0  0  0  0  0  0  0  0
    8.3920  -17.1154   23.5989 C   0  0  0  0  0  0  0  0  0  0  0  0
    8.8599  -17.5668   24.8602 C   0  0  0  0  0  0  0  0  0  0  0  0
    9.5693  -16.5499   25.6753 O   0  0  0  0  0  0  0  0  0  0  0  0
   10.3785  -15.7311   25.1118 N   0  0  0  0  0  0  0  0  0  0  0  0
    9.0629  -13.7407   25.6437 C   0  0  0  0  0  0  0  0  0  0  0  0
    8.9870  -13.4398   27.0127 O   0  0  0  0  0  0  0  0  0  0  0  0
    8.3767  -12.3471   27.3009 C   0  0  0  0  0  0  0  0  0  0  0  0
    9.5041  -14.1997   28.1360 C   0  0  2  0  0  0  0  0  0  0  0  0
   10.2805  -15.4368   27.8204 N   0  0  0  0  0  0  0  0  0  0  0  0
    9.4289  -16.3894   27.0769 C   0  0  0  0  0  0  0  0  0  0  0  0
   10.7943  -16.1291   29.0061 O   0  0  0  0  0  0  0  0  0  0  0  0
   10.3886  -17.2630   29.3186 O   0  0  0  0  0  0  0  0  0  0  0  0
  1  2  1  0
  2  3  2  0
  4  5  1  0
  4  2  1  0
  6  5  1  0
  7  6  1  0
  7  8  1  0
  8  9  1  1
 10  8  1  0
 10 12  1  0
 11 10  2  0
 13 12  1  0
 13 14  1  0
 14 21  1  0
 15 14  2  0
 17 16  1  0
 18 17  2  0
 19 17  1  0
 20 19  1  6
 20 22  1  0
 21 20  1  0
 22 23  2  0
 22 24  1  0
M  END
$$$$
