TAL.pdb
     RDKit          3D

 21 20  0  0  1  0  0  0  0  0999 V2000
   13.8624  -26.0409   -1.3402 C   0  0  0  0  0  0  0  0  0  0  0  0
   15.0212  -25.8307   -2.3101 C   0  0  1  0  0  0  0  0  0  0  0  0
   14.8952  -26.8528   -3.2628 O   0  0  0  0  0  0  0  0  0  0  0  0
   14.8939  -24.4733   -2.9608 C   0  0  2  0  0  0  0  0  0  0  0  0
   15.9140  -24.4123   -4.0170 N   0  0  0  0  0  0  0  0  0  0  0  0
   15.1461  -23.4002   -1.9562 C   0  0  0  0  0  0  0  0  0  0  0  0
   16.3196  -23.1714   -1.6080 O   0  0  0  0  0  0  0  0  0  0  0  0
   12.8570  -20.9715   -0.2089 C   0  0  0  0  0  0  0  0  0  0  0  0
   14.1552  -21.6726   -0.3974 C   0  0  2  0  0  0  0  0  0  0  0  0
   14.0775  -22.6723   -1.4221 N   0  0  0  0  0  0  0  0  0  0  0  0
   14.7051  -22.2499    0.8785 C   0  0  0  0  0  0  0  0  0  0  0  0
   14.4567  -23.4570    1.1086 O   0  0  0  0  0  0  0  0  0  0  0  0
   19.3728  -22.1950    4.8059 C   0  0  0  0  0  0  0  0  0  0  0  0
   17.9287  -22.4940    4.5329 C   0  0  2  0  0  0  0  0  0  0  0  0
   17.6030  -23.9636    4.7434 C   0  0  0  0  0  0  0  0  0  0  0  0
   17.3959  -21.9633    3.2564 C   0  0  0  0  0  0  0  0  0  0  0  0
   15.9300  -21.9525    3.0636 C   0  0  2  0  0  0  0  0  0  0  0  0
   15.4726  -21.4771    1.7867 N   0  0  0  0  0  0  0  0  0  0  0  0
   15.3716  -21.0601    4.1552 C   0  0  0  0  0  0  0  0  0  0  0  0
   15.1092  -21.4929    5.4221 O   0  0  0  0  0  0  0  0  0  0  0  0
   15.1416  -19.8457    3.8501 O   0  0  0  0  0  0  0  0  0  0  0  0
  2  1  1  1
  3  2  1  0
  4  2  1  0
  4  6  1  0
  4  5  1  6
  6 10  1  0
  7  6  2  0
  9  8  1  1
 10  9  1  0
 11  9  1  0
 11 12  2  0
 14 15  1  6
 14 13  1  0
 16 14  1  0
 17 18  1  0
 17 16  1  6
 18 11  1  0
 19 17  1  0
 20 19  1  0
 21 19  2  0
M  END
$$$$
