TAL.pdb
     RDKit          3D

 21 20  0  0  1  0  0  0  0  0999 V2000
   28.3436  -22.7066  -18.7137 C   0  0  0  0  0  0  0  0  0  0  0  0
   27.5320  -21.4386  -18.9606 C   0  0  1  0  0  0  0  0  0  0  0  0
   26.9206  -21.6290  -20.2089 O   0  0  0  0  0  0  0  0  0  0  0  0
   26.4941  -21.2849  -17.8737 C   0  0  2  0  0  0  0  0  0  0  0  0
   25.5799  -20.2194  -18.3083 N   0  0  0  0  0  0  0  0  0  0  0  0
   27.1505  -20.8924  -16.5933 C   0  0  0  0  0  0  0  0  0  0  0  0
   28.0289  -21.6371  -16.1193 O   0  0  0  0  0  0  0  0  0  0  0  0
   27.2590  -17.6553  -14.7614 C   0  0  0  0  0  0  0  0  0  0  0  0
   27.4060  -19.1351  -14.7925 C   0  0  2  0  0  0  0  0  0  0  0  0
   26.7782  -19.7093  -15.9465 N   0  0  0  0  0  0  0  0  0  0  0  0
   26.9290  -19.8024  -13.5313 C   0  0  0  0  0  0  0  0  0  0  0  0
   27.7369  -19.8497  -12.5738 O   0  0  0  0  0  0  0  0  0  0  0  0
   26.4363  -21.8902   -9.7862 C   0  0  0  0  0  0  0  0  0  0  0  0
   26.3613  -20.4145  -10.0433 C   0  0  2  0  0  0  0  0  0  0  0  0
   26.3527  -19.6126   -8.7521 C   0  0  0  0  0  0  0  0  0  0  0  0
   25.3112  -19.9837  -10.9955 C   0  0  0  0  0  0  0  0  0  0  0  0
   25.0590  -20.8271  -12.1834 C   0  0  2  0  0  0  0  0  0  0  0  0
   25.6278  -20.3545  -13.4158 N   0  0  0  0  0  0  0  0  0  0  0  0
   23.5514  -20.9036  -12.3292 C   0  0  0  0  0  0  0  0  0  0  0  0
   22.7412  -21.5586  -11.4484 O   0  0  0  0  0  0  0  0  0  0  0  0
   23.0360  -20.3191  -13.3358 O   0  0  0  0  0  0  0  0  0  0  0  0
  2  1  1  1
  3  2  1  0
  4  2  1  0
  4  6  1  0
  4  5  1  6
  6 10  1  0
  7  6  2  0
  9  8  1  1
 10  9  1  0
 11  9  1  0
 11 12  2  0
 14 15  1  1
 14 13  1  0
 16 14  1  0
 17 18  1  0
 17 16  1  1
 18 11  1  0
 19 17  1  0
 20 19  1  0
 21 19  2  0
M  END
$$$$
