TAL.pdb
     RDKit          3D

 21 20  0  0  1  0  0  0  0  0999 V2000
   15.9859  -12.0912  -14.3307 C   0  0  0  0  0  0  0  0  0  0  0  0
   16.9930  -12.7867  -15.2416 C   0  0  1  0  0  0  0  0  0  0  0  0
   16.6713  -14.1506  -15.1741 O   0  0  0  0  0  0  0  0  0  0  0  0
   16.8380  -12.2690  -16.6523 C   0  0  2  0  0  0  0  0  0  0  0  0
   17.6321  -13.1526  -17.5175 N   0  0  0  0  0  0  0  0  0  0  0  0
   17.3593  -10.8747  -16.7442 C   0  0  0  0  0  0  0  0  0  0  0  0
   18.5915  -10.6990  -16.7871 O   0  0  0  0  0  0  0  0  0  0  0  0
   15.6227   -7.5521  -17.1092 C   0  0  0  0  0  0  0  0  0  0  0  0
   16.8214   -8.4087  -16.9044 C   0  0  2  0  0  0  0  0  0  0  0  0
   16.4723   -9.7937  -16.7802 N   0  0  0  0  0  0  0  0  0  0  0  0
   17.6756   -7.9624  -15.7491 C   0  0  0  0  0  0  0  0  0  0  0  0
   17.7422   -8.7322  -14.7619 O   0  0  0  0  0  0  0  0  0  0  0  0
   21.6354   -6.7908  -12.6913 C   0  0  0  0  0  0  0  0  0  0  0  0
   21.8515   -6.8556  -14.1741 C   0  0  2  0  0  0  0  0  0  0  0  0
   22.5484   -5.6120  -14.7016 C   0  0  0  0  0  0  0  0  0  0  0  0
   20.6658   -7.2355  -14.9772 C   0  0  0  0  0  0  0  0  0  0  0  0
   19.4489   -6.4041  -14.8598 C   0  0  2  0  0  0  0  0  0  0  0  0
   18.3803   -6.7318  -15.7634 N   0  0  0  0  0  0  0  0  0  0  0  0
   19.8924   -4.9759  -15.1120 C   0  0  0  0  0  0  0  0  0  0  0  0
   20.2938   -4.1256  -14.1235 O   0  0  0  0  0  0  0  0  0  0  0  0
   19.8803   -4.5696  -16.3184 O   0  0  0  0  0  0  0  0  0  0  0  0
  2  1  1  1
  3  2  1  0
  4  2  1  0
  4  6  1  0
  4  5  1  6
  6 10  1  0
  7  6  2  0
  9  8  1  1
 10  9  1  0
 11  9  1  0
 11 12  2  0
 14 15  1  6
 14 13  1  0
 16 14  1  0
 17 18  1  0
 17 16  1  6
 18 11  1  0
 19 17  1  0
 20 19  1  0
 21 19  2  0
M  END
$$$$
