TAL.pdb
     RDKit          3D

 21 20  0  0  1  0  0  0  0  0999 V2000
   14.4218  -10.4284  -15.2700 C   0  0  0  0  0  0  0  0  0  0  0  0
   14.6595  -11.9154  -15.5147 C   0  0  1  0  0  0  0  0  0  0  0  0
   13.4168  -12.5287  -15.2961 O   0  0  0  0  0  0  0  0  0  0  0  0
   15.1171  -12.1250  -16.9391 C   0  0  2  0  0  0  0  0  0  0  0  0
   15.1616  -13.5771  -17.1606 N   0  0  0  0  0  0  0  0  0  0  0  0
   16.4785  -11.5460  -17.1280 C   0  0  0  0  0  0  0  0  0  0  0  0
   17.4469  -12.1044  -16.5791 O   0  0  0  0  0  0  0  0  0  0  0  0
   17.7275   -8.6647  -19.2095 C   0  0  0  0  0  0  0  0  0  0  0  0
   17.8956   -9.7504  -18.2068 C   0  0  2  0  0  0  0  0  0  0  0  0
   16.6518  -10.3977  -17.9080 N   0  0  0  0  0  0  0  0  0  0  0  0
   18.5802   -9.2909  -16.9483 C   0  0  0  0  0  0  0  0  0  0  0  0
   17.8575   -8.7669  -16.0680 O   0  0  0  0  0  0  0  0  0  0  0  0
   23.9871  -10.1865  -13.8846 C   0  0  0  0  0  0  0  0  0  0  0  0
   22.6470   -9.5263  -14.0183 C   0  0  2  0  0  0  0  0  0  0  0  0
   21.8103   -9.6787  -12.7586 C   0  0  0  0  0  0  0  0  0  0  0  0
   21.8941   -9.8514  -15.2523 C   0  0  0  0  0  0  0  0  0  0  0  0
   20.6630   -9.0849  -15.5400 C   0  0  2  0  0  0  0  0  0  0  0  0
   19.9768   -9.4394  -16.7521 N   0  0  0  0  0  0  0  0  0  0  0  0
   21.0843   -7.6300  -15.6148 C   0  0  0  0  0  0  0  0  0  0  0  0
   21.0163   -6.7703  -14.5577 O   0  0  0  0  0  0  0  0  0  0  0  0
   21.5206   -7.2097  -16.7345 O   0  0  0  0  0  0  0  0  0  0  0  0
  2  1  1  6
  3  2  1  0
  4  2  1  0
  4  6  1  0
  4  5  1  1
  6 10  1  0
  7  6  2  0
  9  8  1  6
 10  9  1  0
 11  9  1  0
 11 12  2  0
 14 15  1  1
 14 13  1  0
 16 14  1  0
 17 18  1  0
 17 16  1  6
 18 11  1  0
 19 17  1  0
 20 19  1  0
 21 19  2  0
M  END
$$$$
