TAL.pdb
     RDKit          3D

 21 20  0  0  1  0  0  0  0  0999 V2000
   18.4651  -21.3985  -19.4470 C   0  0  0  0  0  0  0  0  0  0  0  0
   19.5751  -20.9187  -18.5168 C   0  0  1  0  0  0  0  0  0  0  0  0
   20.5792  -20.4261  -19.3638 O   0  0  0  0  0  0  0  0  0  0  0  0
   19.0444  -19.8234  -17.6219 C   0  0  2  0  0  0  0  0  0  0  0  0
   18.8211  -18.6488  -18.4765 N   0  0  0  0  0  0  0  0  0  0  0  0
   20.0474  -19.4948  -16.5682 C   0  0  0  0  0  0  0  0  0  0  0  0
   21.0248  -18.7860  -16.8738 O   0  0  0  0  0  0  0  0  0  0  0  0
   20.1161  -20.1455  -12.8635 C   0  0  0  0  0  0  0  0  0  0  0  0
   20.7368  -19.7149  -14.1449 C   0  0  2  0  0  0  0  0  0  0  0  0
   19.8833  -19.9791  -15.2661 N   0  0  0  0  0  0  0  0  0  0  0  0
   22.1074  -20.2963  -14.3618 C   0  0  0  0  0  0  0  0  0  0  0  0
   22.1644  -21.4402  -14.8716 O   0  0  0  0  0  0  0  0  0  0  0  0
   27.5651  -20.6505  -13.6105 C   0  0  0  0  0  0  0  0  0  0  0  0
   27.0853  -19.5010  -14.4459 C   0  0  2  0  0  0  0  0  0  0  0  0
   28.0762  -18.3484  -14.4490 C   0  0  0  0  0  0  0  0  0  0  0  0
   25.6931  -19.0627  -14.1914 C   0  0  0  0  0  0  0  0  0  0  0  0
   24.6185  -20.0752  -14.2679 C   0  0  2  0  0  0  0  0  0  0  0  0
   23.2886  -19.5935  -14.0128 N   0  0  0  0  0  0  0  0  0  0  0  0
   24.9687  -21.1347  -13.2408 C   0  0  0  0  0  0  0  0  0  0  0  0
   25.7297  -22.2322  -13.5193 O   0  0  0  0  0  0  0  0  0  0  0  0
   24.5163  -20.9713  -12.0621 O   0  0  0  0  0  0  0  0  0  0  0  0
  2  1  1  6
  3  2  1  0
  4  2  1  0
  4  6  1  0
  4  5  1  6
  6 10  1  0
  7  6  2  0
  9  8  1  1
 10  9  1  0
 11  9  1  0
 11 12  2  0
 14 15  1  1
 14 13  1  0
 16 14  1  0
 17 18  1  0
 17 16  1  1
 18 11  1  0
 19 17  1  0
 20 19  1  0
 21 19  2  0
M  END
$$$$
