TAL.pdb
     RDKit          3D

 21 20  0  0  1  0  0  0  0  0999 V2000
   24.7214  -24.6489  -14.1217 C   0  0  0  0  0  0  0  0  0  0  0  0
   23.7382  -23.7322  -14.8432 C   0  0  1  0  0  0  0  0  0  0  0  0
   23.0253  -23.0813  -13.8252 O   0  0  0  0  0  0  0  0  0  0  0  0
   24.5018  -22.7358  -15.6836 C   0  0  2  0  0  0  0  0  0  0  0  0
   23.5085  -21.8202  -16.2623 N   0  0  0  0  0  0  0  0  0  0  0  0
   25.2303  -23.4424  -16.7764 C   0  0  0  0  0  0  0  0  0  0  0  0
   24.5705  -24.0673  -17.6280 O   0  0  0  0  0  0  0  0  0  0  0  0
   28.6884  -23.3479  -18.0996 C   0  0  0  0  0  0  0  0  0  0  0  0
   27.4667  -24.1185  -17.7450 C   0  0  2  0  0  0  0  0  0  0  0  0
   26.6273  -23.3977  -16.8332 N   0  0  0  0  0  0  0  0  0  0  0  0
   27.7687  -25.4974  -17.2244 C   0  0  0  0  0  0  0  0  0  0  0  0
   27.8075  -25.6381  -15.9793 O   0  0  0  0  0  0  0  0  0  0  0  0
   25.7784  -30.7135  -16.3682 C   0  0  0  0  0  0  0  0  0  0  0  0
   27.0750  -30.0068  -16.6309 C   0  0  2  0  0  0  0  0  0  0  0  0
   28.0436  -30.1457  -15.4678 C   0  0  0  0  0  0  0  0  0  0  0  0
   26.9562  -28.6126  -17.1178 C   0  0  0  0  0  0  0  0  0  0  0  0
   28.1699  -27.9523  -17.6442 C   0  0  2  0  0  0  0  0  0  0  0  0
   27.9985  -26.5968  -18.0903 N   0  0  0  0  0  0  0  0  0  0  0  0
   28.6368  -28.8035  -18.8093 C   0  0  0  0  0  0  0  0  0  0  0  0
   29.6371  -29.7264  -18.7153 O   0  0  0  0  0  0  0  0  0  0  0  0
   28.0505  -28.6296  -19.9258 O   0  0  0  0  0  0  0  0  0  0  0  0
  2  1  1  1
  3  2  1  0
  4  2  1  0
  4  6  1  0
  4  5  1  6
  6 10  1  0
  7  6  2  0
  9  8  1  1
 10  9  1  0
 11  9  1  0
 11 12  2  0
 14 15  1  1
 14 13  1  0
 16 14  1  0
 17 18  1  0
 17 16  1  6
 18 11  1  0
 19 17  1  0
 20 19  1  0
 21 19  2  0
M  END
$$$$
