TAL.pdb
     RDKit          3D

 21 20  0  0  1  0  0  0  0  0999 V2000
   11.3914  -11.3776  -14.2018 C   0  0  0  0  0  0  0  0  0  0  0  0
   12.1135  -12.7215  -14.1897 C   0  0  1  0  0  0  0  0  0  0  0  0
   11.1040  -13.6814  -14.0227 O   0  0  0  0  0  0  0  0  0  0  0  0
   12.8298  -12.9207  -15.5047 C   0  0  2  0  0  0  0  0  0  0  0  0
   13.3581  -14.2921  -15.4960 N   0  0  0  0  0  0  0  0  0  0  0  0
   13.9552  -11.9495  -15.6248 C   0  0  0  0  0  0  0  0  0  0  0  0
   14.9295  -12.0659  -14.8579 O   0  0  0  0  0  0  0  0  0  0  0  0
   14.5671   -9.0575  -17.9634 C   0  0  0  0  0  0  0  0  0  0  0  0
   14.8683   -9.8845  -16.7644 C   0  0  2  0  0  0  0  0  0  0  0  0
   13.9060  -10.9317  -16.5833 N   0  0  0  0  0  0  0  0  0  0  0  0
   15.0214   -9.0700  -15.5086 C   0  0  0  0  0  0  0  0  0  0  0  0
   13.9758   -8.8186  -14.8643 O   0  0  0  0  0  0  0  0  0  0  0  0
   16.2813   -9.2851  -11.1458 C   0  0  0  0  0  0  0  0  0  0  0  0
   17.4223   -9.3959  -12.1130 C   0  0  2  0  0  0  0  0  0  0  0  0
   18.7081   -9.8286  -11.4276 C   0  0  0  0  0  0  0  0  0  0  0  0
   17.6124   -8.2348  -13.0134 C   0  0  0  0  0  0  0  0  0  0  0  0
   16.4795   -7.8240  -13.8699 C   0  0  2  0  0  0  0  0  0  0  0  0
   16.2838   -8.6037  -15.0614 N   0  0  0  0  0  0  0  0  0  0  0  0
   16.7498   -6.3831  -14.2579 C   0  0  0  0  0  0  0  0  0  0  0  0
   16.5115   -5.3229  -13.4330 O   0  0  0  0  0  0  0  0  0  0  0  0
   17.2232   -6.1750  -15.4212 O   0  0  0  0  0  0  0  0  0  0  0  0
  2  1  1  6
  3  2  1  0
  4  2  1  0
  4  6  1  0
  4  5  1  1
  6 10  1  0
  7  6  2  0
  9  8  1  6
 10  9  1  0
 11  9  1  0
 11 12  2  0
 14 15  1  1
 14 13  1  0
 16 14  1  0
 17 18  1  0
 17 16  1  6
 18 11  1  0
 19 17  1  0
 20 19  1  0
 21 19  2  0
M  END
$$$$
