TAL.pdb
     RDKit          3D

 21 20  0  0  1  0  0  0  0  0999 V2000
   22.4023  -15.4778  -19.2740 C   0  0  0  0  0  0  0  0  0  0  0  0
   20.8847  -15.3625  -19.3796 C   0  0  1  0  0  0  0  0  0  0  0  0
   20.4191  -16.6833  -19.4633 O   0  0  0  0  0  0  0  0  0  0  0  0
   20.3438  -14.6813  -18.1445 C   0  0  2  0  0  0  0  0  0  0  0  0
   18.8783  -14.7157  -18.2490 N   0  0  0  0  0  0  0  0  0  0  0  0
   20.8110  -13.2657  -18.0968 C   0  0  0  0  0  0  0  0  0  0  0  0
   22.0355  -13.0412  -18.0659 O   0  0  0  0  0  0  0  0  0  0  0  0
   19.0166   -9.9983  -18.5011 C   0  0  0  0  0  0  0  0  0  0  0  0
   20.1798  -10.8168  -18.0661 C   0  0  2  0  0  0  0  0  0  0  0  0
   19.8827  -12.2192  -18.0867 N   0  0  0  0  0  0  0  0  0  0  0  0
   20.7266  -10.4013  -16.7274 C   0  0  0  0  0  0  0  0  0  0  0  0
   20.2034  -10.9221  -15.7142 O   0  0  0  0  0  0  0  0  0  0  0  0
   24.1729  -11.4848  -14.4863 C   0  0  0  0  0  0  0  0  0  0  0  0
   24.5647  -10.4372  -15.4855 C   0  0  2  0  0  0  0  0  0  0  0  0
   26.0739  -10.3052  -15.6082 C   0  0  0  0  0  0  0  0  0  0  0  0
   23.8821   -9.1299  -15.3425 C   0  0  0  0  0  0  0  0  0  0  0  0
   22.4039   -9.1104  -15.3548 C   0  0  2  0  0  0  0  0  0  0  0  0
   21.7859   -9.4667  -16.6026 N   0  0  0  0  0  0  0  0  0  0  0  0
   22.0015   -7.6951  -14.9874 C   0  0  0  0  0  0  0  0  0  0  0  0
   21.9700   -7.2291  -13.7056 O   0  0  0  0  0  0  0  0  0  0  0  0
   21.6784   -6.9179  -15.9425 O   0  0  0  0  0  0  0  0  0  0  0  0
  2  1  1  1
  3  2  1  0
  4  2  1  0
  4  6  1  0
  4  5  1  6
  6 10  1  0
  7  6  2  0
  9  8  1  1
 10  9  1  0
 11  9  1  0
 11 12  2  0
 14 15  1  1
 14 13  1  0
 16 14  1  0
 17 18  1  0
 17 16  1  6
 18 11  1  0
 19 17  1  0
 20 19  1  0
 21 19  2  0
M  END
$$$$
