TAL.pdb
     RDKit          3D

 21 20  0  0  1  0  0  0  0  0999 V2000
   26.0382  -12.9378  -15.5370 C   0  0  0  0  0  0  0  0  0  0  0  0
   26.0310  -14.1798  -16.4231 C   0  0  1  0  0  0  0  0  0  0  0  0
   25.0159  -14.9974  -15.9043 O   0  0  0  0  0  0  0  0  0  0  0  0
   25.7224  -13.7811  -17.8471 C   0  0  2  0  0  0  0  0  0  0  0  0
   25.6485  -15.0236  -18.6285 N   0  0  0  0  0  0  0  0  0  0  0  0
   26.8124  -12.9152  -18.3822 C   0  0  0  0  0  0  0  0  0  0  0  0
   27.9305  -13.4223  -18.5909 O   0  0  0  0  0  0  0  0  0  0  0  0
   26.8251   -9.4495  -19.7934 C   0  0  0  0  0  0  0  0  0  0  0  0
   27.5087  -10.6163  -19.1739 C   0  0  2  0  0  0  0  0  0  0  0  0
   26.5721  -11.5614  -18.6400 N   0  0  0  0  0  0  0  0  0  0  0  0
   28.5268  -10.2227  -18.1384 C   0  0  0  0  0  0  0  0  0  0  0  0
   28.0914   -9.9030  -17.0071 O   0  0  0  0  0  0  0  0  0  0  0  0
   31.8883  -12.7437  -17.1210 C   0  0  0  0  0  0  0  0  0  0  0  0
   32.4776  -11.7678  -18.0957 C   0  0  2  0  0  0  0  0  0  0  0  0
   33.9160  -12.1127  -18.4456 C   0  0  0  0  0  0  0  0  0  0  0  0
   32.2944  -10.3370  -17.7579 C   0  0  0  0  0  0  0  0  0  0  0  0
   30.9278   -9.8620  -17.4536 C   0  0  2  0  0  0  0  0  0  0  0  0
   29.9178  -10.2115  -18.4146 N   0  0  0  0  0  0  0  0  0  0  0  0
   31.0218   -8.3513  -17.3588 C   0  0  0  0  0  0  0  0  0  0  0  0
   30.5453   -7.5048  -18.3168 O   0  0  0  0  0  0  0  0  0  0  0  0
   31.5805   -7.8693  -16.3214 O   0  0  0  0  0  0  0  0  0  0  0  0
  2  1  1  1
  3  2  1  0
  4  2  1  0
  4  6  1  0
  4  5  1  6
  6 10  1  0
  7  6  2  0
  9  8  1  1
 10  9  1  0
 11  9  1  0
 11 12  2  0
 14 15  1  1
 14 13  1  0
 16 14  1  0
 17 18  1  0
 17 16  1  6
 18 11  1  0
 19 17  1  0
 20 19  1  0
 21 19  2  0
M  END
$$$$
