TAL.pdb
     RDKit          3D

 21 20  0  0  1  0  0  0  0  0999 V2000
   17.5536   -7.6838  -18.8859 C   0  0  0  0  0  0  0  0  0  0  0  0
   16.9639   -8.6780  -17.8901 C   0  0  1  0  0  0  0  0  0  0  0  0
   16.6138   -9.8016  -18.6538 O   0  0  0  0  0  0  0  0  0  0  0  0
   18.0070   -9.0360  -16.8576 C   0  0  2  0  0  0  0  0  0  0  0  0
   17.4518  -10.1373  -16.0585 N   0  0  0  0  0  0  0  0  0  0  0  0
   18.2770   -7.8628  -15.9773 C   0  0  0  0  0  0  0  0  0  0  0  0
   17.3382   -7.3859  -15.3124 O   0  0  0  0  0  0  0  0  0  0  0  0
   21.4119   -5.8991  -15.2555 C   0  0  0  0  0  0  0  0  0  0  0  0
   19.9380   -6.0989  -15.2518 C   0  0  2  0  0  0  0  0  0  0  0  0
   19.5633   -7.3172  -15.9082 N   0  0  0  0  0  0  0  0  0  0  0  0
   19.1819   -4.9274  -15.8170 C   0  0  0  0  0  0  0  0  0  0  0  0
   18.9962   -4.9165  -17.0568 O   0  0  0  0  0  0  0  0  0  0  0  0
   16.0562   -0.9536  -16.9680 C   0  0  0  0  0  0  0  0  0  0  0  0
   16.0151   -1.1964  -15.4885 C   0  0  2  0  0  0  0  0  0  0  0  0
   16.4189    0.0379  -14.6987 C   0  0  0  0  0  0  0  0  0  0  0  0
   16.6973   -2.4264  -15.0230 C   0  0  0  0  0  0  0  0  0  0  0  0
   18.0726   -2.6839  -15.5005 C   0  0  2  0  0  0  0  0  0  0  0  0
   18.6940   -3.8782  -14.9970 N   0  0  0  0  0  0  0  0  0  0  0  0
   18.8938   -1.4808  -15.0785 C   0  0  0  0  0  0  0  0  0  0  0  0
   19.6760   -1.4565  -13.9610 O   0  0  0  0  0  0  0  0  0  0  0  0
   18.8336   -0.4486  -15.8212 O   0  0  0  0  0  0  0  0  0  0  0  0
  2  1  1  6
  3  2  1  0
  4  2  1  0
  4  6  1  0
  4  5  1  1
  6 10  1  0
  7  6  2  0
  9  8  1  6
 10  9  1  0
 11  9  1  0
 11 12  2  0
 14 15  1  1
 14 13  1  0
 16 14  1  0
 17 18  1  0
 17 16  1  1
 18 11  1  0
 19 17  1  0
 20 19  1  0
 21 19  2  0
M  END
$$$$
