TAL.pdb
     RDKit          3D

 21 20  0  0  1  0  0  0  0  0999 V2000
   23.5168  -20.0809  -10.2140 C   0  0  0  0  0  0  0  0  0  0  0  0
   25.0266  -20.2560  -10.0825 C   0  0  1  0  0  0  0  0  0  0  0  0
   25.2536  -20.4896   -8.7178 O   0  0  0  0  0  0  0  0  0  0  0  0
   25.4707  -21.4396  -10.9096 C   0  0  2  0  0  0  0  0  0  0  0  0
   26.9009  -21.6362  -10.6344 N   0  0  0  0  0  0  0  0  0  0  0  0
   25.2730  -21.1516  -12.3595 C   0  0  0  0  0  0  0  0  0  0  0  0
   26.1357  -20.4828  -12.9591 O   0  0  0  0  0  0  0  0  0  0  0  0
   22.6172  -22.1886  -14.8196 C   0  0  0  0  0  0  0  0  0  0  0  0
   23.7572  -21.3430  -14.3750 C   0  0  2  0  0  0  0  0  0  0  0  0
   24.1369  -21.6280  -13.0222 N   0  0  0  0  0  0  0  0  0  0  0  0
   23.5108  -19.8713  -14.5672 C   0  0  0  0  0  0  0  0  0  0  0  0
   22.8032  -19.2972  -13.7062 O   0  0  0  0  0  0  0  0  0  0  0  0
   26.1411  -16.1359  -14.6354 C   0  0  0  0  0  0  0  0  0  0  0  0
   26.1651  -16.8941  -15.9293 C   0  0  2  0  0  0  0  0  0  0  0  0
   27.2733  -16.4109  -16.8504 C   0  0  0  0  0  0  0  0  0  0  0  0
   24.8600  -17.0250  -16.6182 C   0  0  0  0  0  0  0  0  0  0  0  0
   23.7809  -17.7670  -15.9320 C   0  0  2  0  0  0  0  0  0  0  0  0
   24.0497  -19.1535  -15.6651 N   0  0  0  0  0  0  0  0  0  0  0  0
   22.5639  -17.6609  -16.8307 C   0  0  0  0  0  0  0  0  0  0  0  0
   21.7591  -16.5606  -16.8829 O   0  0  0  0  0  0  0  0  0  0  0  0
   22.2971  -18.6652  -17.5662 O   0  0  0  0  0  0  0  0  0  0  0  0
  2  1  1  1
  3  2  1  0
  4  2  1  0
  4  6  1  0
  4  5  1  6
  6 10  1  0
  7  6  2  0
  9  8  1  1
 10  9  1  0
 11  9  1  0
 11 12  2  0
 14 15  1  6
 14 13  1  0
 16 14  1  0
 17 18  1  0
 17 16  1  6
 18 11  1  0
 19 17  1  0
 20 19  1  0
 21 19  2  0
M  END
$$$$
