SWH.pdb
     RDKit          3D

 31 33  0  0  1  0  0  0  0  0999 V2000
    8.7444  -18.1356   19.9459 O   0  0  0  0  0  0  0  0  0  0  0  0
    7.6135  -17.8515   20.6924 C   0  0  0  0  0  0  0  0  0  0  0  0
    7.4885  -16.3438   20.9419 C   0  0  2  0  0  0  0  0  0  0  0  0
    7.6538  -15.5818   19.7444 N   0  0  0  0  0  0  0  0  0  0  0  0
    8.4759  -15.9110   21.9532 C   0  0  0  0  0  0  0  0  0  0  0  0
    9.4204  -15.1726   21.5891 O   0  0  0  0  0  0  0  0  0  0  0  0
    8.4078  -16.2908   23.3190 N   0  0  0  0  0  0  0  0  0  0  0  0
    9.3693  -15.9031   24.3303 C   0  0  1  0  0  0  0  0  0  0  0  0
    8.8109  -15.8063   25.6972 C   0  0  0  0  0  0  0  0  0  0  0  0
    7.5409  -15.0975   25.8528 C   0  0  0  0  0  0  0  0  0  0  0  0
    6.2435  -15.4993   25.8725 C   0  0  0  0  0  0  0  0  0  0  0  0
    5.4517  -14.4051   26.0416 N   0  0  0  0  0  0  0  0  0  0  0  0
    6.2207  -13.3131   26.1300 C   0  0  0  0  0  0  0  0  0  0  0  0
    5.9503  -11.9582   26.3025 C   0  0  0  0  0  0  0  0  0  0  0  0
    6.9502  -11.0041   26.3624 C   0  0  0  0  0  0  0  0  0  0  0  0
    8.2621  -11.4080   26.2475 C   0  0  0  0  0  0  0  0  0  0  0  0
    8.5223  -12.7520   26.0768 C   0  0  0  0  0  0  0  0  0  0  0  0
    7.5191  -13.7055   26.0170 C   0  0  0  0  0  0  0  0  0  0  0  0
   10.5171  -16.8472   24.3774 C   0  0  0  0  0  0  0  0  0  0  0  0
   10.3860  -18.0757   24.2030 O   0  0  0  0  0  0  0  0  0  0  0  0
   11.7982  -16.3232   24.6290 N   0  0  0  0  0  0  0  0  0  0  0  0
   12.9209  -17.2694   24.7000 C   0  0  1  0  0  0  0  0  0  0  0  0
   14.1492  -16.4026   24.3879 C   0  0  0  0  0  0  0  0  0  0  0  0
   13.9927  -15.8529   23.0207 C   0  0  0  0  0  0  0  0  0  0  0  0
   13.1815  -16.4122   22.0584 C   0  0  0  0  0  0  0  0  0  0  0  0
   13.3013  -15.6406   20.9622 N   0  0  0  0  0  0  0  0  0  0  0  0
   14.1497  -14.6209   21.1872 C   0  0  0  0  0  0  0  0  0  0  0  0
   14.5626  -14.7731   22.4619 N   0  0  0  0  0  0  0  0  0  0  0  0
   12.9975  -17.9171   26.0038 C   0  0  0  0  0  0  0  0  0  0  0  0
   12.1778  -17.6263   26.9018 O   0  0  0  0  0  0  0  0  0  0  0  0
   13.9717  -18.8556   26.2608 O   0  0  0  0  0  0  0  0  0  0  0  0
  2  1  1  0
  3  2  1  0
  3  4  1  6
  5  6  2  0
  5  3  1  0
  7  5  1  0
  8  7  1  0
  8  9  1  1
 10 11  2  0
 10  9  1  0
 12 11  1  0
 13 18  2  0
 13 12  1  0
 14 13  1  0
 15 16  1  0
 15 14  2  0
 16 17  2  0
 17 18  1  0
 18 10  1  0
 19 21  1  0
 19  8  1  0
 20 19  2  0
 22 21  1  0
 22 29  1  0
 22 23  1  1
 24 23  1  0
 25 24  2  0
 26 27  1  0
 26 25  1  0
 27 28  2  0
 28 24  1  0
 29 31  1  0
 30 29  2  0
M  END
$$$$
