SWH.pdb
     RDKit          3D

 31 33  0  0  1  0  0  0  0  0999 V2000
   10.8509  -19.4593   21.4673 O   0  0  0  0  0  0  0  0  0  0  0  0
    9.5874  -18.9115   21.3248 C   0  0  0  0  0  0  0  0  0  0  0  0
    9.6420  -17.3818   21.4158 C   0  0  2  0  0  0  0  0  0  0  0  0
   10.5999  -16.8203   20.5162 N   0  0  0  0  0  0  0  0  0  0  0  0
    9.9477  -16.9641   22.8003 C   0  0  0  0  0  0  0  0  0  0  0  0
   11.0661  -16.4516   23.0372 O   0  0  0  0  0  0  0  0  0  0  0  0
    9.0359  -17.1149   23.8774 N   0  0  0  0  0  0  0  0  0  0  0  0
    9.3150  -16.7469   25.2501 C   0  0  1  0  0  0  0  0  0  0  0  0
    8.1335  -16.2787   26.0081 C   0  0  0  0  0  0  0  0  0  0  0  0
    7.3538  -15.1870   25.4252 C   0  0  0  0  0  0  0  0  0  0  0  0
    6.5079  -15.1057   24.3654 C   0  0  0  0  0  0  0  0  0  0  0  0
    6.0572  -13.8252   24.2658 N   0  0  0  0  0  0  0  0  0  0  0  0
    6.6003  -13.0887   25.2427 C   0  0  0  0  0  0  0  0  0  0  0  0
    6.4946  -11.7496   25.6093 C   0  0  0  0  0  0  0  0  0  0  0  0
    7.1783  -11.2200   26.6889 C   0  0  0  0  0  0  0  0  0  0  0  0
    7.9940  -12.0468   27.4296 C   0  0  0  0  0  0  0  0  0  0  0  0
    8.0938  -13.3723   27.0604 C   0  0  0  0  0  0  0  0  0  0  0  0
    7.4080  -13.9002   25.9786 C   0  0  0  0  0  0  0  0  0  0  0  0
    9.9150  -17.8795   26.0037 C   0  0  0  0  0  0  0  0  0  0  0  0
    9.4106  -19.0207   26.0187 O   0  0  0  0  0  0  0  0  0  0  0  0
   11.0994  -17.6439   26.7253 N   0  0  0  0  0  0  0  0  0  0  0  0
   11.6267  -18.7411   27.5491 C   0  0  1  0  0  0  0  0  0  0  0  0
   13.1362  -18.4650   27.6023 C   0  0  0  0  0  0  0  0  0  0  0  0
   13.7299  -18.8876   26.3121 C   0  0  0  0  0  0  0  0  0  0  0  0
   13.0241  -19.5263   25.3167 C   0  0  0  0  0  0  0  0  0  0  0  0
   13.8932  -19.7459   24.3127 N   0  0  0  0  0  0  0  0  0  0  0  0
   15.1140  -19.2758   24.6274 C   0  0  0  0  0  0  0  0  0  0  0  0
   14.9883  -18.7519   25.8637 N   0  0  0  0  0  0  0  0  0  0  0  0
   11.0064  -18.7702   28.8681 C   0  0  0  0  0  0  0  0  0  0  0  0
   11.3614  -19.6198   29.7136 O   0  0  0  0  0  0  0  0  0  0  0  0
   10.0241  -17.8633   29.1976 O   0  0  0  0  0  0  0  0  0  0  0  0
  2  1  1  0
  3  2  1  0
  3  4  1  6
  5  6  2  0
  5  3  1  0
  7  5  1  0
  8  7  1  0
  8  9  1  1
 10 11  2  0
 10  9  1  0
 12 11  1  0
 13 18  2  0
 13 12  1  0
 14 13  1  0
 15 16  1  0
 15 14  2  0
 16 17  2  0
 17 18  1  0
 18 10  1  0
 19 21  1  0
 19  8  1  0
 20 19  2  0
 22 21  1  0
 22 29  1  0
 22 23  1  1
 24 23  1  0
 25 24  2  0
 26 27  1  0
 26 25  1  0
 27 28  2  0
 28 24  1  0
 29 31  1  0
 30 29  2  0
M  END
$$$$
