SWH.pdb
     RDKit          3D

 31 33  0  0  1  0  0  0  0  0999 V2000
    8.1627  -17.5004   19.4324 O   0  0  0  0  0  0  0  0  0  0  0  0
    6.9783  -17.2782   20.1141 C   0  0  0  0  0  0  0  0  0  0  0  0
    6.8718  -15.8153   20.5611 C   0  0  2  0  0  0  0  0  0  0  0  0
    6.8790  -14.9099   19.4555 N   0  0  0  0  0  0  0  0  0  0  0  0
    7.9740  -15.4843   21.4888 C   0  0  0  0  0  0  0  0  0  0  0  0
    8.8972  -14.7424   21.0801 O   0  0  0  0  0  0  0  0  0  0  0  0
    8.0393  -15.9659   22.8222 N   0  0  0  0  0  0  0  0  0  0  0  0
    9.0884  -15.6385   23.7654 C   0  0  1  0  0  0  0  0  0  0  0  0
    8.6987  -15.7837   25.1855 C   0  0  0  0  0  0  0  0  0  0  0  0
    7.4889  -15.0872   25.6222 C   0  0  0  0  0  0  0  0  0  0  0  0
    6.1896  -15.4624   25.7491 C   0  0  0  0  0  0  0  0  0  0  0  0
    5.4709  -14.3972   26.1979 N   0  0  0  0  0  0  0  0  0  0  0  0
    6.2884  -13.3496   26.3594 C   0  0  0  0  0  0  0  0  0  0  0  0
    6.0973  -12.0375   26.7844 C   0  0  0  0  0  0  0  0  0  0  0  0
    7.1343  -11.1255   26.8648 C   0  0  0  0  0  0  0  0  0  0  0  0
    8.4032  -11.5290   26.5119 C   0  0  0  0  0  0  0  0  0  0  0  0
    8.5848  -12.8304   26.0918 C   0  0  0  0  0  0  0  0  0  0  0  0
    7.5446  -13.7418   26.0120 C   0  0  0  0  0  0  0  0  0  0  0  0
   10.2984  -16.4733   23.5418 C   0  0  0  0  0  0  0  0  0  0  0  0
   10.2364  -17.6889   23.2670 O   0  0  0  0  0  0  0  0  0  0  0  0
   11.5589  -15.8574   23.6464 N   0  0  0  0  0  0  0  0  0  0  0  0
   12.7482  -16.6992   23.4528 C   0  0  1  0  0  0  0  0  0  0  0  0
   13.8598  -15.6915   23.1269 C   0  0  0  0  0  0  0  0  0  0  0  0
   15.0954  -16.4488   22.8181 C   0  0  0  0  0  0  0  0  0  0  0  0
   15.1026  -17.7175   22.2820 C   0  0  0  0  0  0  0  0  0  0  0  0
   16.3950  -18.0675   22.1461 N   0  0  0  0  0  0  0  0  0  0  0  0
   17.2039  -17.0798   22.5709 C   0  0  0  0  0  0  0  0  0  0  0  0
   16.3802  -16.0935   22.9802 N   0  0  0  0  0  0  0  0  0  0  0  0
   13.0369  -17.5031   24.6343 C   0  0  0  0  0  0  0  0  0  0  0  0
   12.6667  -17.1186   25.7648 O   0  0  0  0  0  0  0  0  0  0  0  0
   13.7190  -18.6936   24.5189 O   0  0  0  0  0  0  0  0  0  0  0  0
  2  1  1  0
  3  2  1  0
  3  4  1  6
  5  6  2  0
  5  3  1  0
  7  5  1  0
  8  7  1  0
  8  9  1  1
 10 11  2  0
 10  9  1  0
 12 11  1  0
 13 18  2  0
 13 12  1  0
 14 13  1  0
 15 16  1  0
 15 14  2  0
 16 17  2  0
 17 18  1  0
 18 10  1  0
 19 21  1  0
 19  8  1  0
 20 19  2  0
 22 21  1  0
 22 29  1  0
 22 23  1  1
 24 23  1  0
 25 24  2  0
 26 27  1  0
 26 25  1  0
 27 28  2  0
 28 24  1  0
 29 31  1  0
 30 29  2  0
M  END
$$$$
