SWH.pdb
     RDKit          3D

 31 33  0  0  1  0  0  0  0  0999 V2000
   10.5454  -18.2572   20.2667 O   0  0  0  0  0  0  0  0  0  0  0  0
    9.1753  -18.1433   20.4300 C   0  0  0  0  0  0  0  0  0  0  0  0
    8.7898  -16.7134   20.8272 C   0  0  2  0  0  0  0  0  0  0  0  0
    9.2598  -15.7455   19.8868 N   0  0  0  0  0  0  0  0  0  0  0  0
    9.3119  -16.4001   22.1741 C   0  0  0  0  0  0  0  0  0  0  0  0
   10.3678  -15.7320   22.2657 O   0  0  0  0  0  0  0  0  0  0  0  0
    8.6758  -16.8193   23.3716 N   0  0  0  0  0  0  0  0  0  0  0  0
    9.1867  -16.5745   24.7044 C   0  0  1  0  0  0  0  0  0  0  0  0
    8.1403  -16.3999   25.7360 C   0  0  0  0  0  0  0  0  0  0  0  0
    7.1773  -15.3172   25.5360 C   0  0  0  0  0  0  0  0  0  0  0  0
    5.9486  -15.2547   24.9604 C   0  0  0  0  0  0  0  0  0  0  0  0
    5.4939  -13.9744   25.0432 N   0  0  0  0  0  0  0  0  0  0  0  0
    6.4104  -13.2196   25.6612 C   0  0  0  0  0  0  0  0  0  0  0  0
    6.4715  -11.8723   26.0073 C   0  0  0  0  0  0  0  0  0  0  0  0
    7.5606  -11.3227   26.6595 C   0  0  0  0  0  0  0  0  0  0  0  0
    8.6246  -12.1373   26.9790 C   0  0  0  0  0  0  0  0  0  0  0  0
    8.5569  -13.4710   26.6329 C   0  0  0  0  0  0  0  0  0  0  0  0
    7.4650  -14.0189   25.9797 C   0  0  0  0  0  0  0  0  0  0  0  0
   10.0827  -17.6735   25.1519 C   0  0  0  0  0  0  0  0  0  0  0  0
    9.9846  -18.8402   24.7203 O   0  0  0  0  0  0  0  0  0  0  0  0
   11.0779  -17.3747   26.1002 N   0  0  0  0  0  0  0  0  0  0  0  0
   11.8768  -18.4908   26.6263 C   0  0  1  0  0  0  0  0  0  0  0  0
   13.3245  -17.9952   26.4999 C   0  0  0  0  0  0  0  0  0  0  0  0
   13.7432  -18.1446   25.0864 C   0  0  0  0  0  0  0  0  0  0  0  0
   13.5102  -17.1974   24.1141 C   0  0  0  0  0  0  0  0  0  0  0  0
   14.0304  -17.6854   22.9728 N   0  0  0  0  0  0  0  0  0  0  0  0
   14.5808  -18.8957   23.1788 C   0  0  0  0  0  0  0  0  0  0  0  0
   14.3913  -19.1571   24.4881 N   0  0  0  0  0  0  0  0  0  0  0  0
   11.5052  -18.8196   27.9972 C   0  0  0  0  0  0  0  0  0  0  0  0
   10.5826  -18.1975   28.5671 O   0  0  0  0  0  0  0  0  0  0  0  0
   12.1645  -19.8178   28.6789 O   0  0  0  0  0  0  0  0  0  0  0  0
  2  1  1  0
  3  2  1  0
  3  4  1  6
  5  6  2  0
  5  3  1  0
  7  5  1  0
  8  7  1  0
  8  9  1  1
 10 11  2  0
 10  9  1  0
 12 11  1  0
 13 18  2  0
 13 12  1  0
 14 13  1  0
 15 16  1  0
 15 14  2  0
 16 17  2  0
 17 18  1  0
 18 10  1  0
 19 21  1  0
 19  8  1  0
 20 19  2  0
 22 21  1  0
 22 29  1  0
 22 23  1  1
 24 23  1  0
 25 24  2  0
 26 27  1  0
 26 25  1  0
 27 28  2  0
 28 24  1  0
 29 31  1  0
 30 29  2  0
M  END
$$$$
