SWH.pdb
     RDKit          3D

 31 33  0  0  1  0  0  0  0  0999 V2000
    9.0584  -19.2116   20.8122 O   0  0  0  0  0  0  0  0  0  0  0  0
    7.7529  -18.8289   21.0695 C   0  0  0  0  0  0  0  0  0  0  0  0
    7.5929  -17.3098   20.9358 C   0  0  2  0  0  0  0  0  0  0  0  0
    7.7750  -16.8630   19.5907 N   0  0  0  0  0  0  0  0  0  0  0  0
    8.5449  -16.6163   21.8288 C   0  0  0  0  0  0  0  0  0  0  0  0
    9.4170  -15.8777   21.3154 O   0  0  0  0  0  0  0  0  0  0  0  0
    8.5209  -16.7455   23.2420 N   0  0  0  0  0  0  0  0  0  0  0  0
    9.3884  -16.0236   24.1496 C   0  0  1  0  0  0  0  0  0  0  0  0
    8.8248  -15.8251   25.5034 C   0  0  0  0  0  0  0  0  0  0  0  0
    7.5279  -15.1552   25.5969 C   0  0  0  0  0  0  0  0  0  0  0  0
    6.2437  -15.5936   25.5352 C   0  0  0  0  0  0  0  0  0  0  0  0
    5.4120  -14.5253   25.6760 N   0  0  0  0  0  0  0  0  0  0  0  0
    6.1426  -13.4139   25.8263 C   0  0  0  0  0  0  0  0  0  0  0  0
    5.8235  -12.0704   26.0049 C   0  0  0  0  0  0  0  0  0  0  0  0
    6.7901  -11.0898   26.1379 C   0  0  0  0  0  0  0  0  0  0  0  0
    8.1177  -11.4546   26.0923 C   0  0  0  0  0  0  0  0  0  0  0  0
    8.4262  -12.7875   25.9152 C   0  0  0  0  0  0  0  0  0  0  0  0
    7.4562  -13.7676   25.7821 C   0  0  0  0  0  0  0  0  0  0  0  0
   10.7008  -16.7055   24.3026 C   0  0  0  0  0  0  0  0  0  0  0  0
   11.6169  -16.2504   25.0172 O   0  0  0  0  0  0  0  0  0  0  0  0
   10.9071  -17.9123   23.6096 N   0  0  0  0  0  0  0  0  0  0  0  0
   12.2421  -18.5229   23.6841 C   0  0  1  0  0  0  0  0  0  0  0  0
   13.1944  -17.3569   23.3822 C   0  0  0  0  0  0  0  0  0  0  0  0
   13.1542  -17.0918   21.9249 C   0  0  0  0  0  0  0  0  0  0  0  0
   13.1046  -18.0807   20.9675 C   0  0  0  0  0  0  0  0  0  0  0  0
   13.0800  -17.4570   19.7750 N   0  0  0  0  0  0  0  0  0  0  0  0
   13.1116  -16.1214   19.9346 C   0  0  0  0  0  0  0  0  0  0  0  0
   13.1572  -15.9210   21.2674 N   0  0  0  0  0  0  0  0  0  0  0  0
   12.4833  -19.1325   24.9863 C   0  0  0  0  0  0  0  0  0  0  0  0
   13.0238  -20.2569   25.0661 O   0  0  0  0  0  0  0  0  0  0  0  0
   12.1195  -18.4777   26.1417 O   0  0  0  0  0  0  0  0  0  0  0  0
  2  1  1  0
  3  2  1  0
  3  4  1  6
  5  6  2  0
  5  3  1  0
  7  5  1  0
  8  7  1  0
  8  9  1  1
 10 11  2  0
 10  9  1  0
 12 11  1  0
 13 18  2  0
 13 12  1  0
 14 13  1  0
 15 16  1  0
 15 14  2  0
 16 17  2  0
 17 18  1  0
 18 10  1  0
 19 21  1  0
 19  8  1  0
 20 19  2  0
 22 21  1  0
 22 29  1  0
 22 23  1  1
 24 23  1  0
 25 24  2  0
 26 27  1  0
 26 25  1  0
 27 28  2  0
 28 24  1  0
 29 31  1  0
 30 29  2  0
M  END
$$$$
