SWH.pdb
     RDKit          3D

 31 33  0  0  1  0  0  0  0  0999 V2000
    8.7273  -18.0524   20.0632 O   0  0  0  0  0  0  0  0  0  0  0  0
    7.4736  -17.7221   20.5491 C   0  0  0  0  0  0  0  0  0  0  0  0
    7.4141  -16.2421   20.9454 C   0  0  2  0  0  0  0  0  0  0  0  0
    7.6678  -15.3750   19.8382 N   0  0  0  0  0  0  0  0  0  0  0  0
    8.3784  -15.9659   22.0311 C   0  0  0  0  0  0  0  0  0  0  0  0
    9.4341  -15.3519   21.7515 O   0  0  0  0  0  0  0  0  0  0  0  0
    8.1681  -16.3625   23.3775 N   0  0  0  0  0  0  0  0  0  0  0  0
    9.1083  -16.1427   24.4570 C   0  0  1  0  0  0  0  0  0  0  0  0
    8.4787  -15.8554   25.7649 C   0  0  0  0  0  0  0  0  0  0  0  0
    7.2870  -15.0072   25.7622 C   0  0  0  0  0  0  0  0  0  0  0  0
    5.9629  -15.2577   25.5921 C   0  0  0  0  0  0  0  0  0  0  0  0
    5.2830  -14.0818   25.6790 N   0  0  0  0  0  0  0  0  0  0  0  0
    6.1496  -13.0861   25.9013 C   0  0  0  0  0  0  0  0  0  0  0  0
    6.0113  -11.7110   26.0703 C   0  0  0  0  0  0  0  0  0  0  0  0
    7.0935  -10.8786   26.2927 C   0  0  0  0  0  0  0  0  0  0  0  0
    8.3550  -11.4291   26.3494 C   0  0  0  0  0  0  0  0  0  0  0  0
    8.4841  -12.7923   26.1811 C   0  0  0  0  0  0  0  0  0  0  0  0
    7.3987  -13.6237   25.9584 C   0  0  0  0  0  0  0  0  0  0  0  0
   10.0098  -17.3114   24.6370 C   0  0  0  0  0  0  0  0  0  0  0  0
    9.6571  -18.4800   24.3782 O   0  0  0  0  0  0  0  0  0  0  0  0
   11.3109  -17.0787   25.1186 N   0  0  0  0  0  0  0  0  0  0  0  0
   12.1862  -18.2438   25.3114 C   0  0  1  0  0  0  0  0  0  0  0  0
   13.5658  -17.7426   24.8608 C   0  0  0  0  0  0  0  0  0  0  0  0
   13.5115  -17.4858   23.4025 C   0  0  0  0  0  0  0  0  0  0  0  0
   13.4237  -16.2277   22.8489 C   0  0  0  0  0  0  0  0  0  0  0  0
   13.3974  -16.3987   21.5141 N   0  0  0  0  0  0  0  0  0  0  0  0
   13.4645  -17.7050   21.1992 C   0  0  0  0  0  0  0  0  0  0  0  0
   13.5340  -18.3547   22.3789 N   0  0  0  0  0  0  0  0  0  0  0  0
   12.1716  -18.7051   26.6943 C   0  0  0  0  0  0  0  0  0  0  0  0
   11.4630  -18.1252   27.5453 O   0  0  0  0  0  0  0  0  0  0  0  0
   12.9367  -19.7836   27.0784 O   0  0  0  0  0  0  0  0  0  0  0  0
  2  1  1  0
  3  2  1  0
  3  4  1  6
  5  6  2  0
  5  3  1  0
  7  5  1  0
  8  7  1  0
  8  9  1  1
 10 11  2  0
 10  9  1  0
 12 11  1  0
 13 18  2  0
 13 12  1  0
 14 13  1  0
 15 16  1  0
 15 14  2  0
 16 17  2  0
 17 18  1  0
 18 10  1  0
 19 21  1  0
 19  8  1  0
 20 19  2  0
 22 21  1  0
 22 29  1  0
 22 23  1  1
 24 23  1  0
 25 24  2  0
 26 27  1  0
 26 25  1  0
 27 28  2  0
 28 24  1  0
 29 31  1  0
 30 29  2  0
M  END
$$$$
