SWH.pdb
     RDKit          3D

 31 33  0  0  1  0  0  0  0  0999 V2000
    8.7544  -17.9114   19.3487 O   0  0  0  0  0  0  0  0  0  0  0  0
    8.4066  -17.6800   20.6687 C   0  0  0  0  0  0  0  0  0  0  0  0
    8.2371  -16.1793   20.9337 C   0  0  2  0  0  0  0  0  0  0  0  0
    8.6100  -15.3853   19.8056 N   0  0  0  0  0  0  0  0  0  0  0  0
    9.0297  -15.7776   22.1149 C   0  0  0  0  0  0  0  0  0  0  0  0
   10.1332  -15.2136   21.9310 O   0  0  0  0  0  0  0  0  0  0  0  0
    8.6025  -15.9993   23.4501 N   0  0  0  0  0  0  0  0  0  0  0  0
    9.4498  -15.8710   24.6176 C   0  0  1  0  0  0  0  0  0  0  0  0
    8.7132  -15.7548   25.8957 C   0  0  0  0  0  0  0  0  0  0  0  0
    7.4615  -14.9981   25.8806 C   0  0  0  0  0  0  0  0  0  0  0  0
    6.1611  -15.3475   25.7018 C   0  0  0  0  0  0  0  0  0  0  0  0
    5.3946  -14.2253   25.7785 N   0  0  0  0  0  0  0  0  0  0  0  0
    6.1827  -13.1669   26.0029 C   0  0  0  0  0  0  0  0  0  0  0  0
    5.9408  -11.8053   26.1649 C   0  0  0  0  0  0  0  0  0  0  0  0
    6.9561  -10.8935   26.3918 C   0  0  0  0  0  0  0  0  0  0  0  0
    8.2547  -11.3480   26.4602 C   0  0  0  0  0  0  0  0  0  0  0  0
    8.4866  -12.6983   26.2987 C   0  0  0  0  0  0  0  0  0  0  0  0
    7.4680  -13.6094   26.0716 C   0  0  0  0  0  0  0  0  0  0  0  0
   10.3844  -17.0211   24.7382 C   0  0  0  0  0  0  0  0  0  0  0  0
   10.7819  -17.6722   23.7507 O   0  0  0  0  0  0  0  0  0  0  0  0
   10.8327  -17.3809   26.0222 N   0  0  0  0  0  0  0  0  0  0  0  0
   11.9522  -18.3291   26.1137 C   0  0  1  0  0  0  0  0  0  0  0  0
   13.1142  -17.5887   25.4362 C   0  0  0  0  0  0  0  0  0  0  0  0
   13.1400  -17.9773   24.0066 C   0  0  0  0  0  0  0  0  0  0  0  0
   12.1913  -18.7808   23.4139 C   0  0  0  0  0  0  0  0  0  0  0  0
   12.5503  -18.9072   22.1229 N   0  0  0  0  0  0  0  0  0  0  0  0
   13.6805  -18.2214   21.8728 C   0  0  0  0  0  0  0  0  0  0  0  0
   14.0246  -17.6572   23.0484 N   0  0  0  0  0  0  0  0  0  0  0  0
   12.2377  -18.6930   27.4963 C   0  0  0  0  0  0  0  0  0  0  0  0
   13.1697  -19.4831   27.7611 O   0  0  0  0  0  0  0  0  0  0  0  0
   11.4858  -18.1713   28.5250 O   0  0  0  0  0  0  0  0  0  0  0  0
  2  1  1  0
  3  2  1  0
  3  4  1  6
  5  6  2  0
  5  3  1  0
  7  5  1  0
  8  7  1  0
  8  9  1  1
 10 11  2  0
 10  9  1  0
 12 11  1  0
 13 18  2  0
 13 12  1  0
 14 13  1  0
 15 16  1  0
 15 14  2  0
 16 17  2  0
 17 18  1  0
 18 10  1  0
 19 21  1  0
 19  8  1  0
 20 19  2  0
 22 21  1  0
 22 29  1  0
 22 23  1  1
 24 23  1  0
 25 24  2  0
 26 27  1  0
 26 25  1  0
 27 28  2  0
 28 24  1  0
 29 31  1  0
 30 29  2  0
M  END
$$$$
