SWH.pdb
     RDKit          3D

 31 33  0  0  1  0  0  0  0  0999 V2000
    9.2044  -18.1888   20.4252 O   0  0  0  0  0  0  0  0  0  0  0  0
    7.8696  -17.9149   20.6709 C   0  0  0  0  0  0  0  0  0  0  0  0
    7.6770  -16.4451   21.0630 C   0  0  2  0  0  0  0  0  0  0  0  0
    7.9148  -15.5576   19.9685 N   0  0  0  0  0  0  0  0  0  0  0  0
    8.5647  -16.0984   22.1929 C   0  0  0  0  0  0  0  0  0  0  0  0
    9.6207  -15.4686   21.9524 O   0  0  0  0  0  0  0  0  0  0  0  0
    8.2803  -16.4442   23.5397 N   0  0  0  0  0  0  0  0  0  0  0  0
    9.1621  -16.1871   24.6595 C   0  0  1  0  0  0  0  0  0  0  0  0
    8.4644  -15.9430   25.9414 C   0  0  0  0  0  0  0  0  0  0  0  0
    7.3344  -15.0144   25.9222 C   0  0  0  0  0  0  0  0  0  0  0  0
    5.9948  -15.1768   25.7671 C   0  0  0  0  0  0  0  0  0  0  0  0
    5.3987  -13.9544   25.8252 N   0  0  0  0  0  0  0  0  0  0  0  0
    6.3341  -13.0157   26.0144 C   0  0  0  0  0  0  0  0  0  0  0  0
    6.2928  -11.6302   26.1457 C   0  0  0  0  0  0  0  0  0  0  0  0
    7.4319  -10.8693   26.3382 C   0  0  0  0  0  0  0  0  0  0  0  0
    8.6526  -11.5044   26.4027 C   0  0  0  0  0  0  0  0  0  0  0  0
    8.6855  -12.8774   26.2718 C   0  0  0  0  0  0  0  0  0  0  0  0
    7.5433  -13.6371   26.0789 C   0  0  0  0  0  0  0  0  0  0  0  0
   10.1128  -17.3108   24.8700 C   0  0  0  0  0  0  0  0  0  0  0  0
    9.8451  -18.4877   24.5533 O   0  0  0  0  0  0  0  0  0  0  0  0
   11.3620  -17.0241   25.4499 N   0  0  0  0  0  0  0  0  0  0  0  0
   12.2697  -18.1512   25.7082 C   0  0  1  0  0  0  0  0  0  0  0  0
   13.6674  -17.5213   25.6238 C   0  0  0  0  0  0  0  0  0  0  0  0
   13.8784  -17.0471   24.2359 C   0  0  0  0  0  0  0  0  0  0  0  0
   13.5616  -17.7858   23.1175 C   0  0  0  0  0  0  0  0  0  0  0  0
   13.8937  -17.0305   22.0541 N   0  0  0  0  0  0  0  0  0  0  0  0
   14.4051  -15.8502   22.4485 C   0  0  0  0  0  0  0  0  0  0  0  0
   14.3855  -15.8840   23.7965 N   0  0  0  0  0  0  0  0  0  0  0  0
   12.0022  -18.7727   26.9996 C   0  0  0  0  0  0  0  0  0  0  0  0
   11.0595  -18.3654   27.7126 O   0  0  0  0  0  0  0  0  0  0  0  0
   12.7832  -19.8142   27.4481 O   0  0  0  0  0  0  0  0  0  0  0  0
  2  1  1  0
  3  2  1  0
  3  4  1  6
  5  6  2  0
  5  3  1  0
  7  5  1  0
  8  7  1  0
  8  9  1  1
 10 11  2  0
 10  9  1  0
 12 11  1  0
 13 18  2  0
 13 12  1  0
 14 13  1  0
 15 16  1  0
 15 14  2  0
 16 17  2  0
 17 18  1  0
 18 10  1  0
 19 21  1  0
 19  8  1  0
 20 19  2  0
 22 21  1  0
 22 29  1  0
 22 23  1  1
 24 23  1  0
 25 24  2  0
 26 27  1  0
 26 25  1  0
 27 28  2  0
 28 24  1  0
 29 31  1  0
 30 29  2  0
M  END
$$$$
