SWH.pdb
     RDKit          3D

 31 33  0  0  1  0  0  0  0  0999 V2000
    8.6772  -17.6613   20.0544 O   0  0  0  0  0  0  0  0  0  0  0  0
    7.4046  -17.4384   20.5519 C   0  0  0  0  0  0  0  0  0  0  0  0
    7.2169  -15.9645   20.9309 C   0  0  2  0  0  0  0  0  0  0  0  0
    7.3054  -15.0990   19.7972 N   0  0  0  0  0  0  0  0  0  0  0  0
    8.2163  -15.5678   21.9452 C   0  0  0  0  0  0  0  0  0  0  0  0
    9.1949  -14.8750   21.5815 O   0  0  0  0  0  0  0  0  0  0  0  0
    8.1230  -15.9332   23.3134 N   0  0  0  0  0  0  0  0  0  0  0  0
    9.1258  -15.6359   24.3152 C   0  0  1  0  0  0  0  0  0  0  0  0
    8.6103  -15.5991   25.7017 C   0  0  0  0  0  0  0  0  0  0  0  0
    7.3948  -14.8222   25.9435 C   0  0  0  0  0  0  0  0  0  0  0  0
    6.0755  -15.1423   25.9897 C   0  0  0  0  0  0  0  0  0  0  0  0
    5.3624  -14.0121   26.2482 N   0  0  0  0  0  0  0  0  0  0  0  0
    6.2030  -12.9773   26.3677 C   0  0  0  0  0  0  0  0  0  0  0  0
    6.0267  -11.6202   26.6244 C   0  0  0  0  0  0  0  0  0  0  0  0
    7.0877  -10.7357   26.6992 C   0  0  0  0  0  0  0  0  0  0  0  0
    8.3661  -11.2138   26.5132 C   0  0  0  0  0  0  0  0  0  0  0  0
    8.5329  -12.5595   26.2592 C   0  0  0  0  0  0  0  0  0  0  0  0
    7.4687  -13.4433   26.1848 C   0  0  0  0  0  0  0  0  0  0  0  0
   10.2410  -16.6185   24.2742 C   0  0  0  0  0  0  0  0  0  0  0  0
   10.0566  -17.8392   24.0928 O   0  0  0  0  0  0  0  0  0  0  0  0
   11.5531  -16.1417   24.4478 N   0  0  0  0  0  0  0  0  0  0  0  0
   12.6356  -17.1333   24.5228 C   0  0  1  0  0  0  0  0  0  0  0  0
   13.8851  -16.3419   24.1108 C   0  0  0  0  0  0  0  0  0  0  0  0
   13.7718  -16.0149   22.6700 C   0  0  0  0  0  0  0  0  0  0  0  0
   12.9086  -16.6510   21.8057 C   0  0  0  0  0  0  0  0  0  0  0  0
   13.0920  -16.0859   20.5979 N   0  0  0  0  0  0  0  0  0  0  0  0
   14.0299  -15.1232   20.6593 C   0  0  0  0  0  0  0  0  0  0  0  0
   14.4339  -15.0983   21.9457 N   0  0  0  0  0  0  0  0  0  0  0  0
   12.7428  -17.7133   25.8561 C   0  0  0  0  0  0  0  0  0  0  0  0
   13.6527  -18.5298   26.1175 O   0  0  0  0  0  0  0  0  0  0  0  0
   11.8449  -17.3688   26.8414 O   0  0  0  0  0  0  0  0  0  0  0  0
  2  1  1  0
  3  2  1  0
  3  4  1  6
  5  6  2  0
  5  3  1  0
  7  5  1  0
  8  7  1  0
  8  9  1  1
 10 11  2  0
 10  9  1  0
 12 11  1  0
 13 18  2  0
 13 12  1  0
 14 13  1  0
 15 16  1  0
 15 14  2  0
 16 17  2  0
 17 18  1  0
 18 10  1  0
 19 21  1  0
 19  8  1  0
 20 19  2  0
 22 21  1  0
 22 29  1  0
 22 23  1  1
 24 23  1  0
 25 24  2  0
 26 27  1  0
 26 25  1  0
 27 28  2  0
 28 24  1  0
 29 31  1  0
 30 29  2  0
M  END
$$$$
