SWH.pdb
     RDKit          3D

 31 33  0  0  1  0  0  0  0  0999 V2000
    7.7370  -18.5965   20.4653 O   0  0  0  0  0  0  0  0  0  0  0  0
    7.1749  -17.3496   20.2505 C   0  0  0  0  0  0  0  0  0  0  0  0
    8.2374  -16.3434   19.7924 C   0  0  2  0  0  0  0  0  0  0  0  0
    8.8932  -16.7580   18.5923 N   0  0  0  0  0  0  0  0  0  0  0  0
    9.2346  -16.1323   20.8628 C   0  0  0  0  0  0  0  0  0  0  0  0
   10.3253  -16.7449   20.7933 O   0  0  0  0  0  0  0  0  0  0  0  0
    9.0181  -15.2686   21.9680 N   0  0  0  0  0  0  0  0  0  0  0  0
    9.6676  -15.4008   23.2558 C   0  0  1  0  0  0  0  0  0  0  0  0
    9.3913  -14.2910   24.1947 C   0  0  0  0  0  0  0  0  0  0  0  0
    8.0615  -14.2433   24.8020 C   0  0  0  0  0  0  0  0  0  0  0  0
    7.0742  -15.1625   24.9615 C   0  0  0  0  0  0  0  0  0  0  0  0
    6.0274  -14.5706   25.5990 N   0  0  0  0  0  0  0  0  0  0  0  0
    6.3294  -13.2906   25.8489 C   0  0  0  0  0  0  0  0  0  0  0  0
    5.6463  -12.2438   26.4621 C   0  0  0  0  0  0  0  0  0  0  0  0
    6.1933  -10.9805   26.5988 C   0  0  0  0  0  0  0  0  0  0  0  0
    7.4604  -10.7485   26.1107 C   0  0  0  0  0  0  0  0  0  0  0  0
    8.1310  -11.7905   25.5044 C   0  0  0  0  0  0  0  0  0  0  0  0
    7.5809  -13.0547   25.3688 C   0  0  0  0  0  0  0  0  0  0  0  0
    9.2821  -16.6688   23.9297 C   0  0  0  0  0  0  0  0  0  0  0  0
    8.5382  -17.5163   23.3954 O   0  0  0  0  0  0  0  0  0  0  0  0
    9.7821  -16.9129   25.2218 N   0  0  0  0  0  0  0  0  0  0  0  0
   10.7092  -18.0407   25.3933 C   0  0  1  0  0  0  0  0  0  0  0  0
   11.8893  -17.6859   24.4773 C   0  0  0  0  0  0  0  0  0  0  0  0
   12.8963  -18.7681   24.5794 C   0  0  0  0  0  0  0  0  0  0  0  0
   12.7670  -19.8589   25.4103 C   0  0  0  0  0  0  0  0  0  0  0  0
   13.8677  -20.6115   25.2268 N   0  0  0  0  0  0  0  0  0  0  0  0
   14.6853  -20.0473   24.3193 C   0  0  0  0  0  0  0  0  0  0  0  0
   14.0655  -18.9129   23.9351 N   0  0  0  0  0  0  0  0  0  0  0  0
   11.1009  -18.2083   26.7875 C   0  0  0  0  0  0  0  0  0  0  0  0
   11.0718  -19.3392   27.3194 O   0  0  0  0  0  0  0  0  0  0  0  0
   11.5074  -17.1246   27.5335 O   0  0  0  0  0  0  0  0  0  0  0  0
  2  1  1  0
  3  2  1  0
  3  4  1  6
  5  6  2  0
  5  3  1  0
  7  5  1  0
  8  7  1  0
  8  9  1  1
 10 11  2  0
 10  9  1  0
 12 11  1  0
 13 18  2  0
 13 12  1  0
 14 13  1  0
 15 16  1  0
 15 14  2  0
 16 17  2  0
 17 18  1  0
 18 10  1  0
 19 21  1  0
 19  8  1  0
 20 19  2  0
 22 21  1  0
 22 29  1  0
 22 23  1  6
 24 23  1  0
 25 24  2  0
 26 27  1  0
 26 25  1  0
 27 28  2  0
 28 24  1  0
 29 31  1  0
 30 29  2  0
M  END
$$$$
