SWH.pdb
     RDKit          3D

 31 33  0  0  1  0  0  0  0  0999 V2000
   10.5097  -19.3648   20.8569 O   0  0  0  0  0  0  0  0  0  0  0  0
    9.4968  -18.5500   20.3804 C   0  0  0  0  0  0  0  0  0  0  0  0
    9.8869  -17.0714   20.4932 C   0  0  2  0  0  0  0  0  0  0  0  0
   11.0454  -16.7569   19.7178 N   0  0  0  0  0  0  0  0  0  0  0  0
   10.1165  -16.7113   21.9083 C   0  0  0  0  0  0  0  0  0  0  0  0
   11.2968  -16.6248   22.3195 O   0  0  0  0  0  0  0  0  0  0  0  0
    9.0646  -16.4582   22.8269 N   0  0  0  0  0  0  0  0  0  0  0  0
    9.2247  -16.3953   24.2649 C   0  0  1  0  0  0  0  0  0  0  0  0
    7.9979  -16.0131   24.9988 C   0  0  0  0  0  0  0  0  0  0  0  0
    7.3737  -14.7393   24.6418 C   0  0  0  0  0  0  0  0  0  0  0  0
    6.8764  -14.2355   23.4825 C   0  0  0  0  0  0  0  0  0  0  0  0
    6.4140  -12.9772   23.7180 N   0  0  0  0  0  0  0  0  0  0  0  0
    6.6074  -12.6696   25.0064 C   0  0  0  0  0  0  0  0  0  0  0  0
    6.3333  -11.5432   25.7775 C   0  0  0  0  0  0  0  0  0  0  0  0
    6.6404  -11.4739   27.1245 C   0  0  0  0  0  0  0  0  0  0  0  0
    7.2395  -12.5586   27.7264 C   0  0  0  0  0  0  0  0  0  0  0  0
    7.5080  -13.6710   26.9560 C   0  0  0  0  0  0  0  0  0  0  0  0
    7.1994  -13.7379   25.6071 C   0  0  0  0  0  0  0  0  0  0  0  0
    9.6938  -17.6944   24.8155 C   0  0  0  0  0  0  0  0  0  0  0  0
    9.7760  -18.7290   24.1228 O   0  0  0  0  0  0  0  0  0  0  0  0
   10.0575  -17.7477   26.1734 N   0  0  0  0  0  0  0  0  0  0  0  0
   11.0237  -18.7776   26.5815 C   0  0  1  0  0  0  0  0  0  0  0  0
   12.2811  -18.4421   25.7666 C   0  0  0  0  0  0  0  0  0  0  0  0
   13.3604  -19.3705   26.1774 C   0  0  0  0  0  0  0  0  0  0  0  0
   13.6142  -19.7193   27.4853 C   0  0  0  0  0  0  0  0  0  0  0  0
   14.6568  -20.5702   27.4583 N   0  0  0  0  0  0  0  0  0  0  0  0
   15.0727  -20.7748   26.1953 C   0  0  0  0  0  0  0  0  0  0  0  0
   14.2589  -20.0251   25.4243 N   0  0  0  0  0  0  0  0  0  0  0  0
   11.2558  -18.7578   28.0207 C   0  0  0  0  0  0  0  0  0  0  0  0
   10.8418  -17.8030   28.7134 O   0  0  0  0  0  0  0  0  0  0  0  0
   11.9321  -19.7892   28.6329 O   0  0  0  0  0  0  0  0  0  0  0  0
  2  1  1  0
  3  2  1  0
  3  4  1  6
  5  6  2  0
  5  3  1  0
  7  5  1  0
  8  7  1  0
  8  9  1  1
 10 11  2  0
 10  9  1  0
 12 11  1  0
 13 18  2  0
 13 12  1  0
 14 13  1  0
 15 16  1  0
 15 14  2  0
 16 17  2  0
 17 18  1  0
 18 10  1  0
 19 21  1  0
 19  8  1  0
 20 19  2  0
 22 21  1  0
 22 29  1  0
 22 23  1  6
 24 23  1  0
 25 24  2  0
 26 27  1  0
 26 25  1  0
 27 28  2  0
 28 24  1  0
 29 31  1  0
 30 29  2  0
M  END
$$$$
