SWH.pdb
     RDKit          3D

 31 33  0  0  1  0  0  0  0  0999 V2000
    8.1855  -17.2143   19.5570 O   0  0  0  0  0  0  0  0  0  0  0  0
    6.9722  -16.9625   20.1746 C   0  0  0  0  0  0  0  0  0  0  0  0
    6.9480  -15.5523   20.7762 C   0  0  2  0  0  0  0  0  0  0  0  0
    7.1077  -14.5376   19.7827 N   0  0  0  0  0  0  0  0  0  0  0  0
    8.0013  -15.4187   21.8047 C   0  0  0  0  0  0  0  0  0  0  0  0
    9.0108  -14.7254   21.5403 O   0  0  0  0  0  0  0  0  0  0  0  0
    7.9263  -16.0379   23.0795 N   0  0  0  0  0  0  0  0  0  0  0  0
    8.9843  -16.0172   24.0683 C   0  0  1  0  0  0  0  0  0  0  0  0
    8.5108  -15.9019   25.4655 C   0  0  0  0  0  0  0  0  0  0  0  0
    7.3512  -15.0447   25.7107 C   0  0  0  0  0  0  0  0  0  0  0  0
    6.0100  -15.2583   25.6857 C   0  0  0  0  0  0  0  0  0  0  0  0
    5.3779  -14.0918   25.9897 N   0  0  0  0  0  0  0  0  0  0  0  0
    6.2918  -13.1383   26.2080 C   0  0  0  0  0  0  0  0  0  0  0  0
    6.2124  -11.7898   26.5453 C   0  0  0  0  0  0  0  0  0  0  0  0
    7.3358  -11.0011   26.7178 C   0  0  0  0  0  0  0  0  0  0  0  0
    8.5793  -11.5696   26.5500 C   0  0  0  0  0  0  0  0  0  0  0  0
    8.6499  -12.9062   26.2158 C   0  0  0  0  0  0  0  0  0  0  0  0
    7.5234  -13.6939   26.0436 C   0  0  0  0  0  0  0  0  0  0  0  0
    9.8340  -17.2341   23.9787 C   0  0  0  0  0  0  0  0  0  0  0  0
    9.4941  -18.2466   23.3335 O   0  0  0  0  0  0  0  0  0  0  0  0
   11.0692  -17.2328   24.6520 N   0  0  0  0  0  0  0  0  0  0  0  0
   12.2586  -17.6529   23.8973 C   0  0  1  0  0  0  0  0  0  0  0  0
   12.2923  -16.6891   22.7026 C   0  0  0  0  0  0  0  0  0  0  0  0
   13.3714  -17.1258   21.7857 C   0  0  0  0  0  0  0  0  0  0  0  0
   14.7040  -17.1594   22.1320 C   0  0  0  0  0  0  0  0  0  0  0  0
   15.3687  -17.6051   21.0499 N   0  0  0  0  0  0  0  0  0  0  0  0
   14.5187  -17.8545   20.0372 C   0  0  0  0  0  0  0  0  0  0  0  0
   13.2943  -17.5516   20.5145 N   0  0  0  0  0  0  0  0  0  0  0  0
   13.4645  -17.5897   24.7142 C   0  0  0  0  0  0  0  0  0  0  0  0
   14.4738  -18.2581   24.4019 O   0  0  0  0  0  0  0  0  0  0  0  0
   13.5060  -16.7940   25.8371 O   0  0  0  0  0  0  0  0  0  0  0  0
  2  1  1  0
  3  2  1  0
  3  4  1  6
  5  6  2  0
  5  3  1  0
  7  5  1  0
  8  7  1  0
  8  9  1  1
 10 11  2  0
 10  9  1  0
 12 11  1  0
 13 18  2  0
 13 12  1  0
 14 13  1  0
 15 16  1  0
 15 14  2  0
 16 17  2  0
 17 18  1  0
 18 10  1  0
 19 21  1  0
 19  8  1  0
 20 19  2  0
 22 21  1  0
 22 29  1  0
 22 23  1  6
 24 23  1  0
 25 24  2  0
 26 27  1  0
 26 25  1  0
 27 28  2  0
 28 24  1  0
 29 31  1  0
 30 29  2  0
M  END
$$$$
