KFS.pdb
     RDKit          3D

 27 27  0  0  1  0  0  0  0  0999 V2000
    8.0892  -13.2521   19.7761 N   0  0  0  0  0  0  0  0  0  0  0  0
    7.3353  -14.0874   20.6513 C   0  0  1  0  0  0  0  0  0  0  0  0
    6.8898  -15.3882   20.0833 C   0  0  0  0  0  0  0  0  0  0  0  0
    7.9223  -16.1940   19.3823 C   0  0  0  0  0  0  0  0  0  0  0  0
    7.4681  -16.9384   18.1751 C   0  0  0  0  0  0  0  0  0  0  0  0
    6.9678  -18.3385   18.5609 C   0  0  0  0  0  0  0  0  0  0  0  0
    6.5652  -19.0055   17.3541 N   0  0  0  0  0  0  0  0  0  0  0  0
    8.1422  -14.3461   21.8870 C   0  0  0  0  0  0  0  0  0  0  0  0
    9.3921  -14.1958   21.8716 O   0  0  0  0  0  0  0  0  0  0  0  0
    7.5616  -14.7646   23.1161 N   0  0  0  0  0  0  0  0  0  0  0  0
    8.2809  -15.0089   24.3336 C   0  0  1  0  0  0  0  0  0  0  0  0
    7.4718  -14.8128   25.5701 C   0  0  0  0  0  0  0  0  0  0  0  0
    7.2040  -13.4532   25.9713 C   0  0  0  0  0  0  0  0  0  0  0  0
    5.9098  -12.9898   26.0062 C   0  0  0  0  0  0  0  0  0  0  0  0
    5.6207  -11.6744   26.3912 C   0  0  0  0  0  0  0  0  0  0  0  0
    6.6384  -10.8180   26.7437 C   0  0  0  0  0  0  0  0  0  0  0  0
    7.9240  -11.2686   26.7120 C   0  0  0  0  0  0  0  0  0  0  0  0
    8.1902  -12.5629   26.3317 C   0  0  0  0  0  0  0  0  0  0  0  0
    9.0547  -16.2715   24.3202 C   0  0  0  0  0  0  0  0  0  0  0  0
    8.5102  -17.3913   24.0397 O   0  0  0  0  0  0  0  0  0  0  0  0
   13.3841  -18.3573   23.9335 O   0  0  0  0  0  0  0  0  0  0  0  0
   12.6048  -17.2216   24.1024 C   0  0  0  0  0  0  0  0  0  0  0  0
   11.1716  -17.5890   24.4920 C   0  0  2  0  0  0  0  0  0  0  0  0
   10.4462  -16.3385   24.6108 N   0  0  0  0  0  0  0  0  0  0  0  0
   11.1646  -18.2756   25.7891 C   0  0  0  0  0  0  0  0  0  0  0  0
   11.6981  -19.4015   25.8943 O   0  0  0  0  0  0  0  0  0  0  0  0
   10.5803  -17.6965   26.8893 O   0  0  0  0  0  0  0  0  0  0  0  0
  2  1  1  6
  2  8  1  0
  3  2  1  0
  3  4  1  0
  4  5  1  0
  6  5  1  0
  6  7  1  0
  8  9  2  0
 10  8  1  0
 10 11  1  0
 11 19  1  0
 12 13  1  0
 11 12  1  1
 13 14  2  0
 14 15  1  0
 16 15  2  0
 17 16  1  0
 18 13  1  0
 18 17  2  0
 19 20  2  0
 21 22  1  0
 23 22  1  1
 23 25  1  0
 24 23  1  0
 24 19  1  0
 25 26  2  0
 25 27  1  0
M  END
$$$$
