KFS.pdb
     RDKit          3D

 27 27  0  0  1  0  0  0  0  0999 V2000
    8.0741  -16.8647   19.8413 N   0  0  0  0  0  0  0  0  0  0  0  0
    9.2533  -16.0668   19.9110 C   0  0  1  0  0  0  0  0  0  0  0  0
    9.3411  -14.9512   18.9309 C   0  0  0  0  0  0  0  0  0  0  0  0
    8.4965  -15.0694   17.7144 C   0  0  0  0  0  0  0  0  0  0  0  0
    8.5197  -13.9082   16.7823 C   0  0  0  0  0  0  0  0  0  0  0  0
    7.6451  -14.1871   15.5508 C   0  0  0  0  0  0  0  0  0  0  0  0
    7.6696  -13.0129   14.7236 N   0  0  0  0  0  0  0  0  0  0  0  0
    9.3788  -15.5094   21.2962 C   0  0  0  0  0  0  0  0  0  0  0  0
   10.4542  -14.9711   21.6685 O   0  0  0  0  0  0  0  0  0  0  0  0
    8.3211  -15.5533   22.2461 N   0  0  0  0  0  0  0  0  0  0  0  0
    8.3753  -15.0136   23.5747 C   0  0  1  0  0  0  0  0  0  0  0  0
    7.2869  -14.0433   23.8840 C   0  0  0  0  0  0  0  0  0  0  0  0
    7.2933  -13.4453   25.1969 C   0  0  0  0  0  0  0  0  0  0  0  0
    8.2393  -12.4996   25.5161 C   0  0  0  0  0  0  0  0  0  0  0  0
    8.2694  -11.9030   26.7831 C   0  0  0  0  0  0  0  0  0  0  0  0
    7.3432  -12.2584   27.7365 C   0  0  0  0  0  0  0  0  0  0  0  0
    6.4020  -13.1947   27.4290 C   0  0  0  0  0  0  0  0  0  0  0  0
    6.3866  -13.7704   26.1803 C   0  0  0  0  0  0  0  0  0  0  0  0
    8.5752  -16.0408   24.6226 C   0  0  0  0  0  0  0  0  0  0  0  0
    7.6758  -16.9029   24.8999 O   0  0  0  0  0  0  0  0  0  0  0  0
   12.1979  -17.5027   25.3530 O   0  0  0  0  0  0  0  0  0  0  0  0
   11.0087  -18.1819   25.5772 C   0  0  0  0  0  0  0  0  0  0  0  0
    9.9830  -17.2839   26.2717 C   0  0  2  0  0  0  0  0  0  0  0  0
    9.7677  -16.1513   25.3913 N   0  0  0  0  0  0  0  0  0  0  0  0
   10.5200  -16.8051   27.5508 C   0  0  0  0  0  0  0  0  0  0  0  0
   10.8408  -17.6307   28.4333 O   0  0  0  0  0  0  0  0  0  0  0  0
   10.6754  -15.4613   27.7906 O   0  0  0  0  0  0  0  0  0  0  0  0
  2  1  1  1
  2  8  1  0
  3  2  1  0
  3  4  1  0
  4  5  1  0
  6  5  1  0
  6  7  1  0
  8  9  2  0
 10  8  1  0
 10 11  1  0
 11 19  1  0
 12 13  1  0
 11 12  1  1
 13 14  2  0
 14 15  1  0
 16 15  2  0
 17 16  1  0
 18 13  1  0
 18 17  2  0
 19 20  2  0
 21 22  1  0
 23 22  1  6
 23 25  1  0
 24 23  1  0
 24 19  1  0
 25 26  2  0
 25 27  1  0
M  END
$$$$
