KFS.pdb
     RDKit          3D

 27 27  0  0  1  0  0  0  0  0999 V2000
    8.5073  -17.7542   20.4082 N   0  0  0  0  0  0  0  0  0  0  0  0
    9.8604  -17.3932   20.6744 C   0  0  1  0  0  0  0  0  0  0  0  0
   10.5992  -16.7666   19.5453 C   0  0  0  0  0  0  0  0  0  0  0  0
   10.6476  -17.5367   18.2759 C   0  0  0  0  0  0  0  0  0  0  0  0
   11.4165  -16.9185   17.1604 C   0  0  0  0  0  0  0  0  0  0  0  0
   11.3956  -17.8269   15.9220 C   0  0  0  0  0  0  0  0  0  0  0  0
   12.3323  -18.8925   16.1471 N   0  0  0  0  0  0  0  0  0  0  0  0
    9.8910  -16.4660   21.8510 C   0  0  0  0  0  0  0  0  0  0  0  0
   10.9911  -16.0978   22.3401 O   0  0  0  0  0  0  0  0  0  0  0  0
    8.7135  -15.9606   22.4681 N   0  0  0  0  0  0  0  0  0  0  0  0
    8.6753  -15.1912   23.6788 C   0  0  1  0  0  0  0  0  0  0  0  0
    7.5183  -14.2559   23.7711 C   0  0  0  0  0  0  0  0  0  0  0  0
    7.3998  -13.4746   24.9781 C   0  0  0  0  0  0  0  0  0  0  0  0
    6.4146  -13.7675   25.8918 C   0  0  0  0  0  0  0  0  0  0  0  0
    6.2760  -13.0254   27.0716 C   0  0  0  0  0  0  0  0  0  0  0  0
    7.1326  -11.9815   27.3361 C   0  0  0  0  0  0  0  0  0  0  0  0
    8.1118  -11.6841   26.4364 C   0  0  0  0  0  0  0  0  0  0  0  0
    8.2339  -12.4229   25.2831 C   0  0  0  0  0  0  0  0  0  0  0  0
    8.8878  -16.0005   24.9008 C   0  0  0  0  0  0  0  0  0  0  0  0
    8.0406  -16.8744   25.2848 O   0  0  0  0  0  0  0  0  0  0  0  0
   12.6481  -16.6381   26.1987 O   0  0  0  0  0  0  0  0  0  0  0  0
   11.6158  -17.5520   26.3563 C   0  0  0  0  0  0  0  0  0  0  0  0
   10.3178  -16.8529   26.7650 C   0  0  2  0  0  0  0  0  0  0  0  0
   10.0365  -15.8747   25.7314 N   0  0  0  0  0  0  0  0  0  0  0  0
   10.5024  -16.1610   28.0461 C   0  0  0  0  0  0  0  0  0  0  0  0
   10.8055  -16.8194   29.0650 O   0  0  0  0  0  0  0  0  0  0  0  0
   10.3475  -14.7992   28.1398 O   0  0  0  0  0  0  0  0  0  0  0  0
  2  1  1  6
  2  8  1  0
  3  2  1  0
  3  4  1  0
  4  5  1  0
  6  5  1  0
  6  7  1  0
  8  9  2  0
 10  8  1  0
 10 11  1  0
 11 19  1  0
 12 13  1  0
 11 12  1  1
 13 14  2  0
 14 15  1  0
 16 15  2  0
 17 16  1  0
 18 13  1  0
 18 17  2  0
 19 20  2  0
 21 22  1  0
 23 22  1  6
 23 25  1  0
 24 23  1  0
 24 19  1  0
 25 26  2  0
 25 27  1  0
M  END
$$$$
