KFS.pdb
     RDKit          3D

 27 27  0  0  1  0  0  0  0  0999 V2000
    8.0080  -16.7237   20.0686 N   0  0  0  0  0  0  0  0  0  0  0  0
    9.2507  -16.0324   20.1684 C   0  0  1  0  0  0  0  0  0  0  0  0
    9.4640  -14.9354   19.1865 C   0  0  0  0  0  0  0  0  0  0  0  0
    8.6140  -14.9613   17.9684 C   0  0  0  0  0  0  0  0  0  0  0  0
    8.8718  -13.8929   16.9636 C   0  0  0  0  0  0  0  0  0  0  0  0
    7.9171  -14.0340   15.7686 C   0  0  0  0  0  0  0  0  0  0  0  0
    8.2706  -13.0272   14.8068 N   0  0  0  0  0  0  0  0  0  0  0  0
    9.3863  -15.4790   21.5543 C   0  0  0  0  0  0  0  0  0  0  0  0
   10.4326  -14.8664   21.8932 O   0  0  0  0  0  0  0  0  0  0  0  0
    8.3705  -15.6085   22.5414 N   0  0  0  0  0  0  0  0  0  0  0  0
    8.3608  -14.9468   23.8147 C   0  0  1  0  0  0  0  0  0  0  0  0
    7.0779  -14.2588   24.1351 C   0  0  0  0  0  0  0  0  0  0  0  0
    7.0150  -13.5323   25.3799 C   0  0  0  0  0  0  0  0  0  0  0  0
    7.7398  -12.3742   25.5364 C   0  0  0  0  0  0  0  0  0  0  0  0
    7.6980  -11.6490   26.7341 C   0  0  0  0  0  0  0  0  0  0  0  0
    6.9230  -12.0896   27.7822 C   0  0  0  0  0  0  0  0  0  0  0  0
    6.2014  -13.2363   27.6360 C   0  0  0  0  0  0  0  0  0  0  0  0
    6.2538  -13.9360   26.4534 C   0  0  0  0  0  0  0  0  0  0  0  0
    8.8821  -15.7834   24.9199 C   0  0  0  0  0  0  0  0  0  0  0  0
    8.9506  -15.3488   26.1180 O   0  0  0  0  0  0  0  0  0  0  0  0
   10.3125  -19.5544   24.1885 O   0  0  0  0  0  0  0  0  0  0  0  0
    9.7435  -19.3654   25.4400 C   0  0  0  0  0  0  0  0  0  0  0  0
    9.8213  -17.8978   25.8654 C   0  0  2  0  0  0  0  0  0  0  0  0
    9.3386  -17.1193   24.7406 N   0  0  0  0  0  0  0  0  0  0  0  0
   11.2143  -17.5294   26.1443 C   0  0  0  0  0  0  0  0  0  0  0  0
   11.7777  -16.6657   25.4371 O   0  0  0  0  0  0  0  0  0  0  0  0
   11.9068  -18.1208   27.1730 O   0  0  0  0  0  0  0  0  0  0  0  0
  2  1  1  1
  2  8  1  0
  3  2  1  0
  3  4  1  0
  4  5  1  0
  6  5  1  0
  6  7  1  0
  8  9  2  0
 10  8  1  0
 10 11  1  0
 11 19  1  0
 12 13  1  0
 11 12  1  1
 13 14  2  0
 14 15  1  0
 16 15  2  0
 17 16  1  0
 18 13  1  0
 18 17  2  0
 19 20  2  0
 21 22  1  0
 23 22  1  6
 23 25  1  0
 24 23  1  0
 24 19  1  0
 25 26  2  0
 25 27  1  0
M  END
$$$$
