KFS.pdb
     RDKit          3D

 27 27  0  0  1  0  0  0  0  0999 V2000
    7.0328  -15.9072   21.5826 N   0  0  0  0  0  0  0  0  0  0  0  0
    8.3121  -15.2876   21.4746 C   0  0  1  0  0  0  0  0  0  0  0  0
    8.3314  -13.9457   20.8326 C   0  0  0  0  0  0  0  0  0  0  0  0
    7.7407  -13.8528   19.4727 C   0  0  0  0  0  0  0  0  0  0  0  0
    8.6435  -13.3599   18.3958 C   0  0  0  0  0  0  0  0  0  0  0  0
    7.8749  -13.2078   17.0746 C   0  0  0  0  0  0  0  0  0  0  0  0
    8.8037  -12.7473   16.0803 N   0  0  0  0  0  0  0  0  0  0  0  0
    8.9152  -15.1821   22.8422 C   0  0  0  0  0  0  0  0  0  0  0  0
   10.0491  -14.6572   22.9968 O   0  0  0  0  0  0  0  0  0  0  0  0
    8.2620  -15.6547   24.0139 N   0  0  0  0  0  0  0  0  0  0  0  0
    8.8026  -15.6070   25.3424 C   0  0  1  0  0  0  0  0  0  0  0  0
    7.8232  -15.1879   26.3850 C   0  0  0  0  0  0  0  0  0  0  0  0
    7.3450  -13.8279   26.3285 C   0  0  0  0  0  0  0  0  0  0  0  0
    8.2397  -12.7838   26.3548 C   0  0  0  0  0  0  0  0  0  0  0  0
    7.8035  -11.4538   26.3018 C   0  0  0  0  0  0  0  0  0  0  0  0
    6.4595  -11.1698   26.2219 C   0  0  0  0  0  0  0  0  0  0  0  0
    5.5658  -12.1981   26.1952 C   0  0  0  0  0  0  0  0  0  0  0  0
    6.0110  -13.4981   26.2480 C   0  0  0  0  0  0  0  0  0  0  0  0
    9.5838  -16.8113   25.7066 C   0  0  0  0  0  0  0  0  0  0  0  0
    9.9854  -17.0171   26.9005 O   0  0  0  0  0  0  0  0  0  0  0  0
   10.7042  -19.5360   22.8455 O   0  0  0  0  0  0  0  0  0  0  0  0
   10.4762  -20.0539   24.1126 C   0  0  0  0  0  0  0  0  0  0  0  0
   10.6940  -18.9903   25.1906 C   0  0  2  0  0  0  0  0  0  0  0  0
    9.9420  -17.8227   24.7717 N   0  0  0  0  0  0  0  0  0  0  0  0
   12.1176  -18.6429   25.2724 C   0  0  0  0  0  0  0  0  0  0  0  0
   12.9305  -19.4750   25.7311 O   0  0  0  0  0  0  0  0  0  0  0  0
   12.5685  -17.4157   24.8505 O   0  0  0  0  0  0  0  0  0  0  0  0
  2  1  1  1
  2  8  1  0
  3  2  1  0
  3  4  1  0
  4  5  1  0
  6  5  1  0
  6  7  1  0
  8  9  2  0
 10  8  1  0
 10 11  1  0
 11 19  1  0
 12 13  1  0
 11 12  1  1
 13 14  2  0
 14 15  1  0
 16 15  2  0
 17 16  1  0
 18 13  1  0
 18 17  2  0
 19 20  2  0
 21 22  1  0
 23 22  1  6
 23 25  1  0
 24 23  1  0
 24 19  1  0
 25 26  2  0
 25 27  1  0
M  END
$$$$
