KFS.pdb
     RDKit          3D

 27 27  0  0  1  0  0  0  0  0999 V2000
    8.2691  -17.7574   19.9232 N   0  0  0  0  0  0  0  0  0  0  0  0
    7.8822  -18.1290   21.2440 C   0  0  1  0  0  0  0  0  0  0  0  0
    8.4087  -19.4320   21.7323 C   0  0  0  0  0  0  0  0  0  0  0  0
    8.5171  -20.5214   20.7281 C   0  0  0  0  0  0  0  0  0  0  0  0
    8.2831  -21.9039   21.2298 C   0  0  0  0  0  0  0  0  0  0  0  0
    8.3380  -22.9140   20.0739 C   0  0  0  0  0  0  0  0  0  0  0  0
    8.0957  -24.2190   20.6234 N   0  0  0  0  0  0  0  0  0  0  0  0
    8.3015  -17.0478   22.1928 C   0  0  0  0  0  0  0  0  0  0  0  0
    9.4106  -16.4703   22.0466 O   0  0  0  0  0  0  0  0  0  0  0  0
    7.4950  -16.6210   23.2839 N   0  0  0  0  0  0  0  0  0  0  0  0
    7.8644  -15.6265   24.2503 C   0  0  1  0  0  0  0  0  0  0  0  0
    6.7072  -14.9450   24.8973 C   0  0  0  0  0  0  0  0  0  0  0  0
    7.0062  -13.9597   25.9077 C   0  0  0  0  0  0  0  0  0  0  0  0
    6.6822  -12.6399   25.6971 C   0  0  0  0  0  0  0  0  0  0  0  0
    6.9612  -11.6621   26.6604 C   0  0  0  0  0  0  0  0  0  0  0  0
    7.5700  -12.0118   27.8438 C   0  0  0  0  0  0  0  0  0  0  0  0
    7.8947  -13.3172   28.0612 C   0  0  0  0  0  0  0  0  0  0  0  0
    7.6136  -14.2645   27.1049 C   0  0  0  0  0  0  0  0  0  0  0  0
    8.8977  -16.0861   25.2065 C   0  0  0  0  0  0  0  0  0  0  0  0
    8.7318  -17.1257   25.9281 O   0  0  0  0  0  0  0  0  0  0  0  0
   13.6980  -16.1059   25.5943 O   0  0  0  0  0  0  0  0  0  0  0  0
   12.5154  -15.5172   25.1695 C   0  0  0  0  0  0  0  0  0  0  0  0
   11.3064  -16.1391   25.8712 C   0  0  2  0  0  0  0  0  0  0  0  0
   10.1409  -15.4194   25.3939 N   0  0  0  0  0  0  0  0  0  0  0  0
   11.4223  -15.9601   27.3233 C   0  0  0  0  0  0  0  0  0  0  0  0
   10.6126  -15.2173   27.9201 O   0  0  0  0  0  0  0  0  0  0  0  0
   12.4083  -16.5990   28.0352 O   0  0  0  0  0  0  0  0  0  0  0  0
  2  1  1  6
  2  8  1  0
  3  2  1  0
  3  4  1  0
  4  5  1  0
  6  5  1  0
  6  7  1  0
  8  9  2  0
 10  8  1  0
 10 11  1  0
 11 19  1  0
 12 13  1  0
 11 12  1  1
 13 14  2  0
 14 15  1  0
 16 15  2  0
 17 16  1  0
 18 13  1  0
 18 17  2  0
 19 20  2  0
 21 22  1  0
 23 22  1  6
 23 25  1  0
 24 23  1  0
 24 19  1  0
 25 26  2  0
 25 27  1  0
M  END
$$$$
