KFS.pdb
     RDKit          3D

 27 27  0  0  1  0  0  0  0  0999 V2000
    7.7133  -15.8957   19.3092 N   0  0  0  0  0  0  0  0  0  0  0  0
    8.8793  -15.0890   19.4561 C   0  0  1  0  0  0  0  0  0  0  0  0
    8.9007  -13.8288   18.6658 C   0  0  0  0  0  0  0  0  0  0  0  0
    9.0259  -13.9721   17.1924 C   0  0  0  0  0  0  0  0  0  0  0  0
    7.7756  -13.7871   16.4050 C   0  0  0  0  0  0  0  0  0  0  0  0
    8.0514  -13.9649   14.9044 C   0  0  0  0  0  0  0  0  0  0  0  0
    8.0896  -15.3749   14.6322 N   0  0  0  0  0  0  0  0  0  0  0  0
    9.0586  -14.7577   20.9063 C   0  0  0  0  0  0  0  0  0  0  0  0
   10.1290  -14.2317   21.3093 O   0  0  0  0  0  0  0  0  0  0  0  0
    8.0592  -15.0100   21.8864 N   0  0  0  0  0  0  0  0  0  0  0  0
    8.1546  -14.6677   23.2767 C   0  0  1  0  0  0  0  0  0  0  0  0
    7.1344  -13.6816   23.7337 C   0  0  0  0  0  0  0  0  0  0  0  0
    7.1900  -13.2713   25.1156 C   0  0  0  0  0  0  0  0  0  0  0  0
    6.3415  -13.8409   26.0358 C   0  0  0  0  0  0  0  0  0  0  0  0
    6.3733  -13.4613   27.3837 C   0  0  0  0  0  0  0  0  0  0  0  0
    7.2633  -12.5029   27.8110 C   0  0  0  0  0  0  0  0  0  0  0  0
    8.1079  -11.9330   26.9062 C   0  0  0  0  0  0  0  0  0  0  0  0
    8.0636  -12.3173   25.5866 C   0  0  0  0  0  0  0  0  0  0  0  0
    8.2897  -15.8432   24.1673 C   0  0  0  0  0  0  0  0  0  0  0  0
    7.3185  -16.6447   24.3755 O   0  0  0  0  0  0  0  0  0  0  0  0
   11.7500  -17.6239   24.7177 O   0  0  0  0  0  0  0  0  0  0  0  0
   10.5777  -18.2902   25.0455 C   0  0  0  0  0  0  0  0  0  0  0  0
    9.5704  -17.3438   25.7018 C   0  0  2  0  0  0  0  0  0  0  0  0
    9.4943  -16.1721   24.8500 N   0  0  0  0  0  0  0  0  0  0  0  0
   10.0496  -16.9439   27.0301 C   0  0  0  0  0  0  0  0  0  0  0  0
   10.3215  -15.7439   27.2526 O   0  0  0  0  0  0  0  0  0  0  0  0
   10.2022  -17.8710   28.0324 O   0  0  0  0  0  0  0  0  0  0  0  0
  2  1  1  1
  2  8  1  0
  3  2  1  0
  3  4  1  0
  4  5  1  0
  6  5  1  0
  6  7  1  0
  8  9  2  0
 10  8  1  0
 10 11  1  0
 11 19  1  0
 12 13  1  0
 11 12  1  1
 13 14  2  0
 14 15  1  0
 16 15  2  0
 17 16  1  0
 18 13  1  0
 18 17  2  0
 19 20  2  0
 21 22  1  0
 23 22  1  6
 23 25  1  0
 24 23  1  0
 24 19  1  0
 25 26  2  0
 25 27  1  0
M  END
$$$$
