KFS.pdb
     RDKit          3D

 27 27  0  0  1  0  0  0  0  0999 V2000
    8.4486  -17.7718   20.8936 N   0  0  0  0  0  0  0  0  0  0  0  0
    9.7724  -17.3853   21.2543 C   0  0  1  0  0  0  0  0  0  0  0  0
   10.6054  -16.8213   20.1583 C   0  0  0  0  0  0  0  0  0  0  0  0
   10.7108  -17.6350   18.9198 C   0  0  0  0  0  0  0  0  0  0  0  0
   11.6089  -18.8210   18.9865 C   0  0  0  0  0  0  0  0  0  0  0  0
   11.6839  -19.5188   17.6202 C   0  0  0  0  0  0  0  0  0  0  0  0
   12.6295  -20.5945   17.7313 N   0  0  0  0  0  0  0  0  0  0  0  0
    9.6980  -16.3894   22.3714 C   0  0  0  0  0  0  0  0  0  0  0  0
   10.7496  -15.8718   22.8310 O   0  0  0  0  0  0  0  0  0  0  0  0
    8.4706  -15.9808   22.9625 N   0  0  0  0  0  0  0  0  0  0  0  0
    8.3432  -15.0857   24.0770 C   0  0  1  0  0  0  0  0  0  0  0  0
    7.0912  -14.2767   24.0697 C   0  0  0  0  0  0  0  0  0  0  0  0
    6.8702  -13.3981   25.1925 C   0  0  0  0  0  0  0  0  0  0  0  0
    7.5706  -12.2187   25.2899 C   0  0  0  0  0  0  0  0  0  0  0  0
    7.3765  -11.3472   26.3691 C   0  0  0  0  0  0  0  0  0  0  0  0
    6.4728  -11.6620   27.3578 C   0  0  0  0  0  0  0  0  0  0  0  0
    5.7743  -12.8287   27.2696 C   0  0  0  0  0  0  0  0  0  0  0  0
    5.9770  -13.6729   26.2032 C   0  0  0  0  0  0  0  0  0  0  0  0
    8.6361  -15.7210   25.3823 C   0  0  0  0  0  0  0  0  0  0  0  0
    9.2886  -15.1128   26.2952 O   0  0  0  0  0  0  0  0  0  0  0  0
    7.7310  -19.6605   26.0653 O   0  0  0  0  0  0  0  0  0  0  0  0
    7.6143  -18.8340   27.1738 C   0  0  0  0  0  0  0  0  0  0  0  0
    8.4981  -17.5932   27.0323 C   0  0  2  0  0  0  0  0  0  0  0  0
    8.2182  -17.0384   25.7215 N   0  0  0  0  0  0  0  0  0  0  0  0
    9.9136  -17.9749   27.1019 C   0  0  0  0  0  0  0  0  0  0  0  0
   10.6277  -17.8862   26.0795 O   0  0  0  0  0  0  0  0  0  0  0  0
   10.4639  -18.4274   28.2765 O   0  0  0  0  0  0  0  0  0  0  0  0
  2  1  1  6
  2  8  1  0
  3  2  1  0
  3  4  1  0
  4  5  1  0
  6  5  1  0
  6  7  1  0
  8  9  2  0
 10  8  1  0
 10 11  1  0
 11 19  1  0
 12 13  1  0
 11 12  1  1
 13 14  2  0
 14 15  1  0
 16 15  2  0
 17 16  1  0
 18 13  1  0
 18 17  2  0
 19 20  2  0
 21 22  1  0
 23 22  1  6
 23 25  1  0
 24 23  1  0
 24 19  1  0
 25 26  2  0
 25 27  1  0
M  END
$$$$
