EQY.pdb
     RDKit          3D

 31 31  0  0  1  0  0  0  0  0999 V2000
   25.0175  -20.8284   -9.9545 N   0  0  0  0  0  0  0  0  0  0  0  0
   25.2403  -21.6234  -11.1467 C   0  0  1  0  0  0  0  0  0  0  0  0
   24.0072  -22.4614  -11.4288 C   0  0  0  0  0  0  0  0  0  0  0  0
   22.8217  -21.6060  -11.7671 C   0  0  0  0  0  0  0  0  0  0  0  0
   21.9637  -21.4810  -10.5617 C   0  0  0  0  0  0  0  0  0  0  0  0
   22.0648  -20.4959   -9.7904 O   0  0  0  0  0  0  0  0  0  0  0  0
   25.5799  -20.7535  -12.2984 C   0  0  0  0  0  0  0  0  0  0  0  0
   25.2374  -19.5532  -12.2597 O   0  0  0  0  0  0  0  0  0  0  0  0
   21.0232  -22.4516  -10.2520 O   0  0  0  0  0  0  0  0  0  0  0  0
   29.4984  -22.1025  -17.4484 N   0  0  0  0  0  0  0  0  0  0  0  0
   28.8574  -20.8385  -17.6536 C   0  0  0  0  0  0  0  0  0  0  0  0
   29.2008  -20.2096  -18.6757 O   0  0  0  0  0  0  0  0  0  0  0  0
   27.8668  -20.3021  -16.7353 C   0  0  0  0  0  0  0  0  0  0  0  0
   27.5483  -21.0734  -15.5184 C   0  0  0  0  0  0  0  0  0  0  0  0
   26.5825  -20.5040  -14.5533 C   0  0  2  0  0  0  0  0  0  0  0  0
   26.2836  -21.3026  -13.4146 N   0  0  0  0  0  0  0  0  0  0  0  0
   25.3205  -20.0705  -15.2595 C   0  0  0  0  0  0  0  0  0  0  0  0
   24.3995  -20.8937  -15.4933 O   0  0  0  0  0  0  0  0  0  0  0  0
   18.8850  -15.3114  -18.7622 O   0  0  0  0  0  0  0  0  0  0  0  0
   20.0296  -15.7196  -18.0569 C   0  0  0  0  0  0  0  0  0  0  0  0
   19.8698  -16.4992  -16.9244 C   0  0  0  0  0  0  0  0  0  0  0  0
   20.9993  -16.8943  -16.2402 C   0  0  0  0  0  0  0  0  0  0  0  0
   22.2591  -16.5436  -16.6416 C   0  0  0  0  0  0  0  0  0  0  0  0
   23.4384  -16.9842  -15.8862 C   0  0  0  0  0  0  0  0  0  0  0  0
   23.9149  -18.3057  -16.3786 C   0  0  2  0  0  0  0  0  0  0  0  0
   25.1410  -18.7250  -15.6771 N   0  0  0  0  0  0  0  0  0  0  0  0
   24.0729  -18.4350  -17.8316 C   0  0  0  0  0  0  0  0  0  0  0  0
   25.2441  -18.2903  -18.3243 O   0  0  0  0  0  0  0  0  0  0  0  0
   22.4401  -15.7590  -17.7793 C   0  0  0  0  0  0  0  0  0  0  0  0
   21.3015  -15.3720  -18.4522 C   0  0  0  0  0  0  0  0  0  0  0  0
   23.0736  -18.7025  -18.7426 O   0  0  0  0  0  0  0  0  0  0  0  0
  2  3  1  0
  2  1  1  1
  4  3  1  0
  5  4  1  0
  6  5  2  0
  7  2  1  0
  8  7  2  0
  9  5  1  0
 10 11  1  0
 11 12  2  0
 11 13  1  0
 13 14  1  0
 15 14  1  6
 15 16  1  0
 16  7  1  0
 17 15  1  0
 17 18  2  0
 19 20  1  0
 20 21  2  0
 21 22  1  0
 23 22  2  0
 23 24  1  0
 25 24  1  6
 25 26  1  0
 26 17  1  0
 27 25  1  0
 28 27  2  0
 29 23  1  0
 30 20  1  0
 30 29  2  0
 31 27  1  0
M  END
$$$$
