EQY.pdb
     RDKit          3D

 31 31  0  0  1  0  0  0  0  0999 V2000
   28.1894  -20.5123  -17.0722 N   0  0  0  0  0  0  0  0  0  0  0  0
   28.2462  -19.6382  -15.9164 C   0  0  1  0  0  0  0  0  0  0  0  0
   27.2859  -18.4802  -16.1153 C   0  0  0  0  0  0  0  0  0  0  0  0
   27.7729  -17.5319  -17.1712 C   0  0  0  0  0  0  0  0  0  0  0  0
   27.0927  -17.8529  -18.4515 C   0  0  0  0  0  0  0  0  0  0  0  0
   27.7260  -17.8837  -19.5348 O   0  0  0  0  0  0  0  0  0  0  0  0
   27.9383  -20.3912  -14.6767 C   0  0  0  0  0  0  0  0  0  0  0  0
   27.0112  -21.2275  -14.7024 O   0  0  0  0  0  0  0  0  0  0  0  0
   25.7344  -18.1287  -18.4878 O   0  0  0  0  0  0  0  0  0  0  0  0
   31.7384  -21.4144   -9.4209 N   0  0  0  0  0  0  0  0  0  0  0  0
   31.8361  -21.8944  -10.7665 C   0  0  0  0  0  0  0  0  0  0  0  0
   32.8988  -22.4773  -11.0645 O   0  0  0  0  0  0  0  0  0  0  0  0
   30.7731  -21.7189  -11.7420 C   0  0  0  0  0  0  0  0  0  0  0  0
   29.5669  -20.9712  -11.3379 C   0  0  0  0  0  0  0  0  0  0  0  0
   28.4444  -20.8693  -12.2961 C   0  0  2  0  0  0  0  0  0  0  0  0
   28.7010  -20.1452  -13.4934 N   0  0  0  0  0  0  0  0  0  0  0  0
   27.2034  -20.3564  -11.6062 C   0  0  0  0  0  0  0  0  0  0  0  0
   26.9691  -19.1232  -11.5376 O   0  0  0  0  0  0  0  0  0  0  0  0
   21.0726  -18.0588  -14.5251 O   0  0  0  0  0  0  0  0  0  0  0  0
   21.7696  -18.9089  -13.6500 C   0  0  0  0  0  0  0  0  0  0  0  0
   21.5025  -18.8309  -12.2942 C   0  0  0  0  0  0  0  0  0  0  0  0
   22.1916  -19.6694  -11.4445 C   0  0  0  0  0  0  0  0  0  0  0  0
   23.1210  -20.5663  -11.8952 C   0  0  0  0  0  0  0  0  0  0  0  0
   23.8347  -21.4433  -10.9588 C   0  0  0  0  0  0  0  0  0  0  0  0
   25.0292  -20.7539  -10.3988 C   0  0  2  0  0  0  0  0  0  0  0  0
   26.2704  -21.2512  -11.0181 N   0  0  0  0  0  0  0  0  0  0  0  0
   25.1421  -20.7431   -8.9359 C   0  0  0  0  0  0  0  0  0  0  0  0
   26.1618  -21.3053   -8.4073 O   0  0  0  0  0  0  0  0  0  0  0  0
   23.4037  -20.6594  -13.2569 C   0  0  0  0  0  0  0  0  0  0  0  0
   22.7067  -19.8146  -14.0932 C   0  0  0  0  0  0  0  0  0  0  0  0
   24.2487  -20.1790   -8.0506 O   0  0  0  0  0  0  0  0  0  0  0  0
  2  3  1  0
  2  1  1  6
  4  3  1  0
  5  4  1  0
  6  5  2  0
  7  2  1  0
  8  7  2  0
  9  5  1  0
 10 11  1  0
 11 12  2  0
 11 13  1  0
 13 14  1  0
 15 14  1  1
 15 16  1  0
 16  7  1  0
 17 15  1  0
 17 18  2  0
 19 20  1  0
 20 21  2  0
 21 22  1  0
 23 22  2  0
 23 24  1  0
 25 24  1  1
 25 26  1  0
 26 17  1  0
 27 25  1  0
 28 27  2  0
 29 23  1  0
 30 20  1  0
 30 29  2  0
 31 27  1  0
M  END
$$$$
