EQY.pdb
     RDKit          3D

 31 31  0  0  1  0  0  0  0  0999 V2000
   18.0824  -14.4331  -16.3875 N   0  0  0  0  0  0  0  0  0  0  0  0
   17.5368  -13.0958  -16.5175 C   0  0  1  0  0  0  0  0  0  0  0  0
   16.5143  -12.8622  -15.4210 C   0  0  0  0  0  0  0  0  0  0  0  0
   15.3037  -13.7309  -15.5982 C   0  0  0  0  0  0  0  0  0  0  0  0
   14.3732  -13.4895  -14.4665 C   0  0  0  0  0  0  0  0  0  0  0  0
   13.3788  -12.7339  -14.5916 O   0  0  0  0  0  0  0  0  0  0  0  0
   18.6195  -12.0837  -16.4739 C   0  0  0  0  0  0  0  0  0  0  0  0
   19.6041  -12.2960  -15.7356 O   0  0  0  0  0  0  0  0  0  0  0  0
   14.5762  -14.0934  -13.2350 O   0  0  0  0  0  0  0  0  0  0  0  0
   20.0908   -7.6936  -21.0726 N   0  0  0  0  0  0  0  0  0  0  0  0
   21.0060   -7.5490  -19.9808 C   0  0  0  0  0  0  0  0  0  0  0  0
   21.9567   -6.7609  -20.1636 O   0  0  0  0  0  0  0  0  0  0  0  0
   20.8554   -8.2713  -18.7287 C   0  0  0  0  0  0  0  0  0  0  0  0
   19.7332   -9.2204  -18.5973 C   0  0  0  0  0  0  0  0  0  0  0  0
   19.5793   -9.9613  -17.3262 C   0  0  2  0  0  0  0  0  0  0  0  0
   18.5127  -10.9009  -17.2690 N   0  0  0  0  0  0  0  0  0  0  0  0
   19.5249   -9.0056  -16.1588 C   0  0  0  0  0  0  0  0  0  0  0  0
   18.4263   -8.5485  -15.7529 O   0  0  0  0  0  0  0  0  0  0  0  0
   26.5259   -9.4578  -15.8617 O   0  0  0  0  0  0  0  0  0  0  0  0
   25.3247   -9.0799  -15.2384 C   0  0  0  0  0  0  0  0  0  0  0  0
   24.9184   -7.7594  -15.3234 C   0  0  0  0  0  0  0  0  0  0  0  0
   23.7385   -7.3994  -14.7085 C   0  0  0  0  0  0  0  0  0  0  0  0
   22.9653   -8.2971  -14.0246 C   0  0  0  0  0  0  0  0  0  0  0  0
   21.7141   -7.8754  -13.3828 C   0  0  0  0  0  0  0  0  0  0  0  0
   20.6646   -7.6051  -14.4031 C   0  0  2  0  0  0  0  0  0  0  0  0
   20.7100   -8.5987  -15.4903 N   0  0  0  0  0  0  0  0  0  0  0  0
   20.6238   -6.2410  -14.9422 C   0  0  0  0  0  0  0  0  0  0  0  0
   20.3806   -5.2815  -14.1326 O   0  0  0  0  0  0  0  0  0  0  0  0
   23.3578   -9.6310  -13.9280 C   0  0  0  0  0  0  0  0  0  0  0  0
   24.5396   -9.9751  -14.5478 C   0  0  0  0  0  0  0  0  0  0  0  0
   20.8251   -5.8741  -16.2557 O   0  0  0  0  0  0  0  0  0  0  0  0
  2  3  1  0
  2  1  1  1
  4  3  1  0
  5  4  1  0
  6  5  2  0
  7  2  1  0
  8  7  2  0
  9  5  1  0
 10 11  1  0
 11 12  2  0
 11 13  1  0
 13 14  1  0
 15 14  1  6
 15 16  1  0
 16  7  1  0
 17 15  1  0
 17 18  2  0
 19 20  1  0
 20 21  2  0
 21 22  1  0
 23 22  2  0
 23 24  1  0
 25 24  1  1
 25 26  1  0
 26 17  1  0
 27 25  1  0
 28 27  2  0
 29 23  1  0
 30 20  1  0
 30 29  2  0
 31 27  1  0
M  END
$$$$
