EQY.pdb
     RDKit          3D

 31 31  0  0  1  0  0  0  0  0999 V2000
   27.8219  -18.7209  -18.0772 N   0  0  0  0  0  0  0  0  0  0  0  0
   26.8827  -19.7766  -17.7511 C   0  0  1  0  0  0  0  0  0  0  0  0
   27.6486  -21.0357  -17.3895 C   0  0  0  0  0  0  0  0  0  0  0  0
   28.4138  -21.5747  -18.5623 C   0  0  0  0  0  0  0  0  0  0  0  0
   29.1202  -22.8118  -18.1435 C   0  0  0  0  0  0  0  0  0  0  0  0
   30.3378  -22.7944  -17.8391 O   0  0  0  0  0  0  0  0  0  0  0  0
   25.9836  -19.3539  -16.6504 C   0  0  0  0  0  0  0  0  0  0  0  0
   26.4947  -18.9131  -15.5997 O   0  0  0  0  0  0  0  0  0  0  0  0
   28.4536  -24.0257  -18.0763 O   0  0  0  0  0  0  0  0  0  0  0  0
   21.8880  -16.2365  -17.9083 N   0  0  0  0  0  0  0  0  0  0  0  0
   21.9857  -16.0231  -16.4957 C   0  0  0  0  0  0  0  0  0  0  0  0
   21.8548  -14.8434  -16.1093 O   0  0  0  0  0  0  0  0  0  0  0  0
   22.2265  -17.1030  -15.5532 C   0  0  0  0  0  0  0  0  0  0  0  0
   22.4344  -18.4639  -16.0841 C   0  0  0  0  0  0  0  0  0  0  0  0
   23.6845  -19.1747  -15.7372 C   0  0  2  0  0  0  0  0  0  0  0  0
   24.5679  -19.4597  -16.8152 N   0  0  0  0  0  0  0  0  0  0  0  0
   23.3823  -20.4196  -14.9385 C   0  0  0  0  0  0  0  0  0  0  0  0
   23.0942  -21.4991  -15.5150 O   0  0  0  0  0  0  0  0  0  0  0  0
   26.1697  -19.0425   -7.8622 O   0  0  0  0  0  0  0  0  0  0  0  0
   25.7141  -19.8259   -8.9360 C   0  0  0  0  0  0  0  0  0  0  0  0
   24.6602  -20.6975   -8.7228 C   0  0  0  0  0  0  0  0  0  0  0  0
   24.2209  -21.4610   -9.7829 C   0  0  0  0  0  0  0  0  0  0  0  0
   24.7882  -21.3846  -11.0254 C   0  0  0  0  0  0  0  0  0  0  0  0
   24.2921  -22.2144  -12.1302 C   0  0  0  0  0  0  0  0  0  0  0  0
   23.0767  -21.6078  -12.7390 C   0  0  2  0  0  0  0  0  0  0  0  0
   23.4155  -20.4042  -13.5188 N   0  0  0  0  0  0  0  0  0  0  0  0
   21.9602  -21.3420  -11.8248 C   0  0  0  0  0  0  0  0  0  0  0  0
   21.3394  -22.3429  -11.3268 O   0  0  0  0  0  0  0  0  0  0  0  0
   25.8503  -20.5129  -11.2594 C   0  0  0  0  0  0  0  0  0  0  0  0
   26.2779  -19.7566  -10.1898 C   0  0  0  0  0  0  0  0  0  0  0  0
   21.4990  -20.1027  -11.4355 O   0  0  0  0  0  0  0  0  0  0  0  0
  2  3  1  0
  2  1  1  1
  4  3  1  0
  5  4  1  0
  6  5  2  0
  7  2  1  0
  8  7  2  0
  9  5  1  0
 10 11  1  0
 11 12  2  0
 11 13  1  0
 13 14  1  0
 15 14  1  6
 15 16  1  0
 16  7  1  0
 17 15  1  0
 17 18  2  0
 19 20  1  0
 20 21  2  0
 21 22  1  0
 23 22  2  0
 23 24  1  0
 25 24  1  1
 25 26  1  0
 26 17  1  0
 27 25  1  0
 28 27  2  0
 29 23  1  0
 30 20  1  0
 30 29  2  0
 31 27  1  0
M  END
$$$$
