EQY.pdb
     RDKit          3D

 31 31  0  0  1  0  0  0  0  0999 V2000
   21.8419  -12.9779  -16.9967 N   0  0  0  0  0  0  0  0  0  0  0  0
   21.8919  -12.0383  -18.1002 C   0  0  1  0  0  0  0  0  0  0  0  0
   21.1260  -12.6083  -19.2797 C   0  0  0  0  0  0  0  0  0  0  0  0
   21.6297  -13.9692  -19.6618 C   0  0  0  0  0  0  0  0  0  0  0  0
   20.7837  -14.9944  -19.0000 C   0  0  0  0  0  0  0  0  0  0  0  0
   19.5324  -14.8961  -18.9875 O   0  0  0  0  0  0  0  0  0  0  0  0
   21.3515  -10.7203  -17.6887 C   0  0  0  0  0  0  0  0  0  0  0  0
   21.5512   -9.7364  -18.4314 O   0  0  0  0  0  0  0  0  0  0  0  0
   21.3528  -16.0933  -18.3747 O   0  0  0  0  0  0  0  0  0  0  0  0
   16.1520   -9.3763  -14.0643 N   0  0  0  0  0  0  0  0  0  0  0  0
   16.9367   -8.1818  -14.1533 C   0  0  0  0  0  0  0  0  0  0  0  0
   16.4255   -7.1527  -13.6657 O   0  0  0  0  0  0  0  0  0  0  0  0
   18.2503   -8.1496  -14.7744 C   0  0  0  0  0  0  0  0  0  0  0  0
   18.7952   -9.4042  -15.3280 C   0  0  0  0  0  0  0  0  0  0  0  0
   20.0871   -9.3570  -16.0471 C   0  0  2  0  0  0  0  0  0  0  0  0
   20.6224  -10.6072  -16.4647 N   0  0  0  0  0  0  0  0  0  0  0  0
   21.1037   -8.5664  -15.2594 C   0  0  0  0  0  0  0  0  0  0  0  0
   21.9516   -9.1491  -14.5367 O   0  0  0  0  0  0  0  0  0  0  0  0
   22.1802   -2.3948  -19.4870 O   0  0  0  0  0  0  0  0  0  0  0  0
   22.4702   -3.3392  -18.4879 C   0  0  0  0  0  0  0  0  0  0  0  0
   22.7206   -2.8914  -17.2024 C   0  0  0  0  0  0  0  0  0  0  0  0
   23.0038   -3.8262  -16.2299 C   0  0  0  0  0  0  0  0  0  0  0  0
   23.0445   -5.1679  -16.4933 C   0  0  0  0  0  0  0  0  0  0  0  0
   23.3497   -6.1334  -15.4303 C   0  0  0  0  0  0  0  0  0  0  0  0
   22.1512   -6.3785  -14.5822 C   0  0  2  0  0  0  0  0  0  0  0  0
   21.1290   -7.1475  -15.3138 N   0  0  0  0  0  0  0  0  0  0  0  0
   21.5597   -5.1975  -13.9431 C   0  0  0  0  0  0  0  0  0  0  0  0
   20.3398   -4.9187  -14.2067 O   0  0  0  0  0  0  0  0  0  0  0  0
   22.7952   -5.6380  -17.7815 C   0  0  0  0  0  0  0  0  0  0  0  0
   22.5137   -4.6913  -18.7425 C   0  0  0  0  0  0  0  0  0  0  0  0
   22.1905   -4.3381  -13.0692 O   0  0  0  0  0  0  0  0  0  0  0  0
  2  3  1  0
  2  1  1  1
  4  3  1  0
  5  4  1  0
  6  5  2  0
  7  2  1  0
  8  7  2  0
  9  5  1  0
 10 11  1  0
 11 12  2  0
 11 13  1  0
 13 14  1  0
 15 14  1  1
 15 16  1  0
 16  7  1  0
 17 15  1  0
 17 18  2  0
 19 20  1  0
 20 21  2  0
 21 22  1  0
 23 22  2  0
 23 24  1  0
 25 24  1  6
 25 26  1  0
 26 17  1  0
 27 25  1  0
 28 27  2  0
 29 23  1  0
 30 20  1  0
 30 29  2  0
 31 27  1  0
M  END
$$$$
