EQY.pdb
     RDKit          3D

 31 31  0  0  1  0  0  0  0  0999 V2000
   17.4164  -12.7086  -19.0785 N   0  0  0  0  0  0  0  0  0  0  0  0
   16.5079  -11.8252  -18.3733 C   0  0  1  0  0  0  0  0  0  0  0  0
   16.1311  -12.4505  -17.0431 C   0  0  0  0  0  0  0  0  0  0  0  0
   16.5360  -13.8938  -16.9750 C   0  0  0  0  0  0  0  0  0  0  0  0
   16.1883  -14.4243  -15.6324 C   0  0  0  0  0  0  0  0  0  0  0  0
   15.6316  -13.7006  -14.7711 O   0  0  0  0  0  0  0  0  0  0  0  0
   17.1187  -10.4867  -18.1896 C   0  0  0  0  0  0  0  0  0  0  0  0
   18.3557  -10.3736  -18.3182 O   0  0  0  0  0  0  0  0  0  0  0  0
   16.4691  -15.7382  -15.2901 O   0  0  0  0  0  0  0  0  0  0  0  0
   16.1022   -4.7990  -15.9696 N   0  0  0  0  0  0  0  0  0  0  0  0
   14.9486   -5.6455  -16.0251 C   0  0  0  0  0  0  0  0  0  0  0  0
   14.0512   -5.4040  -15.1918 O   0  0  0  0  0  0  0  0  0  0  0  0
   14.8147   -6.7286  -16.9850 C   0  0  0  0  0  0  0  0  0  0  0  0
   15.8987   -6.9356  -17.9644 C   0  0  0  0  0  0  0  0  0  0  0  0
   16.8354   -8.0612  -17.7545 C   0  0  2  0  0  0  0  0  0  0  0  0
   16.2869   -9.3685  -17.8727 N   0  0  0  0  0  0  0  0  0  0  0  0
   17.5757   -7.8984  -16.4490 C   0  0  0  0  0  0  0  0  0  0  0  0
   17.3128   -8.6350  -15.4646 O   0  0  0  0  0  0  0  0  0  0  0  0
   23.0392   -7.2168   -9.9424 O   0  0  0  0  0  0  0  0  0  0  0  0
   22.3917   -7.3403  -11.1832 C   0  0  0  0  0  0  0  0  0  0  0  0
   21.3509   -8.2449  -11.3029 C   0  0  0  0  0  0  0  0  0  0  0  0
   20.7225   -8.3579  -12.5244 C   0  0  0  0  0  0  0  0  0  0  0  0
   21.0917   -7.6118  -13.6099 C   0  0  0  0  0  0  0  0  0  0  0  0
   20.3976   -7.7604  -14.8951 C   0  0  0  0  0  0  0  0  0  0  0  0
   19.3086   -6.7538  -15.0243 C   0  0  2  0  0  0  0  0  0  0  0  0
   18.5858   -6.9115  -16.2987 N   0  0  0  0  0  0  0  0  0  0  0  0
   19.6940   -5.3542  -14.8109 C   0  0  0  0  0  0  0  0  0  0  0  0
   19.9907   -4.6493  -15.8357 O   0  0  0  0  0  0  0  0  0  0  0  0
   22.1373   -6.6957  -13.5090 C   0  0  0  0  0  0  0  0  0  0  0  0
   22.7555   -6.5944  -12.2815 C   0  0  0  0  0  0  0  0  0  0  0  0
   19.7712   -4.7027  -13.5985 O   0  0  0  0  0  0  0  0  0  0  0  0
  2  3  1  0
  2  1  1  1
  4  3  1  0
  5  4  1  0
  6  5  2  0
  7  2  1  0
  8  7  2  0
  9  5  1  0
 10 11  1  0
 11 12  2  0
 11 13  1  0
 13 14  1  0
 15 14  1  1
 15 16  1  0
 16  7  1  0
 17 15  1  0
 17 18  2  0
 19 20  1  0
 20 21  2  0
 21 22  1  0
 23 22  2  0
 23 24  1  0
 25 24  1  6
 25 26  1  0
 26 17  1  0
 27 25  1  0
 28 27  2  0
 29 23  1  0
 30 20  1  0
 30 29  2  0
 31 27  1  0
M  END
$$$$
