EQY.pdb
     RDKit          3D

 31 31  0  0  1  0  0  0  0  0999 V2000
   25.9401  -17.9996  -15.4393 N   0  0  0  0  0  0  0  0  0  0  0  0
   24.6030  -18.0236  -14.8784 C   0  0  1  0  0  0  0  0  0  0  0  0
   23.5866  -17.9021  -15.9985 C   0  0  0  0  0  0  0  0  0  0  0  0
   24.2274  -18.0532  -17.3469 C   0  0  0  0  0  0  0  0  0  0  0  0
   24.3208  -19.4991  -17.6717 C   0  0  0  0  0  0  0  0  0  0  0  0
   23.2905  -20.1976  -17.8327 O   0  0  0  0  0  0  0  0  0  0  0  0
   24.3914  -19.2587  -14.0858 C   0  0  0  0  0  0  0  0  0  0  0  0
   23.2692  -19.4527  -13.5734 O   0  0  0  0  0  0  0  0  0  0  0  0
   25.5524  -20.1214  -17.8071 O   0  0  0  0  0  0  0  0  0  0  0  0
   26.3214  -25.1074  -15.3262 N   0  0  0  0  0  0  0  0  0  0  0  0
   25.3580  -24.1875  -15.8516 C   0  0  0  0  0  0  0  0  0  0  0  0
   24.8299  -24.5073  -16.9365 O   0  0  0  0  0  0  0  0  0  0  0  0
   25.0062  -22.9486  -15.1780 C   0  0  0  0  0  0  0  0  0  0  0  0
   25.6489  -22.6468  -13.8844 C   0  0  0  0  0  0  0  0  0  0  0  0
   25.2854  -21.3920  -13.1904 C   0  0  2  0  0  0  0  0  0  0  0  0
   25.4650  -20.1887  -13.9277 N   0  0  0  0  0  0  0  0  0  0  0  0
   25.9681  -21.3128  -11.8462 C   0  0  0  0  0  0  0  0  0  0  0  0
   27.2107  -21.4751  -11.7457 O   0  0  0  0  0  0  0  0  0  0  0  0
   29.3876  -19.6439   -4.2639 O   0  0  0  0  0  0  0  0  0  0  0  0
   28.8384  -19.7926   -5.5485 C   0  0  0  0  0  0  0  0  0  0  0  0
   27.7518  -19.0112   -5.9015 C   0  0  0  0  0  0  0  0  0  0  0  0
   27.2209  -19.1649   -7.1642 C   0  0  0  0  0  0  0  0  0  0  0  0
   27.7293  -20.0560   -8.0691 C   0  0  0  0  0  0  0  0  0  0  0  0
   27.1363  -20.1909   -9.4053 C   0  0  0  0  0  0  0  0  0  0  0  0
   25.8897  -21.0025   -9.3481 C   0  0  2  0  0  0  0  0  0  0  0  0
   25.2266  -21.0537  -10.6630 N   0  0  0  0  0  0  0  0  0  0  0  0
   24.9341  -20.6451   -8.2936 C   0  0  0  0  0  0  0  0  0  0  0  0
   23.9660  -19.8671   -8.5979 O   0  0  0  0  0  0  0  0  0  0  0  0
   28.8230  -20.8516   -7.7320 C   0  0  0  0  0  0  0  0  0  0  0  0
   29.3422  -20.6863   -6.4663 C   0  0  0  0  0  0  0  0  0  0  0  0
   24.9674  -21.0679   -6.9820 O   0  0  0  0  0  0  0  0  0  0  0  0
  2  3  1  0
  2  1  1  6
  4  3  1  0
  5  4  1  0
  6  5  2  0
  7  2  1  0
  8  7  2  0
  9  5  1  0
 10 11  1  0
 11 12  2  0
 11 13  1  0
 13 14  1  0
 15 14  1  6
 15 16  1  0
 16  7  1  0
 17 15  1  0
 17 18  2  0
 19 20  1  0
 20 21  2  0
 21 22  1  0
 23 22  2  0
 23 24  1  0
 25 24  1  6
 25 26  1  0
 26 17  1  0
 27 25  1  0
 28 27  2  0
 29 23  1  0
 30 20  1  0
 30 29  2  0
 31 27  1  0
M  END
$$$$
