EQY.pdb
     RDKit          3D

 31 31  0  0  1  0  0  0  0  0999 V2000
   19.8749  -13.6798  -20.2280 N   0  0  0  0  0  0  0  0  0  0  0  0
   20.4569  -12.8255  -19.2108 C   0  0  1  0  0  0  0  0  0  0  0  0
   21.5600  -11.9876  -19.8302 C   0  0  0  0  0  0  0  0  0  0  0  0
   22.7533  -12.8224  -20.1915 C   0  0  0  0  0  0  0  0  0  0  0  0
   23.5917  -13.0064  -18.9798 C   0  0  0  0  0  0  0  0  0  0  0  0
   23.9119  -14.1516  -18.5779 O   0  0  0  0  0  0  0  0  0  0  0  0
   19.4160  -11.9748  -18.5853 C   0  0  0  0  0  0  0  0  0  0  0  0
   18.5912  -11.4006  -19.3267 O   0  0  0  0  0  0  0  0  0  0  0  0
   24.0466  -11.9155  -18.2549 O   0  0  0  0  0  0  0  0  0  0  0  0
   15.5844  -12.6797  -13.6778 N   0  0  0  0  0  0  0  0  0  0  0  0
   15.5394  -13.0078  -15.0710 C   0  0  0  0  0  0  0  0  0  0  0  0
   14.6223  -13.7779  -15.4232 O   0  0  0  0  0  0  0  0  0  0  0  0
   16.4980  -12.4877  -16.0316 C   0  0  0  0  0  0  0  0  0  0  0  0
   17.5360  -11.5550  -15.5519 C   0  0  0  0  0  0  0  0  0  0  0  0
   18.4546  -10.9503  -16.5413 C   0  0  2  0  0  0  0  0  0  0  0  0
   19.3807  -11.8327  -17.1637 N   0  0  0  0  0  0  0  0  0  0  0  0
   19.1584   -9.7534  -15.9487 C   0  0  0  0  0  0  0  0  0  0  0  0
   20.3334   -9.8497  -15.5120 O   0  0  0  0  0  0  0  0  0  0  0  0
   23.0303   -2.2875  -14.6775 O   0  0  0  0  0  0  0  0  0  0  0  0
   22.4103   -3.5017  -15.0176 C   0  0  0  0  0  0  0  0  0  0  0  0
   21.9808   -3.6866  -16.3204 C   0  0  0  0  0  0  0  0  0  0  0  0
   21.3740   -4.8813  -16.6435 C   0  0  0  0  0  0  0  0  0  0  0  0
   21.1855   -5.8787  -15.7263 C   0  0  0  0  0  0  0  0  0  0  0  0
   20.5350   -7.1380  -16.1088 C   0  0  0  0  0  0  0  0  0  0  0  0
   19.2377   -7.2975  -15.3965 C   0  0  2  0  0  0  0  0  0  0  0  0
   18.5135   -8.4906  -15.8691 N   0  0  0  0  0  0  0  0  0  0  0  0
   18.3588   -6.1225  -15.3842 C   0  0  0  0  0  0  0  0  0  0  0  0
   18.4367   -5.3238  -14.3887 O   0  0  0  0  0  0  0  0  0  0  0  0
   21.6112   -5.7110  -14.4098 C   0  0  0  0  0  0  0  0  0  0  0  0
   22.2157   -4.5114  -14.1025 C   0  0  0  0  0  0  0  0  0  0  0  0
   17.4391   -5.7788  -16.3518 O   0  0  0  0  0  0  0  0  0  0  0  0
  2  3  1  0
  2  1  1  6
  4  3  1  0
  5  4  1  0
  6  5  2  0
  7  2  1  0
  8  7  2  0
  9  5  1  0
 10 11  1  0
 11 12  2  0
 11 13  1  0
 13 14  1  0
 15 14  1  1
 15 16  1  0
 16  7  1  0
 17 15  1  0
 17 18  2  0
 19 20  1  0
 20 21  2  0
 21 22  1  0
 23 22  2  0
 23 24  1  0
 25 24  1  6
 25 26  1  0
 26 17  1  0
 27 25  1  0
 28 27  2  0
 29 23  1  0
 30 20  1  0
 30 29  2  0
 31 27  1  0
M  END
$$$$
