EQY.pdb
     RDKit          3D

 31 31  0  0  1  0  0  0  0  0999 V2000
   34.3965  -32.7136  -16.8640 N   0  0  0  0  0  0  0  0  0  0  0  0
   33.7068  -31.7304  -17.6768 C   0  0  1  0  0  0  0  0  0  0  0  0
   34.1108  -31.9071  -19.1287 C   0  0  0  0  0  0  0  0  0  0  0  0
   35.5363  -31.5000  -19.3605 C   0  0  0  0  0  0  0  0  0  0  0  0
   35.5552  -30.1237  -19.9176 C   0  0  0  0  0  0  0  0  0  0  0  0
   36.2590  -29.2221  -19.4005 O   0  0  0  0  0  0  0  0  0  0  0  0
   32.2388  -31.8476  -17.5044 C   0  0  0  0  0  0  0  0  0  0  0  0
   31.7722  -32.9290  -17.0890 O   0  0  0  0  0  0  0  0  0  0  0  0
   34.7939  -29.7935  -21.0283 O   0  0  0  0  0  0  0  0  0  0  0  0
   28.1847  -27.5040  -15.5477 N   0  0  0  0  0  0  0  0  0  0  0  0
   27.4778  -28.7476  -15.6127 C   0  0  0  0  0  0  0  0  0  0  0  0
   26.2805  -28.7164  -15.2611 O   0  0  0  0  0  0  0  0  0  0  0  0
   28.1017  -29.9834  -16.0552 C   0  0  0  0  0  0  0  0  0  0  0  0
   29.5374  -29.9615  -16.3955 C   0  0  0  0  0  0  0  0  0  0  0  0
   30.0045  -30.7712  -17.5420 C   0  0  2  0  0  0  0  0  0  0  0  0
   31.4002  -30.7326  -17.8143 N   0  0  0  0  0  0  0  0  0  0  0  0
   29.2004  -30.4518  -18.7791 C   0  0  0  0  0  0  0  0  0  0  0  0
   29.6177  -29.6143  -19.6187 O   0  0  0  0  0  0  0  0  0  0  0  0
   25.1332  -28.4654  -25.7580 O   0  0  0  0  0  0  0  0  0  0  0  0
   25.8258  -29.0413  -24.6796 C   0  0  0  0  0  0  0  0  0  0  0  0
   27.1294  -28.6437  -24.4383 C   0  0  0  0  0  0  0  0  0  0  0  0
   27.7995  -29.2148  -23.3778 C   0  0  0  0  0  0  0  0  0  0  0  0
   27.2221  -30.1520  -22.5656 C   0  0  0  0  0  0  0  0  0  0  0  0
   27.9685  -30.7375  -21.4451 C   0  0  0  0  0  0  0  0  0  0  0  0
   27.1442  -30.7352  -20.2056 C   0  0  2  0  0  0  0  0  0  0  0  0
   27.9545  -31.0873  -19.0263 N   0  0  0  0  0  0  0  0  0  0  0  0
   25.9106  -31.5284  -20.2487 C   0  0  0  0  0  0  0  0  0  0  0  0
   25.0955  -31.3208  -21.2120 O   0  0  0  0  0  0  0  0  0  0  0  0
   25.9105  -30.5651  -22.7928 C   0  0  0  0  0  0  0  0  0  0  0  0
   25.2541  -29.9851  -23.8566 C   0  0  0  0  0  0  0  0  0  0  0  0
   25.5276  -32.4952  -19.3438 O   0  0  0  0  0  0  0  0  0  0  0  0
  2  3  1  0
  2  1  1  1
  4  3  1  0
  5  4  1  0
  6  5  2  0
  7  2  1  0
  8  7  2  0
  9  5  1  0
 10 11  1  0
 11 12  2  0
 11 13  1  0
 13 14  1  0
 15 14  1  1
 15 16  1  0
 16  7  1  0
 17 15  1  0
 17 18  2  0
 19 20  1  0
 20 21  2  0
 21 22  1  0
 23 22  2  0
 23 24  1  0
 25 24  1  6
 25 26  1  0
 26 17  1  0
 27 25  1  0
 28 27  2  0
 29 23  1  0
 30 20  1  0
 30 29  2  0
 31 27  1  0
M  END
$$$$
