EQY.pdb
     RDKit          3D

 31 31  0  0  1  0  0  0  0  0999 V2000
   25.6127  -14.3824  -16.4774 N   0  0  0  0  0  0  0  0  0  0  0  0
   24.7036  -13.3244  -16.8739 C   0  0  1  0  0  0  0  0  0  0  0  0
   23.3249  -13.6088  -16.3075 C   0  0  0  0  0  0  0  0  0  0  0  0
   23.1461  -15.0643  -15.9895 C   0  0  0  0  0  0  0  0  0  0  0  0
   22.7398  -15.7769  -17.2272 C   0  0  0  0  0  0  0  0  0  0  0  0
   22.7395  -15.1981  -18.3409 O   0  0  0  0  0  0  0  0  0  0  0  0
   25.2116  -12.0049  -16.4273 C   0  0  0  0  0  0  0  0  0  0  0  0
   25.2980  -11.7837  -15.2013 O   0  0  0  0  0  0  0  0  0  0  0  0
   22.3477  -17.1063  -17.1886 O   0  0  0  0  0  0  0  0  0  0  0  0
   29.8770   -8.2642  -17.3651 N   0  0  0  0  0  0  0  0  0  0  0  0
   29.5685   -9.5337  -17.9513 C   0  0  0  0  0  0  0  0  0  0  0  0
   30.5456  -10.2447  -18.2642 O   0  0  0  0  0  0  0  0  0  0  0  0
   28.2053   -9.9827  -18.1798 C   0  0  0  0  0  0  0  0  0  0  0  0
   27.0974   -9.1098  -17.7463 C   0  0  0  0  0  0  0  0  0  0  0  0
   25.9694   -9.7149  -17.0047 C   0  0  2  0  0  0  0  0  0  0  0  0
   25.5866  -11.0268  -17.3996 N   0  0  0  0  0  0  0  0  0  0  0  0
   24.7820   -8.7827  -16.9929 C   0  0  0  0  0  0  0  0  0  0  0  0
   24.3596   -8.2661  -18.0584 O   0  0  0  0  0  0  0  0  0  0  0  0
   16.3748   -8.0614  -16.3855 O   0  0  0  0  0  0  0  0  0  0  0  0
   17.7554   -8.3189  -16.4318 C   0  0  0  0  0  0  0  0  0  0  0  0
   18.1978   -9.6128  -16.2177 C   0  0  0  0  0  0  0  0  0  0  0  0
   19.5539   -9.8545  -16.2656 C   0  0  0  0  0  0  0  0  0  0  0  0
   20.4658   -8.8658  -16.5155 C   0  0  0  0  0  0  0  0  0  0  0  0
   21.9029   -9.1625  -16.5588 C   0  0  0  0  0  0  0  0  0  0  0  0
   22.6707   -8.1621  -15.7681 C   0  0  2  0  0  0  0  0  0  0  0  0
   24.1126   -8.4656  -15.7812 N   0  0  0  0  0  0  0  0  0  0  0  0
   22.1992   -7.9206  -14.3997 C   0  0  0  0  0  0  0  0  0  0  0  0
   21.5087   -6.8672  -14.1788 O   0  0  0  0  0  0  0  0  0  0  0  0
   20.0395   -7.5568  -16.7335 C   0  0  0  0  0  0  0  0  0  0  0  0
   18.6810   -7.3313  -16.6823 C   0  0  0  0  0  0  0  0  0  0  0  0
   22.4241   -8.7249  -13.3031 O   0  0  0  0  0  0  0  0  0  0  0  0
  2  3  1  0
  2  1  1  1
  4  3  1  0
  5  4  1  0
  6  5  2  0
  7  2  1  0
  8  7  2  0
  9  5  1  0
 10 11  1  0
 11 12  2  0
 11 13  1  0
 13 14  1  0
 15 14  1  6
 15 16  1  0
 16  7  1  0
 17 15  1  0
 17 18  2  0
 19 20  1  0
 20 21  2  0
 21 22  1  0
 23 22  2  0
 23 24  1  0
 25 24  1  1
 25 26  1  0
 26 17  1  0
 27 25  1  0
 28 27  2  0
 29 23  1  0
 30 20  1  0
 30 29  2  0
 31 27  1  0
M  END
$$$$
