EQY.pdb
     RDKit          3D

 31 31  0  0  1  0  0  0  0  0999 V2000
   23.3246  -17.8331  -19.4357 N   0  0  0  0  0  0  0  0  0  0  0  0
   23.9814  -18.0206  -18.1564 C   0  0  1  0  0  0  0  0  0  0  0  0
   23.8733  -16.7431  -17.3447 C   0  0  0  0  0  0  0  0  0  0  0  0
   22.4455  -16.4060  -17.0298 C   0  0  0  0  0  0  0  0  0  0  0  0
   22.4102  -15.1146  -16.2976 C   0  0  0  0  0  0  0  0  0  0  0  0
   23.4597  -14.4615  -16.0795 O   0  0  0  0  0  0  0  0  0  0  0  0
   23.3949  -19.1742  -17.4326 C   0  0  0  0  0  0  0  0  0  0  0  0
   22.1834  -19.4279  -17.5982 O   0  0  0  0  0  0  0  0  0  0  0  0
   21.2136  -14.5912  -15.8322 O   0  0  0  0  0  0  0  0  0  0  0  0
   26.2577  -24.7201  -15.9134 N   0  0  0  0  0  0  0  0  0  0  0  0
   24.9624  -24.7196  -15.3028 C   0  0  0  0  0  0  0  0  0  0  0  0
   24.6097  -25.7896  -14.7653 O   0  0  0  0  0  0  0  0  0  0  0  0
   24.0947  -23.5537  -15.3026 C   0  0  0  0  0  0  0  0  0  0  0  0
   24.5943  -22.3076  -15.9147 C   0  0  0  0  0  0  0  0  0  0  0  0
   23.7080  -21.1232  -15.9308 C   0  0  2  0  0  0  0  0  0  0  0  0
   24.2205  -19.9607  -16.5710 N   0  0  0  0  0  0  0  0  0  0  0  0
   23.2214  -20.8064  -14.5373 C   0  0  0  0  0  0  0  0  0  0  0  0
   23.9736  -20.2343  -13.7082 O   0  0  0  0  0  0  0  0  0  0  0  0
   17.5729  -16.0742  -14.3974 O   0  0  0  0  0  0  0  0  0  0  0  0
   18.5994  -16.9089  -13.9243 C   0  0  0  0  0  0  0  0  0  0  0  0
   18.9866  -16.8010  -12.5998 C   0  0  0  0  0  0  0  0  0  0  0  0
   19.9944  -17.6246  -12.1460 C   0  0  0  0  0  0  0  0  0  0  0  0
   20.6165  -18.5353  -12.9554 C   0  0  0  0  0  0  0  0  0  0  0  0
   21.6862  -19.3957  -12.4350 C   0  0  0  0  0  0  0  0  0  0  0  0
   21.4250  -20.8218  -12.7722 C   0  0  2  0  0  0  0  0  0  0  0  0
   21.9045  -21.1454  -14.1274 N   0  0  0  0  0  0  0  0  0  0  0  0
   20.0478  -21.2896  -12.5788 C   0  0  0  0  0  0  0  0  0  0  0  0
   19.5307  -21.1724  -11.4150 O   0  0  0  0  0  0  0  0  0  0  0  0
   20.2404  -18.6585  -14.2918 C   0  0  0  0  0  0  0  0  0  0  0  0
   19.2318  -17.8282  -14.7304 C   0  0  0  0  0  0  0  0  0  0  0  0
   19.2329  -21.8529  -13.5374 O   0  0  0  0  0  0  0  0  0  0  0  0
  2  3  1  0
  2  1  1  6
  4  3  1  0
  5  4  1  0
  6  5  2  0
  7  2  1  0
  8  7  2  0
  9  5  1  0
 10 11  1  0
 11 12  2  0
 11 13  1  0
 13 14  1  0
 15 14  1  1
 15 16  1  0
 16  7  1  0
 17 15  1  0
 17 18  2  0
 19 20  1  0
 20 21  2  0
 21 22  1  0
 23 22  2  0
 23 24  1  0
 25 24  1  6
 25 26  1  0
 26 17  1  0
 27 25  1  0
 28 27  2  0
 29 23  1  0
 30 20  1  0
 30 29  2  0
 31 27  1  0
M  END
$$$$
