EQY.pdb
     RDKit          3D

 31 31  0  0  1  0  0  0  0  0999 V2000
   29.8873  -24.9955  -16.4211 N   0  0  0  0  0  0  0  0  0  0  0  0
   28.6798  -24.7693  -17.1916 C   0  0  1  0  0  0  0  0  0  0  0  0
   27.6994  -25.8978  -16.9311 C   0  0  0  0  0  0  0  0  0  0  0  0
   28.2490  -27.2221  -17.3734 C   0  0  0  0  0  0  0  0  0  0  0  0
   28.2795  -27.2546  -18.8576 C   0  0  0  0  0  0  0  0  0  0  0  0
   29.2200  -27.8090  -19.4770 O   0  0  0  0  0  0  0  0  0  0  0  0
   28.0886  -23.4503  -16.8607 C   0  0  0  0  0  0  0  0  0  0  0  0
   27.8419  -23.1914  -15.6642 O   0  0  0  0  0  0  0  0  0  0  0  0
   27.2672  -26.6719  -19.6046 O   0  0  0  0  0  0  0  0  0  0  0  0
   28.1864  -17.8563  -20.2359 N   0  0  0  0  0  0  0  0  0  0  0  0
   27.3100  -17.7111  -19.1127 C   0  0  0  0  0  0  0  0  0  0  0  0
   26.9094  -16.5527  -18.8765 O   0  0  0  0  0  0  0  0  0  0  0  0
   26.9035  -18.8334  -18.2835 C   0  0  0  0  0  0  0  0  0  0  0  0
   27.5160  -20.1515  -18.5381 C   0  0  0  0  0  0  0  0  0  0  0  0
   27.1870  -21.2711  -17.6289 C   0  0  2  0  0  0  0  0  0  0  0  0
   27.8174  -22.5156  -17.9073 N   0  0  0  0  0  0  0  0  0  0  0  0
   25.6911  -21.4345  -17.5089 C   0  0  0  0  0  0  0  0  0  0  0  0
   25.1384  -22.5263  -17.7973 O   0  0  0  0  0  0  0  0  0  0  0  0
   19.1180  -22.3545  -12.2460 O   0  0  0  0  0  0  0  0  0  0  0  0
   20.3062  -22.1387  -12.9642 C   0  0  0  0  0  0  0  0  0  0  0  0
   20.9957  -20.9546  -12.7682 C   0  0  0  0  0  0  0  0  0  0  0  0
   22.1602  -20.7531  -13.4776 C   0  0  0  0  0  0  0  0  0  0  0  0
   22.6500  -21.6772  -14.3594 C   0  0  0  0  0  0  0  0  0  0  0  0
   23.8945  -21.4263  -15.0966 C   0  0  0  0  0  0  0  0  0  0  0  0
   23.6290  -20.6162  -16.3168 C   0  0  2  0  0  0  0  0  0  0  0  0
   24.8708  -20.3622  -17.0683 N   0  0  0  0  0  0  0  0  0  0  0  0
   22.8755  -19.3733  -16.1156 C   0  0  0  0  0  0  0  0  0  0  0  0
   23.5350  -18.2933  -15.9320 O   0  0  0  0  0  0  0  0  0  0  0  0
   21.9698  -22.8753  -14.5702 C   0  0  0  0  0  0  0  0  0  0  0  0
   20.8074  -23.0618  -13.8538 C   0  0  0  0  0  0  0  0  0  0  0  0
   21.5034  -19.2413  -16.1042 O   0  0  0  0  0  0  0  0  0  0  0  0
  2  3  1  0
  2  1  1  1
  4  3  1  0
  5  4  1  0
  6  5  2  0
  7  2  1  0
  8  7  2  0
  9  5  1  0
 10 11  1  0
 11 12  2  0
 11 13  1  0
 13 14  1  0
 15 14  1  6
 15 16  1  0
 16  7  1  0
 17 15  1  0
 17 18  2  0
 19 20  1  0
 20 21  2  0
 21 22  1  0
 23 22  2  0
 23 24  1  0
 25 24  1  1
 25 26  1  0
 26 17  1  0
 27 25  1  0
 28 27  2  0
 29 23  1  0
 30 20  1  0
 30 29  2  0
 31 27  1  0
M  END
$$$$
