EQY.pdb
     RDKit          3D

 31 31  0  0  1  0  0  0  0  0999 V2000
   15.7077  -11.2196  -15.3275 N   0  0  0  0  0  0  0  0  0  0  0  0
   16.9597  -10.4961  -15.2187 C   0  0  1  0  0  0  0  0  0  0  0  0
   18.0178  -11.1958  -16.0514 C   0  0  0  0  0  0  0  0  0  0  0  0
   18.3036  -12.5763  -15.5377 C   0  0  0  0  0  0  0  0  0  0  0  0
   19.2715  -13.2347  -16.4512 C   0  0  0  0  0  0  0  0  0  0  0  0
   20.4904  -13.3123  -16.1614 O   0  0  0  0  0  0  0  0  0  0  0  0
   16.7853   -9.0847  -15.6383 C   0  0  0  0  0  0  0  0  0  0  0  0
   15.8863   -8.8148  -16.4619 O   0  0  0  0  0  0  0  0  0  0  0  0
   18.8561  -13.7846  -17.6543 O   0  0  0  0  0  0  0  0  0  0  0  0
   13.2308   -5.4574  -14.1258 N   0  0  0  0  0  0  0  0  0  0  0  0
   14.2212   -4.5013  -14.5200 C   0  0  0  0  0  0  0  0  0  0  0  0
   13.8616   -3.3060  -14.5148 O   0  0  0  0  0  0  0  0  0  0  0  0
   15.5687   -4.8817  -14.9098 C   0  0  0  0  0  0  0  0  0  0  0  0
   15.9440   -6.3068  -14.8365 C   0  0  0  0  0  0  0  0  0  0  0  0
   17.3166   -6.6972  -15.2263 C   0  0  2  0  0  0  0  0  0  0  0  0
   17.6410   -8.0762  -15.0965 N   0  0  0  0  0  0  0  0  0  0  0  0
   18.3338   -5.8312  -14.5233 C   0  0  0  0  0  0  0  0  0  0  0  0
   18.3681   -5.7697  -13.2680 O   0  0  0  0  0  0  0  0  0  0  0  0
   22.3977  -10.3210  -14.2551 O   0  0  0  0  0  0  0  0  0  0  0  0
   22.2266   -8.9389  -14.4419 C   0  0  0  0  0  0  0  0  0  0  0  0
   21.9229   -8.4720  -15.7090 C   0  0  0  0  0  0  0  0  0  0  0  0
   21.7569   -7.1145  -15.8812 C   0  0  0  0  0  0  0  0  0  0  0  0
   21.8816   -6.2247  -14.8497 C   0  0  0  0  0  0  0  0  0  0  0  0
   21.6971   -4.7854  -15.0725 C   0  0  0  0  0  0  0  0  0  0  0  0
   20.3649   -4.3429  -14.5774 C   0  0  2  0  0  0  0  0  0  0  0  0
   19.2764   -5.0651  -15.2593 N   0  0  0  0  0  0  0  0  0  0  0  0
   20.1198   -2.8962  -14.5875 C   0  0  0  0  0  0  0  0  0  0  0  0
   19.1655   -2.4530  -15.3141 O   0  0  0  0  0  0  0  0  0  0  0  0
   22.1871   -6.6758  -13.5668 C   0  0  0  0  0  0  0  0  0  0  0  0
   22.3501   -8.0353  -13.4109 C   0  0  0  0  0  0  0  0  0  0  0  0
   20.8220   -1.9427  -13.8817 O   0  0  0  0  0  0  0  0  0  0  0  0
  2  3  1  0
  2  1  1  6
  4  3  1  0
  5  4  1  0
  6  5  2  0
  7  2  1  0
  8  7  2  0
  9  5  1  0
 10 11  1  0
 11 12  2  0
 11 13  1  0
 13 14  1  0
 15 14  1  1
 15 16  1  0
 16  7  1  0
 17 15  1  0
 17 18  2  0
 19 20  1  0
 20 21  2  0
 21 22  1  0
 23 22  2  0
 23 24  1  0
 25 24  1  6
 25 26  1  0
 26 17  1  0
 27 25  1  0
 28 27  2  0
 29 23  1  0
 30 20  1  0
 30 29  2  0
 31 27  1  0
M  END
$$$$
