EQY.pdb
     RDKit          3D

 31 31  0  0  1  0  0  0  0  0999 V2000
   30.9820  -22.9887  -17.7482 N   0  0  0  0  0  0  0  0  0  0  0  0
   30.9168  -24.4204  -17.9701 C   0  0  1  0  0  0  0  0  0  0  0  0
   32.2932  -25.0239  -17.7608 C   0  0  0  0  0  0  0  0  0  0  0  0
   33.2794  -24.5181  -18.7723 C   0  0  0  0  0  0  0  0  0  0  0  0
   33.3061  -25.4559  -19.9233 C   0  0  0  0  0  0  0  0  0  0  0  0
   33.9458  -26.5345  -19.8691 O   0  0  0  0  0  0  0  0  0  0  0  0
   29.9106  -25.0420  -17.0759 C   0  0  0  0  0  0  0  0  0  0  0  0
   29.9405  -24.7614  -15.8594 O   0  0  0  0  0  0  0  0  0  0  0  0
   32.6232  -25.1666  -21.0948 O   0  0  0  0  0  0  0  0  0  0  0  0
   24.4215  -24.3681  -15.9443 N   0  0  0  0  0  0  0  0  0  0  0  0
   25.5183  -23.6223  -16.4841 C   0  0  0  0  0  0  0  0  0  0  0  0
   25.2564  -22.4646  -16.8704 O   0  0  0  0  0  0  0  0  0  0  0  0
   26.8622  -24.1658  -16.5875 C   0  0  0  0  0  0  0  0  0  0  0  0
   27.1265  -25.4977  -16.0098 C   0  0  0  0  0  0  0  0  0  0  0  0
   27.9024  -26.4727  -16.8071 C   0  0  2  0  0  0  0  0  0  0  0  0
   28.9400  -25.9385  -17.6206 N   0  0  0  0  0  0  0  0  0  0  0  0
   26.9782  -27.3528  -17.6135 C   0  0  0  0  0  0  0  0  0  0  0  0
   26.7861  -27.1335  -18.8365 O   0  0  0  0  0  0  0  0  0  0  0  0
   27.5047  -33.4077  -13.4354 O   0  0  0  0  0  0  0  0  0  0  0  0
   27.1848  -32.7061  -14.6101 C   0  0  0  0  0  0  0  0  0  0  0  0
   25.8745  -32.7186  -15.0558 C   0  0  0  0  0  0  0  0  0  0  0  0
   25.5715  -32.0270  -16.2090 C   0  0  0  0  0  0  0  0  0  0  0  0
   26.5155  -31.3364  -16.9184 C   0  0  0  0  0  0  0  0  0  0  0  0
   26.1539  -30.6113  -18.1427 C   0  0  0  0  0  0  0  0  0  0  0  0
   25.4477  -29.3429  -17.8137 C   0  0  2  0  0  0  0  0  0  0  0  0
   26.3032  -28.4489  -17.0135 N   0  0  0  0  0  0  0  0  0  0  0  0
   24.1207  -29.4820  -17.2032 C   0  0  0  0  0  0  0  0  0  0  0  0
   23.2201  -30.1104  -17.8586 O   0  0  0  0  0  0  0  0  0  0  0  0
   27.8401  -31.3123  -16.4854 C   0  0  0  0  0  0  0  0  0  0  0  0
   28.1271  -32.0084  -15.3313 C   0  0  0  0  0  0  0  0  0  0  0  0
   23.7319  -28.9990  -15.9721 O   0  0  0  0  0  0  0  0  0  0  0  0
  2  3  1  0
  2  1  1  1
  4  3  1  0
  5  4  1  0
  6  5  2  0
  7  2  1  0
  8  7  2  0
  9  5  1  0
 10 11  1  0
 11 12  2  0
 11 13  1  0
 13 14  1  0
 15 14  1  6
 15 16  1  0
 16  7  1  0
 17 15  1  0
 17 18  2  0
 19 20  1  0
 20 21  2  0
 21 22  1  0
 23 22  2  0
 23 24  1  0
 25 24  1  1
 25 26  1  0
 26 17  1  0
 27 25  1  0
 28 27  2  0
 29 23  1  0
 30 20  1  0
 30 29  2  0
 31 27  1  0
M  END
$$$$
