PGV.pdb
     RDKit          3D

 19 19  0  0  1  0  0  0  0  0999 V2000
    8.4440  -15.1497   19.6634 N   0  0  0  0  0  0  0  0  0  0  0  0
    7.9884  -14.6346   18.3940 C   0  0  0  0  0  0  0  0  0  0  0  0
    7.7031  -13.1681   18.5803 C   0  0  0  0  0  0  0  0  0  0  0  0
    7.5579  -13.0680   20.0873 C   0  0  0  0  0  0  0  0  0  0  0  0
    8.6298  -14.0434   20.5500 C   0  0  1  0  0  0  0  0  0  0  0  0
    8.4169  -14.4268   21.9789 C   0  0  0  0  0  0  0  0  0  0  0  0
    8.4957  -13.5408   22.8714 O   0  0  0  0  0  0  0  0  0  0  0  0
    8.1292  -15.7493   22.3726 N   0  0  0  0  0  0  0  0  0  0  0  0
    7.7821  -16.0510   23.7363 C   0  0  0  0  0  0  0  0  0  0  0  0
    8.8949  -15.8282   24.6842 C   0  0  0  0  0  0  0  0  0  0  0  0
   10.0757  -15.7505   24.1926 O   0  0  0  0  0  0  0  0  0  0  0  0
   10.8886  -13.9461   28.6546 C   0  0  0  0  0  0  0  0  0  0  0  0
    9.7182  -14.1531   27.7483 C   0  0  2  0  0  0  0  0  0  0  0  0
    8.4123  -14.2963   28.5008 C   0  0  0  0  0  0  0  0  0  0  0  0
    9.9678  -15.3595   26.8499 C   0  0  2  0  0  0  0  0  0  0  0  0
    8.7778  -15.6955   26.0851 N   0  0  0  0  0  0  0  0  0  0  0  0
   10.2315  -16.5070   27.7527 C   0  0  0  0  0  0  0  0  0  0  0  0
    9.3187  -17.3480   27.9391 O   0  0  0  0  0  0  0  0  0  0  0  0
   11.4354  -16.7068   28.4076 O   0  0  0  0  0  0  0  0  0  0  0  0
  2  1  1  0
  3  4  1  0
  3  2  1  0
  4  5  1  0
  5  6  1  1
  5  1  1  0
  6  8  1  0
  7  6  2  0
  8  9  1  0
  9 10  1  0
 10 11  2  0
 10 16  1  0
 13 12  1  1
 13 15  1  0
 14 13  1  0
 15 17  1  0
 15 16  1  1
 17 18  2  0
 17 19  1  0
M  END
$$$$
