PGV.pdb
     RDKit          3D

 19 19  0  0  1  0  0  0  0  0999 V2000
    7.2101  -14.6990   18.9943 N   0  0  0  0  0  0  0  0  0  0  0  0
    7.1201  -13.5457   18.1306 C   0  0  0  0  0  0  0  0  0  0  0  0
    8.3593  -12.7201   18.3527 C   0  0  0  0  0  0  0  0  0  0  0  0
    8.8370  -13.2310   19.6991 C   0  0  0  0  0  0  0  0  0  0  0  0
    8.5140  -14.7131   19.5810 C   0  0  1  0  0  0  0  0  0  0  0  0
    8.5179  -15.3655   20.9258 C   0  0  0  0  0  0  0  0  0  0  0  0
    9.6169  -15.5652   21.5090 O   0  0  0  0  0  0  0  0  0  0  0  0
    7.3333  -15.7699   21.5739 N   0  0  0  0  0  0  0  0  0  0  0  0
    7.3684  -16.2739   22.9215 C   0  0  0  0  0  0  0  0  0  0  0  0
    7.8561  -15.2812   23.9030 C   0  0  0  0  0  0  0  0  0  0  0  0
    9.1221  -15.2165   24.0899 O   0  0  0  0  0  0  0  0  0  0  0  0
    7.4641  -11.5189   27.0447 C   0  0  0  0  0  0  0  0  0  0  0  0
    6.7551  -12.4276   26.0930 C   0  0  2  0  0  0  0  0  0  0  0  0
    5.4936  -13.0233   26.6812 C   0  0  0  0  0  0  0  0  0  0  0  0
    7.7061  -13.5200   25.6165 C   0  0  2  0  0  0  0  0  0  0  0  0
    7.0543  -14.3973   24.6577 N   0  0  0  0  0  0  0  0  0  0  0  0
    8.0216  -14.3491   26.8059 C   0  0  0  0  0  0  0  0  0  0  0  0
    7.3717  -15.4066   26.9917 O   0  0  0  0  0  0  0  0  0  0  0  0
    8.9991  -14.0224   27.7311 O   0  0  0  0  0  0  0  0  0  0  0  0
  2  1  1  0
  3  4  1  0
  3  2  1  0
  4  5  1  0
  5  6  1  1
  5  1  1  0
  6  8  1  0
  7  6  2  0
  8  9  1  0
  9 10  1  0
 10 11  2  0
 10 16  1  0
 13 12  1  1
 13 15  1  0
 14 13  1  0
 15 17  1  0
 15 16  1  6
 17 18  2  0
 17 19  1  0
M  END
$$$$
