PGV.pdb
     RDKit          3D

 19 19  0  0  1  0  0  0  0  0999 V2000
    8.4018  -17.2493   19.7036 N   0  0  0  0  0  0  0  0  0  0  0  0
    9.3034  -16.8972   18.6324 C   0  0  0  0  0  0  0  0  0  0  0  0
   10.6910  -16.8395   19.2137 C   0  0  0  0  0  0  0  0  0  0  0  0
   10.4021  -16.6898   20.6956 C   0  0  0  0  0  0  0  0  0  0  0  0
    9.1861  -17.5912   20.8492 C   0  0  1  0  0  0  0  0  0  0  0  0
    8.4689  -17.3011   22.1280 C   0  0  0  0  0  0  0  0  0  0  0  0
    8.9341  -17.7506   23.2094 O   0  0  0  0  0  0  0  0  0  0  0  0
    7.2840  -16.5391   22.1748 N   0  0  0  0  0  0  0  0  0  0  0  0
    6.7084  -16.1524   23.4358 C   0  0  0  0  0  0  0  0  0  0  0  0
    7.4960  -15.1208   24.1446 C   0  0  0  0  0  0  0  0  0  0  0  0
    8.5751  -14.7194   23.5820 O   0  0  0  0  0  0  0  0  0  0  0  0
    6.0361  -12.6359   27.1194 C   0  0  0  0  0  0  0  0  0  0  0  0
    7.1804  -12.2360   26.2449 C   0  0  2  0  0  0  0  0  0  0  0  0
    6.7362  -11.5010   24.9980 C   0  0  0  0  0  0  0  0  0  0  0  0
    8.0126  -13.4633   25.8900 C   0  0  2  0  0  0  0  0  0  0  0  0
    7.1706  -14.5373   25.3884 N   0  0  0  0  0  0  0  0  0  0  0  0
    8.6083  -13.9473   27.1598 C   0  0  0  0  0  0  0  0  0  0  0  0
    8.1352  -14.9817   27.6905 O   0  0  0  0  0  0  0  0  0  0  0  0
    9.6644  -13.3200   27.7996 O   0  0  0  0  0  0  0  0  0  0  0  0
  2  1  1  0
  3  4  1  0
  3  2  1  0
  4  5  1  0
  5  6  1  1
  5  1  1  0
  6  8  1  0
  7  6  2  0
  8  9  1  0
  9 10  1  0
 10 11  2  0
 10 16  1  0
 13 12  1  6
 13 15  1  0
 14 13  1  0
 15 17  1  0
 15 16  1  1
 17 18  2  0
 17 19  1  0
M  END
$$$$
