PGV.pdb
     RDKit          3D

 19 19  0  0  1  0  0  0  0  0999 V2000
    7.3568  -14.6885   18.8775 N   0  0  0  0  0  0  0  0  0  0  0  0
    7.1473  -13.5353   18.0347 C   0  0  0  0  0  0  0  0  0  0  0  0
    8.2892  -12.5854   18.2807 C   0  0  0  0  0  0  0  0  0  0  0  0
    8.8124  -13.0676   19.6207 C   0  0  0  0  0  0  0  0  0  0  0  0
    8.6517  -14.5733   19.4730 C   0  0  1  0  0  0  0  0  0  0  0  0
    8.7192  -15.2472   20.8054 C   0  0  0  0  0  0  0  0  0  0  0  0
    9.8402  -15.4029   21.3594 O   0  0  0  0  0  0  0  0  0  0  0  0
    7.5714  -15.7195   21.4734 N   0  0  0  0  0  0  0  0  0  0  0  0
    7.6587  -16.2207   22.8196 C   0  0  0  0  0  0  0  0  0  0  0  0
    8.0046  -15.1775   23.8090 C   0  0  0  0  0  0  0  0  0  0  0  0
    9.2456  -14.8891   23.9456 O   0  0  0  0  0  0  0  0  0  0  0  0
    7.1145  -11.5806   27.0312 C   0  0  0  0  0  0  0  0  0  0  0  0
    6.5555  -12.5136   26.0059 C   0  0  2  0  0  0  0  0  0  0  0  0
    5.2964  -13.2123   26.4737 C   0  0  0  0  0  0  0  0  0  0  0  0
    7.6202  -13.5232   25.5912 C   0  0  2  0  0  0  0  0  0  0  0  0
    7.0925  -14.4694   24.6216 N   0  0  0  0  0  0  0  0  0  0  0  0
    7.9549  -14.3031   26.8082 C   0  0  0  0  0  0  0  0  0  0  0  0
    7.4244  -15.4296   26.9657 O   0  0  0  0  0  0  0  0  0  0  0  0
    8.8255  -13.8579   27.7891 O   0  0  0  0  0  0  0  0  0  0  0  0
  2  1  1  0
  3  4  1  0
  3  2  1  0
  4  5  1  0
  5  6  1  1
  5  1  1  0
  6  8  1  0
  7  6  2  0
  8  9  1  0
  9 10  1  0
 10 11  2  0
 10 16  1  0
 13 12  1  1
 13 15  1  0
 14 13  1  0
 15 17  1  0
 15 16  1  6
 17 18  2  0
 17 19  1  0
M  END
$$$$
