PGV.pdb
     RDKit          3D

 19 19  0  0  1  0  0  0  0  0999 V2000
    7.3062  -14.6923   19.0383 N   0  0  0  0  0  0  0  0  0  0  0  0
    7.2643  -13.6145   18.0786 C   0  0  0  0  0  0  0  0  0  0  0  0
    8.5005  -12.7803   18.2854 C   0  0  0  0  0  0  0  0  0  0  0  0
    8.9147  -13.1799   19.6892 C   0  0  0  0  0  0  0  0  0  0  0  0
    8.5834  -14.6647   19.6806 C   0  0  1  0  0  0  0  0  0  0  0  0
    8.5232  -15.2028   21.0738 C   0  0  0  0  0  0  0  0  0  0  0  0
    9.5970  -15.4703   21.6765 O   0  0  0  0  0  0  0  0  0  0  0  0
    7.3048  -15.4251   21.7470 N   0  0  0  0  0  0  0  0  0  0  0  0
    7.2916  -15.9252   23.0964 C   0  0  0  0  0  0  0  0  0  0  0  0
    7.8272  -14.9608   24.0811 C   0  0  0  0  0  0  0  0  0  0  0  0
    9.0628  -14.6391   23.9726 O   0  0  0  0  0  0  0  0  0  0  0  0
    5.6882  -13.1049   27.2516 C   0  0  0  0  0  0  0  0  0  0  0  0
    6.9049  -12.4578   26.6727 C   0  0  2  0  0  0  0  0  0  0  0  0
    6.5717  -11.3929   25.6493 C   0  0  0  0  0  0  0  0  0  0  0  0
    7.8219  -13.5210   26.0781 C   0  0  2  0  0  0  0  0  0  0  0  0
    7.1028  -14.3618   25.1347 N   0  0  0  0  0  0  0  0  0  0  0  0
    8.2317  -14.3977   27.2028 C   0  0  0  0  0  0  0  0  0  0  0  0
    7.7311  -15.5458   27.2839 O   0  0  0  0  0  0  0  0  0  0  0  0
    9.1415  -14.0210   28.1767 O   0  0  0  0  0  0  0  0  0  0  0  0
  2  1  1  0
  3  4  1  0
  3  2  1  0
  4  5  1  0
  5  6  1  1
  5  1  1  0
  6  8  1  0
  7  6  2  0
  8  9  1  0
  9 10  1  0
 10 11  2  0
 10 16  1  0
 13 12  1  6
 13 15  1  0
 14 13  1  0
 15 17  1  0
 15 16  1  6
 17 18  2  0
 17 19  1  0
M  END
$$$$
