PGV.pdb
     RDKit          3D

 19 19  0  0  1  0  0  0  0  0999 V2000
    8.2793  -15.1560   18.8658 N   0  0  0  0  0  0  0  0  0  0  0  0
    8.1108  -14.7173   17.5007 C   0  0  0  0  0  0  0  0  0  0  0  0
    8.0002  -13.2160   17.5216 C   0  0  0  0  0  0  0  0  0  0  0  0
    7.6260  -12.9512   18.9679 C   0  0  0  0  0  0  0  0  0  0  0  0
    8.4660  -13.9983   19.6839 C   0  0  1  0  0  0  0  0  0  0  0  0
    7.9729  -14.2106   21.0788 C   0  0  0  0  0  0  0  0  0  0  0  0
    7.9462  -13.2354   21.8765 O   0  0  0  0  0  0  0  0  0  0  0  0
    7.5329  -15.4668   21.5427 N   0  0  0  0  0  0  0  0  0  0  0  0
    6.8939  -15.5935   22.8260 C   0  0  0  0  0  0  0  0  0  0  0  0
    7.6601  -14.9654   23.9237 C   0  0  0  0  0  0  0  0  0  0  0  0
    8.9312  -14.8889   23.7808 O   0  0  0  0  0  0  0  0  0  0  0  0
    6.0308  -13.0481   27.3278 C   0  0  0  0  0  0  0  0  0  0  0  0
    7.3179  -12.5916   26.7202 C   0  0  2  0  0  0  0  0  0  0  0  0
    7.1342  -11.4401   25.7544 C   0  0  0  0  0  0  0  0  0  0  0  0
    8.0155  -13.7671   26.0446 C   0  0  2  0  0  0  0  0  0  0  0  0
    7.1206  -14.4431   25.1194 N   0  0  0  0  0  0  0  0  0  0  0  0
    8.3315  -14.7405   27.1189 C   0  0  0  0  0  0  0  0  0  0  0  0
    9.1753  -14.4208   27.9914 O   0  0  0  0  0  0  0  0  0  0  0  0
    7.7457  -15.9917   27.2167 O   0  0  0  0  0  0  0  0  0  0  0  0
  2  1  1  0
  3  4  1  0
  3  2  1  0
  4  5  1  0
  5  6  1  1
  5  1  1  0
  6  8  1  0
  7  6  2  0
  8  9  1  0
  9 10  1  0
 10 11  2  0
 10 16  1  0
 13 12  1  6
 13 15  1  0
 14 13  1  0
 15 17  1  0
 15 16  1  6
 17 18  2  0
 17 19  1  0
M  END
$$$$
