PGV.pdb
     RDKit          3D

 19 19  0  0  1  0  0  0  0  0999 V2000
    7.1321  -14.6258   19.1241 N   0  0  0  0  0  0  0  0  0  0  0  0
    7.0327  -13.5680   18.1468 C   0  0  0  0  0  0  0  0  0  0  0  0
    8.2852  -12.7392   18.2526 C   0  0  0  0  0  0  0  0  0  0  0  0
    8.7901  -13.1127   19.6337 C   0  0  0  0  0  0  0  0  0  0  0  0
    8.4496  -14.5948   19.6789 C   0  0  1  0  0  0  0  0  0  0  0  0
    8.4795  -15.1033   21.0841 C   0  0  0  0  0  0  0  0  0  0  0  0
    9.5912  -15.2792   21.6507 O   0  0  0  0  0  0  0  0  0  0  0  0
    7.3059  -15.3965   21.8077 N   0  0  0  0  0  0  0  0  0  0  0  0
    7.3795  -15.9166   23.1476 C   0  0  0  0  0  0  0  0  0  0  0  0
    7.9176  -14.9433   24.1222 C   0  0  0  0  0  0  0  0  0  0  0  0
    9.1493  -14.6121   23.9992 O   0  0  0  0  0  0  0  0  0  0  0  0
    5.8094  -12.9927   27.2884 C   0  0  0  0  0  0  0  0  0  0  0  0
    7.0395  -12.4043   26.6762 C   0  0  2  0  0  0  0  0  0  0  0  0
    6.7289  -11.3800   25.6055 C   0  0  0  0  0  0  0  0  0  0  0  0
    7.9267  -13.5170   26.1288 C   0  0  2  0  0  0  0  0  0  0  0  0
    7.1994  -14.3453   25.1807 N   0  0  0  0  0  0  0  0  0  0  0  0
    8.2663  -14.3876   27.2813 C   0  0  0  0  0  0  0  0  0  0  0  0
    7.6912  -15.4982   27.3864 O   0  0  0  0  0  0  0  0  0  0  0  0
    9.1883  -14.0443   28.2563 O   0  0  0  0  0  0  0  0  0  0  0  0
  2  1  1  0
  3  4  1  0
  3  2  1  0
  4  5  1  0
  5  6  1  1
  5  1  1  0
  6  8  1  0
  7  6  2  0
  8  9  1  0
  9 10  1  0
 10 11  2  0
 10 16  1  0
 13 12  1  6
 13 15  1  0
 14 13  1  0
 15 17  1  0
 15 16  1  6
 17 18  2  0
 17 19  1  0
M  END
$$$$
