PGV.pdb
     RDKit          3D

 19 19  0  0  1  0  0  0  0  0999 V2000
    7.2742  -14.6666   19.9354 N   0  0  0  0  0  0  0  0  0  0  0  0
    6.4627  -13.6817   19.2603 C   0  0  0  0  0  0  0  0  0  0  0  0
    7.2635  -12.4085   19.1940 C   0  0  0  0  0  0  0  0  0  0  0  0
    8.2977  -12.6340   20.2809 C   0  0  0  0  0  0  0  0  0  0  0  0
    8.5833  -14.1185   20.1097 C   0  0  1  0  0  0  0  0  0  0  0  0
    9.2667  -14.6700   21.3192 C   0  0  0  0  0  0  0  0  0  0  0  0
   10.4504  -14.3185   21.5704 O   0  0  0  0  0  0  0  0  0  0  0  0
    8.6366  -15.5745   22.1977 N   0  0  0  0  0  0  0  0  0  0  0  0
    9.3821  -16.2219   23.2447 C   0  0  0  0  0  0  0  0  0  0  0  0
    9.1367  -15.6391   24.5814 C   0  0  0  0  0  0  0  0  0  0  0  0
    9.8452  -16.0832   25.5524 O   0  0  0  0  0  0  0  0  0  0  0  0
    5.6528  -13.5291   26.0060 C   0  0  0  0  0  0  0  0  0  0  0  0
    7.0267  -13.1058   26.4153 C   0  0  2  0  0  0  0  0  0  0  0  0
    7.5254  -11.9048   25.6399 C   0  0  0  0  0  0  0  0  0  0  0  0
    7.9896  -14.2807   26.2843 C   0  0  2  0  0  0  0  0  0  0  0  0
    8.1898  -14.6380   24.8892 N   0  0  0  0  0  0  0  0  0  0  0  0
    7.3260  -15.4404   26.9294 C   0  0  0  0  0  0  0  0  0  0  0  0
    6.6182  -16.1985   26.2225 O   0  0  0  0  0  0  0  0  0  0  0  0
    7.4422  -15.7385   28.2770 O   0  0  0  0  0  0  0  0  0  0  0  0
  2  1  1  0
  3  4  1  0
  3  2  1  0
  4  5  1  0
  5  6  1  1
  5  1  1  0
  6  8  1  0
  7  6  2  0
  8  9  1  0
  9 10  1  0
 10 11  2  0
 10 16  1  0
 13 12  1  6
 13 15  1  0
 14 13  1  0
 15 17  1  0
 15 16  1  6
 17 18  2  0
 17 19  1  0
M  END
$$$$
