PGV.pdb
     RDKit          3D

 19 19  0  0  1  0  0  0  0  0999 V2000
    8.6288  -15.0527   19.1048 N   0  0  0  0  0  0  0  0  0  0  0  0
    8.4884  -14.6726   17.7191 C   0  0  0  0  0  0  0  0  0  0  0  0
    8.0914  -13.2206   17.6894 C   0  0  0  0  0  0  0  0  0  0  0  0
    7.5601  -13.0140   19.0954 C   0  0  0  0  0  0  0  0  0  0  0  0
    8.5254  -13.8700   19.9017 C   0  0  1  0  0  0  0  0  0  0  0  0
    7.9730  -14.1552   21.2610 C   0  0  0  0  0  0  0  0  0  0  0  0
    7.6613  -13.1927   22.0123 O   0  0  0  0  0  0  0  0  0  0  0  0
    7.7847  -15.4670   21.7412 N   0  0  0  0  0  0  0  0  0  0  0  0
    7.1772  -15.6994   23.0250 C   0  0  0  0  0  0  0  0  0  0  0  0
    7.8014  -14.9195   24.1153 C   0  0  0  0  0  0  0  0  0  0  0  0
    9.0780  -14.9695   24.2138 O   0  0  0  0  0  0  0  0  0  0  0  0
    5.8827  -13.0426   27.4334 C   0  0  0  0  0  0  0  0  0  0  0  0
    7.0526  -12.3757   26.7848 C   0  0  2  0  0  0  0  0  0  0  0  0
    6.6452  -11.2575   25.8489 C   0  0  0  0  0  0  0  0  0  0  0  0
    7.9026  -13.4138   26.0604 C   0  0  2  0  0  0  0  0  0  0  0  0
    7.1197  -14.1247   25.0626 N   0  0  0  0  0  0  0  0  0  0  0  0
    8.3014  -14.4147   27.0806 C   0  0  0  0  0  0  0  0  0  0  0  0
    7.7086  -15.5208   27.1022 O   0  0  0  0  0  0  0  0  0  0  0  0
    9.2975  -14.1988   28.0184 O   0  0  0  0  0  0  0  0  0  0  0  0
  2  1  1  0
  3  4  1  0
  3  2  1  0
  4  5  1  0
  5  6  1  1
  5  1  1  0
  6  8  1  0
  7  6  2  0
  8  9  1  0
  9 10  1  0
 10 11  2  0
 10 16  1  0
 13 12  1  6
 13 15  1  0
 14 13  1  0
 15 17  1  0
 15 16  1  6
 17 18  2  0
 17 19  1  0
M  END
$$$$
