PGV.pdb
     RDKit          3D

 19 19  0  0  1  0  0  0  0  0999 V2000
    8.1404  -14.9666   20.0843 N   0  0  0  0  0  0  0  0  0  0  0  0
    8.4194  -14.3229   18.8226 C   0  0  0  0  0  0  0  0  0  0  0  0
    8.5361  -12.8455   19.0879 C   0  0  0  0  0  0  0  0  0  0  0  0
    7.8260  -12.7114   20.4219 C   0  0  0  0  0  0  0  0  0  0  0  0
    8.2700  -13.9886   21.1194 C   0  0  1  0  0  0  0  0  0  0  0  0
    7.3887  -14.2882   22.2888 C   0  0  0  0  0  0  0  0  0  0  0  0
    6.3187  -14.9278   22.1043 O   0  0  0  0  0  0  0  0  0  0  0  0
    7.7075  -13.8815   23.6002 N   0  0  0  0  0  0  0  0  0  0  0  0
    6.8105  -14.1533   24.6923 C   0  0  0  0  0  0  0  0  0  0  0  0
    7.0003  -15.4958   25.2826 C   0  0  0  0  0  0  0  0  0  0  0  0
    6.1961  -15.8427   26.2180 O   0  0  0  0  0  0  0  0  0  0  0  0
    8.8324  -18.9153   23.5922 C   0  0  0  0  0  0  0  0  0  0  0  0
    7.7445  -18.8579   24.6156 C   0  0  2  0  0  0  0  0  0  0  0  0
    6.3669  -18.7331   24.0001 C   0  0  0  0  0  0  0  0  0  0  0  0
    8.0136  -17.7180   25.5918 C   0  0  2  0  0  0  0  0  0  0  0  0
    7.9896  -16.4328   24.9125 N   0  0  0  0  0  0  0  0  0  0  0  0
    9.3980  -17.9105   26.0896 C   0  0  0  0  0  0  0  0  0  0  0  0
   10.2879  -17.1068   25.7187 O   0  0  0  0  0  0  0  0  0  0  0  0
    9.7697  -18.9331   26.9465 O   0  0  0  0  0  0  0  0  0  0  0  0
  2  1  1  0
  3  4  1  0
  3  2  1  0
  4  5  1  0
  5  6  1  1
  5  1  1  0
  6  8  1  0
  7  6  2  0
  8  9  1  0
  9 10  1  0
 10 11  2  0
 10 16  1  0
 13 12  1  6
 13 15  1  0
 14 13  1  0
 15 17  1  0
 15 16  1  6
 17 18  2  0
 17 19  1  0
M  END
$$$$
