PGV.pdb
     RDKit          3D

 19 19  0  0  1  0  0  0  0  0999 V2000
    8.6009  -15.2359   19.0557 N   0  0  0  0  0  0  0  0  0  0  0  0
    8.4959  -14.8665   17.6640 C   0  0  0  0  0  0  0  0  0  0  0  0
    8.0697  -13.4234   17.6131 C   0  0  0  0  0  0  0  0  0  0  0  0
    7.4904  -13.2205   19.0006 C   0  0  0  0  0  0  0  0  0  0  0  0
    8.4478  -14.0514   19.8418 C   0  0  1  0  0  0  0  0  0  0  0  0
    7.8593  -14.3408   21.1850 C   0  0  0  0  0  0  0  0  0  0  0  0
    7.5597  -13.3811   21.9446 O   0  0  0  0  0  0  0  0  0  0  0  0
    7.6236  -15.6537   21.6407 N   0  0  0  0  0  0  0  0  0  0  0  0
    7.0204  -15.8880   22.9262 C   0  0  0  0  0  0  0  0  0  0  0  0
    7.6340  -15.0934   24.0119 C   0  0  0  0  0  0  0  0  0  0  0  0
    8.8676  -14.7737   23.8776 O   0  0  0  0  0  0  0  0  0  0  0  0
    5.5904  -12.3230   25.9881 C   0  0  0  0  0  0  0  0  0  0  0  0
    6.6561  -12.8944   26.8669 C   0  0  2  0  0  0  0  0  0  0  0  0
    7.3515  -11.8423   27.7046 C   0  0  0  0  0  0  0  0  0  0  0  0
    7.6589  -13.6732   26.0227 C   0  0  2  0  0  0  0  0  0  0  0  0
    6.9864  -14.6552   25.1876 N   0  0  0  0  0  0  0  0  0  0  0  0
    8.5069  -14.4330   26.9740 C   0  0  0  0  0  0  0  0  0  0  0  0
    9.3452  -13.8056   27.6661 O   0  0  0  0  0  0  0  0  0  0  0  0
    8.4277  -15.8051   27.1450 O   0  0  0  0  0  0  0  0  0  0  0  0
  2  1  1  0
  3  4  1  0
  3  2  1  0
  4  5  1  0
  5  6  1  1
  5  1  1  0
  6  8  1  0
  7  6  2  0
  8  9  1  0
  9 10  1  0
 10 11  2  0
 10 16  1  0
 13 12  1  6
 13 15  1  0
 14 13  1  0
 15 17  1  0
 15 16  1  6
 17 18  2  0
 17 19  1  0
M  END
$$$$
