PGV.pdb
     RDKit          3D

 19 19  0  0  1  0  0  0  0  0999 V2000
    7.1128  -14.5169   19.1819 N   0  0  0  0  0  0  0  0  0  0  0  0
    7.0471  -13.3640   18.3154 C   0  0  0  0  0  0  0  0  0  0  0  0
    8.3457  -12.6165   18.4627 C   0  0  0  0  0  0  0  0  0  0  0  0
    8.8643  -13.1504   19.7848 C   0  0  0  0  0  0  0  0  0  0  0  0
    8.4437  -14.6099   19.6962 C   0  0  1  0  0  0  0  0  0  0  0  0
    8.4813  -15.2554   21.0438 C   0  0  0  0  0  0  0  0  0  0  0  0
    9.5952  -15.5560   21.5505 O   0  0  0  0  0  0  0  0  0  0  0  0
    7.3128  -15.5442   21.7772 N   0  0  0  0  0  0  0  0  0  0  0  0
    7.3956  -16.0803   23.1102 C   0  0  0  0  0  0  0  0  0  0  0  0
    7.9563  -15.1246   24.0894 C   0  0  0  0  0  0  0  0  0  0  0  0
    9.2314  -15.0021   24.1234 O   0  0  0  0  0  0  0  0  0  0  0  0
    5.7888  -13.0698   27.1106 C   0  0  0  0  0  0  0  0  0  0  0  0
    7.0634  -12.4805   26.5985 C   0  0  2  0  0  0  0  0  0  0  0  0
    6.8341  -11.3684   25.5971 C   0  0  0  0  0  0  0  0  0  0  0  0
    7.9388  -13.5793   26.0058 C   0  0  2  0  0  0  0  0  0  0  0  0
    7.2157  -14.3342   24.9952 N   0  0  0  0  0  0  0  0  0  0  0  0
    8.2333  -14.5230   27.1122 C   0  0  0  0  0  0  0  0  0  0  0  0
    7.5915  -15.6001   27.1712 O   0  0  0  0  0  0  0  0  0  0  0  0
    9.1825  -14.2839   28.0921 O   0  0  0  0  0  0  0  0  0  0  0  0
  2  1  1  0
  3  4  1  0
  3  2  1  0
  4  5  1  0
  5  6  1  1
  5  1  1  0
  6  8  1  0
  7  6  2  0
  8  9  1  0
  9 10  1  0
 10 11  2  0
 10 16  1  0
 13 12  1  6
 13 15  1  0
 14 13  1  0
 15 17  1  0
 15 16  1  6
 17 18  2  0
 17 19  1  0
M  END
$$$$
