VSW.pdb
     RDKit          3D

 28 29  0  0  1  0  0  0  0  0999 V2000
    9.1559  -12.8110   21.3299 C   0  0  0  0  0  0  0  0  0  0  0  0
    7.8619  -13.2325   20.6882 C   0  0  1  0  0  0  0  0  0  0  0  0
    7.6078  -12.3106   19.5175 C   0  0  0  0  0  0  0  0  0  0  0  0
    7.8802  -14.6684   20.2323 C   0  0  2  0  0  0  0  0  0  0  0  0
    6.6954  -14.9687   19.4692 N   0  0  0  0  0  0  0  0  0  0  0  0
    8.0799  -15.6241   21.3542 C   0  0  0  0  0  0  0  0  0  0  0  0
    7.1501  -15.8884   22.1418 O   0  0  0  0  0  0  0  0  0  0  0  0
   11.8414  -17.4154   21.8196 O   0  0  0  0  0  0  0  0  0  0  0  0
   10.7262  -18.1538   22.2730 C   0  0  0  0  0  0  0  0  0  0  0  0
    9.5747  -17.2401   22.5800 C   0  0  2  0  0  0  0  0  0  0  0  0
    9.3196  -16.2628   21.5678 N   0  0  0  0  0  0  0  0  0  0  0  0
    9.9513  -16.5091   23.8318 C   0  0  0  0  0  0  0  0  0  0  0  0
   10.6252  -15.4396   23.7965 O   0  0  0  0  0  0  0  0  0  0  0  0
    9.5709  -16.9805   25.1173 N   0  0  0  0  0  0  0  0  0  0  0  0
   10.2604  -16.5295   26.3013 C   0  0  1  0  0  0  0  0  0  0  0  0
    9.4007  -15.6530   27.1853 C   0  0  0  0  0  0  0  0  0  0  0  0
    8.1496  -15.2073   26.5622 C   0  0  0  0  0  0  0  0  0  0  0  0
    7.1517  -15.9824   25.9845 C   0  0  0  0  0  0  0  0  0  0  0  0
    6.1716  -15.1758   25.5714 N   0  0  0  0  0  0  0  0  0  0  0  0
    6.4679  -13.8692   25.8480 C   0  0  0  0  0  0  0  0  0  0  0  0
    5.7731  -12.7036   25.6056 C   0  0  0  0  0  0  0  0  0  0  0  0
    6.3080  -11.4933   25.9831 C   0  0  0  0  0  0  0  0  0  0  0  0
    7.5353  -11.4905   26.5975 C   0  0  0  0  0  0  0  0  0  0  0  0
    8.2109  -12.6597   26.8301 C   0  0  0  0  0  0  0  0  0  0  0  0
    7.7097  -13.9167   26.4666 C   0  0  0  0  0  0  0  0  0  0  0  0
   10.6863  -17.6946   27.1191 C   0  0  0  0  0  0  0  0  0  0  0  0
   10.3151  -18.8391   26.7536 O   0  0  0  0  0  0  0  0  0  0  0  0
   11.4730  -17.5460   28.2599 O   0  0  0  0  0  0  0  0  0  0  0  0
  2  1  1  6
  2  3  1  0
  2  4  1  0
  4  5  1  1
  6 11  1  0
  6  4  1  0
  7  6  2  0
  9  8  1  0
 10 11  1  0
 10  9  1  6
 12 10  1  0
 13 12  2  0
 14 12  1  0
 15 16  1  1
 15 14  1  0
 17 16  1  0
 18 17  2  0
 19 20  1  0
 19 18  1  0
 20 25  2  0
 21 20  1  0
 21 22  2  0
 22 23  1  0
 23 24  2  0
 25 17  1  0
 25 24  1  0
 26 15  1  0
 27 26  2  0
 28 26  1  0
M  END
$$$$
