VSW.pdb
     RDKit          3D

 28 29  0  0  1  0  0  0  0  0999 V2000
    8.3674  -12.1671   19.1296 C   0  0  0  0  0  0  0  0  0  0  0  0
    8.3628  -13.2013   20.2225 C   0  0  1  0  0  0  0  0  0  0  0  0
    7.0123  -13.1485   20.8996 C   0  0  0  0  0  0  0  0  0  0  0  0
    8.6395  -14.5904   19.7089 C   0  0  2  0  0  0  0  0  0  0  0  0
    7.7692  -14.9003   18.6032 N   0  0  0  0  0  0  0  0  0  0  0  0
    8.5733  -15.6214   20.7787 C   0  0  0  0  0  0  0  0  0  0  0  0
    7.4947  -16.1781   21.0640 O   0  0  0  0  0  0  0  0  0  0  0  0
   11.9815  -17.5639   21.7391 O   0  0  0  0  0  0  0  0  0  0  0  0
   10.7651  -18.1264   22.1847 C   0  0  0  0  0  0  0  0  0  0  0  0
    9.7605  -17.0503   22.4810 C   0  0  2  0  0  0  0  0  0  0  0  0
    9.7200  -16.0056   21.5054 N   0  0  0  0  0  0  0  0  0  0  0  0
   10.1822  -16.4400   23.7821 C   0  0  0  0  0  0  0  0  0  0  0  0
   10.9969  -15.4738   23.8268 O   0  0  0  0  0  0  0  0  0  0  0  0
    9.6887  -16.9157   25.0269 N   0  0  0  0  0  0  0  0  0  0  0  0
   10.3493  -16.5706   26.2619 C   0  0  1  0  0  0  0  0  0  0  0  0
    9.4186  -15.9317   27.2689 C   0  0  0  0  0  0  0  0  0  0  0  0
    8.1749  -15.4061   26.6950 C   0  0  0  0  0  0  0  0  0  0  0  0
    7.1148  -16.1143   26.1430 C   0  0  0  0  0  0  0  0  0  0  0  0
    6.1696  -15.2471   25.7738 N   0  0  0  0  0  0  0  0  0  0  0  0
    6.5504  -13.9636   26.0558 C   0  0  0  0  0  0  0  0  0  0  0  0
    5.9164  -12.7567   25.8516 C   0  0  0  0  0  0  0  0  0  0  0  0
    6.5330  -11.5846   26.2248 C   0  0  0  0  0  0  0  0  0  0  0  0
    7.7786  -11.6610   26.7963 C   0  0  0  0  0  0  0  0  0  0  0  0
    8.3928  -12.8703   26.9912 C   0  0  0  0  0  0  0  0  0  0  0  0
    7.8076  -14.0911   26.6303 C   0  0  0  0  0  0  0  0  0  0  0  0
   10.9136  -17.7896   26.8970 C   0  0  0  0  0  0  0  0  0  0  0  0
   10.6658  -18.9011   26.3637 O   0  0  0  0  0  0  0  0  0  0  0  0
   11.6959  -17.7255   28.0487 O   0  0  0  0  0  0  0  0  0  0  0  0
  2  1  1  6
  2  3  1  0
  2  4  1  0
  4  5  1  6
  6 11  1  0
  6  4  1  0
  7  6  2  0
  9  8  1  0
 10 11  1  0
 10  9  1  6
 12 10  1  0
 13 12  2  0
 14 12  1  0
 15 16  1  1
 15 14  1  0
 17 16  1  0
 18 17  2  0
 19 20  1  0
 19 18  1  0
 20 25  2  0
 21 20  1  0
 21 22  2  0
 22 23  1  0
 23 24  2  0
 25 17  1  0
 25 24  1  0
 26 15  1  0
 27 26  2  0
 28 26  1  0
M  END
$$$$
