VSW.pdb
     RDKit          3D

 28 29  0  0  1  0  0  0  0  0999 V2000
    8.6704  -12.2232   18.6379 C   0  0  0  0  0  0  0  0  0  0  0  0
    8.6408  -13.2020   19.7804 C   0  0  1  0  0  0  0  0  0  0  0  0
    7.5622  -12.7552   20.7406 C   0  0  0  0  0  0  0  0  0  0  0  0
    8.3883  -14.6165   19.3271 C   0  0  2  0  0  0  0  0  0  0  0  0
    7.2242  -14.6727   18.4798 N   0  0  0  0  0  0  0  0  0  0  0  0
    8.3017  -15.5754   20.4606 C   0  0  0  0  0  0  0  0  0  0  0  0
    7.2447  -15.7044   21.1093 O   0  0  0  0  0  0  0  0  0  0  0  0
   11.5721  -18.0614   21.2314 O   0  0  0  0  0  0  0  0  0  0  0  0
   10.3143  -18.4796   21.7188 C   0  0  0  0  0  0  0  0  0  0  0  0
    9.4075  -17.3008   21.9266 C   0  0  2  0  0  0  0  0  0  0  0  0
    9.4041  -16.3693   20.8416 N   0  0  0  0  0  0  0  0  0  0  0  0
    9.9299  -16.5873   23.1354 C   0  0  0  0  0  0  0  0  0  0  0  0
   10.7936  -15.6685   23.0400 O   0  0  0  0  0  0  0  0  0  0  0  0
    9.4816  -16.9072   24.4454 N   0  0  0  0  0  0  0  0  0  0  0  0
   10.2690  -16.5524   25.6008 C   0  0  1  0  0  0  0  0  0  0  0  0
    9.7682  -15.3045   26.2940 C   0  0  0  0  0  0  0  0  0  0  0  0
    8.3436  -15.0251   26.0824 C   0  0  0  0  0  0  0  0  0  0  0  0
    7.3241  -15.9231   25.7916 C   0  0  0  0  0  0  0  0  0  0  0  0
    6.1734  -15.2509   25.7157 N   0  0  0  0  0  0  0  0  0  0  0  0
    6.3733  -13.9171   25.9454 C   0  0  0  0  0  0  0  0  0  0  0  0
    5.4985  -12.8519   25.9634 C   0  0  0  0  0  0  0  0  0  0  0  0
    5.9662  -11.5826   26.2158 C   0  0  0  0  0  0  0  0  0  0  0  0
    7.3099  -11.4205   26.4439 C   0  0  0  0  0  0  0  0  0  0  0  0
    8.1639  -12.4918   26.4219 C   0  0  0  0  0  0  0  0  0  0  0  0
    7.7382  -13.8029   26.1712 C   0  0  0  0  0  0  0  0  0  0  0  0
   10.2357  -17.6526   26.5988 C   0  0  0  0  0  0  0  0  0  0  0  0
    9.3881  -18.5678   26.4397 O   0  0  0  0  0  0  0  0  0  0  0  0
   11.1078  -17.6886   27.6853 O   0  0  0  0  0  0  0  0  0  0  0  0
  2  1  1  6
  2  3  1  0
  2  4  1  0
  4  5  1  1
  6 11  1  0
  6  4  1  0
  7  6  2  0
  9  8  1  0
 10 11  1  0
 10  9  1  6
 12 10  1  0
 13 12  2  0
 14 12  1  0
 15 16  1  1
 15 14  1  0
 17 16  1  0
 18 17  2  0
 19 20  1  0
 19 18  1  0
 20 25  2  0
 21 20  1  0
 21 22  2  0
 22 23  1  0
 23 24  2  0
 25 17  1  0
 25 24  1  0
 26 15  1  0
 27 26  2  0
 28 26  1  0
M  END
$$$$
