VSW.pdb
     RDKit          3D

 28 29  0  0  1  0  0  0  0  0999 V2000
    8.4567  -12.7976   20.3081 C   0  0  0  0  0  0  0  0  0  0  0  0
    7.7740  -13.5787   19.2182 C   0  0  1  0  0  0  0  0  0  0  0  0
    7.5013  -12.6292   18.0741 C   0  0  0  0  0  0  0  0  0  0  0  0
    8.5921  -14.7518   18.7445 C   0  0  2  0  0  0  0  0  0  0  0  0
    8.0549  -15.2752   17.5142 N   0  0  0  0  0  0  0  0  0  0  0  0
    8.7394  -15.8056   19.7835 C   0  0  0  0  0  0  0  0  0  0  0  0
    7.9624  -16.7801   19.8200 O   0  0  0  0  0  0  0  0  0  0  0  0
   11.2263  -18.0748   20.3577 O   0  0  0  0  0  0  0  0  0  0  0  0
   10.2288  -18.0818   21.3574 C   0  0  0  0  0  0  0  0  0  0  0  0
    9.9331  -16.6844   21.8210 C   0  0  2  0  0  0  0  0  0  0  0  0
    9.7564  -15.7427   20.7594 N   0  0  0  0  0  0  0  0  0  0  0  0
   11.1268  -16.2529   22.6161 C   0  0  0  0  0  0  0  0  0  0  0  0
   12.2778  -16.7264   22.3919 O   0  0  0  0  0  0  0  0  0  0  0  0
   11.0246  -15.2927   23.6586 N   0  0  0  0  0  0  0  0  0  0  0  0
    9.9333  -15.3412   24.6007 C   0  0  1  0  0  0  0  0  0  0  0  0
    8.5766  -15.3094   23.9321 C   0  0  0  0  0  0  0  0  0  0  0  0
    7.4845  -14.8563   24.8005 C   0  0  0  0  0  0  0  0  0  0  0  0
    6.3787  -15.5742   25.2389 C   0  0  0  0  0  0  0  0  0  0  0  0
    5.6542  -14.7920   26.0420 N   0  0  0  0  0  0  0  0  0  0  0  0
    6.2302  -13.5574   26.1674 C   0  0  0  0  0  0  0  0  0  0  0  0
    5.8467  -12.4377   26.8742 C   0  0  0  0  0  0  0  0  0  0  0  0
    6.6139  -11.2965   26.8233 C   0  0  0  0  0  0  0  0  0  0  0  0
    7.7525  -11.3147   26.0570 C   0  0  0  0  0  0  0  0  0  0  0  0
    8.1174  -12.4375   25.3615 C   0  0  0  0  0  0  0  0  0  0  0  0
    7.3722  -13.6239   25.3810 C   0  0  0  0  0  0  0  0  0  0  0  0
   10.0013  -16.5938   25.3968 C   0  0  0  0  0  0  0  0  0  0  0  0
    9.9363  -17.6883   24.7811 O   0  0  0  0  0  0  0  0  0  0  0  0
   10.1331  -16.5788   26.7842 O   0  0  0  0  0  0  0  0  0  0  0  0
  2  1  1  1
  2  3  1  0
  2  4  1  0
  4  5  1  6
  6 11  1  0
  6  4  1  0
  7  6  2  0
  9  8  1  0
 10 11  1  0
 10  9  1  6
 12 10  1  0
 13 12  2  0
 14 12  1  0
 15 16  1  6
 15 14  1  0
 17 16  1  0
 18 17  2  0
 19 20  1  0
 19 18  1  0
 20 25  2  0
 21 20  1  0
 21 22  2  0
 22 23  1  0
 23 24  2  0
 25 17  1  0
 25 24  1  0
 26 15  1  0
 27 26  2  0
 28 26  1  0
M  END
$$$$
