VSW.pdb
     RDKit          3D

 28 29  0  0  1  0  0  0  0  0999 V2000
    9.3065  -12.8910   20.7226 C   0  0  0  0  0  0  0  0  0  0  0  0
    8.0130  -13.3421   20.1002 C   0  0  1  0  0  0  0  0  0  0  0  0
    7.7042  -12.4071   18.9533 C   0  0  0  0  0  0  0  0  0  0  0  0
    8.0671  -14.7678   19.6163 C   0  0  2  0  0  0  0  0  0  0  0  0
    6.9170  -15.0662   18.8013 N   0  0  0  0  0  0  0  0  0  0  0  0
    8.2350  -15.7442   20.7255 C   0  0  0  0  0  0  0  0  0  0  0  0
    7.3307  -15.9181   21.5662 O   0  0  0  0  0  0  0  0  0  0  0  0
   11.9325  -17.7321   21.1908 O   0  0  0  0  0  0  0  0  0  0  0  0
   10.7732  -18.4086   21.6300 C   0  0  0  0  0  0  0  0  0  0  0  0
    9.6697  -17.4334   21.9242 C   0  0  2  0  0  0  0  0  0  0  0  0
    9.4148  -16.5048   20.8670 N   0  0  0  0  0  0  0  0  0  0  0  0
   10.1205  -16.6491   23.1180 C   0  0  0  0  0  0  0  0  0  0  0  0
   10.8773  -15.6427   23.0015 O   0  0  0  0  0  0  0  0  0  0  0  0
    9.7209  -16.9969   24.4365 N   0  0  0  0  0  0  0  0  0  0  0  0
   10.3599  -16.3975   25.5824 C   0  0  1  0  0  0  0  0  0  0  0  0
    9.9094  -14.9747   25.8304 C   0  0  0  0  0  0  0  0  0  0  0  0
    8.4547  -14.8075   25.9205 C   0  0  0  0  0  0  0  0  0  0  0  0
    7.4690  -15.7825   25.8315 C   0  0  0  0  0  0  0  0  0  0  0  0
    6.2793  -15.2022   26.0042 N   0  0  0  0  0  0  0  0  0  0  0  0
    6.4197  -13.8567   26.2086 C   0  0  0  0  0  0  0  0  0  0  0  0
    5.4885  -12.8630   26.4227 C   0  0  0  0  0  0  0  0  0  0  0  0
    5.8996  -11.5610   26.5933 C   0  0  0  0  0  0  0  0  0  0  0  0
    7.2451  -11.2943   26.5428 C   0  0  0  0  0  0  0  0  0  0  0  0
    8.1557  -12.2957   26.3291 C   0  0  0  0  0  0  0  0  0  0  0  0
    7.7890  -13.6362   26.1509 C   0  0  0  0  0  0  0  0  0  0  0  0
   10.0466  -17.1772   26.8077 C   0  0  0  0  0  0  0  0  0  0  0  0
   10.5202  -16.7740   27.9007 O   0  0  0  0  0  0  0  0  0  0  0  0
    9.2543  -18.3232   26.7694 O   0  0  0  0  0  0  0  0  0  0  0  0
  2  1  1  6
  2  3  1  0
  2  4  1  0
  4  5  1  1
  6 11  1  0
  6  4  1  0
  7  6  2  0
  9  8  1  0
 10 11  1  0
 10  9  1  6
 12 10  1  0
 13 12  2  0
 14 12  1  0
 15 16  1  1
 15 14  1  0
 17 16  1  0
 18 17  2  0
 19 20  1  0
 19 18  1  0
 20 25  2  0
 21 20  1  0
 21 22  2  0
 22 23  1  0
 23 24  2  0
 25 17  1  0
 25 24  1  0
 26 15  1  0
 27 26  2  0
 28 26  1  0
M  END
$$$$
