VSW.pdb
     RDKit          3D

 28 29  0  0  1  0  0  0  0  0999 V2000
   12.8744  -21.3773   18.6912 C   0  0  0  0  0  0  0  0  0  0  0  0
   12.4622  -20.0323   19.2250 C   0  0  1  0  0  0  0  0  0  0  0  0
   13.7187  -19.2229   19.4516 C   0  0  0  0  0  0  0  0  0  0  0  0
   11.5260  -19.3014   18.2980 C   0  0  2  0  0  0  0  0  0  0  0  0
   12.1238  -19.1512   16.9956 N   0  0  0  0  0  0  0  0  0  0  0  0
   11.0655  -18.0016   18.8552 C   0  0  0  0  0  0  0  0  0  0  0  0
   11.4570  -16.9228   18.3678 O   0  0  0  0  0  0  0  0  0  0  0  0
    7.5027  -17.6316   20.7128 O   0  0  0  0  0  0  0  0  0  0  0  0
    8.2524  -16.4756   20.4029 C   0  0  0  0  0  0  0  0  0  0  0  0
    9.7218  -16.7360   20.5702 C   0  0  2  0  0  0  0  0  0  0  0  0
   10.1751  -17.9411   19.9479 N   0  0  0  0  0  0  0  0  0  0  0  0
    9.9508  -16.8727   22.0440 C   0  0  0  0  0  0  0  0  0  0  0  0
    9.7913  -17.9771   22.6391 O   0  0  0  0  0  0  0  0  0  0  0  0
   10.3572  -15.7706   22.8438 N   0  0  0  0  0  0  0  0  0  0  0  0
    9.5644  -15.3467   23.9718 C   0  0  1  0  0  0  0  0  0  0  0  0
    8.1683  -14.9146   23.5810 C   0  0  0  0  0  0  0  0  0  0  0  0
    7.3011  -14.5729   24.7140 C   0  0  0  0  0  0  0  0  0  0  0  0
    6.4293  -15.4002   25.4110 C   0  0  0  0  0  0  0  0  0  0  0  0
    5.8638  -14.6931   26.3917 N   0  0  0  0  0  0  0  0  0  0  0  0
    6.3216  -13.4038   26.3880 C   0  0  0  0  0  0  0  0  0  0  0  0
    6.0231  -12.3259   27.1937 C   0  0  0  0  0  0  0  0  0  0  0  0
    6.6279  -11.1107   26.9679 C   0  0  0  0  0  0  0  0  0  0  0  0
    7.5214  -11.0142   25.9305 C   0  0  0  0  0  0  0  0  0  0  0  0
    7.8053  -12.0972   25.1405 C   0  0  0  0  0  0  0  0  0  0  0  0
    7.2181  -13.3553   25.3293 C   0  0  0  0  0  0  0  0  0  0  0  0
    9.4232  -16.4611   24.9443 C   0  0  0  0  0  0  0  0  0  0  0  0
    8.8598  -17.5158   24.5551 O   0  0  0  0  0  0  0  0  0  0  0  0
    9.8935  -16.3615   26.2525 O   0  0  0  0  0  0  0  0  0  0  0  0
  2  1  1  6
  2  3  1  0
  2  4  1  0
  4  5  1  6
  6 11  1  0
  6  4  1  0
  7  6  2  0
  9  8  1  0
 10 11  1  0
 10  9  1  1
 12 10  1  0
 13 12  2  0
 14 12  1  0
 15 16  1  6
 15 14  1  0
 17 16  1  0
 18 17  2  0
 19 20  1  0
 19 18  1  0
 20 25  2  0
 21 20  1  0
 21 22  2  0
 22 23  1  0
 23 24  2  0
 25 17  1  0
 25 24  1  0
 26 15  1  0
 27 26  2  0
 28 26  1  0
M  END
$$$$
