VSW.pdb
     RDKit          3D

 28 29  0  0  1  0  0  0  0  0999 V2000
    8.5529  -12.7370   21.2105 C   0  0  0  0  0  0  0  0  0  0  0  0
    7.7341  -13.3624   20.1140 C   0  0  1  0  0  0  0  0  0  0  0  0
    7.6690  -12.3767   18.9698 C   0  0  0  0  0  0  0  0  0  0  0  0
    8.3002  -14.6771   19.6439 C   0  0  2  0  0  0  0  0  0  0  0  0
    7.6207  -15.1201   18.4530 N   0  0  0  0  0  0  0  0  0  0  0  0
    8.2983  -15.7160   20.7081 C   0  0  0  0  0  0  0  0  0  0  0  0
    7.2413  -16.2870   21.0419 O   0  0  0  0  0  0  0  0  0  0  0  0
   11.8135  -17.5526   21.6559 O   0  0  0  0  0  0  0  0  0  0  0  0
   10.6156  -18.1496   22.1067 C   0  0  0  0  0  0  0  0  0  0  0  0
    9.5727  -17.1044   22.3805 C   0  0  2  0  0  0  0  0  0  0  0  0
    9.4836  -16.0918   21.3747 N   0  0  0  0  0  0  0  0  0  0  0  0
    9.9817  -16.4394   23.6587 C   0  0  0  0  0  0  0  0  0  0  0  0
   10.7658  -15.4473   23.6674 O   0  0  0  0  0  0  0  0  0  0  0  0
    9.5098  -16.8899   24.9212 N   0  0  0  0  0  0  0  0  0  0  0  0
   10.1129  -16.4192   26.1440 C   0  0  1  0  0  0  0  0  0  0  0  0
    9.0951  -15.9475   27.1590 C   0  0  0  0  0  0  0  0  0  0  0  0
    7.8911  -15.3467   26.5743 C   0  0  0  0  0  0  0  0  0  0  0  0
    6.8097  -15.9876   25.9826 C   0  0  0  0  0  0  0  0  0  0  0  0
    5.9160  -15.0656   25.6176 N   0  0  0  0  0  0  0  0  0  0  0  0
    6.3529  -13.8101   25.9410 C   0  0  0  0  0  0  0  0  0  0  0  0
    5.7830  -12.5686   25.7561 C   0  0  0  0  0  0  0  0  0  0  0  0
    6.4480  -11.4382   26.1725 C   0  0  0  0  0  0  0  0  0  0  0  0
    7.6759  -11.5905   26.7666 C   0  0  0  0  0  0  0  0  0  0  0  0
    8.2260  -12.8331   26.9418 C   0  0  0  0  0  0  0  0  0  0  0  0
    7.5898  -14.0141   26.5370 C   0  0  0  0  0  0  0  0  0  0  0  0
   10.8949  -17.5104   26.7807 C   0  0  0  0  0  0  0  0  0  0  0  0
   10.7980  -18.6663   26.2951 O   0  0  0  0  0  0  0  0  0  0  0  0
   11.7166  -17.2817   27.8830 O   0  0  0  0  0  0  0  0  0  0  0  0
  2  1  1  1
  2  3  1  0
  2  4  1  0
  4  5  1  6
  6 11  1  0
  6  4  1  0
  7  6  2  0
  9  8  1  0
 10 11  1  0
 10  9  1  6
 12 10  1  0
 13 12  2  0
 14 12  1  0
 15 16  1  1
 15 14  1  0
 17 16  1  0
 18 17  2  0
 19 20  1  0
 19 18  1  0
 20 25  2  0
 21 20  1  0
 21 22  2  0
 22 23  1  0
 23 24  2  0
 25 17  1  0
 25 24  1  0
 26 15  1  0
 27 26  2  0
 28 26  1  0
M  END
$$$$
