VSW.pdb
     RDKit          3D

 28 29  0  0  1  0  0  0  0  0999 V2000
    8.6171  -12.7190   20.8810 C   0  0  0  0  0  0  0  0  0  0  0  0
    7.8078  -13.2240   19.7174 C   0  0  1  0  0  0  0  0  0  0  0  0
    7.8243  -12.1558   18.6480 C   0  0  0  0  0  0  0  0  0  0  0  0
    8.3299  -14.5261   19.1681 C   0  0  2  0  0  0  0  0  0  0  0  0
    7.6564  -14.8592   17.9387 N   0  0  0  0  0  0  0  0  0  0  0  0
    8.2660  -15.6336   20.1586 C   0  0  0  0  0  0  0  0  0  0  0  0
    7.2027  -16.2543   20.3556 O   0  0  0  0  0  0  0  0  0  0  0  0
   11.4653  -17.8704   20.9151 O   0  0  0  0  0  0  0  0  0  0  0  0
   10.2262  -18.2693   21.4629 C   0  0  0  0  0  0  0  0  0  0  0  0
    9.4193  -17.0720   21.8760 C   0  0  2  0  0  0  0  0  0  0  0  0
    9.3977  -16.0207   20.9070 N   0  0  0  0  0  0  0  0  0  0  0  0
   10.0777  -16.5376   23.1106 C   0  0  0  0  0  0  0  0  0  0  0  0
   11.1502  -15.8701   23.0527 O   0  0  0  0  0  0  0  0  0  0  0  0
    9.5307  -16.7541   24.4042 N   0  0  0  0  0  0  0  0  0  0  0  0
   10.3111  -16.4891   25.5880 C   0  0  1  0  0  0  0  0  0  0  0  0
    9.7873  -15.3170   26.3883 C   0  0  0  0  0  0  0  0  0  0  0  0
    8.3633  -15.0311   26.1814 C   0  0  0  0  0  0  0  0  0  0  0  0
    7.3336  -15.9278   25.9246 C   0  0  0  0  0  0  0  0  0  0  0  0
    6.1881  -15.2478   25.8399 N   0  0  0  0  0  0  0  0  0  0  0  0
    6.4015  -13.9100   26.0306 C   0  0  0  0  0  0  0  0  0  0  0  0
    5.5360  -12.8370   26.0266 C   0  0  0  0  0  0  0  0  0  0  0  0
    6.0168  -11.5653   26.2394 C   0  0  0  0  0  0  0  0  0  0  0  0
    7.3638  -11.4088   26.4512 C   0  0  0  0  0  0  0  0  0  0  0  0
    8.2084  -12.4877   26.4517 C   0  0  0  0  0  0  0  0  0  0  0  0
    7.7692  -13.8016   26.2413 C   0  0  0  0  0  0  0  0  0  0  0  0
   10.2975  -17.6740   26.4843 C   0  0  0  0  0  0  0  0  0  0  0  0
   11.0527  -17.6618   27.4898 O   0  0  0  0  0  0  0  0  0  0  0  0
    9.4807  -18.7758   26.2368 O   0  0  0  0  0  0  0  0  0  0  0  0
  2  1  1  1
  2  3  1  0
  2  4  1  0
  4  5  1  6
  6 11  1  0
  6  4  1  0
  7  6  2  0
  9  8  1  0
 10 11  1  0
 10  9  1  6
 12 10  1  0
 13 12  2  0
 14 12  1  0
 15 16  1  1
 15 14  1  0
 17 16  1  0
 18 17  2  0
 19 20  1  0
 19 18  1  0
 20 25  2  0
 21 20  1  0
 21 22  2  0
 22 23  1  0
 23 24  2  0
 25 17  1  0
 25 24  1  0
 26 15  1  0
 27 26  2  0
 28 26  1  0
M  END
$$$$
