LMK.pdb
     RDKit          3D

 26 25  0  0  1  0  0  0  0  0999 V2000
    7.5135  -13.1941   21.2130 C   0  0  0  0  0  0  0  0  0  0  0  0
    7.7972  -13.7222   19.8382 C   0  0  1  0  0  0  0  0  0  0  0  0
    7.9316  -12.5966   18.8470 C   0  0  0  0  0  0  0  0  0  0  0  0
    8.9634  -14.6739   19.7817 C   0  0  0  0  0  0  0  0  0  0  0  0
    8.6998  -15.8083   20.7241 C   0  0  2  0  0  0  0  0  0  0  0  0
    7.3591  -16.3071   20.5747 N   0  0  0  0  0  0  0  0  0  0  0  0
    8.9561  -15.4648   22.1376 C   0  0  0  0  0  0  0  0  0  0  0  0
   10.0591  -15.0165   22.5468 O   0  0  0  0  0  0  0  0  0  0  0  0
    7.5374  -11.7159   28.0991 C   0  0  0  0  0  0  0  0  0  0  0  0
    7.7954  -12.5004   26.5016 S   0  0  0  0  0  0  0  0  0  0  0  0
    6.7930  -13.9938   26.2957 C   0  0  0  0  0  0  0  0  0  0  0  0
    6.8862  -14.6219   24.9691 C   0  0  0  0  0  0  0  0  0  0  0  0
    8.1430  -15.2752   24.5367 C   0  0  2  0  0  0  0  0  0  0  0  0
    7.9400  -15.6339   23.1050 N   0  0  0  0  0  0  0  0  0  0  0  0
    8.5724  -16.4815   25.2424 C   0  0  0  0  0  0  0  0  0  0  0  0
    7.8724  -17.5383   25.3040 O   0  0  0  0  0  0  0  0  0  0  0  0
    9.8431  -16.5321   25.9050 N   0  0  0  0  0  0  0  0  0  0  0  0
   10.2067  -17.7904   26.5945 C   0  0  1  0  0  0  0  0  0  0  0  0
   11.5940  -18.0998   25.9702 C   0  0  0  0  0  0  0  0  0  0  0  0
   11.4894  -18.7863   24.6544 C   0  0  0  0  0  0  0  0  0  0  0  0
   12.8480  -19.0336   24.0253 C   0  0  0  0  0  0  0  0  0  0  0  0
   12.7227  -19.8253   22.7411 C   0  0  0  0  0  0  0  0  0  0  0  0
   14.0439  -20.0929   22.2079 N   0  0  0  0  0  0  0  0  0  0  0  0
   10.4565  -17.5926   28.0298 C   0  0  0  0  0  0  0  0  0  0  0  0
   10.7050  -18.6982   28.8272 O   0  0  0  0  0  0  0  0  0  0  0  0
   10.4638  -16.4848   28.6163 O   0  0  0  0  0  0  0  0  0  0  0  0
  2  1  1  1
  3  2  1  0
  4  2  1  0
  5  4  1  0
  5  6  1  1
  7  8  2  0
  7  5  1  0
 10  9  1  0
 11 12  1  0
 11 10  1  0
 13 12  1  1
 13 14  1  0
 14  7  1  0
 15 13  1  0
 15 16  2  0
 17 15  1  0
 18 19  1  6
 18 24  1  0
 18 17  1  0
 20 21  1  0
 20 19  1  0
 22 23  1  0
 22 21  1  0
 24 25  1  0
 26 24  2  0
M  END
$$$$
