LMK.pdb
     RDKit          3D

 26 25  0  0  1  0  0  0  0  0999 V2000
    9.0363  -12.1576   20.3590 C   0  0  0  0  0  0  0  0  0  0  0  0
    8.2262  -13.4176   20.2840 C   0  0  1  0  0  0  0  0  0  0  0  0
    7.0084  -13.2233   19.4198 C   0  0  0  0  0  0  0  0  0  0  0  0
    9.0241  -14.6297   19.8805 C   0  0  0  0  0  0  0  0  0  0  0  0
    8.7399  -15.7336   20.8527 C   0  0  2  0  0  0  0  0  0  0  0  0
    7.3528  -16.1120   20.8183 N   0  0  0  0  0  0  0  0  0  0  0  0
    9.1408  -15.4100   22.2371 C   0  0  0  0  0  0  0  0  0  0  0  0
   10.3033  -15.0394   22.5471 O   0  0  0  0  0  0  0  0  0  0  0  0
    6.7167  -10.9216   26.2661 C   0  0  0  0  0  0  0  0  0  0  0  0
    6.2350  -12.5243   26.9245 S   0  0  0  0  0  0  0  0  0  0  0  0
    7.4582  -13.8115   26.5719 C   0  0  0  0  0  0  0  0  0  0  0  0
    7.4587  -14.2992   25.1844 C   0  0  0  0  0  0  0  0  0  0  0  0
    8.5539  -15.1686   24.6967 C   0  0  2  0  0  0  0  0  0  0  0  0
    8.2031  -15.5095   23.2895 N   0  0  0  0  0  0  0  0  0  0  0  0
    8.8113  -16.4197   25.4081 C   0  0  0  0  0  0  0  0  0  0  0  0
    7.9246  -17.3076   25.5978 O   0  0  0  0  0  0  0  0  0  0  0  0
   10.1148  -16.7148   25.9278 N   0  0  0  0  0  0  0  0  0  0  0  0
   10.2805  -17.9744   26.6874 C   0  0  1  0  0  0  0  0  0  0  0  0
   11.6761  -18.4510   26.2024 C   0  0  0  0  0  0  0  0  0  0  0  0
   11.7262  -18.6728   24.7321 C   0  0  0  0  0  0  0  0  0  0  0  0
   13.0627  -19.2313   24.2801 C   0  0  0  0  0  0  0  0  0  0  0  0
   13.0830  -19.4646   22.7846 C   0  0  0  0  0  0  0  0  0  0  0  0
   14.3647  -20.0224   22.4001 N   0  0  0  0  0  0  0  0  0  0  0  0
   10.4236  -17.7443   28.1325 C   0  0  0  0  0  0  0  0  0  0  0  0
   10.3843  -18.8297   28.9928 O   0  0  0  0  0  0  0  0  0  0  0  0
   10.5805  -16.6247   28.6741 O   0  0  0  0  0  0  0  0  0  0  0  0
  2  1  1  6
  3  2  1  0
  4  2  1  0
  5  4  1  0
  5  6  1  1
  7  8  2  0
  7  5  1  0
 10  9  1  0
 11 12  1  0
 11 10  1  0
 13 12  1  1
 13 14  1  0
 14  7  1  0
 15 13  1  0
 15 16  2  0
 17 15  1  0
 18 19  1  6
 18 24  1  0
 18 17  1  0
 20 21  1  0
 20 19  1  0
 22 23  1  0
 22 21  1  0
 24 25  1  0
 26 24  2  0
M  END
$$$$
