LMK.pdb
     RDKit          3D

 26 25  0  0  1  0  0  0  0  0999 V2000
    7.3152  -12.1510   18.8012 C   0  0  0  0  0  0  0  0  0  0  0  0
    7.8138  -13.4446   19.3737 C   0  0  1  0  0  0  0  0  0  0  0  0
    9.0234  -13.9344   18.6224 C   0  0  0  0  0  0  0  0  0  0  0  0
    8.0457  -13.4011   20.8614 C   0  0  0  0  0  0  0  0  0  0  0  0
    8.4742  -14.7622   21.3176 C   0  0  2  0  0  0  0  0  0  0  0  0
    7.4861  -15.7548   20.9909 N   0  0  0  0  0  0  0  0  0  0  0  0
    8.7922  -14.8217   22.7589 C   0  0  0  0  0  0  0  0  0  0  0  0
    9.8707  -14.3891   23.2432 O   0  0  0  0  0  0  0  0  0  0  0  0
    6.1517  -11.3273   27.8254 C   0  0  0  0  0  0  0  0  0  0  0  0
    7.3345  -12.4561   27.0765 S   0  0  0  0  0  0  0  0  0  0  0  0
    6.6156  -13.4045   25.7123 C   0  0  0  0  0  0  0  0  0  0  0  0
    6.8853  -14.8497   25.7556 C   0  0  0  0  0  0  0  0  0  0  0  0
    8.1125  -15.4013   25.1369 C   0  0  2  0  0  0  0  0  0  0  0  0
    7.8671  -15.3836   23.6675 N   0  0  0  0  0  0  0  0  0  0  0  0
    8.5224  -16.7557   25.5046 C   0  0  0  0  0  0  0  0  0  0  0  0
    7.7131  -17.7299   25.5858 O   0  0  0  0  0  0  0  0  0  0  0  0
    9.8958  -17.0568   25.7864 N   0  0  0  0  0  0  0  0  0  0  0  0
   10.2140  -18.4212   26.2638 C   0  0  1  0  0  0  0  0  0  0  0  0
   11.3071  -18.8597   25.2522 C   0  0  0  0  0  0  0  0  0  0  0  0
   10.9174  -18.5996   23.8400 C   0  0  0  0  0  0  0  0  0  0  0  0
   11.9495  -19.1157   22.8546 C   0  0  0  0  0  0  0  0  0  0  0  0
   11.5238  -18.8536   21.4257 C   0  0  0  0  0  0  0  0  0  0  0  0
   12.5429  -19.3461   20.5200 N   0  0  0  0  0  0  0  0  0  0  0  0
   10.8733  -18.4171   27.5779 C   0  0  0  0  0  0  0  0  0  0  0  0
   11.0753  -19.6218   28.2321 O   0  0  0  0  0  0  0  0  0  0  0  0
   11.2794  -17.3952   28.1798 O   0  0  0  0  0  0  0  0  0  0  0  0
  2  1  1  6
  3  2  1  0
  4  2  1  0
  5  4  1  0
  5  6  1  1
  7  8  2  0
  7  5  1  0
 10  9  1  0
 11 12  1  0
 11 10  1  0
 13 12  1  1
 13 14  1  0
 14  7  1  0
 15 13  1  0
 15 16  2  0
 17 15  1  0
 18 19  1  6
 18 24  1  0
 18 17  1  0
 20 21  1  0
 20 19  1  0
 22 23  1  0
 22 21  1  0
 24 25  1  0
 26 24  2  0
M  END
$$$$
