LMK.pdb
     RDKit          3D

 26 25  0  0  1  0  0  0  0  0999 V2000
    8.8023  -13.3461   18.4680 C   0  0  0  0  0  0  0  0  0  0  0  0
    8.3523  -13.1727   19.8882 C   0  0  1  0  0  0  0  0  0  0  0  0
    8.0543  -11.7268   20.1851 C   0  0  0  0  0  0  0  0  0  0  0  0
    7.2168  -14.0812   20.2809 C   0  0  0  0  0  0  0  0  0  0  0  0
    7.7896  -15.3350   20.8675 C   0  0  2  0  0  0  0  0  0  0  0  0
    6.7697  -16.3295   21.0648 N   0  0  0  0  0  0  0  0  0  0  0  0
    8.5234  -15.1072   22.1291 C   0  0  0  0  0  0  0  0  0  0  0  0
    9.7706  -14.9427   22.1787 O   0  0  0  0  0  0  0  0  0  0  0  0
    6.1579  -11.2279   26.3091 C   0  0  0  0  0  0  0  0  0  0  0  0
    6.9867  -12.2549   27.5308 S   0  0  0  0  0  0  0  0  0  0  0  0
    8.0749  -13.4874   26.7730 C   0  0  0  0  0  0  0  0  0  0  0  0
    7.6863  -13.9036   25.4170 C   0  0  0  0  0  0  0  0  0  0  0  0
    8.5262  -14.8575   24.6570 C   0  0  2  0  0  0  0  0  0  0  0  0
    7.8270  -15.0655   23.3580 N   0  0  0  0  0  0  0  0  0  0  0  0
    8.7799  -16.1729   25.2429 C   0  0  0  0  0  0  0  0  0  0  0  0
    7.8810  -17.0578   25.3825 O   0  0  0  0  0  0  0  0  0  0  0  0
   10.0933  -16.5382   25.6876 N   0  0  0  0  0  0  0  0  0  0  0  0
   10.2623  -17.8757   26.2988 C   0  0  1  0  0  0  0  0  0  0  0  0
   11.4699  -18.4349   25.4993 C   0  0  0  0  0  0  0  0  0  0  0  0
   11.9289  -19.7565   26.0055 C   0  0  0  0  0  0  0  0  0  0  0  0
   13.1626  -20.2547   25.2757 C   0  0  0  0  0  0  0  0  0  0  0  0
   13.5495  -21.6438   25.7361 C   0  0  0  0  0  0  0  0  0  0  0  0
   14.7130  -22.0913   24.9961 N   0  0  0  0  0  0  0  0  0  0  0  0
   10.7156  -17.8018   27.6955 C   0  0  0  0  0  0  0  0  0  0  0  0
   11.0103  -16.5629   28.2416 O   0  0  0  0  0  0  0  0  0  0  0  0
   10.8664  -18.7841   28.4595 O   0  0  0  0  0  0  0  0  0  0  0  0
  2  1  1  6
  3  2  1  0
  4  2  1  0
  5  4  1  0
  5  6  1  1
  7  8  2  0
  7  5  1  0
 10  9  1  0
 11 12  1  0
 11 10  1  0
 13 12  1  1
 13 14  1  0
 14  7  1  0
 15 13  1  0
 15 16  2  0
 17 15  1  0
 18 19  1  6
 18 24  1  0
 18 17  1  0
 20 21  1  0
 20 19  1  0
 22 23  1  0
 22 21  1  0
 24 25  1  0
 26 24  2  0
M  END
$$$$
