LMK.pdb
     RDKit          3D

 26 25  0  0  1  0  0  0  0  0999 V2000
    7.5418  -11.9610   18.5289 C   0  0  0  0  0  0  0  0  0  0  0  0
    7.7073  -13.3693   19.0178 C   0  0  1  0  0  0  0  0  0  0  0  0
    7.8975  -14.3197   17.8654 C   0  0  0  0  0  0  0  0  0  0  0  0
    8.7754  -13.5260   20.0683 C   0  0  0  0  0  0  0  0  0  0  0  0
    8.5534  -14.8228   20.7849 C   0  0  2  0  0  0  0  0  0  0  0  0
    7.2051  -15.2905   20.6072 N   0  0  0  0  0  0  0  0  0  0  0  0
    8.8797  -14.7580   22.2241 C   0  0  0  0  0  0  0  0  0  0  0  0
   10.0367  -14.5135   22.6561 O   0  0  0  0  0  0  0  0  0  0  0  0
    8.9834  -12.7231   28.4868 C   0  0  0  0  0  0  0  0  0  0  0  0
    7.8049  -12.4488   27.1564 S   0  0  0  0  0  0  0  0  0  0  0  0
    6.9216  -13.9599   26.6938 C   0  0  0  0  0  0  0  0  0  0  0  0
    6.9506  -14.2769   25.2580 C   0  0  0  0  0  0  0  0  0  0  0  0
    8.1497  -14.9007   24.6529 C   0  0  2  0  0  0  0  0  0  0  0  0
    7.8724  -14.9751   23.1910 N   0  0  0  0  0  0  0  0  0  0  0  0
    8.5341  -16.2377   25.1029 C   0  0  0  0  0  0  0  0  0  0  0  0
    7.7047  -17.1861   25.2550 O   0  0  0  0  0  0  0  0  0  0  0  0
    9.9038  -16.5511   25.3893 N   0  0  0  0  0  0  0  0  0  0  0  0
   10.2440  -17.9697   25.6399 C   0  0  1  0  0  0  0  0  0  0  0  0
   11.4596  -18.1715   24.6955 C   0  0  0  0  0  0  0  0  0  0  0  0
   12.0555  -19.5298   24.8117 C   0  0  0  0  0  0  0  0  0  0  0  0
   13.2180  -19.7311   23.8575 C   0  0  0  0  0  0  0  0  0  0  0  0
   13.7421  -21.1498   23.9220 C   0  0  0  0  0  0  0  0  0  0  0  0
   14.9253  -21.2658   23.0924 N   0  0  0  0  0  0  0  0  0  0  0  0
   10.7602  -18.1920   26.9985 C   0  0  0  0  0  0  0  0  0  0  0  0
   11.0385  -17.0960   27.7992 O   0  0  0  0  0  0  0  0  0  0  0  0
   10.9801  -19.3134   27.5137 O   0  0  0  0  0  0  0  0  0  0  0  0
  2  1  1  6
  3  2  1  0
  4  2  1  0
  5  4  1  0
  5  6  1  1
  7  8  2  0
  7  5  1  0
 10  9  1  0
 11 12  1  0
 11 10  1  0
 13 12  1  1
 13 14  1  0
 14  7  1  0
 15 13  1  0
 15 16  2  0
 17 15  1  0
 18 19  1  6
 18 24  1  0
 18 17  1  0
 20 21  1  0
 20 19  1  0
 22 23  1  0
 22 21  1  0
 24 25  1  0
 26 24  2  0
M  END
$$$$
