LMK.pdb
     RDKit          3D

 26 25  0  0  1  0  0  0  0  0999 V2000
    7.8305  -12.0683   18.6468 C   0  0  0  0  0  0  0  0  0  0  0  0
    7.8520  -13.4846   19.1399 C   0  0  1  0  0  0  0  0  0  0  0  0
    7.6869  -14.4537   17.9993 C   0  0  0  0  0  0  0  0  0  0  0  0
    9.0467  -13.8113   19.9972 C   0  0  0  0  0  0  0  0  0  0  0  0
    8.7766  -15.0934   20.7237 C   0  0  2  0  0  0  0  0  0  0  0  0
    7.3993  -15.4856   20.5910 N   0  0  0  0  0  0  0  0  0  0  0  0
    9.1527  -15.0459   22.1514 C   0  0  0  0  0  0  0  0  0  0  0  0
   10.3446  -14.9496   22.5452 O   0  0  0  0  0  0  0  0  0  0  0  0
    7.7655  -11.0652   27.2985 C   0  0  0  0  0  0  0  0  0  0  0  0
    6.5559  -12.3820   27.1063 S   0  0  0  0  0  0  0  0  0  0  0  0
    7.3178  -13.9570   26.6411 C   0  0  0  0  0  0  0  0  0  0  0  0
    7.3527  -14.2225   25.1949 C   0  0  0  0  0  0  0  0  0  0  0  0
    8.4782  -14.9786   24.5994 C   0  0  2  0  0  0  0  0  0  0  0  0
    8.1557  -15.1091   23.1508 N   0  0  0  0  0  0  0  0  0  0  0  0
    8.7611  -16.3169   25.1159 C   0  0  0  0  0  0  0  0  0  0  0  0
    7.9551  -17.2908   25.0042 O   0  0  0  0  0  0  0  0  0  0  0  0
    9.9999  -16.6017   25.7795 N   0  0  0  0  0  0  0  0  0  0  0  0
   10.2509  -18.0013   26.1907 C   0  0  1  0  0  0  0  0  0  0  0  0
   11.6627  -18.2537   25.5963 C   0  0  0  0  0  0  0  0  0  0  0  0
   12.1823  -19.6116   25.9121 C   0  0  0  0  0  0  0  0  0  0  0  0
   13.5573  -19.8536   25.3175 C   0  0  0  0  0  0  0  0  0  0  0  0
   14.0308  -21.2661   25.5858 C   0  0  0  0  0  0  0  0  0  0  0  0
   15.3642  -21.4396   25.0440 N   0  0  0  0  0  0  0  0  0  0  0  0
   10.4063  -18.1400   27.6461 C   0  0  0  0  0  0  0  0  0  0  0  0
   10.2239  -19.3854   28.2256 O   0  0  0  0  0  0  0  0  0  0  0  0
   10.6948  -17.2090   28.4343 O   0  0  0  0  0  0  0  0  0  0  0  0
  2  1  1  6
  3  2  1  0
  4  2  1  0
  5  4  1  0
  5  6  1  1
  7  8  2  0
  7  5  1  0
 10  9  1  0
 11 12  1  0
 11 10  1  0
 13 12  1  1
 13 14  1  0
 14  7  1  0
 15 13  1  0
 15 16  2  0
 17 15  1  0
 18 19  1  6
 18 24  1  0
 18 17  1  0
 20 21  1  0
 20 19  1  0
 22 23  1  0
 22 21  1  0
 24 25  1  0
 26 24  2  0
M  END
$$$$
