LMK.pdb
     RDKit          3D

 26 25  0  0  1  0  0  0  0  0999 V2000
    7.2973  -13.0643   20.9574 C   0  0  0  0  0  0  0  0  0  0  0  0
    7.7452  -13.9230   19.8121 C   0  0  1  0  0  0  0  0  0  0  0  0
    7.8633  -13.1140   18.5476 C   0  0  0  0  0  0  0  0  0  0  0  0
    8.9926  -14.7168   20.0997 C   0  0  0  0  0  0  0  0  0  0  0  0
    8.6546  -15.7988   21.0792 C   0  0  2  0  0  0  0  0  0  0  0  0
    7.2536  -16.1206   21.0350 N   0  0  0  0  0  0  0  0  0  0  0  0
    9.0556  -15.4787   22.4643 C   0  0  0  0  0  0  0  0  0  0  0  0
   10.2445  -15.2298   22.7955 O   0  0  0  0  0  0  0  0  0  0  0  0
    7.5480  -11.4421   27.5733 C   0  0  0  0  0  0  0  0  0  0  0  0
    6.3704  -11.9961   26.3321 S   0  0  0  0  0  0  0  0  0  0  0  0
    7.1325  -13.0654   25.0858 C   0  0  0  0  0  0  0  0  0  0  0  0
    7.3643  -14.4513   25.5198 C   0  0  0  0  0  0  0  0  0  0  0  0
    8.4596  -15.2496   24.9229 C   0  0  2  0  0  0  0  0  0  0  0  0
    8.0875  -15.4406   23.4930 N   0  0  0  0  0  0  0  0  0  0  0  0
    8.7421  -16.5672   25.4904 C   0  0  0  0  0  0  0  0  0  0  0  0
    7.9439  -17.5496   25.4001 O   0  0  0  0  0  0  0  0  0  0  0  0
    9.9719  -16.8206   26.1830 N   0  0  0  0  0  0  0  0  0  0  0  0
   10.2104  -18.1962   26.6746 C   0  0  1  0  0  0  0  0  0  0  0  0
   11.4870  -18.5935   25.8854 C   0  0  0  0  0  0  0  0  0  0  0  0
   11.3100  -19.8476   25.1046 C   0  0  0  0  0  0  0  0  0  0  0  0
   12.5295  -20.1784   24.2642 C   0  0  0  0  0  0  0  0  0  0  0  0
   12.3605  -21.5013   23.5481 C   0  0  0  0  0  0  0  0  0  0  0  0
   13.5504  -21.7848   22.7701 N   0  0  0  0  0  0  0  0  0  0  0  0
   10.5990  -18.2267   28.0923 C   0  0  0  0  0  0  0  0  0  0  0  0
   10.7857  -19.4521   28.7115 O   0  0  0  0  0  0  0  0  0  0  0  0
   10.7803  -17.2180   28.8140 O   0  0  0  0  0  0  0  0  0  0  0  0
  2  1  1  1
  3  2  1  0
  4  2  1  0
  5  4  1  0
  5  6  1  1
  7  8  2  0
  7  5  1  0
 10  9  1  0
 11 12  1  0
 11 10  1  0
 13 12  1  1
 13 14  1  0
 14  7  1  0
 15 13  1  0
 15 16  2  0
 17 15  1  0
 18 19  1  6
 18 24  1  0
 18 17  1  0
 20 21  1  0
 20 19  1  0
 22 23  1  0
 22 21  1  0
 24 25  1  0
 26 24  2  0
M  END
$$$$
