LMK.pdb
     RDKit          3D

 26 25  0  0  1  0  0  0  0  0999 V2000
    5.7662  -11.4908   26.4333 C   0  0  0  0  0  0  0  0  0  0  0  0
    6.7466  -12.6254   26.4679 C   0  0  1  0  0  0  0  0  0  0  0  0
    7.4140  -12.7185   27.8145 C   0  0  0  0  0  0  0  0  0  0  0  0
    6.1659  -13.9435   26.0270 C   0  0  0  0  0  0  0  0  0  0  0  0
    7.2920  -14.8899   25.7428 C   0  0  2  0  0  0  0  0  0  0  0  0
    8.5596  -14.2110   25.7653 N   0  0  0  0  0  0  0  0  0  0  0  0
    7.1332  -15.6206   24.4689 C   0  0  0  0  0  0  0  0  0  0  0  0
    6.1342  -16.3417   24.2101 O   0  0  0  0  0  0  0  0  0  0  0  0
    9.0877  -12.6527   19.5154 C   0  0  0  0  0  0  0  0  0  0  0  0
    7.3412  -12.7853   19.9230 S   0  0  0  0  0  0  0  0  0  0  0  0
    6.9987  -14.1546   21.0567 C   0  0  0  0  0  0  0  0  0  0  0  0
    8.0554  -15.1750   21.1293 C   0  0  0  0  0  0  0  0  0  0  0  0
    8.0035  -16.2345   22.1627 C   0  0  2  0  0  0  0  0  0  0  0  0
    8.1285  -15.5305   23.4698 N   0  0  0  0  0  0  0  0  0  0  0  0
    9.0175  -17.2871   22.1240 C   0  0  0  0  0  0  0  0  0  0  0  0
    9.1953  -18.0457   21.1223 O   0  0  0  0  0  0  0  0  0  0  0  0
    9.8891  -17.5092   23.2408 N   0  0  0  0  0  0  0  0  0  0  0  0
   10.8154  -18.6614   23.1684 C   0  0  1  0  0  0  0  0  0  0  0  0
   12.1011  -17.9946   22.6092 C   0  0  0  0  0  0  0  0  0  0  0  0
   13.2156  -18.9633   22.4272 C   0  0  0  0  0  0  0  0  0  0  0  0
   14.4782  -18.2971   21.9130 C   0  0  0  0  0  0  0  0  0  0  0  0
   15.4789  -19.3214   21.4222 C   0  0  0  0  0  0  0  0  0  0  0  0
   16.6244  -18.6419   20.8499 N   0  0  0  0  0  0  0  0  0  0  0  0
   11.1829  -19.1712   24.4975 C   0  0  0  0  0  0  0  0  0  0  0  0
   10.6827  -18.5358   25.6228 O   0  0  0  0  0  0  0  0  0  0  0  0
   11.9300  -20.1543   24.7135 O   0  0  0  0  0  0  0  0  0  0  0  0
  2  1  1  1
  3  2  1  0
  4  2  1  0
  5  4  1  0
  5  6  1  6
  7  8  2  0
  7  5  1  0
 10  9  1  0
 11 12  1  0
 11 10  1  0
 13 12  1  6
 13 14  1  0
 14  7  1  0
 15 13  1  0
 15 16  2  0
 17 15  1  0
 18 19  1  1
 18 24  1  0
 18 17  1  0
 20 21  1  0
 20 19  1  0
 22 23  1  0
 22 21  1  0
 24 25  1  0
 26 24  2  0
M  END
$$$$
