TMF.pdb
     RDKit          3D

 27 27  0  0  1  0  0  0  0  0999 V2000
    5.3113  -20.5193   21.9770 C   0  0  0  0  0  0  0  0  0  0  0  0
    6.4248  -19.5616   22.3475 C   0  0  1  0  0  0  0  0  0  0  0  0
    7.3905  -20.1661   23.1275 O   0  0  0  0  0  0  0  0  0  0  0  0
    7.0167  -18.9442   21.0776 C   0  0  2  0  0  0  0  0  0  0  0  0
    7.4554  -20.0197   20.2538 N   0  0  0  0  0  0  0  0  0  0  0  0
    8.0878  -17.9672   21.4317 C   0  0  0  0  0  0  0  0  0  0  0  0
    9.2625  -18.3640   21.4803 O   0  0  0  0  0  0  0  0  0  0  0  0
    7.8147  -11.6356   18.4555 C   0  0  0  0  0  0  0  0  0  0  0  0
    7.5881  -12.1575   20.1550 S   0  0  0  0  0  0  0  0  0  0  0  0
    8.4033  -13.7642   20.4788 C   0  0  0  0  0  0  0  0  0  0  0  0
    8.1151  -14.1772   21.8842 C   0  0  0  0  0  0  0  0  0  0  0  0
    8.6270  -15.5918   22.1902 C   0  0  2  0  0  0  0  0  0  0  0  0
    7.7890  -16.6183   21.7083 N   0  0  0  0  0  0  0  0  0  0  0  0
    9.0626  -15.6545   23.5764 C   0  0  0  0  0  0  0  0  0  0  0  0
   10.0320  -14.9351   23.9302 O   0  0  0  0  0  0  0  0  0  0  0  0
    8.4802  -16.4698   24.5818 N   0  0  0  0  0  0  0  0  0  0  0  0
    8.9347  -16.4522   25.9835 C   0  0  1  0  0  0  0  0  0  0  0  0
    7.8244  -16.0749   26.8963 C   0  0  0  0  0  0  0  0  0  0  0  0
    7.5184  -14.6361   26.7663 C   0  0  0  0  0  0  0  0  0  0  0  0
    6.2846  -14.1702   26.3321 C   0  0  0  0  0  0  0  0  0  0  0  0
    6.0308  -12.8225   26.2268 C   0  0  0  0  0  0  0  0  0  0  0  0
    6.9711  -11.8696   26.5408 C   0  0  0  0  0  0  0  0  0  0  0  0
    8.1947  -12.3150   26.9710 C   0  0  0  0  0  0  0  0  0  0  0  0
    8.4679  -13.6589   27.0831 C   0  0  0  0  0  0  0  0  0  0  0  0
    9.4735  -17.7739   26.2859 C   0  0  0  0  0  0  0  0  0  0  0  0
   10.0407  -18.0654   27.5067 O   0  0  0  0  0  0  0  0  0  0  0  0
    9.4369  -18.6905   25.4317 O   0  0  0  0  0  0  0  0  0  0  0  0
  2  1  1  6
  2  4  1  0
  3  2  1  0
  4  6  1  0
  4  5  1  6
  6  7  2  0
  9  8  1  0
 10  9  1  0
 11 10  1  0
 12 11  1  1
 13  6  1  0
 13 12  1  0
 14 12  1  0
 14 15  2  0
 16 14  1  0
 17 16  1  0
 17 25  1  0
 17 18  1  1
 19 24  2  0
 19 18  1  0
 20 19  1  0
 21 22  1  0
 21 20  2  0
 22 23  2  0
 23 24  1  0
 25 27  2  0
 25 26  1  0
M  END
$$$$
