TMF.pdb
     RDKit          3D

 27 27  0  0  1  0  0  0  0  0999 V2000
    7.0064  -20.8139   19.9294 C   0  0  0  0  0  0  0  0  0  0  0  0
    7.6067  -19.4232   19.9260 C   0  0  1  0  0  0  0  0  0  0  0  0
    6.7976  -18.5109   19.2783 O   0  0  0  0  0  0  0  0  0  0  0  0
    7.9203  -18.9942   21.3618 C   0  0  2  0  0  0  0  0  0  0  0  0
    6.6878  -18.9850   22.0752 N   0  0  0  0  0  0  0  0  0  0  0  0
    8.6385  -17.6859   21.3625 C   0  0  0  0  0  0  0  0  0  0  0  0
    9.7927  -17.6408   20.9089 O   0  0  0  0  0  0  0  0  0  0  0  0
    6.4558  -12.7922   26.3625 C   0  0  0  0  0  0  0  0  0  0  0  0
    7.1370  -12.7055   24.7071 S   0  0  0  0  0  0  0  0  0  0  0  0
    7.0498  -14.3255   23.8590 C   0  0  0  0  0  0  0  0  0  0  0  0
    7.5610  -14.1687   22.4652 C   0  0  0  0  0  0  0  0  0  0  0  0
    8.5940  -15.2444   22.1012 C   0  0  2  0  0  0  0  0  0  0  0  0
    8.0336  -16.5164   21.8640 N   0  0  0  0  0  0  0  0  0  0  0  0
    9.7247  -15.1508   23.0113 C   0  0  0  0  0  0  0  0  0  0  0  0
   10.3413  -14.0568   23.0859 O   0  0  0  0  0  0  0  0  0  0  0  0
   10.2012  -16.2028   23.8365 N   0  0  0  0  0  0  0  0  0  0  0  0
   10.6355  -15.9887   25.2283 C   0  0  1  0  0  0  0  0  0  0  0  0
    9.5003  -15.5374   26.0745 C   0  0  0  0  0  0  0  0  0  0  0  0
    9.9442  -15.3435   27.4695 C   0  0  0  0  0  0  0  0  0  0  0  0
   10.2225  -14.0901   27.9982 C   0  0  0  0  0  0  0  0  0  0  0  0
   10.6297  -13.9441   29.3038 C   0  0  0  0  0  0  0  0  0  0  0  0
   10.7833  -15.0159   30.1513 C   0  0  0  0  0  0  0  0  0  0  0  0
   10.5121  -16.2603   29.6428 C   0  0  0  0  0  0  0  0  0  0  0  0
   10.1036  -16.4272   28.3395 C   0  0  0  0  0  0  0  0  0  0  0  0
   11.2155  -17.2402   25.7035 C   0  0  0  0  0  0  0  0  0  0  0  0
   10.7206  -18.4648   25.3131 O   0  0  0  0  0  0  0  0  0  0  0  0
   12.1901  -17.2350   26.4917 O   0  0  0  0  0  0  0  0  0  0  0  0
  2  1  1  1
  2  4  1  0
  3  2  1  0
  4  6  1  0
  4  5  1  1
  6  7  2  0
  9  8  1  0
 10  9  1  0
 11 10  1  0
 12 11  1  1
 13  6  1  0
 13 12  1  0
 14 12  1  0
 14 15  2  0
 16 14  1  0
 17 16  1  0
 17 25  1  0
 17 18  1  1
 19 24  2  0
 19 18  1  0
 20 19  1  0
 21 22  1  0
 21 20  2  0
 22 23  2  0
 23 24  1  0
 25 27  2  0
 25 26  1  0
M  END
$$$$
