TMF.pdb
     RDKit          3D

 27 27  0  0  1  0  0  0  0  0999 V2000
    7.3404  -18.8396   19.9012 C   0  0  0  0  0  0  0  0  0  0  0  0
    7.9645  -18.0505   21.0336 C   0  0  1  0  0  0  0  0  0  0  0  0
    9.0740  -18.6840   21.5571 O   0  0  0  0  0  0  0  0  0  0  0  0
    8.2858  -16.6316   20.5565 C   0  0  2  0  0  0  0  0  0  0  0  0
    9.0938  -16.7543   19.3904 N   0  0  0  0  0  0  0  0  0  0  0  0
    8.9165  -15.8486   21.6595 C   0  0  0  0  0  0  0  0  0  0  0  0
   10.1287  -15.5927   21.5895 O   0  0  0  0  0  0  0  0  0  0  0  0
    7.0927  -10.8881   26.0056 C   0  0  0  0  0  0  0  0  0  0  0  0
    6.0414  -12.3305   25.8437 S   0  0  0  0  0  0  0  0  0  0  0  0
    6.5519  -13.3790   24.4326 C   0  0  0  0  0  0  0  0  0  0  0  0
    7.4629  -14.4510   24.9325 C   0  0  0  0  0  0  0  0  0  0  0  0
    8.5961  -14.7578   23.9434 C   0  0  2  0  0  0  0  0  0  0  0  0
    8.1659  -15.4014   22.7649 N   0  0  0  0  0  0  0  0  0  0  0  0
    9.7219  -15.3285   24.6660 C   0  0  0  0  0  0  0  0  0  0  0  0
   10.4765  -14.5509   25.3051 O   0  0  0  0  0  0  0  0  0  0  0  0
   10.0492  -16.7088   24.7144 N   0  0  0  0  0  0  0  0  0  0  0  0
   11.1352  -17.2407   25.5565 C   0  0  1  0  0  0  0  0  0  0  0  0
   10.6353  -17.5816   26.9138 C   0  0  0  0  0  0  0  0  0  0  0  0
   10.2431  -16.3570   27.6398 C   0  0  0  0  0  0  0  0  0  0  0  0
    8.9165  -16.0049   27.8501 C   0  0  0  0  0  0  0  0  0  0  0  0
    8.5855  -14.8590   28.5350 C   0  0  0  0  0  0  0  0  0  0  0  0
    9.5355  -14.0057   29.0450 C   0  0  0  0  0  0  0  0  0  0  0  0
   10.8502  -14.3405   28.8447 C   0  0  0  0  0  0  0  0  0  0  0  0
   11.2017  -15.4825   28.1623 C   0  0  0  0  0  0  0  0  0  0  0  0
   11.6969  -18.3978   24.8679 C   0  0  0  0  0  0  0  0  0  0  0  0
   12.7959  -19.0701   25.3548 O   0  0  0  0  0  0  0  0  0  0  0  0
   11.1902  -18.8149   23.8000 O   0  0  0  0  0  0  0  0  0  0  0  0
  2  1  1  6
  2  4  1  0
  3  2  1  0
  4  6  1  0
  4  5  1  6
  6  7  2  0
  9  8  1  0
 10  9  1  0
 11 10  1  0
 12 11  1  1
 13  6  1  0
 13 12  1  0
 14 12  1  0
 14 15  2  0
 16 14  1  0
 17 16  1  0
 17 25  1  0
 17 18  1  1
 19 24  2  0
 19 18  1  0
 20 19  1  0
 21 22  1  0
 21 20  2  0
 22 23  2  0
 23 24  1  0
 25 27  2  0
 25 26  1  0
M  END
$$$$
