TMF.pdb
     RDKit          3D

 27 27  0  0  1  0  0  0  0  0999 V2000
   11.8086  -19.2987   21.8705 C   0  0  0  0  0  0  0  0  0  0  0  0
   12.8938  -18.3728   21.3613 C   0  0  1  0  0  0  0  0  0  0  0  0
   13.7162  -18.9938   20.4423 O   0  0  0  0  0  0  0  0  0  0  0  0
   12.2603  -17.0990   20.7956 C   0  0  2  0  0  0  0  0  0  0  0  0
   13.3134  -16.3190   20.2383 N   0  0  0  0  0  0  0  0  0  0  0  0
   11.4752  -16.4006   21.8554 C   0  0  0  0  0  0  0  0  0  0  0  0
   12.0861  -15.8721   22.7974 O   0  0  0  0  0  0  0  0  0  0  0  0
    6.7717  -11.8446   19.8362 C   0  0  0  0  0  0  0  0  0  0  0  0
    6.5540  -13.4025   20.6951 S   0  0  0  0  0  0  0  0  0  0  0  0
    8.1373  -14.0231   21.3727 C   0  0  0  0  0  0  0  0  0  0  0  0
    7.8723  -15.2635   22.1600 C   0  0  0  0  0  0  0  0  0  0  0  0
    9.1548  -15.8532   22.7635 C   0  0  2  0  0  0  0  0  0  0  0  0
   10.0687  -16.3332   21.8031 N   0  0  0  0  0  0  0  0  0  0  0  0
    8.8053  -16.7241   23.8748 C   0  0  0  0  0  0  0  0  0  0  0  0
    8.9173  -17.9671   23.7166 O   0  0  0  0  0  0  0  0  0  0  0  0
    8.3415  -16.2873   25.1432 N   0  0  0  0  0  0  0  0  0  0  0  0
    8.0344  -17.2190   26.2428 C   0  0  1  0  0  0  0  0  0  0  0  0
    7.7361  -16.4794   27.4967 C   0  0  0  0  0  0  0  0  0  0  0  0
    8.8285  -15.5363   27.8096 C   0  0  0  0  0  0  0  0  0  0  0  0
    8.7965  -14.2017   27.4276 C   0  0  0  0  0  0  0  0  0  0  0  0
    9.8292  -13.3485   27.7395 C   0  0  0  0  0  0  0  0  0  0  0  0
   10.9393  -13.7607   28.4383 C   0  0  0  0  0  0  0  0  0  0  0  0
   10.9848  -15.0764   28.8221 C   0  0  0  0  0  0  0  0  0  0  0  0
    9.9619  -15.9457   28.5199 C   0  0  0  0  0  0  0  0  0  0  0  0
    6.9157  -18.0508   25.8125 C   0  0  0  0  0  0  0  0  0  0  0  0
    6.2006  -17.7718   24.6689 O   0  0  0  0  0  0  0  0  0  0  0  0
    6.5689  -19.0526   26.4813 O   0  0  0  0  0  0  0  0  0  0  0  0
  2  1  1  6
  2  4  1  0
  3  2  1  0
  4  6  1  0
  4  5  1  1
  6  7  2  0
  9  8  1  0
 10  9  1  0
 11 10  1  0
 12 11  1  6
 13  6  1  0
 13 12  1  0
 14 12  1  0
 14 15  2  0
 16 14  1  0
 17 16  1  0
 17 25  1  0
 17 18  1  1
 19 24  2  0
 19 18  1  0
 20 19  1  0
 21 22  1  0
 21 20  2  0
 22 23  2  0
 23 24  1  0
 25 27  2  0
 25 26  1  0
M  END
$$$$
