TMF.pdb
     RDKit          3D

 27 27  0  0  1  0  0  0  0  0999 V2000
    6.4560  -19.9169   20.7323 C   0  0  0  0  0  0  0  0  0  0  0  0
    7.3703  -18.9786   21.4926 C   0  0  1  0  0  0  0  0  0  0  0  0
    8.4162  -19.6490   22.0952 O   0  0  0  0  0  0  0  0  0  0  0  0
    7.8619  -17.8696   20.5586 C   0  0  2  0  0  0  0  0  0  0  0  0
    8.4303  -18.5040   19.4175 N   0  0  0  0  0  0  0  0  0  0  0  0
    8.7981  -16.9625   21.2853 C   0  0  0  0  0  0  0  0  0  0  0  0
   10.0107  -17.2257   21.2734 O   0  0  0  0  0  0  0  0  0  0  0  0
    5.7834  -12.6947   26.5657 C   0  0  0  0  0  0  0  0  0  0  0  0
    6.9826  -12.4400   25.2583 S   0  0  0  0  0  0  0  0  0  0  0  0
    7.2704  -13.9744   24.3025 C   0  0  0  0  0  0  0  0  0  0  0  0
    8.2175  -13.6778   23.1872 C   0  0  0  0  0  0  0  0  0  0  0  0
    9.0390  -14.9092   22.7802 C   0  0  2  0  0  0  0  0  0  0  0  0
    8.3317  -15.8264   21.9760 N   0  0  0  0  0  0  0  0  0  0  0  0
    9.7470  -15.4193   23.9438 C   0  0  0  0  0  0  0  0  0  0  0  0
   10.5943  -14.6744   24.5004 O   0  0  0  0  0  0  0  0  0  0  0  0
    9.5626  -16.7050   24.5160 N   0  0  0  0  0  0  0  0  0  0  0  0
   10.2668  -17.1429   25.7342 C   0  0  1  0  0  0  0  0  0  0  0  0
    9.4171  -16.9464   26.9374 C   0  0  0  0  0  0  0  0  0  0  0  0
    9.7129  -15.6446   27.5687 C   0  0  0  0  0  0  0  0  0  0  0  0
   10.9456  -15.3518   28.1366 C   0  0  0  0  0  0  0  0  0  0  0  0
   11.1897  -14.1269   28.7126 C   0  0  0  0  0  0  0  0  0  0  0  0
   10.2405  -13.1332   28.7597 C   0  0  0  0  0  0  0  0  0  0  0  0
    9.0179  -13.4082   28.2028 C   0  0  0  0  0  0  0  0  0  0  0  0
    8.7542  -14.6273   27.6218 C   0  0  0  0  0  0  0  0  0  0  0  0
   10.6420  -18.5400   25.5450 C   0  0  0  0  0  0  0  0  0  0  0  0
   10.2608  -19.2497   24.4279 O   0  0  0  0  0  0  0  0  0  0  0  0
   11.3275  -19.1406   26.4056 O   0  0  0  0  0  0  0  0  0  0  0  0
  2  1  1  6
  2  4  1  0
  3  2  1  0
  4  6  1  0
  4  5  1  6
  6  7  2  0
  9  8  1  0
 10  9  1  0
 11 10  1  0
 12 11  1  1
 13  6  1  0
 13 12  1  0
 14 12  1  0
 14 15  2  0
 16 14  1  0
 17 16  1  0
 17 25  1  0
 17 18  1  1
 19 24  2  0
 19 18  1  0
 20 19  1  0
 21 22  1  0
 21 20  2  0
 22 23  2  0
 23 24  1  0
 25 27  2  0
 25 26  1  0
M  END
$$$$
