TMF.pdb
     RDKit          3D

 27 27  0  0  1  0  0  0  0  0999 V2000
    7.5305  -19.0074   18.4825 C   0  0  0  0  0  0  0  0  0  0  0  0
    8.1979  -17.8174   19.1404 C   0  0  1  0  0  0  0  0  0  0  0  0
    7.4770  -16.6536   18.9604 O   0  0  0  0  0  0  0  0  0  0  0  0
    8.4418  -18.1178   20.6218 C   0  0  2  0  0  0  0  0  0  0  0  0
    7.1845  -18.4687   21.1908 N   0  0  0  0  0  0  0  0  0  0  0  0
    9.1090  -16.9559   21.2791 C   0  0  0  0  0  0  0  0  0  0  0  0
   10.2321  -16.6109   20.8798 O   0  0  0  0  0  0  0  0  0  0  0  0
    6.5093  -12.0380   25.2369 C   0  0  0  0  0  0  0  0  0  0  0  0
    6.3686  -13.7317   25.8058 S   0  0  0  0  0  0  0  0  0  0  0  0
    6.9199  -14.9185   24.5256 C   0  0  0  0  0  0  0  0  0  0  0  0
    7.8842  -14.2329   23.6151 C   0  0  0  0  0  0  0  0  0  0  0  0
    8.9791  -15.1821   23.1082 C   0  0  2  0  0  0  0  0  0  0  0  0
    8.4909  -16.2538   22.3329 N   0  0  0  0  0  0  0  0  0  0  0  0
    9.8945  -15.4834   24.1976 C   0  0  0  0  0  0  0  0  0  0  0  0
   10.6557  -14.5694   24.6071 O   0  0  0  0  0  0  0  0  0  0  0  0
   10.0061  -16.7390   24.8500 N   0  0  0  0  0  0  0  0  0  0  0  0
   11.0727  -17.0397   25.8213 C   0  0  1  0  0  0  0  0  0  0  0  0
   10.5289  -17.1058   27.2026 C   0  0  0  0  0  0  0  0  0  0  0  0
   10.3481  -15.7461   27.7496 C   0  0  0  0  0  0  0  0  0  0  0  0
    9.2412  -14.9619   27.4533 C   0  0  0  0  0  0  0  0  0  0  0  0
    9.1013  -13.7007   27.9838 C   0  0  0  0  0  0  0  0  0  0  0  0
   10.0365  -13.1489   28.8274 C   0  0  0  0  0  0  0  0  0  0  0  0
   11.1354  -13.9119   29.1289 C   0  0  0  0  0  0  0  0  0  0  0  0
   11.2936  -15.1758   28.6085 C   0  0  0  0  0  0  0  0  0  0  0  0
   11.6966  -18.2936   25.4125 C   0  0  0  0  0  0  0  0  0  0  0  0
   12.7799  -18.8181   26.0820 O   0  0  0  0  0  0  0  0  0  0  0  0
   11.2601  -18.9340   24.4274 O   0  0  0  0  0  0  0  0  0  0  0  0
  2  1  1  1
  2  4  1  0
  3  2  1  0
  4  6  1  0
  4  5  1  1
  6  7  2  0
  9  8  1  0
 10  9  1  0
 11 10  1  0
 12 11  1  1
 13  6  1  0
 13 12  1  0
 14 12  1  0
 14 15  2  0
 16 14  1  0
 17 16  1  0
 17 25  1  0
 17 18  1  1
 19 24  2  0
 19 18  1  0
 20 19  1  0
 21 22  1  0
 21 20  2  0
 22 23  2  0
 23 24  1  0
 25 27  2  0
 25 26  1  0
M  END
$$$$
