TMF.pdb
     RDKit          3D

 27 27  0  0  1  0  0  0  0  0999 V2000
    5.7661  -19.5347   23.5844 C   0  0  0  0  0  0  0  0  0  0  0  0
    6.3331  -20.4461   22.5156 C   0  0  1  0  0  0  0  0  0  0  0  0
    5.5812  -21.5937   22.3605 O   0  0  0  0  0  0  0  0  0  0  0  0
    6.4767  -19.6724   21.2023 C   0  0  2  0  0  0  0  0  0  0  0  0
    6.8330  -20.6159   20.1969 N   0  0  0  0  0  0  0  0  0  0  0  0
    7.4522  -18.5551   21.3675 C   0  0  0  0  0  0  0  0  0  0  0  0
    8.6618  -18.8257   21.4285 O   0  0  0  0  0  0  0  0  0  0  0  0
    8.8683  -10.9189   20.1724 C   0  0  0  0  0  0  0  0  0  0  0  0
    7.7230  -12.2955   20.0999 S   0  0  0  0  0  0  0  0  0  0  0  0
    8.2343  -13.6544   21.2149 C   0  0  0  0  0  0  0  0  0  0  0  0
    7.2779  -14.7904   21.0615 C   0  0  0  0  0  0  0  0  0  0  0  0
    7.7602  -16.0568   21.7827 C   0  0  2  0  0  0  0  0  0  0  0  0
    7.0260  -17.2149   21.4542 N   0  0  0  0  0  0  0  0  0  0  0  0
    7.9748  -15.7554   23.1893 C   0  0  0  0  0  0  0  0  0  0  0  0
    6.9735  -15.7130   23.9497 O   0  0  0  0  0  0  0  0  0  0  0  0
    9.2357  -15.5007   23.7892 N   0  0  0  0  0  0  0  0  0  0  0  0
    9.4408  -15.5162   25.2484 C   0  0  1  0  0  0  0  0  0  0  0  0
    8.1417  -15.5935   25.9657 C   0  0  0  0  0  0  0  0  0  0  0  0
    7.5956  -14.2395   26.1877 C   0  0  0  0  0  0  0  0  0  0  0  0
    6.2322  -13.9829   26.2428 C   0  0  0  0  0  0  0  0  0  0  0  0
    5.7567  -12.7100   26.4561 C   0  0  0  0  0  0  0  0  0  0  0  0
    6.5919  -11.6308   26.6248 C   0  0  0  0  0  0  0  0  0  0  0  0
    7.9414  -11.8691   26.5727 C   0  0  0  0  0  0  0  0  0  0  0  0
    8.4367  -13.1352   26.3605 C   0  0  0  0  0  0  0  0  0  0  0  0
   10.3102  -16.6466   25.5566 C   0  0  0  0  0  0  0  0  0  0  0  0
   10.7204  -16.9180   26.8431 O   0  0  0  0  0  0  0  0  0  0  0  0
   10.7145  -17.4092   24.6477 O   0  0  0  0  0  0  0  0  0  0  0  0
  2  1  1  1
  2  4  1  0
  3  2  1  0
  4  6  1  0
  4  5  1  6
  6  7  2  0
  9  8  1  0
 10  9  1  0
 11 10  1  0
 12 11  1  1
 13  6  1  0
 13 12  1  0
 14 12  1  0
 14 15  2  0
 16 14  1  0
 17 16  1  0
 17 25  1  0
 17 18  1  1
 19 24  2  0
 19 18  1  0
 20 19  1  0
 21 22  1  0
 21 20  2  0
 22 23  2  0
 23 24  1  0
 25 27  2  0
 25 26  1  0
M  END
$$$$
