TMF.pdb
     RDKit          3D

 27 27  0  0  1  0  0  0  0  0999 V2000
    7.1340  -17.5899   21.7540 C   0  0  0  0  0  0  0  0  0  0  0  0
    7.7586  -16.6981   20.7010 C   0  0  1  0  0  0  0  0  0  0  0  0
    7.3137  -17.0059   19.4306 O   0  0  0  0  0  0  0  0  0  0  0  0
    7.5095  -15.2298   21.0560 C   0  0  2  0  0  0  0  0  0  0  0  0
    7.8952  -14.4541   19.9259 N   0  0  0  0  0  0  0  0  0  0  0  0
    8.2274  -14.8763   22.3158 C   0  0  0  0  0  0  0  0  0  0  0  0
    9.4479  -14.6588   22.2640 O   0  0  0  0  0  0  0  0  0  0  0  0
    7.0269  -11.2949   28.0100 C   0  0  0  0  0  0  0  0  0  0  0  0
    5.8379  -11.8065   26.7704 S   0  0  0  0  0  0  0  0  0  0  0  0
    6.6496  -12.6771   25.3797 C   0  0  0  0  0  0  0  0  0  0  0  0
    7.1105  -14.0163   25.8518 C   0  0  0  0  0  0  0  0  0  0  0  0
    8.0669  -14.6859   24.8549 C   0  0  2  0  0  0  0  0  0  0  0  0
    7.5487  -14.7871   23.5474 N   0  0  0  0  0  0  0  0  0  0  0  0
    8.6353  -15.8786   25.4629 C   0  0  0  0  0  0  0  0  0  0  0  0
    7.9080  -16.8998   25.5664 O   0  0  0  0  0  0  0  0  0  0  0  0
    9.9607  -15.9934   25.9577 N   0  0  0  0  0  0  0  0  0  0  0  0
   10.4865  -17.2388   26.5443 C   0  0  1  0  0  0  0  0  0  0  0  0
   11.7751  -17.6208   25.9103 C   0  0  0  0  0  0  0  0  0  0  0  0
   11.6033  -17.7804   24.4523 C   0  0  0  0  0  0  0  0  0  0  0  0
   12.0332  -16.8263   23.5399 C   0  0  0  0  0  0  0  0  0  0  0  0
   11.8619  -17.0084   22.1874 C   0  0  0  0  0  0  0  0  0  0  0  0
   11.2628  -18.1307   21.6657 C   0  0  0  0  0  0  0  0  0  0  0  0
   10.8328  -19.0818   22.5551 C   0  0  0  0  0  0  0  0  0  0  0  0
   10.9951  -18.9183   23.9117 C   0  0  0  0  0  0  0  0  0  0  0  0
   10.6201  -17.0238   27.9812 C   0  0  0  0  0  0  0  0  0  0  0  0
   10.2413  -15.8412   28.5771 O   0  0  0  0  0  0  0  0  0  0  0  0
   11.0914  -17.9192   28.7210 O   0  0  0  0  0  0  0  0  0  0  0  0
  2  1  1  1
  2  4  1  0
  3  2  1  0
  4  6  1  0
  4  5  1  6
  6  7  2  0
  9  8  1  0
 10  9  1  0
 11 10  1  0
 12 11  1  1
 13  6  1  0
 13 12  1  0
 14 12  1  0
 14 15  2  0
 16 14  1  0
 17 16  1  0
 17 25  1  0
 17 18  1  6
 19 24  2  0
 19 18  1  0
 20 19  1  0
 21 22  1  0
 21 20  2  0
 22 23  2  0
 23 24  1  0
 25 27  2  0
 25 26  1  0
M  END
$$$$
