TMF.pdb
     RDKit          3D

 27 27  0  0  1  0  0  0  0  0999 V2000
    7.3837  -19.0607   18.8717 C   0  0  0  0  0  0  0  0  0  0  0  0
    8.0609  -18.3674   20.0358 C   0  0  1  0  0  0  0  0  0  0  0  0
    9.1534  -19.0751   20.4963 O   0  0  0  0  0  0  0  0  0  0  0  0
    8.4307  -16.9359   19.6381 C   0  0  2  0  0  0  0  0  0  0  0  0
    9.2555  -17.0223   18.4806 N   0  0  0  0  0  0  0  0  0  0  0  0
    9.0637  -16.2293   20.7903 C   0  0  0  0  0  0  0  0  0  0  0  0
   10.2980  -16.2734   20.9097 O   0  0  0  0  0  0  0  0  0  0  0  0
    7.1531  -11.6108   27.0724 C   0  0  0  0  0  0  0  0  0  0  0  0
    6.6519  -12.4845   25.5900 S   0  0  0  0  0  0  0  0  0  0  0  0
    8.0331  -13.4558   24.8832 C   0  0  0  0  0  0  0  0  0  0  0  0
    7.5655  -14.1184   23.6298 C   0  0  0  0  0  0  0  0  0  0  0  0
    8.6793  -14.9276   22.9505 C   0  0  2  0  0  0  0  0  0  0  0  0
    8.2907  -15.5220   21.7324 N   0  0  0  0  0  0  0  0  0  0  0  0
    9.3389  -15.7620   23.9424 C   0  0  0  0  0  0  0  0  0  0  0  0
    8.7299  -16.7771   24.3681 O   0  0  0  0  0  0  0  0  0  0  0  0
   10.6310  -15.5277   24.4812 N   0  0  0  0  0  0  0  0  0  0  0  0
   11.2438  -16.4076   25.4920 C   0  0  1  0  0  0  0  0  0  0  0  0
   10.2426  -16.8272   26.5068 C   0  0  0  0  0  0  0  0  0  0  0  0
    9.9505  -15.7138   27.4318 C   0  0  0  0  0  0  0  0  0  0  0  0
   10.9157  -15.1572   28.2604 C   0  0  0  0  0  0  0  0  0  0  0  0
   10.6111  -14.1172   29.1073 C   0  0  0  0  0  0  0  0  0  0  0  0
    9.3500  -13.5744   29.1829 C   0  0  0  0  0  0  0  0  0  0  0  0
    8.3862  -14.1142   28.3703 C   0  0  0  0  0  0  0  0  0  0  0  0
    8.6710  -15.1548   27.5162 C   0  0  0  0  0  0  0  0  0  0  0  0
   11.8264  -17.5447   24.7876 C   0  0  0  0  0  0  0  0  0  0  0  0
   13.1853  -17.7679   24.7670 O   0  0  0  0  0  0  0  0  0  0  0  0
   11.0975  -18.3578   24.1722 O   0  0  0  0  0  0  0  0  0  0  0  0
  2  1  1  6
  2  4  1  0
  3  2  1  0
  4  6  1  0
  4  5  1  6
  6  7  2  0
  9  8  1  0
 10  9  1  0
 11 10  1  0
 12 11  1  1
 13  6  1  0
 13 12  1  0
 14 12  1  0
 14 15  2  0
 16 14  1  0
 17 16  1  0
 17 25  1  0
 17 18  1  1
 19 24  2  0
 19 18  1  0
 20 19  1  0
 21 22  1  0
 21 20  2  0
 22 23  2  0
 23 24  1  0
 25 27  2  0
 25 26  1  0
M  END
$$$$
