TMF.pdb
     RDKit          3D

 27 27  0  0  1  0  0  0  0  0999 V2000
    6.7164  -18.3797   19.2489 C   0  0  0  0  0  0  0  0  0  0  0  0
    7.6218  -17.8302   20.3318 C   0  0  1  0  0  0  0  0  0  0  0  0
    8.8164  -18.5184   20.4075 O   0  0  0  0  0  0  0  0  0  0  0  0
    7.8368  -16.3304   20.1112 C   0  0  2  0  0  0  0  0  0  0  0  0
    8.3596  -16.1708   18.7963 N   0  0  0  0  0  0  0  0  0  0  0  0
    8.7057  -15.7715   21.1882 C   0  0  0  0  0  0  0  0  0  0  0  0
    9.9340  -15.7538   21.0122 O   0  0  0  0  0  0  0  0  0  0  0  0
    7.1312  -11.8185   26.6312 C   0  0  0  0  0  0  0  0  0  0  0  0
    6.3842  -11.8416   25.0023 S   0  0  0  0  0  0  0  0  0  0  0  0
    7.3968  -12.7952   23.8122 C   0  0  0  0  0  0  0  0  0  0  0  0
    7.9306  -14.0096   24.4970 C   0  0  0  0  0  0  0  0  0  0  0  0
    8.8089  -14.8605   23.5689 C   0  0  2  0  0  0  0  0  0  0  0  0
    8.1595  -15.2701   22.3863 N   0  0  0  0  0  0  0  0  0  0  0  0
    9.5026  -15.8678   24.3560 C   0  0  0  0  0  0  0  0  0  0  0  0
    8.9174  -16.9592   24.5774 O   0  0  0  0  0  0  0  0  0  0  0  0
   10.8037  -15.7253   24.9051 N   0  0  0  0  0  0  0  0  0  0  0  0
   11.4629  -16.7925   25.6784 C   0  0  1  0  0  0  0  0  0  0  0  0
   10.5947  -17.2535   26.7928 C   0  0  0  0  0  0  0  0  0  0  0  0
   10.2036  -16.1131   27.6456 C   0  0  0  0  0  0  0  0  0  0  0  0
   11.0074  -15.6376   28.6731 C   0  0  0  0  0  0  0  0  0  0  0  0
   10.6151  -14.5697   29.4459 C   0  0  0  0  0  0  0  0  0  0  0  0
    9.4201  -13.9185   29.2497 C   0  0  0  0  0  0  0  0  0  0  0  0
    8.6156  -14.3773   28.2383 C   0  0  0  0  0  0  0  0  0  0  0  0
    8.9902  -15.4440   27.4541 C   0  0  0  0  0  0  0  0  0  0  0  0
   11.7881  -17.8695   24.7495 C   0  0  0  0  0  0  0  0  0  0  0  0
   12.4290  -19.0165   25.1627 O   0  0  0  0  0  0  0  0  0  0  0  0
   11.4920  -17.7781   23.5350 O   0  0  0  0  0  0  0  0  0  0  0  0
  2  1  1  6
  2  4  1  0
  3  2  1  0
  4  6  1  0
  4  5  1  6
  6  7  2  0
  9  8  1  0
 10  9  1  0
 11 10  1  0
 12 11  1  1
 13  6  1  0
 13 12  1  0
 14 12  1  0
 14 15  2  0
 16 14  1  0
 17 16  1  0
 17 25  1  0
 17 18  1  1
 19 24  2  0
 19 18  1  0
 20 19  1  0
 21 22  1  0
 21 20  2  0
 22 23  2  0
 23 24  1  0
 25 27  2  0
 25 26  1  0
M  END
$$$$
