TMF.pdb
     RDKit          3D

 27 27  0  0  1  0  0  0  0  0999 V2000
    6.5246  -19.3853   23.4296 C   0  0  0  0  0  0  0  0  0  0  0  0
    7.1269  -19.8897   22.1346 C   0  0  1  0  0  0  0  0  0  0  0  0
    6.4393  -20.9763   21.6315 O   0  0  0  0  0  0  0  0  0  0  0  0
    7.2073  -18.7432   21.1230 C   0  0  2  0  0  0  0  0  0  0  0  0
    7.5175  -19.3206   19.8589 N   0  0  0  0  0  0  0  0  0  0  0  0
    8.1876  -17.7173   21.5853 C   0  0  0  0  0  0  0  0  0  0  0  0
    9.3658  -18.0606   21.7693 O   0  0  0  0  0  0  0  0  0  0  0  0
    7.0483  -12.1356   18.1572 C   0  0  0  0  0  0  0  0  0  0  0  0
    7.3353  -12.2390   19.9232 S   0  0  0  0  0  0  0  0  0  0  0  0
    7.9317  -13.8996   20.4108 C   0  0  0  0  0  0  0  0  0  0  0  0
    8.1078  -13.9332   21.8929 C   0  0  0  0  0  0  0  0  0  0  0  0
    8.5249  -15.3222   22.3967 C   0  0  2  0  0  0  0  0  0  0  0  0
    7.8005  -16.3818   21.8131 N   0  0  0  0  0  0  0  0  0  0  0  0
    8.6474  -15.2898   23.8456 C   0  0  0  0  0  0  0  0  0  0  0  0
    8.5471  -14.1793   24.4280 O   0  0  0  0  0  0  0  0  0  0  0  0
    8.8739  -16.4201   24.6738 N   0  0  0  0  0  0  0  0  0  0  0  0
    8.8812  -16.3404   26.1452 C   0  0  1  0  0  0  0  0  0  0  0  0
    7.5475  -15.9358   26.6609 C   0  0  0  0  0  0  0  0  0  0  0  0
    7.4227  -14.4644   26.6654 C   0  0  0  0  0  0  0  0  0  0  0  0
    8.3984  -13.6328   27.1986 C   0  0  0  0  0  0  0  0  0  0  0  0
    8.2529  -12.2652   27.1823 C   0  0  0  0  0  0  0  0  0  0  0  0
    7.1477  -11.6488   26.6446 C   0  0  0  0  0  0  0  0  0  0  0  0
    6.1754  -12.4576   26.1144 C   0  0  0  0  0  0  0  0  0  0  0  0
    6.3025  -13.8277   26.1209 C   0  0  0  0  0  0  0  0  0  0  0  0
    9.2977  -17.6434   26.6524 C   0  0  0  0  0  0  0  0  0  0  0  0
    9.5375  -18.7075   25.8114 O   0  0  0  0  0  0  0  0  0  0  0  0
    9.4478  -17.8331   27.8822 O   0  0  0  0  0  0  0  0  0  0  0  0
  2  1  1  1
  2  4  1  0
  3  2  1  0
  4  6  1  0
  4  5  1  6
  6  7  2  0
  9  8  1  0
 10  9  1  0
 11 10  1  0
 12 11  1  1
 13  6  1  0
 13 12  1  0
 14 12  1  0
 14 15  2  0
 16 14  1  0
 17 16  1  0
 17 25  1  0
 17 18  1  1
 19 24  2  0
 19 18  1  0
 20 19  1  0
 21 22  1  0
 21 20  2  0
 22 23  2  0
 23 24  1  0
 25 27  2  0
 25 26  1  0
M  END
$$$$
