HAN.pdb
     RDKit          3D

 24 24  0  0  1  0  0  0  0  0999 V2000
    8.0322  -18.6045   20.0356 N   0  0  0  0  0  0  0  0  0  0  0  0
    8.5213  -17.2524   20.2796 C   0  0  1  0  0  0  0  0  0  0  0  0
    7.8318  -16.3500   19.2807 C   0  0  0  0  0  0  0  0  0  0  0  0
    8.3009  -16.6929   17.9068 C   0  0  0  0  0  0  0  0  0  0  0  0
    9.4314  -17.3884   17.5267 C   0  0  0  0  0  0  0  0  0  0  0  0
    9.4992  -17.4890   16.1861 N   0  0  0  0  0  0  0  0  0  0  0  0
    8.4096  -16.8561   15.7160 C   0  0  0  0  0  0  0  0  0  0  0  0
    7.6795  -16.3723   16.7345 N   0  0  0  0  0  0  0  0  0  0  0  0
    8.1906  -16.8081   21.6588 C   0  0  0  0  0  0  0  0  0  0  0  0
    8.5570  -15.6728   22.0533 O   0  0  0  0  0  0  0  0  0  0  0  0
    5.7773  -17.2187   24.3085 C   0  0  0  0  0  0  0  0  0  0  0  0
    7.2466  -17.2610   23.9503 C   0  0  2  0  0  0  0  0  0  0  0  0
    7.4683  -17.6109   22.5765 N   0  0  0  0  0  0  0  0  0  0  0  0
    8.0150  -18.1308   24.8834 C   0  0  0  0  0  0  0  0  0  0  0  0
    7.7510  -18.0708   26.0909 O   0  0  0  0  0  0  0  0  0  0  0  0
    8.9742  -22.1987   22.7272 N   0  0  0  0  0  0  0  0  0  0  0  0
    8.9135  -21.8024   24.0831 C   0  0  0  0  0  0  0  0  0  0  0  0
    7.8291  -21.9732   24.6947 O   0  0  0  0  0  0  0  0  0  0  0  0
   10.0486  -21.2131   24.7804 C   0  0  0  0  0  0  0  0  0  0  0  0
    9.8370  -19.8242   25.2753 C   0  0  2  0  0  0  0  0  0  0  0  0
    9.0272  -19.0110   24.4126 N   0  0  0  0  0  0  0  0  0  0  0  0
   11.1123  -19.1432   25.6507 C   0  0  0  0  0  0  0  0  0  0  0  0
   11.4754  -17.8989   25.1293 O   0  0  0  0  0  0  0  0  0  0  0  0
   11.9287  -19.6548   26.4577 O   0  0  0  0  0  0  0  0  0  0  0  0
  2  1  1  1
  3  2  1  0
  4  5  2  0
  4  3  1  0
  6  5  1  0
  7  8  2  0
  7  6  1  0
  8  4  1  0
  9  2  1  0
 10  9  2  0
 12 11  1  1
 12 14  1  0
 12 13  1  0
 13  9  1  0
 14 21  1  0
 15 14  2  0
 17 18  2  0
 17 16  1  0
 19 17  1  0
 20 19  1  6
 20 22  1  0
 21 20  1  0
 22 24  2  0
 22 23  1  0
M  END
$$$$
