HAN.pdb
     RDKit          3D

 24 24  0  0  1  0  0  0  0  0999 V2000
    7.4818  -17.4715   20.2275 N   0  0  0  0  0  0  0  0  0  0  0  0
    8.3093  -16.5277   20.9701 C   0  0  1  0  0  0  0  0  0  0  0  0
    7.4077  -15.3867   21.3856 C   0  0  0  0  0  0  0  0  0  0  0  0
    7.7557  -14.1739   20.5900 C   0  0  0  0  0  0  0  0  0  0  0  0
    8.3117  -12.9861   21.0215 C   0  0  0  0  0  0  0  0  0  0  0  0
    8.4723  -12.1345   19.9914 N   0  0  0  0  0  0  0  0  0  0  0  0
    8.0170  -12.7841   18.9053 C   0  0  0  0  0  0  0  0  0  0  0  0
    7.5833  -14.0089   19.2461 N   0  0  0  0  0  0  0  0  0  0  0  0
    8.8890  -17.1666   22.1804 C   0  0  0  0  0  0  0  0  0  0  0  0
    8.2264  -18.0300   22.8082 O   0  0  0  0  0  0  0  0  0  0  0  0
   12.2901  -17.2170   23.8682 C   0  0  0  0  0  0  0  0  0  0  0  0
   10.8193  -17.5526   23.7526 C   0  0  2  0  0  0  0  0  0  0  0  0
   10.1773  -16.8500   22.6789 N   0  0  0  0  0  0  0  0  0  0  0  0
   10.1101  -17.3684   25.0491 C   0  0  0  0  0  0  0  0  0  0  0  0
    9.8900  -16.2142   25.4370 O   0  0  0  0  0  0  0  0  0  0  0  0
    6.4856  -17.7507   25.6978 N   0  0  0  0  0  0  0  0  0  0  0  0
    6.8871  -19.0017   26.2204 C   0  0  0  0  0  0  0  0  0  0  0  0
    6.3883  -20.0363   25.7106 O   0  0  0  0  0  0  0  0  0  0  0  0
    7.8439  -19.1260   27.3118 C   0  0  0  0  0  0  0  0  0  0  0  0
    9.1090  -18.3595   27.1363 C   0  0  2  0  0  0  0  0  0  0  0  0
    9.6917  -18.4804   25.8297 N   0  0  0  0  0  0  0  0  0  0  0  0
   10.1028  -18.6274   28.2187 C   0  0  0  0  0  0  0  0  0  0  0  0
    9.9681  -18.0958   29.5038 O   0  0  0  0  0  0  0  0  0  0  0  0
   11.1156  -19.3472   28.0304 O   0  0  0  0  0  0  0  0  0  0  0  0
  2  1  1  1
  3  2  1  0
  4  5  2  0
  4  3  1  0
  6  5  1  0
  7  8  2  0
  7  6  1  0
  8  4  1  0
  9  2  1  0
 10  9  2  0
 12 11  1  1
 12 14  1  0
 12 13  1  0
 13  9  1  0
 14 21  1  0
 15 14  2  0
 17 18  2  0
 17 16  1  0
 19 17  1  0
 20 19  1  6
 20 22  1  0
 21 20  1  0
 22 24  2  0
 22 23  1  0
M  END
$$$$
