HAN.pdb
     RDKit          3D

 24 24  0  0  1  0  0  0  0  0999 V2000
   10.2304  -16.1246   17.8943 N   0  0  0  0  0  0  0  0  0  0  0  0
   10.9822  -14.9846   18.4063 C   0  0  1  0  0  0  0  0  0  0  0  0
   10.2471  -14.4896   19.6319 C   0  0  0  0  0  0  0  0  0  0  0  0
    8.9587  -13.8667   19.2110 C   0  0  0  0  0  0  0  0  0  0  0  0
    8.4735  -13.6601   17.9350 C   0  0  0  0  0  0  0  0  0  0  0  0
    7.2664  -13.0657   17.9760 N   0  0  0  0  0  0  0  0  0  0  0  0
    6.9864  -12.8955   19.2804 C   0  0  0  0  0  0  0  0  0  0  0  0
    7.9907  -13.3703   20.0355 N   0  0  0  0  0  0  0  0  0  0  0  0
   12.3626  -15.3846   18.7849 C   0  0  0  0  0  0  0  0  0  0  0  0
   12.5651  -16.5089   19.3081 O   0  0  0  0  0  0  0  0  0  0  0  0
   15.8482  -14.0671   18.1137 C   0  0  0  0  0  0  0  0  0  0  0  0
   14.8465  -14.9642   18.8074 C   0  0  2  0  0  0  0  0  0  0  0  0
   13.4908  -14.5505   18.5849 N   0  0  0  0  0  0  0  0  0  0  0  0
   15.1573  -15.1185   20.2556 C   0  0  0  0  0  0  0  0  0  0  0  0
   14.6352  -14.3298   21.0535 O   0  0  0  0  0  0  0  0  0  0  0  0
   14.1445  -18.0044   22.2371 N   0  0  0  0  0  0  0  0  0  0  0  0
   15.4256  -18.5184   22.5432 C   0  0  0  0  0  0  0  0  0  0  0  0
   15.5120  -19.7366   22.8395 O   0  0  0  0  0  0  0  0  0  0  0  0
   16.6269  -17.6945   22.5259 C   0  0  0  0  0  0  0  0  0  0  0  0
   16.4216  -16.2834   22.0955 C   0  0  2  0  0  0  0  0  0  0  0  0
   16.0288  -16.1402   20.7220 N   0  0  0  0  0  0  0  0  0  0  0  0
   17.5743  -15.3992   22.4426 C   0  0  0  0  0  0  0  0  0  0  0  0
   17.9232  -15.1122   23.7647 O   0  0  0  0  0  0  0  0  0  0  0  0
   18.2936  -14.8650   21.5612 O   0  0  0  0  0  0  0  0  0  0  0  0
  2  1  1  1
  3  2  1  0
  4  5  2  0
  4  3  1  0
  6  5  1  0
  7  8  2  0
  7  6  1  0
  8  4  1  0
  9  2  1  0
 10  9  2  0
 12 11  1  1
 12 14  1  0
 12 13  1  0
 13  9  1  0
 14 21  1  0
 15 14  2  0
 17 18  2  0
 17 16  1  0
 19 17  1  0
 20 19  1  6
 20 22  1  0
 21 20  1  0
 22 24  2  0
 22 23  1  0
M  END
$$$$
