HAN.pdb
     RDKit          3D

 24 24  0  0  1  0  0  0  0  0999 V2000
    8.4118  -16.5863   17.4114 N   0  0  0  0  0  0  0  0  0  0  0  0
    9.5947  -15.7359   17.4813 C   0  0  1  0  0  0  0  0  0  0  0  0
    9.8029  -15.1603   16.0983 C   0  0  0  0  0  0  0  0  0  0  0  0
    9.9713  -16.2771   15.1239 C   0  0  0  0  0  0  0  0  0  0  0  0
   10.7063  -17.4383   15.2571 C   0  0  0  0  0  0  0  0  0  0  0  0
   10.6023  -18.1962   14.1495 N   0  0  0  0  0  0  0  0  0  0  0  0
    9.8000  -17.5139   13.3131 C   0  0  0  0  0  0  0  0  0  0  0  0
    9.4122  -16.3603   13.8815 N   0  0  0  0  0  0  0  0  0  0  0  0
    9.3973  -14.6294   18.4536 C   0  0  0  0  0  0  0  0  0  0  0  0
   10.3250  -13.8075   18.6603 O   0  0  0  0  0  0  0  0  0  0  0  0
    6.6572  -13.4431   20.8067 C   0  0  0  0  0  0  0  0  0  0  0  0
    8.0918  -13.6725   20.3842 C   0  0  2  0  0  0  0  0  0  0  0  0
    8.1937  -14.4435   19.1784 N   0  0  0  0  0  0  0  0  0  0  0  0
    8.9053  -14.2484   21.4907 C   0  0  0  0  0  0  0  0  0  0  0  0
    8.9221  -13.6535   22.5757 O   0  0  0  0  0  0  0  0  0  0  0  0
   10.7360  -19.4826   23.8048 N   0  0  0  0  0  0  0  0  0  0  0  0
   10.3334  -18.1289   23.8722 C   0  0  0  0  0  0  0  0  0  0  0  0
   10.5341  -17.5115   24.9481 O   0  0  0  0  0  0  0  0  0  0  0  0
    9.7046  -17.4402   22.7531 C   0  0  0  0  0  0  0  0  0  0  0  0
   10.3151  -16.1307   22.3908 C   0  0  2  0  0  0  0  0  0  0  0  0
    9.6471  -15.4488   21.3183 N   0  0  0  0  0  0  0  0  0  0  0  0
   11.7885  -16.2223   22.1633 C   0  0  0  0  0  0  0  0  0  0  0  0
   12.3847  -15.8248   20.9639 O   0  0  0  0  0  0  0  0  0  0  0  0
   12.5723  -16.6632   23.0412 O   0  0  0  0  0  0  0  0  0  0  0  0
  2  1  1  6
  3  2  1  0
  4  5  2  0
  4  3  1  0
  6  5  1  0
  7  8  2  0
  7  6  1  0
  8  4  1  0
  9  2  1  0
 10  9  2  0
 12 11  1  1
 12 14  1  0
 12 13  1  0
 13  9  1  0
 14 21  1  0
 15 14  2  0
 17 18  2  0
 17 16  1  0
 19 17  1  0
 20 19  1  6
 20 22  1  0
 21 20  1  0
 22 24  2  0
 22 23  1  0
M  END
$$$$
