HAN.pdb
     RDKit          3D

 24 24  0  0  1  0  0  0  0  0999 V2000
    7.8682  -15.9005   17.8730 N   0  0  0  0  0  0  0  0  0  0  0  0
    8.8203  -14.9195   18.3812 C   0  0  1  0  0  0  0  0  0  0  0  0
    8.4607  -13.5925   17.7511 C   0  0  0  0  0  0  0  0  0  0  0  0
    8.2502  -13.7873   16.2872 C   0  0  0  0  0  0  0  0  0  0  0  0
    8.4020  -14.9359   15.5364 C   0  0  0  0  0  0  0  0  0  0  0  0
    8.1147  -14.6995   14.2427 N   0  0  0  0  0  0  0  0  0  0  0  0
    7.7804  -13.3986   14.1739 C   0  0  0  0  0  0  0  0  0  0  0  0
    7.8562  -12.8359   15.3912 N   0  0  0  0  0  0  0  0  0  0  0  0
    8.7286  -14.8063   19.8603 C   0  0  0  0  0  0  0  0  0  0  0  0
    9.4923  -14.0199   20.4744 O   0  0  0  0  0  0  0  0  0  0  0  0
    6.6109  -16.2607   22.6564 C   0  0  0  0  0  0  0  0  0  0  0  0
    7.8769  -15.6821   22.0636 C   0  0  2  0  0  0  0  0  0  0  0  0
    7.8070  -15.5524   20.6364 N   0  0  0  0  0  0  0  0  0  0  0  0
    9.0837  -16.4368   22.5016 C   0  0  0  0  0  0  0  0  0  0  0  0
    9.7278  -17.0579   21.6468 O   0  0  0  0  0  0  0  0  0  0  0  0
   13.0745  -15.8658   21.4301 N   0  0  0  0  0  0  0  0  0  0  0  0
   12.6870  -16.5088   22.6283 C   0  0  0  0  0  0  0  0  0  0  0  0
   13.0749  -17.6901   22.8103 O   0  0  0  0  0  0  0  0  0  0  0  0
   11.8670  -15.8560   23.6400 C   0  0  0  0  0  0  0  0  0  0  0  0
   10.8412  -16.7247   24.2818 C   0  0  2  0  0  0  0  0  0  0  0  0
    9.4956  -16.4516   23.8621 N   0  0  0  0  0  0  0  0  0  0  0  0
   10.9657  -16.7644   25.7698 C   0  0  0  0  0  0  0  0  0  0  0  0
   10.0462  -16.1350   26.6127 O   0  0  0  0  0  0  0  0  0  0  0  0
   11.9067  -17.3679   26.3440 O   0  0  0  0  0  0  0  0  0  0  0  0
  2  1  1  6
  3  2  1  0
  4  5  2  0
  4  3  1  0
  6  5  1  0
  7  8  2  0
  7  6  1  0
  8  4  1  0
  9  2  1  0
 10  9  2  0
 12 11  1  6
 12 14  1  0
 12 13  1  0
 13  9  1  0
 14 21  1  0
 15 14  2  0
 17 18  2  0
 17 16  1  0
 19 17  1  0
 20 19  1  1
 20 22  1  0
 21 20  1  0
 22 24  2  0
 22 23  1  0
M  END
$$$$
