HAN.pdb
     RDKit          3D

 24 24  0  0  1  0  0  0  0  0999 V2000
    9.5176  -15.3292   14.3888 N   0  0  0  0  0  0  0  0  0  0  0  0
    8.7436  -15.7364   15.5560 C   0  0  1  0  0  0  0  0  0  0  0  0
    8.8835  -17.2378   15.6726 C   0  0  0  0  0  0  0  0  0  0  0  0
    8.0329  -17.8902   14.6353 C   0  0  0  0  0  0  0  0  0  0  0  0
    6.8326  -18.5541   14.7927 C   0  0  0  0  0  0  0  0  0  0  0  0
    6.3784  -19.0024   13.6074 N   0  0  0  0  0  0  0  0  0  0  0  0
    7.2927  -18.6216   12.6975 C   0  0  0  0  0  0  0  0  0  0  0  0
    8.2920  -17.9533   13.2966 N   0  0  0  0  0  0  0  0  0  0  0  0
    9.2648  -15.0933   16.7904 C   0  0  0  0  0  0  0  0  0  0  0  0
   10.4756  -15.2252   17.0992 O   0  0  0  0  0  0  0  0  0  0  0  0
    7.8541  -12.9130   19.5755 C   0  0  0  0  0  0  0  0  0  0  0  0
    8.9240  -13.7233   18.8771 C   0  0  2  0  0  0  0  0  0  0  0  0
    8.4548  -14.3213   17.6601 N   0  0  0  0  0  0  0  0  0  0  0  0
    9.5427  -14.7218   19.7925 C   0  0  0  0  0  0  0  0  0  0  0  0
    9.0689  -15.8646   19.8185 O   0  0  0  0  0  0  0  0  0  0  0  0
   13.8292  -13.7033   19.9019 N   0  0  0  0  0  0  0  0  0  0  0  0
   13.5385  -14.9411   20.5205 C   0  0  0  0  0  0  0  0  0  0  0  0
   14.0000  -15.9828   19.9904 O   0  0  0  0  0  0  0  0  0  0  0  0
   12.7354  -15.0444   21.7314 C   0  0  0  0  0  0  0  0  0  0  0  0
   11.2867  -15.3114   21.5105 C   0  0  2  0  0  0  0  0  0  0  0  0
   10.6485  -14.3839   20.6196 N   0  0  0  0  0  0  0  0  0  0  0  0
   10.5272  -15.4741   22.7863 C   0  0  0  0  0  0  0  0  0  0  0  0
   10.8681  -16.4363   23.7403 O   0  0  0  0  0  0  0  0  0  0  0  0
    9.5386  -14.7520   23.0702 O   0  0  0  0  0  0  0  0  0  0  0  0
  2  1  1  6
  3  2  1  0
  4  5  2  0
  4  3  1  0
  6  5  1  0
  7  8  2  0
  7  6  1  0
  8  4  1  0
  9  2  1  0
 10  9  2  0
 12 11  1  1
 12 14  1  0
 12 13  1  0
 13  9  1  0
 14 21  1  0
 15 14  2  0
 17 18  2  0
 17 16  1  0
 19 17  1  0
 20 19  1  1
 20 22  1  0
 21 20  1  0
 22 24  2  0
 22 23  1  0
M  END
$$$$
