HAN.pdb
     RDKit          3D

 24 24  0  0  1  0  0  0  0  0999 V2000
    5.7036  -15.3299   21.1534 N   0  0  0  0  0  0  0  0  0  0  0  0
    7.0368  -15.5228   21.7126 C   0  0  1  0  0  0  0  0  0  0  0  0
    7.7576  -14.1986   21.5939 C   0  0  0  0  0  0  0  0  0  0  0  0
    7.9153  -13.8552   20.1509 C   0  0  0  0  0  0  0  0  0  0  0  0
    7.4463  -12.7508   19.4679 C   0  0  0  0  0  0  0  0  0  0  0  0
    7.7998  -12.8089   18.1703 N   0  0  0  0  0  0  0  0  0  0  0  0
    8.4942  -13.9523   18.0311 C   0  0  0  0  0  0  0  0  0  0  0  0
    8.5732  -14.5926   19.2093 N   0  0  0  0  0  0  0  0  0  0  0  0
    6.9612  -15.9189   23.1431 C   0  0  0  0  0  0  0  0  0  0  0  0
    6.2620  -15.2455   23.9409 O   0  0  0  0  0  0  0  0  0  0  0  0
    7.3382  -18.9545   25.1714 C   0  0  0  0  0  0  0  0  0  0  0  0
    7.5636  -17.4642   25.0395 C   0  0  2  0  0  0  0  0  0  0  0  0
    7.6491  -17.0396   23.6716 N   0  0  0  0  0  0  0  0  0  0  0  0
    8.7328  -17.0119   25.8432 C   0  0  0  0  0  0  0  0  0  0  0  0
    9.8457  -17.0002   25.3022 O   0  0  0  0  0  0  0  0  0  0  0  0
    7.9747  -13.1830   28.0255 N   0  0  0  0  0  0  0  0  0  0  0  0
    9.2347  -13.8247   28.0304 C   0  0  0  0  0  0  0  0  0  0  0  0
   10.1430  -13.3360   27.3127 O   0  0  0  0  0  0  0  0  0  0  0  0
    9.5073  -15.0133   28.8272 C   0  0  0  0  0  0  0  0  0  0  0  0
    9.6948  -16.2693   28.0486 C   0  0  2  0  0  0  0  0  0  0  0  0
    8.5880  -16.6020   27.1967 N   0  0  0  0  0  0  0  0  0  0  0  0
   10.1098  -17.4227   28.9022 C   0  0  0  0  0  0  0  0  0  0  0  0
   11.2540  -17.3847   29.7030 O   0  0  0  0  0  0  0  0  0  0  0  0
    9.4499  -18.4913   28.9454 O   0  0  0  0  0  0  0  0  0  0  0  0
  2  1  1  1
  3  2  1  0
  4  5  2  0
  4  3  1  0
  6  5  1  0
  7  8  2  0
  7  6  1  0
  8  4  1  0
  9  2  1  0
 10  9  2  0
 12 11  1  6
 12 14  1  0
 12 13  1  0
 13  9  1  0
 14 21  1  0
 15 14  2  0
 17 18  2  0
 17 16  1  0
 19 17  1  0
 20 19  1  1
 20 22  1  0
 21 20  1  0
 22 24  2  0
 22 23  1  0
M  END
$$$$
