HAN.pdb
     RDKit          3D

 24 24  0  0  1  0  0  0  0  0999 V2000
   12.3599  -15.1226   15.3262 N   0  0  0  0  0  0  0  0  0  0  0  0
   13.3037  -15.9929   16.0180 C   0  0  1  0  0  0  0  0  0  0  0  0
   14.6358  -15.8387   15.3186 C   0  0  0  0  0  0  0  0  0  0  0  0
   14.5484  -16.4485   13.9601 C   0  0  0  0  0  0  0  0  0  0  0  0
   14.2496  -17.7513   13.6139 C   0  0  0  0  0  0  0  0  0  0  0  0
   14.2712  -17.9046   12.2767 N   0  0  0  0  0  0  0  0  0  0  0  0
   14.5843  -16.6967   11.7749 C   0  0  0  0  0  0  0  0  0  0  0  0
   14.7541  -15.8113   12.7707 N   0  0  0  0  0  0  0  0  0  0  0  0
   13.4445  -15.5980   17.4439 C   0  0  0  0  0  0  0  0  0  0  0  0
   13.6864  -14.4007   17.7388 O   0  0  0  0  0  0  0  0  0  0  0  0
   12.4511  -16.9149   20.7745 C   0  0  0  0  0  0  0  0  0  0  0  0
   13.4256  -16.1561   19.9005 C   0  0  2  0  0  0  0  0  0  0  0  0
   13.3186  -16.5164   18.5158 N   0  0  0  0  0  0  0  0  0  0  0  0
   14.8218  -16.2715   20.4057 C   0  0  0  0  0  0  0  0  0  0  0  0
   15.6600  -16.8300   19.6869 O   0  0  0  0  0  0  0  0  0  0  0  0
   18.7371  -16.0383   20.3006 N   0  0  0  0  0  0  0  0  0  0  0  0
   18.2672  -14.7111   20.4311 C   0  0  0  0  0  0  0  0  0  0  0  0
   18.8267  -13.8219   19.7417 O   0  0  0  0  0  0  0  0  0  0  0  0
   17.1743  -14.3494   21.3237 C   0  0  0  0  0  0  0  0  0  0  0  0
   16.5524  -15.4865   22.0578 C   0  0  2  0  0  0  0  0  0  0  0  0
   15.1947  -15.7577   21.6777 N   0  0  0  0  0  0  0  0  0  0  0  0
   16.7061  -15.3721   23.5391 C   0  0  0  0  0  0  0  0  0  0  0  0
   15.6086  -15.2695   24.3976 O   0  0  0  0  0  0  0  0  0  0  0  0
   17.8340  -15.3621   24.0933 O   0  0  0  0  0  0  0  0  0  0  0  0
  2  1  1  6
  3  2  1  0
  4  5  2  0
  4  3  1  0
  6  5  1  0
  7  8  2  0
  7  6  1  0
  8  4  1  0
  9  2  1  0
 10  9  2  0
 12 11  1  1
 12 14  1  0
 12 13  1  0
 13  9  1  0
 14 21  1  0
 15 14  2  0
 17 18  2  0
 17 16  1  0
 19 17  1  0
 20 19  1  6
 20 22  1  0
 21 20  1  0
 22 24  2  0
 22 23  1  0
M  END
$$$$
