HAN.pdb
     RDKit          3D

 24 24  0  0  1  0  0  0  0  0999 V2000
    7.2747  -17.6107   19.8330 N   0  0  0  0  0  0  0  0  0  0  0  0
    8.5744  -16.9757   20.0190 C   0  0  1  0  0  0  0  0  0  0  0  0
    8.3195  -15.6433   20.6877 C   0  0  0  0  0  0  0  0  0  0  0  0
    8.0283  -14.6194   19.6427 C   0  0  0  0  0  0  0  0  0  0  0  0
    8.0069  -14.7657   18.2700 C   0  0  0  0  0  0  0  0  0  0  0  0
    7.6996  -13.5993   17.6724 N   0  0  0  0  0  0  0  0  0  0  0  0
    7.5260  -12.7124   18.6685 C   0  0  0  0  0  0  0  0  0  0  0  0
    7.7194  -13.3073   19.8572 N   0  0  0  0  0  0  0  0  0  0  0  0
    9.4522  -17.8047   20.8856 C   0  0  0  0  0  0  0  0  0  0  0  0
    8.9712  -18.7886   21.5017 O   0  0  0  0  0  0  0  0  0  0  0  0
   12.8874  -18.7821   20.5512 C   0  0  0  0  0  0  0  0  0  0  0  0
   11.7802  -18.5068   21.5449 C   0  0  2  0  0  0  0  0  0  0  0  0
   10.8339  -17.5428   21.0612 N   0  0  0  0  0  0  0  0  0  0  0  0
   12.3212  -18.1416   22.8834 C   0  0  0  0  0  0  0  0  0  0  0  0
   13.2280  -18.8373   23.3579 O   0  0  0  0  0  0  0  0  0  0  0  0
    9.5222  -14.6787   24.8132 N   0  0  0  0  0  0  0  0  0  0  0  0
    8.8500  -15.8714   24.4597 C   0  0  0  0  0  0  0  0  0  0  0  0
    7.6333  -15.7894   24.1561 O   0  0  0  0  0  0  0  0  0  0  0  0
    9.5122  -17.1687   24.4369 C   0  0  0  0  0  0  0  0  0  0  0  0
   10.9667  -17.1437   24.7569 C   0  0  2  0  0  0  0  0  0  0  0  0
   11.8183  -17.0261   23.6071 N   0  0  0  0  0  0  0  0  0  0  0  0
   11.3825  -18.2681   25.6480 C   0  0  0  0  0  0  0  0  0  0  0  0
   11.1985  -19.6073   25.2950 O   0  0  0  0  0  0  0  0  0  0  0  0
   11.9213  -18.0684   26.7657 O   0  0  0  0  0  0  0  0  0  0  0  0
  2  1  1  1
  3  2  1  0
  4  5  2  0
  4  3  1  0
  6  5  1  0
  7  8  2  0
  7  6  1  0
  8  4  1  0
  9  2  1  0
 10  9  2  0
 12 11  1  6
 12 14  1  0
 12 13  1  0
 13  9  1  0
 14 21  1  0
 15 14  2  0
 17 18  2  0
 17 16  1  0
 19 17  1  0
 20 19  1  6
 20 22  1  0
 21 20  1  0
 22 24  2  0
 22 23  1  0
M  END
$$$$
