HAN.pdb
     RDKit          3D

 24 24  0  0  1  0  0  0  0  0999 V2000
   10.4690  -14.3228   19.9327 N   0  0  0  0  0  0  0  0  0  0  0  0
    9.1287  -14.2508   20.5034 C   0  0  1  0  0  0  0  0  0  0  0  0
    8.2796  -15.2545   19.7558 C   0  0  0  0  0  0  0  0  0  0  0  0
    8.0186  -14.7447   18.3784 C   0  0  0  0  0  0  0  0  0  0  0  0
    8.4628  -13.5779   17.7889 C   0  0  0  0  0  0  0  0  0  0  0  0
    8.0071  -13.4800   16.5260 N   0  0  0  0  0  0  0  0  0  0  0  0
    7.2729  -14.5869   16.3152 C   0  0  0  0  0  0  0  0  0  0  0  0
    7.2690  -15.3568   17.4159 N   0  0  0  0  0  0  0  0  0  0  0  0
    9.1468  -14.5967   21.9487 C   0  0  0  0  0  0  0  0  0  0  0  0
    9.9108  -15.5039   22.3637 O   0  0  0  0  0  0  0  0  0  0  0  0
    7.4414  -13.3348   25.1100 C   0  0  0  0  0  0  0  0  0  0  0  0
    8.3422  -14.2508   24.3109 C   0  0  2  0  0  0  0  0  0  0  0  0
    8.3322  -13.9463   22.9088 N   0  0  0  0  0  0  0  0  0  0  0  0
    8.0431  -15.6852   24.5773 C   0  0  0  0  0  0  0  0  0  0  0  0
    7.4071  -16.3184   23.7255 O   0  0  0  0  0  0  0  0  0  0  0  0
   11.0916  -19.7181   25.7314 N   0  0  0  0  0  0  0  0  0  0  0  0
   11.2740  -18.6495   24.8236 C   0  0  0  0  0  0  0  0  0  0  0  0
   12.2303  -18.7277   24.0122 O   0  0  0  0  0  0  0  0  0  0  0  0
   10.4032  -17.4820   24.8001 C   0  0  0  0  0  0  0  0  0  0  0  0
    9.2971  -17.4959   25.7978 C   0  0  2  0  0  0  0  0  0  0  0  0
    8.4712  -16.3217   25.7742 N   0  0  0  0  0  0  0  0  0  0  0  0
    9.7668  -17.8215   27.1778 C   0  0  0  0  0  0  0  0  0  0  0  0
    9.4904  -19.0463   27.7906 O   0  0  0  0  0  0  0  0  0  0  0  0
   10.4374  -17.0088   27.8627 O   0  0  0  0  0  0  0  0  0  0  0  0
  2  1  1  6
  3  2  1  0
  4  5  2  0
  4  3  1  0
  6  5  1  0
  7  8  2  0
  7  6  1  0
  8  4  1  0
  9  2  1  0
 10  9  2  0
 12 11  1  1
 12 14  1  0
 12 13  1  0
 13  9  1  0
 14 21  1  0
 15 14  2  0
 17 18  2  0
 17 16  1  0
 19 17  1  0
 20 19  1  6
 20 22  1  0
 21 20  1  0
 22 24  2  0
 22 23  1  0
M  END
$$$$
