HAN.pdb
     RDKit          3D

 24 24  0  0  1  0  0  0  0  0999 V2000
    7.3936  -17.4594   18.0063 N   0  0  0  0  0  0  0  0  0  0  0  0
    8.8370  -17.2925   18.1313 C   0  0  1  0  0  0  0  0  0  0  0  0
    9.3147  -16.6381   16.8543 C   0  0  0  0  0  0  0  0  0  0  0  0
    9.2080  -17.6168   15.7337 C   0  0  0  0  0  0  0  0  0  0  0  0
    9.1442  -18.9948   15.7913 C   0  0  0  0  0  0  0  0  0  0  0  0
    9.0534  -19.5186   14.5546 N   0  0  0  0  0  0  0  0  0  0  0  0
    9.0597  -18.4704   13.7119 C   0  0  0  0  0  0  0  0  0  0  0  0
    9.1520  -17.3218   14.4022 N   0  0  0  0  0  0  0  0  0  0  0  0
    9.1735  -16.4232   19.2889 C   0  0  0  0  0  0  0  0  0  0  0  0
   10.3688  -16.0965   19.4973 O   0  0  0  0  0  0  0  0  0  0  0  0
    7.3155  -14.5508   22.0176 C   0  0  0  0  0  0  0  0  0  0  0  0
    8.5110  -15.2649   21.4259 C   0  0  2  0  0  0  0  0  0  0  0  0
    8.2000  -15.9298   20.1930 N   0  0  0  0  0  0  0  0  0  0  0  0
    9.1490  -16.1793   22.4130 C   0  0  0  0  0  0  0  0  0  0  0  0
    8.6435  -17.2949   22.5893 O   0  0  0  0  0  0  0  0  0  0  0  0
   13.5142  -17.8581   22.5248 N   0  0  0  0  0  0  0  0  0  0  0  0
   13.1122  -16.5991   23.0271 C   0  0  0  0  0  0  0  0  0  0  0  0
   13.4056  -15.5795   22.3536 O   0  0  0  0  0  0  0  0  0  0  0  0
   12.3817  -16.4499   24.2786 C   0  0  0  0  0  0  0  0  0  0  0  0
   10.9032  -16.5959   24.1709 C   0  0  2  0  0  0  0  0  0  0  0  0
   10.3081  -15.7931   23.1400 N   0  0  0  0  0  0  0  0  0  0  0  0
   10.2081  -16.4273   25.4822 C   0  0  0  0  0  0  0  0  0  0  0  0
   10.4359  -17.2828   26.5630 O   0  0  0  0  0  0  0  0  0  0  0  0
    9.3793  -15.5042   25.6834 O   0  0  0  0  0  0  0  0  0  0  0  0
  2  1  1  6
  3  2  1  0
  4  5  2  0
  4  3  1  0
  6  5  1  0
  7  8  2  0
  7  6  1  0
  8  4  1  0
  9  2  1  0
 10  9  2  0
 12 11  1  1
 12 14  1  0
 12 13  1  0
 13  9  1  0
 14 21  1  0
 15 14  2  0
 17 18  2  0
 17 16  1  0
 19 17  1  0
 20 19  1  1
 20 22  1  0
 21 20  1  0
 22 24  2  0
 22 23  1  0
M  END
$$$$
