HAN.pdb
     RDKit          3D

 24 24  0  0  1  0  0  0  0  0999 V2000
   13.2433  -15.0195   14.4312 N   0  0  0  0  0  0  0  0  0  0  0  0
   12.3702  -15.7147   15.3700 C   0  0  1  0  0  0  0  0  0  0  0  0
   12.6534  -17.1927   15.2197 C   0  0  0  0  0  0  0  0  0  0  0  0
   12.0025  -17.6912   13.9735 C   0  0  0  0  0  0  0  0  0  0  0  0
   10.7619  -18.2772   13.8200 C   0  0  0  0  0  0  0  0  0  0  0  0
   10.5399  -18.5889   12.5294 N   0  0  0  0  0  0  0  0  0  0  0  0
   11.6420  -18.1997   11.8641 C   0  0  0  0  0  0  0  0  0  0  0  0
   12.5298  -17.6590   12.7149 N   0  0  0  0  0  0  0  0  0  0  0  0
   12.6519  -15.2963   16.7680 C   0  0  0  0  0  0  0  0  0  0  0  0
   13.8321  -15.3134   17.1986 O   0  0  0  0  0  0  0  0  0  0  0  0
   10.6506  -13.9064   19.6910 C   0  0  0  0  0  0  0  0  0  0  0  0
   11.8864  -14.4641   19.0193 C   0  0  2  0  0  0  0  0  0  0  0  0
   11.6412  -14.8687   17.6647 N   0  0  0  0  0  0  0  0  0  0  0  0
   12.5084  -15.5496   19.8270 C   0  0  0  0  0  0  0  0  0  0  0  0
   12.0728  -16.7003   19.6952 O   0  0  0  0  0  0  0  0  0  0  0  0
   15.4898  -13.7803   21.9800 N   0  0  0  0  0  0  0  0  0  0  0  0
   16.2822  -14.9261   21.7381 C   0  0  0  0  0  0  0  0  0  0  0  0
   17.5310  -14.7861   21.7455 O   0  0  0  0  0  0  0  0  0  0  0  0
   15.7062  -16.2399   21.4852 C   0  0  0  0  0  0  0  0  0  0  0  0
   14.2181  -16.2967   21.5181 C   0  0  2  0  0  0  0  0  0  0  0  0
   13.5749  -15.2844   20.7289 N   0  0  0  0  0  0  0  0  0  0  0  0
   13.6718  -16.3540   22.9071 C   0  0  0  0  0  0  0  0  0  0  0  0
   12.7230  -15.4410   23.3741 O   0  0  0  0  0  0  0  0  0  0  0  0
   14.0377  -17.2290   23.7316 O   0  0  0  0  0  0  0  0  0  0  0  0
  2  1  1  6
  3  2  1  0
  4  5  2  0
  4  3  1  0
  6  5  1  0
  7  8  2  0
  7  6  1  0
  8  4  1  0
  9  2  1  0
 10  9  2  0
 12 11  1  1
 12 14  1  0
 12 13  1  0
 13  9  1  0
 14 21  1  0
 15 14  2  0
 17 18  2  0
 17 16  1  0
 19 17  1  0
 20 19  1  1
 20 22  1  0
 21 20  1  0
 22 24  2  0
 22 23  1  0
M  END
$$$$
