HRE.pdb
     RDKit          3D

 31 31  0  0  1  0  0  0  0  0999 V2000
   11.4217  -17.9865   17.6466 N   0  0  0  0  0  0  0  0  0  0  0  0
   10.5949  -18.4022   18.7549 C   0  0  1  0  0  0  0  0  0  0  0  0
   10.7803  -19.8747   18.9930 C   0  0  0  0  0  0  0  0  0  0  0  0
   10.1292  -20.6028   17.8759 C   0  0  0  0  0  0  0  0  0  0  0  0
    9.0253  -20.2749   17.1174 C   0  0  0  0  0  0  0  0  0  0  0  0
    8.8016  -21.2534   16.2056 N   0  0  0  0  0  0  0  0  0  0  0  0
    9.7547  -22.1771   16.3954 C   0  0  0  0  0  0  0  0  0  0  0  0
   10.5570  -21.7850   17.4041 N   0  0  0  0  0  0  0  0  0  0  0  0
   10.9071  -17.5803   19.9430 C   0  0  0  0  0  0  0  0  0  0  0  0
   12.1169  -17.3263   20.1684 O   0  0  0  0  0  0  0  0  0  0  0  0
    7.6817  -14.8097   18.1159 N   0  0  0  0  0  0  0  0  0  0  0  0
    7.3117  -13.6827   18.9031 C   0  0  0  0  0  0  0  0  0  0  0  0
    7.5353  -12.4886   18.4984 N   0  0  0  0  0  0  0  0  0  0  0  0
    6.6746  -13.8375   20.1788 N   0  0  0  0  0  0  0  0  0  0  0  0
    7.1366  -14.8906   21.0633 C   0  0  0  0  0  0  0  0  0  0  0  0
    8.4854  -14.5297   21.5940 C   0  0  0  0  0  0  0  0  0  0  0  0
    9.1363  -15.4891   22.4997 C   0  0  0  0  0  0  0  0  0  0  0  0
   10.2875  -16.2772   21.9802 C   0  0  2  0  0  0  0  0  0  0  0  0
    9.9423  -17.0713   20.8262 N   0  0  0  0  0  0  0  0  0  0  0  0
   11.0724  -17.0484   22.9509 C   0  0  0  0  0  0  0  0  0  0  0  0
   10.7738  -18.2551   23.1417 O   0  0  0  0  0  0  0  0  0  0  0  0
    7.3857  -11.6214   19.0320 N   0  0  0  0  0  0  0  0  0  0  0  0
   12.1595  -16.5110   23.6874 C   0  0  1  0  0  0  0  0  0  0  0  0
   13.0912  -17.3209   24.4729 C   0  0  0  0  0  0  0  0  0  0  0  0
   14.5123  -16.8129   24.2498 C   0  0  0  0  0  0  0  0  0  0  0  0
   15.5416  -17.5188   25.0680 C   0  0  0  0  0  0  0  0  0  0  0  0
   16.9250  -17.0405   24.8805 O   0  0  0  0  0  0  0  0  0  0  0  0
   17.2816  -15.8687   25.0401 C   0  0  0  0  0  0  0  0  0  0  0  0
   12.7222  -17.2284   25.8999 O   0  0  0  0  0  0  0  0  0  0  0  0
   13.2866  -17.8802   26.8194 O   0  0  0  0  0  0  0  0  0  0  0  0
   17.8925  -17.9619   24.5000 O   0  0  0  0  0  0  0  0  0  0  0  0
  2  1  1  6
  2  3  1  0
  3  4  1  0
  4  8  1  0
  4  5  2  0
  5  6  1  0
  7  6  1  0
  8  7  2  0
  9  2  1  0
  9 19  1  0
 10  9  2  0
 12 14  1  0
 12 11  1  0
 13 12  2  0
 15 16  1  0
 15 14  1  0
 18 17  1  1
 17 16  1  0
 18 19  1  0
 20 18  1  0
 21 20  2  0
 22 20  1  0
 23 22  1  0
 23 28  1  0
 23 24  1  6
 25 24  1  0
 26 25  1  0
 27 26  2  0
 28 31  1  0
 29 28  2  0
 30 26  1  0
M  END
$$$$
