HRE.pdb
     RDKit          3D

 31 31  0  0  1  0  0  0  0  0999 V2000
    6.5612  -15.8882   26.1986 N   0  0  0  0  0  0  0  0  0  0  0  0
    7.2976  -15.2391   25.1398 C   0  0  1  0  0  0  0  0  0  0  0  0
    8.0926  -14.0979   25.7098 C   0  0  0  0  0  0  0  0  0  0  0  0
    7.1357  -13.0724   26.1939 C   0  0  0  0  0  0  0  0  0  0  0  0
    5.9561  -12.6186   25.6425 C   0  0  0  0  0  0  0  0  0  0  0  0
    5.4219  -11.6673   26.4479 N   0  0  0  0  0  0  0  0  0  0  0  0
    6.2593  -11.5321   27.4863 C   0  0  0  0  0  0  0  0  0  0  0  0
    7.2946  -12.3804   27.3337 N   0  0  0  0  0  0  0  0  0  0  0  0
    8.1351  -16.2330   24.4359 C   0  0  0  0  0  0  0  0  0  0  0  0
    8.6806  -17.1257   25.1318 O   0  0  0  0  0  0  0  0  0  0  0  0
    7.1587  -13.9160   18.5116 N   0  0  0  0  0  0  0  0  0  0  0  0
    8.5098  -13.5525   18.2490 C   0  0  0  0  0  0  0  0  0  0  0  0
    8.8381  -12.3348   18.0272 N   0  0  0  0  0  0  0  0  0  0  0  0
    9.5569  -14.5324   18.2221 N   0  0  0  0  0  0  0  0  0  0  0  0
    9.2793  -15.8605   18.7356 C   0  0  0  0  0  0  0  0  0  0  0  0
    9.3779  -15.8414   20.2259 C   0  0  0  0  0  0  0  0  0  0  0  0
    9.1943  -17.1179   20.9338 C   0  0  0  0  0  0  0  0  0  0  0  0
    9.3061  -17.1216   22.4182 C   0  0  2  0  0  0  0  0  0  0  0  0
    8.3554  -16.2392   23.0497 N   0  0  0  0  0  0  0  0  0  0  0  0
   10.6467  -16.9733   22.9959 C   0  0  0  0  0  0  0  0  0  0  0  0
   11.1184  -15.8151   23.1296 O   0  0  0  0  0  0  0  0  0  0  0  0
    9.7888  -11.9747   17.8667 N   0  0  0  0  0  0  0  0  0  0  0  0
   11.4451  -18.0664   23.4211 C   0  0  2  0  0  0  0  0  0  0  0  0
   12.7986  -17.9263   23.9590 C   0  0  0  0  0  0  0  0  0  0  0  0
   13.1402  -19.1584   24.7913 C   0  0  0  0  0  0  0  0  0  0  0  0
   12.4028  -19.2360   26.0864 C   0  0  0  0  0  0  0  0  0  0  0  0
   12.0924  -20.6029   26.5480 O   0  0  0  0  0  0  0  0  0  0  0  0
   12.2797  -21.6217   25.8752 C   0  0  0  0  0  0  0  0  0  0  0  0
   13.7474  -17.7750   22.8375 O   0  0  0  0  0  0  0  0  0  0  0  0
   14.8503  -17.1704   22.9216 O   0  0  0  0  0  0  0  0  0  0  0  0
   11.5550  -20.7605   27.8193 O   0  0  0  0  0  0  0  0  0  0  0  0
  2  1  1  1
  2  3  1  0
  3  4  1  0
  4  8  1  0
  4  5  2  0
  5  6  1  0
  7  6  1  0
  8  7  2  0
  9  2  1  0
  9 19  1  0
 10  9  2  0
 12 14  1  0
 12 11  1  0
 13 12  2  0
 15 16  1  0
 15 14  1  0
 18 17  1  6
 17 16  1  0
 18 19  1  0
 20 18  1  0
 21 20  2  0
 22 20  1  0
 23 22  1  0
 23 28  1  0
 23 24  1  1
 25 24  1  0
 26 25  1  0
 27 26  2  0
 28 31  1  0
 29 28  2  0
 30 26  1  0
M  END
$$$$
