HRE.pdb
     RDKit          3D

 31 31  0  0  1  0  0  0  0  0999 V2000
    9.7397  -16.2465   18.7846 N   0  0  0  0  0  0  0  0  0  0  0  0
   10.5227  -15.0439   18.6255 C   0  0  1  0  0  0  0  0  0  0  0  0
   10.1219  -14.0433   19.6733 C   0  0  0  0  0  0  0  0  0  0  0  0
    8.7201  -13.6377   19.4040 C   0  0  0  0  0  0  0  0  0  0  0  0
    7.5353  -14.1157   19.9229 C   0  0  0  0  0  0  0  0  0  0  0  0
    6.4990  -13.4338   19.3751 N   0  0  0  0  0  0  0  0  0  0  0  0
    7.0337  -12.5436   18.5270 C   0  0  0  0  0  0  0  0  0  0  0  0
    8.3751  -12.6661   18.5438 N   0  0  0  0  0  0  0  0  0  0  0  0
   11.9616  -15.3791   18.6662 C   0  0  0  0  0  0  0  0  0  0  0  0
   12.3184  -16.3017   19.4410 O   0  0  0  0  0  0  0  0  0  0  0  0
   17.6430  -11.3032   13.6351 N   0  0  0  0  0  0  0  0  0  0  0  0
   16.8071  -12.3176   14.1818 C   0  0  0  0  0  0  0  0  0  0  0  0
   15.9645  -12.9475   13.4519 N   0  0  0  0  0  0  0  0  0  0  0  0
   16.8738  -12.6753   15.5692 N   0  0  0  0  0  0  0  0  0  0  0  0
   17.4409  -13.9612   15.9290 C   0  0  0  0  0  0  0  0  0  0  0  0
   16.6352  -14.5613   17.0344 C   0  0  0  0  0  0  0  0  0  0  0  0
   15.1709  -14.4529   16.9419 C   0  0  0  0  0  0  0  0  0  0  0  0
   14.3531  -14.9989   18.0596 C   0  0  2  0  0  0  0  0  0  0  0  0
   12.9440  -14.7347   17.8984 N   0  0  0  0  0  0  0  0  0  0  0  0
   14.8024  -14.7159   19.4275 C   0  0  0  0  0  0  0  0  0  0  0  0
   14.4576  -13.6302   19.9604 O   0  0  0  0  0  0  0  0  0  0  0  0
   15.4815  -13.8247   13.6895 N   0  0  0  0  0  0  0  0  0  0  0  0
   15.6031  -15.6036   20.1916 C   0  0  2  0  0  0  0  0  0  0  0  0
   16.0398  -15.3328   21.5616 C   0  0  0  0  0  0  0  0  0  0  0  0
   15.4361  -16.3748   22.4983 C   0  0  0  0  0  0  0  0  0  0  0  0
   15.8838  -16.2443   23.9159 C   0  0  0  0  0  0  0  0  0  0  0  0
   15.2223  -17.1585   24.8670 O   0  0  0  0  0  0  0  0  0  0  0  0
   15.7366  -17.5591   25.9161 C   0  0  0  0  0  0  0  0  0  0  0  0
   17.5151  -15.3779   21.6128 O   0  0  0  0  0  0  0  0  0  0  0  0
   18.2357  -15.9342   20.7410 O   0  0  0  0  0  0  0  0  0  0  0  0
   13.9394  -17.6002   24.5690 O   0  0  0  0  0  0  0  0  0  0  0  0
  2  1  1  1
  2  3  1  0
  3  4  1  0
  4  8  1  0
  4  5  2  0
  5  6  1  0
  7  6  1  0
  8  7  2  0
  9  2  1  0
  9 19  1  0
 10  9  2  0
 12 14  1  0
 12 11  1  0
 13 12  2  0
 15 16  1  0
 15 14  1  0
 18 17  1  6
 17 16  1  0
 18 19  1  0
 20 18  1  0
 21 20  2  0
 22 20  1  0
 23 22  1  0
 23 28  1  0
 23 24  1  6
 25 24  1  0
 26 25  1  0
 27 26  2  0
 28 31  1  0
 29 28  2  0
 30 26  1  0
M  END
$$$$
