HRE.pdb
     RDKit          3D

 31 31  0  0  1  0  0  0  0  0999 V2000
   14.5155  -13.8483   18.1861 N   0  0  0  0  0  0  0  0  0  0  0  0
   13.9788  -15.1729   18.3917 C   0  0  1  0  0  0  0  0  0  0  0  0
   15.0766  -16.1877   18.2354 C   0  0  0  0  0  0  0  0  0  0  0  0
   15.2804  -16.4191   16.7839 C   0  0  0  0  0  0  0  0  0  0  0  0
   14.5047  -16.0569   15.7029 C   0  0  0  0  0  0  0  0  0  0  0  0
   15.0969  -16.4888   14.5619 N   0  0  0  0  0  0  0  0  0  0  0  0
   16.2260  -17.1111   14.9298 C   0  0  0  0  0  0  0  0  0  0  0  0
   16.3377  -17.0694   16.2717 N   0  0  0  0  0  0  0  0  0  0  0  0
   13.3127  -15.2397   19.7094 C   0  0  0  0  0  0  0  0  0  0  0  0
   13.8512  -14.6208   20.6613 O   0  0  0  0  0  0  0  0  0  0  0  0
    6.3650  -12.3300   19.4391 N   0  0  0  0  0  0  0  0  0  0  0  0
    7.6130  -12.3093   18.7544 C   0  0  0  0  0  0  0  0  0  0  0  0
    7.8854  -11.3958   17.8995 N   0  0  0  0  0  0  0  0  0  0  0  0
    8.6144  -13.3080   18.9932 N   0  0  0  0  0  0  0  0  0  0  0  0
    8.2938  -14.4181   19.8703 C   0  0  0  0  0  0  0  0  0  0  0  0
    9.4480  -15.3656   19.9054 C   0  0  0  0  0  0  0  0  0  0  0  0
   10.0564  -15.6445   21.2156 C   0  0  0  0  0  0  0  0  0  0  0  0
   11.5046  -15.9863   21.2603 C   0  0  2  0  0  0  0  0  0  0  0  0
   12.1259  -15.9462   19.9589 N   0  0  0  0  0  0  0  0  0  0  0  0
   11.8932  -17.1880   22.0073 C   0  0  0  0  0  0  0  0  0  0  0  0
   12.1248  -18.2450   21.3663 O   0  0  0  0  0  0  0  0  0  0  0  0
    8.7262  -11.3389   17.3086 N   0  0  0  0  0  0  0  0  0  0  0  0
   12.0299  -17.2264   23.4189 C   0  0  1  0  0  0  0  0  0  0  0  0
   13.1660  -17.8355   24.1112 C   0  0  0  0  0  0  0  0  0  0  0  0
   14.4542  -17.1507   23.6650 C   0  0  0  0  0  0  0  0  0  0  0  0
   15.6776  -17.6577   24.3531 C   0  0  0  0  0  0  0  0  0  0  0  0
   16.9484  -17.0791   23.8757 O   0  0  0  0  0  0  0  0  0  0  0  0
   17.4286  -16.0202   24.2929 C   0  0  0  0  0  0  0  0  0  0  0  0
   12.9750  -17.6887   25.5683 O   0  0  0  0  0  0  0  0  0  0  0  0
   13.6986  -18.2479   26.4357 O   0  0  0  0  0  0  0  0  0  0  0  0
   17.6543  -17.7641   22.8948 O   0  0  0  0  0  0  0  0  0  0  0  0
  2  1  1  1
  2  3  1  0
  3  4  1  0
  4  8  1  0
  4  5  2  0
  5  6  1  0
  7  6  1  0
  8  7  2  0
  9  2  1  0
  9 19  1  0
 10  9  2  0
 12 14  1  0
 12 11  1  0
 13 12  2  0
 15 16  1  0
 15 14  1  0
 18 17  1  6
 17 16  1  0
 18 19  1  0
 20 18  1  0
 21 20  2  0
 22 20  1  0
 23 22  1  0
 23 28  1  0
 23 24  1  6
 25 24  1  0
 26 25  1  0
 27 26  2  0
 28 31  1  0
 29 28  2  0
 30 26  1  0
M  END
$$$$
