HRE.pdb
     RDKit          3D

 31 31  0  0  1  0  0  0  0  0999 V2000
    8.0984  -17.4340   18.6221 N   0  0  0  0  0  0  0  0  0  0  0  0
    9.1467  -16.4927   18.9381 C   0  0  1  0  0  0  0  0  0  0  0  0
    8.6084  -15.4351   19.8607 C   0  0  0  0  0  0  0  0  0  0  0  0
    7.7927  -14.4962   19.0514 C   0  0  0  0  0  0  0  0  0  0  0  0
    7.5490  -14.4639   17.6946 C   0  0  0  0  0  0  0  0  0  0  0  0
    6.7389  -13.4143   17.4098 N   0  0  0  0  0  0  0  0  0  0  0  0
    6.4828  -12.8027   18.5752 C   0  0  0  0  0  0  0  0  0  0  0  0
    7.1189  -13.4554   19.5672 N   0  0  0  0  0  0  0  0  0  0  0  0
   10.3085  -17.2134   19.4997 C   0  0  0  0  0  0  0  0  0  0  0  0
   10.1275  -17.8655   20.5585 O   0  0  0  0  0  0  0  0  0  0  0  0
   13.3368  -21.7061   15.7152 N   0  0  0  0  0  0  0  0  0  0  0  0
   12.6028  -20.6682   15.0746 C   0  0  0  0  0  0  0  0  0  0  0  0
   11.6487  -20.9341   14.2630 N   0  0  0  0  0  0  0  0  0  0  0  0
   12.9003  -19.2851   15.3110 N   0  0  0  0  0  0  0  0  0  0  0  0
   13.9510  -18.9515   16.2540 C   0  0  0  0  0  0  0  0  0  0  0  0
   13.4574  -19.1892   17.6436 C   0  0  0  0  0  0  0  0  0  0  0  0
   13.8092  -18.1930   18.6675 C   0  0  0  0  0  0  0  0  0  0  0  0
   12.7454  -17.7444   19.6073 C   0  0  2  0  0  0  0  0  0  0  0  0
   11.5897  -17.2131   18.9266 N   0  0  0  0  0  0  0  0  0  0  0  0
   13.1505  -16.8907   20.7299 C   0  0  0  0  0  0  0  0  0  0  0  0
   13.1588  -15.6441   20.5640 O   0  0  0  0  0  0  0  0  0  0  0  0
   11.0629  -20.2536   13.7599 N   0  0  0  0  0  0  0  0  0  0  0  0
   13.5301  -17.3919   22.0018 C   0  0  1  0  0  0  0  0  0  0  0  0
   13.9168  -16.5436   23.1296 C   0  0  0  0  0  0  0  0  0  0  0  0
   13.0734  -16.9086   24.3473 C   0  0  0  0  0  0  0  0  0  0  0  0
   12.8669  -18.3764   24.5212 C   0  0  0  0  0  0  0  0  0  0  0  0
   12.0458  -18.7583   25.6863 O   0  0  0  0  0  0  0  0  0  0  0  0
   11.6382  -17.9626   26.5387 C   0  0  0  0  0  0  0  0  0  0  0  0
   15.3527  -16.7442   23.4107 O   0  0  0  0  0  0  0  0  0  0  0  0
   16.0065  -16.0787   24.2584 O   0  0  0  0  0  0  0  0  0  0  0  0
   11.7062  -20.0966   25.8400 O   0  0  0  0  0  0  0  0  0  0  0  0
  2  1  1  1
  2  3  1  0
  3  4  1  0
  4  8  1  0
  4  5  2  0
  5  6  1  0
  7  6  1  0
  8  7  2  0
  9  2  1  0
  9 19  1  0
 10  9  2  0
 12 14  1  0
 12 11  1  0
 13 12  2  0
 15 16  1  0
 15 14  1  0
 18 17  1  6
 17 16  1  0
 18 19  1  0
 20 18  1  0
 21 20  2  0
 22 20  1  0
 23 22  1  0
 23 28  1  0
 23 24  1  6
 25 24  1  0
 26 25  1  0
 27 26  2  0
 28 31  1  0
 29 28  2  0
 30 26  1  0
M  END
$$$$
