HRE.pdb
     RDKit          3D

 31 31  0  0  1  0  0  0  0  0999 V2000
    9.9661  -18.4016   24.8406 N   0  0  0  0  0  0  0  0  0  0  0  0
   10.1297  -16.9758   24.6826 C   0  0  1  0  0  0  0  0  0  0  0  0
   11.3177  -16.5167   25.4810 C   0  0  0  0  0  0  0  0  0  0  0  0
   10.9938  -16.6865   26.9191 C   0  0  0  0  0  0  0  0  0  0  0  0
   10.2911  -15.8702   27.7801 C   0  0  0  0  0  0  0  0  0  0  0  0
   10.2524  -16.4428   29.0088 N   0  0  0  0  0  0  0  0  0  0  0  0
   10.9226  -17.6000   28.9118 C   0  0  0  0  0  0  0  0  0  0  0  0
   11.3707  -17.7480   27.6501 N   0  0  0  0  0  0  0  0  0  0  0  0
   10.2350  -16.6442   23.2461 C   0  0  0  0  0  0  0  0  0  0  0  0
   10.9259  -17.4077   22.5259 O   0  0  0  0  0  0  0  0  0  0  0  0
    7.8485  -15.3675   16.7716 N   0  0  0  0  0  0  0  0  0  0  0  0
    7.9619  -14.0105   16.3565 C   0  0  0  0  0  0  0  0  0  0  0  0
    8.0897  -13.7035   15.1200 N   0  0  0  0  0  0  0  0  0  0  0  0
    7.9378  -12.9336   17.3036 N   0  0  0  0  0  0  0  0  0  0  0  0
    7.6587  -13.2372   18.6945 C   0  0  0  0  0  0  0  0  0  0  0  0
    8.8304  -13.9498   19.2864 C   0  0  0  0  0  0  0  0  0  0  0  0
    8.7150  -14.4010   20.6819 C   0  0  0  0  0  0  0  0  0  0  0  0
    9.8453  -15.1729   21.2674 C   0  0  2  0  0  0  0  0  0  0  0  0
    9.6154  -15.5381   22.6440 N   0  0  0  0  0  0  0  0  0  0  0  0
   11.1999  -14.6452   21.0679 C   0  0  0  0  0  0  0  0  0  0  0  0
   11.7832  -14.1042   22.0419 O   0  0  0  0  0  0  0  0  0  0  0  0
    8.2411  -12.7617   14.7337 N   0  0  0  0  0  0  0  0  0  0  0  0
   11.8973  -14.7154   19.8343 C   0  0  2  0  0  0  0  0  0  0  0  0
   13.3161  -14.3919   19.6809 C   0  0  0  0  0  0  0  0  0  0  0  0
   14.1307  -15.2133   20.6755 C   0  0  0  0  0  0  0  0  0  0  0  0
   15.6066  -15.1045   20.4832 C   0  0  0  0  0  0  0  0  0  0  0  0
   16.4213  -15.8444   21.4663 O   0  0  0  0  0  0  0  0  0  0  0  0
   16.6210  -17.0627   21.4254 C   0  0  0  0  0  0  0  0  0  0  0  0
   13.7294  -14.6914   18.2950 O   0  0  0  0  0  0  0  0  0  0  0  0
   14.7260  -14.1695   17.7265 O   0  0  0  0  0  0  0  0  0  0  0  0
   17.0033  -15.1310   22.5065 O   0  0  0  0  0  0  0  0  0  0  0  0
  2  1  1  6
  2  3  1  0
  3  4  1  0
  4  8  1  0
  4  5  2  0
  5  6  1  0
  7  6  1  0
  8  7  2  0
  9  2  1  0
  9 19  1  0
 10  9  2  0
 12 14  1  0
 12 11  1  0
 13 12  2  0
 15 16  1  0
 15 14  1  0
 18 17  1  1
 17 16  1  0
 18 19  1  0
 20 18  1  0
 21 20  2  0
 22 20  1  0
 23 22  1  0
 23 28  1  0
 23 24  1  6
 25 24  1  0
 26 25  1  0
 27 26  2  0
 28 31  1  0
 29 28  2  0
 30 26  1  0
M  END
$$$$
