HRE.pdb
     RDKit          3D

 31 31  0  0  1  0  0  0  0  0999 V2000
    7.9095  -16.9401   20.0396 N   0  0  0  0  0  0  0  0  0  0  0  0
    9.0512  -16.0608   20.1278 C   0  0  1  0  0  0  0  0  0  0  0  0
    8.6959  -14.8609   20.9606 C   0  0  0  0  0  0  0  0  0  0  0  0
    7.7413  -14.0327   20.1831 C   0  0  0  0  0  0  0  0  0  0  0  0
    7.2309  -14.2095   18.9143 C   0  0  0  0  0  0  0  0  0  0  0  0
    6.3875  -13.1879   18.6243 N   0  0  0  0  0  0  0  0  0  0  0  0
    6.3744  -12.3870   19.6995 C   0  0  0  0  0  0  0  0  0  0  0  0
    7.1917  -12.8964   20.6414 N   0  0  0  0  0  0  0  0  0  0  0  0
   10.2132  -16.8070   20.6546 C   0  0  0  0  0  0  0  0  0  0  0  0
   10.1728  -17.1647   21.8585 O   0  0  0  0  0  0  0  0  0  0  0  0
   11.9737  -21.6250   15.9750 N   0  0  0  0  0  0  0  0  0  0  0  0
   12.2604  -20.3423   15.4282 C   0  0  0  0  0  0  0  0  0  0  0  0
   11.7089  -19.9456   14.3428 N   0  0  0  0  0  0  0  0  0  0  0  0
   13.1763  -19.4432   16.0687 N   0  0  0  0  0  0  0  0  0  0  0  0
   13.7131  -19.8058   17.3667 C   0  0  0  0  0  0  0  0  0  0  0  0
   12.8101  -19.2825   18.4353 C   0  0  0  0  0  0  0  0  0  0  0  0
   13.3974  -18.3784   19.4363 C   0  0  0  0  0  0  0  0  0  0  0  0
   12.4989  -17.7935   20.4691 C   0  0  2  0  0  0  0  0  0  0  0  0
   11.3483  -17.1369   19.8978 N   0  0  0  0  0  0  0  0  0  0  0  0
   13.1178  -16.9795   21.5215 C   0  0  0  0  0  0  0  0  0  0  0  0
   13.3988  -15.7805   21.2663 O   0  0  0  0  0  0  0  0  0  0  0  0
   11.8273  -19.0269   13.8941 N   0  0  0  0  0  0  0  0  0  0  0  0
   13.4141  -17.4669   22.8206 C   0  0  2  0  0  0  0  0  0  0  0  0
   14.0733  -16.6730   23.8580 C   0  0  0  0  0  0  0  0  0  0  0  0
   13.7753  -17.2825   25.2245 C   0  0  0  0  0  0  0  0  0  0  0  0
   12.3286  -17.2669   25.5905 C   0  0  0  0  0  0  0  0  0  0  0  0
   11.9883  -17.9996   26.8254 O   0  0  0  0  0  0  0  0  0  0  0  0
   12.7901  -18.6838   27.4694 C   0  0  0  0  0  0  0  0  0  0  0  0
   15.5273  -16.6580   23.5995 O   0  0  0  0  0  0  0  0  0  0  0  0
   16.1021  -17.3942   22.7530 O   0  0  0  0  0  0  0  0  0  0  0  0
   10.6848  -17.9187   27.2988 O   0  0  0  0  0  0  0  0  0  0  0  0
  2  1  1  1
  2  3  1  0
  3  4  1  0
  4  8  1  0
  4  5  2  0
  5  6  1  0
  7  6  1  0
  8  7  2  0
  9  2  1  0
  9 19  1  0
 10  9  2  0
 12 14  1  0
 12 11  1  0
 13 12  2  0
 15 16  1  0
 15 14  1  0
 18 17  1  6
 17 16  1  0
 18 19  1  0
 20 18  1  0
 21 20  2  0
 22 20  1  0
 23 22  1  0
 23 28  1  0
 23 24  1  1
 25 24  1  0
 26 25  1  0
 27 26  2  0
 28 31  1  0
 29 28  2  0
 30 26  1  0
M  END
$$$$
