HRE.pdb
     RDKit          3D

 31 31  0  0  1  0  0  0  0  0999 V2000
    6.6260  -20.1486   25.2729 N   0  0  0  0  0  0  0  0  0  0  0  0
    6.5089  -18.7467   25.5981 C   0  0  1  0  0  0  0  0  0  0  0  0
    7.2160  -18.4732   26.8960 C   0  0  0  0  0  0  0  0  0  0  0  0
    7.3005  -19.7501   27.6472 C   0  0  0  0  0  0  0  0  0  0  0  0
    6.7811  -20.9942   27.3576 C   0  0  0  0  0  0  0  0  0  0  0  0
    7.1183  -21.8612   28.3444 N   0  0  0  0  0  0  0  0  0  0  0  0
    7.8382  -21.1642   29.2353 C   0  0  0  0  0  0  0  0  0  0  0  0
    7.9487  -19.8890   28.8150 N   0  0  0  0  0  0  0  0  0  0  0  0
    7.0226  -17.9323   24.4767 C   0  0  0  0  0  0  0  0  0  0  0  0
    6.4269  -18.0258   23.3742 O   0  0  0  0  0  0  0  0  0  0  0  0
    8.5230  -14.9117   18.0955 N   0  0  0  0  0  0  0  0  0  0  0  0
    8.1636  -13.6344   18.6112 C   0  0  0  0  0  0  0  0  0  0  0  0
    8.1648  -12.5936   17.8653 N   0  0  0  0  0  0  0  0  0  0  0  0
    7.7860  -13.4607   19.9840 N   0  0  0  0  0  0  0  0  0  0  0  0
    7.6296  -14.6385   20.8163 C   0  0  0  0  0  0  0  0  0  0  0  0
    7.2917  -14.2150   22.2083 C   0  0  0  0  0  0  0  0  0  0  0  0
    7.1687  -15.2697   23.2266 C   0  0  0  0  0  0  0  0  0  0  0  0
    8.3892  -16.0392   23.5933 C   0  0  2  0  0  0  0  0  0  0  0  0
    8.1253  -17.0689   24.5687 N   0  0  0  0  0  0  0  0  0  0  0  0
    9.5957  -15.2744   23.9286 C   0  0  0  0  0  0  0  0  0  0  0  0
    9.5533  -14.4834   24.9054 O   0  0  0  0  0  0  0  0  0  0  0  0
    7.9816  -11.6253   18.1622 N   0  0  0  0  0  0  0  0  0  0  0  0
   10.8173  -15.3799   23.2147 C   0  0  2  0  0  0  0  0  0  0  0  0
   12.0384  -15.9632   23.7712 C   0  0  0  0  0  0  0  0  0  0  0  0
   11.7537  -17.3922   24.2234 C   0  0  0  0  0  0  0  0  0  0  0  0
   12.2439  -17.6995   25.5991 C   0  0  0  0  0  0  0  0  0  0  0  0
   12.0404  -19.0935   26.0383 O   0  0  0  0  0  0  0  0  0  0  0  0
   12.5178  -20.0781   25.4653 C   0  0  0  0  0  0  0  0  0  0  0  0
   13.0936  -15.9436   22.7381 O   0  0  0  0  0  0  0  0  0  0  0  0
   12.8726  -16.0362   21.5005 O   0  0  0  0  0  0  0  0  0  0  0  0
   11.2633  -19.3195   27.1674 O   0  0  0  0  0  0  0  0  0  0  0  0
  2  1  1  6
  2  3  1  0
  3  4  1  0
  4  8  1  0
  4  5  2  0
  5  6  1  0
  7  6  1  0
  8  7  2  0
  9  2  1  0
  9 19  1  0
 10  9  2  0
 12 14  1  0
 12 11  1  0
 13 12  2  0
 15 16  1  0
 15 14  1  0
 18 17  1  1
 17 16  1  0
 18 19  1  0
 20 18  1  0
 21 20  2  0
 22 20  1  0
 23 22  1  0
 23 28  1  0
 23 24  1  1
 25 24  1  0
 26 25  1  0
 27 26  2  0
 28 31  1  0
 29 28  2  0
 30 26  1  0
M  END
$$$$
