HRE.pdb
     RDKit          3D

 31 31  0  0  1  0  0  0  0  0999 V2000
   10.3136  -16.0955   20.7615 N   0  0  0  0  0  0  0  0  0  0  0  0
    9.3025  -16.0111   21.7887 C   0  0  1  0  0  0  0  0  0  0  0  0
    7.9647  -15.7518   21.1541 C   0  0  0  0  0  0  0  0  0  0  0  0
    8.0550  -14.4736   20.4058 C   0  0  0  0  0  0  0  0  0  0  0  0
    9.1403  -13.6628   20.1481 C   0  0  0  0  0  0  0  0  0  0  0  0
    8.7365  -12.5918   19.4210 N   0  0  0  0  0  0  0  0  0  0  0  0
    7.4173  -12.7357   19.2295 C   0  0  0  0  0  0  0  0  0  0  0  0
    7.0049  -13.8721   19.8240 N   0  0  0  0  0  0  0  0  0  0  0  0
    9.3248  -17.2401   22.6096 C   0  0  0  0  0  0  0  0  0  0  0  0
    8.6083  -17.2588   23.6416 O   0  0  0  0  0  0  0  0  0  0  0  0
    8.2550  -20.3424   17.8346 N   0  0  0  0  0  0  0  0  0  0  0  0
    8.2802  -21.7153   18.2100 C   0  0  0  0  0  0  0  0  0  0  0  0
    8.4235  -22.6396   17.3354 N   0  0  0  0  0  0  0  0  0  0  0  0
    8.1467  -22.1194   19.5797 N   0  0  0  0  0  0  0  0  0  0  0  0
    8.0547  -21.0935   20.6013 C   0  0  0  0  0  0  0  0  0  0  0  0
    9.4146  -20.8365   21.1631 C   0  0  0  0  0  0  0  0  0  0  0  0
    9.5350  -20.7310   22.6256 C   0  0  0  0  0  0  0  0  0  0  0  0
   10.1763  -19.5131   23.1926 C   0  0  2  0  0  0  0  0  0  0  0  0
   10.0912  -18.3766   22.3081 N   0  0  0  0  0  0  0  0  0  0  0  0
   11.5230  -19.6583   23.7570 C   0  0  0  0  0  0  0  0  0  0  0  0
   11.9040  -20.8021   24.1151 O   0  0  0  0  0  0  0  0  0  0  0  0
    8.4199  -23.6542   17.5082 N   0  0  0  0  0  0  0  0  0  0  0  0
   12.4288  -18.5782   23.9179 C   0  0  1  0  0  0  0  0  0  0  0  0
   13.8047  -18.7322   24.3913 C   0  0  0  0  0  0  0  0  0  0  0  0
   14.7122  -17.7768   23.6224 C   0  0  0  0  0  0  0  0  0  0  0  0
   16.1171  -17.7424   24.1246 C   0  0  0  0  0  0  0  0  0  0  0  0
   17.0193  -16.8300   23.3957 O   0  0  0  0  0  0  0  0  0  0  0  0
   18.2392  -16.9951   23.2944 C   0  0  0  0  0  0  0  0  0  0  0  0
   13.8494  -18.4426   25.8388 O   0  0  0  0  0  0  0  0  0  0  0  0
   12.9061  -17.9084   26.4820 O   0  0  0  0  0  0  0  0  0  0  0  0
   16.4675  -15.7124   22.7823 O   0  0  0  0  0  0  0  0  0  0  0  0
  2  1  1  6
  2  3  1  0
  3  4  1  0
  4  8  1  0
  4  5  2  0
  5  6  1  0
  7  6  1  0
  8  7  2  0
  9  2  1  0
  9 19  1  0
 10  9  2  0
 12 14  1  0
 12 11  1  0
 13 12  2  0
 15 16  1  0
 15 14  1  0
 18 17  1  6
 17 16  1  0
 18 19  1  0
 20 18  1  0
 21 20  2  0
 22 20  1  0
 23 22  1  0
 23 28  1  0
 23 24  1  1
 25 24  1  0
 26 25  1  0
 27 26  2  0
 28 31  1  0
 29 28  2  0
 30 26  1  0
M  END
$$$$
