HRE.pdb
     RDKit          3D

 31 31  0  0  1  0  0  0  0  0999 V2000
    7.4006  -16.4860   20.2910 N   0  0  0  0  0  0  0  0  0  0  0  0
    8.7205  -16.1089   20.7386 C   0  0  1  0  0  0  0  0  0  0  0  0
    8.6546  -14.7708   21.4202 C   0  0  0  0  0  0  0  0  0  0  0  0
    8.2477  -13.7636   20.4093 C   0  0  0  0  0  0  0  0  0  0  0  0
    7.8868  -13.9185   19.0875 C   0  0  0  0  0  0  0  0  0  0  0  0
    7.5947  -12.7048   18.5578 N   0  0  0  0  0  0  0  0  0  0  0  0
    7.7718  -11.8077   19.5384 C   0  0  0  0  0  0  0  0  0  0  0  0
    8.1662  -12.4464   20.6571 N   0  0  0  0  0  0  0  0  0  0  0  0
    9.2741  -17.1720   21.6035 C   0  0  0  0  0  0  0  0  0  0  0  0
    8.4771  -17.7641   22.3736 O   0  0  0  0  0  0  0  0  0  0  0  0
   11.4562  -24.8821   20.2983 N   0  0  0  0  0  0  0  0  0  0  0  0
   10.3427  -24.0202   20.5075 C   0  0  0  0  0  0  0  0  0  0  0  0
    9.1630  -24.3603   20.1439 N   0  0  0  0  0  0  0  0  0  0  0  0
   10.4954  -22.7384   21.1329 N   0  0  0  0  0  0  0  0  0  0  0  0
   11.7860  -22.3891   21.6960 C   0  0  0  0  0  0  0  0  0  0  0  0
   11.6601  -21.1093   22.4558 C   0  0  0  0  0  0  0  0  0  0  0  0
   11.2544  -19.9117   21.7038 C   0  0  0  0  0  0  0  0  0  0  0  0
   11.1192  -18.6278   22.4451 C   0  0  2  0  0  0  0  0  0  0  0  0
   10.6240  -17.5562   21.6158 N   0  0  0  0  0  0  0  0  0  0  0  0
   12.2585  -18.1955   23.2626 C   0  0  0  0  0  0  0  0  0  0  0  0
   12.9371  -17.2106   22.8740 O   0  0  0  0  0  0  0  0  0  0  0  0
    8.3097  -23.7894   20.2161 N   0  0  0  0  0  0  0  0  0  0  0  0
   12.6383  -18.8236   24.4767 C   0  0  2  0  0  0  0  0  0  0  0  0
   12.6461  -18.1493   25.7753 C   0  0  0  0  0  0  0  0  0  0  0  0
   11.2400  -17.6489   26.0917 C   0  0  0  0  0  0  0  0  0  0  0  0
   11.1531  -16.8442   27.3456 C   0  0  0  0  0  0  0  0  0  0  0  0
    9.8032  -16.3499   27.6787 O   0  0  0  0  0  0  0  0  0  0  0  0
    9.3396  -15.2765   27.2804 C   0  0  0  0  0  0  0  0  0  0  0  0
   13.1057  -19.1005   26.8073 O   0  0  0  0  0  0  0  0  0  0  0  0
   13.8091  -18.7782   27.8023 O   0  0  0  0  0  0  0  0  0  0  0  0
    8.9976  -17.1372   28.4916 O   0  0  0  0  0  0  0  0  0  0  0  0
  2  1  1  1
  2  3  1  0
  3  4  1  0
  4  8  1  0
  4  5  2  0
  5  6  1  0
  7  6  1  0
  8  7  2  0
  9  2  1  0
  9 19  1  0
 10  9  2  0
 12 14  1  0
 12 11  1  0
 13 12  2  0
 15 16  1  0
 15 14  1  0
 18 17  1  6
 17 16  1  0
 18 19  1  0
 20 18  1  0
 21 20  2  0
 22 20  1  0
 23 22  1  0
 23 28  1  0
 23 24  1  6
 25 24  1  0
 26 25  1  0
 27 26  2  0
 28 31  1  0
 29 28  2  0
 30 26  1  0
M  END
$$$$
