HRE.pdb
     RDKit          3D

 31 31  0  0  1  0  0  0  0  0999 V2000
   14.3874  -13.7180   18.0976 N   0  0  0  0  0  0  0  0  0  0  0  0
   13.3346  -14.7056   18.1294 C   0  0  1  0  0  0  0  0  0  0  0  0
   13.9125  -16.0629   17.8410 C   0  0  0  0  0  0  0  0  0  0  0  0
   14.2764  -16.1074   16.4031 C   0  0  0  0  0  0  0  0  0  0  0  0
   13.5315  -16.4767   15.3030 C   0  0  0  0  0  0  0  0  0  0  0  0
   14.2915  -16.3559   14.1864 N   0  0  0  0  0  0  0  0  0  0  0  0
   15.4930  -15.9168   14.5881 C   0  0  0  0  0  0  0  0  0  0  0  0
   15.4847  -15.7665   15.9268 N   0  0  0  0  0  0  0  0  0  0  0  0
   12.6316  -14.6402   19.4279 C   0  0  0  0  0  0  0  0  0  0  0  0
   13.3376  -14.5511   20.4636 O   0  0  0  0  0  0  0  0  0  0  0  0
    8.1525  -12.6290   16.5558 N   0  0  0  0  0  0  0  0  0  0  0  0
    7.8413  -13.9693   16.9211 C   0  0  0  0  0  0  0  0  0  0  0  0
    7.9711  -14.9315   16.0862 N   0  0  0  0  0  0  0  0  0  0  0  0
    7.3708  -14.2968   18.2359 N   0  0  0  0  0  0  0  0  0  0  0  0
    7.4048  -13.2716   19.2617 C   0  0  0  0  0  0  0  0  0  0  0  0
    8.7743  -13.2161   19.8554 C   0  0  0  0  0  0  0  0  0  0  0  0
    9.1537  -14.2907   20.7859 C   0  0  0  0  0  0  0  0  0  0  0  0
   10.5880  -14.6823   20.8611 C   0  0  2  0  0  0  0  0  0  0  0  0
   11.2358  -14.6714   19.5721 N   0  0  0  0  0  0  0  0  0  0  0  0
   10.9198  -15.8923   21.6219 C   0  0  0  0  0  0  0  0  0  0  0  0
   10.7037  -17.0126   21.0927 O   0  0  0  0  0  0  0  0  0  0  0  0
    7.7849  -15.9280   16.2641 N   0  0  0  0  0  0  0  0  0  0  0  0
   11.4795  -15.8727   22.9255 C   0  0  1  0  0  0  0  0  0  0  0  0
   11.6751  -17.0681   23.7463 C   0  0  0  0  0  0  0  0  0  0  0  0
   13.1447  -17.4755   23.7013 C   0  0  0  0  0  0  0  0  0  0  0  0
   14.0857  -16.3266   23.5538 C   0  0  0  0  0  0  0  0  0  0  0  0
   15.5165  -16.6879   23.5439 O   0  0  0  0  0  0  0  0  0  0  0  0
   16.4346  -15.8808   23.3667 C   0  0  0  0  0  0  0  0  0  0  0  0
   11.2581  -16.7725   25.1318 O   0  0  0  0  0  0  0  0  0  0  0  0
   10.8127  -15.6565   25.5128 O   0  0  0  0  0  0  0  0  0  0  0  0
   15.8591  -18.0189   23.7459 O   0  0  0  0  0  0  0  0  0  0  0  0
  2  1  1  1
  2  3  1  0
  3  4  1  0
  4  8  1  0
  4  5  2  0
  5  6  1  0
  7  6  1  0
  8  7  2  0
  9  2  1  0
  9 19  1  0
 10  9  2  0
 12 14  1  0
 12 11  1  0
 13 12  2  0
 15 16  1  0
 15 14  1  0
 18 17  1  6
 17 16  1  0
 18 19  1  0
 20 18  1  0
 21 20  2  0
 22 20  1  0
 23 22  1  0
 23 28  1  0
 23 24  1  1
 25 24  1  0
 26 25  1  0
 27 26  2  0
 28 31  1  0
 29 28  2  0
 30 26  1  0
M  END
$$$$
