LAP.pdb
     RDKit          3D

 21 21  0  0  1  0  0  0  0  0999 V2000
   15.3157  -15.1081  -15.8242 C   0  0  0  0  0  0  0  0  0  0  0  0
   16.5240  -15.5597  -15.0226 C   0  0  2  0  0  0  0  0  0  0  0  0
   16.0719  -15.8628  -13.6128 C   0  0  0  0  0  0  0  0  0  0  0  0
   17.5901  -14.5140  -15.0255 C   0  0  0  0  0  0  0  0  0  0  0  0
   18.2708  -14.3564  -16.3505 C   0  0  2  0  0  0  0  0  0  0  0  0
   19.0750  -15.5041  -16.7070 N   0  0  0  0  0  0  0  0  0  0  0  0
   19.1722  -13.1673  -16.3218 C   0  0  0  0  0  0  0  0  0  0  0  0
   20.2586  -13.1663  -15.6733 O   0  0  0  0  0  0  0  0  0  0  0  0
   19.3040   -9.9786  -18.3088 C   0  0  0  0  0  0  0  0  0  0  0  0
   19.6228  -10.7854  -17.0807 C   0  0  2  0  0  0  0  0  0  0  0  0
   18.8005  -12.0073  -17.0411 N   0  0  0  0  0  0  0  0  0  0  0  0
   19.5125  -10.0367  -15.8149 C   0  0  0  0  0  0  0  0  0  0  0  0
   18.4116  -10.1630  -15.1970 O   0  0  0  0  0  0  0  0  0  0  0  0
   20.4917   -9.2150  -15.2416 N   0  0  0  0  0  0  0  0  0  0  0  0
   21.8090   -8.9676  -15.7860 C   0  0  0  0  0  0  0  0  0  0  0  0
   22.3474   -7.7555  -15.0568 C   0  0  0  0  0  0  0  0  0  0  0  0
   21.7351   -7.9102  -13.7063 C   0  0  0  0  0  0  0  0  0  0  0  0
   20.3576   -8.4734  -14.0097 C   0  0  1  0  0  0  0  0  0  0  0  0
   19.4523   -7.2856  -14.1661 C   0  0  0  0  0  0  0  0  0  0  0  0
   19.2263   -6.9081  -15.3434 O   0  0  0  0  0  0  0  0  0  0  0  0
   18.8749   -6.6093  -13.1280 O   0  0  0  0  0  0  0  0  0  0  0  0
  2  1  1  6
  3  2  1  0
  4  2  1  0
  4  5  1  0
  5  6  1  1
  7  5  1  0
  7  8  2  0
 10  9  1  6
 10 11  1  0
 10 12  1  0
 11  7  1  0
 12 14  1  0
 13 12  2  0
 14 18  1  0
 14 15  1  0
 15 16  1  0
 17 16  1  0
 18 17  1  0
 18 19  1  6
 19 21  1  0
 20 19  2  0
M  END
$$$$
