LAP.pdb
     RDKit          3D

 21 21  0  0  1  0  0  0  0  0999 V2000
   27.1802  -21.3654  -14.7069 C   0  0  0  0  0  0  0  0  0  0  0  0
   25.8133  -20.8654  -14.2731 C   0  0  2  0  0  0  0  0  0  0  0  0
   25.2880  -19.9337  -15.3407 C   0  0  0  0  0  0  0  0  0  0  0  0
   25.8909  -20.1711  -12.9533 C   0  0  0  0  0  0  0  0  0  0  0  0
   26.5611  -20.9833  -11.8879 C   0  0  2  0  0  0  0  0  0  0  0  0
   25.9354  -22.2717  -11.6891 N   0  0  0  0  0  0  0  0  0  0  0  0
   26.5133  -20.2547  -10.5862 C   0  0  0  0  0  0  0  0  0  0  0  0
   26.8626  -19.0430  -10.4842 O   0  0  0  0  0  0  0  0  0  0  0  0
   24.6727  -20.6566   -7.4428 C   0  0  0  0  0  0  0  0  0  0  0  0
   25.9779  -20.3097   -8.1038 C   0  0  2  0  0  0  0  0  0  0  0  0
   26.0640  -20.9396   -9.4329 N   0  0  0  0  0  0  0  0  0  0  0  0
   27.1713  -20.6225   -7.2958 C   0  0  0  0  0  0  0  0  0  0  0  0
   27.5571  -21.8307   -7.3321 O   0  0  0  0  0  0  0  0  0  0  0  0
   27.9054  -19.7270   -6.5073 N   0  0  0  0  0  0  0  0  0  0  0  0
   27.7122  -18.2941   -6.4571 C   0  0  0  0  0  0  0  0  0  0  0  0
   28.4411  -17.8119   -5.2213 C   0  0  0  0  0  0  0  0  0  0  0  0
   29.5870  -18.7627   -5.1477 C   0  0  0  0  0  0  0  0  0  0  0  0
   28.9808  -20.0767   -5.6091 C   0  0  1  0  0  0  0  0  0  0  0  0
   28.4765  -20.7559   -4.3684 C   0  0  0  0  0  0  0  0  0  0  0  0
   27.2323  -20.7418   -4.1917 O   0  0  0  0  0  0  0  0  0  0  0  0
   29.2730  -21.3727   -3.4445 O   0  0  0  0  0  0  0  0  0  0  0  0
  2  1  1  6
  3  2  1  0
  4  2  1  0
  4  5  1  0
  5  6  1  1
  7  5  1  0
  7  8  2  0
 10  9  1  1
 10 11  1  0
 10 12  1  0
 11  7  1  0
 12 14  1  0
 13 12  2  0
 14 18  1  0
 14 15  1  0
 15 16  1  0
 17 16  1  0
 18 17  1  0
 18 19  1  1
 19 21  1  0
 20 19  2  0
M  END
$$$$
