LAP.pdb
     RDKit          3D

 21 21  0  0  1  0  0  0  0  0999 V2000
   27.8746  -21.8586  -14.9413 C   0  0  0  0  0  0  0  0  0  0  0  0
   26.6310  -20.9982  -14.8004 C   0  0  2  0  0  0  0  0  0  0  0  0
   26.5742  -20.0502  -15.9760 C   0  0  0  0  0  0  0  0  0  0  0  0
   26.6438  -20.2453  -13.5108 C   0  0  0  0  0  0  0  0  0  0  0  0
   26.8296  -21.1196  -12.3088 C   0  0  2  0  0  0  0  0  0  0  0  0
   25.8508  -22.1812  -12.2317 N   0  0  0  0  0  0  0  0  0  0  0  0
   26.7091  -20.3058  -11.0635 C   0  0  0  0  0  0  0  0  0  0  0  0
   27.2226  -19.1538  -10.9645 O   0  0  0  0  0  0  0  0  0  0  0  0
   24.4268  -20.1656   -8.2157 C   0  0  0  0  0  0  0  0  0  0  0  0
   25.8576  -20.1322   -8.6767 C   0  0  2  0  0  0  0  0  0  0  0  0
   25.9998  -20.8388   -9.9617 N   0  0  0  0  0  0  0  0  0  0  0  0
   26.8276  -20.6392   -7.6882 C   0  0  0  0  0  0  0  0  0  0  0  0
   26.8798  -21.9012   -7.5682 O   0  0  0  0  0  0  0  0  0  0  0  0
   27.6811  -19.8719   -6.8849 N   0  0  0  0  0  0  0  0  0  0  0  0
   27.8788  -18.4426   -6.9899 C   0  0  0  0  0  0  0  0  0  0  0  0
   28.5640  -18.0150   -5.7099 C   0  0  0  0  0  0  0  0  0  0  0  0
   29.3932  -19.2115   -5.3887 C   0  0  0  0  0  0  0  0  0  0  0  0
   28.5110  -20.3723   -5.8143 C   0  0  1  0  0  0  0  0  0  0  0  0
   27.7027  -20.7407   -4.6036 C   0  0  0  0  0  0  0  0  0  0  0  0
   28.3127  -21.3532   -3.6913 O   0  0  0  0  0  0  0  0  0  0  0  0
   26.3758  -20.4550   -4.4414 O   0  0  0  0  0  0  0  0  0  0  0  0
  2  1  1  6
  3  2  1  0
  4  2  1  0
  4  5  1  0
  5  6  1  1
  7  5  1  0
  7  8  2  0
 10  9  1  1
 10 11  1  0
 10 12  1  0
 11  7  1  0
 12 14  1  0
 13 12  2  0
 14 18  1  0
 14 15  1  0
 15 16  1  0
 17 16  1  0
 18 17  1  0
 18 19  1  1
 19 21  1  0
 20 19  2  0
M  END
$$$$
