LAP.pdb
     RDKit          3D

 21 21  0  0  1  0  0  0  0  0999 V2000
   16.4289  -12.6323  -16.7528 C   0  0  0  0  0  0  0  0  0  0  0  0
   17.5900  -13.4246  -16.1778 C   0  0  2  0  0  0  0  0  0  0  0  0
   17.0345  -14.4516  -15.2183 C   0  0  0  0  0  0  0  0  0  0  0  0
   18.5631  -12.5255  -15.4889 C   0  0  0  0  0  0  0  0  0  0  0  0
   19.0952  -11.4345  -16.3666 C   0  0  2  0  0  0  0  0  0  0  0  0
   19.9571  -11.9303  -17.4164 N   0  0  0  0  0  0  0  0  0  0  0  0
   19.8888  -10.4675  -15.5526 C   0  0  0  0  0  0  0  0  0  0  0  0
   19.4263   -9.9417  -14.4989 O   0  0  0  0  0  0  0  0  0  0  0  0
   23.4791   -9.3471  -15.5780 C   0  0  0  0  0  0  0  0  0  0  0  0
   22.0208   -9.1100  -15.2990 C   0  0  2  0  0  0  0  0  0  0  0  0
   21.1967  -10.1291  -15.9722 N   0  0  0  0  0  0  0  0  0  0  0  0
   21.5508   -7.7518  -15.6299 C   0  0  0  0  0  0  0  0  0  0  0  0
   21.0964   -7.5995  -16.8047 O   0  0  0  0  0  0  0  0  0  0  0  0
   21.5585   -6.6352  -14.7839 N   0  0  0  0  0  0  0  0  0  0  0  0
   21.9443   -6.6367  -13.3895 C   0  0  0  0  0  0  0  0  0  0  0  0
   22.1613   -5.1879  -13.0090 C   0  0  0  0  0  0  0  0  0  0  0  0
   21.1590   -4.4903  -13.8642 C   0  0  0  0  0  0  0  0  0  0  0  0
   21.1833   -5.2909  -15.1547 C   0  0  1  0  0  0  0  0  0  0  0  0
   22.2197   -4.6392  -16.0242 C   0  0  0  0  0  0  0  0  0  0  0  0
   23.3622   -5.1629  -16.0175 O   0  0  0  0  0  0  0  0  0  0  0  0
   21.9970   -3.5378  -16.8025 O   0  0  0  0  0  0  0  0  0  0  0  0
  2  1  1  1
  3  2  1  0
  4  2  1  0
  4  5  1  0
  5  6  1  6
  7  5  1  0
  7  8  2  0
 10  9  1  6
 10 11  1  0
 10 12  1  0
 11  7  1  0
 12 14  1  0
 13 12  2  0
 14 18  1  0
 14 15  1  0
 15 16  1  0
 17 16  1  0
 18 17  1  0
 18 19  1  6
 19 21  1  0
 20 19  2  0
M  END
$$$$
