LAP.pdb
     RDKit          3D

 21 21  0  0  1  0  0  0  0  0999 V2000
   17.9991  -29.7542  -12.1742 C   0  0  0  0  0  0  0  0  0  0  0  0
   19.4150  -30.3032  -12.1896 C   0  0  2  0  0  0  0  0  0  0  0  0
   19.4010  -31.6697  -11.5444 C   0  0  0  0  0  0  0  0  0  0  0  0
   20.3526  -29.3873  -11.4741 C   0  0  0  0  0  0  0  0  0  0  0  0
   20.2796  -27.9676  -11.9462 C   0  0  2  0  0  0  0  0  0  0  0  0
   21.5250  -27.5015  -12.5143 N   0  0  0  0  0  0  0  0  0  0  0  0
   19.9419  -27.0679  -10.8043 C   0  0  0  0  0  0  0  0  0  0  0  0
   20.6846  -26.9730   -9.7845 O   0  0  0  0  0  0  0  0  0  0  0  0
   17.5138  -24.2618  -10.3321 C   0  0  0  0  0  0  0  0  0  0  0  0
   18.3198  -25.4039   -9.7784 C   0  0  2  0  0  0  0  0  0  0  0  0
   18.7561  -26.2988  -10.8645 N   0  0  0  0  0  0  0  0  0  0  0  0
   17.6443  -26.1643   -8.7105 C   0  0  0  0  0  0  0  0  0  0  0  0
   16.9593  -27.1605   -9.0956 O   0  0  0  0  0  0  0  0  0  0  0  0
   17.6879  -25.8949   -7.3365 N   0  0  0  0  0  0  0  0  0  0  0  0
   18.4324  -24.8240   -6.7106 C   0  0  0  0  0  0  0  0  0  0  0  0
   17.8833  -24.6913   -5.3064 C   0  0  0  0  0  0  0  0  0  0  0  0
   17.5159  -26.0997   -4.9839 C   0  0  0  0  0  0  0  0  0  0  0  0
   16.9993  -26.6375   -6.3070 C   0  0  1  0  0  0  0  0  0  0  0  0
   15.5223  -26.3668   -6.3132 C   0  0  0  0  0  0  0  0  0  0  0  0
   15.1441  -25.3530   -6.9527 O   0  0  0  0  0  0  0  0  0  0  0  0
   14.5899  -27.1401   -5.6798 O   0  0  0  0  0  0  0  0  0  0  0  0
  2  1  1  1
  3  2  1  0
  4  2  1  0
  4  5  1  0
  5  6  1  1
  7  5  1  0
  7  8  2  0
 10  9  1  6
 10 11  1  0
 10 12  1  0
 11  7  1  0
 12 14  1  0
 13 12  2  0
 14 18  1  0
 14 15  1  0
 15 16  1  0
 17 16  1  0
 18 17  1  0
 18 19  1  1
 19 21  1  0
 20 19  2  0
M  END
$$$$
