LAP.pdb
     RDKit          3D

 21 21  0  0  1  0  0  0  0  0999 V2000
   22.3587  -20.3165  -10.0634 C   0  0  0  0  0  0  0  0  0  0  0  0
   23.5056  -20.0772  -11.0297 C   0  0  2  0  0  0  0  0  0  0  0  0
   23.0478  -19.0841  -12.0728 C   0  0  0  0  0  0  0  0  0  0  0  0
   23.9436  -21.3542  -11.6680 C   0  0  0  0  0  0  0  0  0  0  0  0
   25.4095  -21.3990  -11.9733 C   0  0  2  0  0  0  0  0  0  0  0  0
   25.7511  -22.4280  -12.9300 N   0  0  0  0  0  0  0  0  0  0  0  0
   26.1816  -21.6712  -10.7254 C   0  0  0  0  0  0  0  0  0  0  0  0
   25.9345  -22.6705   -9.9899 O   0  0  0  0  0  0  0  0  0  0  0  0
   29.5535  -20.8441   -9.6276 C   0  0  0  0  0  0  0  0  0  0  0  0
   28.1201  -21.0308   -9.2140 C   0  0  2  0  0  0  0  0  0  0  0  0
   27.2202  -20.7853  -10.3545 N   0  0  0  0  0  0  0  0  0  0  0  0
   27.7151  -20.2304   -8.0434 C   0  0  0  0  0  0  0  0  0  0  0  0
   27.0176  -19.2013   -8.2972 O   0  0  0  0  0  0  0  0  0  0  0  0
   28.0223  -20.4955   -6.7026 N   0  0  0  0  0  0  0  0  0  0  0  0
   28.7772  -21.6311   -6.2192 C   0  0  0  0  0  0  0  0  0  0  0  0
   29.1764  -21.2997   -4.7974 C   0  0  0  0  0  0  0  0  0  0  0  0
   28.0202  -20.4800   -4.3349 C   0  0  0  0  0  0  0  0  0  0  0  0
   27.6398  -19.6838   -5.5711 C   0  0  1  0  0  0  0  0  0  0  0  0
   28.4326  -18.4105   -5.5010 C   0  0  0  0  0  0  0  0  0  0  0  0
   29.4075  -18.3168   -6.2886 O   0  0  0  0  0  0  0  0  0  0  0  0
   28.1612  -17.3744   -4.6517 O   0  0  0  0  0  0  0  0  0  0  0  0
  2  1  1  1
  3  2  1  0
  4  2  1  0
  4  5  1  0
  5  6  1  6
  7  5  1  0
  7  8  2  0
 10  9  1  6
 10 11  1  0
 10 12  1  0
 11  7  1  0
 12 14  1  0
 13 12  2  0
 14 18  1  0
 14 15  1  0
 15 16  1  0
 17 16  1  0
 18 17  1  0
 18 19  1  6
 19 21  1  0
 20 19  2  0
M  END
$$$$
