LAP.pdb
     RDKit          3D

 21 21  0  0  1  0  0  0  0  0999 V2000
   15.0791  -14.2008  -16.9998 C   0  0  0  0  0  0  0  0  0  0  0  0
   15.3566  -12.7133  -17.1301 C   0  0  2  0  0  0  0  0  0  0  0  0
   14.7781  -12.2359  -18.4421 C   0  0  0  0  0  0  0  0  0  0  0  0
   16.8220  -12.4338  -17.0626 C   0  0  0  0  0  0  0  0  0  0  0  0
   17.1535  -10.9730  -17.0615 C   0  0  2  0  0  0  0  0  0  0  0  0
   17.1685  -10.4010  -18.3895 N   0  0  0  0  0  0  0  0  0  0  0  0
   18.5041  -10.7576  -16.4640 C   0  0  0  0  0  0  0  0  0  0  0  0
   18.8152  -11.2205  -15.3284 O   0  0  0  0  0  0  0  0  0  0  0  0
   21.7828   -9.5652  -17.8213 C   0  0  0  0  0  0  0  0  0  0  0  0
   20.8179   -9.7322  -16.6803 C   0  0  2  0  0  0  0  0  0  0  0  0
   19.4643  -10.0140  -17.1893 N   0  0  0  0  0  0  0  0  0  0  0  0
   20.7978   -8.6044  -15.7302 C   0  0  0  0  0  0  0  0  0  0  0  0
   20.0432   -7.6344  -16.0461 O   0  0  0  0  0  0  0  0  0  0  0  0
   21.5198   -8.5061  -14.5338 N   0  0  0  0  0  0  0  0  0  0  0  0
   22.3211   -9.5564  -13.9440 C   0  0  0  0  0  0  0  0  0  0  0  0
   23.1938   -8.8889  -12.9030 C   0  0  0  0  0  0  0  0  0  0  0  0
   22.3129   -7.7865  -12.4221 C   0  0  0  0  0  0  0  0  0  0  0  0
   21.5901   -7.3422  -13.6819 C   0  0  1  0  0  0  0  0  0  0  0  0
   22.4379   -6.2581  -14.2826 C   0  0  0  0  0  0  0  0  0  0  0  0
   22.3920   -5.1367  -13.7171 O   0  0  0  0  0  0  0  0  0  0  0  0
   23.2362   -6.4175  -15.3807 O   0  0  0  0  0  0  0  0  0  0  0  0
  2  1  1  6
  3  2  1  0
  4  2  1  0
  4  5  1  0
  5  6  1  6
  7  5  1  0
  7  8  2  0
 10  9  1  6
 10 11  1  0
 10 12  1  0
 11  7  1  0
 12 14  1  0
 13 12  2  0
 14 18  1  0
 14 15  1  0
 15 16  1  0
 17 16  1  0
 18 17  1  0
 18 19  1  6
 19 21  1  0
 20 19  2  0
M  END
$$$$
