LAP.pdb
     RDKit          3D

 21 21  0  0  1  0  0  0  0  0999 V2000
   14.6012  -22.0158    6.0515 C   0  0  0  0  0  0  0  0  0  0  0  0
   13.8839  -23.3097    5.7084 C   0  0  2  0  0  0  0  0  0  0  0  0
   13.1959  -23.8158    6.9551 C   0  0  0  0  0  0  0  0  0  0  0  0
   14.8393  -24.3276    5.1784 C   0  0  0  0  0  0  0  0  0  0  0  0
   15.5500  -23.8911    3.9341 C   0  0  2  0  0  0  0  0  0  0  0  0
   14.6729  -23.8098    2.7873 N   0  0  0  0  0  0  0  0  0  0  0  0
   16.6361  -24.8593    3.6016 C   0  0  0  0  0  0  0  0  0  0  0  0
   16.4087  -25.9260    2.9605 O   0  0  0  0  0  0  0  0  0  0  0  0
   20.3958  -24.7436    3.9274 C   0  0  0  0  0  0  0  0  0  0  0  0
   19.0945  -25.4782    3.7607 C   0  0  2  0  0  0  0  0  0  0  0  0
   17.9585  -24.5752    4.0158 N   0  0  0  0  0  0  0  0  0  0  0  0
   18.9810  -26.7066    4.5689 C   0  0  0  0  0  0  0  0  0  0  0  0
   18.4318  -26.5675    5.7042 O   0  0  0  0  0  0  0  0  0  0  0  0
   19.4143  -27.9886    4.2067 N   0  0  0  0  0  0  0  0  0  0  0  0
   19.9915  -28.3546    2.9316 C   0  0  0  0  0  0  0  0  0  0  0  0
   20.6425  -29.7059    3.1341 C   0  0  0  0  0  0  0  0  0  0  0  0
   19.7458  -30.3323    4.1471 C   0  0  0  0  0  0  0  0  0  0  0  0
   19.3603  -29.1663    5.0408 C   0  0  1  0  0  0  0  0  0  0  0  0
   20.3896  -29.1271    6.1335 C   0  0  0  0  0  0  0  0  0  0  0  0
   21.2856  -28.2526    6.0242 O   0  0  0  0  0  0  0  0  0  0  0  0
   20.4068  -29.9663    7.2124 O   0  0  0  0  0  0  0  0  0  0  0  0
  2  1  1  1
  3  2  1  0
  4  2  1  0
  4  5  1  0
  5  6  1  6
  7  5  1  0
  7  8  2  0
 10  9  1  1
 10 11  1  0
 10 12  1  0
 11  7  1  0
 12 14  1  0
 13 12  2  0
 14 18  1  0
 14 15  1  0
 15 16  1  0
 17 16  1  0
 18 17  1  0
 18 19  1  1
 19 21  1  0
 20 19  2  0
M  END
$$$$
