LAP.pdb
     RDKit          3D

 21 21  0  0  1  0  0  0  0  0999 V2000
   18.2227  -21.0634  -13.1162 C   0  0  0  0  0  0  0  0  0  0  0  0
   19.0514  -21.4044  -11.8900 C   0  0  2  0  0  0  0  0  0  0  0  0
   18.2726  -20.9936  -10.6617 C   0  0  0  0  0  0  0  0  0  0  0  0
   20.3775  -20.7191  -11.9320 C   0  0  0  0  0  0  0  0  0  0  0  0
   21.1693  -21.0222  -13.1670 C   0  0  2  0  0  0  0  0  0  0  0  0
   21.3519  -22.4405  -13.3812 N   0  0  0  0  0  0  0  0  0  0  0  0
   22.5242  -20.4044  -13.0677 C   0  0  0  0  0  0  0  0  0  0  0  0
   22.6825  -19.1763  -12.8084 O   0  0  0  0  0  0  0  0  0  0  0  0
   26.0168  -21.6833  -12.7943 C   0  0  0  0  0  0  0  0  0  0  0  0
   25.0354  -20.6797  -13.3331 C   0  0  2  0  0  0  0  0  0  0  0  0
   23.6648  -21.2165  -13.2697 N   0  0  0  0  0  0  0  0  0  0  0  0
   25.3464  -20.1920  -14.6897 C   0  0  0  0  0  0  0  0  0  0  0  0
   24.9084  -20.9055  -15.6430 O   0  0  0  0  0  0  0  0  0  0  0  0
   26.0662  -19.0358  -15.0179 N   0  0  0  0  0  0  0  0  0  0  0  0
   26.5869  -18.0707  -14.0743 C   0  0  0  0  0  0  0  0  0  0  0  0
   27.5915  -17.2334  -14.8363 C   0  0  0  0  0  0  0  0  0  0  0  0
   27.0021  -17.2139  -16.2056 C   0  0  0  0  0  0  0  0  0  0  0  0
   26.4132  -18.6062  -16.3522 C   0  0  1  0  0  0  0  0  0  0  0  0
   27.5007  -19.4526  -16.9487 C   0  0  0  0  0  0  0  0  0  0  0  0
   28.0995  -20.2274  -16.1609 O   0  0  0  0  0  0  0  0  0  0  0  0
   27.8666  -19.4293  -18.2656 O   0  0  0  0  0  0  0  0  0  0  0  0
  2  1  1  6
  3  2  1  0
  4  2  1  0
  4  5  1  0
  5  6  1  1
  7  5  1  0
  7  8  2  0
 10  9  1  6
 10 11  1  0
 10 12  1  0
 11  7  1  0
 12 14  1  0
 13 12  2  0
 14 18  1  0
 14 15  1  0
 15 16  1  0
 17 16  1  0
 18 17  1  0
 18 19  1  1
 19 21  1  0
 20 19  2  0
M  END
$$$$
