LAP.pdb
     RDKit          3D

 21 21  0  0  1  0  0  0  0  0999 V2000
   13.1341   -8.9083  -16.3549 C   0  0  0  0  0  0  0  0  0  0  0  0
   13.8366  -10.2242  -16.0696 C   0  0  2  0  0  0  0  0  0  0  0  0
   13.0727  -10.9438  -14.9821 C   0  0  0  0  0  0  0  0  0  0  0  0
   15.2549   -9.9968  -15.6612 C   0  0  0  0  0  0  0  0  0  0  0  0
   16.0323   -9.1651  -16.6348 C   0  0  2  0  0  0  0  0  0  0  0  0
   16.3062   -9.8610  -17.8724 N   0  0  0  0  0  0  0  0  0  0  0  0
   17.3437   -8.7754  -16.0384 C   0  0  0  0  0  0  0  0  0  0  0  0
   17.4298   -8.2760  -14.8791 O   0  0  0  0  0  0  0  0  0  0  0  0
   20.9278   -9.1987  -17.1796 C   0  0  0  0  0  0  0  0  0  0  0  0
   19.8640   -8.6001  -16.3016 C   0  0  2  0  0  0  0  0  0  0  0  0
   18.5249   -8.9705  -16.7919 N   0  0  0  0  0  0  0  0  0  0  0  0
   19.9728   -7.1403  -16.1227 C   0  0  0  0  0  0  0  0  0  0  0  0
   19.3168   -6.4359  -16.9493 O   0  0  0  0  0  0  0  0  0  0  0  0
   20.7183   -6.4713  -15.1433 N   0  0  0  0  0  0  0  0  0  0  0  0
   21.5502   -7.1006  -14.1407 C   0  0  0  0  0  0  0  0  0  0  0  0
   22.4331   -6.0081  -13.5770 C   0  0  0  0  0  0  0  0  0  0  0  0
   21.5435   -4.8151  -13.6661 C   0  0  0  0  0  0  0  0  0  0  0  0
   20.7864   -5.0401  -14.9634 C   0  0  1  0  0  0  0  0  0  0  0  0
   21.6023   -4.3784  -16.0365 C   0  0  0  0  0  0  0  0  0  0  0  0
   22.3845   -5.1220  -16.6804 O   0  0  0  0  0  0  0  0  0  0  0  0
   21.5439   -3.0480  -16.3450 O   0  0  0  0  0  0  0  0  0  0  0  0
  2  1  1  1
  3  2  1  0
  4  2  1  0
  4  5  1  0
  5  6  1  6
  7  5  1  0
  7  8  2  0
 10  9  1  6
 10 11  1  0
 10 12  1  0
 11  7  1  0
 12 14  1  0
 13 12  2  0
 14 18  1  0
 14 15  1  0
 15 16  1  0
 17 16  1  0
 18 17  1  0
 18 19  1  6
 19 21  1  0
 20 19  2  0
M  END
$$$$
