LAP.pdb
     RDKit          3D

 21 21  0  0  1  0  0  0  0  0999 V2000
   20.4529  -23.2735  -14.6554 C   0  0  0  0  0  0  0  0  0  0  0  0
   19.7861  -21.9126  -14.7542 C   0  0  2  0  0  0  0  0  0  0  0  0
   19.5672  -21.5963  -16.2157 C   0  0  0  0  0  0  0  0  0  0  0  0
   20.6194  -20.8591  -14.1016 C   0  0  0  0  0  0  0  0  0  0  0  0
   21.3116  -21.3278  -12.8586 C   0  0  2  0  0  0  0  0  0  0  0  0
   20.5674  -21.0270  -11.6558 N   0  0  0  0  0  0  0  0  0  0  0  0
   22.6452  -20.6686  -12.7389 C   0  0  0  0  0  0  0  0  0  0  0  0
   22.7620  -19.4197  -12.5734 O   0  0  0  0  0  0  0  0  0  0  0  0
   26.1264  -21.7722  -12.0861 C   0  0  0  0  0  0  0  0  0  0  0  0
   25.1724  -20.8980  -12.8519 C   0  0  2  0  0  0  0  0  0  0  0  0
   23.8126  -21.4640  -12.8126 N   0  0  0  0  0  0  0  0  0  0  0  0
   25.5846  -20.6170  -14.2397 C   0  0  0  0  0  0  0  0  0  0  0  0
   25.2121  -21.4666  -15.1054 O   0  0  0  0  0  0  0  0  0  0  0  0
   26.3344  -19.5200  -14.6833 N   0  0  0  0  0  0  0  0  0  0  0  0
   26.8324  -18.4470  -13.8503 C   0  0  0  0  0  0  0  0  0  0  0  0
   27.8788  -17.7247  -14.6714 C   0  0  0  0  0  0  0  0  0  0  0  0
   27.3442  -17.8752  -16.0549 C   0  0  0  0  0  0  0  0  0  0  0  0
   26.7402  -19.2687  -16.0463 C   0  0  1  0  0  0  0  0  0  0  0  0
   27.8372  -20.1958  -16.4846 C   0  0  0  0  0  0  0  0  0  0  0  0
   28.0758  -20.2332  -17.7179 O   0  0  0  0  0  0  0  0  0  0  0  0
   28.5720  -20.9806  -15.6404 O   0  0  0  0  0  0  0  0  0  0  0  0
  2  1  1  6
  3  2  1  0
  4  2  1  0
  4  5  1  0
  5  6  1  1
  7  5  1  0
  7  8  2  0
 10  9  1  6
 10 11  1  0
 10 12  1  0
 11  7  1  0
 12 14  1  0
 13 12  2  0
 14 18  1  0
 14 15  1  0
 15 16  1  0
 17 16  1  0
 18 17  1  0
 18 19  1  1
 19 21  1  0
 20 19  2  0
M  END
$$$$
