LAP.pdb
     RDKit          3D

 21 21  0  0  1  0  0  0  0  0999 V2000
   26.3012  -26.4075  -18.1711 C   0  0  0  0  0  0  0  0  0  0  0  0
   27.5157  -26.4161  -17.2593 C   0  0  2  0  0  0  0  0  0  0  0  0
   27.5559  -27.7419  -16.5350 C   0  0  0  0  0  0  0  0  0  0  0  0
   27.4653  -25.2820  -16.2891 C   0  0  0  0  0  0  0  0  0  0  0  0
   27.5065  -23.9340  -16.9411 C   0  0  2  0  0  0  0  0  0  0  0  0
   28.7625  -23.6727  -17.6083 N   0  0  0  0  0  0  0  0  0  0  0  0
   27.3112  -22.8665  -15.9165 C   0  0  0  0  0  0  0  0  0  0  0  0
   28.1409  -22.6775  -14.9803 O   0  0  0  0  0  0  0  0  0  0  0  0
   25.2883  -19.7741  -15.7401 C   0  0  0  0  0  0  0  0  0  0  0  0
   25.8810  -20.9619  -15.0339 C   0  0  2  0  0  0  0  0  0  0  0  0
   26.1644  -22.0420  -15.9950 N   0  0  0  0  0  0  0  0  0  0  0  0
   25.0762  -21.4620  -13.9038 C   0  0  0  0  0  0  0  0  0  0  0  0
   24.2110  -22.3435  -14.1941 O   0  0  0  0  0  0  0  0  0  0  0  0
   25.1764  -21.0627  -12.5647 N   0  0  0  0  0  0  0  0  0  0  0  0
   26.1457  -20.1292  -12.0336 C   0  0  0  0  0  0  0  0  0  0  0  0
   25.6375  -19.7232  -10.6670 C   0  0  0  0  0  0  0  0  0  0  0  0
   24.9542  -20.9667  -10.2094 C   0  0  0  0  0  0  0  0  0  0  0  0
   24.3318  -21.5121  -11.4830 C   0  0  1  0  0  0  0  0  0  0  0  0
   22.9570  -20.9128  -11.5589 C   0  0  0  0  0  0  0  0  0  0  0  0
   22.8229  -19.9198  -12.3175 O   0  0  0  0  0  0  0  0  0  0  0  0
   21.8714  -21.3740  -10.8681 O   0  0  0  0  0  0  0  0  0  0  0  0
  2  1  1  6
  3  2  1  0
  4  2  1  0
  4  5  1  0
  5  6  1  1
  7  5  1  0
  7  8  2  0
 10  9  1  6
 10 11  1  0
 10 12  1  0
 11  7  1  0
 12 14  1  0
 13 12  2  0
 14 18  1  0
 14 15  1  0
 15 16  1  0
 17 16  1  0
 18 17  1  0
 18 19  1  6
 19 21  1  0
 20 19  2  0
M  END
$$$$
