CWN.pdb
     RDKit          3D

 29 30  0  0  1  0  0  0  0  0999 V2000
   28.6404  -22.8654  -16.1471 N   0  0  0  0  0  0  0  0  0  0  0  0
   28.3738  -21.6077  -15.5493 C   0  0  1  0  0  0  0  0  0  0  0  0
   27.6288  -20.7542  -16.5771 C   0  0  0  0  0  0  0  0  0  0  0  0
   28.7111  -20.4204  -18.0011 S   0  0  0  0  0  0  0  0  0  0  0  0
   27.4999  -21.6744  -14.3375 C   0  0  0  0  0  0  0  0  0  0  0  0
   26.4124  -22.2866  -14.4286 O   0  0  0  0  0  0  0  0  0  0  0  0
   27.9263  -21.0532  -13.1377 N   0  0  0  0  0  0  0  0  0  0  0  0
   27.1302  -21.0013  -11.9453 C   0  0  1  0  0  0  0  0  0  0  0  0
   27.8777  -20.3072  -10.8292 C   0  0  0  0  0  0  0  0  0  0  0  0
   26.9879  -20.3075   -9.6331 C   0  0  0  0  0  0  0  0  0  0  0  0
   25.6209  -20.4317   -9.6396 C   0  0  0  0  0  0  0  0  0  0  0  0
   25.2193  -20.3859   -8.3474 N   0  0  0  0  0  0  0  0  0  0  0  0
   26.2497  -20.2406   -7.5167 C   0  0  0  0  0  0  0  0  0  0  0  0
   26.4465  -20.1412   -6.1579 C   0  0  0  0  0  0  0  0  0  0  0  0
   27.6735  -19.9967   -5.5548 C   0  0  0  0  0  0  0  0  0  0  0  0
   28.8018  -19.9473   -6.3787 C   0  0  0  0  0  0  0  0  0  0  0  0
   28.6511  -20.0436   -7.7508 C   0  0  0  0  0  0  0  0  0  0  0  0
   27.3886  -20.1873   -8.2982 C   0  0  0  0  0  0  0  0  0  0  0  0
   25.8143  -20.4702  -12.2355 C   0  0  0  0  0  0  0  0  0  0  0  0
   25.7286  -19.2706  -12.6841 O   0  0  0  0  0  0  0  0  0  0  0  0
   22.0439  -19.8441  -14.8157 N   0  0  0  0  0  0  0  0  0  0  0  0
   22.1986  -21.2619  -14.7138 C   0  0  0  0  0  0  0  0  0  0  0  0
   21.7923  -21.9703  -15.6513 O   0  0  0  0  0  0  0  0  0  0  0  0
   22.8257  -21.8785  -13.5298 C   0  0  0  0  0  0  0  0  0  0  0  0
   23.3897  -20.8074  -12.5973 C   0  0  2  0  0  0  0  0  0  0  0  0
   24.6387  -21.2346  -12.0353 N   0  0  0  0  0  0  0  0  0  0  0  0
   22.4301  -20.5810  -11.4888 C   0  0  0  0  0  0  0  0  0  0  0  0
   22.2349  -21.6077  -10.5815 O   0  0  0  0  0  0  0  0  0  0  0  0
   21.8237  -19.5224  -11.3703 O   0  0  0  0  0  0  0  0  0  0  0  0
  2  1  1  6
  2  3  1  0
  3  4  1  0
  5  6  2  0
  5  2  1  0
  7  5  1  0
  8  7  1  0
  8  9  1  1
 10  9  1  0
 10 18  1  0
 11 12  1  0
 11 10  2  0
 12 13  1  0
 13 18  2  0
 13 14  1  0
 14 15  2  0
 15 16  1  0
 17 16  2  0
 18 17  1  0
 19  8  1  0
 19 20  2  0
 22 24  1  0
 22 21  1  0
 23 22  2  0
 25 26  1  0
 25 24  1  6
 26 19  1  0
 27 25  1  0
 28 27  1  0
 29 27  2  0
M  END
$$$$
