CWN.pdb
     RDKit          3D

 29 30  0  0  1  0  0  0  0  0999 V2000
   27.1694  -21.7480  -12.6490 N   0  0  0  0  0  0  0  0  0  0  0  0
   25.9905  -21.0574  -12.2698 C   0  0  1  0  0  0  0  0  0  0  0  0
   24.9152  -21.3682  -13.3125 C   0  0  0  0  0  0  0  0  0  0  0  0
   25.4380  -20.7465  -14.9406 S   0  0  0  0  0  0  0  0  0  0  0  0
   25.4324  -21.4722  -10.9458 C   0  0  0  0  0  0  0  0  0  0  0  0
   25.4091  -22.6932  -10.6730 O   0  0  0  0  0  0  0  0  0  0  0  0
   24.9564  -20.4824  -10.0509 N   0  0  0  0  0  0  0  0  0  0  0  0
   24.4369  -20.7766   -8.7465 C   0  0  1  0  0  0  0  0  0  0  0  0
   24.6522  -19.6121   -7.8064 C   0  0  0  0  0  0  0  0  0  0  0  0
   26.1099  -19.5544   -7.4993 C   0  0  0  0  0  0  0  0  0  0  0  0
   27.1088  -19.2018   -8.3722 C   0  0  0  0  0  0  0  0  0  0  0  0
   28.2725  -19.2789   -7.6844 N   0  0  0  0  0  0  0  0  0  0  0  0
   28.0746  -19.6590   -6.4237 C   0  0  0  0  0  0  0  0  0  0  0  0
   28.8436  -19.8945   -5.3064 C   0  0  0  0  0  0  0  0  0  0  0  0
   28.3481  -20.2894   -4.0863 C   0  0  0  0  0  0  0  0  0  0  0  0
   26.9659  -20.4642   -3.9708 C   0  0  0  0  0  0  0  0  0  0  0  0
   26.1543  -20.2385   -5.0686 C   0  0  0  0  0  0  0  0  0  0  0  0
   26.7132  -19.8427   -6.2706 C   0  0  0  0  0  0  0  0  0  0  0  0
   23.0733  -21.2562   -8.8387 C   0  0  0  0  0  0  0  0  0  0  0  0
   22.4211  -21.0289   -9.9206 O   0  0  0  0  0  0  0  0  0  0  0  0
   19.1394  -25.1128   -7.5550 N   0  0  0  0  0  0  0  0  0  0  0  0
   19.3892  -23.8853   -6.8656 C   0  0  0  0  0  0  0  0  0  0  0  0
   18.4223  -23.2702   -6.3834 O   0  0  0  0  0  0  0  0  0  0  0  0
   20.7579  -23.3545   -6.7229 C   0  0  0  0  0  0  0  0  0  0  0  0
   21.1379  -22.5060   -7.9356 C   0  0  2  0  0  0  0  0  0  0  0  0
   22.4540  -21.9579   -7.7753 N   0  0  0  0  0  0  0  0  0  0  0  0
   20.1748  -21.3843   -8.0586 C   0  0  0  0  0  0  0  0  0  0  0  0
   19.0348  -21.5899   -8.8159 O   0  0  0  0  0  0  0  0  0  0  0  0
   20.3719  -20.3054   -7.5113 O   0  0  0  0  0  0  0  0  0  0  0  0
  2  1  1  6
  2  3  1  0
  3  4  1  0
  5  6  2  0
  5  2  1  0
  7  5  1  0
  8  7  1  0
  8  9  1  1
 10  9  1  0
 10 18  1  0
 11 12  1  0
 11 10  2  0
 12 13  1  0
 13 18  2  0
 13 14  1  0
 14 15  2  0
 15 16  1  0
 17 16  2  0
 18 17  1  0
 19  8  1  0
 19 20  2  0
 22 24  1  0
 22 21  1  0
 23 22  2  0
 25 26  1  0
 25 24  1  1
 26 19  1  0
 27 25  1  0
 28 27  1  0
 29 27  2  0
M  END
$$$$
