CWN.pdb
     RDKit          3D

 29 30  0  0  1  0  0  0  0  0999 V2000
   28.0716  -17.6996  -19.3450 N   0  0  0  0  0  0  0  0  0  0  0  0
   27.3368  -17.1680  -18.2552 C   0  0  1  0  0  0  0  0  0  0  0  0
   26.1853  -16.3420  -18.8310 C   0  0  0  0  0  0  0  0  0  0  0  0
   26.7885  -14.6931  -19.3082 S   0  0  0  0  0  0  0  0  0  0  0  0
   26.7180  -18.2002  -17.3673 C   0  0  0  0  0  0  0  0  0  0  0  0
   25.9302  -19.0245  -17.8827 O   0  0  0  0  0  0  0  0  0  0  0  0
   27.0413  -18.2151  -15.9881 N   0  0  0  0  0  0  0  0  0  0  0  0
   26.5108  -19.1714  -15.0595 C   0  0  1  0  0  0  0  0  0  0  0  0
   27.2971  -19.1608  -13.7681 C   0  0  0  0  0  0  0  0  0  0  0  0
   26.7790  -20.2757  -12.9249 C   0  0  0  0  0  0  0  0  0  0  0  0
   26.6513  -21.5883  -13.3056 C   0  0  0  0  0  0  0  0  0  0  0  0
   26.1491  -22.2559  -12.2401 N   0  0  0  0  0  0  0  0  0  0  0  0
   25.9498  -21.4467  -11.2017 C   0  0  0  0  0  0  0  0  0  0  0  0
   25.4852  -21.5550   -9.9104 C   0  0  0  0  0  0  0  0  0  0  0  0
   25.3901  -20.5083   -9.0242 C   0  0  0  0  0  0  0  0  0  0  0  0
   25.7936  -19.2442   -9.4642 C   0  0  0  0  0  0  0  0  0  0  0  0
   26.2676  -19.0889  -10.7550 C   0  0  0  0  0  0  0  0  0  0  0  0
   26.3389  -20.1817  -11.6004 C   0  0  0  0  0  0  0  0  0  0  0  0
   25.0796  -19.0010  -14.9164 C   0  0  0  0  0  0  0  0  0  0  0  0
   24.6255  -17.8170  -14.7179 O   0  0  0  0  0  0  0  0  0  0  0  0
   20.0308  -19.5921  -14.6946 N   0  0  0  0  0  0  0  0  0  0  0  0
   20.5469  -20.3706  -15.7773 C   0  0  0  0  0  0  0  0  0  0  0  0
   19.7437  -20.8532  -16.5945 O   0  0  0  0  0  0  0  0  0  0  0  0
   21.9958  -20.5995  -15.9305 C   0  0  0  0  0  0  0  0  0  0  0  0
   22.7747  -19.8964  -14.8197 C   0  0  2  0  0  0  0  0  0  0  0  0
   24.1853  -20.0972  -14.9877 N   0  0  0  0  0  0  0  0  0  0  0  0
   22.3720  -20.4702  -13.5124 C   0  0  0  0  0  0  0  0  0  0  0  0
   23.2612  -21.3188  -12.8762 O   0  0  0  0  0  0  0  0  0  0  0  0
   21.2887  -20.2083  -13.0022 O   0  0  0  0  0  0  0  0  0  0  0  0
  2  1  1  6
  2  3  1  0
  3  4  1  0
  5  6  2  0
  5  2  1  0
  7  5  1  0
  8  7  1  0
  8  9  1  1
 10  9  1  0
 10 18  1  0
 11 12  1  0
 11 10  2  0
 12 13  1  0
 13 18  2  0
 13 14  1  0
 14 15  2  0
 15 16  1  0
 17 16  2  0
 18 17  1  0
 19  8  1  0
 19 20  2  0
 22 24  1  0
 22 21  1  0
 23 22  2  0
 25 26  1  0
 25 24  1  6
 26 19  1  0
 27 25  1  0
 28 27  1  0
 29 27  2  0
M  END
$$$$
