CWN.pdb
     RDKit          3D

 29 30  0  0  1  0  0  0  0  0999 V2000
   28.9852  -21.1204  -14.7158 N   0  0  0  0  0  0  0  0  0  0  0  0
   28.2445  -20.1768  -13.9599 C   0  0  1  0  0  0  0  0  0  0  0  0
   27.5248  -19.2549  -14.9460 C   0  0  0  0  0  0  0  0  0  0  0  0
   28.6668  -17.9631  -15.5271 S   0  0  0  0  0  0  0  0  0  0  0  0
   27.1871  -20.7780  -13.0898 C   0  0  0  0  0  0  0  0  0  0  0  0
   26.5648  -21.7738  -13.5219 O   0  0  0  0  0  0  0  0  0  0  0  0
   26.9282  -20.2110  -11.8175 N   0  0  0  0  0  0  0  0  0  0  0  0
   25.8240  -20.5971  -10.9871 C   0  0  1  0  0  0  0  0  0  0  0  0
   25.9950  -20.0645   -9.5824 C   0  0  0  0  0  0  0  0  0  0  0  0
   27.3080  -20.5586   -9.0781 C   0  0  0  0  0  0  0  0  0  0  0  0
   28.1688  -21.3958   -9.7431 C   0  0  0  0  0  0  0  0  0  0  0  0
   29.2353  -21.5837   -8.9304 N   0  0  0  0  0  0  0  0  0  0  0  0
   29.1059  -20.9150   -7.7862 C   0  0  0  0  0  0  0  0  0  0  0  0
   29.8378  -20.7302   -6.6351 C   0  0  0  0  0  0  0  0  0  0  0  0
   29.4429  -19.9484   -5.5754 C   0  0  0  0  0  0  0  0  0  0  0  0
   28.2112  -19.2943   -5.6727 C   0  0  0  0  0  0  0  0  0  0  0  0
   27.4419  -19.4515   -6.8121 C   0  0  0  0  0  0  0  0  0  0  0  0
   27.8941  -20.2528   -7.8453 C   0  0  0  0  0  0  0  0  0  0  0  0
   24.5671  -20.2679  -11.6273 C   0  0  0  0  0  0  0  0  0  0  0  0
   24.5890  -19.4774  -12.6383 O   0  0  0  0  0  0  0  0  0  0  0  0
   20.3381  -23.0263  -14.1125 N   0  0  0  0  0  0  0  0  0  0  0  0
   21.1929  -21.8836  -14.0225 C   0  0  0  0  0  0  0  0  0  0  0  0
   20.9306  -20.8917  -14.7246 O   0  0  0  0  0  0  0  0  0  0  0  0
   22.3591  -21.8717  -13.1196 C   0  0  0  0  0  0  0  0  0  0  0  0
   22.1876  -20.8156  -12.0287 C   0  0  2  0  0  0  0  0  0  0  0  0
   23.3338  -20.7904  -11.1662 N   0  0  0  0  0  0  0  0  0  0  0  0
   20.9953  -21.1552  -11.2138 C   0  0  0  0  0  0  0  0  0  0  0  0
   19.7881  -20.5729  -11.5588 O   0  0  0  0  0  0  0  0  0  0  0  0
   21.0652  -21.9255  -10.2630 O   0  0  0  0  0  0  0  0  0  0  0  0
  2  1  1  6
  2  3  1  0
  3  4  1  0
  5  6  2  0
  5  2  1  0
  7  5  1  0
  8  7  1  0
  8  9  1  1
 10  9  1  0
 10 18  1  0
 11 12  1  0
 11 10  2  0
 12 13  1  0
 13 18  2  0
 13 14  1  0
 14 15  2  0
 15 16  1  0
 17 16  2  0
 18 17  1  0
 19  8  1  0
 19 20  2  0
 22 24  1  0
 22 21  1  0
 23 22  2  0
 25 26  1  0
 25 24  1  6
 26 19  1  0
 27 25  1  0
 28 27  1  0
 29 27  2  0
M  END
$$$$
