CWN.pdb
     RDKit          3D

 29 30  0  0  1  0  0  0  0  0999 V2000
   24.7209  -13.8618  -19.0226 N   0  0  0  0  0  0  0  0  0  0  0  0
   23.6432  -14.2536  -18.1888 C   0  0  1  0  0  0  0  0  0  0  0  0
   22.3774  -14.2776  -19.0474 C   0  0  0  0  0  0  0  0  0  0  0  0
   21.5541  -12.6566  -18.9764 S   0  0  0  0  0  0  0  0  0  0  0  0
   23.7848  -15.6213  -17.6008 C   0  0  0  0  0  0  0  0  0  0  0  0
   24.0744  -16.5656  -18.3690 O   0  0  0  0  0  0  0  0  0  0  0  0
   23.5926  -15.8032  -16.2089 N   0  0  0  0  0  0  0  0  0  0  0  0
   23.8123  -17.0500  -15.5343 C   0  0  1  0  0  0  0  0  0  0  0  0
   24.8431  -16.8948  -14.4390 C   0  0  0  0  0  0  0  0  0  0  0  0
   26.1786  -17.1576  -15.0470 C   0  0  0  0  0  0  0  0  0  0  0  0
   27.0827  -16.2102  -15.4582 C   0  0  0  0  0  0  0  0  0  0  0  0
   28.1557  -16.8796  -15.9419 N   0  0  0  0  0  0  0  0  0  0  0  0
   27.9896  -18.1984  -15.8626 C   0  0  0  0  0  0  0  0  0  0  0  0
   28.7087  -19.3285  -16.1798 C   0  0  0  0  0  0  0  0  0  0  0  0
   28.2718  -20.6157  -15.9737 C   0  0  0  0  0  0  0  0  0  0  0  0
   27.0083  -20.7904  -15.4014 C   0  0  0  0  0  0  0  0  0  0  0  0
   26.2505  -19.6821  -15.0664 C   0  0  0  0  0  0  0  0  0  0  0  0
   26.7455  -18.4113  -15.2992 C   0  0  0  0  0  0  0  0  0  0  0  0
   22.5524  -17.6343  -15.1230 C   0  0  0  0  0  0  0  0  0  0  0  0
   21.6612  -16.8620  -14.6162 O   0  0  0  0  0  0  0  0  0  0  0  0
   17.8809  -20.4361  -15.7408 N   0  0  0  0  0  0  0  0  0  0  0  0
   19.1475  -21.0277  -15.4404 C   0  0  0  0  0  0  0  0  0  0  0  0
   19.1675  -22.0734  -14.7681 O   0  0  0  0  0  0  0  0  0  0  0  0
   20.4054  -20.4206  -15.9142 C   0  0  0  0  0  0  0  0  0  0  0  0
   21.0428  -19.5708  -14.8159 C   0  0  2  0  0  0  0  0  0  0  0  0
   22.2889  -19.0189  -15.2643 N   0  0  0  0  0  0  0  0  0  0  0  0
   21.3084  -20.4300  -13.6360 C   0  0  0  0  0  0  0  0  0  0  0  0
   20.3418  -20.4887  -12.6471 O   0  0  0  0  0  0  0  0  0  0  0  0
   22.3471  -21.0720  -13.5296 O   0  0  0  0  0  0  0  0  0  0  0  0
  2  1  1  6
  2  3  1  0
  3  4  1  0
  5  6  2  0
  5  2  1  0
  7  5  1  0
  8  7  1  0
  8  9  1  1
 10  9  1  0
 10 18  1  0
 11 12  1  0
 11 10  2  0
 12 13  1  0
 13 18  2  0
 13 14  1  0
 14 15  2  0
 15 16  1  0
 17 16  2  0
 18 17  1  0
 19  8  1  0
 19 20  2  0
 22 24  1  0
 22 21  1  0
 23 22  2  0
 25 26  1  0
 25 24  1  6
 26 19  1  0
 27 25  1  0
 28 27  1  0
 29 27  2  0
M  END
$$$$
