CWN.pdb
     RDKit          3D

 29 30  0  0  1  0  0  0  0  0999 V2000
   28.7467  -20.7661  -15.0447 N   0  0  0  0  0  0  0  0  0  0  0  0
   27.9398  -19.9248  -14.2375 C   0  0  1  0  0  0  0  0  0  0  0  0
   27.2051  -18.9566  -15.1663 C   0  0  0  0  0  0  0  0  0  0  0  0
   28.3170  -17.5977  -15.6435 S   0  0  0  0  0  0  0  0  0  0  0  0
   26.8881  -20.6454  -13.4556 C   0  0  0  0  0  0  0  0  0  0  0  0
   26.3504  -21.6481  -13.9764 O   0  0  0  0  0  0  0  0  0  0  0  0
   26.5398  -20.1787  -12.1641 N   0  0  0  0  0  0  0  0  0  0  0  0
   25.5292  -20.7865  -11.3472 C   0  0  1  0  0  0  0  0  0  0  0  0
   25.6805  -20.3665   -9.9026 C   0  0  0  0  0  0  0  0  0  0  0  0
   27.0594  -20.7385   -9.4752 C   0  0  0  0  0  0  0  0  0  0  0  0
   27.9566  -21.4880  -10.1944 C   0  0  0  0  0  0  0  0  0  0  0  0
   29.0788  -21.5798   -9.4426 N   0  0  0  0  0  0  0  0  0  0  0  0
   28.9508  -20.9321   -8.2863 C   0  0  0  0  0  0  0  0  0  0  0  0
   29.7244  -20.6857   -7.1746 C   0  0  0  0  0  0  0  0  0  0  0  0
   29.3172  -19.9498   -6.0871 C   0  0  0  0  0  0  0  0  0  0  0  0
   28.0266  -19.4131   -6.1108 C   0  0  0  0  0  0  0  0  0  0  0  0
   27.2138  -19.6355   -7.2084 C   0  0  0  0  0  0  0  0  0  0  0  0
   27.6812  -20.3856   -8.2728 C   0  0  0  0  0  0  0  0  0  0  0  0
   24.2163  -20.5748  -11.9211 C   0  0  0  0  0  0  0  0  0  0  0  0
   23.9941  -19.4719  -12.5391 O   0  0  0  0  0  0  0  0  0  0  0  0
   19.8387  -21.4183  -14.3366 N   0  0  0  0  0  0  0  0  0  0  0  0
   20.6676  -22.5831  -14.3639 C   0  0  0  0  0  0  0  0  0  0  0  0
   20.3607  -23.5098  -15.1337 O   0  0  0  0  0  0  0  0  0  0  0  0
   21.8615  -22.6909  -13.5046 C   0  0  0  0  0  0  0  0  0  0  0  0
   22.0117  -21.4475  -12.6292 C   0  0  2  0  0  0  0  0  0  0  0  0
   23.1884  -21.5435  -11.8141 N   0  0  0  0  0  0  0  0  0  0  0  0
   20.8310  -21.3417  -11.7373 C   0  0  0  0  0  0  0  0  0  0  0  0
   19.8283  -20.4564  -12.0927 O   0  0  0  0  0  0  0  0  0  0  0  0
   20.7357  -22.0119  -10.7155 O   0  0  0  0  0  0  0  0  0  0  0  0
  2  1  1  6
  2  3  1  0
  3  4  1  0
  5  6  2  0
  5  2  1  0
  7  5  1  0
  8  7  1  0
  8  9  1  1
 10  9  1  0
 10 18  1  0
 11 12  1  0
 11 10  2  0
 12 13  1  0
 13 18  2  0
 13 14  1  0
 14 15  2  0
 15 16  1  0
 17 16  2  0
 18 17  1  0
 19  8  1  0
 19 20  2  0
 22 24  1  0
 22 21  1  0
 23 22  2  0
 25 26  1  0
 25 24  1  1
 26 19  1  0
 27 25  1  0
 28 27  1  0
 29 27  2  0
M  END
$$$$
