CWN.pdb
     RDKit          3D

 29 30  0  0  1  0  0  0  0  0999 V2000
   28.1205  -21.0535   -9.7511 N   0  0  0  0  0  0  0  0  0  0  0  0
   26.7067  -21.1200   -9.8359 C   0  0  1  0  0  0  0  0  0  0  0  0
   26.1342  -20.3894   -8.6200 C   0  0  0  0  0  0  0  0  0  0  0  0
   26.7478  -21.1626   -7.0916 S   0  0  0  0  0  0  0  0  0  0  0  0
   26.1300  -20.4532  -11.0439 C   0  0  0  0  0  0  0  0  0  0  0  0
   26.3748  -19.2387  -11.2195 O   0  0  0  0  0  0  0  0  0  0  0  0
   25.3370  -21.2082  -11.9430 N   0  0  0  0  0  0  0  0  0  0  0  0
   24.8194  -20.6858  -13.1747 C   0  0  1  0  0  0  0  0  0  0  0  0
   25.4237  -21.4043  -14.3600 C   0  0  0  0  0  0  0  0  0  0  0  0
   26.7196  -20.7356  -14.6698 C   0  0  0  0  0  0  0  0  0  0  0  0
   27.9715  -21.2610  -14.4681 C   0  0  0  0  0  0  0  0  0  0  0  0
   28.8580  -20.3279  -14.8884 N   0  0  0  0  0  0  0  0  0  0  0  0
   28.2453  -19.2383  -15.3472 C   0  0  0  0  0  0  0  0  0  0  0  0
   28.6095  -18.0240  -15.8835 C   0  0  0  0  0  0  0  0  0  0  0  0
   27.7253  -17.0529  -16.2901 C   0  0  0  0  0  0  0  0  0  0  0  0
   26.3596  -17.3163  -16.1497 C   0  0  0  0  0  0  0  0  0  0  0  0
   25.9478  -18.5244  -15.6152 C   0  0  0  0  0  0  0  0  0  0  0  0
   26.8868  -19.4620  -15.2237 C   0  0  0  0  0  0  0  0  0  0  0  0
   23.3718  -20.6493  -13.1429 C   0  0  0  0  0  0  0  0  0  0  0  0
   22.7509  -21.6342  -12.6026 O   0  0  0  0  0  0  0  0  0  0  0  0
   18.4189  -18.1758  -12.9348 N   0  0  0  0  0  0  0  0  0  0  0  0
   19.1863  -18.2260  -14.1402 C   0  0  0  0  0  0  0  0  0  0  0  0
   18.5813  -18.2835  -15.2248 O   0  0  0  0  0  0  0  0  0  0  0  0
   20.6608  -18.2084  -14.1080 C   0  0  0  0  0  0  0  0  0  0  0  0
   21.2067  -19.5461  -13.6106 C   0  0  2  0  0  0  0  0  0  0  0  0
   22.6391  -19.5670  -13.6892 N   0  0  0  0  0  0  0  0  0  0  0  0
   20.6743  -20.6322  -14.4695 C   0  0  0  0  0  0  0  0  0  0  0  0
   21.3379  -20.9061  -15.6528 O   0  0  0  0  0  0  0  0  0  0  0  0
   19.6791  -21.2733  -14.1516 O   0  0  0  0  0  0  0  0  0  0  0  0
  2  1  1  6
  2  3  1  0
  3  4  1  0
  5  6  2  0
  5  2  1  0
  7  5  1  0
  8  7  1  0
  8  9  1  6
 10  9  1  0
 10 18  1  0
 11 12  1  0
 11 10  2  0
 12 13  1  0
 13 18  2  0
 13 14  1  0
 14 15  2  0
 15 16  1  0
 17 16  2  0
 18 17  1  0
 19  8  1  0
 19 20  2  0
 22 24  1  0
 22 21  1  0
 23 22  2  0
 25 26  1  0
 25 24  1  6
 26 19  1  0
 27 25  1  0
 28 27  1  0
 29 27  2  0
M  END
$$$$
