CWN.pdb
     RDKit          3D

 29 30  0  0  1  0  0  0  0  0999 V2000
   27.4351  -21.5087  -15.3426 N   0  0  0  0  0  0  0  0  0  0  0  0
   27.6258  -20.5766  -14.2912 C   0  0  1  0  0  0  0  0  0  0  0  0
   27.0060  -19.2489  -14.7303 C   0  0  0  0  0  0  0  0  0  0  0  0
   28.1604  -18.3611  -15.8210 S   0  0  0  0  0  0  0  0  0  0  0  0
   26.9601  -20.9530  -13.0060 C   0  0  0  0  0  0  0  0  0  0  0  0
   25.8624  -21.5507  -13.0643 O   0  0  0  0  0  0  0  0  0  0  0  0
   27.5865  -20.6284  -11.7774 N   0  0  0  0  0  0  0  0  0  0  0  0
   26.9545  -20.7857  -10.4992 C   0  0  1  0  0  0  0  0  0  0  0  0
   27.9128  -20.4471   -9.3798 C   0  0  0  0  0  0  0  0  0  0  0  0
   27.1703  -20.6080   -8.0971 C   0  0  0  0  0  0  0  0  0  0  0  0
   25.9510  -21.2179   -7.9372 C   0  0  0  0  0  0  0  0  0  0  0  0
   25.6496  -21.1468   -6.6192 N   0  0  0  0  0  0  0  0  0  0  0  0
   26.6052  -20.5281   -5.9286 C   0  0  0  0  0  0  0  0  0  0  0  0
   26.8421  -20.1821   -4.6174 C   0  0  0  0  0  0  0  0  0  0  0  0
   27.9645  -19.5237   -4.1738 C   0  0  0  0  0  0  0  0  0  0  0  0
   28.9347  -19.1810   -5.1202 C   0  0  0  0  0  0  0  0  0  0  0  0
   28.7383  -19.5093   -6.4501 C   0  0  0  0  0  0  0  0  0  0  0  0
   27.5865  -20.1723   -6.8347 C   0  0  0  0  0  0  0  0  0  0  0  0
   25.6892  -20.0815  -10.4677 C   0  0  0  0  0  0  0  0  0  0  0  0
   25.7067  -18.7987  -10.5075 O   0  0  0  0  0  0  0  0  0  0  0  0
   21.8196  -19.5982  -14.3460 N   0  0  0  0  0  0  0  0  0  0  0  0
   22.2930  -19.2641  -13.0388 C   0  0  0  0  0  0  0  0  0  0  0  0
   21.6830  -18.3942  -12.3930 O   0  0  0  0  0  0  0  0  0  0  0  0
   23.4746  -19.9314  -12.4610 C   0  0  0  0  0  0  0  0  0  0  0  0
   23.2692  -20.1998  -10.9709 C   0  0  2  0  0  0  0  0  0  0  0  0
   24.4527  -20.7686  -10.3928 N   0  0  0  0  0  0  0  0  0  0  0  0
   22.1558  -21.1661  -10.8052 C   0  0  0  0  0  0  0  0  0  0  0  0
   21.0406  -20.7536  -10.0969 O   0  0  0  0  0  0  0  0  0  0  0  0
   22.2107  -22.2964  -11.2761 O   0  0  0  0  0  0  0  0  0  0  0  0
  2  1  1  6
  2  3  1  0
  3  4  1  0
  5  6  2  0
  5  2  1  0
  7  5  1  0
  8  7  1  0
  8  9  1  1
 10  9  1  0
 10 18  1  0
 11 12  1  0
 11 10  2  0
 12 13  1  0
 13 18  2  0
 13 14  1  0
 14 15  2  0
 15 16  1  0
 17 16  2  0
 18 17  1  0
 19  8  1  0
 19 20  2  0
 22 24  1  0
 22 21  1  0
 23 22  2  0
 25 26  1  0
 25 24  1  6
 26 19  1  0
 27 25  1  0
 28 27  1  0
 29 27  2  0
M  END
$$$$
