CWN.pdb
     RDKit          3D

 29 30  0  0  1  0  0  0  0  0999 V2000
   29.1323  -23.5925  -16.8528 N   0  0  0  0  0  0  0  0  0  0  0  0
   28.4499  -22.3697  -16.6300 C   0  0  1  0  0  0  0  0  0  0  0  0
   27.5196  -22.1340  -17.8212 C   0  0  0  0  0  0  0  0  0  0  0  0
   28.4995  -21.7020  -19.2921 S   0  0  0  0  0  0  0  0  0  0  0  0
   27.5881  -22.3589  -15.4079 C   0  0  0  0  0  0  0  0  0  0  0  0
   26.9009  -23.3755  -15.1628 O   0  0  0  0  0  0  0  0  0  0  0  0
   27.5789  -21.2138  -14.5736 N   0  0  0  0  0  0  0  0  0  0  0  0
   26.8459  -21.1352  -13.3430 C   0  0  1  0  0  0  0  0  0  0  0  0
   27.4304  -20.0767  -12.4352 C   0  0  0  0  0  0  0  0  0  0  0  0
   26.6769  -20.1300  -11.1500 C   0  0  0  0  0  0  0  0  0  0  0  0
   25.3204  -19.9843  -10.9990 C   0  0  0  0  0  0  0  0  0  0  0  0
   25.0605  -20.1056   -9.6758 N   0  0  0  0  0  0  0  0  0  0  0  0
   26.1712  -20.3209   -8.9738 C   0  0  0  0  0  0  0  0  0  0  0  0
   26.5108  -20.5187   -7.6545 C   0  0  0  0  0  0  0  0  0  0  0  0
   27.7912  -20.7299   -7.2007 C   0  0  0  0  0  0  0  0  0  0  0  0
   28.8221  -20.7454   -8.1449 C   0  0  0  0  0  0  0  0  0  0  0  0
   28.5266  -20.5510   -9.4827 C   0  0  0  0  0  0  0  0  0  0  0  0
   27.2170  -20.3427   -9.8773 C   0  0  0  0  0  0  0  0  0  0  0  0
   25.4263  -21.0146  -13.6037 C   0  0  0  0  0  0  0  0  0  0  0  0
   25.0161  -20.0019  -14.2773 O   0  0  0  0  0  0  0  0  0  0  0  0
   23.9742  -25.2829  -14.7231 N   0  0  0  0  0  0  0  0  0  0  0  0
   23.1784  -24.1054  -14.8804 C   0  0  0  0  0  0  0  0  0  0  0  0
   22.9714  -23.6805  -16.0304 O   0  0  0  0  0  0  0  0  0  0  0  0
   22.6106  -23.4059  -13.7127 C   0  0  0  0  0  0  0  0  0  0  0  0
   23.1470  -21.9779  -13.6244 C   0  0  2  0  0  0  0  0  0  0  0  0
   24.4960  -21.9750  -13.1359 N   0  0  0  0  0  0  0  0  0  0  0  0
   22.3045  -21.2052  -12.6789 C   0  0  0  0  0  0  0  0  0  0  0  0
   20.9646  -21.0460  -12.9870 O   0  0  0  0  0  0  0  0  0  0  0  0
   22.7693  -20.7187  -11.6543 O   0  0  0  0  0  0  0  0  0  0  0  0
  2  1  1  6
  2  3  1  0
  3  4  1  0
  5  6  2  0
  5  2  1  0
  7  5  1  0
  8  7  1  0
  8  9  1  6
 10  9  1  0
 10 18  1  0
 11 12  1  0
 11 10  2  0
 12 13  1  0
 13 18  2  0
 13 14  1  0
 14 15  2  0
 15 16  1  0
 17 16  2  0
 18 17  1  0
 19  8  1  0
 19 20  2  0
 22 24  1  0
 22 21  1  0
 23 22  2  0
 25 26  1  0
 25 24  1  1
 26 19  1  0
 27 25  1  0
 28 27  1  0
 29 27  2  0
M  END
$$$$
