CWN.pdb
     RDKit          3D

 29 30  0  0  1  0  0  0  0  0999 V2000
   23.5853  -17.7925  -14.8331 N   0  0  0  0  0  0  0  0  0  0  0  0
   24.1656  -18.1664  -13.5947 C   0  0  1  0  0  0  0  0  0  0  0  0
   23.0291  -18.5622  -12.6505 C   0  0  0  0  0  0  0  0  0  0  0  0
   21.8359  -19.6166  -13.5310 S   0  0  0  0  0  0  0  0  0  0  0  0
   25.0826  -19.3451  -13.6749 C   0  0  0  0  0  0  0  0  0  0  0  0
   25.2136  -19.9152  -14.7810 O   0  0  0  0  0  0  0  0  0  0  0  0
   25.7689  -19.7726  -12.5115 N   0  0  0  0  0  0  0  0  0  0  0  0
   26.7100  -20.8553  -12.4988 C   0  0  1  0  0  0  0  0  0  0  0  0
   27.6722  -20.7183  -11.3406 C   0  0  0  0  0  0  0  0  0  0  0  0
   26.8573  -20.5076  -10.1102 C   0  0  0  0  0  0  0  0  0  0  0  0
   25.4994  -20.6744   -9.9988 C   0  0  0  0  0  0  0  0  0  0  0  0
   25.1750  -20.3838   -8.7168 N   0  0  0  0  0  0  0  0  0  0  0  0
   26.2462  -20.0422   -8.0035 C   0  0  0  0  0  0  0  0  0  0  0  0
   26.5200  -19.6665   -6.7078 C   0  0  0  0  0  0  0  0  0  0  0  0
   27.7735  -19.3649   -6.2303 C   0  0  0  0  0  0  0  0  0  0  0  0
   28.8466  -19.4452   -7.1227 C   0  0  0  0  0  0  0  0  0  0  0  0
   28.6176  -19.8190   -8.4352 C   0  0  0  0  0  0  0  0  0  0  0  0
   27.3322  -20.1099   -8.8559 C   0  0  0  0  0  0  0  0  0  0  0  0
   26.0228  -22.1272  -12.5880 C   0  0  0  0  0  0  0  0  0  0  0  0
   25.1042  -22.3830  -11.7288 O   0  0  0  0  0  0  0  0  0  0  0  0
   22.2215  -24.6699  -14.3692 N   0  0  0  0  0  0  0  0  0  0  0  0
   23.0274  -23.7883  -15.1552 C   0  0  0  0  0  0  0  0  0  0  0  0
   22.8022  -23.7106  -16.3754 O   0  0  0  0  0  0  0  0  0  0  0  0
   24.1011  -22.9845  -14.5416 C   0  0  0  0  0  0  0  0  0  0  0  0
   25.3055  -23.8612  -14.2011 C   0  0  2  0  0  0  0  0  0  0  0  0
   26.3403  -23.0802  -13.5867 N   0  0  0  0  0  0  0  0  0  0  0  0
   25.8423  -24.4484  -15.4532 C   0  0  0  0  0  0  0  0  0  0  0  0
   26.7311  -23.6900  -16.1950 O   0  0  0  0  0  0  0  0  0  0  0  0
   25.5162  -25.5687  -15.8287 O   0  0  0  0  0  0  0  0  0  0  0  0
  2  1  1  6
  2  3  1  0
  3  4  1  0
  5  6  2  0
  5  2  1  0
  7  5  1  0
  8  7  1  0
  8  9  1  1
 10  9  1  0
 10 18  1  0
 11 12  1  0
 11 10  2  0
 12 13  1  0
 13 18  2  0
 13 14  1  0
 14 15  2  0
 15 16  1  0
 17 16  2  0
 18 17  1  0
 19  8  1  0
 19 20  2  0
 22 24  1  0
 22 21  1  0
 23 22  2  0
 25 26  1  0
 25 24  1  6
 26 19  1  0
 27 25  1  0
 28 27  1  0
 29 27  2  0
M  END
$$$$
