CWN.pdb
     RDKit          3D

 29 30  0  0  1  0  0  0  0  0999 V2000
   27.7555  -21.7219  -15.2576 N   0  0  0  0  0  0  0  0  0  0  0  0
   27.8496  -20.7455  -14.2337 C   0  0  1  0  0  0  0  0  0  0  0  0
   27.2253  -19.4542  -14.7655 C   0  0  0  0  0  0  0  0  0  0  0  0
   28.3483  -18.6766  -15.9674 S   0  0  0  0  0  0  0  0  0  0  0  0
   27.1090  -21.0924  -12.9817 C   0  0  0  0  0  0  0  0  0  0  0  0
   26.0752  -21.7901  -13.0830 O   0  0  0  0  0  0  0  0  0  0  0  0
   27.5963  -20.6293  -11.7346 N   0  0  0  0  0  0  0  0  0  0  0  0
   26.9258  -20.8574  -10.4870 C   0  0  1  0  0  0  0  0  0  0  0  0
   27.8662  -20.6399   -9.3231 C   0  0  0  0  0  0  0  0  0  0  0  0
   27.0485  -20.6903   -8.0776 C   0  0  0  0  0  0  0  0  0  0  0  0
   25.7779  -21.1967   -7.9619 C   0  0  0  0  0  0  0  0  0  0  0  0
   25.4161  -21.0487   -6.6656 N   0  0  0  0  0  0  0  0  0  0  0  0
   26.3814  -20.4785   -5.9473 C   0  0  0  0  0  0  0  0  0  0  0  0
   26.5776  -20.0987   -4.6387 C   0  0  0  0  0  0  0  0  0  0  0  0
   27.7247  -19.5119   -4.1593 C   0  0  0  0  0  0  0  0  0  0  0  0
   28.7663  -19.2844   -5.0636 C   0  0  0  0  0  0  0  0  0  0  0  0
   28.6127  -19.6504   -6.3893 C   0  0  0  0  0  0  0  0  0  0  0  0
   27.4330  -20.2371   -6.8112 C   0  0  0  0  0  0  0  0  0  0  0  0
   25.6864  -20.1099  -10.4319 C   0  0  0  0  0  0  0  0  0  0  0  0
   25.7449  -18.8300  -10.5091 O   0  0  0  0  0  0  0  0  0  0  0  0
   22.1508  -18.4127  -13.4334 N   0  0  0  0  0  0  0  0  0  0  0  0
   22.2719  -19.8169  -13.1924 C   0  0  0  0  0  0  0  0  0  0  0  0
   21.3642  -20.5663  -13.5927 O   0  0  0  0  0  0  0  0  0  0  0  0
   23.4428  -20.3726  -12.4885 C   0  0  0  0  0  0  0  0  0  0  0  0
   23.2759  -20.2425  -10.9752 C   0  0  2  0  0  0  0  0  0  0  0  0
   24.4314  -20.7522  -10.2945 N   0  0  0  0  0  0  0  0  0  0  0  0
   22.0951  -21.0344  -10.5517 C   0  0  0  0  0  0  0  0  0  0  0  0
   22.1123  -22.3983  -10.7862 O   0  0  0  0  0  0  0  0  0  0  0  0
   21.1293  -20.5084  -10.0105 O   0  0  0  0  0  0  0  0  0  0  0  0
  2  1  1  6
  2  3  1  0
  3  4  1  0
  5  6  2  0
  5  2  1  0
  7  5  1  0
  8  7  1  0
  8  9  1  1
 10  9  1  0
 10 18  1  0
 11 12  1  0
 11 10  2  0
 12 13  1  0
 13 18  2  0
 13 14  1  0
 14 15  2  0
 15 16  1  0
 17 16  2  0
 18 17  1  0
 19  8  1  0
 19 20  2  0
 22 24  1  0
 22 21  1  0
 23 22  2  0
 25 26  1  0
 25 24  1  6
 26 19  1  0
 27 25  1  0
 28 27  1  0
 29 27  2  0
M  END
$$$$
