CWN.pdb
     RDKit          3D

 29 30  0  0  1  0  0  0  0  0999 V2000
   29.0580  -21.0871  -15.0842 N   0  0  0  0  0  0  0  0  0  0  0  0
   28.2660  -20.1737  -14.3434 C   0  0  1  0  0  0  0  0  0  0  0  0
   27.6082  -19.2166  -15.3390 C   0  0  0  0  0  0  0  0  0  0  0  0
   28.8636  -18.1064  -16.0476 S   0  0  0  0  0  0  0  0  0  0  0  0
   27.1569  -20.8087  -13.5668 C   0  0  0  0  0  0  0  0  0  0  0  0
   26.5733  -21.7937  -14.0717 O   0  0  0  0  0  0  0  0  0  0  0  0
   26.8077  -20.2846  -12.2978 N   0  0  0  0  0  0  0  0  0  0  0  0
   25.7614  -20.8237  -11.4777 C   0  0  1  0  0  0  0  0  0  0  0  0
   25.8405  -20.2715  -10.0724 C   0  0  0  0  0  0  0  0  0  0  0  0
   27.1360  -20.7249   -9.4905 C   0  0  0  0  0  0  0  0  0  0  0  0
   28.0978  -21.4651  -10.1318 C   0  0  0  0  0  0  0  0  0  0  0  0
   29.1042  -21.6484   -9.2448 N   0  0  0  0  0  0  0  0  0  0  0  0
   28.8414  -21.0679   -8.0756 C   0  0  0  0  0  0  0  0  0  0  0  0
   29.4647  -20.9218   -6.8569 C   0  0  0  0  0  0  0  0  0  0  0  0
   28.9377  -20.2377   -5.7871 C   0  0  0  0  0  0  0  0  0  0  0  0
   27.6802  -19.6483   -5.9471 C   0  0  0  0  0  0  0  0  0  0  0  0
   27.0171  -19.7698   -7.1555 C   0  0  0  0  0  0  0  0  0  0  0  0
   27.6001  -20.4719   -8.1953 C   0  0  0  0  0  0  0  0  0  0  0  0
   24.4770  -20.6772  -12.1310 C   0  0  0  0  0  0  0  0  0  0  0  0
   24.2543  -19.6044  -12.7997 O   0  0  0  0  0  0  0  0  0  0  0  0
   20.1949  -22.6242  -15.1163 N   0  0  0  0  0  0  0  0  0  0  0  0
   20.3082  -22.7551  -13.6969 C   0  0  0  0  0  0  0  0  0  0  0  0
   19.2675  -22.7445  -13.0168 O   0  0  0  0  0  0  0  0  0  0  0  0
   21.6237  -22.9019  -13.0463 C   0  0  0  0  0  0  0  0  0  0  0  0
   22.2440  -21.5338  -12.7663 C   0  0  2  0  0  0  0  0  0  0  0  0
   23.4767  -21.6766  -12.0463 N   0  0  0  0  0  0  0  0  0  0  0  0
   21.3051  -20.7408  -11.9355 C   0  0  0  0  0  0  0  0  0  0  0  0
   20.3667  -19.9589  -12.5862 O   0  0  0  0  0  0  0  0  0  0  0  0
   21.3497  -20.7693  -10.7109 O   0  0  0  0  0  0  0  0  0  0  0  0
  2  1  1  6
  2  3  1  0
  3  4  1  0
  5  6  2  0
  5  2  1  0
  7  5  1  0
  8  7  1  0
  8  9  1  1
 10  9  1  0
 10 18  1  0
 11 12  1  0
 11 10  2  0
 12 13  1  0
 13 18  2  0
 13 14  1  0
 14 15  2  0
 15 16  1  0
 17 16  2  0
 18 17  1  0
 19  8  1  0
 19 20  2  0
 22 24  1  0
 22 21  1  0
 23 22  2  0
 25 26  1  0
 25 24  1  1
 26 19  1  0
 27 25  1  0
 28 27  1  0
 29 27  2  0
M  END
$$$$
