CWN.pdb
     RDKit          3D

 29 30  0  0  1  0  0  0  0  0999 V2000
   21.3318  -20.7727  -10.8027 N   0  0  0  0  0  0  0  0  0  0  0  0
   22.3444  -21.5215  -11.4542 C   0  0  1  0  0  0  0  0  0  0  0  0
   21.8358  -21.8692  -12.8543 C   0  0  0  0  0  0  0  0  0  0  0  0
   20.9767  -23.4727  -12.8169 S   0  0  0  0  0  0  0  0  0  0  0  0
   23.6324  -20.7846  -11.6399 C   0  0  0  0  0  0  0  0  0  0  0  0
   23.5828  -19.6116  -12.0726 O   0  0  0  0  0  0  0  0  0  0  0  0
   24.8537  -21.4279  -11.3209 N   0  0  0  0  0  0  0  0  0  0  0  0
   26.1365  -20.7962  -11.4365 C   0  0  1  0  0  0  0  0  0  0  0  0
   27.1380  -21.4369  -10.5022 C   0  0  0  0  0  0  0  0  0  0  0  0
   27.0308  -20.7370   -9.1904 C   0  0  0  0  0  0  0  0  0  0  0  0
   25.9239  -20.0842   -8.7078 C   0  0  0  0  0  0  0  0  0  0  0  0
   26.2580  -19.5997   -7.4885 N   0  0  0  0  0  0  0  0  0  0  0  0
   27.5127  -19.9056   -7.1643 C   0  0  0  0  0  0  0  0  0  0  0  0
   28.3617  -19.6962   -6.1012 C   0  0  0  0  0  0  0  0  0  0  0  0
   29.6574  -20.1511   -6.0350 C   0  0  0  0  0  0  0  0  0  0  0  0
   30.1485  -20.8778   -7.1236 C   0  0  0  0  0  0  0  0  0  0  0  0
   29.3297  -21.1123   -8.2142 C   0  0  0  0  0  0  0  0  0  0  0  0
   28.0339  -20.6276   -8.2215 C   0  0  0  0  0  0  0  0  0  0  0  0
   26.5426  -20.7205  -12.8247 C   0  0  0  0  0  0  0  0  0  0  0  0
   26.3267  -21.7377  -13.5773 O   0  0  0  0  0  0  0  0  0  0  0  0
   27.2740  -17.6321  -17.4942 N   0  0  0  0  0  0  0  0  0  0  0  0
   28.2857  -17.9866  -16.5479 C   0  0  0  0  0  0  0  0  0  0  0  0
   29.4337  -18.2153  -16.9669 O   0  0  0  0  0  0  0  0  0  0  0  0
   27.9847  -18.0793  -15.1071 C   0  0  0  0  0  0  0  0  0  0  0  0
   27.3232  -19.4169  -14.7779 C   0  0  2  0  0  0  0  0  0  0  0  0
   27.1653  -19.5661  -13.3597 N   0  0  0  0  0  0  0  0  0  0  0  0
   28.1889  -20.5159  -15.2713 C   0  0  0  0  0  0  0  0  0  0  0  0
   27.9063  -21.0542  -16.5147 O   0  0  0  0  0  0  0  0  0  0  0  0
   29.1273  -20.9419  -14.6077 O   0  0  0  0  0  0  0  0  0  0  0  0
  2  1  1  6
  2  3  1  0
  3  4  1  0
  5  6  2  0
  5  2  1  0
  7  5  1  0
  8  7  1  0
  8  9  1  1
 10  9  1  0
 10 18  1  0
 11 12  1  0
 11 10  2  0
 12 13  1  0
 13 18  2  0
 13 14  1  0
 14 15  2  0
 15 16  1  0
 17 16  2  0
 18 17  1  0
 19  8  1  0
 19 20  2  0
 22 24  1  0
 22 21  1  0
 23 22  2  0
 25 26  1  0
 25 24  1  1
 26 19  1  0
 27 25  1  0
 28 27  1  0
 29 27  2  0
M  END
$$$$
