VRH.pdb
     RDKit          3D

 29 29  0  0  1  0  0  0  0  0999 V2000
   43.9635  -19.4637  -11.8138 C   0  0  0  0  0  0  0  0  0  0  0  0
   44.6896  -20.4932  -10.9894 C   0  0  2  0  0  0  0  0  0  0  0  0
   44.7849  -21.8261  -11.6917 C   0  0  0  0  0  0  0  0  0  0  0  0
   44.1834  -20.6089   -9.5864 C   0  0  2  0  0  0  0  0  0  0  0  0
   42.8835  -21.3033   -9.6341 N   0  0  0  0  0  0  0  0  0  0  0  0
   43.9955  -19.3703   -8.8503 C   0  0  0  0  0  0  0  0  0  0  0  0
   42.8812  -18.7556   -8.9656 O   0  0  0  0  0  0  0  0  0  0  0  0
   46.8954  -19.8956   -1.5619 N   0  0  0  0  0  0  0  0  0  0  0  0
   46.3130  -20.8108   -2.4845 C   0  0  0  0  0  0  0  0  0  0  0  0
   46.1109  -22.0490   -2.2128 N   0  0  0  0  0  0  0  0  0  0  0  0
   45.9205  -20.3555   -3.7950 N   0  0  0  0  0  0  0  0  0  0  0  0
   45.9470  -18.9737   -4.1600 C   0  0  0  0  0  0  0  0  0  0  0  0
   45.4029  -18.8448   -5.5776 C   0  0  0  0  0  0  0  0  0  0  0  0
   45.3139  -17.4249   -6.0199 C   0  0  0  0  0  0  0  0  0  0  0  0
   44.6845  -17.4078   -7.4245 C   0  0  2  0  0  0  0  0  0  0  0  0
   44.9161  -18.7207   -7.9818 N   0  0  0  0  0  0  0  0  0  0  0  0
   45.3094  -16.2953   -8.1217 C   0  0  0  0  0  0  0  0  0  0  0  0
   46.4445  -16.4819   -8.6245 O   0  0  0  0  0  0  0  0  0  0  0  0
   45.6603  -22.7056   -2.8724 N   0  0  0  0  0  0  0  0  0  0  0  0
   44.7481  -14.9804   -8.2963 C   0  0  1  0  0  0  0  0  0  0  0  0
   45.4950  -13.9560   -9.0002 C   0  0  0  0  0  0  0  0  0  0  0  0
   45.2964  -13.9160  -10.4656 C   0  0  0  0  0  0  0  0  0  0  0  0
   43.9706  -13.6538  -10.9783 C   0  0  0  0  0  0  0  0  0  0  0  0
   42.7498  -13.8172  -10.4061 N   0  0  0  0  0  0  0  0  0  0  0  0
   41.7703  -13.4097  -11.2551 C   0  0  0  0  0  0  0  0  0  0  0  0
   42.4118  -12.9945  -12.3540 N   0  0  0  0  0  0  0  0  0  0  0  0
   43.7329  -13.1280  -12.2193 C   0  0  0  0  0  0  0  0  0  0  0  0
   45.3133  -12.6288   -8.3524 O   0  0  0  0  0  0  0  0  0  0  0  0
   46.0749  -11.5780   -8.7860 O   0  0  0  0  0  0  0  0  0  0  0  0
  2  1  1  6
  3  2  1  0
  4  2  1  0
  4  5  1  6
  6  4  1  0
  7  6  2  0
  9  8  1  0
  9 11  1  0
 10  9  2  0
 12 11  1  0
 12 13  1  0
 13 14  1  0
 15 14  1  1
 15 16  1  0
 16  6  1  0
 17 15  1  0
 17 18  2  0
 19 17  1  0
 20 19  1  0
 20 21  1  6
 21 22  1  0
 22 26  1  0
 22 23  2  0
 23 24  1  0
 25 24  1  0
 26 25  2  0
 27 20  1  0
 28 27  1  0
 29 27  2  0
M  END
$$$$
