VRH.pdb
     RDKit          3D

 29 29  0  0  1  0  0  0  0  0999 V2000
   25.9569  -26.0100  -22.0286 C   0  0  0  0  0  0  0  0  0  0  0  0
   26.0521  -27.3801  -21.4117 C   0  0  2  0  0  0  0  0  0  0  0  0
   25.3615  -27.4541  -20.0713 C   0  0  0  0  0  0  0  0  0  0  0  0
   27.4418  -27.9333  -21.3823 C   0  0  2  0  0  0  0  0  0  0  0  0
   27.8194  -28.2721  -22.7667 N   0  0  0  0  0  0  0  0  0  0  0  0
   27.6634  -29.1127  -20.5630 C   0  0  0  0  0  0  0  0  0  0  0  0
   27.1882  -30.2299  -20.9614 O   0  0  0  0  0  0  0  0  0  0  0  0
   34.8130  -30.8101  -16.9659 N   0  0  0  0  0  0  0  0  0  0  0  0
   33.7654  -31.7746  -16.9801 C   0  0  0  0  0  0  0  0  0  0  0  0
   33.8824  -32.9464  -16.4690 N   0  0  0  0  0  0  0  0  0  0  0  0
   32.5001  -31.4498  -17.5904 N   0  0  0  0  0  0  0  0  0  0  0  0
   32.2896  -30.2275  -18.3010 C   0  0  0  0  0  0  0  0  0  0  0  0
   30.8880  -30.2591  -18.8984 C   0  0  0  0  0  0  0  0  0  0  0  0
   29.8321  -30.3661  -17.8526 C   0  0  0  0  0  0  0  0  0  0  0  0
   28.4685  -30.4227  -18.5644 C   0  0  2  0  0  0  0  0  0  0  0  0
   28.3663  -29.2012  -19.3294 N   0  0  0  0  0  0  0  0  0  0  0  0
   27.4827  -30.6047  -17.5111 C   0  0  0  0  0  0  0  0  0  0  0  0
   27.2796  -29.6461  -16.7264 O   0  0  0  0  0  0  0  0  0  0  0  0
   33.1230  -33.6480  -16.4857 N   0  0  0  0  0  0  0  0  0  0  0  0
   26.7036  -31.7927  -17.2742 C   0  0  2  0  0  0  0  0  0  0  0  0
   25.7489  -31.8335  -16.1834 C   0  0  0  0  0  0  0  0  0  0  0  0
   24.3331  -31.6445  -16.5683 C   0  0  0  0  0  0  0  0  0  0  0  0
   23.3107  -31.8363  -15.5646 C   0  0  0  0  0  0  0  0  0  0  0  0
   22.8598  -31.0075  -14.5878 N   0  0  0  0  0  0  0  0  0  0  0  0
   21.8577  -31.6011  -13.8880 C   0  0  0  0  0  0  0  0  0  0  0  0
   21.7034  -32.8046  -14.4529 N   0  0  0  0  0  0  0  0  0  0  0  0
   22.5602  -32.9762  -15.4618 C   0  0  0  0  0  0  0  0  0  0  0  0
   25.9652  -33.0367  -15.3352 O   0  0  0  0  0  0  0  0  0  0  0  0
   25.5026  -33.0228  -14.0475 O   0  0  0  0  0  0  0  0  0  0  0  0
  2  1  1  1
  3  2  1  0
  4  2  1  0
  4  5  1  6
  6  4  1  0
  7  6  2  0
  9  8  1  0
  9 11  1  0
 10  9  2  0
 12 11  1  0
 12 13  1  0
 13 14  1  0
 15 14  1  1
 15 16  1  0
 16  6  1  0
 17 15  1  0
 17 18  2  0
 19 17  1  0
 20 19  1  0
 20 21  1  6
 21 22  1  0
 22 26  1  0
 22 23  2  0
 23 24  1  0
 25 24  1  0
 26 25  2  0
 27 20  1  0
 28 27  1  0
 29 27  2  0
M  END
$$$$
