VRH.pdb
     RDKit          3D

 29 29  0  0  1  0  0  0  0  0999 V2000
   19.9445  -19.5706  -17.5967 C   0  0  0  0  0  0  0  0  0  0  0  0
   21.1727  -18.7450  -17.3200 C   0  0  2  0  0  0  0  0  0  0  0  0
   21.5344  -17.8496  -18.4804 C   0  0  0  0  0  0  0  0  0  0  0  0
   22.3339  -19.5416  -16.8150 C   0  0  2  0  0  0  0  0  0  0  0  0
   22.8447  -20.3511  -17.9366 N   0  0  0  0  0  0  0  0  0  0  0  0
   22.0810  -20.4401  -15.7014 C   0  0  0  0  0  0  0  0  0  0  0  0
   21.5975  -21.5967  -15.9489 O   0  0  0  0  0  0  0  0  0  0  0  0
   26.8252  -22.6512  -10.9395 N   0  0  0  0  0  0  0  0  0  0  0  0
   27.2323  -21.5383  -11.7292 C   0  0  0  0  0  0  0  0  0  0  0  0
   28.2810  -21.5486  -12.4696 N   0  0  0  0  0  0  0  0  0  0  0  0
   26.4502  -20.3271  -11.7185 N   0  0  0  0  0  0  0  0  0  0  0  0
   25.0962  -20.2998  -11.2610 C   0  0  0  0  0  0  0  0  0  0  0  0
   24.2072  -20.8476  -12.3709 C   0  0  0  0  0  0  0  0  0  0  0  0
   22.7590  -20.7392  -12.0379 C   0  0  0  0  0  0  0  0  0  0  0  0
   21.9569  -21.1515  -13.2853 C   0  0  2  0  0  0  0  0  0  0  0  0
   22.3078  -20.2029  -14.3172 N   0  0  0  0  0  0  0  0  0  0  0  0
   20.5633  -21.1624  -12.8705 C   0  0  0  0  0  0  0  0  0  0  0  0
   20.0664  -20.0862  -12.4571 O   0  0  0  0  0  0  0  0  0  0  0  0
   28.5454  -20.7607  -13.0849 N   0  0  0  0  0  0  0  0  0  0  0  0
   19.6820  -22.3014  -12.8869 C   0  0  2  0  0  0  0  0  0  0  0  0
   18.3420  -22.1948  -12.3431 C   0  0  0  0  0  0  0  0  0  0  0  0
   18.2631  -21.9302  -10.8897 C   0  0  0  0  0  0  0  0  0  0  0  0
   18.7451  -22.9398   -9.9744 C   0  0  0  0  0  0  0  0  0  0  0  0
   19.3137  -24.1507  -10.2084 N   0  0  0  0  0  0  0  0  0  0  0  0
   19.6394  -24.7557   -9.0361 C   0  0  0  0  0  0  0  0  0  0  0  0
   19.2614  -23.8953   -8.0830 N   0  0  0  0  0  0  0  0  0  0  0  0
   18.7215  -22.7961   -8.6136 C   0  0  0  0  0  0  0  0  0  0  0  0
   17.5160  -21.2568  -13.1505 O   0  0  0  0  0  0  0  0  0  0  0  0
   16.2217  -21.0289  -12.7696 O   0  0  0  0  0  0  0  0  0  0  0  0
  2  1  1  6
  3  2  1  0
  4  2  1  0
  4  5  1  6
  6  4  1  0
  7  6  2  0
  9  8  1  0
  9 11  1  0
 10  9  2  0
 12 11  1  0
 12 13  1  0
 13 14  1  0
 15 14  1  1
 15 16  1  0
 16  6  1  0
 17 15  1  0
 17 18  2  0
 19 17  1  0
 20 19  1  0
 20 21  1  6
 21 22  1  0
 22 26  1  0
 22 23  2  0
 23 24  1  0
 25 24  1  0
 26 25  2  0
 27 20  1  0
 28 27  1  0
 29 27  2  0
M  END
$$$$
