VRH.pdb
     RDKit          3D

 29 29  0  0  1  0  0  0  0  0999 V2000
   20.2092  -16.0015  -19.7656 C   0  0  0  0  0  0  0  0  0  0  0  0
   18.9209  -15.2978  -20.1000 C   0  0  2  0  0  0  0  0  0  0  0  0
   17.7198  -16.2001  -19.9508 C   0  0  0  0  0  0  0  0  0  0  0  0
   18.9494  -14.5780  -21.4112 C   0  0  2  0  0  0  0  0  0  0  0  0
   18.7689  -15.5802  -22.4774 N   0  0  0  0  0  0  0  0  0  0  0  0
   20.1488  -13.8175  -21.7185 C   0  0  0  0  0  0  0  0  0  0  0  0
   20.3329  -12.7022  -21.1229 O   0  0  0  0  0  0  0  0  0  0  0  0
   26.2492  -18.4652  -22.3240 N   0  0  0  0  0  0  0  0  0  0  0  0
   25.1217  -18.2731  -23.1723 C   0  0  0  0  0  0  0  0  0  0  0  0
   24.4263  -19.2422  -23.6468 N   0  0  0  0  0  0  0  0  0  0  0  0
   24.7160  -16.9376  -23.5342 N   0  0  0  0  0  0  0  0  0  0  0  0
   25.3428  -15.7767  -22.9841 C   0  0  0  0  0  0  0  0  0  0  0  0
   24.2559  -14.8727  -22.4151 C   0  0  0  0  0  0  0  0  0  0  0  0
   23.4135  -14.2641  -23.4828 C   0  0  0  0  0  0  0  0  0  0  0  0
   22.3776  -13.3514  -22.8021 C   0  0  2  0  0  0  0  0  0  0  0  0
   21.1907  -14.1564  -22.6259 N   0  0  0  0  0  0  0  0  0  0  0  0
   22.2440  -12.1927  -23.6705 C   0  0  0  0  0  0  0  0  0  0  0  0
   21.6698  -12.3514  -24.7754 O   0  0  0  0  0  0  0  0  0  0  0  0
   23.5633  -19.1008  -24.1986 N   0  0  0  0  0  0  0  0  0  0  0  0
   22.7114  -10.8605  -23.3855 C   0  0  2  0  0  0  0  0  0  0  0  0
   22.5166   -9.7969  -24.3518 C   0  0  0  0  0  0  0  0  0  0  0  0
   22.2485   -8.4586  -23.7812 C   0  0  0  0  0  0  0  0  0  0  0  0
   22.0240   -7.3526  -24.6843 C   0  0  0  0  0  0  0  0  0  0  0  0
   21.1017   -7.1823  -25.6666 N   0  0  0  0  0  0  0  0  0  0  0  0
   21.2464   -5.9618  -26.2460 C   0  0  0  0  0  0  0  0  0  0  0  0
   22.2707   -5.3894  -25.6020 N   0  0  0  0  0  0  0  0  0  0  0  0
   22.7589   -6.1982  -24.6592 C   0  0  0  0  0  0  0  0  0  0  0  0
   23.6111   -9.7905  -25.3599 O   0  0  0  0  0  0  0  0  0  0  0  0
   23.5373   -8.9067  -26.4019 O   0  0  0  0  0  0  0  0  0  0  0  0
  2  1  1  6
  3  2  1  0
  4  2  1  0
  4  5  1  6
  6  4  1  0
  7  6  2  0
  9  8  1  0
  9 11  1  0
 10  9  2  0
 12 11  1  0
 12 13  1  0
 13 14  1  0
 15 14  1  6
 15 16  1  0
 16  6  1  0
 17 15  1  0
 17 18  2  0
 19 17  1  0
 20 19  1  0
 20 21  1  1
 21 22  1  0
 22 26  1  0
 22 23  2  0
 23 24  1  0
 25 24  1  0
 26 25  2  0
 27 20  1  0
 28 27  1  0
 29 27  2  0
M  END
$$$$
