VRH.pdb
     RDKit          3D

 29 29  0  0  1  0  0  0  0  0999 V2000
   12.0833  -11.0136  -11.8699 C   0  0  0  0  0  0  0  0  0  0  0  0
   12.8770  -12.1170  -11.2223 C   0  0  2  0  0  0  0  0  0  0  0  0
   12.6465  -12.1898   -9.7321 C   0  0  0  0  0  0  0  0  0  0  0  0
   14.3277  -12.1112  -11.5878 C   0  0  2  0  0  0  0  0  0  0  0  0
   14.9356  -13.3337  -11.0309 N   0  0  0  0  0  0  0  0  0  0  0  0
   15.1165  -10.9791  -11.1325 C   0  0  0  0  0  0  0  0  0  0  0  0
   15.6674  -11.0433   -9.9814 O   0  0  0  0  0  0  0  0  0  0  0  0
   19.1963   -9.2589  -16.7968 N   0  0  0  0  0  0  0  0  0  0  0  0
   19.1423   -7.9597  -16.2162 C   0  0  0  0  0  0  0  0  0  0  0  0
   19.3919   -6.8856  -16.8736 N   0  0  0  0  0  0  0  0  0  0  0  0
   18.7936   -7.8098  -14.8252 N   0  0  0  0  0  0  0  0  0  0  0  0
   18.4213   -8.9234  -14.0100 C   0  0  0  0  0  0  0  0  0  0  0  0
   18.1575   -8.4134  -12.5984 C   0  0  0  0  0  0  0  0  0  0  0  0
   16.7619   -7.9197  -12.4294 C   0  0  0  0  0  0  0  0  0  0  0  0
   16.1357   -8.6752  -11.2435 C   0  0  2  0  0  0  0  0  0  0  0  0
   15.3733   -9.7596  -11.8185 N   0  0  0  0  0  0  0  0  0  0  0  0
   15.3778   -7.6812  -10.5005 C   0  0  0  0  0  0  0  0  0  0  0  0
   14.2659   -7.3261  -10.9627 O   0  0  0  0  0  0  0  0  0  0  0  0
   19.3864   -5.9457  -16.4426 N   0  0  0  0  0  0  0  0  0  0  0  0
   15.7808   -7.0536   -9.2683 C   0  0  2  0  0  0  0  0  0  0  0  0
   14.9298   -6.0594   -8.6438 C   0  0  0  0  0  0  0  0  0  0  0  0
   15.1931   -5.8048   -7.2105 C   0  0  0  0  0  0  0  0  0  0  0  0
   14.4458   -4.7630   -6.5431 C   0  0  0  0  0  0  0  0  0  0  0  0
   13.4117   -3.9964   -6.9761 N   0  0  0  0  0  0  0  0  0  0  0  0
   12.9989   -3.1571   -5.9904 C   0  0  0  0  0  0  0  0  0  0  0  0
   13.7965   -3.4234   -4.9490 N   0  0  0  0  0  0  0  0  0  0  0  0
   14.6752   -4.3823   -5.2486 C   0  0  0  0  0  0  0  0  0  0  0  0
   14.8856   -4.8141   -9.4570 O   0  0  0  0  0  0  0  0  0  0  0  0
   13.6734   -4.2206   -9.6818 O   0  0  0  0  0  0  0  0  0  0  0  0
  2  1  1  1
  3  2  1  0
  4  2  1  0
  4  5  1  1
  6  4  1  0
  7  6  2  0
  9  8  1  0
  9 11  1  0
 10  9  2  0
 12 11  1  0
 12 13  1  0
 13 14  1  0
 15 14  1  6
 15 16  1  0
 16  6  1  0
 17 15  1  0
 17 18  2  0
 19 17  1  0
 20 19  1  0
 20 21  1  1
 21 22  1  0
 22 26  1  0
 22 23  2  0
 23 24  1  0
 25 24  1  0
 26 25  2  0
 27 20  1  0
 28 27  1  0
 29 27  2  0
M  END
$$$$
