VRH.pdb
     RDKit          3D

 29 29  0  0  1  0  0  0  0  0999 V2000
   19.1585  -23.6581  -16.5993 C   0  0  0  0  0  0  0  0  0  0  0  0
   20.5054  -23.7334  -15.9308 C   0  0  2  0  0  0  0  0  0  0  0  0
   21.4078  -24.7583  -16.5745 C   0  0  0  0  0  0  0  0  0  0  0  0
   20.4336  -23.8730  -14.4431 C   0  0  2  0  0  0  0  0  0  0  0  0
   21.7788  -23.6059  -13.9018 N   0  0  0  0  0  0  0  0  0  0  0  0
   19.9954  -25.1571  -13.9230 C   0  0  0  0  0  0  0  0  0  0  0  0
   18.7940  -25.5287  -14.1493 O   0  0  0  0  0  0  0  0  0  0  0  0
   24.4217  -32.0402  -11.0531 N   0  0  0  0  0  0  0  0  0  0  0  0
   23.8967  -31.7116  -12.3354 C   0  0  0  0  0  0  0  0  0  0  0  0
   24.3862  -32.1649  -13.4321 N   0  0  0  0  0  0  0  0  0  0  0  0
   22.7608  -30.8298  -12.4406 N   0  0  0  0  0  0  0  0  0  0  0  0
   21.9972  -30.4332  -11.2991 C   0  0  0  0  0  0  0  0  0  0  0  0
   20.8815  -29.5082  -11.7701 C   0  0  0  0  0  0  0  0  0  0  0  0
   21.3944  -28.1716  -12.1827 C   0  0  0  0  0  0  0  0  0  0  0  0
   20.1970  -27.3396  -12.6761 C   0  0  2  0  0  0  0  0  0  0  0  0
   20.7489  -26.0980  -13.1676 N   0  0  0  0  0  0  0  0  0  0  0  0
   19.2956  -27.2360  -11.5398 C   0  0  0  0  0  0  0  0  0  0  0  0
   19.7413  -26.7262  -10.4827 O   0  0  0  0  0  0  0  0  0  0  0  0
   24.0169  -31.9093  -14.3635 N   0  0  0  0  0  0  0  0  0  0  0  0
   17.9214  -27.6660  -11.5048 C   0  0  1  0  0  0  0  0  0  0  0  0
   17.0443  -27.2195  -10.4400 C   0  0  0  0  0  0  0  0  0  0  0  0
   17.1968  -25.8033  -10.0403 C   0  0  0  0  0  0  0  0  0  0  0  0
   17.9017  -25.5013   -8.8150 C   0  0  0  0  0  0  0  0  0  0  0  0
   18.4899  -26.3199   -7.9049 N   0  0  0  0  0  0  0  0  0  0  0  0
   19.0646  -25.5903   -6.9131 C   0  0  0  0  0  0  0  0  0  0  0  0
   18.8187  -24.3138   -7.2319 N   0  0  0  0  0  0  0  0  0  0  0  0
   18.1231  -24.2269   -8.3677 C   0  0  0  0  0  0  0  0  0  0  0  0
   15.6327  -27.5945  -10.7245 O   0  0  0  0  0  0  0  0  0  0  0  0
   14.7018  -27.4437   -9.7330 O   0  0  0  0  0  0  0  0  0  0  0  0
  2  1  1  6
  3  2  1  0
  4  2  1  0
  4  5  1  1
  6  4  1  0
  7  6  2  0
  9  8  1  0
  9 11  1  0
 10  9  2  0
 12 11  1  0
 12 13  1  0
 13 14  1  0
 15 14  1  1
 15 16  1  0
 16  6  1  0
 17 15  1  0
 17 18  2  0
 19 17  1  0
 20 19  1  0
 20 21  1  1
 21 22  1  0
 22 26  1  0
 22 23  2  0
 23 24  1  0
 25 24  1  0
 26 25  2  0
 27 20  1  0
 28 27  1  0
 29 27  2  0
M  END
$$$$
