VRH.pdb
     RDKit          3D

 29 29  0  0  1  0  0  0  0  0999 V2000
   19.1291  -28.2453  -13.9851 C   0  0  0  0  0  0  0  0  0  0  0  0
   19.1633  -28.3808  -15.4842 C   0  0  2  0  0  0  0  0  0  0  0  0
   18.1265  -29.3517  -15.9954 C   0  0  0  0  0  0  0  0  0  0  0  0
   20.5291  -28.6435  -16.0352 C   0  0  2  0  0  0  0  0  0  0  0  0
   20.4336  -28.6108  -17.5062 N   0  0  0  0  0  0  0  0  0  0  0  0
   21.1593  -29.8984  -15.6615 C   0  0  0  0  0  0  0  0  0  0  0  0
   21.5274  -30.6959  -16.5895 O   0  0  0  0  0  0  0  0  0  0  0  0
   27.9687  -33.3315  -13.4431 N   0  0  0  0  0  0  0  0  0  0  0  0
   27.3412  -34.3080  -14.2681 C   0  0  0  0  0  0  0  0  0  0  0  0
   27.6851  -35.5448  -14.2781 N   0  0  0  0  0  0  0  0  0  0  0  0
   26.2646  -33.9206  -15.1454 N   0  0  0  0  0  0  0  0  0  0  0  0
   25.7036  -32.6060  -15.1270 C   0  0  0  0  0  0  0  0  0  0  0  0
   24.2923  -32.6981  -14.5595 C   0  0  0  0  0  0  0  0  0  0  0  0
   23.5871  -31.3860  -14.5876 C   0  0  0  0  0  0  0  0  0  0  0  0
   22.1452  -31.6159  -14.1004 C   0  0  2  0  0  0  0  0  0  0  0  0
   21.4369  -30.3820  -14.3528 N   0  0  0  0  0  0  0  0  0  0  0  0
   22.2602  -32.0165  -12.7074 C   0  0  0  0  0  0  0  0  0  0  0  0
   22.7261  -31.1815  -11.8939 O   0  0  0  0  0  0  0  0  0  0  0  0
   27.2173  -36.2561  -14.8649 N   0  0  0  0  0  0  0  0  0  0  0  0
   21.8872  -33.2948  -12.1585 C   0  0  1  0  0  0  0  0  0  0  0  0
   21.8562  -33.4908  -10.7220 C   0  0  0  0  0  0  0  0  0  0  0  0
   22.6184  -32.5029   -9.9274 C   0  0  0  0  0  0  0  0  0  0  0  0
   24.0611  -32.5904   -9.9124 C   0  0  0  0  0  0  0  0  0  0  0  0
   24.9070  -33.4148  -10.5827 N   0  0  0  0  0  0  0  0  0  0  0  0
   26.1977  -33.1179  -10.2790 C   0  0  0  0  0  0  0  0  0  0  0  0
   26.1269  -32.0993   -9.4137 N   0  0  0  0  0  0  0  0  0  0  0  0
   24.8588  -31.7592   -9.1734 C   0  0  0  0  0  0  0  0  0  0  0  0
   20.4592  -33.6697  -10.2421 O   0  0  0  0  0  0  0  0  0  0  0  0
   20.2507  -33.9378   -8.9165 O   0  0  0  0  0  0  0  0  0  0  0  0
  2  1  1  1
  3  2  1  0
  4  2  1  0
  4  5  1  6
  6  4  1  0
  7  6  2  0
  9  8  1  0
  9 11  1  0
 10  9  2  0
 12 11  1  0
 12 13  1  0
 13 14  1  0
 15 14  1  1
 15 16  1  0
 16  6  1  0
 17 15  1  0
 17 18  2  0
 19 17  1  0
 20 19  1  0
 20 21  1  1
 21 22  1  0
 22 26  1  0
 22 23  2  0
 23 24  1  0
 25 24  1  0
 26 25  2  0
 27 20  1  0
 28 27  1  0
 29 27  2  0
M  END
$$$$
