VRH.pdb
     RDKit          3D

 29 29  0  0  1  0  0  0  0  0999 V2000
   20.9861  -25.1418  -17.7287 C   0  0  0  0  0  0  0  0  0  0  0  0
   22.1575  -25.4980  -16.8525 C   0  0  2  0  0  0  0  0  0  0  0  0
   23.4510  -25.5714  -17.6274 C   0  0  0  0  0  0  0  0  0  0  0  0
   21.9244  -26.6999  -15.9928 C   0  0  2  0  0  0  0  0  0  0  0  0
   21.7998  -27.8699  -16.8814 N   0  0  0  0  0  0  0  0  0  0  0  0
   20.7559  -26.6748  -15.1294 C   0  0  0  0  0  0  0  0  0  0  0  0
   19.6364  -27.0634  -15.6072 O   0  0  0  0  0  0  0  0  0  0  0  0
   18.2158  -24.6583   -7.2387 N   0  0  0  0  0  0  0  0  0  0  0  0
   17.2152  -25.5895   -7.6380 C   0  0  0  0  0  0  0  0  0  0  0  0
   16.0190  -25.5781   -7.1722 N   0  0  0  0  0  0  0  0  0  0  0  0
   17.5293  -26.6065   -8.6106 N   0  0  0  0  0  0  0  0  0  0  0  0
   18.7902  -26.6531   -9.2824 C   0  0  0  0  0  0  0  0  0  0  0  0
   18.5573  -26.3387  -10.7553 C   0  0  0  0  0  0  0  0  0  0  0  0
   19.7991  -26.4841  -11.5656 C   0  0  0  0  0  0  0  0  0  0  0  0
   19.4407  -26.1896  -13.0333 C   0  0  2  0  0  0  0  0  0  0  0  0
   20.6817  -26.2630  -13.7698 N   0  0  0  0  0  0  0  0  0  0  0  0
   18.7757  -24.8966  -13.0236 C   0  0  0  0  0  0  0  0  0  0  0  0
   19.3424  -23.9505  -12.4239 O   0  0  0  0  0  0  0  0  0  0  0  0
   15.2768  -26.2158   -7.5065 N   0  0  0  0  0  0  0  0  0  0  0  0
   17.5126  -24.5874  -13.6428 C   0  0  2  0  0  0  0  0  0  0  0  0
   17.0393  -23.2175  -13.6901 C   0  0  0  0  0  0  0  0  0  0  0  0
   16.5556  -22.7556  -15.0096 C   0  0  0  0  0  0  0  0  0  0  0  0
   16.0541  -21.4052  -15.1298 C   0  0  0  0  0  0  0  0  0  0  0  0
   15.9622  -20.4080  -14.2125 N   0  0  0  0  0  0  0  0  0  0  0  0
   15.4479  -19.2865  -14.7818 C   0  0  0  0  0  0  0  0  0  0  0  0
   15.2278  -19.6142  -16.0607 N   0  0  0  0  0  0  0  0  0  0  0  0
   15.5813  -20.8786  -16.3012 C   0  0  0  0  0  0  0  0  0  0  0  0
   16.0716  -22.9534  -12.5910 O   0  0  0  0  0  0  0  0  0  0  0  0
   16.0067  -21.6925  -12.0637 O   0  0  0  0  0  0  0  0  0  0  0  0
  2  1  1  6
  3  2  1  0
  4  2  1  0
  4  5  1  6
  6  4  1  0
  7  6  2  0
  9  8  1  0
  9 11  1  0
 10  9  2  0
 12 11  1  0
 12 13  1  0
 13 14  1  0
 15 14  1  1
 15 16  1  0
 16  6  1  0
 17 15  1  0
 17 18  2  0
 19 17  1  0
 20 19  1  0
 20 21  1  6
 21 22  1  0
 22 26  1  0
 22 23  2  0
 23 24  1  0
 25 24  1  0
 26 25  2  0
 27 20  1  0
 28 27  1  0
 29 27  2  0
M  END
$$$$
