VRH.pdb
     RDKit          3D

 29 29  0  0  1  0  0  0  0  0999 V2000
   13.9974  -23.4354    1.6829 C   0  0  0  0  0  0  0  0  0  0  0  0
   13.2560  -22.2995    1.0296 C   0  0  2  0  0  0  0  0  0  0  0  0
   12.4977  -22.7416   -0.1987 C   0  0  0  0  0  0  0  0  0  0  0  0
   14.0998  -21.0879    0.7884 C   0  0  2  0  0  0  0  0  0  0  0  0
   15.0089  -21.3899   -0.3324 N   0  0  0  0  0  0  0  0  0  0  0  0
   14.9098  -20.6183    1.8996 C   0  0  0  0  0  0  0  0  0  0  0  0
   16.1780  -20.7593    1.8320 O   0  0  0  0  0  0  0  0  0  0  0  0
   12.4811  -13.6966    5.6566 N   0  0  0  0  0  0  0  0  0  0  0  0
   12.4942  -14.1472    4.3058 C   0  0  0  0  0  0  0  0  0  0  0  0
   11.8482  -13.5616    3.3637 N   0  0  0  0  0  0  0  0  0  0  0  0
   13.2605  -15.3146    3.9468 N   0  0  0  0  0  0  0  0  0  0  0  0
   14.1009  -15.9911    4.8846 C   0  0  0  0  0  0  0  0  0  0  0  0
   14.7752  -17.1544    4.1674 C   0  0  0  0  0  0  0  0  0  0  0  0
   14.6120  -18.4401    4.9024 C   0  0  0  0  0  0  0  0  0  0  0  0
   15.3754  -19.5272    4.1248 C   0  0  2  0  0  0  0  0  0  0  0  0
   14.4701  -19.9960    3.1009 N   0  0  0  0  0  0  0  0  0  0  0  0
   15.7838  -20.5073    5.1182 C   0  0  0  0  0  0  0  0  0  0  0  0
   14.9329  -21.3502    5.4943 O   0  0  0  0  0  0  0  0  0  0  0  0
   11.8467  -13.8984    2.3860 N   0  0  0  0  0  0  0  0  0  0  0  0
   17.0869  -20.6102    5.7231 C   0  0  1  0  0  0  0  0  0  0  0  0
   17.3364  -21.5985    6.7544 C   0  0  0  0  0  0  0  0  0  0  0  0
   18.4192  -22.5637    6.4636 C   0  0  0  0  0  0  0  0  0  0  0  0
   18.2714  -23.4505    5.3318 C   0  0  0  0  0  0  0  0  0  0  0  0
   17.2184  -23.6595    4.4999 N   0  0  0  0  0  0  0  0  0  0  0  0
   17.5408  -24.5740    3.5480 C   0  0  0  0  0  0  0  0  0  0  0  0
   18.8068  -24.9197    3.8112 N   0  0  0  0  0  0  0  0  0  0  0  0
   19.2737  -24.2630    4.8752 C   0  0  0  0  0  0  0  0  0  0  0  0
   17.4778  -20.9501    8.0861 O   0  0  0  0  0  0  0  0  0  0  0  0
   17.5798  -21.7453    9.1950 O   0  0  0  0  0  0  0  0  0  0  0  0
  2  1  1  6
  3  2  1  0
  4  2  1  0
  4  5  1  6
  6  4  1  0
  7  6  2  0
  9  8  1  0
  9 11  1  0
 10  9  2  0
 12 11  1  0
 12 13  1  0
 13 14  1  0
 15 14  1  1
 15 16  1  0
 16  6  1  0
 17 15  1  0
 17 18  2  0
 19 17  1  0
 20 19  1  0
 20 21  1  1
 21 22  1  0
 22 26  1  0
 22 23  2  0
 23 24  1  0
 25 24  1  0
 26 25  2  0
 27 20  1  0
 28 27  1  0
 29 27  2  0
M  END
$$$$
