VRH.pdb
     RDKit          3D

 29 29  0  0  1  0  0  0  0  0999 V2000
   27.6392  -19.1206   -7.8964 C   0  0  0  0  0  0  0  0  0  0  0  0
   26.3494  -19.3813   -7.1648 C   0  0  2  0  0  0  0  0  0  0  0  0
   26.5791  -19.8753   -5.7569 C   0  0  0  0  0  0  0  0  0  0  0  0
   25.3830  -20.2297   -7.9294 C   0  0  2  0  0  0  0  0  0  0  0  0
   25.7378  -21.6407   -7.6902 N   0  0  0  0  0  0  0  0  0  0  0  0
   25.3237  -20.0270   -9.3670 C   0  0  0  0  0  0  0  0  0  0  0  0
   24.6506  -19.0381   -9.8160 O   0  0  0  0  0  0  0  0  0  0  0  0
   25.9064  -22.8223  -16.4669 N   0  0  0  0  0  0  0  0  0  0  0  0
   26.7982  -21.8222  -16.9491 C   0  0  0  0  0  0  0  0  0  0  0  0
   26.7085  -21.3072  -18.1216 N   0  0  0  0  0  0  0  0  0  0  0  0
   27.8638  -21.3438  -16.1037 N   0  0  0  0  0  0  0  0  0  0  0  0
   27.9743  -21.7241  -14.7302 C   0  0  0  0  0  0  0  0  0  0  0  0
   26.8836  -21.0036  -13.9470 C   0  0  0  0  0  0  0  0  0  0  0  0
   26.9337  -21.3183  -12.4916 C   0  0  0  0  0  0  0  0  0  0  0  0
   25.8477  -20.4818  -11.7913 C   0  0  2  0  0  0  0  0  0  0  0  0
   25.9374  -20.8068  -10.3863 N   0  0  0  0  0  0  0  0  0  0  0  0
   24.5991  -20.8271  -12.4516 C   0  0  0  0  0  0  0  0  0  0  0  0
   24.2123  -22.0197  -12.3872 O   0  0  0  0  0  0  0  0  0  0  0  0
   27.2837  -20.5059  -18.4318 N   0  0  0  0  0  0  0  0  0  0  0  0
   23.7481  -19.9242  -13.1831 C   0  0  2  0  0  0  0  0  0  0  0  0
   22.4605  -20.3736  -13.6761 C   0  0  0  0  0  0  0  0  0  0  0  0
   21.4057  -19.3383  -13.7395 C   0  0  0  0  0  0  0  0  0  0  0  0
   20.0900  -19.7172  -14.2028 C   0  0  0  0  0  0  0  0  0  0  0  0
   19.3331  -20.8107  -13.9271 N   0  0  0  0  0  0  0  0  0  0  0  0
   18.1385  -20.7344  -14.5701 C   0  0  0  0  0  0  0  0  0  0  0  0
   18.1774  -19.5774  -15.2419 N   0  0  0  0  0  0  0  0  0  0  0  0
   19.3349  -18.9435  -15.0421 C   0  0  0  0  0  0  0  0  0  0  0  0
   22.6147  -21.1254  -14.9509 O   0  0  0  0  0  0  0  0  0  0  0  0
   21.9057  -22.2836  -15.1188 O   0  0  0  0  0  0  0  0  0  0  0  0
  2  1  1  6
  3  2  1  0
  4  2  1  0
  4  5  1  6
  6  4  1  0
  7  6  2  0
  9  8  1  0
  9 11  1  0
 10  9  2  0
 12 11  1  0
 12 13  1  0
 13 14  1  0
 15 14  1  6
 15 16  1  0
 16  6  1  0
 17 15  1  0
 17 18  2  0
 19 17  1  0
 20 19  1  0
 20 21  1  1
 21 22  1  0
 22 26  1  0
 22 23  2  0
 23 24  1  0
 25 24  1  0
 26 25  2  0
 27 20  1  0
 28 27  1  0
 29 27  2  0
M  END
$$$$
