VRH.pdb
     RDKit          3D

 29 29  0  0  1  0  0  0  0  0999 V2000
   25.9678  -31.3671   -7.3976 C   0  0  0  0  0  0  0  0  0  0  0  0
   25.6036  -32.4060   -8.4247 C   0  0  2  0  0  0  0  0  0  0  0  0
   24.3069  -33.1060   -8.0965 C   0  0  0  0  0  0  0  0  0  0  0  0
   26.7146  -33.3564   -8.7417 C   0  0  2  0  0  0  0  0  0  0  0  0
   26.2848  -34.1844   -9.8835 N   0  0  0  0  0  0  0  0  0  0  0  0
   27.1361  -34.2539   -7.6795 C   0  0  0  0  0  0  0  0  0  0  0  0
   26.3904  -35.2508   -7.3919 O   0  0  0  0  0  0  0  0  0  0  0  0
   35.2540  -35.5039   -5.7310 N   0  0  0  0  0  0  0  0  0  0  0  0
   34.5345  -36.4036   -6.5682 C   0  0  0  0  0  0  0  0  0  0  0  0
   35.1045  -37.2963   -7.2934 N   0  0  0  0  0  0  0  0  0  0  0  0
   33.0956  -36.3339   -6.6260 N   0  0  0  0  0  0  0  0  0  0  0  0
   32.3444  -35.4295   -5.8129 C   0  0  0  0  0  0  0  0  0  0  0  0
   30.8624  -35.6959   -6.0481 C   0  0  0  0  0  0  0  0  0  0  0  0
   29.9933  -34.7505   -5.2927 C   0  0  0  0  0  0  0  0  0  0  0  0
   28.5370  -35.0045   -5.7217 C   0  0  2  0  0  0  0  0  0  0  0  0
   28.3126  -34.1754   -6.8836 N   0  0  0  0  0  0  0  0  0  0  0  0
   27.7252  -34.7051   -4.5531 C   0  0  0  0  0  0  0  0  0  0  0  0
   27.7036  -33.5189   -4.1427 O   0  0  0  0  0  0  0  0  0  0  0  0
   34.5829  -37.9317   -7.9207 N   0  0  0  0  0  0  0  0  0  0  0  0
   26.9308  -35.6474   -3.8077 C   0  0  2  0  0  0  0  0  0  0  0  0
   26.2148  -35.2202   -2.6213 C   0  0  0  0  0  0  0  0  0  0  0  0
   24.7393  -35.2449   -2.7238 C   0  0  0  0  0  0  0  0  0  0  0  0
   23.9577  -34.9770   -1.5378 C   0  0  0  0  0  0  0  0  0  0  0  0
   23.9257  -33.8911   -0.7228 N   0  0  0  0  0  0  0  0  0  0  0  0
   23.0100  -34.0673    0.2655 C   0  0  0  0  0  0  0  0  0  0  0  0
   22.4831  -35.2770    0.0411 N   0  0  0  0  0  0  0  0  0  0  0  0
   23.0305  -35.8485   -1.0337 C   0  0  0  0  0  0  0  0  0  0  0  0
   26.7255  -35.9228   -1.4131 O   0  0  0  0  0  0  0  0  0  0  0  0
   27.7497  -36.8183   -1.5594 O   0  0  0  0  0  0  0  0  0  0  0  0
  2  1  1  1
  3  2  1  0
  4  2  1  0
  4  5  1  6
  6  4  1  0
  7  6  2  0
  9  8  1  0
  9 11  1  0
 10  9  2  0
 12 11  1  0
 12 13  1  0
 13 14  1  0
 15 14  1  1
 15 16  1  0
 16  6  1  0
 17 15  1  0
 17 18  2  0
 19 17  1  0
 20 19  1  0
 20 21  1  6
 21 22  1  0
 22 26  1  0
 22 23  2  0
 23 24  1  0
 25 24  1  0
 26 25  2  0
 27 20  1  0
 28 27  1  0
 29 27  2  0
M  END
$$$$
