VRH.pdb
     RDKit          3D

 29 29  0  0  1  0  0  0  0  0999 V2000
   36.4557  -28.0319  -14.1520 C   0  0  0  0  0  0  0  0  0  0  0  0
   35.6215  -26.8781  -14.6414 C   0  0  2  0  0  0  0  0  0  0  0  0
   34.1975  -26.9495  -14.1449 C   0  0  0  0  0  0  0  0  0  0  0  0
   35.7130  -26.6507  -16.1172 C   0  0  2  0  0  0  0  0  0  0  0  0
   35.0738  -25.3551  -16.4122 N   0  0  0  0  0  0  0  0  0  0  0  0
   35.1015  -27.6504  -16.9763 C   0  0  0  0  0  0  0  0  0  0  0  0
   33.9499  -27.4055  -17.4728 O   0  0  0  0  0  0  0  0  0  0  0  0
   38.3369  -34.5827  -21.0261 N   0  0  0  0  0  0  0  0  0  0  0  0
   38.3330  -33.1674  -21.1842 C   0  0  0  0  0  0  0  0  0  0  0  0
   39.2340  -32.5316  -21.8413 N   0  0  0  0  0  0  0  0  0  0  0  0
   37.2798  -32.3825  -20.5897 N   0  0  0  0  0  0  0  0  0  0  0  0
   36.1134  -32.9812  -20.0203 C   0  0  0  0  0  0  0  0  0  0  0  0
   35.1997  -31.8670  -19.5243 C   0  0  0  0  0  0  0  0  0  0  0  0
   35.8992  -30.9371  -18.5939 C   0  0  0  0  0  0  0  0  0  0  0  0
   34.8790  -29.8840  -18.1253 C   0  0  2  0  0  0  0  0  0  0  0  0
   35.6286  -28.9150  -17.3592 N   0  0  0  0  0  0  0  0  0  0  0  0
   33.8565  -30.6222  -17.4017 C   0  0  0  0  0  0  0  0  0  0  0  0
   34.1250  -31.0072  -16.2374 O   0  0  0  0  0  0  0  0  0  0  0  0
   39.2480  -31.5013  -21.9282 N   0  0  0  0  0  0  0  0  0  0  0  0
   32.5460  -30.9611  -17.8940 C   0  0  2  0  0  0  0  0  0  0  0  0
   31.6138  -31.6830  -17.0499 C   0  0  0  0  0  0  0  0  0  0  0  0
   30.3044  -31.0274  -16.8404 C   0  0  0  0  0  0  0  0  0  0  0  0
   29.3007  -31.7173  -16.0619 C   0  0  0  0  0  0  0  0  0  0  0  0
   29.3560  -32.8941  -15.3862 N   0  0  0  0  0  0  0  0  0  0  0  0
   28.1719  -33.1411  -14.7673 C   0  0  0  0  0  0  0  0  0  0  0  0
   27.3932  -32.0968  -15.0748 N   0  0  0  0  0  0  0  0  0  0  0  0
   28.0414  -31.2250  -15.8502 C   0  0  0  0  0  0  0  0  0  0  0  0
   31.4912  -33.0999  -17.4877 O   0  0  0  0  0  0  0  0  0  0  0  0
   31.2300  -33.3585  -18.8057 O   0  0  0  0  0  0  0  0  0  0  0  0
  2  1  1  6
  3  2  1  0
  4  2  1  0
  4  5  1  1
  6  4  1  0
  7  6  2  0
  9  8  1  0
  9 11  1  0
 10  9  2  0
 12 11  1  0
 12 13  1  0
 13 14  1  0
 15 14  1  1
 15 16  1  0
 16  6  1  0
 17 15  1  0
 17 18  2  0
 19 17  1  0
 20 19  1  0
 20 21  1  6
 21 22  1  0
 22 26  1  0
 22 23  2  0
 23 24  1  0
 25 24  1  0
 26 25  2  0
 27 20  1  0
 28 27  1  0
 29 27  2  0
M  END
$$$$
