VRH.pdb
     RDKit          3D

 29 29  0  0  1  0  0  0  0  0999 V2000
   28.9495  -22.5457  -16.2139 C   0  0  0  0  0  0  0  0  0  0  0  0
   28.1663  -22.0182  -17.3865 C   0  0  2  0  0  0  0  0  0  0  0  0
   29.0475  -21.3308  -18.4014 C   0  0  0  0  0  0  0  0  0  0  0  0
   26.9766  -21.1986  -16.9978 C   0  0  2  0  0  0  0  0  0  0  0  0
   27.4159  -19.7957  -16.8844 N   0  0  0  0  0  0  0  0  0  0  0  0
   26.3097  -21.5541  -15.7567 C   0  0  0  0  0  0  0  0  0  0  0  0
   25.7135  -22.6820  -15.6864 O   0  0  0  0  0  0  0  0  0  0  0  0
   23.2176  -19.8513   -9.3145 N   0  0  0  0  0  0  0  0  0  0  0  0
   23.8922  -20.7057   -8.3964 C   0  0  0  0  0  0  0  0  0  0  0  0
   23.3355  -21.1845   -7.3434 N   0  0  0  0  0  0  0  0  0  0  0  0
   25.2673  -21.0693   -8.6329 N   0  0  0  0  0  0  0  0  0  0  0  0
   26.0276  -20.5119   -9.7074 C   0  0  0  0  0  0  0  0  0  0  0  0
   25.3056  -20.8221  -11.0131 C   0  0  0  0  0  0  0  0  0  0  0  0
   26.2367  -20.8637  -12.1755 C   0  0  0  0  0  0  0  0  0  0  0  0
   25.4058  -21.1752  -13.4333 C   0  0  2  0  0  0  0  0  0  0  0  0
   26.2262  -20.7911  -14.5590 N   0  0  0  0  0  0  0  0  0  0  0  0
   24.1580  -20.4466  -13.2703 C   0  0  0  0  0  0  0  0  0  0  0  0
   24.2224  -19.2046  -13.0994 O   0  0  0  0  0  0  0  0  0  0  0  0
   23.8219  -21.8165   -6.6853 N   0  0  0  0  0  0  0  0  0  0  0  0
   22.8349  -21.0157  -13.2858 C   0  0  1  0  0  0  0  0  0  0  0  0
   21.7484  -20.3177  -13.9452 C   0  0  0  0  0  0  0  0  0  0  0  0
   22.0091  -19.9079  -15.3426 C   0  0  0  0  0  0  0  0  0  0  0  0
   20.9833  -19.1791  -16.0538 C   0  0  0  0  0  0  0  0  0  0  0  0
   19.7861  -18.6946  -15.6338 N   0  0  0  0  0  0  0  0  0  0  0  0
   19.1563  -18.0442  -16.6470 C   0  0  0  0  0  0  0  0  0  0  0  0
   19.9875  -18.1385  -17.6918 N   0  0  0  0  0  0  0  0  0  0  0  0
   21.0926  -18.8135  -17.3682 C   0  0  0  0  0  0  0  0  0  0  0  0
   20.4685  -21.0598  -13.7861 O   0  0  0  0  0  0  0  0  0  0  0  0
   19.3140  -20.3459  -13.6129 O   0  0  0  0  0  0  0  0  0  0  0  0
  2  1  1  1
  3  2  1  0
  4  2  1  0
  4  5  1  1
  6  4  1  0
  7  6  2  0
  9  8  1  0
  9 11  1  0
 10  9  2  0
 12 11  1  0
 12 13  1  0
 13 14  1  0
 15 14  1  1
 15 16  1  0
 16  6  1  0
 17 15  1  0
 17 18  2  0
 19 17  1  0
 20 19  1  0
 20 21  1  1
 21 22  1  0
 22 26  1  0
 22 23  2  0
 23 24  1  0
 25 24  1  0
 26 25  2  0
 27 20  1  0
 28 27  1  0
 29 27  2  0
M  END
$$$$
