DCW.pdb
     RDKit          3D

 29 30  0  0  1  0  0  0  0  0999 V2000
    9.8432  -18.2624   17.4025 N   0  0  0  0  0  0  0  0  0  0  0  0
   10.8344  -17.5936   18.1761 C   0  0  1  0  0  0  0  0  0  0  0  0
   11.7099  -16.6979   17.3355 C   0  0  0  0  0  0  0  0  0  0  0  0
   12.7097  -17.4046   16.5346 C   0  0  0  0  0  0  0  0  0  0  0  0
   12.9215  -18.6361   16.6338 O   0  0  0  0  0  0  0  0  0  0  0  0
   10.2738  -16.7707   19.2869 C   0  0  0  0  0  0  0  0  0  0  0  0
   10.4812  -15.5184   19.2874 O   0  0  0  0  0  0  0  0  0  0  0  0
   13.4980  -16.7301   15.5973 O   0  0  0  0  0  0  0  0  0  0  0  0
    9.5210  -17.2659   20.3567 N   0  0  0  0  0  0  0  0  0  0  0  0
    8.9376  -16.4729   21.3903 C   0  0  1  0  0  0  0  0  0  0  0  0
    7.4543  -16.4532   21.4220 C   0  0  0  0  0  0  0  0  0  0  0  0
    6.8163  -18.0981   21.7464 S   0  0  0  0  0  0  0  0  0  0  0  0
    9.5256  -16.8141   22.7367 C   0  0  0  0  0  0  0  0  0  0  0  0
   10.0504  -17.9459   22.8895 O   0  0  0  0  0  0  0  0  0  0  0  0
    9.5180  -15.9332   23.8309 N   0  0  0  0  0  0  0  0  0  0  0  0
    9.9025  -16.2726   25.1935 C   0  0  1  0  0  0  0  0  0  0  0  0
    9.7077  -15.1538   26.1342 C   0  0  0  0  0  0  0  0  0  0  0  0
    8.2935  -14.7876   26.2948 C   0  0  0  0  0  0  0  0  0  0  0  0
    7.1924  -15.6610   26.2829 C   0  0  0  0  0  0  0  0  0  0  0  0
    6.0493  -14.9712   26.4173 N   0  0  0  0  0  0  0  0  0  0  0  0
    6.3333  -13.6558   26.5215 C   0  0  0  0  0  0  0  0  0  0  0  0
    5.5281  -12.5539   26.6922 C   0  0  0  0  0  0  0  0  0  0  0  0
    6.0738  -11.2944   26.7962 C   0  0  0  0  0  0  0  0  0  0  0  0
    7.4449  -11.1663   26.7248 C   0  0  0  0  0  0  0  0  0  0  0  0
    8.2627  -12.2600   26.5533 C   0  0  0  0  0  0  0  0  0  0  0  0
    7.7109  -13.5267   26.4481 C   0  0  0  0  0  0  0  0  0  0  0  0
    9.4379  -17.5566   25.6516 C   0  0  0  0  0  0  0  0  0  0  0  0
   10.1642  -18.1568   26.7085 O   0  0  0  0  0  0  0  0  0  0  0  0
    8.4628  -18.1669   25.1960 O   0  0  0  0  0  0  0  0  0  0  0  0
  2  1  1  6
  3  2  1  0
  4  3  1  0
  5  4  2  0
  6  2  1  0
  7  6  2  0
  8  4  1  0
  9  6  1  0
 10  9  1  0
 10 11  1  1
 12 11  1  0
 13 14  2  0
 13 10  1  0
 15 13  1  0
 16 15  1  0
 16 17  1  1
 18 19  2  0
 18 17  1  0
 20 19  1  0
 21 26  2  0
 21 20  1  0
 22 21  1  0
 23 24  1  0
 23 22  2  0
 24 25  2  0
 25 26  1  0
 26 18  1  0
 27 16  1  0
 28 27  1  0
 29 27  2  0
M  END
$$$$
