DCW.pdb
     RDKit          3D

 29 30  0  0  1  0  0  0  0  0999 V2000
    9.6776  -19.1922   18.7321 N   0  0  0  0  0  0  0  0  0  0  0  0
    9.4148  -19.0972   20.1286 C   0  0  1  0  0  0  0  0  0  0  0  0
   10.3938  -19.8967   20.9519 C   0  0  0  0  0  0  0  0  0  0  0  0
   10.1911  -21.3447   20.8988 C   0  0  0  0  0  0  0  0  0  0  0  0
    9.3219  -21.8890   20.1780 O   0  0  0  0  0  0  0  0  0  0  0  0
    9.4201  -17.6980   20.6460 C   0  0  0  0  0  0  0  0  0  0  0  0
   10.5222  -17.0712   20.7076 O   0  0  0  0  0  0  0  0  0  0  0  0
   10.9720  -22.2156   21.6646 O   0  0  0  0  0  0  0  0  0  0  0  0
    8.2921  -16.9950   21.0813 N   0  0  0  0  0  0  0  0  0  0  0  0
    8.2935  -15.6503   21.5604 C   0  0  1  0  0  0  0  0  0  0  0  0
    6.9638  -14.9967   21.6374 C   0  0  0  0  0  0  0  0  0  0  0  0
    7.0283  -13.5806   22.7367 S   0  0  0  0  0  0  0  0  0  0  0  0
    9.0543  -15.5349   22.8577 C   0  0  0  0  0  0  0  0  0  0  0  0
    9.6094  -14.4404   23.1290 O   0  0  0  0  0  0  0  0  0  0  0  0
    9.1758  -16.5870   23.7805 N   0  0  0  0  0  0  0  0  0  0  0  0
   10.0746  -16.6090   24.9257 C   0  0  1  0  0  0  0  0  0  0  0  0
    9.9408  -15.4116   25.7759 C   0  0  0  0  0  0  0  0  0  0  0  0
    8.5394  -15.0362   26.0103 C   0  0  0  0  0  0  0  0  0  0  0  0
    7.4287  -15.8974   26.0194 C   0  0  0  0  0  0  0  0  0  0  0  0
    6.3006  -15.2006   26.2258 N   0  0  0  0  0  0  0  0  0  0  0  0
    6.6043  -13.8922   26.3589 C   0  0  0  0  0  0  0  0  0  0  0  0
    5.8202  -12.7881   26.5997 C   0  0  0  0  0  0  0  0  0  0  0  0
    6.3847  -11.5382   26.7193 C   0  0  0  0  0  0  0  0  0  0  0  0
    7.7528  -11.4220   26.5916 C   0  0  0  0  0  0  0  0  0  0  0  0
    8.5494  -12.5180   26.3496 C   0  0  0  0  0  0  0  0  0  0  0  0
    7.9788  -13.7750   26.2289 C   0  0  0  0  0  0  0  0  0  0  0  0
   10.1304  -17.8654   25.6275 C   0  0  0  0  0  0  0  0  0  0  0  0
   11.1636  -18.0154   26.5840 O   0  0  0  0  0  0  0  0  0  0  0  0
    9.3519  -18.8121   25.4591 O   0  0  0  0  0  0  0  0  0  0  0  0
  2  1  1  6
  3  2  1  0
  4  3  1  0
  5  4  2  0
  6  2  1  0
  7  6  2  0
  8  4  1  0
  9  6  1  0
 10  9  1  0
 10 11  1  1
 12 11  1  0
 13 14  2  0
 13 10  1  0
 15 13  1  0
 16 15  1  0
 16 17  1  1
 18 19  2  0
 18 17  1  0
 20 19  1  0
 21 26  2  0
 21 20  1  0
 22 21  1  0
 23 24  1  0
 23 22  2  0
 24 25  2  0
 25 26  1  0
 26 18  1  0
 27 16  1  0
 28 27  1  0
 29 27  2  0
M  END
$$$$
