DCW.pdb
     RDKit          3D

 29 30  0  0  1  0  0  0  0  0999 V2000
    9.6199  -18.6599   17.7233 N   0  0  0  0  0  0  0  0  0  0  0  0
   10.2805  -17.5106   18.2439 C   0  0  1  0  0  0  0  0  0  0  0  0
   10.4099  -16.4107   17.2197 C   0  0  0  0  0  0  0  0  0  0  0  0
   11.2703  -16.7383   16.0827 C   0  0  0  0  0  0  0  0  0  0  0  0
   12.3376  -17.3861   16.1952 O   0  0  0  0  0  0  0  0  0  0  0  0
    9.6194  -16.9341   19.4506 C   0  0  0  0  0  0  0  0  0  0  0  0
    9.6452  -15.6766   19.6222 O   0  0  0  0  0  0  0  0  0  0  0  0
   10.9412  -16.3381   14.7841 O   0  0  0  0  0  0  0  0  0  0  0  0
    8.9566  -17.6719   20.4369 N   0  0  0  0  0  0  0  0  0  0  0  0
    8.3533  -17.1248   21.6091 C   0  0  1  0  0  0  0  0  0  0  0  0
    7.0673  -17.7433   22.0155 C   0  0  0  0  0  0  0  0  0  0  0  0
    7.3405  -19.4120   22.6144 S   0  0  0  0  0  0  0  0  0  0  0  0
    9.3364  -17.0663   22.7514 C   0  0  0  0  0  0  0  0  0  0  0  0
   10.3087  -17.8627   22.7437 O   0  0  0  0  0  0  0  0  0  0  0  0
    9.2234  -16.1679   23.8254 N   0  0  0  0  0  0  0  0  0  0  0  0
   10.0417  -16.1808   25.0296 C   0  0  1  0  0  0  0  0  0  0  0  0
    9.7871  -15.0196   25.9020 C   0  0  0  0  0  0  0  0  0  0  0  0
    8.3585  -14.6901   26.0052 C   0  0  0  0  0  0  0  0  0  0  0  0
    7.2943  -15.5979   26.1416 C   0  0  0  0  0  0  0  0  0  0  0  0
    6.1233  -14.9429   26.1645 N   0  0  0  0  0  0  0  0  0  0  0  0
    6.3528  -13.6178   26.0491 C   0  0  0  0  0  0  0  0  0  0  0  0
    5.5024  -12.5368   26.0386 C   0  0  0  0  0  0  0  0  0  0  0  0
    5.9957  -11.2561   25.9312 C   0  0  0  0  0  0  0  0  0  0  0  0
    7.3606  -11.0854   25.8347 C   0  0  0  0  0  0  0  0  0  0  0  0
    8.2231  -12.1580   25.8430 C   0  0  0  0  0  0  0  0  0  0  0  0
    7.7241  -13.4462   25.9504 C   0  0  0  0  0  0  0  0  0  0  0  0
   10.1156  -17.4546   25.6977 C   0  0  0  0  0  0  0  0  0  0  0  0
    9.0358  -18.3465   25.4897 O   0  0  0  0  0  0  0  0  0  0  0  0
   11.0415  -17.8233   26.4309 O   0  0  0  0  0  0  0  0  0  0  0  0
  2  1  1  6
  3  2  1  0
  4  3  1  0
  5  4  2  0
  6  2  1  0
  7  6  2  0
  8  4  1  0
  9  6  1  0
 10  9  1  0
 10 11  1  1
 12 11  1  0
 13 14  2  0
 13 10  1  0
 15 13  1  0
 16 15  1  0
 16 17  1  1
 18 19  2  0
 18 17  1  0
 20 19  1  0
 21 26  2  0
 21 20  1  0
 22 21  1  0
 23 24  1  0
 23 22  2  0
 24 25  2  0
 25 26  1  0
 26 18  1  0
 27 16  1  0
 28 27  1  0
 29 27  2  0
M  END
$$$$
