DCW.pdb
     RDKit          3D

 29 30  0  0  1  0  0  0  0  0999 V2000
    9.3384  -18.8940   18.0677 N   0  0  0  0  0  0  0  0  0  0  0  0
   10.1701  -18.0300   18.8359 C   0  0  1  0  0  0  0  0  0  0  0  0
   10.7039  -16.8765   18.0235 C   0  0  0  0  0  0  0  0  0  0  0  0
   12.0096  -17.1193   17.4098 C   0  0  0  0  0  0  0  0  0  0  0  0
   12.1740  -17.8792   16.4265 O   0  0  0  0  0  0  0  0  0  0  0  0
    9.4969  -17.4653   20.0415 C   0  0  0  0  0  0  0  0  0  0  0  0
    8.6648  -16.5184   19.8922 O   0  0  0  0  0  0  0  0  0  0  0  0
   13.1666  -16.5041   17.8974 O   0  0  0  0  0  0  0  0  0  0  0  0
    9.7044  -17.8948   21.3563 N   0  0  0  0  0  0  0  0  0  0  0  0
    8.8379  -17.6241   22.4579 C   0  0  1  0  0  0  0  0  0  0  0  0
    7.7125  -18.5746   22.6357 C   0  0  0  0  0  0  0  0  0  0  0  0
    8.1996  -19.9218   23.7153 S   0  0  0  0  0  0  0  0  0  0  0  0
    9.6207  -17.4327   23.7328 C   0  0  0  0  0  0  0  0  0  0  0  0
   10.6364  -18.1480   23.9229 O   0  0  0  0  0  0  0  0  0  0  0  0
    9.2746  -16.4960   24.7209 N   0  0  0  0  0  0  0  0  0  0  0  0
    9.9690  -16.3048   25.9862 C   0  0  1  0  0  0  0  0  0  0  0  0
    9.5728  -15.0594   26.6691 C   0  0  0  0  0  0  0  0  0  0  0  0
    8.1738  -14.6909   26.4102 C   0  0  0  0  0  0  0  0  0  0  0  0
    7.0864  -15.5694   26.2644 C   0  0  0  0  0  0  0  0  0  0  0  0
    5.9653  -14.8824   25.9961 N   0  0  0  0  0  0  0  0  0  0  0  0
    6.2510  -13.5639   25.9547 C   0  0  0  0  0  0  0  0  0  0  0  0
    5.4596  -12.4598   25.7391 C   0  0  0  0  0  0  0  0  0  0  0  0
    5.9971  -11.1930   25.7718 C   0  0  0  0  0  0  0  0  0  0  0  0
    7.3459  -11.0597   26.0256 C   0  0  0  0  0  0  0  0  0  0  0  0
    8.1500  -12.1556   26.2423 C   0  0  0  0  0  0  0  0  0  0  0  0
    7.6066  -13.4299   26.2080 C   0  0  0  0  0  0  0  0  0  0  0  0
   10.0380  -17.4758   26.8219 C   0  0  0  0  0  0  0  0  0  0  0  0
   10.9527  -17.4347   27.9018 O   0  0  0  0  0  0  0  0  0  0  0  0
    9.3653  -18.5028   26.6684 O   0  0  0  0  0  0  0  0  0  0  0  0
  2  1  1  6
  3  2  1  0
  4  3  1  0
  5  4  2  0
  6  2  1  0
  7  6  2  0
  8  4  1  0
  9  6  1  0
 10  9  1  0
 10 11  1  1
 12 11  1  0
 13 14  2  0
 13 10  1  0
 15 13  1  0
 16 15  1  0
 16 17  1  1
 18 19  2  0
 18 17  1  0
 20 19  1  0
 21 26  2  0
 21 20  1  0
 22 21  1  0
 23 24  1  0
 23 22  2  0
 24 25  2  0
 25 26  1  0
 26 18  1  0
 27 16  1  0
 28 27  1  0
 29 27  2  0
M  END
$$$$
