DCW.pdb
     RDKit          3D

 29 30  0  0  1  0  0  0  0  0999 V2000
    7.8452  -19.8786   18.6390 N   0  0  0  0  0  0  0  0  0  0  0  0
    7.5956  -19.3743   19.9473 C   0  0  1  0  0  0  0  0  0  0  0  0
    8.1778  -20.2572   21.0229 C   0  0  0  0  0  0  0  0  0  0  0  0
    7.6533  -21.6229   21.0370 C   0  0  0  0  0  0  0  0  0  0  0  0
    6.4666  -21.9042   20.7472 O   0  0  0  0  0  0  0  0  0  0  0  0
    8.1101  -17.9911   20.1651 C   0  0  0  0  0  0  0  0  0  0  0  0
    9.3641  -17.7944   20.1538 O   0  0  0  0  0  0  0  0  0  0  0  0
    8.4642  -22.7085   21.3813 O   0  0  0  0  0  0  0  0  0  0  0  0
    7.3163  -16.8610   20.3868 N   0  0  0  0  0  0  0  0  0  0  0  0
    7.8071  -15.5594   20.7069 C   0  0  1  0  0  0  0  0  0  0  0  0
    6.9847  -14.4265   20.2155 C   0  0  0  0  0  0  0  0  0  0  0  0
    7.7720  -12.8653   20.6162 S   0  0  0  0  0  0  0  0  0  0  0  0
    8.1108  -15.4384   22.1793 C   0  0  0  0  0  0  0  0  0  0  0  0
    7.2016  -15.0299   22.9449 O   0  0  0  0  0  0  0  0  0  0  0  0
    9.3577  -15.7583   22.7418 N   0  0  0  0  0  0  0  0  0  0  0  0
    9.7313  -15.5677   24.1360 C   0  0  1  0  0  0  0  0  0  0  0  0
    8.7921  -16.2164   25.0696 C   0  0  0  0  0  0  0  0  0  0  0  0
    7.6182  -15.3826   25.3639 C   0  0  0  0  0  0  0  0  0  0  0  0
    6.2825  -15.6630   25.0284 C   0  0  0  0  0  0  0  0  0  0  0  0
    5.4832  -14.6585   25.4192 N   0  0  0  0  0  0  0  0  0  0  0  0
    6.2288  -13.7018   26.0113 C   0  0  0  0  0  0  0  0  0  0  0  0
    5.8896  -12.5009   26.5899 C   0  0  0  0  0  0  0  0  0  0  0  0
    6.8524  -11.6987   27.1594 C   0  0  0  0  0  0  0  0  0  0  0  0
    8.1623  -12.1289   27.1349 C   0  0  0  0  0  0  0  0  0  0  0  0
    8.5162  -13.3276   26.5586 C   0  0  0  0  0  0  0  0  0  0  0  0
    7.5453  -14.1330   25.9853 C   0  0  0  0  0  0  0  0  0  0  0  0
   11.1285  -15.7693   24.4213 C   0  0  0  0  0  0  0  0  0  0  0  0
   11.9213  -14.6064   24.5760 O   0  0  0  0  0  0  0  0  0  0  0  0
   11.6811  -16.8699   24.5403 O   0  0  0  0  0  0  0  0  0  0  0  0
  2  1  1  6
  3  2  1  0
  4  3  1  0
  5  4  2  0
  6  2  1  0
  7  6  2  0
  8  4  1  0
  9  6  1  0
 10  9  1  0
 10 11  1  1
 12 11  1  0
 13 14  2  0
 13 10  1  0
 15 13  1  0
 16 15  1  0
 16 17  1  1
 18 19  2  0
 18 17  1  0
 20 19  1  0
 21 26  2  0
 21 20  1  0
 22 21  1  0
 23 24  1  0
 23 22  2  0
 24 25  2  0
 25 26  1  0
 26 18  1  0
 27 16  1  0
 28 27  1  0
 29 27  2  0
M  END
$$$$
