DCW.pdb
     RDKit          3D

 29 30  0  0  1  0  0  0  0  0999 V2000
   10.3211  -19.0771   17.8323 N   0  0  0  0  0  0  0  0  0  0  0  0
   10.6440  -17.7273   18.1516 C   0  0  1  0  0  0  0  0  0  0  0  0
   10.3324  -16.7801   17.0198 C   0  0  0  0  0  0  0  0  0  0  0  0
   11.1216  -17.0018   15.8080 C   0  0  0  0  0  0  0  0  0  0  0  0
   10.6589  -16.8549   14.6523 O   0  0  0  0  0  0  0  0  0  0  0  0
    9.9559  -17.2191   19.3738 C   0  0  0  0  0  0  0  0  0  0  0  0
   10.1175  -16.0054   19.7086 O   0  0  0  0  0  0  0  0  0  0  0  0
   12.4609  -17.3975   15.8762 O   0  0  0  0  0  0  0  0  0  0  0  0
    9.1273  -17.9778   20.2070 N   0  0  0  0  0  0  0  0  0  0  0  0
    8.4249  -17.4793   21.3452 C   0  0  1  0  0  0  0  0  0  0  0  0
    7.1603  -18.1818   21.6753 C   0  0  0  0  0  0  0  0  0  0  0  0
    5.9559  -17.9441   20.3673 S   0  0  0  0  0  0  0  0  0  0  0  0
    9.3361  -17.3671   22.5419 C   0  0  0  0  0  0  0  0  0  0  0  0
   10.2710  -18.1987   22.6605 O   0  0  0  0  0  0  0  0  0  0  0  0
    9.1956  -16.3812   23.5327 N   0  0  0  0  0  0  0  0  0  0  0  0
   10.0025  -16.2731   24.7397 C   0  0  1  0  0  0  0  0  0  0  0  0
    9.8506  -14.9683   25.4097 C   0  0  0  0  0  0  0  0  0  0  0  0
    8.4528  -14.6622   25.7449 C   0  0  0  0  0  0  0  0  0  0  0  0
    7.4054  -15.5855   25.9057 C   0  0  0  0  0  0  0  0  0  0  0  0
    6.2561  -14.9449   26.1691 N   0  0  0  0  0  0  0  0  0  0  0  0
    6.4841  -13.6148   26.1944 C   0  0  0  0  0  0  0  0  0  0  0  0
    5.6532  -12.5458   26.4365 C   0  0  0  0  0  0  0  0  0  0  0  0
    6.1432  -11.2594   26.4287 C   0  0  0  0  0  0  0  0  0  0  0  0
    7.4849  -11.0706   26.1725 C   0  0  0  0  0  0  0  0  0  0  0  0
    8.3277  -12.1309   25.9277 C   0  0  0  0  0  0  0  0  0  0  0  0
    7.8319  -13.4249   25.9354 C   0  0  0  0  0  0  0  0  0  0  0  0
    9.9556  -17.4239   25.6044 C   0  0  0  0  0  0  0  0  0  0  0  0
   11.0202  -17.5720   26.5261 O   0  0  0  0  0  0  0  0  0  0  0  0
    9.0646  -18.2824   25.6022 O   0  0  0  0  0  0  0  0  0  0  0  0
  2  1  1  6
  3  2  1  0
  4  3  1  0
  5  4  2  0
  6  2  1  0
  7  6  2  0
  8  4  1  0
  9  6  1  0
 10  9  1  0
 10 11  1  1
 12 11  1  0
 13 14  2  0
 13 10  1  0
 15 13  1  0
 16 15  1  0
 16 17  1  1
 18 19  2  0
 18 17  1  0
 20 19  1  0
 21 26  2  0
 21 20  1  0
 22 21  1  0
 23 24  1  0
 23 22  2  0
 24 25  2  0
 25 26  1  0
 26 18  1  0
 27 16  1  0
 28 27  1  0
 29 27  2  0
M  END
$$$$
