DCW.pdb
     RDKit          3D

 29 30  0  0  1  0  0  0  0  0999 V2000
   10.1696  -18.1902   18.6283 N   0  0  0  0  0  0  0  0  0  0  0  0
   10.3857  -18.1977   20.0360 C   0  0  1  0  0  0  0  0  0  0  0  0
   11.7686  -18.6768   20.4013 C   0  0  0  0  0  0  0  0  0  0  0  0
   12.0781  -20.0350   19.9541 C   0  0  0  0  0  0  0  0  0  0  0  0
   11.2299  -20.9575   19.9268 O   0  0  0  0  0  0  0  0  0  0  0  0
   10.1785  -16.8688   20.6816 C   0  0  0  0  0  0  0  0  0  0  0  0
   11.1046  -16.0034   20.6144 O   0  0  0  0  0  0  0  0  0  0  0  0
   13.3625  -20.3830   19.5249 O   0  0  0  0  0  0  0  0  0  0  0  0
    9.0267  -16.4789   21.3728 N   0  0  0  0  0  0  0  0  0  0  0  0
    8.7732  -15.1682   21.8780 C   0  0  1  0  0  0  0  0  0  0  0  0
    7.4184  -14.6280   21.6053 C   0  0  0  0  0  0  0  0  0  0  0  0
    6.1646  -15.8120   22.0992 S   0  0  0  0  0  0  0  0  0  0  0  0
    9.1367  -15.0673   23.3383 C   0  0  0  0  0  0  0  0  0  0  0  0
    9.1506  -13.9299   23.8729 O   0  0  0  0  0  0  0  0  0  0  0  0
    9.4611  -16.1785   24.1343 N   0  0  0  0  0  0  0  0  0  0  0  0
   10.1408  -16.1285   25.4209 C   0  0  1  0  0  0  0  0  0  0  0  0
    9.2114  -16.2494   26.5594 C   0  0  0  0  0  0  0  0  0  0  0  0
    7.9427  -15.5429   26.3334 C   0  0  0  0  0  0  0  0  0  0  0  0
    6.7304  -16.1090   25.9031 C   0  0  0  0  0  0  0  0  0  0  0  0
    5.7942  -15.1572   25.7669 N   0  0  0  0  0  0  0  0  0  0  0  0
    6.3269  -13.9601   26.0908 C   0  0  0  0  0  0  0  0  0  0  0  0
    5.7859  -12.6962   26.1331 C   0  0  0  0  0  0  0  0  0  0  0  0
    6.5468  -11.6193   26.5281 C   0  0  0  0  0  0  0  0  0  0  0  0
    7.8620  -11.8396   26.8792 C   0  0  0  0  0  0  0  0  0  0  0  0
    8.4167  -13.0986   26.8407 C   0  0  0  0  0  0  0  0  0  0  0  0
    7.6489  -14.1810   26.4420 C   0  0  0  0  0  0  0  0  0  0  0  0
   11.3345  -16.9298   25.5065 C   0  0  0  0  0  0  0  0  0  0  0  0
   11.5846  -17.8170   24.4317 O   0  0  0  0  0  0  0  0  0  0  0  0
   12.1483  -16.9007   26.4380 O   0  0  0  0  0  0  0  0  0  0  0  0
  2  1  1  6
  3  2  1  0
  4  3  1  0
  5  4  2  0
  6  2  1  0
  7  6  2  0
  8  4  1  0
  9  6  1  0
 10  9  1  0
 10 11  1  1
 12 11  1  0
 13 14  2  0
 13 10  1  0
 15 13  1  0
 16 15  1  0
 16 17  1  1
 18 19  2  0
 18 17  1  0
 20 19  1  0
 21 26  2  0
 21 20  1  0
 22 21  1  0
 23 24  1  0
 23 22  2  0
 24 25  2  0
 25 26  1  0
 26 18  1  0
 27 16  1  0
 28 27  1  0
 29 27  2  0
M  END
$$$$
