DCW.pdb
     RDKit          3D

 29 30  0  0  1  0  0  0  0  0999 V2000
   11.1531  -19.2219   18.7221 N   0  0  0  0  0  0  0  0  0  0  0  0
   11.6299  -18.0470   19.3706 C   0  0  1  0  0  0  0  0  0  0  0  0
   11.8620  -16.9125   18.4038 C   0  0  0  0  0  0  0  0  0  0  0  0
   12.9786  -17.1199   17.4815 C   0  0  0  0  0  0  0  0  0  0  0  0
   12.8709  -17.7566   16.4071 O   0  0  0  0  0  0  0  0  0  0  0  0
   10.7276  -17.5492   20.4492 C   0  0  0  0  0  0  0  0  0  0  0  0
   10.9878  -16.4362   21.0014 O   0  0  0  0  0  0  0  0  0  0  0  0
   14.2508  -16.6086   17.7553 O   0  0  0  0  0  0  0  0  0  0  0  0
    9.5912  -18.2143   20.9208 N   0  0  0  0  0  0  0  0  0  0  0  0
    8.7056  -17.7211   21.9258 C   0  0  1  0  0  0  0  0  0  0  0  0
    7.3674  -18.3605   21.9697 C   0  0  0  0  0  0  0  0  0  0  0  0
    6.6539  -18.2004   23.6077 S   0  0  0  0  0  0  0  0  0  0  0  0
    9.3698  -17.7106   23.2799 C   0  0  0  0  0  0  0  0  0  0  0  0
   10.0619  -18.7053   23.6133 O   0  0  0  0  0  0  0  0  0  0  0  0
    9.2561  -16.6465   24.1901 N   0  0  0  0  0  0  0  0  0  0  0  0
    9.8876  -16.5823   25.5004 C   0  0  1  0  0  0  0  0  0  0  0  0
    9.7633  -15.2530   26.1264 C   0  0  0  0  0  0  0  0  0  0  0  0
    8.3650  -14.8288   26.2840 C   0  0  0  0  0  0  0  0  0  0  0  0
    7.2381  -15.6641   26.3723 C   0  0  0  0  0  0  0  0  0  0  0  0
    6.1198  -14.9288   26.4695 N   0  0  0  0  0  0  0  0  0  0  0  0
    6.4458  -13.6192   26.4514 C   0  0  0  0  0  0  0  0  0  0  0  0
    5.6785  -12.4812   26.5413 C   0  0  0  0  0  0  0  0  0  0  0  0
    6.2643  -11.2356   26.5224 C   0  0  0  0  0  0  0  0  0  0  0  0
    7.6366  -11.1584   26.4111 C   0  0  0  0  0  0  0  0  0  0  0  0
    8.4167  -12.2886   26.3193 C   0  0  0  0  0  0  0  0  0  0  0  0
    7.8245  -13.5413   26.3379 C   0  0  0  0  0  0  0  0  0  0  0  0
    9.6096  -17.7025   26.3619 C   0  0  0  0  0  0  0  0  0  0  0  0
   10.4706  -17.8816   27.4716 O   0  0  0  0  0  0  0  0  0  0  0  0
    8.6853  -18.5101   26.2067 O   0  0  0  0  0  0  0  0  0  0  0  0
  2  1  1  6
  3  2  1  0
  4  3  1  0
  5  4  2  0
  6  2  1  0
  7  6  2  0
  8  4  1  0
  9  6  1  0
 10  9  1  0
 10 11  1  1
 12 11  1  0
 13 14  2  0
 13 10  1  0
 15 13  1  0
 16 15  1  0
 16 17  1  1
 18 19  2  0
 18 17  1  0
 20 19  1  0
 21 26  2  0
 21 20  1  0
 22 21  1  0
 23 24  1  0
 23 22  2  0
 24 25  2  0
 25 26  1  0
 26 18  1  0
 27 16  1  0
 28 27  1  0
 29 27  2  0
M  END
$$$$
