DCW.pdb
     RDKit          3D

 29 30  0  0  1  0  0  0  0  0999 V2000
   10.2523  -15.8949   17.9039 N   0  0  0  0  0  0  0  0  0  0  0  0
    9.2952  -15.2192   18.7135 C   0  0  1  0  0  0  0  0  0  0  0  0
    8.0351  -14.8859   17.9543 C   0  0  0  0  0  0  0  0  0  0  0  0
    8.2427  -14.5771   16.5394 C   0  0  0  0  0  0  0  0  0  0  0  0
    9.3723  -14.5801   15.9959 O   0  0  0  0  0  0  0  0  0  0  0  0
    8.9030  -15.9771   19.9372 C   0  0  0  0  0  0  0  0  0  0  0  0
    7.7075  -16.3896   20.0462 O   0  0  0  0  0  0  0  0  0  0  0  0
    7.1706  -14.2558   15.7015 O   0  0  0  0  0  0  0  0  0  0  0  0
    9.7545  -16.2826   21.0040 N   0  0  0  0  0  0  0  0  0  0  0  0
    9.4263  -17.1328   22.1026 C   0  0  1  0  0  0  0  0  0  0  0  0
    9.7520  -18.5688   21.9202 C   0  0  0  0  0  0  0  0  0  0  0  0
   11.2253  -18.7505   20.9130 S   0  0  0  0  0  0  0  0  0  0  0  0
    9.9793  -16.5894   23.3964 C   0  0  0  0  0  0  0  0  0  0  0  0
   11.1430  -16.1148   23.3958 O   0  0  0  0  0  0  0  0  0  0  0  0
    9.2618  -16.5853   24.6042 N   0  0  0  0  0  0  0  0  0  0  0  0
    9.8285  -16.3500   25.9245 C   0  0  1  0  0  0  0  0  0  0  0  0
    8.7995  -16.0678   26.9423 C   0  0  0  0  0  0  0  0  0  0  0  0
    7.6989  -15.2439   26.4229 C   0  0  0  0  0  0  0  0  0  0  0  0
    6.4681  -15.7035   25.9236 C   0  0  0  0  0  0  0  0  0  0  0  0
    5.7231  -14.6714   25.4987 N   0  0  0  0  0  0  0  0  0  0  0  0
    6.4041  -13.5222   25.6921 C   0  0  0  0  0  0  0  0  0  0  0  0
    6.0768  -12.2091   25.4461 C   0  0  0  0  0  0  0  0  0  0  0  0
    6.9534  -11.1957   25.7615 C   0  0  0  0  0  0  0  0  0  0  0  0
    8.1650  -11.5301   26.3289 C   0  0  0  0  0  0  0  0  0  0  0  0
    8.5060  -12.8397   26.5798 C   0  0  0  0  0  0  0  0  0  0  0  0
    7.6222  -13.8581   26.2606 C   0  0  0  0  0  0  0  0  0  0  0  0
   10.8521  -17.2831   26.3190 C   0  0  0  0  0  0  0  0  0  0  0  0
   11.6962  -16.8894   27.3855 O   0  0  0  0  0  0  0  0  0  0  0  0
   11.0465  -18.3901   25.8018 O   0  0  0  0  0  0  0  0  0  0  0  0
  2  1  1  6
  3  2  1  0
  4  3  1  0
  5  4  2  0
  6  2  1  0
  7  6  2  0
  8  4  1  0
  9  6  1  0
 10  9  1  0
 10 11  1  6
 12 11  1  0
 13 14  2  0
 13 10  1  0
 15 13  1  0
 16 15  1  0
 16 17  1  1
 18 19  2  0
 18 17  1  0
 20 19  1  0
 21 26  2  0
 21 20  1  0
 22 21  1  0
 23 24  1  0
 23 22  2  0
 24 25  2  0
 25 26  1  0
 26 18  1  0
 27 16  1  0
 28 27  1  0
 29 27  2  0
M  END
$$$$
