MSE.pdb
     RDKit          3D

 24 23  0  0  1  0  0  0  0  0999 V2000
    9.5141  -13.4707   29.0197 C   0  0  0  0  0  0  0  0  0  0  0  0
   10.5459  -13.9213   27.5961 S   0  0  0  0  0  0  0  0  0  0  0  0
    9.6990  -15.2496   26.6798 C   0  0  0  0  0  0  0  0  0  0  0  0
   10.4909  -15.6284   25.4472 C   0  0  0  0  0  0  0  0  0  0  0  0
   10.8840  -17.0833   25.5605 C   0  0  2  0  0  0  0  0  0  0  0  0
    9.6664  -17.8443   25.7416 N   0  0  0  0  0  0  0  0  0  0  0  0
   11.7705  -17.3329   26.7153 C   0  0  0  0  0  0  0  0  0  0  0  0
   12.9250  -16.8458   26.7129 O   0  0  0  0  0  0  0  0  0  0  0  0
   10.1655  -18.7345   30.1137 O   0  0  0  0  0  0  0  0  0  0  0  0
   11.3870  -18.0849   30.2268 C   0  0  0  0  0  0  0  0  0  0  0  0
   12.2426  -18.3576   28.9839 C   0  0  2  0  0  0  0  0  0  0  0  0
   11.3965  -18.1005   27.8470 N   0  0  0  0  0  0  0  0  0  0  0  0
   12.6267  -19.8069   29.0667 C   0  0  0  0  0  0  0  0  0  0  0  0
   11.8586  -20.7142   28.6616 O   0  0  0  0  0  0  0  0  0  0  0  0
   13.8756  -20.2232   29.6060 N   0  0  0  0  0  0  0  0  0  0  0  0
   14.2636  -21.6261   29.6903 C   0  0  1  0  0  0  0  0  0  0  0  0
   15.7698  -21.6958   29.6700 C   0  0  0  0  0  0  0  0  0  0  0  0
   16.3414  -21.1439   28.3957 C   0  0  0  0  0  0  0  0  0  0  0  0
   17.8138  -21.1360   28.3255 C   0  0  0  0  0  0  0  0  0  0  0  0
   18.5786  -20.6955   29.2133 O   0  0  0  0  0  0  0  0  0  0  0  0
   13.7387  -22.2640   30.9122 C   0  0  0  0  0  0  0  0  0  0  0  0
   13.2203  -21.5486   31.7984 O   0  0  0  0  0  0  0  0  0  0  0  0
   18.4401  -21.6528   27.1943 O   0  0  0  0  0  0  0  0  0  0  0  0
   13.8012  -23.6279   31.1101 O   0  0  0  0  0  0  0  0  0  0  0  0
  1  2  1  0
  3  2  1  0
  4  3  1  0
  5  7  1  0
  5  4  1  0
  5  6  1  1
  7 12  1  0
  7  8  2  0
 10  9  1  0
 11 10  1  1
 11 13  1  0
 12 11  1  0
 13 15  1  0
 13 14  2  0
 15 16  1  0
 16 21  1  0
 16 17  1  1
 18 17  1  0
 19 18  1  0
 20 19  2  0
 21 22  2  0
 21 24  1  0
 23 19  1  0
M  END
$$$$
