MSE.pdb
     RDKit          3D

 24 23  0  0  1  0  0  0  0  0999 V2000
    7.6178  -11.4790   19.9271 C   0  0  0  0  0  0  0  0  0  0  0  0
    7.0943  -12.5820   18.5842 S   0  0  0  0  0  0  0  0  0  0  0  0
    7.6335  -14.2733   18.9967 C   0  0  0  0  0  0  0  0  0  0  0  0
    8.6393  -14.2456   20.1270 C   0  0  0  0  0  0  0  0  0  0  0  0
    8.8846  -15.6655   20.5828 C   0  0  2  0  0  0  0  0  0  0  0  0
    7.6537  -16.3996   20.3825 N   0  0  0  0  0  0  0  0  0  0  0  0
    9.2474  -15.7371   22.0129 C   0  0  0  0  0  0  0  0  0  0  0  0
   10.3994  -15.3940   22.3666 O   0  0  0  0  0  0  0  0  0  0  0  0
    6.7595  -17.6295   24.8264 O   0  0  0  0  0  0  0  0  0  0  0  0
    7.3837  -16.4420   25.1833 C   0  0  0  0  0  0  0  0  0  0  0  0
    8.7081  -16.2976   24.4242 C   0  0  2  0  0  0  0  0  0  0  0  0
    8.3637  -16.1759   23.0309 N   0  0  0  0  0  0  0  0  0  0  0  0
    9.4697  -17.5634   24.6938 C   0  0  0  0  0  0  0  0  0  0  0  0
    9.6763  -18.4107   23.7900 O   0  0  0  0  0  0  0  0  0  0  0  0
    9.9934  -17.8650   25.9816 N   0  0  0  0  0  0  0  0  0  0  0  0
   11.2377  -18.6017   26.1680 C   0  0  1  0  0  0  0  0  0  0  0  0
   12.3539  -17.7956   25.5529 C   0  0  0  0  0  0  0  0  0  0  0  0
   13.6875  -18.4670   25.7140 C   0  0  0  0  0  0  0  0  0  0  0  0
   14.6103  -18.3002   24.5766 C   0  0  0  0  0  0  0  0  0  0  0  0
   14.7589  -19.1163   23.6391 O   0  0  0  0  0  0  0  0  0  0  0  0
   11.5142  -18.8517   27.5951 C   0  0  0  0  0  0  0  0  0  0  0  0
   11.0625  -18.0586   28.4513 O   0  0  0  0  0  0  0  0  0  0  0  0
   15.3967  -17.1532   24.5059 O   0  0  0  0  0  0  0  0  0  0  0  0
   12.2567  -19.9348   28.0177 O   0  0  0  0  0  0  0  0  0  0  0  0
  1  2  1  0
  3  2  1  0
  4  3  1  0
  5  7  1  0
  5  4  1  0
  5  6  1  1
  7 12  1  0
  7  8  2  0
 10  9  1  0
 11 10  1  1
 11 13  1  0
 12 11  1  0
 13 15  1  0
 13 14  2  0
 15 16  1  0
 16 21  1  0
 16 17  1  1
 18 17  1  0
 19 18  1  0
 20 19  2  0
 21 22  2  0
 21 24  1  0
 23 19  1  0
M  END
$$$$
