MSE.pdb
     RDKit          3D

 24 23  0  0  1  0  0  0  0  0999 V2000
    7.5619  -11.4944   27.2494 C   0  0  0  0  0  0  0  0  0  0  0  0
    5.8372  -11.9618   26.9310 S   0  0  0  0  0  0  0  0  0  0  0  0
    5.7405  -13.7813   26.8934 C   0  0  0  0  0  0  0  0  0  0  0  0
    6.8682  -14.3527   26.0618 C   0  0  0  0  0  0  0  0  0  0  0  0
    6.2761  -15.2859   25.0309 C   0  0  2  0  0  0  0  0  0  0  0  0
    5.7086  -16.4097   25.7447 N   0  0  0  0  0  0  0  0  0  0  0  0
    7.2938  -15.7931   24.0882 C   0  0  0  0  0  0  0  0  0  0  0  0
    8.1077  -16.6614   24.4802 O   0  0  0  0  0  0  0  0  0  0  0  0
    8.3927  -13.5337   21.0523 O   0  0  0  0  0  0  0  0  0  0  0  0
    8.3572  -14.8521   20.6188 C   0  0  0  0  0  0  0  0  0  0  0  0
    8.4255  -15.8009   21.8214 C   0  0  2  0  0  0  0  0  0  0  0  0
    7.4141  -15.3555   22.7451 N   0  0  0  0  0  0  0  0  0  0  0  0
    9.8041  -15.6326   22.3924 C   0  0  0  0  0  0  0  0  0  0  0  0
    9.9973  -15.0236   23.4736 O   0  0  0  0  0  0  0  0  0  0  0  0
   10.9560  -16.1528   21.7395 N   0  0  0  0  0  0  0  0  0  0  0  0
   12.1834  -16.4765   22.4569 C   0  0  1  0  0  0  0  0  0  0  0  0
   11.8468  -17.4850   23.5263 C   0  0  0  0  0  0  0  0  0  0  0  0
   11.6197  -16.8350   24.8610 C   0  0  0  0  0  0  0  0  0  0  0  0
   11.3838  -17.7693   25.9766 C   0  0  0  0  0  0  0  0  0  0  0  0
   10.8264  -18.8860   25.8801 O   0  0  0  0  0  0  0  0  0  0  0  0
   13.2167  -17.0156   21.5529 C   0  0  0  0  0  0  0  0  0  0  0  0
   12.8638  -17.6046   20.5068 O   0  0  0  0  0  0  0  0  0  0  0  0
   11.8017  -17.4142   27.2565 O   0  0  0  0  0  0  0  0  0  0  0  0
   14.5635  -16.8910   21.8243 O   0  0  0  0  0  0  0  0  0  0  0  0
  1  2  1  0
  3  2  1  0
  4  3  1  0
  5  7  1  0
  5  4  1  0
  5  6  1  1
  7 12  1  0
  7  8  2  0
 10  9  1  0
 11 10  1  6
 11 13  1  0
 12 11  1  0
 13 15  1  0
 13 14  2  0
 15 16  1  0
 16 21  1  0
 16 17  1  1
 18 17  1  0
 19 18  1  0
 20 19  2  0
 21 22  2  0
 21 24  1  0
 23 19  1  0
M  END
$$$$
