MSE.pdb
     RDKit          3D

 24 23  0  0  1  0  0  0  0  0999 V2000
    9.8968  -17.0980   15.6760 C   0  0  0  0  0  0  0  0  0  0  0  0
    8.7938  -16.0818   14.6537 S   0  0  0  0  0  0  0  0  0  0  0  0
    7.9552  -14.8845   15.7421 C   0  0  0  0  0  0  0  0  0  0  0  0
    8.4539  -15.0243   17.1639 C   0  0  0  0  0  0  0  0  0  0  0  0
    7.7922  -13.9602   18.0089 C   0  0  2  0  0  0  0  0  0  0  0  0
    7.7928  -12.7365   17.2365 N   0  0  0  0  0  0  0  0  0  0  0  0
    8.5191  -13.7194   19.2719 C   0  0  0  0  0  0  0  0  0  0  0  0
    9.7380  -13.4322   19.2275 O   0  0  0  0  0  0  0  0  0  0  0  0
    6.8661  -15.2163   22.7413 O   0  0  0  0  0  0  0  0  0  0  0  0
    7.5830  -14.0378   22.8978 C   0  0  0  0  0  0  0  0  0  0  0  0
    8.6414  -13.9181   21.7948 C   0  0  2  0  0  0  0  0  0  0  0  0
    7.9198  -13.7926   20.5546 N   0  0  0  0  0  0  0  0  0  0  0  0
    9.4269  -15.1969   21.8468 C   0  0  0  0  0  0  0  0  0  0  0  0
    9.3183  -16.0712   20.9518 O   0  0  0  0  0  0  0  0  0  0  0  0
   10.3303  -15.4808   22.9084 N   0  0  0  0  0  0  0  0  0  0  0  0
   11.3004  -16.5672   22.8418 C   0  0  1  0  0  0  0  0  0  0  0  0
   12.2626  -16.2656   21.7205 C   0  0  0  0  0  0  0  0  0  0  0  0
   13.2084  -15.1541   22.0745 C   0  0  0  0  0  0  0  0  0  0  0  0
   14.3377  -14.9770   21.1437 C   0  0  0  0  0  0  0  0  0  0  0  0
   14.3080  -14.3028   20.0894 O   0  0  0  0  0  0  0  0  0  0  0  0
   12.0306  -16.7242   24.1136 C   0  0  0  0  0  0  0  0  0  0  0  0
   12.8581  -17.6558   24.2300 O   0  0  0  0  0  0  0  0  0  0  0  0
   15.5523  -15.5956   21.4282 O   0  0  0  0  0  0  0  0  0  0  0  0
   11.8303  -15.8748   25.1820 O   0  0  0  0  0  0  0  0  0  0  0  0
  1  2  1  0
  3  2  1  0
  4  3  1  0
  5  7  1  0
  5  4  1  0
  5  6  1  6
  7 12  1  0
  7  8  2  0
 10  9  1  0
 11 10  1  1
 11 13  1  0
 12 11  1  0
 13 15  1  0
 13 14  2  0
 15 16  1  0
 16 21  1  0
 16 17  1  6
 18 17  1  0
 19 18  1  0
 20 19  2  0
 21 22  2  0
 21 24  1  0
 23 19  1  0
M  END
$$$$
