MSE.pdb
     RDKit          3D

 24 23  0  0  1  0  0  0  0  0999 V2000
    7.6525  -11.4965   26.6947 C   0  0  0  0  0  0  0  0  0  0  0  0
    5.8892  -11.8954   26.5329 S   0  0  0  0  0  0  0  0  0  0  0  0
    5.7103  -13.7081   26.5907 C   0  0  0  0  0  0  0  0  0  0  0  0
    6.9165  -14.3776   25.9686 C   0  0  0  0  0  0  0  0  0  0  0  0
    6.4333  -15.3555   24.9224 C   0  0  2  0  0  0  0  0  0  0  0  0
    5.7397  -16.4191   25.6166 N   0  0  0  0  0  0  0  0  0  0  0  0
    7.5480  -15.9447   24.1531 C   0  0  0  0  0  0  0  0  0  0  0  0
    8.2668  -16.8170   24.6941 O   0  0  0  0  0  0  0  0  0  0  0  0
    8.9677  -13.9894   20.9448 O   0  0  0  0  0  0  0  0  0  0  0  0
    8.9767  -15.3604   20.7269 C   0  0  0  0  0  0  0  0  0  0  0  0
    8.9783  -16.1040   22.0678 C   0  0  2  0  0  0  0  0  0  0  0  0
    7.8654  -15.5833   22.8195 N   0  0  0  0  0  0  0  0  0  0  0  0
   10.2883  -15.7638   22.7182 C   0  0  0  0  0  0  0  0  0  0  0  0
   10.4883  -14.6412   23.2444 O   0  0  0  0  0  0  0  0  0  0  0  0
   11.3643  -16.6929   22.7707 N   0  0  0  0  0  0  0  0  0  0  0  0
   12.4413  -16.5893   23.7481 C   0  0  1  0  0  0  0  0  0  0  0  0
   12.1285  -17.5256   24.8881 C   0  0  0  0  0  0  0  0  0  0  0  0
   13.1701  -17.4644   25.9682 C   0  0  0  0  0  0  0  0  0  0  0  0
   12.8975  -18.3097   27.1448 C   0  0  0  0  0  0  0  0  0  0  0  0
   11.9936  -19.1722   27.2229 O   0  0  0  0  0  0  0  0  0  0  0  0
   13.7493  -16.9252   23.1550 C   0  0  0  0  0  0  0  0  0  0  0  0
   13.7870  -17.6335   22.1241 O   0  0  0  0  0  0  0  0  0  0  0  0
   13.6902  -18.1645   28.2804 O   0  0  0  0  0  0  0  0  0  0  0  0
   14.9359  -16.4824   23.7018 O   0  0  0  0  0  0  0  0  0  0  0  0
  1  2  1  0
  3  2  1  0
  4  3  1  0
  5  7  1  0
  5  4  1  0
  5  6  1  1
  7 12  1  0
  7  8  2  0
 10  9  1  0
 11 10  1  6
 11 13  1  0
 12 11  1  0
 13 15  1  0
 13 14  2  0
 15 16  1  0
 16 21  1  0
 16 17  1  1
 18 17  1  0
 19 18  1  0
 20 19  2  0
 21 22  2  0
 21 24  1  0
 23 19  1  0
M  END
$$$$
