MSE.pdb
     RDKit          3D

 24 23  0  0  1  0  0  0  0  0999 V2000
    7.5263  -12.0473   20.8149 C   0  0  0  0  0  0  0  0  0  0  0  0
    8.1255  -12.1400   19.1041 S   0  0  0  0  0  0  0  0  0  0  0  0
    8.4838  -13.8857   18.7226 C   0  0  0  0  0  0  0  0  0  0  0  0
    8.6656  -14.6783   19.9988 C   0  0  0  0  0  0  0  0  0  0  0  0
    8.9875  -16.1085   19.6310 C   0  0  2  0  0  0  0  0  0  0  0  0
    7.8373  -16.6417   18.9332 N   0  0  0  0  0  0  0  0  0  0  0  0
    9.2454  -16.9454   20.8205 C   0  0  0  0  0  0  0  0  0  0  0  0
    8.2769  -17.3273   21.5177 O   0  0  0  0  0  0  0  0  0  0  0  0
   13.1348  -17.9812   21.8176 O   0  0  0  0  0  0  0  0  0  0  0  0
   12.1186  -18.8419   22.2094 C   0  0  0  0  0  0  0  0  0  0  0  0
   10.8294  -18.0506   22.4603 C   0  0  2  0  0  0  0  0  0  0  0  0
   10.5387  -17.3531   21.2341 N   0  0  0  0  0  0  0  0  0  0  0  0
   11.1507  -17.0952   23.5733 C   0  0  0  0  0  0  0  0  0  0  0  0
   11.6692  -15.9739   23.3473 O   0  0  0  0  0  0  0  0  0  0  0  0
   10.8846  -17.4113   24.9346 N   0  0  0  0  0  0  0  0  0  0  0  0
   11.1337  -16.4703   26.0201 C   0  0  1  0  0  0  0  0  0  0  0  0
    9.9031  -15.6149   26.1878 C   0  0  0  0  0  0  0  0  0  0  0  0
   10.0542  -14.6252   27.3072 C   0  0  0  0  0  0  0  0  0  0  0  0
    8.8723  -13.7798   27.5548 C   0  0  0  0  0  0  0  0  0  0  0  0
    7.7588  -13.9110   26.9981 O   0  0  0  0  0  0  0  0  0  0  0  0
   11.4488  -17.1655   27.2822 C   0  0  0  0  0  0  0  0  0  0  0  0
   11.0343  -18.3337   27.4542 O   0  0  0  0  0  0  0  0  0  0  0  0
    8.9649  -12.7406   28.4770 O   0  0  0  0  0  0  0  0  0  0  0  0
   12.1879  -16.5677   28.2820 O   0  0  0  0  0  0  0  0  0  0  0  0
  1  2  1  0
  3  2  1  0
  4  3  1  0
  5  7  1  0
  5  4  1  0
  5  6  1  1
  7 12  1  0
  7  8  2  0
 10  9  1  0
 11 10  1  6
 11 13  1  0
 12 11  1  0
 13 15  1  0
 13 14  2  0
 15 16  1  0
 16 21  1  0
 16 17  1  1
 18 17  1  0
 19 18  1  0
 20 19  2  0
 21 22  2  0
 21 24  1  0
 23 19  1  0
M  END
$$$$
