MSE.pdb
     RDKit          3D

 24 23  0  0  1  0  0  0  0  0999 V2000
    6.9240  -11.3150   27.8020 C   0  0  0  0  0  0  0  0  0  0  0  0
    5.9205  -11.1570   26.2979 S   0  0  0  0  0  0  0  0  0  0  0  0
    5.5187  -12.8330   25.7055 C   0  0  0  0  0  0  0  0  0  0  0  0
    6.7780  -13.5616   25.2893 C   0  0  0  0  0  0  0  0  0  0  0  0
    6.3941  -14.9419   24.8081 C   0  0  2  0  0  0  0  0  0  0  0  0
    5.9290  -15.6843   25.9599 N   0  0  0  0  0  0  0  0  0  0  0  0
    7.5380  -15.6634   24.2143 C   0  0  0  0  0  0  0  0  0  0  0  0
    8.2847  -16.3393   24.9597 O   0  0  0  0  0  0  0  0  0  0  0  0
    8.8499  -14.5557   20.6465 O   0  0  0  0  0  0  0  0  0  0  0  0
    8.9728  -15.9344   20.7523 C   0  0  0  0  0  0  0  0  0  0  0  0
    8.9529  -16.3505   22.2280 C   0  0  2  0  0  0  0  0  0  0  0  0
    7.8540  -15.6422   22.8324 N   0  0  0  0  0  0  0  0  0  0  0  0
   10.2712  -15.9049   22.7923 C   0  0  0  0  0  0  0  0  0  0  0  0
   10.5696  -14.6882   22.8820 O   0  0  0  0  0  0  0  0  0  0  0  0
   11.2443  -16.8351   23.2520 N   0  0  0  0  0  0  0  0  0  0  0  0
   12.5052  -16.4167   23.8528 C   0  0  1  0  0  0  0  0  0  0  0  0
   12.7943  -17.3318   25.0160 C   0  0  0  0  0  0  0  0  0  0  0  0
   11.7336  -17.2468   26.0758 C   0  0  0  0  0  0  0  0  0  0  0  0
   11.8609  -18.2321   27.1649 C   0  0  0  0  0  0  0  0  0  0  0  0
   12.6792  -19.1790   27.1924 O   0  0  0  0  0  0  0  0  0  0  0  0
   13.6132  -16.4606   22.8803 C   0  0  0  0  0  0  0  0  0  0  0  0
   14.7406  -16.0382   23.2216 O   0  0  0  0  0  0  0  0  0  0  0  0
   11.0189  -18.1324   28.2693 O   0  0  0  0  0  0  0  0  0  0  0  0
   13.4462  -16.9537   21.6027 O   0  0  0  0  0  0  0  0  0  0  0  0
  1  2  1  0
  3  2  1  0
  4  3  1  0
  5  7  1  0
  5  4  1  0
  5  6  1  1
  7 12  1  0
  7  8  2  0
 10  9  1  0
 11 10  1  6
 11 13  1  0
 12 11  1  0
 13 15  1  0
 13 14  2  0
 15 16  1  0
 16 21  1  0
 16 17  1  1
 18 17  1  0
 19 18  1  0
 20 19  2  0
 21 22  2  0
 21 24  1  0
 23 19  1  0
M  END
$$$$
