MSE.pdb
     RDKit          3D

 24 23  0  0  1  0  0  0  0  0999 V2000
    5.7789  -11.1096   27.7679 C   0  0  0  0  0  0  0  0  0  0  0  0
    7.1443  -12.1907   27.2572 S   0  0  0  0  0  0  0  0  0  0  0  0
    6.4742  -13.4570   26.1308 C   0  0  0  0  0  0  0  0  0  0  0  0
    7.5826  -14.3566   25.6287 C   0  0  0  0  0  0  0  0  0  0  0  0
    6.9959  -15.3231   24.6258 C   0  0  2  0  0  0  0  0  0  0  0  0
    6.0817  -16.1849   25.3440 N   0  0  0  0  0  0  0  0  0  0  0  0
    8.0311  -16.1623   23.9889 C   0  0  0  0  0  0  0  0  0  0  0  0
    8.4117  -17.2052   24.5701 O   0  0  0  0  0  0  0  0  0  0  0  0
   10.2563  -14.6288   20.9653 O   0  0  0  0  0  0  0  0  0  0  0  0
    9.9658  -15.9725   20.7722 C   0  0  0  0  0  0  0  0  0  0  0  0
    9.6716  -16.6437   22.1190 C   0  0  2  0  0  0  0  0  0  0  0  0
    8.6343  -15.8620   22.7416 N   0  0  0  0  0  0  0  0  0  0  0  0
   10.9547  -16.5729   22.8958 C   0  0  0  0  0  0  0  0  0  0  0  0
   11.3526  -15.4985   23.4102 O   0  0  0  0  0  0  0  0  0  0  0  0
   11.7806  -17.7151   23.0874 N   0  0  0  0  0  0  0  0  0  0  0  0
   13.0406  -17.6566   23.8188 C   0  0  1  0  0  0  0  0  0  0  0  0
   13.0609  -18.7969   24.8055 C   0  0  0  0  0  0  0  0  0  0  0  0
   12.0983  -18.5785   25.9374 C   0  0  0  0  0  0  0  0  0  0  0  0
   12.0557  -19.6617   26.9364 C   0  0  0  0  0  0  0  0  0  0  0  0
   13.0552  -20.2343   27.4264 O   0  0  0  0  0  0  0  0  0  0  0  0
   14.2011  -17.7440   22.9127 C   0  0  0  0  0  0  0  0  0  0  0  0
   15.3542  -17.6411   23.3878 O   0  0  0  0  0  0  0  0  0  0  0  0
   10.8201  -20.1103   27.3957 O   0  0  0  0  0  0  0  0  0  0  0  0
   14.0559  -17.9362   21.5543 O   0  0  0  0  0  0  0  0  0  0  0  0
  1  2  1  0
  3  2  1  0
  4  3  1  0
  5  7  1  0
  5  4  1  0
  5  6  1  1
  7 12  1  0
  7  8  2  0
 10  9  1  0
 11 10  1  6
 11 13  1  0
 12 11  1  0
 13 15  1  0
 13 14  2  0
 15 16  1  0
 16 21  1  0
 16 17  1  1
 18 17  1  0
 19 18  1  0
 20 19  2  0
 21 22  2  0
 21 24  1  0
 23 19  1  0
M  END
$$$$
