MSE.pdb
     RDKit          3D

 24 23  0  0  1  0  0  0  0  0999 V2000
    7.1030  -11.3891   26.1376 C   0  0  0  0  0  0  0  0  0  0  0  0
    7.0369  -12.6987   27.3925 S   0  0  0  0  0  0  0  0  0  0  0  0
    6.9026  -14.3006   26.5338 C   0  0  0  0  0  0  0  0  0  0  0  0
    6.0000  -14.1777   25.3255 C   0  0  0  0  0  0  0  0  0  0  0  0
    5.8299  -15.5496   24.7148 C   0  0  2  0  0  0  0  0  0  0  0  0
    5.5156  -16.4632   25.7923 N   0  0  0  0  0  0  0  0  0  0  0  0
    7.0601  -16.0181   24.0450 C   0  0  0  0  0  0  0  0  0  0  0  0
    7.8018  -16.8363   24.6371 O   0  0  0  0  0  0  0  0  0  0  0  0
    9.0639  -13.9272   21.1376 O   0  0  0  0  0  0  0  0  0  0  0  0
    8.7572  -15.2350   20.7876 C   0  0  0  0  0  0  0  0  0  0  0  0
    8.6184  -16.0961   22.0487 C   0  0  2  0  0  0  0  0  0  0  0  0
    7.4658  -15.5968   22.7536 N   0  0  0  0  0  0  0  0  0  0  0  0
    9.8804  -15.8742   22.8316 C   0  0  0  0  0  0  0  0  0  0  0  0
   10.0944  -14.7972   23.4412 O   0  0  0  0  0  0  0  0  0  0  0  0
   10.8930  -16.8693   22.9219 N   0  0  0  0  0  0  0  0  0  0  0  0
   12.0624  -16.7211   23.7800 C   0  0  1  0  0  0  0  0  0  0  0  0
   12.1487  -17.9386   24.6656 C   0  0  0  0  0  0  0  0  0  0  0  0
   12.5131  -17.5820   26.0782 C   0  0  0  0  0  0  0  0  0  0  0  0
   11.7391  -18.2848   27.1174 C   0  0  0  0  0  0  0  0  0  0  0  0
   10.8734  -19.1637   26.9051 O   0  0  0  0  0  0  0  0  0  0  0  0
   13.3007  -16.5729   22.9925 C   0  0  0  0  0  0  0  0  0  0  0  0
   13.2766  -16.8227   21.7666 O   0  0  0  0  0  0  0  0  0  0  0  0
   11.9624  -17.9713   28.4556 O   0  0  0  0  0  0  0  0  0  0  0  0
   14.4880  -16.1666   23.5656 O   0  0  0  0  0  0  0  0  0  0  0  0
  1  2  1  0
  3  2  1  0
  4  3  1  0
  5  7  1  0
  5  4  1  0
  5  6  1  1
  7 12  1  0
  7  8  2  0
 10  9  1  0
 11 10  1  6
 11 13  1  0
 12 11  1  0
 13 15  1  0
 13 14  2  0
 15 16  1  0
 16 21  1  0
 16 17  1  1
 18 17  1  0
 19 18  1  0
 20 19  2  0
 21 22  2  0
 21 24  1  0
 23 19  1  0
M  END
$$$$
