MSE.pdb
     RDKit          3D

 24 23  0  0  1  0  0  0  0  0999 V2000
    6.6318  -10.9379   26.0099 C   0  0  0  0  0  0  0  0  0  0  0  0
    5.5789  -11.7861   27.2208 S   0  0  0  0  0  0  0  0  0  0  0  0
    5.4016  -13.5234   26.6995 C   0  0  0  0  0  0  0  0  0  0  0  0
    6.5249  -13.9106   25.7625 C   0  0  0  0  0  0  0  0  0  0  0  0
    6.2240  -15.2790   25.1958 C   0  0  2  0  0  0  0  0  0  0  0  0
    6.2835  -16.2207   26.2931 N   0  0  0  0  0  0  0  0  0  0  0  0
    7.2074  -15.6871   24.1721 C   0  0  0  0  0  0  0  0  0  0  0  0
    8.1113  -16.4966   24.4849 O   0  0  0  0  0  0  0  0  0  0  0  0
    8.6354  -15.0887   19.5318 O   0  0  0  0  0  0  0  0  0  0  0  0
    7.8651  -14.6842   20.6135 C   0  0  0  0  0  0  0  0  0  0  0  0
    8.1728  -15.5613   21.8330 C   0  0  2  0  0  0  0  0  0  0  0  0
    7.1976  -15.2159   22.8351 N   0  0  0  0  0  0  0  0  0  0  0  0
    9.5609  -15.1838   22.2636 C   0  0  0  0  0  0  0  0  0  0  0  0
    9.7657  -14.2399   23.0663 O   0  0  0  0  0  0  0  0  0  0  0  0
   10.7093  -15.8741   21.7856 N   0  0  0  0  0  0  0  0  0  0  0  0
   11.8675  -16.1449   22.6288 C   0  0  1  0  0  0  0  0  0  0  0  0
   11.4263  -17.0504   23.7511 C   0  0  0  0  0  0  0  0  0  0  0  0
   12.5764  -17.4694   24.6212 C   0  0  0  0  0  0  0  0  0  0  0  0
   12.2257  -18.3938   25.7146 C   0  0  0  0  0  0  0  0  0  0  0  0
   11.0859  -18.8663   25.9256 O   0  0  0  0  0  0  0  0  0  0  0  0
   12.9621  -16.7732   21.8655 C   0  0  0  0  0  0  0  0  0  0  0  0
   14.1358  -16.3787   22.0467 O   0  0  0  0  0  0  0  0  0  0  0  0
   13.2178  -18.7961   26.6049 O   0  0  0  0  0  0  0  0  0  0  0  0
   12.7331  -17.7845   20.9556 O   0  0  0  0  0  0  0  0  0  0  0  0
  1  2  1  0
  3  2  1  0
  4  3  1  0
  5  7  1  0
  5  4  1  0
  5  6  1  1
  7 12  1  0
  7  8  2  0
 10  9  1  0
 11 10  1  6
 11 13  1  0
 12 11  1  0
 13 15  1  0
 13 14  2  0
 15 16  1  0
 16 21  1  0
 16 17  1  1
 18 17  1  0
 19 18  1  0
 20 19  2  0
 21 22  2  0
 21 24  1  0
 23 19  1  0
M  END
$$$$
