CYI.pdb
     RDKit          3D

 27 27  0  0  1  0  0  0  0  0999 V2000
   28.1379  -18.1569  -17.1125 N   0  0  0  0  0  0  0  0  0  0  0  0
   27.9200  -19.5248  -16.6058 C   0  0  1  0  0  0  0  0  0  0  0  0
   29.2379  -20.0190  -16.0853 C   0  0  0  0  0  0  0  0  0  0  0  0
   29.6711  -19.3654  -14.4712 S   0  0  0  0  0  0  0  0  0  0  0  0
   26.8839  -19.3851  -15.5669 C   0  0  0  0  0  0  0  0  0  0  0  0
   26.6710  -18.2611  -14.9851 O   0  0  0  0  0  0  0  0  0  0  0  0
   19.3439  -19.9634  -11.1244 O   0  0  0  0  0  0  0  0  0  0  0  0
   20.4295  -20.1596  -11.9878 C   0  0  0  0  0  0  0  0  0  0  0  0
   20.8147  -19.1901  -12.9063 C   0  0  0  0  0  0  0  0  0  0  0  0
   21.8816  -19.3657  -13.7648 C   0  0  0  0  0  0  0  0  0  0  0  0
   22.5983  -20.5664  -13.7036 C   0  0  0  0  0  0  0  0  0  0  0  0
   23.7155  -20.7401  -14.6181 C   0  0  0  0  0  0  0  0  0  0  0  0
   25.0496  -20.2441  -14.1125 C   0  0  2  0  0  0  0  0  0  0  0  0
   26.0570  -20.4433  -15.1377 N   0  0  0  0  0  0  0  0  0  0  0  0
   25.4898  -20.8715  -12.8567 C   0  0  0  0  0  0  0  0  0  0  0  0
   26.0471  -22.0319  -12.8543 O   0  0  0  0  0  0  0  0  0  0  0  0
   22.2370  -21.5423  -12.8033 C   0  0  0  0  0  0  0  0  0  0  0  0
   21.1648  -21.3476  -11.9511 C   0  0  0  0  0  0  0  0  0  0  0  0
   28.2574  -20.1267   -7.4654 C   0  0  0  0  0  0  0  0  0  0  0  0
   27.2614  -20.8646   -8.2918 C   0  0  0  0  0  0  0  0  0  0  0  0
   26.8132  -20.1783   -9.5446 C   0  0  2  0  0  0  0  0  0  0  0  0
   26.0198  -18.9422   -9.0784 C   0  0  0  0  0  0  0  0  0  0  0  0
   25.8347  -20.9855  -10.3534 C   0  0  2  0  0  0  0  0  0  0  0  0
   25.3683  -20.3217  -11.5545 N   0  0  0  0  0  0  0  0  0  0  0  0
   24.6479  -21.2201   -9.5027 C   0  0  0  0  0  0  0  0  0  0  0  0
   24.7647  -21.9189   -8.4802 O   0  0  0  0  0  0  0  0  0  0  0  0
   23.4313  -20.6778   -9.8300 O   0  0  0  0  0  0  0  0  0  0  0  0
  2  1  1  1
  2  3  1  0
  3  4  1  0
  5  2  1  0
  6  5  2  0
  8  7  1  0
  8 18  2  0
  9  8  1  0
 10  9  2  0
 10 11  1  0
 11 17  2  0
 12 11  1  0
 13 12  1  6
 13 14  1  0
 14  5  1  0
 15 24  1  0
 15 13  1  0
 16 15  2  0
 17 18  1  0
 20 19  1  0
 21 20  1  0
 21 22  1  1
 23 21  1  0
 23 24  1  6
 25 23  1  0
 25 27  1  0
 26 25  2  0
M  END
$$$$
