CYI.pdb
     RDKit          3D

 27 27  0  0  1  0  0  0  0  0999 V2000
   27.1298  -20.0590  -15.3458 N   0  0  0  0  0  0  0  0  0  0  0  0
   27.7512  -20.6078  -14.1259 C   0  0  1  0  0  0  0  0  0  0  0  0
   29.1410  -20.0473  -14.0469 C   0  0  0  0  0  0  0  0  0  0  0  0
   30.0806  -20.6350  -12.6354 S   0  0  0  0  0  0  0  0  0  0  0  0
   26.8717  -20.1772  -13.0243 C   0  0  0  0  0  0  0  0  0  0  0  0
   26.5562  -18.9432  -12.8671 O   0  0  0  0  0  0  0  0  0  0  0  0
   21.4912  -18.5830  -15.6815 O   0  0  0  0  0  0  0  0  0  0  0  0
   22.1218  -19.1829  -14.5836 C   0  0  0  0  0  0  0  0  0  0  0  0
   22.9420  -20.2951  -14.7324 C   0  0  0  0  0  0  0  0  0  0  0  0
   23.5715  -20.8993  -13.6625 C   0  0  0  0  0  0  0  0  0  0  0  0
   23.3730  -20.3680  -12.3829 C   0  0  0  0  0  0  0  0  0  0  0  0
   24.0372  -21.0185  -11.2647 C   0  0  0  0  0  0  0  0  0  0  0  0
   25.4585  -20.5758  -11.0090 C   0  0  2  0  0  0  0  0  0  0  0  0
   26.3129  -21.0596  -12.0773 N   0  0  0  0  0  0  0  0  0  0  0  0
   25.9991  -21.0041   -9.7095 C   0  0  0  0  0  0  0  0  0  0  0  0
   26.3763  -22.2196   -9.5158 O   0  0  0  0  0  0  0  0  0  0  0  0
   22.5655  -19.2675  -12.2088 C   0  0  0  0  0  0  0  0  0  0  0  0
   21.9433  -18.6759  -13.2936 C   0  0  0  0  0  0  0  0  0  0  0  0
   29.1230  -18.0019   -6.0577 C   0  0  0  0  0  0  0  0  0  0  0  0
   28.5434  -19.1244   -6.8474 C   0  0  0  0  0  0  0  0  0  0  0  0
   27.2153  -19.6349   -6.3817 C   0  0  2  0  0  0  0  0  0  0  0  0
   27.4932  -20.3566   -5.0488 C   0  0  0  0  0  0  0  0  0  0  0  0
   26.6302  -20.6904   -7.2801 C   0  0  2  0  0  0  0  0  0  0  0  0
   26.1685  -20.1903   -8.5599 N   0  0  0  0  0  0  0  0  0  0  0  0
   25.4514  -21.2541   -6.5875 C   0  0  0  0  0  0  0  0  0  0  0  0
   24.3243  -20.7895   -6.8352 O   0  0  0  0  0  0  0  0  0  0  0  0
   25.5907  -22.2757   -5.6829 O   0  0  0  0  0  0  0  0  0  0  0  0
  2  1  1  6
  2  3  1  0
  3  4  1  0
  5  2  1  0
  6  5  2  0
  8  7  1  0
  8 18  2  0
  9  8  1  0
 10  9  2  0
 10 11  1  0
 11 17  2  0
 12 11  1  0
 13 12  1  6
 13 14  1  0
 14  5  1  0
 15 24  1  0
 15 13  1  0
 16 15  2  0
 17 18  1  0
 20 19  1  0
 21 20  1  0
 21 22  1  1
 23 21  1  0
 23 24  1  6
 25 23  1  0
 25 27  1  0
 26 25  2  0
M  END
$$$$
