CYI.pdb
     RDKit          3D

 27 27  0  0  1  0  0  0  0  0999 V2000
   24.9182  -32.4839  -17.4417 N   0  0  0  0  0  0  0  0  0  0  0  0
   25.3142  -33.4910  -16.4395 C   0  0  1  0  0  0  0  0  0  0  0  0
   26.7441  -33.8523  -16.7166 C   0  0  0  0  0  0  0  0  0  0  0  0
   27.4518  -34.9832  -15.5163 S   0  0  0  0  0  0  0  0  0  0  0  0
   25.1079  -32.8328  -15.1369 C   0  0  0  0  0  0  0  0  0  0  0  0
   25.6636  -31.7089  -14.8628 O   0  0  0  0  0  0  0  0  0  0  0  0
   21.3828  -29.9941   -7.6812 O   0  0  0  0  0  0  0  0  0  0  0  0
   21.7324  -30.5020   -8.9392 C   0  0  0  0  0  0  0  0  0  0  0  0
   21.3094  -31.7568   -9.3617 C   0  0  0  0  0  0  0  0  0  0  0  0
   21.6439  -32.2736  -10.5975 C   0  0  0  0  0  0  0  0  0  0  0  0
   22.4385  -31.5011  -11.4524 C   0  0  0  0  0  0  0  0  0  0  0  0
   22.7882  -32.0608  -12.7482 C   0  0  0  0  0  0  0  0  0  0  0  0
   24.1607  -32.6854  -12.8350 C   0  0  2  0  0  0  0  0  0  0  0  0
   24.3009  -33.3639  -14.1099 N   0  0  0  0  0  0  0  0  0  0  0  0
   24.4689  -33.6188  -11.7403 C   0  0  0  0  0  0  0  0  0  0  0  0
   24.1535  -34.8642  -11.8215 O   0  0  0  0  0  0  0  0  0  0  0  0
   22.8704  -30.2557  -11.0576 C   0  0  0  0  0  0  0  0  0  0  0  0
   22.5246  -29.7550   -9.8152 C   0  0  0  0  0  0  0  0  0  0  0  0
   28.3366  -32.5191   -7.7232 C   0  0  0  0  0  0  0  0  0  0  0  0
   27.5668  -33.2934   -8.7367 C   0  0  0  0  0  0  0  0  0  0  0  0
   26.1927  -33.7236   -8.3265 C   0  0  2  0  0  0  0  0  0  0  0  0
   26.3991  -34.9250   -7.3838 C   0  0  0  0  0  0  0  0  0  0  0  0
   25.3677  -34.2600   -9.4644 C   0  0  2  0  0  0  0  0  0  0  0  0
   25.1147  -33.2978  -10.5185 N   0  0  0  0  0  0  0  0  0  0  0  0
   24.0523  -34.6474   -8.9103 C   0  0  0  0  0  0  0  0  0  0  0  0
   23.0701  -33.9112   -9.1119 O   0  0  0  0  0  0  0  0  0  0  0  0
   23.9093  -35.8015   -8.1829 O   0  0  0  0  0  0  0  0  0  0  0  0
  2  1  1  6
  2  3  1  0
  3  4  1  0
  5  2  1  0
  6  5  2  0
  8  7  1  0
  8 18  2  0
  9  8  1  0
 10  9  2  0
 10 11  1  0
 11 17  2  0
 12 11  1  0
 13 12  1  1
 13 14  1  0
 14  5  1  0
 15 24  1  0
 15 13  1  0
 16 15  2  0
 17 18  1  0
 20 19  1  0
 21 20  1  0
 21 22  1  1
 23 21  1  0
 23 24  1  6
 25 23  1  0
 25 27  1  0
 26 25  2  0
M  END
$$$$
