CYI.pdb
     RDKit          3D

 27 27  0  0  1  0  0  0  0  0999 V2000
   16.9197  -11.7834  -14.8993 N   0  0  0  0  0  0  0  0  0  0  0  0
   16.3325  -10.4306  -14.9226 C   0  0  1  0  0  0  0  0  0  0  0  0
   14.8427  -10.5936  -14.8466 C   0  0  0  0  0  0  0  0  0  0  0  0
   14.0589  -10.8484  -16.4408 S   0  0  0  0  0  0  0  0  0  0  0  0
   16.9165   -9.7423  -13.7574 C   0  0  0  0  0  0  0  0  0  0  0  0
   17.0242  -10.3299  -12.6215 O   0  0  0  0  0  0  0  0  0  0  0  0
   23.4133  -10.5053  -14.8867 O   0  0  0  0  0  0  0  0  0  0  0  0
   22.3903   -9.6614  -14.4348 C   0  0  0  0  0  0  0  0  0  0  0  0
   22.1976   -9.4099  -13.0815 C   0  0  0  0  0  0  0  0  0  0  0  0
   21.1953   -8.5813  -12.6178 C   0  0  0  0  0  0  0  0  0  0  0  0
   20.3447   -7.9749  -13.5494 C   0  0  0  0  0  0  0  0  0  0  0  0
   19.2896   -7.1100  -13.0462 C   0  0  0  0  0  0  0  0  0  0  0  0
   18.0202   -7.8132  -12.6270 C   0  0  2  0  0  0  0  0  0  0  0  0
   17.3983   -8.4177  -13.7902 N   0  0  0  0  0  0  0  0  0  0  0  0
   17.0496   -6.9470  -11.9400 C   0  0  0  0  0  0  0  0  0  0  0  0
   16.2044   -6.2395  -12.6050 O   0  0  0  0  0  0  0  0  0  0  0  0
   20.5144   -8.2079  -14.8949 C   0  0  0  0  0  0  0  0  0  0  0  0
   21.5248   -9.0414  -15.3401 C   0  0  0  0  0  0  0  0  0  0  0  0
   12.5947   -6.4266   -8.0317 C   0  0  0  0  0  0  0  0  0  0  0  0
   13.8380   -5.7802   -8.5374 C   0  0  0  0  0  0  0  0  0  0  0  0
   14.7437   -6.6508   -9.3517 C   0  0  2  0  0  0  0  0  0  0  0  0
   15.3416   -7.6682   -8.3606 C   0  0  0  0  0  0  0  0  0  0  0  0
   15.9292   -5.9183   -9.9187 C   0  0  2  0  0  0  0  0  0  0  0  0
   16.9177   -6.7792  -10.5374 N   0  0  0  0  0  0  0  0  0  0  0  0
   16.6005   -5.2302   -8.7949 C   0  0  0  0  0  0  0  0  0  0  0  0
   17.6515   -5.7092   -8.3329 O   0  0  0  0  0  0  0  0  0  0  0  0
   16.0775   -4.0788   -8.2637 O   0  0  0  0  0  0  0  0  0  0  0  0
  2  1  1  1
  2  3  1  0
  3  4  1  0
  5  2  1  0
  6  5  2  0
  8  7  1  0
  8 18  2  0
  9  8  1  0
 10  9  2  0
 10 11  1  0
 11 17  2  0
 12 11  1  0
 13 12  1  6
 13 14  1  0
 14  5  1  0
 15 24  1  0
 15 13  1  0
 16 15  2  0
 17 18  1  0
 20 19  1  0
 21 20  1  0
 21 22  1  1
 23 21  1  0
 23 24  1  1
 25 23  1  0
 25 27  1  0
 26 25  2  0
M  END
$$$$
