CYI.pdb
     RDKit          3D

 27 27  0  0  1  0  0  0  0  0999 V2000
   24.9063  -20.2782  -18.4273 N   0  0  0  0  0  0  0  0  0  0  0  0
   25.3495  -21.3223  -17.4846 C   0  0  1  0  0  0  0  0  0  0  0  0
   26.8408  -21.4300  -17.6129 C   0  0  0  0  0  0  0  0  0  0  0  0
   27.6090  -22.4239  -16.3313 S   0  0  0  0  0  0  0  0  0  0  0  0
   24.8977  -20.8565  -16.1612 C   0  0  0  0  0  0  0  0  0  0  0  0
   24.9757  -19.6196  -15.8278 O   0  0  0  0  0  0  0  0  0  0  0  0
   18.7314  -18.5733  -16.6166 O   0  0  0  0  0  0  0  0  0  0  0  0
   19.6677  -19.3042  -15.8737 C   0  0  0  0  0  0  0  0  0  0  0  0
   20.1133  -20.5532  -16.2899 C   0  0  0  0  0  0  0  0  0  0  0  0
   21.0353  -21.2877  -15.5711 C   0  0  0  0  0  0  0  0  0  0  0  0
   21.5363  -20.7499  -14.3800 C   0  0  0  0  0  0  0  0  0  0  0  0
   22.5018  -21.5375  -13.6302 C   0  0  0  0  0  0  0  0  0  0  0  0
   23.9514  -21.1934  -13.8789 C   0  0  2  0  0  0  0  0  0  0  0  0
   24.3516  -21.7050  -15.1764 N   0  0  0  0  0  0  0  0  0  0  0  0
   24.8745  -21.6871  -12.8453 C   0  0  0  0  0  0  0  0  0  0  0  0
   24.9983  -22.9473  -12.6132 O   0  0  0  0  0  0  0  0  0  0  0  0
   21.1110  -19.5153  -13.9460 C   0  0  0  0  0  0  0  0  0  0  0  0
   20.1864  -18.7944  -14.6803 C   0  0  0  0  0  0  0  0  0  0  0  0
   30.3477  -21.2711  -10.1687 C   0  0  0  0  0  0  0  0  0  0  0  0
   28.8959  -21.5826  -10.0473 C   0  0  0  0  0  0  0  0  0  0  0  0
   28.0251  -21.0881  -11.1602 C   0  0  2  0  0  0  0  0  0  0  0  0
   28.0747  -19.5503  -11.0729 C   0  0  0  0  0  0  0  0  0  0  0  0
   26.5728  -21.4402  -10.9868 C   0  0  2  0  0  0  0  0  0  0  0  0
   25.7040  -20.8945  -12.0108 N   0  0  0  0  0  0  0  0  0  0  0  0
   26.1313  -20.8666   -9.6972 C   0  0  0  0  0  0  0  0  0  0  0  0
   25.5667  -19.7581   -9.6894 O   0  0  0  0  0  0  0  0  0  0  0  0
   26.3381  -21.5416   -8.5211 O   0  0  0  0  0  0  0  0  0  0  0  0
  2  1  1  6
  2  3  1  0
  3  4  1  0
  5  2  1  0
  6  5  2  0
  8  7  1  0
  8 18  2  0
  9  8  1  0
 10  9  2  0
 10 11  1  0
 11 17  2  0
 12 11  1  0
 13 12  1  1
 13 14  1  0
 14  5  1  0
 15 24  1  0
 15 13  1  0
 16 15  2  0
 17 18  1  0
 20 19  1  0
 21 20  1  0
 21 22  1  1
 23 21  1  0
 23 24  1  6
 25 23  1  0
 25 27  1  0
 26 25  2  0
M  END
$$$$
