CYI.pdb
     RDKit          3D

 27 27  0  0  1  0  0  0  0  0999 V2000
   25.4216  -12.8534  -21.2461 N   0  0  0  0  0  0  0  0  0  0  0  0
   24.0330  -13.0457  -20.7874 C   0  0  1  0  0  0  0  0  0  0  0  0
   24.0380  -14.2066  -19.8365 C   0  0  0  0  0  0  0  0  0  0  0  0
   24.2978  -15.7942  -20.6317 S   0  0  0  0  0  0  0  0  0  0  0  0
   23.6583  -11.7648  -20.1618 C   0  0  0  0  0  0  0  0  0  0  0  0
   24.5260  -11.0422  -19.5519 O   0  0  0  0  0  0  0  0  0  0  0  0
   19.0338   -4.4128  -18.2230 O   0  0  0  0  0  0  0  0  0  0  0  0
   19.4817   -5.6386  -18.7323 C   0  0  0  0  0  0  0  0  0  0  0  0
   20.4522   -5.7043  -19.7251 C   0  0  0  0  0  0  0  0  0  0  0  0
   20.9058   -6.9029  -20.2389 C   0  0  0  0  0  0  0  0  0  0  0  0
   20.3649   -8.0926  -19.7379 C   0  0  0  0  0  0  0  0  0  0  0  0
   20.8475   -9.3470  -20.2930 C   0  0  0  0  0  0  0  0  0  0  0  0
   22.0555   -9.9376  -19.6050 C   0  0  2  0  0  0  0  0  0  0  0  0
   22.3518  -11.2352  -20.1827 N   0  0  0  0  0  0  0  0  0  0  0  0
   21.9165  -10.0648  -18.1459 C   0  0  0  0  0  0  0  0  0  0  0  0
   21.2345  -11.0245  -17.6253 O   0  0  0  0  0  0  0  0  0  0  0  0
   19.4026   -8.0546  -18.7550 C   0  0  0  0  0  0  0  0  0  0  0  0
   18.9610   -6.8436  -18.2527 C   0  0  0  0  0  0  0  0  0  0  0  0
   25.5014  -11.2972  -14.7901 C   0  0  0  0  0  0  0  0  0  0  0  0
   24.1888  -10.9794  -15.4191 C   0  0  0  0  0  0  0  0  0  0  0  0
   23.5510   -9.6949  -14.9894 C   0  0  2  0  0  0  0  0  0  0  0  0
   23.0982   -9.9237  -13.5343 C   0  0  0  0  0  0  0  0  0  0  0  0
   22.2895   -9.3706  -15.7422 C   0  0  2  0  0  0  0  0  0  0  0  0
   22.4775   -9.2018  -17.1695 N   0  0  0  0  0  0  0  0  0  0  0  0
   21.7833   -8.0831  -15.2194 C   0  0  0  0  0  0  0  0  0  0  0  0
   21.2221   -8.0591  -14.1095 O   0  0  0  0  0  0  0  0  0  0  0  0
   21.9269   -6.9265  -15.9428 O   0  0  0  0  0  0  0  0  0  0  0  0
  2  1  1  1
  2  3  1  0
  3  4  1  0
  5  2  1  0
  6  5  2  0
  8  7  1  0
  8 18  2  0
  9  8  1  0
 10  9  2  0
 10 11  1  0
 11 17  2  0
 12 11  1  0
 13 12  1  6
 13 14  1  0
 14  5  1  0
 15 24  1  0
 15 13  1  0
 16 15  2  0
 17 18  1  0
 20 19  1  0
 21 20  1  0
 21 22  1  1
 23 21  1  0
 23 24  1  6
 25 23  1  0
 25 27  1  0
 26 25  2  0
M  END
$$$$
