CYI.pdb
     RDKit          3D

 27 27  0  0  1  0  0  0  0  0999 V2000
   26.4156  -19.2997  -15.1822 N   0  0  0  0  0  0  0  0  0  0  0  0
   27.4094  -19.4607  -14.1043 C   0  0  1  0  0  0  0  0  0  0  0  0
   28.3481  -18.2930  -14.1900 C   0  0  0  0  0  0  0  0  0  0  0  0
   29.6028  -18.4633  -15.4617 S   0  0  0  0  0  0  0  0  0  0  0  0
   26.6188  -19.4993  -12.8609 C   0  0  0  0  0  0  0  0  0  0  0  0
   25.8430  -18.5305  -12.5342 O   0  0  0  0  0  0  0  0  0  0  0  0
   20.6688  -19.7339  -14.6124 O   0  0  0  0  0  0  0  0  0  0  0  0
   21.6507  -20.1771  -13.7167 C   0  0  0  0  0  0  0  0  0  0  0  0
   22.6519  -21.0573  -14.1100 C   0  0  0  0  0  0  0  0  0  0  0  0
   23.6277  -21.5046  -13.2416 C   0  0  0  0  0  0  0  0  0  0  0  0
   23.6028  -21.0517  -11.9174 C   0  0  0  0  0  0  0  0  0  0  0  0
   24.6329  -21.5362  -11.0125 C   0  0  0  0  0  0  0  0  0  0  0  0
   25.7869  -20.5902  -10.7787 C   0  0  2  0  0  0  0  0  0  0  0  0
   26.6423  -20.5758  -11.9506 N   0  0  0  0  0  0  0  0  0  0  0  0
   26.5880  -20.8997   -9.5842 C   0  0  0  0  0  0  0  0  0  0  0  0
   27.4989  -21.8089   -9.6132 O   0  0  0  0  0  0  0  0  0  0  0  0
   22.6219  -20.1802  -11.5030 C   0  0  0  0  0  0  0  0  0  0  0  0
   21.6528  -19.7432  -12.3882 C   0  0  0  0  0  0  0  0  0  0  0  0
   29.5950  -19.1548   -4.5569 C   0  0  0  0  0  0  0  0  0  0  0  0
   28.6840  -20.1355   -5.2109 C   0  0  0  0  0  0  0  0  0  0  0  0
   28.0168  -19.6716   -6.4682 C   0  0  2  0  0  0  0  0  0  0  0  0
   27.0101  -18.5909   -6.0285 C   0  0  0  0  0  0  0  0  0  0  0  0
   27.1820  -20.7333   -7.1310 C   0  0  2  0  0  0  0  0  0  0  0  0
   26.4756  -20.2802   -8.3128 N   0  0  0  0  0  0  0  0  0  0  0  0
   26.1572  -21.1612   -6.1544 C   0  0  0  0  0  0  0  0  0  0  0  0
   26.5206  -21.6830   -5.0852 O   0  0  0  0  0  0  0  0  0  0  0  0
   24.8220  -20.9884   -6.4167 O   0  0  0  0  0  0  0  0  0  0  0  0
  2  1  1  6
  2  3  1  0
  3  4  1  0
  5  2  1  0
  6  5  2  0
  8  7  1  0
  8 18  2  0
  9  8  1  0
 10  9  2  0
 10 11  1  0
 11 17  2  0
 12 11  1  0
 13 12  1  6
 13 14  1  0
 14  5  1  0
 15 24  1  0
 15 13  1  0
 16 15  2  0
 17 18  1  0
 20 19  1  0
 21 20  1  0
 21 22  1  1
 23 21  1  0
 23 24  1  6
 25 23  1  0
 25 27  1  0
 26 25  2  0
M  END
$$$$
