CYI.pdb
     RDKit          3D

 27 27  0  0  1  0  0  0  0  0999 V2000
   20.2916  -19.9177  -12.0113 N   0  0  0  0  0  0  0  0  0  0  0  0
   21.1085  -21.0488  -12.4896 C   0  0  1  0  0  0  0  0  0  0  0  0
   20.5700  -21.4466  -13.8327 C   0  0  0  0  0  0  0  0  0  0  0  0
   19.8161  -20.0949  -14.7409 S   0  0  0  0  0  0  0  0  0  0  0  0
   22.4879  -20.5312  -12.5305 C   0  0  0  0  0  0  0  0  0  0  0  0
   22.7256  -19.2707  -12.5722 O   0  0  0  0  0  0  0  0  0  0  0  0
   26.4638  -19.0221   -6.4471 O   0  0  0  0  0  0  0  0  0  0  0  0
   26.2996  -19.6409   -7.6934 C   0  0  0  0  0  0  0  0  0  0  0  0
   25.6575  -20.8671   -7.8192 C   0  0  0  0  0  0  0  0  0  0  0  0
   25.4864  -21.4916   -9.0386 C   0  0  0  0  0  0  0  0  0  0  0  0
   25.9799  -20.8621  -10.1872 C   0  0  0  0  0  0  0  0  0  0  0  0
   25.7983  -21.5345  -11.4637 C   0  0  0  0  0  0  0  0  0  0  0  0
   24.9680  -20.7847  -12.4785 C   0  0  2  0  0  0  0  0  0  0  0  0
   23.6336  -21.3529  -12.5229 N   0  0  0  0  0  0  0  0  0  0  0  0
   25.5434  -20.7648  -13.8323 C   0  0  0  0  0  0  0  0  0  0  0  0
   25.1512  -21.5973  -14.7325 O   0  0  0  0  0  0  0  0  0  0  0  0
   26.6197  -19.6478  -10.0894 C   0  0  0  0  0  0  0  0  0  0  0  0
   26.7813  -19.0377   -8.8584 C   0  0  0  0  0  0  0  0  0  0  0  0
   28.1970  -16.7684  -17.8667 C   0  0  0  0  0  0  0  0  0  0  0  0
   27.8430  -18.1497  -17.4352 C   0  0  0  0  0  0  0  0  0  0  0  0
   27.3292  -18.2868  -16.0358 C   0  0  2  0  0  0  0  0  0  0  0  0
   28.5522  -18.0739  -15.1227 C   0  0  0  0  0  0  0  0  0  0  0  0
   26.8380  -19.6711  -15.7103 C   0  0  2  0  0  0  0  0  0  0  0  0
   26.5485  -19.8825  -14.3058 N   0  0  0  0  0  0  0  0  0  0  0  0
   27.9142  -20.6175  -16.0753 C   0  0  0  0  0  0  0  0  0  0  0  0
   28.1500  -20.8314  -17.2779 O   0  0  0  0  0  0  0  0  0  0  0  0
   28.6470  -21.2547  -15.1067 O   0  0  0  0  0  0  0  0  0  0  0  0
  2  1  1  6
  2  3  1  0
  3  4  1  0
  5  2  1  0
  6  5  2  0
  8  7  1  0
  8 18  2  0
  9  8  1  0
 10  9  2  0
 10 11  1  0
 11 17  2  0
 12 11  1  0
 13 12  1  1
 13 14  1  0
 14  5  1  0
 15 24  1  0
 15 13  1  0
 16 15  2  0
 17 18  1  0
 20 19  1  0
 21 20  1  0
 21 22  1  1
 23 21  1  0
 23 24  1  1
 25 23  1  0
 25 27  1  0
 26 25  2  0
M  END
$$$$
