CYI.pdb
     RDKit          3D

 27 27  0  0  1  0  0  0  0  0999 V2000
   26.1969  -23.5777  -16.3614 N   0  0  0  0  0  0  0  0  0  0  0  0
   26.6715  -22.2423  -15.9528 C   0  0  1  0  0  0  0  0  0  0  0  0
   25.9577  -21.2379  -16.8094 C   0  0  0  0  0  0  0  0  0  0  0  0
   26.4590  -21.2676  -18.5322 S   0  0  0  0  0  0  0  0  0  0  0  0
   26.3423  -22.1438  -14.5195 C   0  0  0  0  0  0  0  0  0  0  0  0
   25.3764  -22.8179  -14.0098 O   0  0  0  0  0  0  0  0  0  0  0  0
   26.8884  -19.8789   -5.8965 O   0  0  0  0  0  0  0  0  0  0  0  0
   27.1184  -20.1000   -7.2606 C   0  0  0  0  0  0  0  0  0  0  0  0
   28.3435  -20.5612   -7.7277 C   0  0  0  0  0  0  0  0  0  0  0  0
   28.5883  -20.7849   -9.0680 C   0  0  0  0  0  0  0  0  0  0  0  0
   27.5612  -20.5363   -9.9858 C   0  0  0  0  0  0  0  0  0  0  0  0
   27.8354  -20.7702  -11.3946 C   0  0  0  0  0  0  0  0  0  0  0  0
   26.6615  -21.2572  -12.2109 C   0  0  2  0  0  0  0  0  0  0  0  0
   27.0434  -21.3269  -13.6090 N   0  0  0  0  0  0  0  0  0  0  0  0
   25.4473  -20.4387  -12.0690 C   0  0  0  0  0  0  0  0  0  0  0  0
   25.4098  -19.2265  -12.5007 O   0  0  0  0  0  0  0  0  0  0  0  0
   26.3391  -20.0790   -9.5488 C   0  0  0  0  0  0  0  0  0  0  0  0
   26.1131  -19.8610   -8.2016 C   0  0  0  0  0  0  0  0  0  0  0  0
   20.4228  -20.0046  -14.6261 C   0  0  0  0  0  0  0  0  0  0  0  0
   21.0252  -19.8288  -13.2749 C   0  0  0  0  0  0  0  0  0  0  0  0
   22.3796  -20.4356  -13.0782 C   0  0  2  0  0  0  0  0  0  0  0  0
   22.1643  -21.9600  -13.1460 C   0  0  0  0  0  0  0  0  0  0  0  0
   22.9560  -20.1853  -11.7112 C   0  0  2  0  0  0  0  0  0  0  0  0
   24.2251  -20.8438  -11.4732 N   0  0  0  0  0  0  0  0  0  0  0  0
   21.9979  -20.7269  -10.7233 C   0  0  0  0  0  0  0  0  0  0  0  0
   20.8297  -20.2994  -10.7157 O   0  0  0  0  0  0  0  0  0  0  0  0
   22.3846  -21.6879   -9.8242 O   0  0  0  0  0  0  0  0  0  0  0  0
  2  1  1  6
  2  3  1  0
  3  4  1  0
  5  2  1  0
  6  5  2  0
  8  7  1  0
  8 18  2  0
  9  8  1  0
 10  9  2  0
 10 11  1  0
 11 17  2  0
 12 11  1  0
 13 12  1  1
 13 14  1  0
 14  5  1  0
 15 24  1  0
 15 13  1  0
 16 15  2  0
 17 18  1  0
 20 19  1  0
 21 20  1  0
 21 22  1  1
 23 21  1  0
 23 24  1  6
 25 23  1  0
 25 27  1  0
 26 25  2  0
M  END
$$$$
