CYI.pdb
     RDKit          3D

 27 27  0  0  1  0  0  0  0  0999 V2000
   29.1599  -21.7984  -17.7879 N   0  0  0  0  0  0  0  0  0  0  0  0
   27.9916  -22.3293  -17.0607 C   0  0  1  0  0  0  0  0  0  0  0  0
   28.3565  -23.7033  -16.5801 C   0  0  0  0  0  0  0  0  0  0  0  0
   27.2021  -24.3845  -15.3869 S   0  0  0  0  0  0  0  0  0  0  0  0
   27.7486  -21.3633  -15.9744 C   0  0  0  0  0  0  0  0  0  0  0  0
   28.7087  -20.6861  -15.4578 O   0  0  0  0  0  0  0  0  0  0  0  0
   19.9436  -21.0123  -15.1071 O   0  0  0  0  0  0  0  0  0  0  0  0
   21.2611  -20.5388  -15.0549 C   0  0  0  0  0  0  0  0  0  0  0  0
   21.7803  -19.9537  -13.9060 C   0  0  0  0  0  0  0  0  0  0  0  0
   23.0759  -19.4817  -13.8361 C   0  0  0  0  0  0  0  0  0  0  0  0
   23.8922  -19.5993  -14.9670 C   0  0  0  0  0  0  0  0  0  0  0  0
   25.2523  -19.0920  -14.8808 C   0  0  0  0  0  0  0  0  0  0  0  0
   26.2861  -20.0870  -14.4091 C   0  0  2  0  0  0  0  0  0  0  0  0
   26.4755  -21.1034  -15.4272 N   0  0  0  0  0  0  0  0  0  0  0  0
   25.9652  -20.7268  -13.1238 C   0  0  0  0  0  0  0  0  0  0  0  0
   25.5421  -21.9416  -13.0745 O   0  0  0  0  0  0  0  0  0  0  0  0
   23.4019  -20.1744  -16.1169 C   0  0  0  0  0  0  0  0  0  0  0  0
   22.1008  -20.6416  -16.1673 C   0  0  0  0  0  0  0  0  0  0  0  0
   26.8227  -20.5358   -6.9049 C   0  0  0  0  0  0  0  0  0  0  0  0
   26.0760  -20.9596   -8.1224 C   0  0  0  0  0  0  0  0  0  0  0  0
   26.5282  -20.3500   -9.4128 C   0  0  2  0  0  0  0  0  0  0  0  0
   26.2126  -18.8464   -9.2937 C   0  0  0  0  0  0  0  0  0  0  0  0
   25.7406  -20.8187  -10.6059 C   0  0  2  0  0  0  0  0  0  0  0  0
   26.0687  -20.1324  -11.8397 N   0  0  0  0  0  0  0  0  0  0  0  0
   24.3143  -20.5451  -10.3271 C   0  0  0  0  0  0  0  0  0  0  0  0
   23.7194  -21.2366   -9.4812 O   0  0  0  0  0  0  0  0  0  0  0  0
   23.6492  -19.5441  -10.9883 O   0  0  0  0  0  0  0  0  0  0  0  0
  2  1  1  6
  2  3  1  0
  3  4  1  0
  5  2  1  0
  6  5  2  0
  8  7  1  0
  8 18  2  0
  9  8  1  0
 10  9  2  0
 10 11  1  0
 11 17  2  0
 12 11  1  0
 13 12  1  6
 13 14  1  0
 14  5  1  0
 15 24  1  0
 15 13  1  0
 16 15  2  0
 17 18  1  0
 20 19  1  0
 21 20  1  0
 21 22  1  1
 23 21  1  0
 23 24  1  6
 25 23  1  0
 25 27  1  0
 26 25  2  0
M  END
$$$$
