CYI.pdb
     RDKit          3D

 27 27  0  0  1  0  0  0  0  0999 V2000
   29.9427  -21.6088  -18.5109 N   0  0  0  0  0  0  0  0  0  0  0  0
   28.8509  -22.5369  -18.1617 C   0  0  1  0  0  0  0  0  0  0  0  0
   29.4569  -23.6513  -17.3600 C   0  0  0  0  0  0  0  0  0  0  0  0
   29.6909  -23.2529  -15.6259 S   0  0  0  0  0  0  0  0  0  0  0  0
   27.8830  -21.7194  -17.4085 C   0  0  0  0  0  0  0  0  0  0  0  0
   28.1238  -20.4900  -17.1296 O   0  0  0  0  0  0  0  0  0  0  0  0
   20.1860  -18.2468  -14.9382 O   0  0  0  0  0  0  0  0  0  0  0  0
   21.2391  -18.9910  -15.4856 C   0  0  0  0  0  0  0  0  0  0  0  0
   22.2826  -18.3813  -16.1720 C   0  0  0  0  0  0  0  0  0  0  0  0
   23.3286  -19.0983  -16.7180 C   0  0  0  0  0  0  0  0  0  0  0  0
   23.3333  -20.4903  -16.5718 C   0  0  0  0  0  0  0  0  0  0  0  0
   24.4379  -21.2329  -17.1574 C   0  0  0  0  0  0  0  0  0  0  0  0
   25.6821  -21.3224  -16.3057 C   0  0  2  0  0  0  0  0  0  0  0  0
   26.6416  -22.2023  -16.9464 N   0  0  0  0  0  0  0  0  0  0  0  0
   25.4382  -21.7748  -14.9273 C   0  0  0  0  0  0  0  0  0  0  0  0
   25.2945  -23.0247  -14.6546 O   0  0  0  0  0  0  0  0  0  0  0  0
   22.3117  -21.1180  -15.8967 C   0  0  0  0  0  0  0  0  0  0  0  0
   21.2722  -20.3822  -15.3566 C   0  0  0  0  0  0  0  0  0  0  0  0
   26.4751  -20.6811   -8.9081 C   0  0  0  0  0  0  0  0  0  0  0  0
   25.6313  -21.2553   -9.9933 C   0  0  0  0  0  0  0  0  0  0  0  0
   25.9702  -20.8207  -11.3853 C   0  0  2  0  0  0  0  0  0  0  0  0
   25.6277  -19.3194  -11.4454 C   0  0  0  0  0  0  0  0  0  0  0  0
   25.1068  -21.4585  -12.4395 C   0  0  2  0  0  0  0  0  0  0  0  0
   25.3322  -20.9498  -13.7779 N   0  0  0  0  0  0  0  0  0  0  0  0
   23.6997  -21.1595  -12.0965 C   0  0  0  0  0  0  0  0  0  0  0  0
   23.1078  -21.8880  -11.2801 O   0  0  0  0  0  0  0  0  0  0  0  0
   23.0490  -20.0951  -12.6666 O   0  0  0  0  0  0  0  0  0  0  0  0
  2  1  1  1
  2  3  1  0
  3  4  1  0
  5  2  1  0
  6  5  2  0
  8  7  1  0
  8 18  2  0
  9  8  1  0
 10  9  2  0
 10 11  1  0
 11 17  2  0
 12 11  1  0
 13 12  1  6
 13 14  1  0
 14  5  1  0
 15 24  1  0
 15 13  1  0
 16 15  2  0
 17 18  1  0
 20 19  1  0
 21 20  1  0
 21 22  1  1
 23 21  1  0
 23 24  1  6
 25 23  1  0
 25 27  1  0
 26 25  2  0
M  END
$$$$
