CYI.pdb
     RDKit          3D

 27 27  0  0  1  0  0  0  0  0999 V2000
   24.7298  -23.0909  -18.5414 N   0  0  0  0  0  0  0  0  0  0  0  0
   25.4113  -23.9325  -17.5400 C   0  0  1  0  0  0  0  0  0  0  0  0
   24.5587  -23.9290  -16.3051 C   0  0  0  0  0  0  0  0  0  0  0  0
   25.4472  -24.3689  -14.8093 S   0  0  0  0  0  0  0  0  0  0  0  0
   25.5334  -25.2567  -18.1758 C   0  0  0  0  0  0  0  0  0  0  0  0
   24.5319  -25.8128  -18.7545 O   0  0  0  0  0  0  0  0  0  0  0  0
   23.3469  -25.8367  -23.9998 O   0  0  0  0  0  0  0  0  0  0  0  0
   24.3179  -26.1926  -23.0546 C   0  0  0  0  0  0  0  0  0  0  0  0
   24.4749  -27.5069  -22.6307 C   0  0  0  0  0  0  0  0  0  0  0  0
   25.4260  -27.8763  -21.7005 C   0  0  0  0  0  0  0  0  0  0  0  0
   26.2602  -26.8865  -21.1681 C   0  0  0  0  0  0  0  0  0  0  0  0
   27.2530  -27.2890  -20.1847 C   0  0  0  0  0  0  0  0  0  0  0  0
   26.7642  -27.3460  -18.7567 C   0  0  2  0  0  0  0  0  0  0  0  0
   26.7286  -26.0039  -18.2063 N   0  0  0  0  0  0  0  0  0  0  0  0
   27.5604  -28.2198  -17.8810 C   0  0  0  0  0  0  0  0  0  0  0  0
   28.5451  -27.7530  -17.1956 O   0  0  0  0  0  0  0  0  0  0  0  0
   26.1248  -25.5778  -21.5712 C   0  0  0  0  0  0  0  0  0  0  0  0
   25.1657  -25.2274  -22.5045 C   0  0  0  0  0  0  0  0  0  0  0  0
   27.5071  -33.0794  -14.0749 C   0  0  0  0  0  0  0  0  0  0  0  0
   28.2323  -32.2332  -15.0635 C   0  0  0  0  0  0  0  0  0  0  0  0
   27.3961  -31.2492  -15.8210 C   0  0  2  0  0  0  0  0  0  0  0  0
   26.4486  -32.0955  -16.6931 C   0  0  0  0  0  0  0  0  0  0  0  0
   28.1841  -30.4186  -16.7969 C   0  0  2  0  0  0  0  0  0  0  0  0
   27.3685  -29.6114  -17.6825 N   0  0  0  0  0  0  0  0  0  0  0  0
   28.9520  -31.3514  -17.6497 C   0  0  0  0  0  0  0  0  0  0  0  0
   28.5781  -31.5493  -18.8196 O   0  0  0  0  0  0  0  0  0  0  0  0
   30.0628  -31.9935  -17.1646 O   0  0  0  0  0  0  0  0  0  0  0  0
  2  1  1  6
  2  3  1  0
  3  4  1  0
  5  2  1  0
  6  5  2  0
  8  7  1  0
  8 18  2  0
  9  8  1  0
 10  9  2  0
 10 11  1  0
 11 17  2  0
 12 11  1  0
 13 12  1  6
 13 14  1  0
 14  5  1  0
 15 24  1  0
 15 13  1  0
 16 15  2  0
 17 18  1  0
 20 19  1  0
 21 20  1  0
 21 22  1  6
 23 21  1  0
 23 24  1  6
 25 23  1  0
 25 27  1  0
 26 25  2  0
M  END
$$$$
