CYI.pdb
     RDKit          3D

 27 27  0  0  1  0  0  0  0  0999 V2000
   17.7648  -15.4539  -17.7190 N   0  0  0  0  0  0  0  0  0  0  0  0
   17.7856  -14.6357  -16.4920 C   0  0  1  0  0  0  0  0  0  0  0  0
   18.7352  -15.2961  -15.5359 C   0  0  0  0  0  0  0  0  0  0  0  0
   18.0381  -16.7139  -14.6848 S   0  0  0  0  0  0  0  0  0  0  0  0
   18.2196  -13.2983  -16.9341 C   0  0  0  0  0  0  0  0  0  0  0  0
   19.0470  -13.1532  -17.9044 O   0  0  0  0  0  0  0  0  0  0  0  0
   14.7713  -11.3677  -22.2183 O   0  0  0  0  0  0  0  0  0  0  0  0
   15.3350  -11.0226  -20.9830 C   0  0  0  0  0  0  0  0  0  0  0  0
   16.3316  -10.0593  -20.8804 C   0  0  0  0  0  0  0  0  0  0  0  0
   16.8986   -9.7063  -19.6720 C   0  0  0  0  0  0  0  0  0  0  0  0
   16.4494  -10.3455  -18.5107 C   0  0  0  0  0  0  0  0  0  0  0  0
   17.0601   -9.9682  -17.2460 C   0  0  0  0  0  0  0  0  0  0  0  0
   18.2421  -10.8074  -16.8216 C   0  0  2  0  0  0  0  0  0  0  0  0
   17.7722  -12.0962  -16.3487 N   0  0  0  0  0  0  0  0  0  0  0  0
   19.0886  -10.1811  -15.7942 C   0  0  0  0  0  0  0  0  0  0  0  0
   18.7244  -10.1550  -14.5597 O   0  0  0  0  0  0  0  0  0  0  0  0
   15.4639  -11.3029  -18.5854 C   0  0  0  0  0  0  0  0  0  0  0  0
   14.9079  -11.6429  -19.8057 C   0  0  0  0  0  0  0  0  0  0  0  0
   24.0412  -11.4935  -14.6630 C   0  0  0  0  0  0  0  0  0  0  0  0
   22.6596  -10.9368  -14.6900 C   0  0  0  0  0  0  0  0  0  0  0  0
   22.5542   -9.4563  -14.8852 C   0  0  2  0  0  0  0  0  0  0  0  0
   23.1396   -8.8271  -13.6061 C   0  0  0  0  0  0  0  0  0  0  0  0
   21.1356   -8.9593  -14.9482 C   0  0  2  0  0  0  0  0  0  0  0  0
   20.3446   -9.5563  -16.0060 N   0  0  0  0  0  0  0  0  0  0  0  0
   21.1896   -7.5063  -15.2188 C   0  0  0  0  0  0  0  0  0  0  0  0
   20.9358   -7.0942  -16.3648 O   0  0  0  0  0  0  0  0  0  0  0  0
   21.5142   -6.6187  -14.2247 O   0  0  0  0  0  0  0  0  0  0  0  0
  2  1  1  6
  2  3  1  0
  3  4  1  0
  5  2  1  0
  6  5  2  0
  8  7  1  0
  8 18  2  0
  9  8  1  0
 10  9  2  0
 10 11  1  0
 11 17  2  0
 12 11  1  0
 13 12  1  1
 13 14  1  0
 14  5  1  0
 15 24  1  0
 15 13  1  0
 16 15  2  0
 17 18  1  0
 20 19  1  0
 21 20  1  0
 21 22  1  1
 23 21  1  0
 23 24  1  6
 25 23  1  0
 25 27  1  0
 26 25  2  0
M  END
$$$$
