CYI.pdb
     RDKit          3D

 27 27  0  0  1  0  0  0  0  0999 V2000
   27.8025  -22.9588  -17.4118 N   0  0  0  0  0  0  0  0  0  0  0  0
   27.7898  -21.5924  -16.8564 C   0  0  1  0  0  0  0  0  0  0  0  0
   27.1228  -20.7091  -17.8698 C   0  0  0  0  0  0  0  0  0  0  0  0
   28.1665  -20.2954  -19.2698 S   0  0  0  0  0  0  0  0  0  0  0  0
   27.0508  -21.7050  -15.5861 C   0  0  0  0  0  0  0  0  0  0  0  0
   26.0998  -22.5546  -15.4416 O   0  0  0  0  0  0  0  0  0  0  0  0
   24.6509  -20.4118   -7.0964 O   0  0  0  0  0  0  0  0  0  0  0  0
   25.3151  -20.4344   -8.3297 C   0  0  0  0  0  0  0  0  0  0  0  0
   25.7798  -19.2695   -8.9287 C   0  0  0  0  0  0  0  0  0  0  0  0
   26.4364  -19.2724  -10.1432 C   0  0  0  0  0  0  0  0  0  0  0  0
   26.6389  -20.4967  -10.7907 C   0  0  0  0  0  0  0  0  0  0  0  0
   27.3262  -20.4838  -12.0722 C   0  0  0  0  0  0  0  0  0  0  0  0
   26.5467  -21.0589  -13.2311 C   0  0  2  0  0  0  0  0  0  0  0  0
   27.3203  -20.9145  -14.4502 N   0  0  0  0  0  0  0  0  0  0  0  0
   25.2142  -20.4636  -13.4164 C   0  0  0  0  0  0  0  0  0  0  0  0
   25.0774  -19.2851  -13.9162 O   0  0  0  0  0  0  0  0  0  0  0  0
   26.1883  -21.6643  -10.2188 C   0  0  0  0  0  0  0  0  0  0  0  0
   25.5325  -21.6408   -9.0010 C   0  0  0  0  0  0  0  0  0  0  0  0
   22.1877  -20.7537  -17.1536 C   0  0  0  0  0  0  0  0  0  0  0  0
   22.7786  -20.3744  -15.8398 C   0  0  0  0  0  0  0  0  0  0  0  0
   22.0388  -20.8491  -14.6278 C   0  0  2  0  0  0  0  0  0  0  0  0
   20.6889  -20.1062  -14.6491 C   0  0  0  0  0  0  0  0  0  0  0  0
   22.6861  -20.4414  -13.3324 C   0  0  2  0  0  0  0  0  0  0  0  0
   23.9717  -21.0654  -13.0897 N   0  0  0  0  0  0  0  0  0  0  0  0
   21.7873  -20.8672  -12.2378 C   0  0  0  0  0  0  0  0  0  0  0  0
   21.7318  -22.0724  -11.9346 O   0  0  0  0  0  0  0  0  0  0  0  0
   21.0221  -19.9516  -11.5614 O   0  0  0  0  0  0  0  0  0  0  0  0
  2  1  1  6
  2  3  1  0
  3  4  1  0
  5  2  1  0
  6  5  2  0
  8  7  1  0
  8 18  2  0
  9  8  1  0
 10  9  2  0
 10 11  1  0
 11 17  2  0
 12 11  1  0
 13 12  1  1
 13 14  1  0
 14  5  1  0
 15 24  1  0
 15 13  1  0
 16 15  2  0
 17 18  1  0
 20 19  1  0
 21 20  1  0
 21 22  1  1
 23 21  1  0
 23 24  1  1
 25 23  1  0
 25 27  1  0
 26 25  2  0
M  END
$$$$
