CYI.pdb
     RDKit          3D

 27 27  0  0  1  0  0  0  0  0999 V2000
   27.7546  -18.9748   -6.4425 N   0  0  0  0  0  0  0  0  0  0  0  0
   27.0037  -20.1717   -6.8656 C   0  0  1  0  0  0  0  0  0  0  0  0
   25.8105  -20.2875   -5.9629 C   0  0  0  0  0  0  0  0  0  0  0  0
   26.2183  -20.7522   -4.2782 S   0  0  0  0  0  0  0  0  0  0  0  0
   26.6606  -19.9259   -8.2778 C   0  0  0  0  0  0  0  0  0  0  0  0
   26.2903  -18.7651   -8.6812 O   0  0  0  0  0  0  0  0  0  0  0  0
   27.6145  -20.0796  -17.0174 O   0  0  0  0  0  0  0  0  0  0  0  0
   27.6447  -20.3349  -15.6402 C   0  0  0  0  0  0  0  0  0  0  0  0
   27.1757  -21.5311  -15.1102 C   0  0  0  0  0  0  0  0  0  0  0  0
   27.1977  -21.8002  -13.7562 C   0  0  0  0  0  0  0  0  0  0  0  0
   27.7124  -20.8288  -12.8898 C   0  0  0  0  0  0  0  0  0  0  0  0
   27.7233  -21.1234  -11.4658 C   0  0  0  0  0  0  0  0  0  0  0  0
   26.5531  -20.5771  -10.6824 C   0  0  2  0  0  0  0  0  0  0  0  0
   26.7125  -20.9157   -9.2805 N   0  0  0  0  0  0  0  0  0  0  0  0
   25.2401  -21.0401  -11.1578 C   0  0  0  0  0  0  0  0  0  0  0  0
   24.7173  -22.1275  -10.7090 O   0  0  0  0  0  0  0  0  0  0  0  0
   28.1827  -19.6361  -13.3894 C   0  0  0  0  0  0  0  0  0  0  0  0
   28.1523  -19.3851  -14.7495 C   0  0  0  0  0  0  0  0  0  0  0  0
   19.6745  -19.1488  -13.1407 C   0  0  0  0  0  0  0  0  0  0  0  0
   20.7396  -20.1888  -13.0836 C   0  0  0  0  0  0  0  0  0  0  0  0
   22.0788  -19.7282  -12.5980 C   0  0  2  0  0  0  0  0  0  0  0  0
   22.6350  -18.8225  -13.7138 C   0  0  0  0  0  0  0  0  0  0  0  0
   23.0830  -20.8404  -12.4639 C   0  0  2  0  0  0  0  0  0  0  0  0
   24.4183  -20.3951  -12.1177 N   0  0  0  0  0  0  0  0  0  0  0  0
   23.1795  -21.5077  -13.7802 C   0  0  0  0  0  0  0  0  0  0  0  0
   24.1371  -21.2379  -14.5269 O   0  0  0  0  0  0  0  0  0  0  0  0
   22.2297  -22.4133  -14.1794 O   0  0  0  0  0  0  0  0  0  0  0  0
  2  1  1  1
  2  3  1  0
  3  4  1  0
  5  2  1  0
  6  5  2  0
  8  7  1  0
  8 18  2  0
  9  8  1  0
 10  9  2  0
 10 11  1  0
 11 17  2  0
 12 11  1  0
 13 12  1  6
 13 14  1  0
 14  5  1  0
 15 24  1  0
 15 13  1  0
 16 15  2  0
 17 18  1  0
 20 19  1  0
 21 20  1  0
 21 22  1  6
 23 21  1  0
 23 24  1  6
 25 23  1  0
 25 27  1  0
 26 25  2  0
M  END
$$$$
