ACM.pdb
     RDKit          3D

 20 19  0  0  1  0  0  0  0  0999 V2000
   17.3209  -12.1201  -18.4962 C   0  0  0  0  0  0  0  0  0  0  0  0
   18.8192  -12.0613  -18.6869 C   0  0  2  0  0  0  0  0  0  0  0  0
   19.3493  -13.4107  -18.7088 N   0  0  0  0  0  0  0  0  0  0  0  0
   19.4026  -11.3015  -17.5415 C   0  0  0  0  0  0  0  0  0  0  0  0
   19.3673  -11.7486  -16.3711 O   0  0  0  0  0  0  0  0  0  0  0  0
   20.0210  -10.0402  -17.7356 N   0  0  0  0  0  0  0  0  0  0  0  0
   20.5154   -9.2478  -16.6277 C   0  0  1  0  0  0  0  0  0  0  0  0
   21.5403   -8.2939  -17.1669 C   0  0  0  0  0  0  0  0  0  0  0  0
   22.0797   -7.1627  -15.8332 S   0  0  0  0  0  0  0  0  0  0  0  0
   19.3689   -8.5440  -15.9928 C   0  0  0  0  0  0  0  0  0  0  0  0
   18.4898   -8.0008  -16.7042 O   0  0  0  0  0  0  0  0  0  0  0  0
   17.0586   -9.2066   -9.8737 C   0  0  0  0  0  0  0  0  0  0  0  0
   15.6751   -8.6230  -10.9032 S   0  0  0  0  0  0  0  0  0  0  0  0
   16.3786   -7.6268  -12.2946 C   0  0  0  0  0  0  0  0  0  0  0  0
   17.4797   -8.4337  -12.9149 C   0  0  0  0  0  0  0  0  0  0  0  0
   18.1214   -7.6903  -14.0381 C   0  0  2  0  0  0  0  0  0  0  0  0
   19.2430   -8.4707  -14.5877 N   0  0  0  0  0  0  0  0  0  0  0  0
   18.6688   -6.3908  -13.6315 C   0  0  0  0  0  0  0  0  0  0  0  0
   19.8827   -6.2533  -13.3925 O   0  0  0  0  0  0  0  0  0  0  0  0
   17.8342   -5.2927  -13.5079 O   0  0  0  0  0  0  0  0  0  0  0  0
  2  1  1  1
  2  3  1  0
  4  2  1  0
  4  5  2  0
  6  4  1  0
  7  6  1  0
  7 10  1  0
  7  8  1  6
  9  8  1  0
 10 17  1  0
 11 10  2  0
 13 12  1  0
 13 14  1  0
 14 15  1  0
 16 15  1  1
 16 18  1  0
 17 16  1  0
 18 19  2  0
 18 20  1  0
M  END
$$$$
