ACM.pdb
     RDKit          3D

 20 19  0  0  1  0  0  0  0  0999 V2000
   20.9424  -13.0918  -19.0857 C   0  0  0  0  0  0  0  0  0  0  0  0
   20.7006  -12.7282  -17.6386 C   0  0  2  0  0  0  0  0  0  0  0  0
   19.7630  -13.6715  -17.0613 N   0  0  0  0  0  0  0  0  0  0  0  0
   20.1294  -11.3491  -17.5966 C   0  0  0  0  0  0  0  0  0  0  0  0
   19.1558  -11.0198  -18.3139 O   0  0  0  0  0  0  0  0  0  0  0  0
   20.6694  -10.3562  -16.7402 N   0  0  0  0  0  0  0  0  0  0  0  0
   20.0397   -9.0622  -16.5705 C   0  0  1  0  0  0  0  0  0  0  0  0
   18.9405   -9.2154  -15.5609 C   0  0  0  0  0  0  0  0  0  0  0  0
   19.6495   -9.7777  -13.9701 S   0  0  0  0  0  0  0  0  0  0  0  0
   21.0703   -8.0809  -16.1374 C   0  0  0  0  0  0  0  0  0  0  0  0
   22.1184   -8.4749  -15.5716 O   0  0  0  0  0  0  0  0  0  0  0  0
   24.1945   -0.9099  -16.7671 C   0  0  0  0  0  0  0  0  0  0  0  0
   22.9067   -2.0751  -17.3134 S   0  0  0  0  0  0  0  0  0  0  0  0
   22.9957   -3.5735  -16.2318 C   0  0  0  0  0  0  0  0  0  0  0  0
   21.9855   -4.5575  -16.7411 C   0  0  0  0  0  0  0  0  0  0  0  0
   21.9684   -5.7909  -15.9016 C   0  0  2  0  0  0  0  0  0  0  0  0
   20.8962   -6.6953  -16.3505 N   0  0  0  0  0  0  0  0  0  0  0  0
   21.7251   -5.5181  -14.4804 C   0  0  0  0  0  0  0  0  0  0  0  0
   20.5864   -5.6351  -13.9913 O   0  0  0  0  0  0  0  0  0  0  0  0
   22.7683   -5.1239  -13.6594 O   0  0  0  0  0  0  0  0  0  0  0  0
  2  1  1  6
  2  3  1  0
  4  2  1  0
  4  5  2  0
  6  4  1  0
  7  6  1  0
  7 10  1  0
  7  8  1  1
  9  8  1  0
 10 17  1  0
 11 10  2  0
 13 12  1  0
 13 14  1  0
 14 15  1  0
 16 15  1  6
 16 18  1  0
 17 16  1  0
 18 19  2  0
 18 20  1  0
M  END
$$$$
