ACM.pdb
     RDKit          3D

 20 19  0  0  1  0  0  0  0  0999 V2000
   28.0032  -19.1908  -16.6606 C   0  0  0  0  0  0  0  0  0  0  0  0
   28.2301  -19.9991  -15.4037 C   0  0  2  0  0  0  0  0  0  0  0  0
   27.9659  -21.3971  -15.6828 N   0  0  0  0  0  0  0  0  0  0  0  0
   27.2899  -19.5005  -14.3562 C   0  0  0  0  0  0  0  0  0  0  0  0
   27.3202  -18.3121  -13.9589 O   0  0  0  0  0  0  0  0  0  0  0  0
   26.3236  -20.3563  -13.7690 N   0  0  0  0  0  0  0  0  0  0  0  0
   25.4318  -19.9037  -12.7205 C   0  0  1  0  0  0  0  0  0  0  0  0
   24.0358  -20.2992  -13.1026 C   0  0  0  0  0  0  0  0  0  0  0  0
   22.9246  -20.0730  -11.6662 S   0  0  0  0  0  0  0  0  0  0  0  0
   25.8580  -20.5138  -11.4325 C   0  0  0  0  0  0  0  0  0  0  0  0
   25.9902  -21.7577  -11.3367 O   0  0  0  0  0  0  0  0  0  0  0  0
   28.4466  -19.6665   -4.0427 C   0  0  0  0  0  0  0  0  0  0  0  0
   28.1283  -18.8735   -5.6502 S   0  0  0  0  0  0  0  0  0  0  0  0
   27.2721  -20.1039   -6.7349 C   0  0  0  0  0  0  0  0  0  0  0  0
   27.0838  -19.4659   -8.0786 C   0  0  0  0  0  0  0  0  0  0  0  0
   26.4136  -20.4025   -9.0272 C   0  0  2  0  0  0  0  0  0  0  0  0
   26.1220  -19.7158  -10.2971 N   0  0  0  0  0  0  0  0  0  0  0  0
   25.1364  -20.9192   -8.5221 C   0  0  0  0  0  0  0  0  0  0  0  0
   25.0845  -21.9866   -7.8837 O   0  0  0  0  0  0  0  0  0  0  0  0
   23.9636  -20.2195   -8.7517 O   0  0  0  0  0  0  0  0  0  0  0  0
  2  1  1  6
  2  3  1  0
  4  2  1  0
  4  5  2  0
  6  4  1  0
  7  6  1  0
  7 10  1  0
  7  8  1  6
  9  8  1  0
 10 17  1  0
 11 10  2  0
 13 12  1  0
 13 14  1  0
 14 15  1  0
 16 15  1  1
 16 18  1  0
 17 16  1  0
 18 19  2  0
 18 20  1  0
M  END
$$$$
