ACM.pdb
     RDKit          3D

 20 19  0  0  1  0  0  0  0  0999 V2000
   16.5903  -13.6870  -15.1692 C   0  0  0  0  0  0  0  0  0  0  0  0
   17.6347  -12.8024  -15.8105 C   0  0  2  0  0  0  0  0  0  0  0  0
   18.8496  -13.5683  -16.0097 N   0  0  0  0  0  0  0  0  0  0  0  0
   17.8984  -11.6556  -14.8912 C   0  0  0  0  0  0  0  0  0  0  0  0
   18.3401  -11.8320  -13.7316 O   0  0  0  0  0  0  0  0  0  0  0  0
   17.6580  -10.3184  -15.2974 N   0  0  0  0  0  0  0  0  0  0  0  0
   17.8875   -9.1934  -14.4133 C   0  0  1  0  0  0  0  0  0  0  0  0
   18.4735   -8.0797  -15.2302 C   0  0  0  0  0  0  0  0  0  0  0  0
   18.6556   -6.5888  -14.1845 S   0  0  0  0  0  0  0  0  0  0  0  0
   16.5970   -8.8099  -13.7808 C   0  0  0  0  0  0  0  0  0  0  0  0
   15.5474   -8.7631  -14.4666 O   0  0  0  0  0  0  0  0  0  0  0  0
   11.8507   -8.6709   -7.6447 C   0  0  0  0  0  0  0  0  0  0  0  0
   13.4905   -9.0985   -8.3100 S   0  0  0  0  0  0  0  0  0  0  0  0
   13.6818   -8.2542   -9.9452 C   0  0  0  0  0  0  0  0  0  0  0  0
   15.0019   -8.6753  -10.5181 C   0  0  0  0  0  0  0  0  0  0  0  0
   15.2160   -8.0759  -11.8676 C   0  0  2  0  0  0  0  0  0  0  0  0
   16.5219   -8.4925  -12.4063 N   0  0  0  0  0  0  0  0  0  0  0  0
   15.2120   -6.6085  -11.8543 C   0  0  0  0  0  0  0  0  0  0  0  0
   16.2607   -5.9632  -12.0368 O   0  0  0  0  0  0  0  0  0  0  0  0
   14.0313   -5.9183  -11.6366 O   0  0  0  0  0  0  0  0  0  0  0  0
  2  1  1  1
  2  3  1  0
  4  2  1  0
  4  5  2  0
  6  4  1  0
  7  6  1  0
  7 10  1  0
  7  8  1  6
  9  8  1  0
 10 17  1  0
 11 10  2  0
 13 12  1  0
 13 14  1  0
 14 15  1  0
 16 15  1  1
 16 18  1  0
 17 16  1  0
 18 19  2  0
 18 20  1  0
M  END
$$$$
