ACM.pdb
     RDKit          3D

 20 19  0  0  1  0  0  0  0  0999 V2000
   15.3079  -11.4017  -14.7907 C   0  0  0  0  0  0  0  0  0  0  0  0
   16.7110  -10.8600  -14.9414 C   0  0  2  0  0  0  0  0  0  0  0  0
   17.5769  -11.9127  -15.4357 N   0  0  0  0  0  0  0  0  0  0  0  0
   17.1777  -10.4024  -13.5988 C   0  0  0  0  0  0  0  0  0  0  0  0
   17.4422  -11.2166  -12.6833 O   0  0  0  0  0  0  0  0  0  0  0  0
   17.3398   -9.0240  -13.3080 N   0  0  0  0  0  0  0  0  0  0  0  0
   17.8017   -8.5603  -12.0152 C   0  0  1  0  0  0  0  0  0  0  0  0
   19.0212   -7.7155  -12.2393 C   0  0  0  0  0  0  0  0  0  0  0  0
   18.5886   -6.2939  -13.3076 S   0  0  0  0  0  0  0  0  0  0  0  0
   16.7036   -7.8021  -11.3578 C   0  0  0  0  0  0  0  0  0  0  0  0
   15.9117   -7.1142  -12.0461 O   0  0  0  0  0  0  0  0  0  0  0  0
   11.3093   -7.0005   -5.8866 C   0  0  0  0  0  0  0  0  0  0  0  0
   12.4459   -8.0454   -6.8514 S   0  0  0  0  0  0  0  0  0  0  0  0
   13.5743   -6.9324   -7.8059 C   0  0  0  0  0  0  0  0  0  0  0  0
   14.5743   -7.8003   -8.5093 C   0  0  0  0  0  0  0  0  0  0  0  0
   15.4762   -6.9855   -9.3746 C   0  0  2  0  0  0  0  0  0  0  0  0
   16.5270   -7.8377   -9.9567 N   0  0  0  0  0  0  0  0  0  0  0  0
   16.1586   -5.9102   -8.6456 C   0  0  0  0  0  0  0  0  0  0  0  0
   17.3258   -6.0532   -8.2373 O   0  0  0  0  0  0  0  0  0  0  0  0
   15.5065   -4.7132   -8.4010 O   0  0  0  0  0  0  0  0  0  0  0  0
  2  1  1  1
  2  3  1  0
  4  2  1  0
  4  5  2  0
  6  4  1  0
  7  6  1  0
  7 10  1  0
  7  8  1  6
  9  8  1  0
 10 17  1  0
 11 10  2  0
 13 12  1  0
 13 14  1  0
 14 15  1  0
 16 15  1  1
 16 18  1  0
 17 16  1  0
 18 19  2  0
 18 20  1  0
M  END
$$$$
