ACM.pdb
     RDKit          3D

 20 19  0  0  1  0  0  0  0  0999 V2000
   19.7752  -11.3239  -15.0652 C   0  0  0  0  0  0  0  0  0  0  0  0
   18.8582  -10.1235  -15.0123 C   0  0  2  0  0  0  0  0  0  0  0  0
   19.3200   -9.1299  -15.9619 N   0  0  0  0  0  0  0  0  0  0  0  0
   18.9032   -9.5667  -13.6274 C   0  0  0  0  0  0  0  0  0  0  0  0
   18.5009  -10.2272  -12.6411 O   0  0  0  0  0  0  0  0  0  0  0  0
   19.4047   -8.2645  -13.3752 N   0  0  0  0  0  0  0  0  0  0  0  0
   19.4932   -7.7211  -12.0348 C   0  0  1  0  0  0  0  0  0  0  0  0
   20.5914   -6.6989  -12.0255 C   0  0  0  0  0  0  0  0  0  0  0  0
   20.1230   -5.2927  -13.0990 S   0  0  0  0  0  0  0  0  0  0  0  0
   18.1758   -7.1366  -11.6668 C   0  0  0  0  0  0  0  0  0  0  0  0
   17.3701   -6.7834  -12.5613 O   0  0  0  0  0  0  0  0  0  0  0  0
   12.1652   -7.0309   -6.7459 C   0  0  0  0  0  0  0  0  0  0  0  0
   13.8158   -7.6761   -7.1627 S   0  0  0  0  0  0  0  0  0  0  0  0
   14.5154   -6.6252   -8.5152 C   0  0  0  0  0  0  0  0  0  0  0  0
   15.8399   -7.2117   -8.9023 C   0  0  0  0  0  0  0  0  0  0  0  0
   16.4508   -6.4551  -10.0339 C   0  0  2  0  0  0  0  0  0  0  0  0
   17.8030   -6.9667  -10.3148 N   0  0  0  0  0  0  0  0  0  0  0  0
   16.5893   -5.0201   -9.7603 C   0  0  0  0  0  0  0  0  0  0  0  0
   17.7043   -4.5161   -9.5313 O   0  0  0  0  0  0  0  0  0  0  0  0
   15.4717   -4.2024   -9.7536 O   0  0  0  0  0  0  0  0  0  0  0  0
  2  1  1  1
  2  3  1  0
  4  2  1  0
  4  5  2  0
  6  4  1  0
  7  6  1  0
  7 10  1  0
  7  8  1  6
  9  8  1  0
 10 17  1  0
 11 10  2  0
 13 12  1  0
 13 14  1  0
 14 15  1  0
 16 15  1  1
 16 18  1  0
 17 16  1  0
 18 19  2  0
 18 20  1  0
M  END
$$$$
