ACM.pdb
     RDKit          3D

 20 19  0  0  1  0  0  0  0  0999 V2000
   18.7789  -13.8786  -15.6809 C   0  0  0  0  0  0  0  0  0  0  0  0
   17.6440  -12.8852  -15.5828 C   0  0  2  0  0  0  0  0  0  0  0  0
   16.5377  -13.3445  -16.3998 N   0  0  0  0  0  0  0  0  0  0  0  0
   18.1368  -11.5676  -16.0838 C   0  0  0  0  0  0  0  0  0  0  0  0
   18.6397  -11.4459  -17.2254 O   0  0  0  0  0  0  0  0  0  0  0  0
   18.0542  -10.3999  -15.2835 N   0  0  0  0  0  0  0  0  0  0  0  0
   18.4887   -9.1047  -15.7665 C   0  0  1  0  0  0  0  0  0  0  0  0
   17.4053   -8.1131  -15.4598 C   0  0  0  0  0  0  0  0  0  0  0  0
   18.0131   -6.4217  -15.8044 S   0  0  0  0  0  0  0  0  0  0  0  0
   19.7759   -8.7549  -15.1080 C   0  0  0  0  0  0  0  0  0  0  0  0
   19.9558   -9.0180  -13.8945 O   0  0  0  0  0  0  0  0  0  0  0  0
   26.0402  -10.9957  -14.8563 C   0  0  0  0  0  0  0  0  0  0  0  0
   25.7443   -9.5533  -15.9269 S   0  0  0  0  0  0  0  0  0  0  0  0
   24.4940   -8.4718  -15.0960 C   0  0  0  0  0  0  0  0  0  0  0  0
   23.1663   -8.7427  -15.7377 C   0  0  0  0  0  0  0  0  0  0  0  0
   22.0950   -7.9019  -15.1281 C   0  0  2  0  0  0  0  0  0  0  0  0
   20.8169   -8.1246  -15.8253 N   0  0  0  0  0  0  0  0  0  0  0  0
   22.3755   -6.4637  -15.2071 C   0  0  0  0  0  0  0  0  0  0  0  0
   23.1335   -5.9127  -14.3877 O   0  0  0  0  0  0  0  0  0  0  0  0
   21.7951   -5.6956  -16.2026 O   0  0  0  0  0  0  0  0  0  0  0  0
  2  1  1  6
  2  3  1  0
  4  2  1  0
  4  5  2  0
  6  4  1  0
  7  6  1  0
  7 10  1  0
  7  8  1  1
  9  8  1  0
 10 17  1  0
 11 10  2  0
 13 12  1  0
 13 14  1  0
 14 15  1  0
 16 15  1  6
 16 18  1  0
 17 16  1  0
 18 19  2  0
 18 20  1  0
M  END
$$$$
