ACM.pdb
     RDKit          3D

 20 19  0  0  1  0  0  0  0  0999 V2000
   18.4813  -14.8851  -17.6445 C   0  0  0  0  0  0  0  0  0  0  0  0
   17.5646  -13.7097  -17.8950 C   0  0  2  0  0  0  0  0  0  0  0  0
   16.6760  -14.0256  -18.9963 N   0  0  0  0  0  0  0  0  0  0  0  0
   18.4098  -12.5288  -18.2428 C   0  0  0  0  0  0  0  0  0  0  0  0
   18.8856  -12.3780  -19.3925 O   0  0  0  0  0  0  0  0  0  0  0  0
   18.7071  -11.5297  -17.2814 N   0  0  0  0  0  0  0  0  0  0  0  0
   19.4280  -10.3210  -17.6267 C   0  0  1  0  0  0  0  0  0  0  0  0
   18.4197   -9.2317  -17.8455 C   0  0  0  0  0  0  0  0  0  0  0  0
   17.3372   -9.1005  -16.3757 S   0  0  0  0  0  0  0  0  0  0  0  0
   20.3768   -9.9984  -16.5274 C   0  0  0  0  0  0  0  0  0  0  0  0
   20.1473  -10.3944  -15.3592 O   0  0  0  0  0  0  0  0  0  0  0  0
   26.1137  -11.7874  -15.8810 C   0  0  0  0  0  0  0  0  0  0  0  0
   26.4227  -10.0620  -15.3892 S   0  0  0  0  0  0  0  0  0  0  0  0
   24.8072   -9.3128  -14.8869 C   0  0  0  0  0  0  0  0  0  0  0  0
   23.8201   -9.5957  -15.9795 C   0  0  0  0  0  0  0  0  0  0  0  0
   22.4765   -9.0401  -15.6447 C   0  0  2  0  0  0  0  0  0  0  0  0
   21.5478   -9.2462  -16.7691 N   0  0  0  0  0  0  0  0  0  0  0  0
   22.4997   -7.5981  -15.3735 C   0  0  0  0  0  0  0  0  0  0  0  0
   22.4907   -6.7709  -16.3037 O   0  0  0  0  0  0  0  0  0  0  0  0
   22.5324   -7.1364  -14.0683 O   0  0  0  0  0  0  0  0  0  0  0  0
  2  1  1  6
  2  3  1  0
  4  2  1  0
  4  5  2  0
  6  4  1  0
  7  6  1  0
  7 10  1  0
  7  8  1  1
  9  8  1  0
 10 17  1  0
 11 10  2  0
 13 12  1  0
 13 14  1  0
 14 15  1  0
 16 15  1  6
 16 18  1  0
 17 16  1  0
 18 19  2  0
 18 20  1  0
M  END
$$$$
