ACM.pdb
     RDKit          3D

 20 19  0  0  1  0  0  0  0  0999 V2000
   19.2637  -24.3438  -11.0177 C   0  0  0  0  0  0  0  0  0  0  0  0
   18.6313  -25.4954  -10.2704 C   0  0  2  0  0  0  0  0  0  0  0  0
   17.3614  -25.8235  -10.8883 N   0  0  0  0  0  0  0  0  0  0  0  0
   18.4162  -25.0677   -8.8560 C   0  0  0  0  0  0  0  0  0  0  0  0
   19.3765  -24.8928   -8.0698 O   0  0  0  0  0  0  0  0  0  0  0  0
   17.1119  -24.8425   -8.3470 N   0  0  0  0  0  0  0  0  0  0  0  0
   16.8843  -24.3837   -6.9915 C   0  0  1  0  0  0  0  0  0  0  0  0
   15.5663  -23.6673   -6.9645 C   0  0  0  0  0  0  0  0  0  0  0  0
   15.1093  -23.2993   -5.2310 S   0  0  0  0  0  0  0  0  0  0  0  0
   16.9067  -25.5576   -6.0782 C   0  0  0  0  0  0  0  0  0  0  0  0
   16.2532  -26.5903   -6.3618 O   0  0  0  0  0  0  0  0  0  0  0  0
   19.9067  -29.1269    0.2727 C   0  0  0  0  0  0  0  0  0  0  0  0
   19.9301  -27.6584   -0.8031 S   0  0  0  0  0  0  0  0  0  0  0  0
   18.5608  -27.8307   -2.0354 C   0  0  0  0  0  0  0  0  0  0  0  0
   18.6919  -26.7035   -3.0153 C   0  0  0  0  0  0  0  0  0  0  0  0
   17.5670  -26.7122   -3.9956 C   0  0  2  0  0  0  0  0  0  0  0  0
   17.6570  -25.5390   -4.8814 N   0  0  0  0  0  0  0  0  0  0  0  0
   16.2461  -26.6616   -3.3584 C   0  0  0  0  0  0  0  0  0  0  0  0
   15.5794  -27.6979   -3.1824 O   0  0  0  0  0  0  0  0  0  0  0  0
   15.7211  -25.4497   -2.9417 O   0  0  0  0  0  0  0  0  0  0  0  0
  2  1  1  6
  2  3  1  0
  4  2  1  0
  4  5  2  0
  6  4  1  0
  7  6  1  0
  7 10  1  0
  7  8  1  6
  9  8  1  0
 10 17  1  0
 11 10  2  0
 13 12  1  0
 13 14  1  0
 14 15  1  0
 16 15  1  1
 16 18  1  0
 17 16  1  0
 18 19  2  0
 18 20  1  0
M  END
$$$$
