ACM.pdb
     RDKit          3D

 20 19  0  0  1  0  0  0  0  0999 V2000
   42.6810   -9.2992   -4.5039 C   0  0  0  0  0  0  0  0  0  0  0  0
   43.1465  -10.2503   -5.5825 C   0  0  2  0  0  0  0  0  0  0  0  0
   44.5951  -10.2311   -5.6410 N   0  0  0  0  0  0  0  0  0  0  0  0
   42.5761   -9.7903   -6.8836 C   0  0  0  0  0  0  0  0  0  0  0  0
   43.2112   -9.0224   -7.6438 O   0  0  0  0  0  0  0  0  0  0  0  0
   41.2892  -10.2067   -7.3097 N   0  0  0  0  0  0  0  0  0  0  0  0
   40.7248   -9.7844   -8.5757 C   0  0  1  0  0  0  0  0  0  0  0  0
   40.2666  -11.0121   -9.3064 C   0  0  0  0  0  0  0  0  0  0  0  0
   39.3784  -10.5184  -10.8285 S   0  0  0  0  0  0  0  0  0  0  0  0
   39.6092   -8.8368   -8.3107 C   0  0  0  0  0  0  0  0  0  0  0  0
   38.6824   -9.1563   -7.5279 O   0  0  0  0  0  0  0  0  0  0  0  0
   37.9723   -4.9417   -3.6029 C   0  0  0  0  0  0  0  0  0  0  0  0
   38.4954   -4.5158   -5.2939 S   0  0  0  0  0  0  0  0  0  0  0  0
   38.1714   -5.9796   -6.3781 C   0  0  0  0  0  0  0  0  0  0  0  0
   38.6629   -5.6394   -7.7532 C   0  0  0  0  0  0  0  0  0  0  0  0
   38.3659   -6.7400   -8.7158 C   0  0  2  0  0  0  0  0  0  0  0  0
   39.5664   -7.5666   -8.9274 N   0  0  0  0  0  0  0  0  0  0  0  0
   37.9479   -6.2546  -10.0361 C   0  0  0  0  0  0  0  0  0  0  0  0
   36.9348   -5.5430  -10.1659 O   0  0  0  0  0  0  0  0  0  0  0  0
   38.6818   -6.5852  -11.1629 O   0  0  0  0  0  0  0  0  0  0  0  0
  2  1  1  1
  2  3  1  0
  4  2  1  0
  4  5  2  0
  6  4  1  0
  7  6  1  0
  7 10  1  0
  7  8  1  1
  9  8  1  0
 10 17  1  0
 11 10  2  0
 13 12  1  0
 13 14  1  0
 14 15  1  0
 16 15  1  1
 16 18  1  0
 17 16  1  0
 18 19  2  0
 18 20  1  0
M  END
$$$$
