ACM.pdb
     RDKit          3D

 20 19  0  0  1  0  0  0  0  0999 V2000
   20.9468  -16.3612  -19.6907 C   0  0  0  0  0  0  0  0  0  0  0  0
   21.2460  -15.5935  -18.4236 C   0  0  2  0  0  0  0  0  0  0  0  0
   20.1099  -15.6919  -17.5281 N   0  0  0  0  0  0  0  0  0  0  0  0
   21.4843  -14.1661  -18.7920 C   0  0  0  0  0  0  0  0  0  0  0  0
   22.4446  -13.8284  -19.5232 O   0  0  0  0  0  0  0  0  0  0  0  0
   20.6295  -13.1348  -18.3264 N   0  0  0  0  0  0  0  0  0  0  0  0
   20.8415  -11.7445  -18.6754 C   0  0  1  0  0  0  0  0  0  0  0  0
   19.5122  -11.1566  -19.0473 C   0  0  0  0  0  0  0  0  0  0  0  0
   19.0050  -11.7886  -20.6882 S   0  0  0  0  0  0  0  0  0  0  0  0
   21.4612  -11.0485  -17.5159 C   0  0  0  0  0  0  0  0  0  0  0  0
   20.9466  -11.1415  -16.3755 O   0  0  0  0  0  0  0  0  0  0  0  0
   27.6075  -10.6358  -16.8281 C   0  0  0  0  0  0  0  0  0  0  0  0
   27.0759  -10.3547  -15.1097 S   0  0  0  0  0  0  0  0  0  0  0  0
   25.3599   -9.6638  -15.1482 C   0  0  0  0  0  0  0  0  0  0  0  0
   24.6472  -10.2915  -16.3084 C   0  0  0  0  0  0  0  0  0  0  0  0
   23.2678   -9.7412  -16.4512 C   0  0  2  0  0  0  0  0  0  0  0  0
   22.6326  -10.2739  -17.6686 N   0  0  0  0  0  0  0  0  0  0  0  0
   23.2391   -8.2784  -16.5640 C   0  0  0  0  0  0  0  0  0  0  0  0
   23.3454   -7.7188  -17.6708 O   0  0  0  0  0  0  0  0  0  0  0  0
   23.0922   -7.4963  -15.4306 O   0  0  0  0  0  0  0  0  0  0  0  0
  2  1  1  6
  2  3  1  0
  4  2  1  0
  4  5  2  0
  6  4  1  0
  7  6  1  0
  7 10  1  0
  7  8  1  1
  9  8  1  0
 10 17  1  0
 11 10  2  0
 13 12  1  0
 13 14  1  0
 14 15  1  0
 16 15  1  6
 16 18  1  0
 17 16  1  0
 18 19  2  0
 18 20  1  0
M  END
$$$$
