ACM.pdb
     RDKit          3D

 20 19  0  0  1  0  0  0  0  0999 V2000
   14.9141  -10.8877  -14.7979 C   0  0  0  0  0  0  0  0  0  0  0  0
   16.4182  -11.0242  -14.8596 C   0  0  2  0  0  0  0  0  0  0  0  0
   16.7638  -12.4264  -14.9879 N   0  0  0  0  0  0  0  0  0  0  0  0
   16.9859  -10.4716  -13.5937 C   0  0  0  0  0  0  0  0  0  0  0  0
   16.9270  -11.1077  -12.5154 O   0  0  0  0  0  0  0  0  0  0  0  0
   17.6154   -9.2012  -13.5641 N   0  0  0  0  0  0  0  0  0  0  0  0
   18.1773   -8.6500  -12.3475 C   0  0  1  0  0  0  0  0  0  0  0  0
   19.4120   -7.8827  -12.7186 C   0  0  0  0  0  0  0  0  0  0  0  0
   20.0421   -6.9953  -11.2473 S   0  0  0  0  0  0  0  0  0  0  0  0
   17.1543   -7.7903  -11.6939 C   0  0  0  0  0  0  0  0  0  0  0  0
   16.4653   -6.9970  -12.3795 O   0  0  0  0  0  0  0  0  0  0  0  0
   11.5780   -6.5650   -6.5330 C   0  0  0  0  0  0  0  0  0  0  0  0
   12.7013   -7.7032   -7.4033 S   0  0  0  0  0  0  0  0  0  0  0  0
   13.9839   -6.6893   -8.2693 C   0  0  0  0  0  0  0  0  0  0  0  0
   14.9192   -7.6379   -8.9575 C   0  0  0  0  0  0  0  0  0  0  0  0
   15.9689   -6.8986   -9.7176 C   0  0  2  0  0  0  0  0  0  0  0  0
   16.9355   -7.8453  -10.2994 N   0  0  0  0  0  0  0  0  0  0  0  0
   16.7375   -5.9678   -8.8831 C   0  0  0  0  0  0  0  0  0  0  0  0
   17.9022   -6.2332   -8.5330 O   0  0  0  0  0  0  0  0  0  0  0  0
   16.1713   -4.7729   -8.4715 O   0  0  0  0  0  0  0  0  0  0  0  0
  2  1  1  1
  2  3  1  0
  4  2  1  0
  4  5  2  0
  6  4  1  0
  7  6  1  0
  7 10  1  0
  7  8  1  6
  9  8  1  0
 10 17  1  0
 11 10  2  0
 13 12  1  0
 13 14  1  0
 14 15  1  0
 16 15  1  1
 16 18  1  0
 17 16  1  0
 18 19  2  0
 18 20  1  0
M  END
$$$$
