ACM.pdb
     RDKit          3D

 20 19  0  0  1  0  0  0  0  0999 V2000
   16.1469   -9.1777  -17.5768 C   0  0  0  0  0  0  0  0  0  0  0  0
   17.5675   -9.6765  -17.7104 C   0  0  2  0  0  0  0  0  0  0  0  0
   17.5619  -11.1261  -17.7405 N   0  0  0  0  0  0  0  0  0  0  0  0
   18.3415   -9.1927  -16.5285 C   0  0  0  0  0  0  0  0  0  0  0  0
   17.7799   -8.9287  -15.4395 O   0  0  0  0  0  0  0  0  0  0  0  0
   19.7466   -9.0130  -16.5942 N   0  0  0  0  0  0  0  0  0  0  0  0
   20.5188   -8.5677  -15.4518 C   0  0  1  0  0  0  0  0  0  0  0  0
   21.7203   -9.4586  -15.3344 C   0  0  0  0  0  0  0  0  0  0  0  0
   22.8666   -8.7724  -14.0836 S   0  0  0  0  0  0  0  0  0  0  0  0
   20.8917   -7.1417  -15.6521 C   0  0  0  0  0  0  0  0  0  0  0  0
   21.3661   -6.7616  -16.7496 O   0  0  0  0  0  0  0  0  0  0  0  0
   19.3684    0.3171  -15.2177 C   0  0  0  0  0  0  0  0  0  0  0  0
   18.8655   -1.4253  -15.0578 S   0  0  0  0  0  0  0  0  0  0  0  0
   20.3983   -2.4605  -15.0097 C   0  0  0  0  0  0  0  0  0  0  0  0
   19.9717   -3.8910  -14.8689 C   0  0  0  0  0  0  0  0  0  0  0  0
   21.1502   -4.8059  -14.8882 C   0  0  2  0  0  0  0  0  0  0  0  0
   20.7225   -6.1898  -14.6221 N   0  0  0  0  0  0  0  0  0  0  0  0
   22.1569   -4.4713  -13.8743 C   0  0  0  0  0  0  0  0  0  0  0  0
   22.2097   -5.0898  -12.7952 O   0  0  0  0  0  0  0  0  0  0  0  0
   23.0679   -3.4548  -14.1077 O   0  0  0  0  0  0  0  0  0  0  0  0
  2  1  1  1
  2  3  1  0
  4  2  1  0
  4  5  2  0
  6  4  1  0
  7  6  1  0
  7 10  1  0
  7  8  1  6
  9  8  1  0
 10 17  1  0
 11 10  2  0
 13 12  1  0
 13 14  1  0
 14 15  1  0
 16 15  1  1
 16 18  1  0
 17 16  1  0
 18 19  2  0
 18 20  1  0
M  END
$$$$
