ACM.pdb
     RDKit          3D

 20 19  0  0  1  0  0  0  0  0999 V2000
   15.4093  -20.7618   -9.9639 C   0  0  0  0  0  0  0  0  0  0  0  0
   16.4171  -21.6923  -10.5989 C   0  0  2  0  0  0  0  0  0  0  0  0
   16.0447  -21.9258  -11.9806 N   0  0  0  0  0  0  0  0  0  0  0  0
   16.4018  -22.9788   -9.8410 C   0  0  0  0  0  0  0  0  0  0  0  0
   15.3649  -23.6777   -9.7551 O   0  0  0  0  0  0  0  0  0  0  0  0
   17.5644  -23.4601   -9.1871 N   0  0  0  0  0  0  0  0  0  0  0  0
   17.5931  -24.7441   -8.5161 C   0  0  1  0  0  0  0  0  0  0  0  0
   18.9429  -25.3552   -8.7518 C   0  0  0  0  0  0  0  0  0  0  0  0
   20.2432  -24.1834   -8.2176 S   0  0  0  0  0  0  0  0  0  0  0  0
   17.3136  -24.5353   -7.0700 C   0  0  0  0  0  0  0  0  0  0  0  0
   17.2158  -23.3732   -6.6076 O   0  0  0  0  0  0  0  0  0  0  0  0
   12.8920  -23.6491   -4.1826 C   0  0  0  0  0  0  0  0  0  0  0  0
   13.4902  -24.5967   -2.7478 S   0  0  0  0  0  0  0  0  0  0  0  0
   15.2935  -24.9295   -2.9943 C   0  0  0  0  0  0  0  0  0  0  0  0
   15.5227  -25.1033   -4.4658 C   0  0  0  0  0  0  0  0  0  0  0  0
   16.9666  -25.3386   -4.7590 C   0  0  2  0  0  0  0  0  0  0  0  0
   17.1526  -25.6293   -6.1908 N   0  0  0  0  0  0  0  0  0  0  0  0
   17.5277  -26.4752   -4.0197 C   0  0  0  0  0  0  0  0  0  0  0  0
   17.5601  -27.6135   -4.5225 O   0  0  0  0  0  0  0  0  0  0  0  0
   18.0320  -26.2935   -2.7429 O   0  0  0  0  0  0  0  0  0  0  0  0
  2  1  1  1
  2  3  1  0
  4  2  1  0
  4  5  2  0
  6  4  1  0
  7  6  1  0
  7 10  1  0
  7  8  1  1
  9  8  1  0
 10 17  1  0
 11 10  2  0
 13 12  1  0
 13 14  1  0
 14 15  1  0
 16 15  1  6
 16 18  1  0
 17 16  1  0
 18 19  2  0
 18 20  1  0
M  END
$$$$
