ACM.pdb
     RDKit          3D

 20 19  0  0  1  0  0  0  0  0999 V2000
   25.2461  -11.5561  -20.0271 C   0  0  0  0  0  0  0  0  0  0  0  0
   24.4516  -11.5998  -18.7420 C   0  0  2  0  0  0  0  0  0  0  0  0
   23.6924  -12.8341  -18.6937 N   0  0  0  0  0  0  0  0  0  0  0  0
   23.5250  -10.4289  -18.7300 C   0  0  0  0  0  0  0  0  0  0  0  0
   22.6798  -10.2514  -19.6384 O   0  0  0  0  0  0  0  0  0  0  0  0
   23.5666   -9.4698  -17.6863 N   0  0  0  0  0  0  0  0  0  0  0  0
   22.5709   -8.4243  -17.5629 C   0  0  1  0  0  0  0  0  0  0  0  0
   21.2675   -9.0723  -17.1992 C   0  0  0  0  0  0  0  0  0  0  0  0
   21.4277   -9.8884  -15.5690 S   0  0  0  0  0  0  0  0  0  0  0  0
   23.0233   -7.4510  -16.5330 C   0  0  0  0  0  0  0  0  0  0  0  0
   23.8484   -7.7996  -15.6545 O   0  0  0  0  0  0  0  0  0  0  0  0
   25.7720   -1.5418  -18.5172 C   0  0  0  0  0  0  0  0  0  0  0  0
   24.2807   -1.8405  -17.5166 S   0  0  0  0  0  0  0  0  0  0  0  0
   24.3488   -3.5818  -16.8950 C   0  0  0  0  0  0  0  0  0  0  0  0
   23.1257   -3.8097  -16.0581 C   0  0  0  0  0  0  0  0  0  0  0  0
   23.0984   -5.1998  -15.5167 C   0  0  2  0  0  0  0  0  0  0  0  0
   22.5403   -6.1236  -16.5189 N   0  0  0  0  0  0  0  0  0  0  0  0
   22.2723   -5.3332  -14.3113 C   0  0  0  0  0  0  0  0  0  0  0  0
   21.1904   -5.9482  -14.3407 O   0  0  0  0  0  0  0  0  0  0  0  0
   22.6900   -4.7717  -13.1163 O   0  0  0  0  0  0  0  0  0  0  0  0
  2  1  1  6
  2  3  1  0
  4  2  1  0
  4  5  2  0
  6  4  1  0
  7  6  1  0
  7 10  1  0
  7  8  1  1
  9  8  1  0
 10 17  1  0
 11 10  2  0
 13 12  1  0
 13 14  1  0
 14 15  1  0
 16 15  1  6
 16 18  1  0
 17 16  1  0
 18 19  2  0
 18 20  1  0
M  END
$$$$
