YHQ.pdb
     RDKit          3D

 32 33  0  0  1  0  0  0  0  0999 V2000
   12.9892  -16.7231  -19.0391 O   0  0  0  0  0  0  0  0  0  0  0  0
   13.9733  -15.8915  -18.5548 C   0  0  0  0  0  0  0  0  0  0  0  0
   13.9177  -15.4767  -17.2420 C   0  0  0  0  0  0  0  0  0  0  0  0
   14.9054  -14.6450  -16.7645 C   0  0  0  0  0  0  0  0  0  0  0  0
   15.9195  -14.2423  -17.5847 C   0  0  0  0  0  0  0  0  0  0  0  0
   16.9689  -13.3473  -17.0740 C   0  0  0  0  0  0  0  0  0  0  0  0
   18.3319  -13.9629  -16.9809 C   0  0  2  0  0  0  0  0  0  0  0  0
   18.2514  -15.0223  -15.9723 N   0  0  0  0  0  0  0  0  0  0  0  0
   19.2867  -12.9551  -16.4728 C   0  0  0  0  0  0  0  0  0  0  0  0
   20.1672  -13.2287  -15.6122 O   0  0  0  0  0  0  0  0  0  0  0  0
   15.9853  -14.6505  -18.8978 C   0  0  0  0  0  0  0  0  0  0  0  0
   15.0025  -15.4835  -19.3884 C   0  0  0  0  0  0  0  0  0  0  0  0
   19.2727  -11.5781  -16.9341 N   0  0  0  0  0  0  0  0  0  0  0  0
   20.2633  -10.6411  -16.5166 C   0  0  1  0  0  0  0  0  0  0  0  0
   21.6222  -11.2042  -16.6178 C   0  0  0  0  0  0  0  0  0  0  0  0
   22.7358  -10.3531  -16.2111 C   0  0  0  0  0  0  0  0  0  0  0  0
   23.4739  -10.2003  -15.0846 C   0  0  0  0  0  0  0  0  0  0  0  0
   24.4447   -9.2533  -15.2372 N   0  0  0  0  0  0  0  0  0  0  0  0
   24.2855   -8.8218  -16.4990 C   0  0  0  0  0  0  0  0  0  0  0  0
   23.2756   -9.4601  -17.1003 N   0  0  0  0  0  0  0  0  0  0  0  0
   20.1184   -9.3228  -17.1933 C   0  0  0  0  0  0  0  0  0  0  0  0
   20.0461   -9.1794  -18.4298 O   0  0  0  0  0  0  0  0  0  0  0  0
   16.4421   -5.3809  -15.1293 N   0  0  0  0  0  0  0  0  0  0  0  0
   17.0929   -4.4361  -15.9592 C   0  0  0  0  0  0  0  0  0  0  0  0
   16.6742   -3.2618  -16.1138 O   0  0  0  0  0  0  0  0  0  0  0  0
   18.3039   -4.8701  -16.6581 C   0  0  0  0  0  0  0  0  0  0  0  0
   18.6770   -6.2591  -16.3048 C   0  0  0  0  0  0  0  0  0  0  0  0
   19.8709   -6.8343  -17.0240 C   0  0  2  0  0  0  0  0  0  0  0  0
   20.0591   -8.1636  -16.3853 N   0  0  0  0  0  0  0  0  0  0  0  0
   21.0417   -5.9777  -16.7494 C   0  0  0  0  0  0  0  0  0  0  0  0
   21.4238   -5.0628  -17.5281 O   0  0  0  0  0  0  0  0  0  0  0  0
   21.7520   -6.1883  -15.5806 O   0  0  0  0  0  0  0  0  0  0  0  0
  2  1  1  0
  2  3  2  0
  4  3  1  0
  5  4  2  0
  6  7  1  0
  6  5  1  0
  7  8  1  1
  9  7  1  0
  9 13  1  0
 10  9  2  0
 11 12  2  0
 11  5  1  0
 12  2  1  0
 14 15  1  6
 14 13  1  0
 16 15  1  0
 16 17  2  0
 18 17  1  0
 19 18  1  0
 20 19  2  0
 20 16  1  0
 21 14  1  0
 22 21  2  0
 23 24  1  0
 24 26  1  0
 24 25  2  0
 26 27  1  0
 28 27  1  1
 28 30  1  0
 28 29  1  0
 29 21  1  0
 30 32  1  0
 31 30  2  0
M  END
$$$$
