YHQ.pdb
     RDKit          3D

 32 33  0  0  1  0  0  0  0  0999 V2000
   20.3855  -20.7179  -14.0834 O   0  0  0  0  0  0  0  0  0  0  0  0
   20.3493  -19.5593  -14.8255 C   0  0  0  0  0  0  0  0  0  0  0  0
   20.1971  -18.3515  -14.1801 C   0  0  0  0  0  0  0  0  0  0  0  0
   20.1617  -17.1967  -14.9288 C   0  0  0  0  0  0  0  0  0  0  0  0
   20.2759  -17.2560  -16.2877 C   0  0  0  0  0  0  0  0  0  0  0  0
   20.2298  -16.0214  -17.0856 C   0  0  0  0  0  0  0  0  0  0  0  0
   21.5637  -15.5197  -17.5483 C   0  0  2  0  0  0  0  0  0  0  0  0
   22.5578  -16.0117  -16.5911 N   0  0  0  0  0  0  0  0  0  0  0  0
   21.5821  -14.0436  -17.4690 C   0  0  0  0  0  0  0  0  0  0  0  0
   22.3154  -13.4174  -16.6559 O   0  0  0  0  0  0  0  0  0  0  0  0
   20.4285  -18.4570  -16.9432 C   0  0  0  0  0  0  0  0  0  0  0  0
   20.4656  -19.6207  -16.2051 C   0  0  0  0  0  0  0  0  0  0  0  0
   20.7531  -13.2149  -18.3264 N   0  0  0  0  0  0  0  0  0  0  0  0
   20.9095  -11.7982  -18.3724 C   0  0  1  0  0  0  0  0  0  0  0  0
   20.3816  -11.2329  -19.6278 C   0  0  0  0  0  0  0  0  0  0  0  0
   20.5149   -9.7933  -19.8263 C   0  0  0  0  0  0  0  0  0  0  0  0
   21.0671   -8.7690  -19.1312 C   0  0  0  0  0  0  0  0  0  0  0  0
   20.9376   -7.5800  -19.7887 N   0  0  0  0  0  0  0  0  0  0  0  0
   20.2857   -7.9000  -20.9184 C   0  0  0  0  0  0  0  0  0  0  0  0
   20.0225   -9.2105  -20.9655 N   0  0  0  0  0  0  0  0  0  0  0  0
   20.3777  -11.1286  -17.1536 C   0  0  0  0  0  0  0  0  0  0  0  0
   19.4184  -11.5609  -16.4845 O   0  0  0  0  0  0  0  0  0  0  0  0
   23.2234   -6.0912  -15.0964 N   0  0  0  0  0  0  0  0  0  0  0  0
   22.2359   -6.1450  -14.0832 C   0  0  0  0  0  0  0  0  0  0  0  0
   22.1603   -5.2973  -13.1591 O   0  0  0  0  0  0  0  0  0  0  0  0
   21.2727   -7.2464  -14.1349 C   0  0  0  0  0  0  0  0  0  0  0  0
   21.4555   -8.0828  -15.3433 C   0  0  0  0  0  0  0  0  0  0  0  0
   20.5302   -9.2649  -15.4846 C   0  0  2  0  0  0  0  0  0  0  0  0
   20.9977   -9.9305  -16.7290 N   0  0  0  0  0  0  0  0  0  0  0  0
   19.1541   -8.7639  -15.6725 C   0  0  0  0  0  0  0  0  0  0  0  0
   18.7476   -8.2550  -16.7519 O   0  0  0  0  0  0  0  0  0  0  0  0
   18.2683   -8.8593  -14.6137 O   0  0  0  0  0  0  0  0  0  0  0  0
  2  1  1  0
  2  3  2  0
  4  3  1  0
  5  4  2  0
  6  7  1  0
  6  5  1  0
  7  8  1  1
  9  7  1  0
  9 13  1  0
 10  9  2  0
 11 12  2  0
 11  5  1  0
 12  2  1  0
 14 15  1  6
 14 13  1  0
 16 15  1  0
 16 17  2  0
 18 17  1  0
 19 18  1  0
 20 19  2  0
 20 16  1  0
 21 14  1  0
 22 21  2  0
 23 24  1  0
 24 26  1  0
 24 25  2  0
 26 27  1  0
 28 27  1  6
 28 30  1  0
 28 29  1  0
 29 21  1  0
 30 32  1  0
 31 30  2  0
M  END
$$$$
