YHQ.pdb
     RDKit          3D

 32 33  0  0  1  0  0  0  0  0999 V2000
   37.1727  -33.6082  -24.9637 O   0  0  0  0  0  0  0  0  0  0  0  0
   36.4073  -33.1853  -23.9006 C   0  0  0  0  0  0  0  0  0  0  0  0
   36.7646  -33.5594  -22.6235 C   0  0  0  0  0  0  0  0  0  0  0  0
   35.9945  -33.1327  -21.5651 C   0  0  0  0  0  0  0  0  0  0  0  0
   34.8965  -32.3524  -21.7859 C   0  0  0  0  0  0  0  0  0  0  0  0
   34.0711  -31.9047  -20.6539 C   0  0  0  0  0  0  0  0  0  0  0  0
   34.3287  -30.4992  -20.2031 C   0  0  2  0  0  0  0  0  0  0  0  0
   35.6454  -30.4938  -19.5607 N   0  0  0  0  0  0  0  0  0  0  0  0
   33.3412  -30.1326  -19.1658 C   0  0  0  0  0  0  0  0  0  0  0  0
   33.6488  -29.4595  -18.1445 O   0  0  0  0  0  0  0  0  0  0  0  0
   34.5302  -31.9725  -23.0574 C   0  0  0  0  0  0  0  0  0  0  0  0
   35.2930  -32.3929  -24.1260 C   0  0  0  0  0  0  0  0  0  0  0  0
   31.9461  -30.5258  -19.2561 N   0  0  0  0  0  0  0  0  0  0  0  0
   30.9408  -29.8974  -18.4636 C   0  0  1  0  0  0  0  0  0  0  0  0
   30.9752  -28.4300  -18.6041 C   0  0  0  0  0  0  0  0  0  0  0  0
   29.9915  -27.6583  -17.8515 C   0  0  0  0  0  0  0  0  0  0  0  0
   28.9921  -27.9511  -16.9839 C   0  0  0  0  0  0  0  0  0  0  0  0
   28.3661  -26.8261  -16.5308 N   0  0  0  0  0  0  0  0  0  0  0  0
   29.0112  -25.8220  -17.1466 C   0  0  0  0  0  0  0  0  0  0  0  0
   29.9828  -26.2900  -17.9378 N   0  0  0  0  0  0  0  0  0  0  0  0
   29.5903  -30.4811  -18.6927 C   0  0  0  0  0  0  0  0  0  0  0  0
   29.0978  -30.6737  -19.8218 O   0  0  0  0  0  0  0  0  0  0  0  0
   25.1658  -33.7968  -16.5835 N   0  0  0  0  0  0  0  0  0  0  0  0
   24.8383  -32.6009  -15.8998 C   0  0  0  0  0  0  0  0  0  0  0  0
   23.7077  -32.3930  -15.3932 O   0  0  0  0  0  0  0  0  0  0  0  0
   25.8785  -31.5763  -15.7926 C   0  0  0  0  0  0  0  0  0  0  0  0
   27.1579  -32.0243  -16.3891 C   0  0  0  0  0  0  0  0  0  0  0  0
   27.4892  -31.4732  -17.7528 C   0  0  2  0  0  0  0  0  0  0  0  0
   28.8200  -30.8386  -17.5618 N   0  0  0  0  0  0  0  0  0  0  0  0
   26.4894  -30.4431  -18.0983 C   0  0  0  0  0  0  0  0  0  0  0  0
   25.4716  -30.6800  -18.8036 O   0  0  0  0  0  0  0  0  0  0  0  0
   26.6780  -29.1571  -17.6236 O   0  0  0  0  0  0  0  0  0  0  0  0
  2  1  1  0
  2  3  2  0
  4  3  1  0
  5  4  2  0
  6  7  1  0
  6  5  1  0
  7  8  1  1
  9  7  1  0
  9 13  1  0
 10  9  2  0
 11 12  2  0
 11  5  1  0
 12  2  1  0
 14 15  1  6
 14 13  1  0
 16 15  1  0
 16 17  2  0
 18 17  1  0
 19 18  1  0
 20 19  2  0
 20 16  1  0
 21 14  1  0
 22 21  2  0
 23 24  1  0
 24 26  1  0
 24 25  2  0
 26 27  1  0
 28 27  1  1
 28 30  1  0
 28 29  1  0
 29 21  1  0
 30 32  1  0
 31 30  2  0
M  END
$$$$
