YHQ.pdb
     RDKit          3D

 32 33  0  0  1  0  0  0  0  0999 V2000
    9.0031  -11.8574   -9.9171 O   0  0  0  0  0  0  0  0  0  0  0  0
   10.2291  -11.2316   -9.9150 C   0  0  0  0  0  0  0  0  0  0  0  0
   11.2557  -11.7655   -9.1668 C   0  0  0  0  0  0  0  0  0  0  0  0
   12.4791  -11.1343   -9.1695 C   0  0  0  0  0  0  0  0  0  0  0  0
   12.6638   -9.9985   -9.9037 C   0  0  0  0  0  0  0  0  0  0  0  0
   13.9696   -9.3218   -9.8983 C   0  0  0  0  0  0  0  0  0  0  0  0
   14.7862   -9.5178  -11.1393 C   0  0  2  0  0  0  0  0  0  0  0  0
   15.5414  -10.7602  -10.9589 N   0  0  0  0  0  0  0  0  0  0  0  0
   15.7747   -8.4241  -11.2486 C   0  0  0  0  0  0  0  0  0  0  0  0
   16.6690   -8.2292  -10.3807 O   0  0  0  0  0  0  0  0  0  0  0  0
   11.6455   -9.4562  -10.6549 C   0  0  0  0  0  0  0  0  0  0  0  0
   10.4155  -10.0787  -10.6610 C   0  0  0  0  0  0  0  0  0  0  0  0
   15.7801   -7.4986  -12.3677 N   0  0  0  0  0  0  0  0  0  0  0  0
   16.6764   -6.3904  -12.4155 C   0  0  1  0  0  0  0  0  0  0  0  0
   17.5102   -6.4167  -13.6313 C   0  0  0  0  0  0  0  0  0  0  0  0
   18.2622   -7.6369  -13.9058 C   0  0  0  0  0  0  0  0  0  0  0  0
   18.4657   -8.8121  -13.2617 C   0  0  0  0  0  0  0  0  0  0  0  0
   19.2581   -9.6570  -13.9834 N   0  0  0  0  0  0  0  0  0  0  0  0
   19.5406   -8.9668  -15.1003 C   0  0  0  0  0  0  0  0  0  0  0  0
   18.9602   -7.7619  -15.0792 N   0  0  0  0  0  0  0  0  0  0  0  0
   15.9831   -5.0901  -12.2029 C   0  0  0  0  0  0  0  0  0  0  0  0
   14.8644   -4.8120  -12.6783 O   0  0  0  0  0  0  0  0  0  0  0  0
   16.3810   -2.1605   -7.1141 N   0  0  0  0  0  0  0  0  0  0  0  0
   15.7027   -1.1233   -7.7988 C   0  0  0  0  0  0  0  0  0  0  0  0
   15.2355   -0.1133   -7.2158 O   0  0  0  0  0  0  0  0  0  0  0  0
   15.5503   -1.2564   -9.2487 C   0  0  0  0  0  0  0  0  0  0  0  0
   16.0768   -2.5497   -9.7424 C   0  0  0  0  0  0  0  0  0  0  0  0
   15.9969   -2.7801  -11.2303 C   0  0  2  0  0  0  0  0  0  0  0  0
   16.6319   -4.1116  -11.4145 N   0  0  0  0  0  0  0  0  0  0  0  0
   16.8011   -1.7447  -11.9093 C   0  0  0  0  0  0  0  0  0  0  0  0
   18.0518   -1.8241  -12.0473 O   0  0  0  0  0  0  0  0  0  0  0  0
   16.1505   -0.6353  -12.4200 O   0  0  0  0  0  0  0  0  0  0  0  0
  2  1  1  0
  2  3  2  0
  4  3  1  0
  5  4  2  0
  6  7  1  0
  6  5  1  0
  7  8  1  1
  9  7  1  0
  9 13  1  0
 10  9  2  0
 11 12  2  0
 11  5  1  0
 12  2  1  0
 14 15  1  6
 14 13  1  0
 16 15  1  0
 16 17  2  0
 18 17  1  0
 19 18  1  0
 20 19  2  0
 20 16  1  0
 21 14  1  0
 22 21  2  0
 23 24  1  0
 24 26  1  0
 24 25  2  0
 26 27  1  0
 28 27  1  1
 28 30  1  0
 28 29  1  0
 29 21  1  0
 30 32  1  0
 31 30  2  0
M  END
$$$$
