YHQ.pdb
     RDKit          3D

 32 33  0  0  1  0  0  0  0  0999 V2000
   23.6452  -17.6670  -23.5154 O   0  0  0  0  0  0  0  0  0  0  0  0
   22.9400  -16.8229  -22.6877 C   0  0  0  0  0  0  0  0  0  0  0  0
   22.9148  -17.0750  -21.3333 C   0  0  0  0  0  0  0  0  0  0  0  0
   22.2075  -16.2266  -20.5116 C   0  0  0  0  0  0  0  0  0  0  0  0
   21.5447  -15.1557  -21.0379 C   0  0  0  0  0  0  0  0  0  0  0  0
   20.7834  -14.2556  -20.1586 C   0  0  0  0  0  0  0  0  0  0  0  0
   21.3796  -12.8921  -19.9838 C   0  0  2  0  0  0  0  0  0  0  0  0
   22.6360  -13.0687  -19.2512 N   0  0  0  0  0  0  0  0  0  0  0  0
   20.4910  -12.0791  -19.1267 C   0  0  0  0  0  0  0  0  0  0  0  0
   19.2335  -12.1548  -19.1891 O   0  0  0  0  0  0  0  0  0  0  0  0
   21.5630  -14.8940  -22.3894 C   0  0  0  0  0  0  0  0  0  0  0  0
   22.2677  -15.7359  -23.2232 C   0  0  0  0  0  0  0  0  0  0  0  0
   21.0109  -11.1359  -18.1524 N   0  0  0  0  0  0  0  0  0  0  0  0
   20.1448  -10.3910  -17.2988 C   0  0  1  0  0  0  0  0  0  0  0  0
   19.1318  -11.2542  -16.6640 C   0  0  0  0  0  0  0  0  0  0  0  0
   18.1885  -10.6229  -15.7467 C   0  0  0  0  0  0  0  0  0  0  0  0
   17.9989   -9.3694  -15.2672 C   0  0  0  0  0  0  0  0  0  0  0  0
   16.9246   -9.3031  -14.4280 N   0  0  0  0  0  0  0  0  0  0  0  0
   16.4514  -10.5597  -14.4022 C   0  0  0  0  0  0  0  0  0  0  0  0
   17.1853  -11.3646  -15.1784 N   0  0  0  0  0  0  0  0  0  0  0  0
   20.8936   -9.5468  -16.3276 C   0  0  0  0  0  0  0  0  0  0  0  0
   21.7370   -9.9917  -15.5242 O   0  0  0  0  0  0  0  0  0  0  0  0
   21.2368   -3.5467  -17.1917 N   0  0  0  0  0  0  0  0  0  0  0  0
   21.8041   -3.5388  -15.8944 C   0  0  0  0  0  0  0  0  0  0  0  0
   22.2770   -2.5031  -15.3635 O   0  0  0  0  0  0  0  0  0  0  0  0
   21.8305   -4.8048  -15.1598 C   0  0  0  0  0  0  0  0  0  0  0  0
   21.2785   -5.9202  -15.9626 C   0  0  0  0  0  0  0  0  0  0  0  0
   21.3328   -7.2888  -15.3321 C   0  0  2  0  0  0  0  0  0  0  0  0
   20.6329   -8.1568  -16.3154 N   0  0  0  0  0  0  0  0  0  0  0  0
   20.5724   -7.2531  -14.0670 C   0  0  0  0  0  0  0  0  0  0  0  0
   19.3133   -7.2925  -14.0186 O   0  0  0  0  0  0  0  0  0  0  0  0
   21.2759   -7.1744  -12.8780 O   0  0  0  0  0  0  0  0  0  0  0  0
  2  1  1  0
  2  3  2  0
  4  3  1  0
  5  4  2  0
  6  7  1  0
  6  5  1  0
  7  8  1  1
  9  7  1  0
  9 13  1  0
 10  9  2  0
 11 12  2  0
 11  5  1  0
 12  2  1  0
 14 15  1  1
 14 13  1  0
 16 15  1  0
 16 17  2  0
 18 17  1  0
 19 18  1  0
 20 19  2  0
 20 16  1  0
 21 14  1  0
 22 21  2  0
 23 24  1  0
 24 26  1  0
 24 25  2  0
 26 27  1  0
 28 27  1  6
 28 30  1  0
 28 29  1  0
 29 21  1  0
 30 32  1  0
 31 30  2  0
M  END
$$$$
