YHQ.pdb
     RDKit          3D

 32 33  0  0  1  0  0  0  0  0999 V2000
   32.1933  -11.1602  -17.0011 O   0  0  0  0  0  0  0  0  0  0  0  0
   30.8457  -10.9234  -16.8512 C   0  0  0  0  0  0  0  0  0  0  0  0
   30.0409  -11.9174  -16.3385 C   0  0  0  0  0  0  0  0  0  0  0  0
   28.6940  -11.6735  -16.1914 C   0  0  0  0  0  0  0  0  0  0  0  0
   28.1723  -10.4642  -16.5503 C   0  0  0  0  0  0  0  0  0  0  0  0
   26.7317  -10.2093  -16.3995 C   0  0  0  0  0  0  0  0  0  0  0  0
   25.8476  -11.3724  -16.7323 C   0  0  2  0  0  0  0  0  0  0  0  0
   26.1517  -11.7556  -18.1132 N   0  0  0  0  0  0  0  0  0  0  0  0
   24.4363  -10.9330  -16.7073 C   0  0  0  0  0  0  0  0  0  0  0  0
   23.8511  -10.4733  -17.7257 O   0  0  0  0  0  0  0  0  0  0  0  0
   28.9667   -9.4638  -17.0634 C   0  0  0  0  0  0  0  0  0  0  0  0
   30.3172   -9.6953  -17.2156 C   0  0  0  0  0  0  0  0  0  0  0  0
   23.6282  -11.0026  -15.5026 N   0  0  0  0  0  0  0  0  0  0  0  0
   22.2415  -10.6700  -15.5138 C   0  0  1  0  0  0  0  0  0  0  0  0
   21.4253  -11.7176  -14.8732 C   0  0  0  0  0  0  0  0  0  0  0  0
   21.2148  -12.9558  -15.6163 C   0  0  0  0  0  0  0  0  0  0  0  0
   21.5902  -13.4305  -16.8292 C   0  0  0  0  0  0  0  0  0  0  0  0
   21.1361  -14.7000  -17.0412 N   0  0  0  0  0  0  0  0  0  0  0  0
   20.4650  -14.9995  -15.9171 C   0  0  0  0  0  0  0  0  0  0  0  0
   20.4967  -13.9789  -15.0532 N   0  0  0  0  0  0  0  0  0  0  0  0
   21.9807   -9.3064  -14.9758 C   0  0  0  0  0  0  0  0  0  0  0  0
   22.6051   -8.8039  -14.0206 O   0  0  0  0  0  0  0  0  0  0  0  0
   20.1418   -4.9649  -18.5754 N   0  0  0  0  0  0  0  0  0  0  0  0
   19.9672   -4.2178  -17.3853 C   0  0  0  0  0  0  0  0  0  0  0  0
   19.6920   -2.9921  -17.3840 O   0  0  0  0  0  0  0  0  0  0  0  0
   20.1203   -4.9261  -16.1132 C   0  0  0  0  0  0  0  0  0  0  0  0
   20.4623   -6.3530  -16.3139 C   0  0  0  0  0  0  0  0  0  0  0  0
   20.6675   -7.1734  -15.0656 C   0  0  2  0  0  0  0  0  0  0  0  0
   20.9637   -8.5348  -15.5844 N   0  0  0  0  0  0  0  0  0  0  0  0
   19.4029   -7.1932  -14.3039 C   0  0  0  0  0  0  0  0  0  0  0  0
   18.5404   -8.1049  -14.4240 O   0  0  0  0  0  0  0  0  0  0  0  0
   19.1536   -6.1627  -13.4145 O   0  0  0  0  0  0  0  0  0  0  0  0
  2  1  1  0
  2  3  2  0
  4  3  1  0
  5  4  2  0
  6  7  1  0
  6  5  1  0
  7  8  1  6
  9  7  1  0
  9 13  1  0
 10  9  2  0
 11 12  2  0
 11  5  1  0
 12  2  1  0
 14 15  1  1
 14 13  1  0
 16 15  1  0
 16 17  2  0
 18 17  1  0
 19 18  1  0
 20 19  2  0
 20 16  1  0
 21 14  1  0
 22 21  2  0
 23 24  1  0
 24 26  1  0
 24 25  2  0
 26 27  1  0
 28 27  1  6
 28 30  1  0
 28 29  1  0
 29 21  1  0
 30 32  1  0
 31 30  2  0
M  END
$$$$
