YHQ.pdb
     RDKit          3D

 32 33  0  0  1  0  0  0  0  0999 V2000
   28.5185  -19.1591   -3.3159 O   0  0  0  0  0  0  0  0  0  0  0  0
   28.1038  -19.5643   -4.5642 C   0  0  0  0  0  0  0  0  0  0  0  0
   28.4406  -18.8058   -5.6641 C   0  0  0  0  0  0  0  0  0  0  0  0
   28.0223  -19.2172   -6.9096 C   0  0  0  0  0  0  0  0  0  0  0  0
   27.2862  -20.3588   -7.0439 C   0  0  0  0  0  0  0  0  0  0  0  0
   26.8340  -20.7916   -8.3748 C   0  0  0  0  0  0  0  0  0  0  0  0
   25.7631  -19.9392   -8.9846 C   0  0  2  0  0  0  0  0  0  0  0  0
   24.4876  -20.3968   -8.4279 N   0  0  0  0  0  0  0  0  0  0  0  0
   25.7129  -20.1894  -10.4407 C   0  0  0  0  0  0  0  0  0  0  0  0
   24.7786  -20.8385  -10.9853 O   0  0  0  0  0  0  0  0  0  0  0  0
   26.9439  -21.1245   -5.9522 C   0  0  0  0  0  0  0  0  0  0  0  0
   27.3567  -20.7236   -4.6994 C   0  0  0  0  0  0  0  0  0  0  0  0
   26.7412  -19.7017  -11.3429 N   0  0  0  0  0  0  0  0  0  0  0  0
   26.4429  -19.3433  -12.6905 C   0  0  1  0  0  0  0  0  0  0  0  0
   27.4802  -18.4653  -13.2626 C   0  0  0  0  0  0  0  0  0  0  0  0
   27.3801  -18.1410  -14.6819 C   0  0  0  0  0  0  0  0  0  0  0  0
   26.5499  -18.4871  -15.6960 C   0  0  0  0  0  0  0  0  0  0  0  0
   26.8873  -17.8666  -16.8638 N   0  0  0  0  0  0  0  0  0  0  0  0
   27.9568  -17.1212  -16.5412 C   0  0  0  0  0  0  0  0  0  0  0  0
   28.2705  -17.2663  -15.2491 N   0  0  0  0  0  0  0  0  0  0  0  0
   26.1386  -20.5284  -13.5389 C   0  0  0  0  0  0  0  0  0  0  0  0
   26.6184  -21.6632  -13.3473 O   0  0  0  0  0  0  0  0  0  0  0  0
   25.1765  -25.1853  -15.6648 N   0  0  0  0  0  0  0  0  0  0  0  0
   24.2385  -24.7860  -14.6822 C   0  0  0  0  0  0  0  0  0  0  0  0
   24.0852  -25.3999  -13.5969 O   0  0  0  0  0  0  0  0  0  0  0  0
   23.4223  -23.6044  -14.9664 C   0  0  0  0  0  0  0  0  0  0  0  0
   24.0404  -22.3667  -14.4378 C   0  0  0  0  0  0  0  0  0  0  0  0
   24.8296  -21.5405  -15.4216 C   0  0  2  0  0  0  0  0  0  0  0  0
   25.2521  -20.3569  -14.6274 N   0  0  0  0  0  0  0  0  0  0  0  0
   23.9259  -21.1158  -16.5092 C   0  0  0  0  0  0  0  0  0  0  0  0
   23.4575  -19.9489  -16.5996 O   0  0  0  0  0  0  0  0  0  0  0  0
   23.5782  -22.0427  -17.4761 O   0  0  0  0  0  0  0  0  0  0  0  0
  2  1  1  0
  2  3  2  0
  4  3  1  0
  5  4  2  0
  6  7  1  0
  6  5  1  0
  7  8  1  1
  9  7  1  0
  9 13  1  0
 10  9  2  0
 11 12  2  0
 11  5  1  0
 12  2  1  0
 14 15  1  6
 14 13  1  0
 16 15  1  0
 16 17  2  0
 18 17  1  0
 19 18  1  0
 20 19  2  0
 20 16  1  0
 21 14  1  0
 22 21  2  0
 23 24  1  0
 24 26  1  0
 24 25  2  0
 26 27  1  0
 28 27  1  1
 28 30  1  0
 28 29  1  0
 29 21  1  0
 30 32  1  0
 31 30  2  0
M  END
$$$$
