YHQ.pdb
     RDKit          3D

 32 33  0  0  1  0  0  0  0  0999 V2000
   29.0816  -23.3854  -17.0570 O   0  0  0  0  0  0  0  0  0  0  0  0
   28.0200  -23.0140  -16.2633 C   0  0  0  0  0  0  0  0  0  0  0  0
   28.0623  -21.8034  -15.6067 C   0  0  0  0  0  0  0  0  0  0  0  0
   26.9970  -21.4384  -14.8147 C   0  0  0  0  0  0  0  0  0  0  0  0
   25.9206  -22.2681  -14.6872 C   0  0  0  0  0  0  0  0  0  0  0  0
   24.7875  -21.8791  -13.8340 C   0  0  0  0  0  0  0  0  0  0  0  0
   23.5393  -21.5070  -14.5748 C   0  0  2  0  0  0  0  0  0  0  0  0
   23.7525  -20.1630  -15.1178 N   0  0  0  0  0  0  0  0  0  0  0  0
   22.4161  -21.4127  -13.6183 C   0  0  0  0  0  0  0  0  0  0  0  0
   22.4294  -20.6264  -12.6322 O   0  0  0  0  0  0  0  0  0  0  0  0
   25.8674  -23.4797  -15.3385 C   0  0  0  0  0  0  0  0  0  0  0  0
   26.9277  -23.8570  -16.1348 C   0  0  0  0  0  0  0  0  0  0  0  0
   21.2187  -22.2234  -13.7528 N   0  0  0  0  0  0  0  0  0  0  0  0
   20.1931  -22.2099  -12.7621 C   0  0  1  0  0  0  0  0  0  0  0  0
   18.9976  -21.4822  -13.2260 C   0  0  0  0  0  0  0  0  0  0  0  0
   19.1509  -20.0647  -13.5375 C   0  0  0  0  0  0  0  0  0  0  0  0
   20.1739  -19.1757  -13.5159 C   0  0  0  0  0  0  0  0  0  0  0  0
   19.7817  -17.9388  -13.9387 N   0  0  0  0  0  0  0  0  0  0  0  0
   18.4782  -18.0888  -14.2252 C   0  0  0  0  0  0  0  0  0  0  0  0
   18.0781  -19.3442  -13.9953 N   0  0  0  0  0  0  0  0  0  0  0  0
   19.8904  -23.5711  -12.2401 C   0  0  0  0  0  0  0  0  0  0  0  0
   20.0609  -24.6202  -12.8919 O   0  0  0  0  0  0  0  0  0  0  0  0
   18.8541  -24.4859   -6.2946 N   0  0  0  0  0  0  0  0  0  0  0  0
   18.3155  -25.7199   -6.7331 C   0  0  0  0  0  0  0  0  0  0  0  0
   17.8746  -26.5907   -5.9422 O   0  0  0  0  0  0  0  0  0  0  0  0
   18.2829  -25.9695   -8.1752 C   0  0  0  0  0  0  0  0  0  0  0  0
   18.8304  -24.8291   -8.9452 C   0  0  0  0  0  0  0  0  0  0  0  0
   18.8756  -24.9937  -10.4432 C   0  0  2  0  0  0  0  0  0  0  0  0
   19.3788  -23.6808  -10.9262 N   0  0  0  0  0  0  0  0  0  0  0  0
   17.5000  -25.2125  -10.9330 C   0  0  0  0  0  0  0  0  0  0  0  0
   16.6883  -24.2726  -11.1501 O   0  0  0  0  0  0  0  0  0  0  0  0
   17.0830  -26.5112  -11.1664 O   0  0  0  0  0  0  0  0  0  0  0  0
  2  1  1  0
  2  3  2  0
  4  3  1  0
  5  4  2  0
  6  7  1  0
  6  5  1  0
  7  8  1  1
  9  7  1  0
  9 13  1  0
 10  9  2  0
 11 12  2  0
 11  5  1  0
 12  2  1  0
 14 15  1  6
 14 13  1  0
 16 15  1  0
 16 17  2  0
 18 17  1  0
 19 18  1  0
 20 19  2  0
 20 16  1  0
 21 14  1  0
 22 21  2  0
 23 24  1  0
 24 26  1  0
 24 25  2  0
 26 27  1  0
 28 27  1  1
 28 30  1  0
 28 29  1  0
 29 21  1  0
 30 32  1  0
 31 30  2  0
M  END
$$$$
