YHQ.pdb
     RDKit          3D

 32 33  0  0  1  0  0  0  0  0999 V2000
   29.9110  -20.3584   -6.5513 O   0  0  0  0  0  0  0  0  0  0  0  0
   29.1312  -20.3511   -7.6855 C   0  0  0  0  0  0  0  0  0  0  0  0
   29.6066  -20.9482   -8.8327 C   0  0  0  0  0  0  0  0  0  0  0  0
   28.8212  -20.9372   -9.9633 C   0  0  0  0  0  0  0  0  0  0  0  0
   27.5930  -20.3421   -9.9399 C   0  0  0  0  0  0  0  0  0  0  0  0
   26.7594  -20.3249  -11.1516 C   0  0  0  0  0  0  0  0  0  0  0  0
   25.3452  -20.7773  -10.9502 C   0  0  2  0  0  0  0  0  0  0  0  0
   25.4029  -22.1845  -10.5468 N   0  0  0  0  0  0  0  0  0  0  0  0
   24.6303  -20.7281  -12.2432 C   0  0  0  0  0  0  0  0  0  0  0  0
   24.5218  -19.6681  -12.9181 O   0  0  0  0  0  0  0  0  0  0  0  0
   27.1076  -19.7426   -8.7996 C   0  0  0  0  0  0  0  0  0  0  0  0
   27.8843  -19.7469   -7.6605 C   0  0  0  0  0  0  0  0  0  0  0  0
   24.0035  -21.9029  -12.8229 N   0  0  0  0  0  0  0  0  0  0  0  0
   23.2439  -21.8259  -14.0274 C   0  0  1  0  0  0  0  0  0  0  0  0
   23.7787  -22.7248  -15.0666 C   0  0  0  0  0  0  0  0  0  0  0  0
   25.1615  -22.5214  -15.4863 C   0  0  0  0  0  0  0  0  0  0  0  0
   26.2854  -23.2787  -15.5102 C   0  0  0  0  0  0  0  0  0  0  0  0
   27.3445  -22.6004  -16.0400 N   0  0  0  0  0  0  0  0  0  0  0  0
   26.8405  -21.3938  -16.3459 C   0  0  0  0  0  0  0  0  0  0  0  0
   25.5437  -21.3207  -16.0266 N   0  0  0  0  0  0  0  0  0  0  0  0
   21.7844  -22.0000  -13.7899 C   0  0  0  0  0  0  0  0  0  0  0  0
   21.3047  -22.7928  -12.9556 O   0  0  0  0  0  0  0  0  0  0  0  0
   17.9437  -17.9648  -16.3221 N   0  0  0  0  0  0  0  0  0  0  0  0
   16.9825  -18.6353  -15.5274 C   0  0  0  0  0  0  0  0  0  0  0  0
   15.7811  -18.2740  -15.4611 O   0  0  0  0  0  0  0  0  0  0  0  0
   17.4322  -19.7964  -14.7575 C   0  0  0  0  0  0  0  0  0  0  0  0
   18.8815  -20.0464  -14.9319 C   0  0  0  0  0  0  0  0  0  0  0  0
   19.4306  -21.2856  -14.2714 C   0  0  2  0  0  0  0  0  0  0  0  0
   20.8882  -21.2193  -14.5565 N   0  0  0  0  0  0  0  0  0  0  0  0
   18.8454  -22.4686  -14.9331 C   0  0  0  0  0  0  0  0  0  0  0  0
   19.2802  -22.9354  -16.0204 O   0  0  0  0  0  0  0  0  0  0  0  0
   17.7694  -23.0955  -14.3297 O   0  0  0  0  0  0  0  0  0  0  0  0
  2  1  1  0
  2  3  2  0
  4  3  1  0
  5  4  2  0
  6  7  1  0
  6  5  1  0
  7  8  1  6
  9  7  1  0
  9 13  1  0
 10  9  2  0
 11 12  2  0
 11  5  1  0
 12  2  1  0
 14 15  1  6
 14 13  1  0
 16 15  1  0
 16 17  2  0
 18 17  1  0
 19 18  1  0
 20 19  2  0
 20 16  1  0
 21 14  1  0
 22 21  2  0
 23 24  1  0
 24 26  1  0
 24 25  2  0
 26 27  1  0
 28 27  1  6
 28 30  1  0
 28 29  1  0
 29 21  1  0
 30 32  1  0
 31 30  2  0
M  END
$$$$
