YHQ.pdb
     RDKit          3D

 32 33  0  0  1  0  0  0  0  0999 V2000
   17.5815  -18.6117  -22.0713 O   0  0  0  0  0  0  0  0  0  0  0  0
   18.6548  -19.3246  -21.5870 C   0  0  0  0  0  0  0  0  0  0  0  0
   19.9032  -19.1131  -22.1304 C   0  0  0  0  0  0  0  0  0  0  0  0
   20.9720  -19.8297  -21.6410 C   0  0  0  0  0  0  0  0  0  0  0  0
   20.7893  -20.7331  -20.6341 C   0  0  0  0  0  0  0  0  0  0  0  0
   21.9316  -21.5030  -20.1188 C   0  0  0  0  0  0  0  0  0  0  0  0
   22.5759  -20.9307  -18.8930 C   0  0  2  0  0  0  0  0  0  0  0  0
   23.7126  -21.7956  -18.5675 N   0  0  0  0  0  0  0  0  0  0  0  0
   21.6294  -21.0177  -17.7607 C   0  0  0  0  0  0  0  0  0  0  0  0
   21.4461  -22.0830  -17.1106 O   0  0  0  0  0  0  0  0  0  0  0  0
   19.5467  -20.9525  -20.0836 C   0  0  0  0  0  0  0  0  0  0  0  0
   18.4681  -20.2413  -20.5646 C   0  0  0  0  0  0  0  0  0  0  0  0
   20.8457  -19.8768  -17.3213 N   0  0  0  0  0  0  0  0  0  0  0  0
   19.9563  -19.9657  -16.2101 C   0  0  1  0  0  0  0  0  0  0  0  0
   20.2966  -18.9870  -15.1610 C   0  0  0  0  0  0  0  0  0  0  0  0
   20.3589  -17.5809  -15.5465 C   0  0  0  0  0  0  0  0  0  0  0  0
   20.1278  -16.8794  -16.6831 C   0  0  0  0  0  0  0  0  0  0  0  0
   20.3124  -15.5396  -16.5002 N   0  0  0  0  0  0  0  0  0  0  0  0
   20.6660  -15.4312  -15.2092 C   0  0  0  0  0  0  0  0  0  0  0  0
   20.7011  -16.6310  -14.6191 N   0  0  0  0  0  0  0  0  0  0  0  0
   18.5264  -19.9166  -16.6222 C   0  0  0  0  0  0  0  0  0  0  0  0
   18.1205  -19.3609  -17.6620 O   0  0  0  0  0  0  0  0  0  0  0  0
   15.0221  -24.3681  -14.9027 N   0  0  0  0  0  0  0  0  0  0  0  0
   15.0929  -23.4025  -13.8695 C   0  0  0  0  0  0  0  0  0  0  0  0
   14.8178  -23.6641  -12.6719 O   0  0  0  0  0  0  0  0  0  0  0  0
   15.5060  -22.0470  -14.2373 C   0  0  0  0  0  0  0  0  0  0  0  0
   15.6472  -21.8920  -15.7034 C   0  0  0  0  0  0  0  0  0  0  0  0
   16.1410  -20.5530  -16.1898 C   0  0  2  0  0  0  0  0  0  0  0  0
   17.5712  -20.5373  -15.7842 N   0  0  0  0  0  0  0  0  0  0  0  0
   15.4063  -19.4927  -15.4715 C   0  0  0  0  0  0  0  0  0  0  0  0
   15.8940  -18.8529  -14.5009 O   0  0  0  0  0  0  0  0  0  0  0  0
   14.1219  -19.1857  -15.8850 O   0  0  0  0  0  0  0  0  0  0  0  0
  2  1  1  0
  2  3  2  0
  4  3  1  0
  5  4  2  0
  6  7  1  0
  6  5  1  0
  7  8  1  1
  9  7  1  0
  9 13  1  0
 10  9  2  0
 11 12  2  0
 11  5  1  0
 12  2  1  0
 14 15  1  1
 14 13  1  0
 16 15  1  0
 16 17  2  0
 18 17  1  0
 19 18  1  0
 20 19  2  0
 20 16  1  0
 21 14  1  0
 22 21  2  0
 23 24  1  0
 24 26  1  0
 24 25  2  0
 26 27  1  0
 28 27  1  1
 28 30  1  0
 28 29  1  0
 29 21  1  0
 30 32  1  0
 31 30  2  0
M  END
$$$$
