MTP.pdb
     RDKit          3D

 23 23  0  0  1  0  0  0  0  0999 V2000
   10.3941  -15.6670   28.9219 C   0  0  0  0  0  0  0  0  0  0  0  0
   12.0607  -15.6341   28.2019 S   0  0  0  0  0  0  0  0  0  0  0  0
   12.1958  -17.1484   27.1810 C   0  0  0  0  0  0  0  0  0  0  0  0
   11.0132  -17.1875   26.2511 C   0  0  0  0  0  0  0  0  0  0  0  0
   11.3461  -17.0797   24.8041 C   0  0  2  0  0  0  0  0  0  0  0  0
   12.7397  -17.2356   24.5120 N   0  0  0  0  0  0  0  0  0  0  0  0
   10.7367  -15.8893   24.1260 C   0  0  0  0  0  0  0  0  0  0  0  0
   11.4854  -14.9363   23.8549 O   0  0  0  0  0  0  0  0  0  0  0  0
    8.0603  -15.4132   21.1852 C   0  0  0  0  0  0  0  0  0  0  0  0
    7.5608  -15.0851   22.5354 C   0  0  1  0  0  0  0  0  0  0  0  0
    6.9661  -16.2736   23.0378 O   0  0  0  0  0  0  0  0  0  0  0  0
    8.5558  -14.6790   23.5828 C   0  0  2  0  0  0  0  0  0  0  0  0
    9.3586  -15.8924   23.8220 N   0  0  0  0  0  0  0  0  0  0  0  0
    8.0265  -14.2136   24.8497 C   0  0  0  0  0  0  0  0  0  0  0  0
    8.3490  -14.9430   25.8729 O   0  0  0  0  0  0  0  0  0  0  0  0
    7.2317  -13.1165   25.1624 N   0  0  0  0  0  0  0  0  0  0  0  0
    6.6866  -12.1535   24.2099 C   0  0  0  0  0  0  0  0  0  0  0  0
    6.9163  -10.8245   24.9485 C   0  0  0  0  0  0  0  0  0  0  0  0
    6.8873  -11.1967   26.4156 C   0  0  0  0  0  0  0  0  0  0  0  0
    6.7001  -12.6798   26.4123 C   0  0  1  0  0  0  0  0  0  0  0  0
    5.2561  -13.0515   26.5670 C   0  0  0  0  0  0  0  0  0  0  0  0
    4.6637  -12.8982   27.7911 O   0  0  0  0  0  0  0  0  0  0  0  0
    4.6436  -13.4860   25.5937 O   0  0  0  0  0  0  0  0  0  0  0  0
  2  3  1  0
  2  1  1  0
  4  3  1  0
  5  4  1  0
  5  7  1  0
  5  6  1  1
  7 13  1  0
  7  8  2  0
 10  9  1  6
 10 12  1  0
 11 10  1  0
 12 14  1  0
 12 13  1  1
 14 16  1  0
 14 15  2  0
 16 17  1  0
 17 18  1  0
 19 18  1  0
 20 16  1  0
 20 19  1  0
 20 21  1  6
 22 21  1  0
 23 21  2  0
M  END
$$$$
