MTP.pdb
     RDKit          3D

 23 23  0  0  1  0  0  0  0  0999 V2000
    9.1848  -14.4403   29.9143 C   0  0  0  0  0  0  0  0  0  0  0  0
   10.5225  -15.5604   29.4112 S   0  0  0  0  0  0  0  0  0  0  0  0
    9.7507  -16.7970   28.3026 C   0  0  0  0  0  0  0  0  0  0  0  0
    8.3082  -16.4124   28.1123 C   0  0  0  0  0  0  0  0  0  0  0  0
    7.5472  -17.2718   27.1644 C   0  0  2  0  0  0  0  0  0  0  0  0
    8.1032  -18.5797   26.9862 N   0  0  0  0  0  0  0  0  0  0  0  0
    7.2107  -16.5984   25.8676 C   0  0  0  0  0  0  0  0  0  0  0  0
    6.7649  -17.3072   24.9505 O   0  0  0  0  0  0  0  0  0  0  0  0
    6.3423  -12.5262   26.1872 C   0  0  0  0  0  0  0  0  0  0  0  0
    7.1185  -12.9843   25.0175 C   0  0  1  0  0  0  0  0  0  0  0  0
    8.4875  -12.8582   25.3761 O   0  0  0  0  0  0  0  0  0  0  0  0
    6.9649  -14.4103   24.5761 C   0  0  2  0  0  0  0  0  0  0  0  0
    7.4063  -15.2071   25.7356 N   0  0  0  0  0  0  0  0  0  0  0  0
    7.7216  -14.8248   23.4111 C   0  0  0  0  0  0  0  0  0  0  0  0
    8.3325  -15.9623   23.5377 O   0  0  0  0  0  0  0  0  0  0  0  0
    7.9071  -14.2154   22.1752 N   0  0  0  0  0  0  0  0  0  0  0  0
    7.5875  -12.8292   21.8464 C   0  0  0  0  0  0  0  0  0  0  0  0
    6.9474  -12.9810   20.4566 C   0  0  0  0  0  0  0  0  0  0  0  0
    7.5866  -14.2258   19.8792 C   0  0  0  0  0  0  0  0  0  0  0  0
    8.4845  -14.7146   20.9698 C   0  0  1  0  0  0  0  0  0  0  0  0
    9.8911  -14.2318   20.7811 C   0  0  0  0  0  0  0  0  0  0  0  0
   10.4029  -13.3281   21.6724 O   0  0  0  0  0  0  0  0  0  0  0  0
   10.5461  -14.6567   19.8316 O   0  0  0  0  0  0  0  0  0  0  0  0
  2  3  1  0
  2  1  1  0
  4  3  1  0
  5  4  1  0
  5  7  1  0
  5  6  1  6
  7 13  1  0
  7  8  2  0
 10  9  1  1
 10 12  1  0
 11 10  1  0
 12 14  1  0
 12 13  1  1
 14 16  1  0
 14 15  2  0
 16 17  1  0
 17 18  1  0
 19 18  1  0
 20 16  1  0
 20 19  1  0
 20 21  1  6
 22 21  1  0
 23 21  2  0
M  END
$$$$
