MTP.pdb
     RDKit          3D

 23 23  0  0  1  0  0  0  0  0999 V2000
    7.9984  -10.7470   26.3536 C   0  0  0  0  0  0  0  0  0  0  0  0
    6.3015  -11.3682   26.5319 S   0  0  0  0  0  0  0  0  0  0  0  0
    6.4276  -12.8868   27.5476 C   0  0  0  0  0  0  0  0  0  0  0  0
    7.1440  -13.9306   26.7337 C   0  0  0  0  0  0  0  0  0  0  0  0
    6.3271  -14.5634   25.6620 C   0  0  2  0  0  0  0  0  0  0  0  0
    5.0571  -15.0534   26.1077 N   0  0  0  0  0  0  0  0  0  0  0  0
    7.0790  -15.5601   24.8315 C   0  0  0  0  0  0  0  0  0  0  0  0
    7.2161  -16.7052   25.2919 O   0  0  0  0  0  0  0  0  0  0  0  0
    6.7836  -15.0719   20.8763 C   0  0  0  0  0  0  0  0  0  0  0  0
    8.1459  -15.4467   21.3052 C   0  0  1  0  0  0  0  0  0  0  0  0
    8.8906  -14.2380   21.3612 O   0  0  0  0  0  0  0  0  0  0  0  0
    8.3191  -16.0699   22.6593 C   0  0  2  0  0  0  0  0  0  0  0  0
    7.5943  -15.1713   23.5766 N   0  0  0  0  0  0  0  0  0  0  0  0
    9.6766  -16.2315   23.1418 C   0  0  0  0  0  0  0  0  0  0  0  0
   10.0983  -15.2720   23.9064 O   0  0  0  0  0  0  0  0  0  0  0  0
   10.6100  -17.2399   22.9294 N   0  0  0  0  0  0  0  0  0  0  0  0
   10.4518  -18.3786   22.0293 C   0  0  0  0  0  0  0  0  0  0  0  0
   11.0193  -19.5265   22.8806 C   0  0  0  0  0  0  0  0  0  0  0  0
   12.0265  -18.8593   23.7928 C   0  0  0  0  0  0  0  0  0  0  0  0
   11.9296  -17.4088   23.4447 C   0  0  1  0  0  0  0  0  0  0  0  0
   12.9753  -17.0124   22.4464 C   0  0  0  0  0  0  0  0  0  0  0  0
   12.5929  -16.7577   21.1573 O   0  0  0  0  0  0  0  0  0  0  0  0
   14.1468  -16.9292   22.8097 O   0  0  0  0  0  0  0  0  0  0  0  0
  2  3  1  0
  2  1  1  0
  4  3  1  0
  5  4  1  0
  5  7  1  0
  5  6  1  1
  7 13  1  0
  7  8  2  0
 10  9  1  1
 10 12  1  0
 11 10  1  0
 12 14  1  0
 12 13  1  1
 14 16  1  0
 14 15  2  0
 16 17  1  0
 17 18  1  0
 19 18  1  0
 20 16  1  0
 20 19  1  0
 20 21  1  6
 22 21  1  0
 23 21  2  0
M  END
$$$$
