MTP.pdb
     RDKit          3D

 23 23  0  0  1  0  0  0  0  0999 V2000
    6.7974  -11.2466   25.5073 C   0  0  0  0  0  0  0  0  0  0  0  0
    6.4010  -12.2084   26.9955 S   0  0  0  0  0  0  0  0  0  0  0  0
    5.9346  -13.8777   26.4042 C   0  0  0  0  0  0  0  0  0  0  0  0
    7.0876  -14.4260   25.6074 C   0  0  0  0  0  0  0  0  0  0  0  0
    6.8458  -15.7558   24.9833 C   0  0  2  0  0  0  0  0  0  0  0  0
    5.9299  -16.5840   25.7091 N   0  0  0  0  0  0  0  0  0  0  0  0
    8.0979  -16.4787   24.5857 C   0  0  0  0  0  0  0  0  0  0  0  0
    8.5440  -17.3307   25.3714 O   0  0  0  0  0  0  0  0  0  0  0  0
    8.3934  -17.1265   20.6628 C   0  0  0  0  0  0  0  0  0  0  0  0
    9.6791  -16.7557   21.2870 C   0  0  1  0  0  0  0  0  0  0  0  0
    9.8344  -15.3594   21.0756 O   0  0  0  0  0  0  0  0  0  0  0  0
    9.8301  -16.9408   22.7685 C   0  0  2  0  0  0  0  0  0  0  0  0
    8.7150  -16.1738   23.3537 N   0  0  0  0  0  0  0  0  0  0  0  0
   11.0709  -16.4882   23.3663 C   0  0  0  0  0  0  0  0  0  0  0  0
   11.0681  -15.2485   23.7485 O   0  0  0  0  0  0  0  0  0  0  0  0
   12.2685  -17.1531   23.6048 N   0  0  0  0  0  0  0  0  0  0  0  0
   12.5632  -18.5399   23.2561 C   0  0  0  0  0  0  0  0  0  0  0  0
   13.3012  -19.0249   24.5148 C   0  0  0  0  0  0  0  0  0  0  0  0
   13.9427  -17.7765   25.0823 C   0  0  0  0  0  0  0  0  0  0  0  0
   13.4959  -16.6862   24.1624 C   0  0  1  0  0  0  0  0  0  0  0  0
   14.5205  -16.4057   23.1046 C   0  0  0  0  0  0  0  0  0  0  0  0
   14.2817  -16.8322   21.8263 O   0  0  0  0  0  0  0  0  0  0  0  0
   15.5473  -15.8040   23.4122 O   0  0  0  0  0  0  0  0  0  0  0  0
  2  3  1  0
  2  1  1  0
  4  3  1  0
  5  4  1  0
  5  7  1  0
  5  6  1  1
  7 13  1  0
  7  8  2  0
 10  9  1  1
 10 12  1  0
 11 10  1  0
 12 14  1  0
 12 13  1  1
 14 16  1  0
 14 15  2  0
 16 17  1  0
 17 18  1  0
 19 18  1  0
 20 16  1  0
 20 19  1  0
 20 21  1  6
 22 21  1  0
 23 21  2  0
M  END
$$$$
