MTP.pdb
     RDKit          3D

 23 23  0  0  1  0  0  0  0  0999 V2000
    9.0040  -11.8843   19.4374 C   0  0  0  0  0  0  0  0  0  0  0  0
    8.4277  -12.7803   17.9669 S   0  0  0  0  0  0  0  0  0  0  0  0
    8.0067  -14.4675   18.5408 C   0  0  0  0  0  0  0  0  0  0  0  0
    8.7463  -14.7174   19.8275 C   0  0  0  0  0  0  0  0  0  0  0  0
    8.4546  -16.0244   20.4778 C   0  0  2  0  0  0  0  0  0  0  0  0
    8.0699  -17.0585   19.5645 N   0  0  0  0  0  0  0  0  0  0  0  0
    7.5435  -15.9244   21.6645 C   0  0  0  0  0  0  0  0  0  0  0  0
    6.3406  -16.1781   21.4887 O   0  0  0  0  0  0  0  0  0  0  0  0
    5.9935  -17.4923   23.2984 C   0  0  0  0  0  0  0  0  0  0  0  0
    6.7672  -16.8543   24.3822 C   0  0  1  0  0  0  0  0  0  0  0  0
    7.9281  -17.6531   24.5637 O   0  0  0  0  0  0  0  0  0  0  0  0
    7.2863  -15.4636   24.1620 C   0  0  2  0  0  0  0  0  0  0  0  0
    8.0738  -15.5541   22.9187 N   0  0  0  0  0  0  0  0  0  0  0  0
    8.1229  -14.8998   25.2031 C   0  0  0  0  0  0  0  0  0  0  0  0
    9.3974  -14.9665   24.9703 O   0  0  0  0  0  0  0  0  0  0  0  0
    7.7976  -14.2955   26.4124 N   0  0  0  0  0  0  0  0  0  0  0  0
    6.4931  -14.3350   27.0669 C   0  0  0  0  0  0  0  0  0  0  0  0
    6.3438  -12.8817   27.5462 C   0  0  0  0  0  0  0  0  0  0  0  0
    7.7652  -12.4021   27.7497 C   0  0  0  0  0  0  0  0  0  0  0  0
    8.6061  -13.5661   27.3342 C   0  0  1  0  0  0  0  0  0  0  0  0
    9.0063  -14.4029   28.5119 C   0  0  0  0  0  0  0  0  0  0  0  0
    8.4919  -15.6658   28.6281 O   0  0  0  0  0  0  0  0  0  0  0  0
    9.7818  -13.9336   29.3422 O   0  0  0  0  0  0  0  0  0  0  0  0
  2  3  1  0
  2  1  1  0
  4  3  1  0
  5  4  1  0
  5  7  1  0
  5  6  1  6
  7 13  1  0
  7  8  2  0
 10  9  1  6
 10 12  1  0
 11 10  1  0
 12 14  1  0
 12 13  1  6
 14 16  1  0
 14 15  2  0
 16 17  1  0
 17 18  1  0
 19 18  1  0
 20 16  1  0
 20 19  1  0
 20 21  1  1
 22 21  1  0
 23 21  2  0
M  END
$$$$
