MTP.pdb
     RDKit          3D

 23 23  0  0  1  0  0  0  0  0999 V2000
    6.4390  -11.0049   27.0492 C   0  0  0  0  0  0  0  0  0  0  0  0
    6.5791  -12.7231   26.4789 S   0  0  0  0  0  0  0  0  0  0  0  0
    8.1083  -13.3814   27.2418 C   0  0  0  0  0  0  0  0  0  0  0  0
    8.2198  -14.8367   26.8749 C   0  0  0  0  0  0  0  0  0  0  0  0
    7.2432  -15.3053   25.8538 C   0  0  2  0  0  0  0  0  0  0  0  0
    6.0529  -15.8810   26.4046 N   0  0  0  0  0  0  0  0  0  0  0  0
    7.8508  -16.1448   24.7701 C   0  0  0  0  0  0  0  0  0  0  0  0
    8.0678  -17.3411   25.0231 O   0  0  0  0  0  0  0  0  0  0  0  0
    6.7977  -15.4263   21.0123 C   0  0  0  0  0  0  0  0  0  0  0  0
    8.2583  -15.5746   21.1703 C   0  0  1  0  0  0  0  0  0  0  0  0
    8.7838  -14.2572   21.2536 O   0  0  0  0  0  0  0  0  0  0  0  0
    8.7740  -16.2739   22.3937 C   0  0  2  0  0  0  0  0  0  0  0  0
    8.1483  -15.5589   23.5212 N   0  0  0  0  0  0  0  0  0  0  0  0
   10.2104  -16.2861   22.5897 C   0  0  0  0  0  0  0  0  0  0  0  0
   10.6712  -15.2931   23.2859 O   0  0  0  0  0  0  0  0  0  0  0  0
   11.1854  -17.1804   22.1622 N   0  0  0  0  0  0  0  0  0  0  0  0
   10.9707  -18.3282   21.2856 C   0  0  0  0  0  0  0  0  0  0  0  0
   11.8285  -19.4049   21.9705 C   0  0  0  0  0  0  0  0  0  0  0  0
   12.9233  -18.6281   22.6704 C   0  0  0  0  0  0  0  0  0  0  0  0
   12.5941  -17.1977   22.3875 C   0  0  1  0  0  0  0  0  0  0  0  0
   13.3566  -16.6822   21.2042 C   0  0  0  0  0  0  0  0  0  0  0  0
   12.7075  -16.5558   20.0061 O   0  0  0  0  0  0  0  0  0  0  0  0
   14.5429  -16.3896   21.3394 O   0  0  0  0  0  0  0  0  0  0  0  0
  2  3  1  0
  2  1  1  0
  4  3  1  0
  5  4  1  0
  5  7  1  0
  5  6  1  1
  7 13  1  0
  7  8  2  0
 10  9  1  1
 10 12  1  0
 11 10  1  0
 12 14  1  0
 12 13  1  1
 14 16  1  0
 14 15  2  0
 16 17  1  0
 17 18  1  0
 19 18  1  0
 20 16  1  0
 20 19  1  0
 20 21  1  6
 22 21  1  0
 23 21  2  0
M  END
$$$$
