MTP.pdb
     RDKit          3D

 23 23  0  0  1  0  0  0  0  0999 V2000
    8.6191  -11.8845   19.9932 C   0  0  0  0  0  0  0  0  0  0  0  0
    7.4602  -12.9946   19.1436 S   0  0  0  0  0  0  0  0  0  0  0  0
    8.3100  -14.6126   19.0269 C   0  0  0  0  0  0  0  0  0  0  0  0
    9.6266  -14.4976   19.7471 C   0  0  0  0  0  0  0  0  0  0  0  0
    9.8471  -15.5051   20.8207 C   0  0  2  0  0  0  0  0  0  0  0  0
    9.4031  -16.8245   20.4838 N   0  0  0  0  0  0  0  0  0  0  0  0
    9.3850  -15.0615   22.1764 C   0  0  0  0  0  0  0  0  0  0  0  0
    9.2491  -13.8419   22.3668 O   0  0  0  0  0  0  0  0  0  0  0  0
    6.3018  -16.7458   23.6422 C   0  0  0  0  0  0  0  0  0  0  0  0
    7.4139  -16.7624   24.6133 C   0  0  1  0  0  0  0  0  0  0  0  0
    8.0724  -18.0096   24.4407 O   0  0  0  0  0  0  0  0  0  0  0  0
    8.4959  -15.7321   24.4734 C   0  0  2  0  0  0  0  0  0  0  0  0
    9.1227  -16.0270   23.1717 N   0  0  0  0  0  0  0  0  0  0  0  0
    9.5262  -15.7155   25.4931 C   0  0  0  0  0  0  0  0  0  0  0  0
   10.6584  -16.2337   25.1288 O   0  0  0  0  0  0  0  0  0  0  0  0
    9.5146  -15.2378   26.7988 N   0  0  0  0  0  0  0  0  0  0  0  0
    8.3404  -14.7713   27.5306 C   0  0  0  0  0  0  0  0  0  0  0  0
    8.8904  -13.5175   28.2305 C   0  0  0  0  0  0  0  0  0  0  0  0
   10.3683  -13.7974   28.4023 C   0  0  0  0  0  0  0  0  0  0  0  0
   10.5640  -15.1328   27.7597 C   0  0  1  0  0  0  0  0  0  0  0  0
   10.5125  -16.2406   28.7683 C   0  0  0  0  0  0  0  0  0  0  0  0
   11.5408  -16.3660   29.6626 O   0  0  0  0  0  0  0  0  0  0  0  0
    9.5518  -17.0077   28.7644 O   0  0  0  0  0  0  0  0  0  0  0  0
  2  3  1  0
  2  1  1  0
  4  3  1  0
  5  4  1  0
  5  7  1  0
  5  6  1  6
  7 13  1  0
  7  8  2  0
 10  9  1  6
 10 12  1  0
 11 10  1  0
 12 14  1  0
 12 13  1  6
 14 16  1  0
 14 15  2  0
 16 17  1  0
 17 18  1  0
 19 18  1  0
 20 16  1  0
 20 19  1  0
 20 21  1  1
 22 21  1  0
 23 21  2  0
M  END
$$$$
