MTP.pdb
     RDKit          3D

 23 23  0  0  1  0  0  0  0  0999 V2000
    7.7461  -11.3375   18.6999 C   0  0  0  0  0  0  0  0  0  0  0  0
    8.8064  -12.8073   18.8133 S   0  0  0  0  0  0  0  0  0  0  0  0
    7.8407  -14.0512   19.7480 C   0  0  0  0  0  0  0  0  0  0  0  0
    8.6892  -15.2861   19.8893 C   0  0  0  0  0  0  0  0  0  0  0  0
    8.0359  -16.4215   20.5967 C   0  0  2  0  0  0  0  0  0  0  0  0
    7.2230  -17.2455   19.7530 N   0  0  0  0  0  0  0  0  0  0  0  0
    7.3473  -16.0304   21.8700 C   0  0  0  0  0  0  0  0  0  0  0  0
    6.1840  -15.6038   21.7869 O   0  0  0  0  0  0  0  0  0  0  0  0
    6.1564  -18.1554   24.0075 C   0  0  0  0  0  0  0  0  0  0  0  0
    7.0425  -17.3501   24.8715 C   0  0  1  0  0  0  0  0  0  0  0  0
    8.2760  -18.0520   24.9383 O   0  0  0  0  0  0  0  0  0  0  0  0
    7.4096  -15.9665   24.4211 C   0  0  2  0  0  0  0  0  0  0  0  0
    8.0307  -16.1598   23.0978 N   0  0  0  0  0  0  0  0  0  0  0  0
    8.3263  -15.2212   25.2614 C   0  0  0  0  0  0  0  0  0  0  0  0
    9.5491  -15.1834   24.8296 O   0  0  0  0  0  0  0  0  0  0  0  0
    8.1238  -14.5351   26.4535 N   0  0  0  0  0  0  0  0  0  0  0  0
    6.9049  -14.5539   27.2571 C   0  0  0  0  0  0  0  0  0  0  0  0
    6.7672  -13.0722   27.6445 C   0  0  0  0  0  0  0  0  0  0  0  0
    8.1873  -12.5475   27.6454 C   0  0  0  0  0  0  0  0  0  0  0  0
    9.0101  -13.7207   27.2195 C   0  0  1  0  0  0  0  0  0  0  0  0
    9.5683  -14.4575   28.3997 C   0  0  0  0  0  0  0  0  0  0  0  0
    9.1435  -15.7361   28.6395 O   0  0  0  0  0  0  0  0  0  0  0  0
   10.3891  -13.8948   29.1215 O   0  0  0  0  0  0  0  0  0  0  0  0
  2  3  1  0
  2  1  1  0
  4  3  1  0
  5  4  1  0
  5  7  1  0
  5  6  1  6
  7 13  1  0
  7  8  2  0
 10  9  1  6
 10 12  1  0
 11 10  1  0
 12 14  1  0
 12 13  1  6
 14 16  1  0
 14 15  2  0
 16 17  1  0
 17 18  1  0
 19 18  1  0
 20 16  1  0
 20 19  1  0
 20 21  1  1
 22 21  1  0
 23 21  2  0
M  END
$$$$
