MTP.pdb
     RDKit          3D

 23 23  0  0  1  0  0  0  0  0999 V2000
    6.0911  -11.8183   26.0341 C   0  0  0  0  0  0  0  0  0  0  0  0
    7.0030  -12.1359   27.5719 S   0  0  0  0  0  0  0  0  0  0  0  0
    7.5227  -13.8901   27.4934 C   0  0  0  0  0  0  0  0  0  0  0  0
    6.6935  -14.5725   26.4391 C   0  0  0  0  0  0  0  0  0  0  0  0
    7.3583  -15.7176   25.7585 C   0  0  2  0  0  0  0  0  0  0  0  0
    7.8176  -16.7403   26.6499 N   0  0  0  0  0  0  0  0  0  0  0  0
    8.3936  -15.3107   24.7531 C   0  0  0  0  0  0  0  0  0  0  0  0
    9.3885  -14.6950   25.1693 O   0  0  0  0  0  0  0  0  0  0  0  0
   11.1899  -16.2864   23.4825 C   0  0  0  0  0  0  0  0  0  0  0  0
   10.2108  -16.3422   22.3787 C   0  0  1  0  0  0  0  0  0  0  0  0
    9.5004  -17.5621   22.5401 O   0  0  0  0  0  0  0  0  0  0  0  0
    9.1495  -15.2832   22.3150 C   0  0  2  0  0  0  0  0  0  0  0  0
    8.2074  -15.6369   23.3928 N   0  0  0  0  0  0  0  0  0  0  0  0
    8.4120  -15.1629   21.0727 C   0  0  0  0  0  0  0  0  0  0  0  0
    7.3359  -15.8847   21.0088 O   0  0  0  0  0  0  0  0  0  0  0  0
    8.6555  -14.4048   19.9330 N   0  0  0  0  0  0  0  0  0  0  0  0
    9.7546  -13.4612   19.7497 C   0  0  0  0  0  0  0  0  0  0  0  0
    9.0423  -12.2882   19.0561 C   0  0  0  0  0  0  0  0  0  0  0  0
    7.8869  -12.9300   18.3178 C   0  0  0  0  0  0  0  0  0  0  0  0
    7.9861  -14.3785   18.6734 C   0  0  1  0  0  0  0  0  0  0  0  0
    8.7314  -15.1512   17.6271 C   0  0  0  0  0  0  0  0  0  0  0  0
    8.0801  -15.4969   16.4742 O   0  0  0  0  0  0  0  0  0  0  0  0
    9.9045  -15.4561   17.8321 O   0  0  0  0  0  0  0  0  0  0  0  0
  2  3  1  0
  2  1  1  0
  4  3  1  0
  5  4  1  0
  5  7  1  0
  5  6  1  1
  7 13  1  0
  7  8  2  0
 10  9  1  1
 10 12  1  0
 11 10  1  0
 12 14  1  0
 12 13  1  1
 14 16  1  0
 14 15  2  0
 16 17  1  0
 17 18  1  0
 19 18  1  0
 20 16  1  0
 20 19  1  0
 20 21  1  6
 22 21  1  0
 23 21  2  0
M  END
$$$$
