MTP.pdb
     RDKit          3D

 23 23  0  0  1  0  0  0  0  0999 V2000
    8.4054  -11.7381   19.4192 C   0  0  0  0  0  0  0  0  0  0  0  0
    8.9662  -12.8738   18.1181 S   0  0  0  0  0  0  0  0  0  0  0  0
    8.2318  -14.5018   18.5229 C   0  0  0  0  0  0  0  0  0  0  0  0
    8.5749  -14.8224   19.9528 C   0  0  0  0  0  0  0  0  0  0  0  0
    7.9981  -16.0940   20.4689 C   0  0  2  0  0  0  0  0  0  0  0  0
    7.3017  -16.8629   19.4812 N   0  0  0  0  0  0  0  0  0  0  0  0
    7.2216  -15.9381   21.7421 C   0  0  0  0  0  0  0  0  0  0  0  0
    5.9989  -15.7418   21.6495 O   0  0  0  0  0  0  0  0  0  0  0  0
    6.0850  -18.1009   23.8763 C   0  0  0  0  0  0  0  0  0  0  0  0
    6.9408  -17.2616   24.7384 C   0  0  1  0  0  0  0  0  0  0  0  0
    8.2050  -17.9078   24.7915 O   0  0  0  0  0  0  0  0  0  0  0  0
    7.2420  -15.8604   24.2935 C   0  0  2  0  0  0  0  0  0  0  0  0
    7.8934  -16.0201   22.9804 N   0  0  0  0  0  0  0  0  0  0  0  0
    8.1048  -15.0686   25.1481 C   0  0  0  0  0  0  0  0  0  0  0  0
    9.3447  -15.0185   24.7699 O   0  0  0  0  0  0  0  0  0  0  0  0
    7.8351  -14.3485   26.3065 N   0  0  0  0  0  0  0  0  0  0  0  0
    6.5789  -14.3605   27.0505 C   0  0  0  0  0  0  0  0  0  0  0  0
    6.4024  -12.8697   27.3831 C   0  0  0  0  0  0  0  0  0  0  0  0
    7.8134  -12.3239   27.4357 C   0  0  0  0  0  0  0  0  0  0  0  0
    8.6719  -13.4972   27.0879 C   0  0  1  0  0  0  0  0  0  0  0  0
    9.1819  -14.1881   28.3167 C   0  0  0  0  0  0  0  0  0  0  0  0
   10.1652  -13.5840   29.0523 O   0  0  0  0  0  0  0  0  0  0  0  0
    8.7071  -15.2780   28.6296 O   0  0  0  0  0  0  0  0  0  0  0  0
  2  3  1  0
  2  1  1  0
  4  3  1  0
  5  4  1  0
  5  7  1  0
  5  6  1  6
  7 13  1  0
  7  8  2  0
 10  9  1  6
 10 12  1  0
 11 10  1  0
 12 14  1  0
 12 13  1  6
 14 16  1  0
 14 15  2  0
 16 17  1  0
 17 18  1  0
 19 18  1  0
 20 16  1  0
 20 19  1  0
 20 21  1  1
 22 21  1  0
 23 21  2  0
M  END
$$$$
