MTP.pdb
     RDKit          3D

 23 23  0  0  1  0  0  0  0  0999 V2000
    5.7261  -11.1675   26.0205 C   0  0  0  0  0  0  0  0  0  0  0  0
    6.7813  -12.5932   25.6319 S   0  0  0  0  0  0  0  0  0  0  0  0
    6.6219  -12.8578   23.8269 C   0  0  0  0  0  0  0  0  0  0  0  0
    7.5282  -13.9965   23.4436 C   0  0  0  0  0  0  0  0  0  0  0  0
    6.9345  -15.3530   23.5974 C   0  0  2  0  0  0  0  0  0  0  0  0
    5.5162  -15.3957   23.4020 N   0  0  0  0  0  0  0  0  0  0  0  0
    7.3756  -16.0740   24.8359 C   0  0  0  0  0  0  0  0  0  0  0  0
    6.6016  -16.0750   25.8070 O   0  0  0  0  0  0  0  0  0  0  0  0
    8.2175  -19.6312   24.9698 C   0  0  0  0  0  0  0  0  0  0  0  0
    9.3846  -18.8659   25.4520 C   0  0  1  0  0  0  0  0  0  0  0  0
   10.2274  -18.6756   24.3241 O   0  0  0  0  0  0  0  0  0  0  0  0
    9.1548  -17.4875   25.9989 C   0  0  2  0  0  0  0  0  0  0  0  0
    8.6315  -16.7173   24.8557 N   0  0  0  0  0  0  0  0  0  0  0  0
   10.3062  -16.7928   26.5405 C   0  0  0  0  0  0  0  0  0  0  0  0
   11.0848  -16.2581   25.6511 O   0  0  0  0  0  0  0  0  0  0  0  0
   10.7237  -16.5963   27.8521 N   0  0  0  0  0  0  0  0  0  0  0  0
   10.0469  -17.0858   29.0496 C   0  0  0  0  0  0  0  0  0  0  0  0
   10.1506  -15.8680   29.9827 C   0  0  0  0  0  0  0  0  0  0  0  0
   11.4056  -15.1514   29.5319 C   0  0  0  0  0  0  0  0  0  0  0  0
   11.8899  -15.9588   28.3709 C   0  0  1  0  0  0  0  0  0  0  0  0
   12.9318  -16.9522   28.7890 C   0  0  0  0  0  0  0  0  0  0  0  0
   14.1712  -16.4959   29.1475 O   0  0  0  0  0  0  0  0  0  0  0  0
   12.6478  -18.1483   28.7964 O   0  0  0  0  0  0  0  0  0  0  0  0
  2  3  1  0
  2  1  1  0
  4  3  1  0
  5  4  1  0
  5  7  1  0
  5  6  1  1
  7 13  1  0
  7  8  2  0
 10  9  1  6
 10 12  1  0
 11 10  1  0
 12 14  1  0
 12 13  1  6
 14 16  1  0
 14 15  2  0
 16 17  1  0
 17 18  1  0
 19 18  1  0
 20 16  1  0
 20 19  1  0
 20 21  1  1
 22 21  1  0
 23 21  2  0
M  END
$$$$
