CKF.pdb
     RDKit          3D

 27 27  0  0  1  0  0  0  0  0999 V2000
   27.6491  -15.9893  -17.5119 N   0  0  0  0  0  0  0  0  0  0  0  0
   27.4115  -16.7567  -16.3172 C   0  0  1  0  0  0  0  0  0  0  0  0
   26.7453  -15.9374  -15.2319 C   0  0  0  0  0  0  0  0  0  0  0  0
   25.1880  -15.2189  -15.7885 S   0  0  0  0  0  0  0  0  0  0  0  0
   26.4886  -17.8813  -16.6579 C   0  0  0  0  0  0  0  0  0  0  0  0
   25.7348  -17.8217  -17.6834 O   0  0  0  0  0  0  0  0  0  0  0  0
   26.4521  -19.0239  -15.8325 N   0  0  0  0  0  0  0  0  0  0  0  0
   25.4811  -20.1108  -15.9946 C   0  0  1  0  0  0  0  0  0  0  0  0
   26.2237  -21.3484  -15.6072 C   0  0  0  0  0  0  0  0  0  0  0  0
   27.0076  -22.0208  -16.6706 C   0  0  0  0  0  0  0  0  0  0  0  0
   26.4205  -23.4268  -16.8368 C   0  0  0  0  0  0  0  0  0  0  0  0
   27.0516  -24.3799  -15.8396 C   0  0  0  0  0  0  0  0  0  0  0  0
   26.3703  -25.6629  -15.9639 N   0  0  0  0  0  0  0  0  0  0  0  0
   24.3229  -19.7732  -15.1671 C   0  0  0  0  0  0  0  0  0  0  0  0
   24.4436  -19.1034  -14.0807 O   0  0  0  0  0  0  0  0  0  0  0  0
   22.9856  -20.1409  -15.4768 N   0  0  0  0  0  0  0  0  0  0  0  0
   21.8544  -19.6535  -14.6597 C   0  0  1  0  0  0  0  0  0  0  0  0
   21.9489  -18.1640  -14.6762 C   0  0  0  0  0  0  0  0  0  0  0  0
   20.7153  -17.5842  -14.1074 C   0  0  0  0  0  0  0  0  0  0  0  0
   19.6388  -17.2497  -14.9056 C   0  0  0  0  0  0  0  0  0  0  0  0
   18.4883  -16.7108  -14.3681 C   0  0  0  0  0  0  0  0  0  0  0  0
   18.3929  -16.4947  -13.0100 C   0  0  0  0  0  0  0  0  0  0  0  0
   19.4600  -16.8250  -12.2096 C   0  0  0  0  0  0  0  0  0  0  0  0
   20.6101  -17.3617  -12.7309 C   0  0  0  0  0  0  0  0  0  0  0  0
   20.5892  -20.2021  -15.1469 C   0  0  0  0  0  0  0  0  0  0  0  0
   20.4664  -20.4407  -16.3890 O   0  0  0  0  0  0  0  0  0  0  0  0
   19.4936  -20.4917  -14.3660 O   0  0  0  0  0  0  0  0  0  0  0  0
  2  3  1  0
  2  5  1  0
  2  1  1  6
  4  3  1  0
  5  6  2  0
  7  8  1  0
  7  5  1  0
  8 14  1  0
  9 10  1  0
  8  9  1  1
 10 11  1  0
 12 11  1  0
 12 13  1  0
 14 15  2  0
 16 14  1  0
 16 17  1  0
 17 25  1  0
 17 18  1  6
 19 18  1  0
 20 19  2  0
 21 20  1  0
 22 21  2  0
 22 23  1  0
 23 24  2  0
 24 19  1  0
 25 26  2  0
 25 27  1  0
M  END
$$$$
