CKF.pdb
     RDKit          3D

 27 27  0  0  1  0  0  0  0  0999 V2000
   27.4134  -21.1886  -16.6786 N   0  0  0  0  0  0  0  0  0  0  0  0
   27.3570  -21.9457  -15.4553 C   0  0  1  0  0  0  0  0  0  0  0  0
   28.6983  -22.5453  -15.0892 C   0  0  0  0  0  0  0  0  0  0  0  0
   29.8215  -22.5982  -16.4988 S   0  0  0  0  0  0  0  0  0  0  0  0
   26.9643  -21.0210  -14.3492 C   0  0  0  0  0  0  0  0  0  0  0  0
   27.0334  -19.7574  -14.4968 O   0  0  0  0  0  0  0  0  0  0  0  0
   26.5110  -21.5553  -13.1256 N   0  0  0  0  0  0  0  0  0  0  0  0
   25.7813  -20.7754  -12.1208 C   0  0  1  0  0  0  0  0  0  0  0  0
   24.3401  -21.0796  -12.3726 C   0  0  0  0  0  0  0  0  0  0  0  0
   23.6159  -20.1768  -13.2988 C   0  0  0  0  0  0  0  0  0  0  0  0
   22.1539  -20.6365  -13.3185 C   0  0  0  0  0  0  0  0  0  0  0  0
   21.2276  -19.4460  -13.1573 C   0  0  0  0  0  0  0  0  0  0  0  0
   21.2239  -18.7162  -14.4193 N   0  0  0  0  0  0  0  0  0  0  0  0
   26.3013  -21.1745  -10.8129 C   0  0  0  0  0  0  0  0  0  0  0  0
   27.4291  -21.7714  -10.6900 O   0  0  0  0  0  0  0  0  0  0  0  0
   25.6290  -20.9448   -9.5822 N   0  0  0  0  0  0  0  0  0  0  0  0
   26.3534  -21.0139   -8.2956 C   0  0  1  0  0  0  0  0  0  0  0  0
   27.4506  -20.0064   -8.3885 C   0  0  0  0  0  0  0  0  0  0  0  0
   28.1255  -19.8885   -7.0800 C   0  0  0  0  0  0  0  0  0  0  0  0
   29.2371  -20.6469   -6.7687 C   0  0  0  0  0  0  0  0  0  0  0  0
   29.8646  -20.5305   -5.5458 C   0  0  0  0  0  0  0  0  0  0  0  0
   29.3869  -19.6451   -4.6033 C   0  0  0  0  0  0  0  0  0  0  0  0
   28.2813  -18.8872   -4.9058 C   0  0  0  0  0  0  0  0  0  0  0  0
   27.6476  -18.9930   -6.1182 C   0  0  0  0  0  0  0  0  0  0  0  0
   25.4341  -20.8310   -7.1729 C   0  0  0  0  0  0  0  0  0  0  0  0
   24.4164  -20.0872   -7.3335 O   0  0  0  0  0  0  0  0  0  0  0  0
   25.5719  -21.4042   -5.9293 O   0  0  0  0  0  0  0  0  0  0  0  0
  2  3  1  0
  2  5  1  0
  2  1  1  6
  4  3  1  0
  5  6  2  0
  7  8  1  0
  7  5  1  0
  8 14  1  0
  9 10  1  0
  8  9  1  1
 10 11  1  0
 12 11  1  0
 12 13  1  0
 14 15  2  0
 16 14  1  0
 16 17  1  0
 17 25  1  0
 17 18  1  6
 19 18  1  0
 20 19  2  0
 21 20  1  0
 22 21  2  0
 22 23  1  0
 23 24  2  0
 24 19  1  0
 25 26  2  0
 25 27  1  0
M  END
$$$$
