CKF.pdb
     RDKit          3D

 27 27  0  0  1  0  0  0  0  0999 V2000
   26.3687  -15.6062  -17.9264 N   0  0  0  0  0  0  0  0  0  0  0  0
   26.3813  -16.3150  -16.6733 C   0  0  1  0  0  0  0  0  0  0  0  0
   25.7857  -15.4982  -15.5460 C   0  0  0  0  0  0  0  0  0  0  0  0
   26.8688  -14.1459  -15.0469 S   0  0  0  0  0  0  0  0  0  0  0  0
   25.5471  -17.5457  -16.8223 C   0  0  0  0  0  0  0  0  0  0  0  0
   24.3921  -17.4928  -17.3576 O   0  0  0  0  0  0  0  0  0  0  0  0
   26.0460  -18.7822  -16.3638 N   0  0  0  0  0  0  0  0  0  0  0  0
   25.2649  -20.0234  -16.3671 C   0  0  1  0  0  0  0  0  0  0  0  0
   26.2820  -21.1155  -16.4430 C   0  0  0  0  0  0  0  0  0  0  0  0
   25.7790  -22.5074  -16.3605 C   0  0  0  0  0  0  0  0  0  0  0  0
   26.9686  -23.4300  -16.6485 C   0  0  0  0  0  0  0  0  0  0  0  0
   26.5114  -24.8755  -16.6977 C   0  0  0  0  0  0  0  0  0  0  0  0
   27.6865  -25.7014  -16.9475 N   0  0  0  0  0  0  0  0  0  0  0  0
   24.4329  -20.0054  -15.1640 C   0  0  0  0  0  0  0  0  0  0  0  0
   24.8561  -19.5106  -14.0597 O   0  0  0  0  0  0  0  0  0  0  0  0
   23.1087  -20.5174  -15.1009 N   0  0  0  0  0  0  0  0  0  0  0  0
   22.2803  -20.3362  -13.8902 C   0  0  1  0  0  0  0  0  0  0  0  0
   22.1889  -18.8624  -13.6730 C   0  0  0  0  0  0  0  0  0  0  0  0
   21.3252  -18.2626  -14.7100 C   0  0  0  0  0  0  0  0  0  0  0  0
   21.8460  -17.7813  -15.8953 C   0  0  0  0  0  0  0  0  0  0  0  0
   21.0337  -17.2244  -16.8613 C   0  0  0  0  0  0  0  0  0  0  0  0
   19.6732  -17.1380  -16.6571 C   0  0  0  0  0  0  0  0  0  0  0  0
   19.1477  -17.6146  -15.4802 C   0  0  0  0  0  0  0  0  0  0  0  0
   19.9441  -18.1709  -14.5112 C   0  0  0  0  0  0  0  0  0  0  0  0
   20.9979  -21.0250  -14.0321 C   0  0  0  0  0  0  0  0  0  0  0  0
   20.7195  -21.5713  -15.1451 O   0  0  0  0  0  0  0  0  0  0  0  0
   20.0426  -21.1398  -13.0481 O   0  0  0  0  0  0  0  0  0  0  0  0
  2  3  1  0
  2  5  1  0
  2  1  1  6
  4  3  1  0
  5  6  2  0
  7  8  1  0
  7  5  1  0
  8 14  1  0
  9 10  1  0
  8  9  1  1
 10 11  1  0
 12 11  1  0
 12 13  1  0
 14 15  2  0
 16 14  1  0
 16 17  1  0
 17 25  1  0
 17 18  1  6
 19 18  1  0
 20 19  2  0
 21 20  1  0
 22 21  2  0
 22 23  1  0
 23 24  2  0
 24 19  1  0
 25 26  2  0
 25 27  1  0
M  END
$$$$
