CKF.pdb
     RDKit          3D

 27 27  0  0  1  0  0  0  0  0999 V2000
   25.1309  -16.6610  -20.8192 N   0  0  0  0  0  0  0  0  0  0  0  0
   25.3100  -16.5673  -19.3938 C   0  0  1  0  0  0  0  0  0  0  0  0
   24.1312  -15.9081  -18.7094 C   0  0  0  0  0  0  0  0  0  0  0  0
   24.0001  -14.1588  -19.1266 S   0  0  0  0  0  0  0  0  0  0  0  0
   25.4288  -17.9517  -18.8440 C   0  0  0  0  0  0  0  0  0  0  0  0
   24.8374  -18.9313  -19.4041 O   0  0  0  0  0  0  0  0  0  0  0  0
   26.2063  -18.1758  -17.6893 N   0  0  0  0  0  0  0  0  0  0  0  0
   26.3784  -19.4942  -17.0707 C   0  0  1  0  0  0  0  0  0  0  0  0
   27.7789  -19.4926  -16.5495 C   0  0  0  0  0  0  0  0  0  0  0  0
   28.2439  -20.7265  -15.8723 C   0  0  0  0  0  0  0  0  0  0  0  0
   28.7265  -21.6827  -16.9686 C   0  0  0  0  0  0  0  0  0  0  0  0
   29.1879  -22.9919  -16.3567 C   0  0  0  0  0  0  0  0  0  0  0  0
   29.5598  -23.8824  -17.4495 N   0  0  0  0  0  0  0  0  0  0  0  0
   25.3220  -19.6348  -16.0685 C   0  0  0  0  0  0  0  0  0  0  0  0
   25.1770  -18.7858  -15.1190 O   0  0  0  0  0  0  0  0  0  0  0  0
   24.3757  -20.6948  -16.0489 N   0  0  0  0  0  0  0  0  0  0  0  0
   23.3753  -20.8009  -14.9659 C   0  0  1  0  0  0  0  0  0  0  0  0
   22.0432  -20.8196  -15.6389 C   0  0  0  0  0  0  0  0  0  0  0  0
   21.7667  -19.4924  -16.2247 C   0  0  0  0  0  0  0  0  0  0  0  0
   21.8177  -19.2790  -17.5885 C   0  0  0  0  0  0  0  0  0  0  0  0
   21.5559  -18.0375  -18.1299 C   0  0  0  0  0  0  0  0  0  0  0  0
   21.2356  -16.9771  -17.3094 C   0  0  0  0  0  0  0  0  0  0  0  0
   21.1831  -17.1817  -15.9515 C   0  0  0  0  0  0  0  0  0  0  0  0
   21.4411  -18.4113  -15.3998 C   0  0  0  0  0  0  0  0  0  0  0  0
   23.6570  -21.9541  -14.1115 C   0  0  0  0  0  0  0  0  0  0  0  0
   24.5980  -22.7417  -14.4416 O   0  0  0  0  0  0  0  0  0  0  0  0
   22.9818  -22.2723  -12.9553 O   0  0  0  0  0  0  0  0  0  0  0  0
  2  3  1  0
  2  5  1  0
  2  1  1  6
  4  3  1  0
  5  6  2  0
  7  8  1  0
  7  5  1  0
  8 14  1  0
  9 10  1  0
  8  9  1  1
 10 11  1  0
 12 11  1  0
 12 13  1  0
 14 15  2  0
 16 14  1  0
 16 17  1  0
 17 25  1  0
 17 18  1  6
 19 18  1  0
 20 19  2  0
 21 20  1  0
 22 21  2  0
 22 23  1  0
 23 24  2  0
 24 19  1  0
 25 26  2  0
 25 27  1  0
M  END
$$$$
