CKF.pdb
     RDKit          3D

 27 27  0  0  1  0  0  0  0  0999 V2000
   25.8808  -13.4680  -20.6226 N   0  0  0  0  0  0  0  0  0  0  0  0
   25.1286  -13.1063  -19.4495 C   0  0  1  0  0  0  0  0  0  0  0  0
   25.9569  -13.1995  -18.1854 C   0  0  0  0  0  0  0  0  0  0  0  0
   24.9451  -13.0369  -16.7018 S   0  0  0  0  0  0  0  0  0  0  0  0
   24.6909  -11.6848  -19.5929 C   0  0  0  0  0  0  0  0  0  0  0  0
   25.5201  -10.7744  -19.9198 O   0  0  0  0  0  0  0  0  0  0  0  0
   23.3413  -11.3474  -19.3630 N   0  0  0  0  0  0  0  0  0  0  0  0
   22.8139   -9.9846  -19.4854 C   0  0  1  0  0  0  0  0  0  0  0  0
   21.4711  -10.1494  -20.1202 C   0  0  0  0  0  0  0  0  0  0  0  0
   21.4364  -10.2542  -21.5984 C   0  0  0  0  0  0  0  0  0  0  0  0
   19.9678  -10.4334  -21.9990 C   0  0  0  0  0  0  0  0  0  0  0  0
   19.8520  -10.6123  -23.5008 C   0  0  0  0  0  0  0  0  0  0  0  0
   20.4798   -9.4579  -24.1321 N   0  0  0  0  0  0  0  0  0  0  0  0
   22.8208   -9.4038  -18.1427 C   0  0  0  0  0  0  0  0  0  0  0  0
   22.2516   -9.9876  -17.1534 O   0  0  0  0  0  0  0  0  0  0  0  0
   23.4435   -8.1708  -17.8090 N   0  0  0  0  0  0  0  0  0  0  0  0
   23.3802   -7.6350  -16.4328 C   0  0  1  0  0  0  0  0  0  0  0  0
   24.7759   -7.2389  -16.0826 C   0  0  0  0  0  0  0  0  0  0  0  0
   25.6493   -8.4296  -16.1103 C   0  0  0  0  0  0  0  0  0  0  0  0
   26.6462   -8.5734  -17.0555 C   0  0  0  0  0  0  0  0  0  0  0  0
   27.4604   -9.6868  -17.0746 C   0  0  0  0  0  0  0  0  0  0  0  0
   27.2906  -10.6857  -16.1400 C   0  0  0  0  0  0  0  0  0  0  0  0
   26.3008  -10.5498  -15.1966 C   0  0  0  0  0  0  0  0  0  0  0  0
   25.4839   -9.4477  -15.1661 C   0  0  0  0  0  0  0  0  0  0  0  0
   22.3875   -6.5649  -16.3387 C   0  0  0  0  0  0  0  0  0  0  0  0
   22.2040   -6.0011  -15.2148 O   0  0  0  0  0  0  0  0  0  0  0  0
   21.6163   -6.1005  -17.3796 O   0  0  0  0  0  0  0  0  0  0  0  0
  2  3  1  0
  2  5  1  0
  2  1  1  6
  4  3  1  0
  5  6  2  0
  7  8  1  0
  7  5  1  0
  8 14  1  0
  9 10  1  0
  8  9  1  1
 10 11  1  0
 12 11  1  0
 12 13  1  0
 14 15  2  0
 16 14  1  0
 16 17  1  0
 17 25  1  0
 17 18  1  6
 19 18  1  0
 20 19  2  0
 21 20  1  0
 22 21  2  0
 22 23  1  0
 23 24  2  0
 24 19  1  0
 25 26  2  0
 25 27  1  0
M  END
$$$$
