CKF.pdb
     RDKit          3D

 27 27  0  0  1  0  0  0  0  0999 V2000
   27.9815  -21.2350  -17.0184 N   0  0  0  0  0  0  0  0  0  0  0  0
   27.7525  -22.0505  -15.8542 C   0  0  1  0  0  0  0  0  0  0  0  0
   29.0438  -22.5428  -15.2354 C   0  0  0  0  0  0  0  0  0  0  0  0
   29.8029  -23.8550  -16.2117 S   0  0  0  0  0  0  0  0  0  0  0  0
   27.0546  -21.2179  -14.8283 C   0  0  0  0  0  0  0  0  0  0  0  0
   27.3434  -19.9861  -14.6781 O   0  0  0  0  0  0  0  0  0  0  0  0
   26.0628  -21.8045  -14.0156 N   0  0  0  0  0  0  0  0  0  0  0  0
   25.2452  -21.0492  -13.0610 C   0  0  1  0  0  0  0  0  0  0  0  0
   23.8424  -21.4920  -13.3240 C   0  0  0  0  0  0  0  0  0  0  0  0
   22.7889  -20.9456  -12.4359 C   0  0  0  0  0  0  0  0  0  0  0  0
   21.4721  -21.6191  -12.8382 C   0  0  0  0  0  0  0  0  0  0  0  0
   20.3232  -21.0506  -12.0272 C   0  0  0  0  0  0  0  0  0  0  0  0
   20.5366  -21.4283  -10.6353 N   0  0  0  0  0  0  0  0  0  0  0  0
   25.7698  -21.3416  -11.7271 C   0  0  0  0  0  0  0  0  0  0  0  0
   25.9837  -22.5436  -11.3360 O   0  0  0  0  0  0  0  0  0  0  0  0
   26.0886  -20.3510  -10.7593 N   0  0  0  0  0  0  0  0  0  0  0  0
   26.5699  -20.7295   -9.4139 C   0  0  1  0  0  0  0  0  0  0  0  0
   27.6569  -19.7627   -9.0805 C   0  0  0  0  0  0  0  0  0  0  0  0
   28.0544  -19.9335   -7.6684 C   0  0  0  0  0  0  0  0  0  0  0  0
   27.5406  -19.1290   -6.6701 C   0  0  0  0  0  0  0  0  0  0  0  0
   27.9138  -19.2951   -5.3525 C   0  0  0  0  0  0  0  0  0  0  0  0
   28.8162  -20.2781   -5.0065 C   0  0  0  0  0  0  0  0  0  0  0  0
   29.3318  -21.0824   -5.9942 C   0  0  0  0  0  0  0  0  0  0  0  0
   28.9692  -20.9280   -7.3086 C   0  0  0  0  0  0  0  0  0  0  0  0
   25.4616  -20.7728   -8.4605 C   0  0  0  0  0  0  0  0  0  0  0  0
   24.4775  -19.9879   -8.6340 O   0  0  0  0  0  0  0  0  0  0  0  0
   25.3837  -21.6054   -7.3674 O   0  0  0  0  0  0  0  0  0  0  0  0
  2  3  1  0
  2  5  1  0
  2  1  1  6
  4  3  1  0
  5  6  2  0
  7  8  1  0
  7  5  1  0
  8 14  1  0
  9 10  1  0
  8  9  1  1
 10 11  1  0
 12 11  1  0
 12 13  1  0
 14 15  2  0
 16 14  1  0
 16 17  1  0
 17 25  1  0
 17 18  1  1
 19 18  1  0
 20 19  2  0
 21 20  1  0
 22 21  2  0
 22 23  1  0
 23 24  2  0
 24 19  1  0
 25 26  2  0
 25 27  1  0
M  END
$$$$
