CKF.pdb
     RDKit          3D

 27 27  0  0  1  0  0  0  0  0999 V2000
   25.9026  -18.0923  -15.8039 N   0  0  0  0  0  0  0  0  0  0  0  0
   26.6241  -18.1418  -14.5591 C   0  0  1  0  0  0  0  0  0  0  0  0
   26.8184  -16.7678  -13.9532 C   0  0  0  0  0  0  0  0  0  0  0  0
   27.8661  -15.7194  -14.9800 S   0  0  0  0  0  0  0  0  0  0  0  0
   25.8273  -18.9500  -13.5870 C   0  0  0  0  0  0  0  0  0  0  0  0
   24.5965  -18.6956  -13.3783 O   0  0  0  0  0  0  0  0  0  0  0  0
   26.4472  -20.0085  -12.8917 N   0  0  0  0  0  0  0  0  0  0  0  0
   25.7331  -20.9079  -11.9798 C   0  0  1  0  0  0  0  0  0  0  0  0
   25.7888  -22.2468  -12.6412 C   0  0  0  0  0  0  0  0  0  0  0  0
   25.0573  -22.3931  -13.9221 C   0  0  0  0  0  0  0  0  0  0  0  0
   25.2560  -23.8400  -14.3871 C   0  0  0  0  0  0  0  0  0  0  0  0
   24.5514  -24.0668  -15.7112 C   0  0  0  0  0  0  0  0  0  0  0  0
   24.8590  -25.4234  -16.1476 N   0  0  0  0  0  0  0  0  0  0  0  0
   26.3951  -20.8079  -10.6791 C   0  0  0  0  0  0  0  0  0  0  0  0
   27.6667  -20.6801  -10.5785 O   0  0  0  0  0  0  0  0  0  0  0  0
   25.7144  -20.8389   -9.4320 N   0  0  0  0  0  0  0  0  0  0  0  0
   26.4613  -20.9379   -8.1603 C   0  0  1  0  0  0  0  0  0  0  0  0
   27.4004  -19.7780   -8.1453 C   0  0  0  0  0  0  0  0  0  0  0  0
   28.0864  -19.7143   -6.8389 C   0  0  0  0  0  0  0  0  0  0  0  0
   27.6972  -18.8203   -5.8605 C   0  0  0  0  0  0  0  0  0  0  0  0
   28.3403  -18.7674   -4.6413 C   0  0  0  0  0  0  0  0  0  0  0  0
   29.3941  -19.6156   -4.3762 C   0  0  0  0  0  0  0  0  0  0  0  0
   29.7871  -20.5077   -5.3447 C   0  0  0  0  0  0  0  0  0  0  0  0
   29.1563  -20.5710   -6.5616 C   0  0  0  0  0  0  0  0  0  0  0  0
   25.5429  -21.0097   -7.0243 C   0  0  0  0  0  0  0  0  0  0  0  0
   24.3720  -20.5341   -7.1563 O   0  0  0  0  0  0  0  0  0  0  0  0
   25.8361  -21.5587   -5.7968 O   0  0  0  0  0  0  0  0  0  0  0  0
  2  3  1  0
  2  5  1  0
  2  1  1  6
  4  3  1  0
  5  6  2  0
  7  8  1  0
  7  5  1  0
  8 14  1  0
  9 10  1  0
  8  9  1  6
 10 11  1  0
 12 11  1  0
 12 13  1  0
 14 15  2  0
 16 14  1  0
 16 17  1  0
 17 25  1  0
 17 18  1  1
 19 18  1  0
 20 19  2  0
 21 20  1  0
 22 21  2  0
 22 23  1  0
 23 24  2  0
 24 19  1  0
 25 26  2  0
 25 27  1  0
M  END
$$$$
