CKF.pdb
     RDKit          3D

 27 27  0  0  1  0  0  0  0  0999 V2000
   27.0262  -24.4439  -17.8458 N   0  0  0  0  0  0  0  0  0  0  0  0
   25.6239  -24.2164  -17.6122 C   0  0  1  0  0  0  0  0  0  0  0  0
   24.9784  -25.3511  -16.8452 C   0  0  0  0  0  0  0  0  0  0  0  0
   25.6125  -25.4747  -15.1618 S   0  0  0  0  0  0  0  0  0  0  0  0
   25.4808  -22.9800  -16.7854 C   0  0  0  0  0  0  0  0  0  0  0  0
   26.5061  -22.3542  -16.3608 O   0  0  0  0  0  0  0  0  0  0  0  0
   24.1927  -22.5001  -16.4713 N   0  0  0  0  0  0  0  0  0  0  0  0
   23.9457  -21.2221  -15.7959 C   0  0  1  0  0  0  0  0  0  0  0  0
   22.5414  -20.8624  -16.1588 C   0  0  0  0  0  0  0  0  0  0  0  0
   22.3630  -19.8439  -17.2208 C   0  0  0  0  0  0  0  0  0  0  0  0
   20.8538  -19.6508  -17.4055 C   0  0  0  0  0  0  0  0  0  0  0  0
   20.5806  -18.7862  -18.6216 C   0  0  0  0  0  0  0  0  0  0  0  0
   20.5805  -17.3958  -18.1829 N   0  0  0  0  0  0  0  0  0  0  0  0
   24.2045  -21.4367  -14.3721 C   0  0  0  0  0  0  0  0  0  0  0  0
   23.7760  -22.4778  -13.7590 O   0  0  0  0  0  0  0  0  0  0  0  0
   24.9381  -20.5396  -13.5496 N   0  0  0  0  0  0  0  0  0  0  0  0
   25.0730  -20.7773  -12.0969 C   0  0  1  0  0  0  0  0  0  0  0  0
   26.3413  -20.1053  -11.6877 C   0  0  0  0  0  0  0  0  0  0  0  0
   26.4838  -20.1707  -10.2191 C   0  0  0  0  0  0  0  0  0  0  0  0
   27.0711  -21.2552   -9.5972 C   0  0  0  0  0  0  0  0  0  0  0  0
   27.2036  -21.3093   -8.2252 C   0  0  0  0  0  0  0  0  0  0  0  0
   26.7467  -20.2701   -7.4432 C   0  0  0  0  0  0  0  0  0  0  0  0
   26.1611  -19.1878   -8.0549 C   0  0  0  0  0  0  0  0  0  0  0  0
   26.0230  -19.1210   -9.4184 C   0  0  0  0  0  0  0  0  0  0  0  0
   23.8752  -20.3319  -11.3856 C   0  0  0  0  0  0  0  0  0  0  0  0
   23.2598  -19.3051  -11.8119 O   0  0  0  0  0  0  0  0  0  0  0  0
   23.3396  -20.9368  -10.2715 O   0  0  0  0  0  0  0  0  0  0  0  0
  2  3  1  0
  2  5  1  0
  2  1  1  1
  4  3  1  0
  5  6  2  0
  7  8  1  0
  7  5  1  0
  8 14  1  0
  9 10  1  0
  8  9  1  1
 10 11  1  0
 12 11  1  0
 12 13  1  0
 14 15  2  0
 16 14  1  0
 16 17  1  0
 17 25  1  0
 17 18  1  1
 19 18  1  0
 20 19  2  0
 21 20  1  0
 22 21  2  0
 22 23  1  0
 23 24  2  0
 24 19  1  0
 25 26  2  0
 25 27  1  0
M  END
$$$$
