CKF.pdb
     RDKit          3D

 27 27  0  0  1  0  0  0  0  0999 V2000
   24.8818  -17.5793  -15.8928 N   0  0  0  0  0  0  0  0  0  0  0  0
   25.7219  -17.5096  -14.7257 C   0  0  1  0  0  0  0  0  0  0  0  0
   25.3213  -16.3830  -13.7967 C   0  0  0  0  0  0  0  0  0  0  0  0
   25.3451  -14.7826  -14.6270 S   0  0  0  0  0  0  0  0  0  0  0  0
   25.5764  -18.7881  -13.9661 C   0  0  0  0  0  0  0  0  0  0  0  0
   24.4996  -19.4664  -14.0265 O   0  0  0  0  0  0  0  0  0  0  0  0
   26.6461  -19.2493  -13.1717 N   0  0  0  0  0  0  0  0  0  0  0  0
   26.7124  -20.6006  -12.6061 C   0  0  1  0  0  0  0  0  0  0  0  0
   27.8752  -21.2448  -13.2889 C   0  0  0  0  0  0  0  0  0  0  0  0
   27.6618  -21.7121  -14.6793 C   0  0  0  0  0  0  0  0  0  0  0  0
   28.9880  -22.3143  -15.1565 C   0  0  0  0  0  0  0  0  0  0  0  0
   28.8468  -22.8375  -16.5733 C   0  0  0  0  0  0  0  0  0  0  0  0
   30.1476  -23.3505  -16.9856 N   0  0  0  0  0  0  0  0  0  0  0  0
   26.8249  -20.4493  -11.1553 C   0  0  0  0  0  0  0  0  0  0  0  0
   27.2869  -19.3781  -10.6237 O   0  0  0  0  0  0  0  0  0  0  0  0
   26.4417  -21.4447  -10.2164 N   0  0  0  0  0  0  0  0  0  0  0  0
   26.5741  -21.2102   -8.7630 C   0  0  1  0  0  0  0  0  0  0  0  0
   27.6599  -20.1978   -8.6085 C   0  0  0  0  0  0  0  0  0  0  0  0
   27.9464  -19.9954   -7.1738 C   0  0  0  0  0  0  0  0  0  0  0  0
   28.7002  -20.9003   -6.4522 C   0  0  0  0  0  0  0  0  0  0  0  0
   28.9666  -20.7043   -5.1130 C   0  0  0  0  0  0  0  0  0  0  0  0
   28.4790  -19.5894   -4.4652 C   0  0  0  0  0  0  0  0  0  0  0  0
   27.7281  -18.6848   -5.1766 C   0  0  0  0  0  0  0  0  0  0  0  0
   27.4557  -18.8673   -6.5089 C   0  0  0  0  0  0  0  0  0  0  0  0
   25.2864  -20.8356   -8.1793 C   0  0  0  0  0  0  0  0  0  0  0  0
   24.9727  -21.3073   -7.0418 O   0  0  0  0  0  0  0  0  0  0  0  0
   24.3615  -19.9990   -8.7612 O   0  0  0  0  0  0  0  0  0  0  0  0
  2  3  1  0
  2  5  1  0
  2  1  1  6
  4  3  1  0
  5  6  2  0
  7  8  1  0
  7  5  1  0
  8 14  1  0
  9 10  1  0
  8  9  1  6
 10 11  1  0
 12 11  1  0
 12 13  1  0
 14 15  2  0
 16 14  1  0
 16 17  1  0
 17 25  1  0
 17 18  1  6
 19 18  1  0
 20 19  2  0
 21 20  1  0
 22 21  2  0
 22 23  1  0
 23 24  2  0
 24 19  1  0
 25 26  2  0
 25 27  1  0
M  END
$$$$
