CKF.pdb
     RDKit          3D

 27 27  0  0  1  0  0  0  0  0999 V2000
   22.4021  -16.7549  -20.5124 N   0  0  0  0  0  0  0  0  0  0  0  0
   22.5769  -16.6830  -19.0852 C   0  0  1  0  0  0  0  0  0  0  0  0
   21.2873  -16.3493  -18.3652 C   0  0  0  0  0  0  0  0  0  0  0  0
   21.5714  -15.3134  -16.9170 S   0  0  0  0  0  0  0  0  0  0  0  0
   23.0258  -18.0230  -18.5996 C   0  0  0  0  0  0  0  0  0  0  0  0
   22.4459  -19.0883  -18.9893 O   0  0  0  0  0  0  0  0  0  0  0  0
   24.1062  -18.1084  -17.6976 N   0  0  0  0  0  0  0  0  0  0  0  0
   24.6140  -19.3737  -17.1579 C   0  0  1  0  0  0  0  0  0  0  0  0
   26.1007  -19.2232  -17.1637 C   0  0  0  0  0  0  0  0  0  0  0  0
   26.8007  -19.5268  -18.4346 C   0  0  0  0  0  0  0  0  0  0  0  0
   28.2863  -19.2245  -18.2095 C   0  0  0  0  0  0  0  0  0  0  0  0
   29.0629  -19.4230  -19.4973 C   0  0  0  0  0  0  0  0  0  0  0  0
   30.4518  -19.0667  -19.2340 N   0  0  0  0  0  0  0  0  0  0  0  0
   23.9937  -19.5557  -15.8455 C   0  0  0  0  0  0  0  0  0  0  0  0
   24.2304  -18.7560  -14.8719 O   0  0  0  0  0  0  0  0  0  0  0  0
   23.0901  -20.6055  -15.5278 N   0  0  0  0  0  0  0  0  0  0  0  0
   22.4663  -20.6931  -14.1906 C   0  0  1  0  0  0  0  0  0  0  0  0
   21.7495  -19.3999  -13.9872 C   0  0  0  0  0  0  0  0  0  0  0  0
   20.4534  -19.4366  -14.6943 C   0  0  0  0  0  0  0  0  0  0  0  0
   20.3587  -19.1651  -16.0453 C   0  0  0  0  0  0  0  0  0  0  0  0
   19.1455  -19.2035  -16.7007 C   0  0  0  0  0  0  0  0  0  0  0  0
   17.9944  -19.5170  -16.0101 C   0  0  0  0  0  0  0  0  0  0  0  0
   18.0807  -19.7882  -14.6657 C   0  0  0  0  0  0  0  0  0  0  0  0
   19.2808  -19.7536  -14.0015 C   0  0  0  0  0  0  0  0  0  0  0  0
   21.6323  -21.8900  -14.0854 C   0  0  0  0  0  0  0  0  0  0  0  0
   21.0466  -22.1297  -12.9835 O   0  0  0  0  0  0  0  0  0  0  0  0
   21.4174  -22.8019  -15.0935 O   0  0  0  0  0  0  0  0  0  0  0  0
  2  3  1  0
  2  5  1  0
  2  1  1  6
  4  3  1  0
  5  6  2  0
  7  8  1  0
  7  5  1  0
  8 14  1  0
  9 10  1  0
  8  9  1  1
 10 11  1  0
 12 11  1  0
 12 13  1  0
 14 15  2  0
 16 14  1  0
 16 17  1  0
 17 25  1  0
 17 18  1  6
 19 18  1  0
 20 19  2  0
 21 20  1  0
 22 21  2  0
 22 23  1  0
 23 24  2  0
 24 19  1  0
 25 26  2  0
 25 27  1  0
M  END
$$$$
