CKF.pdb
     RDKit          3D

 27 27  0  0  1  0  0  0  0  0999 V2000
   22.8917  -20.3369  -14.4993 N   0  0  0  0  0  0  0  0  0  0  0  0
   23.3919  -19.9119  -13.2179 C   0  0  1  0  0  0  0  0  0  0  0  0
   22.3706  -20.0923  -12.1147 C   0  0  0  0  0  0  0  0  0  0  0  0
   20.8514  -19.1791  -12.4453 S   0  0  0  0  0  0  0  0  0  0  0  0
   24.5756  -20.7562  -12.8731 C   0  0  0  0  0  0  0  0  0  0  0  0
   24.5473  -22.0198  -13.0334 O   0  0  0  0  0  0  0  0  0  0  0  0
   25.7395  -20.1449  -12.3633 N   0  0  0  0  0  0  0  0  0  0  0  0
   26.9492  -20.8863  -11.9928 C   0  0  1  0  0  0  0  0  0  0  0  0
   28.0746  -20.1065  -12.5916 C   0  0  0  0  0  0  0  0  0  0  0  0
   27.8995  -19.6405  -13.9878 C   0  0  0  0  0  0  0  0  0  0  0  0
   28.2547  -20.8199  -14.9000 C   0  0  0  0  0  0  0  0  0  0  0  0
   28.1599  -20.4039  -16.3558 C   0  0  0  0  0  0  0  0  0  0  0  0
   29.5065  -20.4405  -16.9133 N   0  0  0  0  0  0  0  0  0  0  0  0
   26.9506  -20.9960  -10.5340 C   0  0  0  0  0  0  0  0  0  0  0  0
   27.8666  -21.6381   -9.9078 O   0  0  0  0  0  0  0  0  0  0  0  0
   25.9667  -20.4161   -9.6885 N   0  0  0  0  0  0  0  0  0  0  0  0
   25.9646  -20.6776   -8.2337 C   0  0  1  0  0  0  0  0  0  0  0  0
   26.3323  -19.3850   -7.5844 C   0  0  0  0  0  0  0  0  0  0  0  0
   27.4757  -19.5969   -6.6738 C   0  0  0  0  0  0  0  0  0  0  0  0
   28.6651  -18.9134   -6.8353 C   0  0  0  0  0  0  0  0  0  0  0  0
   29.7286  -19.1138   -5.9800 C   0  0  0  0  0  0  0  0  0  0  0  0
   29.6207  -20.0098   -4.9379 C   0  0  0  0  0  0  0  0  0  0  0  0
   28.4404  -20.6935   -4.7710 C   0  0  0  0  0  0  0  0  0  0  0  0
   27.3748  -20.5038   -5.6143 C   0  0  0  0  0  0  0  0  0  0  0  0
   24.6842  -21.2442   -7.8109 C   0  0  0  0  0  0  0  0  0  0  0  0
   23.6732  -21.0963   -8.5664 O   0  0  0  0  0  0  0  0  0  0  0  0
   24.4681  -21.9400   -6.6434 O   0  0  0  0  0  0  0  0  0  0  0  0
  2  3  1  0
  2  5  1  0
  2  1  1  6
  4  3  1  0
  5  6  2  0
  7  8  1  0
  7  5  1  0
  8 14  1  0
  9 10  1  0
  8  9  1  1
 10 11  1  0
 12 11  1  0
 12 13  1  0
 14 15  2  0
 16 14  1  0
 16 17  1  0
 17 25  1  0
 17 18  1  1
 19 18  1  0
 20 19  2  0
 21 20  1  0
 22 21  2  0
 22 23  1  0
 23 24  2  0
 24 19  1  0
 25 26  2  0
 25 27  1  0
M  END
$$$$
