CKF.pdb
     RDKit          3D

 27 27  0  0  1  0  0  0  0  0999 V2000
   26.1963  -13.9136  -19.4073 N   0  0  0  0  0  0  0  0  0  0  0  0
   25.2658  -13.9691  -18.3102 C   0  0  1  0  0  0  0  0  0  0  0  0
   25.9640  -14.0319  -16.9681 C   0  0  0  0  0  0  0  0  0  0  0  0
   27.3374  -12.8680  -16.8666 S   0  0  0  0  0  0  0  0  0  0  0  0
   24.4443  -12.7211  -18.3283 C   0  0  0  0  0  0  0  0  0  0  0  0
   24.8903  -11.6516  -18.8580 O   0  0  0  0  0  0  0  0  0  0  0  0
   23.1579  -12.7281  -17.7510 N   0  0  0  0  0  0  0  0  0  0  0  0
   22.2479  -11.5787  -17.7838 C   0  0  1  0  0  0  0  0  0  0  0  0
   20.8776  -12.1747  -17.7691 C   0  0  0  0  0  0  0  0  0  0  0  0
   19.7370  -11.2374  -17.9018 C   0  0  0  0  0  0  0  0  0  0  0  0
   18.4603  -12.0855  -17.9073 C   0  0  0  0  0  0  0  0  0  0  0  0
   17.2430  -11.1995  -18.0923 C   0  0  0  0  0  0  0  0  0  0  0  0
   16.0790  -12.0691  -18.2126 N   0  0  0  0  0  0  0  0  0  0  0  0
   22.5906  -10.7323  -16.6408 C   0  0  0  0  0  0  0  0  0  0  0  0
   22.7887  -11.2243  -15.4737 O   0  0  0  0  0  0  0  0  0  0  0  0
   22.7369   -9.3204  -16.7079 N   0  0  0  0  0  0  0  0  0  0  0  0
   23.0120   -8.5258  -15.4922 C   0  0  1  0  0  0  0  0  0  0  0  0
   24.2665   -7.7676  -15.7734 C   0  0  0  0  0  0  0  0  0  0  0  0
   25.3919   -8.7121  -15.9234 C   0  0  0  0  0  0  0  0  0  0  0  0
   25.6978   -9.6343  -14.9416 C   0  0  0  0  0  0  0  0  0  0  0  0
   26.7488  -10.5156  -15.0886 C   0  0  0  0  0  0  0  0  0  0  0  0
   27.5199  -10.4902  -16.2310 C   0  0  0  0  0  0  0  0  0  0  0  0
   27.2217   -9.5755  -17.2121 C   0  0  0  0  0  0  0  0  0  0  0  0
   26.1793   -8.6932  -17.0788 C   0  0  0  0  0  0  0  0  0  0  0  0
   21.8549   -7.7047  -15.1372 C   0  0  0  0  0  0  0  0  0  0  0  0
   20.9127   -7.5822  -15.9809 O   0  0  0  0  0  0  0  0  0  0  0  0
   21.6877   -7.0374  -13.9452 O   0  0  0  0  0  0  0  0  0  0  0  0
  2  3  1  0
  2  5  1  0
  2  1  1  6
  4  3  1  0
  5  6  2  0
  7  8  1  0
  7  5  1  0
  8 14  1  0
  9 10  1  0
  8  9  1  1
 10 11  1  0
 12 11  1  0
 12 13  1  0
 14 15  2  0
 16 14  1  0
 16 17  1  0
 17 25  1  0
 17 18  1  6
 19 18  1  0
 20 19  2  0
 21 20  1  0
 22 21  2  0
 22 23  1  0
 23 24  2  0
 24 19  1  0
 25 26  2  0
 25 27  1  0
M  END
$$$$
