CKF.pdb
     RDKit          3D

 27 27  0  0  1  0  0  0  0  0999 V2000
   27.7001  -17.7802  -17.4798 N   0  0  0  0  0  0  0  0  0  0  0  0
   27.4248  -18.3484  -16.1860 C   0  0  1  0  0  0  0  0  0  0  0  0
   26.8743  -17.3251  -15.2151 C   0  0  0  0  0  0  0  0  0  0  0  0
   28.0804  -16.0405  -14.8325 S   0  0  0  0  0  0  0  0  0  0  0  0
   26.3869  -19.4106  -16.3515 C   0  0  0  0  0  0  0  0  0  0  0  0
   25.4478  -19.2812  -17.2027 O   0  0  0  0  0  0  0  0  0  0  0  0
   26.4487  -20.5718  -15.5540 N   0  0  0  0  0  0  0  0  0  0  0  0
   25.5051  -21.6881  -15.6725 C   0  0  1  0  0  0  0  0  0  0  0  0
   26.3645  -22.9026  -15.8118 C   0  0  0  0  0  0  0  0  0  0  0  0
   26.9016  -23.1929  -17.1625 C   0  0  0  0  0  0  0  0  0  0  0  0
   27.7779  -24.4440  -17.0352 C   0  0  0  0  0  0  0  0  0  0  0  0
   26.9170  -25.6925  -17.0655 C   0  0  0  0  0  0  0  0  0  0  0  0
   27.8109  -26.8437  -17.0999 N   0  0  0  0  0  0  0  0  0  0  0  0
   24.6443  -21.6445  -14.4903 C   0  0  0  0  0  0  0  0  0  0  0  0
   25.1155  -21.7983  -13.3081 O   0  0  0  0  0  0  0  0  0  0  0  0
   23.2401  -21.4308  -14.5323 N   0  0  0  0  0  0  0  0  0  0  0  0
   22.4659  -21.2186  -13.2911 C   0  0  1  0  0  0  0  0  0  0  0  0
   22.8525  -19.8658  -12.7932 C   0  0  0  0  0  0  0  0  0  0  0  0
   24.0007  -19.9875  -11.8723 C   0  0  0  0  0  0  0  0  0  0  0  0
   23.8313  -20.3415  -10.5480 C   0  0  0  0  0  0  0  0  0  0  0  0
   24.9080  -20.4561   -9.6934 C   0  0  0  0  0  0  0  0  0  0  0  0
   26.1856  -20.2163  -10.1522 C   0  0  0  0  0  0  0  0  0  0  0  0
   26.3621  -19.8636  -11.4686 C   0  0  0  0  0  0  0  0  0  0  0  0
   25.3000  -19.7461  -12.3294 C   0  0  0  0  0  0  0  0  0  0  0  0
   21.0359  -21.4071  -13.5338 C   0  0  0  0  0  0  0  0  0  0  0  0
   20.2383  -21.3572  -12.5459 O   0  0  0  0  0  0  0  0  0  0  0  0
   20.4605  -21.6380  -14.7625 O   0  0  0  0  0  0  0  0  0  0  0  0
  2  3  1  0
  2  5  1  0
  2  1  1  6
  4  3  1  0
  5  6  2  0
  7  8  1  0
  7  5  1  0
  8 14  1  0
  9 10  1  0
  8  9  1  1
 10 11  1  0
 12 11  1  0
 12 13  1  0
 14 15  2  0
 16 14  1  0
 16 17  1  0
 17 25  1  0
 17 18  1  6
 19 18  1  0
 20 19  2  0
 21 20  1  0
 22 21  2  0
 22 23  1  0
 23 24  2  0
 24 19  1  0
 25 26  2  0
 25 27  1  0
M  END
$$$$
