CKF.pdb
     RDKit          3D

 27 27  0  0  1  0  0  0  0  0999 V2000
   27.4300  -17.3831  -18.7600 N   0  0  0  0  0  0  0  0  0  0  0  0
   27.0512  -17.8237  -17.4428 C   0  0  1  0  0  0  0  0  0  0  0  0
   25.9906  -16.9376  -16.8242 C   0  0  0  0  0  0  0  0  0  0  0  0
   26.5275  -15.2201  -16.7115 S   0  0  0  0  0  0  0  0  0  0  0  0
   26.4751  -19.1979  -17.5555 C   0  0  0  0  0  0  0  0  0  0  0  0
   26.1485  -19.6797  -18.6888 O   0  0  0  0  0  0  0  0  0  0  0  0
   26.2910  -19.9711  -16.3909 N   0  0  0  0  0  0  0  0  0  0  0  0
   26.2064  -21.4351  -16.3944 C   0  0  1  0  0  0  0  0  0  0  0  0
   27.5101  -21.8925  -16.9639 C   0  0  0  0  0  0  0  0  0  0  0  0
   27.4803  -23.1011  -17.8215 C   0  0  0  0  0  0  0  0  0  0  0  0
   27.2857  -24.3038  -16.8916 C   0  0  0  0  0  0  0  0  0  0  0  0
   27.3283  -25.5945  -17.6875 C   0  0  0  0  0  0  0  0  0  0  0  0
   27.3143  -26.6995  -16.7366 N   0  0  0  0  0  0  0  0  0  0  0  0
   25.9281  -21.8483  -15.0189 C   0  0  0  0  0  0  0  0  0  0  0  0
   26.8028  -22.4607  -14.3095 O   0  0  0  0  0  0  0  0  0  0  0  0
   24.6965  -21.6164  -14.3490 N   0  0  0  0  0  0  0  0  0  0  0  0
   24.5982  -21.7273  -12.8783 C   0  0  1  0  0  0  0  0  0  0  0  0
   25.6257  -20.7954  -12.3275 C   0  0  0  0  0  0  0  0  0  0  0  0
   25.5583  -20.8014  -10.8521 C   0  0  0  0  0  0  0  0  0  0  0  0
   24.4705  -20.2845  -10.1758 C   0  0  0  0  0  0  0  0  0  0  0  0
   24.4123  -20.2954   -8.7976 C   0  0  0  0  0  0  0  0  0  0  0  0
   25.4507  -20.8284   -8.0642 C   0  0  0  0  0  0  0  0  0  0  0  0
   26.5363  -21.3444   -8.7301 C   0  0  0  0  0  0  0  0  0  0  0  0
   26.6072  -21.3401  -10.1004 C   0  0  0  0  0  0  0  0  0  0  0  0
   23.2284  -21.4783  -12.4303 C   0  0  0  0  0  0  0  0  0  0  0  0
   22.5436  -20.5905  -13.0283 O   0  0  0  0  0  0  0  0  0  0  0  0
   22.5971  -22.1328  -11.3973 O   0  0  0  0  0  0  0  0  0  0  0  0
  2  3  1  0
  2  5  1  0
  2  1  1  6
  4  3  1  0
  5  6  2  0
  7  8  1  0
  7  5  1  0
  8 14  1  0
  9 10  1  0
  8  9  1  1
 10 11  1  0
 12 11  1  0
 12 13  1  0
 14 15  2  0
 16 14  1  0
 16 17  1  0
 17 25  1  0
 17 18  1  1
 19 18  1  0
 20 19  2  0
 21 20  1  0
 22 21  2  0
 22 23  1  0
 23 24  2  0
 24 19  1  0
 25 26  2  0
 25 27  1  0
M  END
$$$$
