CKF.pdb
     RDKit          3D

 27 27  0  0  1  0  0  0  0  0999 V2000
   21.1729  -18.0962  -17.5530 N   0  0  0  0  0  0  0  0  0  0  0  0
   22.1587  -17.4469  -16.7287 C   0  0  1  0  0  0  0  0  0  0  0  0
   21.5608  -16.8786  -15.4590 C   0  0  0  0  0  0  0  0  0  0  0  0
   20.5973  -15.3877  -15.7750 S   0  0  0  0  0  0  0  0  0  0  0  0
   23.1772  -18.4638  -16.3267 C   0  0  0  0  0  0  0  0  0  0  0  0
   22.8235  -19.6063  -15.8876 O   0  0  0  0  0  0  0  0  0  0  0  0
   24.5483  -18.1535  -16.4351 N   0  0  0  0  0  0  0  0  0  0  0  0
   25.6203  -19.1320  -16.2255 C   0  0  1  0  0  0  0  0  0  0  0  0
   26.7437  -18.6602  -17.0907 C   0  0  0  0  0  0  0  0  0  0  0  0
   28.0279  -19.3923  -16.9809 C   0  0  0  0  0  0  0  0  0  0  0  0
   28.2969  -20.0297  -18.3486 C   0  0  0  0  0  0  0  0  0  0  0  0
   29.6018  -20.8027  -18.3194 C   0  0  0  0  0  0  0  0  0  0  0  0
   29.8384  -21.3193  -19.6620 N   0  0  0  0  0  0  0  0  0  0  0  0
   25.8896  -19.1663  -14.7880 C   0  0  0  0  0  0  0  0  0  0  0  0
   25.7117  -18.1372  -14.0446 O   0  0  0  0  0  0  0  0  0  0  0  0
   26.3595  -20.3119  -14.0906 N   0  0  0  0  0  0  0  0  0  0  0  0
   26.6276  -20.2607  -12.6379 C   0  0  1  0  0  0  0  0  0  0  0  0
   25.3384  -19.8674  -11.9969 C   0  0  0  0  0  0  0  0  0  0  0  0
   25.4807  -19.9196  -10.5278 C   0  0  0  0  0  0  0  0  0  0  0  0
   24.9349  -20.9478   -9.7845 C   0  0  0  0  0  0  0  0  0  0  0  0
   25.0734  -20.9924   -8.4127 C   0  0  0  0  0  0  0  0  0  0  0  0
   25.7668  -20.0000   -7.7535 C   0  0  0  0  0  0  0  0  0  0  0  0
   26.3126  -18.9736   -8.4863 C   0  0  0  0  0  0  0  0  0  0  0  0
   26.1824  -18.9170   -9.8511 C   0  0  0  0  0  0  0  0  0  0  0  0
   27.1942  -21.5256  -12.1708 C   0  0  0  0  0  0  0  0  0  0  0  0
   26.8049  -22.6058  -12.7153 O   0  0  0  0  0  0  0  0  0  0  0  0
   28.1330  -21.6573  -11.1732 O   0  0  0  0  0  0  0  0  0  0  0  0
  2  3  1  0
  2  5  1  0
  2  1  1  6
  4  3  1  0
  5  6  2  0
  7  8  1  0
  7  5  1  0
  8 14  1  0
  9 10  1  0
  8  9  1  6
 10 11  1  0
 12 11  1  0
 12 13  1  0
 14 15  2  0
 16 14  1  0
 16 17  1  0
 17 25  1  0
 17 18  1  1
 19 18  1  0
 20 19  2  0
 21 20  1  0
 22 21  2  0
 22 23  1  0
 23 24  2  0
 24 19  1  0
 25 26  2  0
 25 27  1  0
M  END
$$$$
