MEH.pdb
     RDKit          3D

 28 28  0  0  1  0  0  0  0  0999 V2000
   14.7166  -12.3159  -18.1041 C   0  0  0  0  0  0  0  0  0  0  0  0
   15.9744  -12.5390  -19.3662 S   0  0  0  0  0  0  0  0  0  0  0  0
   17.6384  -12.2817  -18.7497 C   0  0  0  0  0  0  0  0  0  0  0  0
   17.6674  -11.3770  -17.5560 C   0  0  0  0  0  0  0  0  0  0  0  0
   19.0546  -11.1170  -17.0110 C   0  0  2  0  0  0  0  0  0  0  0  0
   19.5135  -12.2845  -16.3006 N   0  0  0  0  0  0  0  0  0  0  0  0
   18.9069   -9.9624  -16.0627 C   0  0  0  0  0  0  0  0  0  0  0  0
   18.0818   -9.9992  -15.1091 O   0  0  0  0  0  0  0  0  0  0  0  0
   19.6507   -8.7824  -16.1525 N   0  0  0  0  0  0  0  0  0  0  0  0
   19.6242   -7.6482  -15.2884 C   0  0  1  0  0  0  0  0  0  0  0  0
   20.9114   -6.9407  -15.0805 C   0  0  0  0  0  0  0  0  0  0  0  0
   20.8271   -5.7530  -14.1410 C   0  0  0  0  0  0  0  0  0  0  0  0
   22.1024   -5.0031  -14.0921 C   0  0  0  0  0  0  0  0  0  0  0  0
   23.1678   -5.5287  -14.4638 O   0  0  0  0  0  0  0  0  0  0  0  0
   18.5752   -6.7215  -15.7498 C   0  0  0  0  0  0  0  0  0  0  0  0
   18.4613   -6.4319  -16.9731 O   0  0  0  0  0  0  0  0  0  0  0  0
   22.1259   -3.6973  -13.6310 O   0  0  0  0  0  0  0  0  0  0  0  0
   17.6198   -6.0851  -14.8813 N   0  0  0  0  0  0  0  0  0  0  0  0
   16.7712   -5.0484  -15.4263 C   0  0  1  0  0  0  0  0  0  0  0  0
   15.3861   -5.2096  -14.9274 C   0  0  0  0  0  0  0  0  0  0  0  0
   14.4279   -4.1764  -15.3602 C   0  0  0  0  0  0  0  0  0  0  0  0
   13.8526   -3.2286  -14.5044 C   0  0  0  0  0  0  0  0  0  0  0  0
   13.0208   -2.4546  -15.2072 N   0  0  0  0  0  0  0  0  0  0  0  0
   13.0494   -2.8798  -16.4862 C   0  0  0  0  0  0  0  0  0  0  0  0
   13.8939   -3.9063  -16.5570 N   0  0  0  0  0  0  0  0  0  0  0  0
   17.3159   -3.6910  -15.0281 C   0  0  0  0  0  0  0  0  0  0  0  0
   16.9789   -2.6721  -15.6748 O   0  0  0  0  0  0  0  0  0  0  0  0
   18.1794   -3.5416  -13.9642 O   0  0  0  0  0  0  0  0  0  0  0  0
  1  2  1  0
  3  2  1  0
  4  3  1  0
  5  4  1  0
  5  6  1  1
  7  5  1  0
  8  7  2  0
  9  7  1  0
 10  9  1  0
 11 12  1  0
 10 11  1  6
 12 13  1  0
 13 17  1  0
 13 14  2  0
 15 10  1  0
 15 18  1  0
 16 15  2  0
 19 18  1  0
 19 20  1  1
 20 21  1  0
 21 22  2  0
 21 25  1  0
 22 23  1  0
 23 24  1  0
 25 24  2  0
 26 19  1  0
 27 26  2  0
 28 26  1  0
M  END
$$$$
