MEH.pdb
     RDKit          3D

 28 28  0  0  1  0  0  0  0  0999 V2000
   26.7466  -15.2770  -14.5492 C   0  0  0  0  0  0  0  0  0  0  0  0
   27.0820  -16.8094  -15.4233 S   0  0  0  0  0  0  0  0  0  0  0  0
   26.5909  -16.7544  -17.1470 C   0  0  0  0  0  0  0  0  0  0  0  0
   25.2175  -17.3120  -17.3635 C   0  0  0  0  0  0  0  0  0  0  0  0
   24.1017  -16.3206  -17.1167 C   0  0  2  0  0  0  0  0  0  0  0  0
   23.9666  -16.0992  -15.6986 N   0  0  0  0  0  0  0  0  0  0  0  0
   22.8592  -16.9669  -17.6574 C   0  0  0  0  0  0  0  0  0  0  0  0
   22.7948  -17.3652  -18.8528 O   0  0  0  0  0  0  0  0  0  0  0  0
   21.7010  -17.1774  -16.9037 N   0  0  0  0  0  0  0  0  0  0  0  0
   20.4837  -17.8041  -17.3025 C   0  0  1  0  0  0  0  0  0  0  0  0
   19.9119  -18.8021  -16.3656 C   0  0  0  0  0  0  0  0  0  0  0  0
   20.8969  -19.8564  -15.8978 C   0  0  0  0  0  0  0  0  0  0  0  0
   20.7365  -20.1533  -14.4566 C   0  0  0  0  0  0  0  0  0  0  0  0
   21.0267  -19.3051  -13.5929 O   0  0  0  0  0  0  0  0  0  0  0  0
   19.4976  -16.7612  -17.6372 C   0  0  0  0  0  0  0  0  0  0  0  0
   19.3910  -15.7217  -16.9290 O   0  0  0  0  0  0  0  0  0  0  0  0
   20.2560  -21.3864  -14.0483 O   0  0  0  0  0  0  0  0  0  0  0  0
   18.5992  -16.8287  -18.7599 N   0  0  0  0  0  0  0  0  0  0  0  0
   17.6483  -15.7559  -18.9517 C   0  0  1  0  0  0  0  0  0  0  0  0
   17.1234  -15.7824  -20.3362 C   0  0  0  0  0  0  0  0  0  0  0  0
   16.2131  -14.6796  -20.6945 C   0  0  0  0  0  0  0  0  0  0  0  0
   15.7580  -13.7100  -19.7920 C   0  0  0  0  0  0  0  0  0  0  0  0
   14.9392  -12.8697  -20.4310 N   0  0  0  0  0  0  0  0  0  0  0  0
   14.8595  -13.2738  -21.7147 C   0  0  0  0  0  0  0  0  0  0  0  0
   15.6258  -14.3536  -21.8518 N   0  0  0  0  0  0  0  0  0  0  0  0
   16.5129  -15.9062  -17.9587 C   0  0  0  0  0  0  0  0  0  0  0  0
   16.1136  -17.0503  -17.6399 O   0  0  0  0  0  0  0  0  0  0  0  0
   15.9002  -14.8109  -17.3891 O   0  0  0  0  0  0  0  0  0  0  0  0
  1  2  1  0
  3  2  1  0
  4  3  1  0
  5  4  1  0
  5  6  1  1
  7  5  1  0
  8  7  2  0
  9  7  1  0
 10  9  1  0
 11 12  1  0
 10 11  1  1
 12 13  1  0
 13 17  1  0
 13 14  2  0
 15 10  1  0
 15 18  1  0
 16 15  2  0
 19 18  1  0
 19 20  1  6
 20 21  1  0
 21 22  2  0
 21 25  1  0
 22 23  1  0
 23 24  1  0
 25 24  2  0
 26 19  1  0
 27 26  2  0
 28 26  1  0
M  END
$$$$
