MEH.pdb
     RDKit          3D

 28 28  0  0  1  0  0  0  0  0999 V2000
   26.2511  -18.5979   -6.8715 C   0  0  0  0  0  0  0  0  0  0  0  0
   27.6673  -19.6986   -6.9567 S   0  0  0  0  0  0  0  0  0  0  0  0
   27.5375  -20.9059   -8.2761 C   0  0  0  0  0  0  0  0  0  0  0  0
   26.8515  -20.3513   -9.4869 C   0  0  0  0  0  0  0  0  0  0  0  0
   26.6773  -21.3495  -10.6103 C   0  0  2  0  0  0  0  0  0  0  0  0
   27.9739  -21.7893  -11.0617 N   0  0  0  0  0  0  0  0  0  0  0  0
   25.9754  -20.6043  -11.7085 C   0  0  0  0  0  0  0  0  0  0  0  0
   26.5008  -19.5965  -12.2561 O   0  0  0  0  0  0  0  0  0  0  0  0
   24.7163  -20.9544  -12.2045 N   0  0  0  0  0  0  0  0  0  0  0  0
   24.1410  -20.6373  -13.4702 C   0  0  1  0  0  0  0  0  0  0  0  0
   24.0903  -21.7318  -14.4702 C   0  0  0  0  0  0  0  0  0  0  0  0
   23.9355  -23.1174  -13.8729 C   0  0  0  0  0  0  0  0  0  0  0  0
   23.8858  -24.1619  -14.9206 C   0  0  0  0  0  0  0  0  0  0  0  0
   24.0282  -23.8695  -16.1221 O   0  0  0  0  0  0  0  0  0  0  0  0
   22.8064  -20.0506  -13.2540 C   0  0  0  0  0  0  0  0  0  0  0  0
   22.0260  -20.5241  -12.3823 O   0  0  0  0  0  0  0  0  0  0  0  0
   23.6810  -25.4872  -14.5744 O   0  0  0  0  0  0  0  0  0  0  0  0
   22.2892  -18.9260  -13.9889 N   0  0  0  0  0  0  0  0  0  0  0  0
   20.9692  -18.4331  -13.6623 C   0  0  1  0  0  0  0  0  0  0  0  0
   20.7090  -17.1626  -14.3774 C   0  0  0  0  0  0  0  0  0  0  0  0
   19.4041  -16.5331  -14.1052 C   0  0  0  0  0  0  0  0  0  0  0  0
   18.7943  -16.4990  -12.8447 C   0  0  0  0  0  0  0  0  0  0  0  0
   17.6189  -15.8720  -12.9458 N   0  0  0  0  0  0  0  0  0  0  0  0
   17.4613  -15.5041  -14.2331 C   0  0  0  0  0  0  0  0  0  0  0  0
   18.5358  -15.9069  -14.9080 N   0  0  0  0  0  0  0  0  0  0  0  0
   19.9344  -19.4717  -14.0476 C   0  0  0  0  0  0  0  0  0  0  0  0
   20.0799  -20.1322  -15.1023 O   0  0  0  0  0  0  0  0  0  0  0  0
   18.8269  -19.7149  -13.2641 O   0  0  0  0  0  0  0  0  0  0  0  0
  1  2  1  0
  3  2  1  0
  4  3  1  0
  5  4  1  0
  5  6  1  6
  7  5  1  0
  8  7  2  0
  9  7  1  0
 10  9  1  0
 11 12  1  0
 10 11  1  6
 12 13  1  0
 13 17  1  0
 13 14  2  0
 15 10  1  0
 15 18  1  0
 16 15  2  0
 19 18  1  0
 19 20  1  6
 20 21  1  0
 21 22  2  0
 21 25  1  0
 22 23  1  0
 23 24  1  0
 25 24  2  0
 26 19  1  0
 27 26  2  0
 28 26  1  0
M  END
$$$$
