MEH.pdb
     RDKit          3D

 28 28  0  0  1  0  0  0  0  0999 V2000
   30.2294  -17.1802  -18.2878 C   0  0  0  0  0  0  0  0  0  0  0  0
   29.1351  -18.1589  -17.2536 S   0  0  0  0  0  0  0  0  0  0  0  0
   27.9198  -19.0808  -18.1959 C   0  0  0  0  0  0  0  0  0  0  0  0
   27.0085  -19.8814  -17.3168 C   0  0  0  0  0  0  0  0  0  0  0  0
   27.7001  -20.5320  -16.1389 C   0  0  2  0  0  0  0  0  0  0  0  0
   28.4993  -21.6368  -16.6069 N   0  0  0  0  0  0  0  0  0  0  0  0
   26.5993  -21.0333  -15.2497 C   0  0  0  0  0  0  0  0  0  0  0  0
   25.7951  -21.9233  -15.6407 O   0  0  0  0  0  0  0  0  0  0  0  0
   26.3784  -20.5706  -13.9493 N   0  0  0  0  0  0  0  0  0  0  0  0
   25.3493  -20.9457  -13.0362 C   0  0  1  0  0  0  0  0  0  0  0  0
   25.5883  -20.6418  -11.6040 C   0  0  0  0  0  0  0  0  0  0  0  0
   24.4498  -21.0367  -10.6829 C   0  0  0  0  0  0  0  0  0  0  0  0
   24.7863  -20.7930   -9.2622 C   0  0  0  0  0  0  0  0  0  0  0  0
   23.9638  -21.0353   -8.3597 O   0  0  0  0  0  0  0  0  0  0  0  0
   24.0714  -20.3736  -13.4963 C   0  0  0  0  0  0  0  0  0  0  0  0
   24.0142  -19.1927  -13.9385 O   0  0  0  0  0  0  0  0  0  0  0  0
   26.0299  -20.2908   -8.9167 O   0  0  0  0  0  0  0  0  0  0  0  0
   22.8181  -21.0815  -13.4847 N   0  0  0  0  0  0  0  0  0  0  0  0
   21.6575  -20.4450  -14.0677 C   0  0  1  0  0  0  0  0  0  0  0  0
   21.5898  -20.7394  -15.5175 C   0  0  0  0  0  0  0  0  0  0  0  0
   20.4168  -20.1948  -16.2250 C   0  0  0  0  0  0  0  0  0  0  0  0
   19.3869  -19.4765  -15.6043 C   0  0  0  0  0  0  0  0  0  0  0  0
   18.4740  -19.1432  -16.5211 N   0  0  0  0  0  0  0  0  0  0  0  0
   18.8916  -19.6265  -17.7083 C   0  0  0  0  0  0  0  0  0  0  0  0
   20.0513  -20.2497  -17.5110 N   0  0  0  0  0  0  0  0  0  0  0  0
   20.4066  -20.9459  -13.3732 C   0  0  0  0  0  0  0  0  0  0  0  0
   20.3850  -22.1015  -12.8894 O   0  0  0  0  0  0  0  0  0  0  0  0
   19.2804  -20.1601  -13.2557 O   0  0  0  0  0  0  0  0  0  0  0  0
  1  2  1  0
  3  2  1  0
  4  3  1  0
  5  4  1  0
  5  6  1  6
  7  5  1  0
  8  7  2  0
  9  7  1  0
 10  9  1  0
 11 12  1  0
 10 11  1  1
 12 13  1  0
 13 17  1  0
 13 14  2  0
 15 10  1  0
 15 18  1  0
 16 15  2  0
 19 18  1  0
 19 20  1  6
 20 21  1  0
 21 22  2  0
 21 25  1  0
 22 23  1  0
 23 24  1  0
 25 24  2  0
 26 19  1  0
 27 26  2  0
 28 26  1  0
M  END
$$$$
