MEH.pdb
     RDKit          3D

 28 28  0  0  1  0  0  0  0  0999 V2000
   27.6361  -21.3357   -9.8784 C   0  0  0  0  0  0  0  0  0  0  0  0
   26.4815  -19.9863  -10.1446 S   0  0  0  0  0  0  0  0  0  0  0  0
   26.3068  -19.5451  -11.8738 C   0  0  0  0  0  0  0  0  0  0  0  0
   27.1813  -20.3757  -12.7623 C   0  0  0  0  0  0  0  0  0  0  0  0
   27.1279  -19.9848  -14.2228 C   0  0  2  0  0  0  0  0  0  0  0  0
   27.2849  -18.5564  -14.3393 N   0  0  0  0  0  0  0  0  0  0  0  0
   25.7648  -20.3935  -14.7014 C   0  0  0  0  0  0  0  0  0  0  0  0
   24.9559  -19.5487  -15.1743 O   0  0  0  0  0  0  0  0  0  0  0  0
   25.2898  -21.7076  -14.6659 N   0  0  0  0  0  0  0  0  0  0  0  0
   24.0173  -22.2031  -15.0764 C   0  0  1  0  0  0  0  0  0  0  0  0
   23.8524  -23.6773  -15.0948 C   0  0  0  0  0  0  0  0  0  0  0  0
   25.1262  -24.4450  -15.3923 C   0  0  0  0  0  0  0  0  0  0  0  0
   24.8757  -25.9001  -15.4972 C   0  0  0  0  0  0  0  0  0  0  0  0
   23.7501  -26.3740  -15.2564 O   0  0  0  0  0  0  0  0  0  0  0  0
   22.9698  -21.5598  -14.2633 C   0  0  0  0  0  0  0  0  0  0  0  0
   23.2673  -20.6947  -13.3936 O   0  0  0  0  0  0  0  0  0  0  0  0
   25.8972  -26.7582  -15.8692 O   0  0  0  0  0  0  0  0  0  0  0  0
   21.5643  -21.8473  -14.3813 N   0  0  0  0  0  0  0  0  0  0  0  0
   20.6596  -20.7636  -14.6962 C   0  0  1  0  0  0  0  0  0  0  0  0
   20.9581  -20.2265  -16.0437 C   0  0  0  0  0  0  0  0  0  0  0  0
   21.6553  -18.9281  -16.0727 C   0  0  0  0  0  0  0  0  0  0  0  0
   21.9583  -18.1718  -14.9333 C   0  0  0  0  0  0  0  0  0  0  0  0
   22.5742  -17.0469  -15.3078 N   0  0  0  0  0  0  0  0  0  0  0  0
   22.6743  -17.0638  -16.6521 C   0  0  0  0  0  0  0  0  0  0  0  0
   22.1212  -18.1930  -17.0891 N   0  0  0  0  0  0  0  0  0  0  0  0
   19.2312  -21.2676  -14.6386 C   0  0  0  0  0  0  0  0  0  0  0  0
   18.9370  -22.3634  -15.1702 O   0  0  0  0  0  0  0  0  0  0  0  0
   18.2355  -20.5498  -14.0116 O   0  0  0  0  0  0  0  0  0  0  0  0
  1  2  1  0
  3  2  1  0
  4  3  1  0
  5  4  1  0
  5  6  1  1
  7  5  1  0
  8  7  2  0
  9  7  1  0
 10  9  1  0
 11 12  1  0
 10 11  1  1
 12 13  1  0
 13 17  1  0
 13 14  2  0
 15 10  1  0
 15 18  1  0
 16 15  2  0
 19 18  1  0
 19 20  1  6
 20 21  1  0
 21 22  2  0
 21 25  1  0
 22 23  1  0
 23 24  1  0
 25 24  2  0
 26 19  1  0
 27 26  2  0
 28 26  1  0
M  END
$$$$
