MEH.pdb
     RDKit          3D

 28 28  0  0  1  0  0  0  0  0999 V2000
   25.6637  -17.5807  -18.2603 C   0  0  0  0  0  0  0  0  0  0  0  0
   27.1337  -16.7208  -17.6907 S   0  0  0  0  0  0  0  0  0  0  0  0
   26.7606  -15.3155  -16.6415 C   0  0  0  0  0  0  0  0  0  0  0  0
   25.4276  -14.7094  -16.9580 C   0  0  0  0  0  0  0  0  0  0  0  0
   25.1239  -13.4453  -16.1843 C   0  0  2  0  0  0  0  0  0  0  0  0
   24.9334  -13.7727  -14.7933 N   0  0  0  0  0  0  0  0  0  0  0  0
   23.8475  -12.9112  -16.7669 C   0  0  0  0  0  0  0  0  0  0  0  0
   23.7566  -12.6228  -17.9917 O   0  0  0  0  0  0  0  0  0  0  0  0
   22.6838  -12.6950  -16.0232 N   0  0  0  0  0  0  0  0  0  0  0  0
   21.3740  -12.3850  -16.4941 C   0  0  1  0  0  0  0  0  0  0  0  0
   20.2396  -12.9557  -15.7271 C   0  0  0  0  0  0  0  0  0  0  0  0
   20.1754  -14.4711  -15.7409 C   0  0  0  0  0  0  0  0  0  0  0  0
   19.0614  -14.9786  -14.9088 C   0  0  0  0  0  0  0  0  0  0  0  0
   18.3335  -14.1970  -14.2693 O   0  0  0  0  0  0  0  0  0  0  0  0
   21.2473  -10.9224  -16.6238 C   0  0  0  0  0  0  0  0  0  0  0  0
   21.8488  -10.1488  -15.8281 O   0  0  0  0  0  0  0  0  0  0  0  0
   18.8118  -16.3388  -14.8326 O   0  0  0  0  0  0  0  0  0  0  0  0
   20.4564  -10.2658  -17.6314 N   0  0  0  0  0  0  0  0  0  0  0  0
   20.4095   -8.8202  -17.6423 C   0  0  1  0  0  0  0  0  0  0  0  0
   20.2586   -8.3261  -19.0302 C   0  0  0  0  0  0  0  0  0  0  0  0
   21.3971   -8.5901  -19.9286 C   0  0  0  0  0  0  0  0  0  0  0  0
   22.7130   -8.1850  -19.6714 C   0  0  0  0  0  0  0  0  0  0  0  0
   23.4928   -8.5658  -20.6872 N   0  0  0  0  0  0  0  0  0  0  0  0
   22.7136   -9.2028  -21.5841 C   0  0  0  0  0  0  0  0  0  0  0  0
   21.4683   -9.2071  -21.1138 N   0  0  0  0  0  0  0  0  0  0  0  0
   19.2486   -8.3478  -16.7896 C   0  0  0  0  0  0  0  0  0  0  0  0
   18.5130   -9.1879  -16.2212 O   0  0  0  0  0  0  0  0  0  0  0  0
   18.9752   -7.0079  -16.6180 O   0  0  0  0  0  0  0  0  0  0  0  0
  1  2  1  0
  3  2  1  0
  4  3  1  0
  5  4  1  0
  5  6  1  1
  7  5  1  0
  8  7  2  0
  9  7  1  0
 10  9  1  0
 11 12  1  0
 10 11  1  1
 12 13  1  0
 13 17  1  0
 13 14  2  0
 15 10  1  0
 15 18  1  0
 16 15  2  0
 19 18  1  0
 19 20  1  6
 20 21  1  0
 21 22  2  0
 21 25  1  0
 22 23  1  0
 23 24  1  0
 25 24  2  0
 26 19  1  0
 27 26  2  0
 28 26  1  0
M  END
$$$$
