MEH.pdb
     RDKit          3D

 28 28  0  0  1  0  0  0  0  0999 V2000
   26.8094  -18.7101   -7.2002 C   0  0  0  0  0  0  0  0  0  0  0  0
   26.9183  -20.4619   -6.8207 S   0  0  0  0  0  0  0  0  0  0  0  0
   27.0224  -21.4906   -8.2856 C   0  0  0  0  0  0  0  0  0  0  0  0
   26.3760  -20.8500   -9.4756 C   0  0  0  0  0  0  0  0  0  0  0  0
   26.4796  -21.6626  -10.7476 C   0  0  2  0  0  0  0  0  0  0  0  0
   27.8611  -21.7388  -11.1526 N   0  0  0  0  0  0  0  0  0  0  0  0
   25.6830  -20.9107  -11.7742 C   0  0  0  0  0  0  0  0  0  0  0  0
   26.1950  -19.9699  -12.4406 O   0  0  0  0  0  0  0  0  0  0  0  0
   24.3443  -21.1821  -12.0713 N   0  0  0  0  0  0  0  0  0  0  0  0
   23.6763  -21.0846  -13.3274 C   0  0  1  0  0  0  0  0  0  0  0  0
   23.3276  -22.3622  -13.9957 C   0  0  0  0  0  0  0  0  0  0  0  0
   24.5206  -23.2329  -14.3410 C   0  0  0  0  0  0  0  0  0  0  0  0
   24.1157  -24.4419  -15.0930 C   0  0  0  0  0  0  0  0  0  0  0  0
   22.9140  -24.6969  -15.2944 O   0  0  0  0  0  0  0  0  0  0  0  0
   22.4902  -20.2237  -13.1714 C   0  0  0  0  0  0  0  0  0  0  0  0
   21.8036  -20.2556  -12.1128 O   0  0  0  0  0  0  0  0  0  0  0  0
   25.0756  -25.3095  -15.5871 O   0  0  0  0  0  0  0  0  0  0  0  0
   22.0231  -19.3020  -14.1736 N   0  0  0  0  0  0  0  0  0  0  0  0
   20.8619  -18.4907  -13.8810 C   0  0  1  0  0  0  0  0  0  0  0  0
   20.7425  -17.3968  -14.8722 C   0  0  0  0  0  0  0  0  0  0  0  0
   19.5808  -16.5054  -14.7015 C   0  0  0  0  0  0  0  0  0  0  0  0
   18.7522  -16.5000  -13.5722 C   0  0  0  0  0  0  0  0  0  0  0  0
   17.7888  -15.5901  -13.7428 N   0  0  0  0  0  0  0  0  0  0  0  0
   17.9791  -15.0142  -14.9468 C   0  0  0  0  0  0  0  0  0  0  0  0
   19.0519  -15.5731  -15.5024 N   0  0  0  0  0  0  0  0  0  0  0  0
   19.6204  -19.3600  -13.9091 C   0  0  0  0  0  0  0  0  0  0  0  0
   19.5539  -20.3226  -14.7084 O   0  0  0  0  0  0  0  0  0  0  0  0
   18.5514  -19.1217  -13.0725 O   0  0  0  0  0  0  0  0  0  0  0  0
  1  2  1  0
  3  2  1  0
  4  3  1  0
  5  4  1  0
  5  6  1  6
  7  5  1  0
  8  7  2  0
  9  7  1  0
 10  9  1  0
 11 12  1  0
 10 11  1  1
 12 13  1  0
 13 17  1  0
 13 14  2  0
 15 10  1  0
 15 18  1  0
 16 15  2  0
 19 18  1  0
 19 20  1  6
 20 21  1  0
 21 22  2  0
 21 25  1  0
 22 23  1  0
 23 24  1  0
 25 24  2  0
 26 19  1  0
 27 26  2  0
 28 26  1  0
M  END
$$$$
