MEH.pdb
     RDKit          3D

 28 28  0  0  1  0  0  0  0  0999 V2000
   27.1847  -13.2062  -14.6047 C   0  0  0  0  0  0  0  0  0  0  0  0
   28.0832  -11.8796  -15.4157 S   0  0  0  0  0  0  0  0  0  0  0  0
   27.5702  -11.6227  -17.1145 C   0  0  0  0  0  0  0  0  0  0  0  0
   26.1306  -11.2213  -17.2177 C   0  0  0  0  0  0  0  0  0  0  0  0
   25.6184  -11.1161  -18.6373 C   0  0  2  0  0  0  0  0  0  0  0  0
   26.5234  -10.3031  -19.4109 N   0  0  0  0  0  0  0  0  0  0  0  0
   24.2803  -10.4428  -18.5359 C   0  0  0  0  0  0  0  0  0  0  0  0
   24.1215   -9.2435  -18.8939 O   0  0  0  0  0  0  0  0  0  0  0  0
   23.1290  -11.0698  -18.0509 N   0  0  0  0  0  0  0  0  0  0  0  0
   21.7887  -10.5830  -18.0444 C   0  0  1  0  0  0  0  0  0  0  0  0
   20.7112  -11.6024  -18.0632 C   0  0  0  0  0  0  0  0  0  0  0  0
   20.3833  -12.1904  -16.7040 C   0  0  0  0  0  0  0  0  0  0  0  0
   19.3052  -13.2008  -16.7910 C   0  0  0  0  0  0  0  0  0  0  0  0
   19.2586  -14.0059  -17.7394 O   0  0  0  0  0  0  0  0  0  0  0  0
   21.6240   -9.6542  -16.9120 C   0  0  0  0  0  0  0  0  0  0  0  0
   21.9901   -9.9818  -15.7493 O   0  0  0  0  0  0  0  0  0  0  0  0
   18.3292  -13.2651  -15.8105 O   0  0  0  0  0  0  0  0  0  0  0  0
   21.0524   -8.3378  -17.0229 N   0  0  0  0  0  0  0  0  0  0  0  0
   20.9119   -7.5403  -15.8244 C   0  0  1  0  0  0  0  0  0  0  0  0
   21.2381   -6.1250  -16.1135 C   0  0  0  0  0  0  0  0  0  0  0  0
   22.6027   -5.8737  -16.6113 C   0  0  0  0  0  0  0  0  0  0  0  0
   23.7693   -6.1902  -15.9037 C   0  0  0  0  0  0  0  0  0  0  0  0
   24.8309   -5.8194  -16.6251 N   0  0  0  0  0  0  0  0  0  0  0  0
   24.3761   -5.2769  -17.7724 C   0  0  0  0  0  0  0  0  0  0  0  0
   23.0458   -5.3186  -17.7453 N   0  0  0  0  0  0  0  0  0  0  0  0
   19.4916   -7.6548  -15.3072 C   0  0  0  0  0  0  0  0  0  0  0  0
   18.6557   -8.3457  -15.9347 O   0  0  0  0  0  0  0  0  0  0  0  0
   19.0875   -7.0158  -14.1548 O   0  0  0  0  0  0  0  0  0  0  0  0
  1  2  1  0
  3  2  1  0
  4  3  1  0
  5  4  1  0
  5  6  1  6
  7  5  1  0
  8  7  2  0
  9  7  1  0
 10  9  1  0
 11 12  1  0
 10 11  1  1
 12 13  1  0
 13 17  1  0
 13 14  2  0
 15 10  1  0
 15 18  1  0
 16 15  2  0
 19 18  1  0
 19 20  1  6
 20 21  1  0
 21 22  2  0
 21 25  1  0
 22 23  1  0
 23 24  1  0
 25 24  2  0
 26 19  1  0
 27 26  2  0
 28 26  1  0
M  END
$$$$
