MEH.pdb
     RDKit          3D

 28 28  0  0  1  0  0  0  0  0999 V2000
   18.1225   -2.4412   -9.1641 C   0  0  0  0  0  0  0  0  0  0  0  0
   19.1299   -3.9243   -9.0611 S   0  0  0  0  0  0  0  0  0  0  0  0
   19.2261   -4.8148  -10.6144 C   0  0  0  0  0  0  0  0  0  0  0  0
   20.0652   -6.0512  -10.5083 C   0  0  0  0  0  0  0  0  0  0  0  0
   20.3193   -6.7413  -11.8305 C   0  0  2  0  0  0  0  0  0  0  0  0
   20.7284   -5.7630  -12.8071 N   0  0  0  0  0  0  0  0  0  0  0  0
   19.0054   -7.3484  -12.2292 C   0  0  0  0  0  0  0  0  0  0  0  0
   18.1826   -6.7165  -12.9468 O   0  0  0  0  0  0  0  0  0  0  0  0
   18.5941   -8.6296  -11.8508 N   0  0  0  0  0  0  0  0  0  0  0  0
   17.4599   -9.3672  -12.3015 C   0  0  1  0  0  0  0  0  0  0  0  0
   17.7308  -10.6779  -12.9413 C   0  0  0  0  0  0  0  0  0  0  0  0
   16.5023  -11.3612  -13.5110 C   0  0  0  0  0  0  0  0  0  0  0  0
   16.8485  -12.6282  -14.1936 C   0  0  0  0  0  0  0  0  0  0  0  0
   16.3293  -13.7046  -13.8453 O   0  0  0  0  0  0  0  0  0  0  0  0
   16.5068   -9.5057  -11.1859 C   0  0  0  0  0  0  0  0  0  0  0  0
   16.8927   -9.9048  -10.0523 O   0  0  0  0  0  0  0  0  0  0  0  0
   17.7592  -12.6315  -15.2370 O   0  0  0  0  0  0  0  0  0  0  0  0
   15.1014   -9.2097  -11.2820 N   0  0  0  0  0  0  0  0  0  0  0  0
   14.2418   -9.5623  -10.1735 C   0  0  1  0  0  0  0  0  0  0  0  0
   13.4829   -8.3742   -9.7199 C   0  0  0  0  0  0  0  0  0  0  0  0
   14.2792   -7.3200   -9.0660 C   0  0  0  0  0  0  0  0  0  0  0  0
   14.9416   -7.4790   -7.8421 C   0  0  0  0  0  0  0  0  0  0  0  0
   15.5531   -6.3341   -7.5254 N   0  0  0  0  0  0  0  0  0  0  0  0
   15.3014   -5.4500   -8.5115 C   0  0  0  0  0  0  0  0  0  0  0  0
   14.5410   -6.0566   -9.4203 N   0  0  0  0  0  0  0  0  0  0  0  0
   13.2883  -10.6588  -10.6050 C   0  0  0  0  0  0  0  0  0  0  0  0
   13.3054  -11.0665  -11.7896 O   0  0  0  0  0  0  0  0  0  0  0  0
   12.3939  -11.2278   -9.7241 O   0  0  0  0  0  0  0  0  0  0  0  0
  1  2  1  0
  3  2  1  0
  4  3  1  0
  5  4  1  0
  5  6  1  6
  7  5  1  0
  8  7  2  0
  9  7  1  0
 10  9  1  0
 11 12  1  0
 10 11  1  1
 12 13  1  0
 13 17  1  0
 13 14  2  0
 15 10  1  0
 15 18  1  0
 16 15  2  0
 19 18  1  0
 19 20  1  6
 20 21  1  0
 21 22  2  0
 21 25  1  0
 22 23  1  0
 23 24  1  0
 25 24  2  0
 26 19  1  0
 27 26  2  0
 28 26  1  0
M  END
$$$$
