MEH.pdb
     RDKit          3D

 28 28  0  0  1  0  0  0  0  0999 V2000
   30.0238  -12.5456  -16.0423 C   0  0  0  0  0  0  0  0  0  0  0  0
   28.4449  -11.7040  -16.1960 S   0  0  0  0  0  0  0  0  0  0  0  0
   27.1735  -12.7299  -16.9352 C   0  0  0  0  0  0  0  0  0  0  0  0
   25.8472  -12.0359  -16.9930 C   0  0  0  0  0  0  0  0  0  0  0  0
   24.7323  -12.8801  -17.5702 C   0  0  2  0  0  0  0  0  0  0  0  0
   25.0973  -13.3073  -18.8979 N   0  0  0  0  0  0  0  0  0  0  0  0
   23.5326  -11.9795  -17.6308 C   0  0  0  0  0  0  0  0  0  0  0  0
   23.3477  -11.1992  -18.6047 O   0  0  0  0  0  0  0  0  0  0  0  0
   22.5458  -11.9311  -16.6420 N   0  0  0  0  0  0  0  0  0  0  0  0
   21.3290  -11.1875  -16.6377 C   0  0  1  0  0  0  0  0  0  0  0  0
   20.1265  -11.8837  -16.1182 C   0  0  0  0  0  0  0  0  0  0  0  0
   18.8529  -11.0623  -16.1808 C   0  0  0  0  0  0  0  0  0  0  0  0
   17.6924  -11.8116  -15.6489 C   0  0  0  0  0  0  0  0  0  0  0  0
   17.8044  -13.0020  -15.3024 O   0  0  0  0  0  0  0  0  0  0  0  0
   21.5520   -9.9120  -15.9338 C   0  0  0  0  0  0  0  0  0  0  0  0
   22.1365   -9.8848  -14.8154 O   0  0  0  0  0  0  0  0  0  0  0  0
   16.4595  -11.1927  -15.5273 O   0  0  0  0  0  0  0  0  0  0  0  0
   21.1396   -8.6281  -16.4375 N   0  0  0  0  0  0  0  0  0  0  0  0
   21.4733   -7.4451  -15.6751 C   0  0  1  0  0  0  0  0  0  0  0  0
   21.3668   -6.2411  -16.5308 C   0  0  0  0  0  0  0  0  0  0  0  0
   21.6209   -4.9550  -15.8567 C   0  0  0  0  0  0  0  0  0  0  0  0
   22.8252   -4.6229  -15.2232 C   0  0  0  0  0  0  0  0  0  0  0  0
   22.7199   -3.3974  -14.7015 N   0  0  0  0  0  0  0  0  0  0  0  0
   21.4846   -2.9376  -14.9844 C   0  0  0  0  0  0  0  0  0  0  0  0
   20.8453   -3.8801  -15.6735 N   0  0  0  0  0  0  0  0  0  0  0  0
   20.5356   -7.3292  -14.4897 C   0  0  0  0  0  0  0  0  0  0  0  0
   19.3288   -7.6401  -14.6194 O   0  0  0  0  0  0  0  0  0  0  0  0
   20.9750   -6.8882  -13.2600 O   0  0  0  0  0  0  0  0  0  0  0  0
  1  2  1  0
  3  2  1  0
  4  3  1  0
  5  4  1  0
  5  6  1  6
  7  5  1  0
  8  7  2  0
  9  7  1  0
 10  9  1  0
 11 12  1  0
 10 11  1  1
 12 13  1  0
 13 17  1  0
 13 14  2  0
 15 10  1  0
 15 18  1  0
 16 15  2  0
 19 18  1  0
 19 20  1  6
 20 21  1  0
 21 22  2  0
 21 25  1  0
 22 23  1  0
 23 24  1  0
 25 24  2  0
 26 19  1  0
 27 26  2  0
 28 26  1  0
M  END
$$$$
