MEH.pdb
     RDKit          3D

 28 28  0  0  1  0  0  0  0  0999 V2000
   24.0979  -16.2265  -22.0760 C   0  0  0  0  0  0  0  0  0  0  0  0
   25.8384  -16.5111  -21.7381 S   0  0  0  0  0  0  0  0  0  0  0  0
   26.1596  -16.9310  -20.0247 C   0  0  0  0  0  0  0  0  0  0  0  0
   24.9769  -17.5734  -19.3669 C   0  0  0  0  0  0  0  0  0  0  0  0
   24.8673  -17.2949  -17.8839 C   0  0  2  0  0  0  0  0  0  0  0  0
   26.0693  -17.7419  -17.2255 N   0  0  0  0  0  0  0  0  0  0  0  0
   23.6908  -18.0967  -17.4074 C   0  0  0  0  0  0  0  0  0  0  0  0
   22.5482  -17.9532  -17.9226 O   0  0  0  0  0  0  0  0  0  0  0  0
   23.7595  -19.0443  -16.3822 N   0  0  0  0  0  0  0  0  0  0  0  0
   22.7156  -19.8618  -15.8574 C   0  0  1  0  0  0  0  0  0  0  0  0
   23.1323  -21.0756  -15.1132 C   0  0  0  0  0  0  0  0  0  0  0  0
   24.2552  -21.8562  -15.7693 C   0  0  0  0  0  0  0  0  0  0  0  0
   24.6063  -23.0662  -14.9924 C   0  0  0  0  0  0  0  0  0  0  0  0
   24.1000  -23.2779  -13.8751 O   0  0  0  0  0  0  0  0  0  0  0  0
   21.8144  -19.0232  -15.0471 C   0  0  0  0  0  0  0  0  0  0  0  0
   22.2766  -18.1486  -14.2631 O   0  0  0  0  0  0  0  0  0  0  0  0
   25.5073  -23.9856  -15.5036 O   0  0  0  0  0  0  0  0  0  0  0  0
   20.3784  -19.1199  -15.0739 N   0  0  0  0  0  0  0  0  0  0  0  0
   19.6075  -18.2131  -14.2521 C   0  0  1  0  0  0  0  0  0  0  0  0
   19.3266  -16.9645  -14.9973 C   0  0  0  0  0  0  0  0  0  0  0  0
   18.4298  -16.0078  -14.3239 C   0  0  0  0  0  0  0  0  0  0  0  0
   17.9195  -16.1832  -13.0313 C   0  0  0  0  0  0  0  0  0  0  0  0
   17.1312  -15.1477  -12.7296 N   0  0  0  0  0  0  0  0  0  0  0  0
   17.1245  -14.3163  -13.7908 C   0  0  0  0  0  0  0  0  0  0  0  0
   17.9044  -14.8462  -14.7304 N   0  0  0  0  0  0  0  0  0  0  0  0
   18.3099  -18.8825  -13.8448 C   0  0  0  0  0  0  0  0  0  0  0  0
   17.6681  -19.5561  -14.6840 O   0  0  0  0  0  0  0  0  0  0  0  0
   17.8095  -18.7723  -12.5653 O   0  0  0  0  0  0  0  0  0  0  0  0
  1  2  1  0
  3  2  1  0
  4  3  1  0
  5  4  1  0
  5  6  1  1
  7  5  1  0
  8  7  2  0
  9  7  1  0
 10  9  1  0
 11 12  1  0
 10 11  1  1
 12 13  1  0
 13 17  1  0
 13 14  2  0
 15 10  1  0
 15 18  1  0
 16 15  2  0
 19 18  1  0
 19 20  1  6
 20 21  1  0
 21 22  2  0
 21 25  1  0
 22 23  1  0
 23 24  1  0
 25 24  2  0
 26 19  1  0
 27 26  2  0
 28 26  1  0
M  END
$$$$
