MEH.pdb
     RDKit          3D

 28 28  0  0  1  0  0  0  0  0999 V2000
   15.9030  -14.3358  -20.2027 C   0  0  0  0  0  0  0  0  0  0  0  0
   15.9656  -12.9272  -19.0907 S   0  0  0  0  0  0  0  0  0  0  0  0
   16.9655  -13.2294  -17.6333 C   0  0  0  0  0  0  0  0  0  0  0  0
   17.1643  -11.9903  -16.8150 C   0  0  0  0  0  0  0  0  0  0  0  0
   18.5970  -11.7529  -16.3909 C   0  0  2  0  0  0  0  0  0  0  0  0
   19.0480  -12.8657  -15.5931 N   0  0  0  0  0  0  0  0  0  0  0  0
   18.5714  -10.5017  -15.5614 C   0  0  0  0  0  0  0  0  0  0  0  0
   17.8106  -10.3944  -14.5609 O   0  0  0  0  0  0  0  0  0  0  0  0
   19.3666   -9.3814  -15.8192 N   0  0  0  0  0  0  0  0  0  0  0  0
   19.5082   -8.1951  -15.0407 C   0  0  1  0  0  0  0  0  0  0  0  0
   20.8739   -7.6242  -14.9416 C   0  0  0  0  0  0  0  0  0  0  0  0
   20.9867   -6.4314  -14.0116 C   0  0  0  0  0  0  0  0  0  0  0  0
   22.3533   -5.8626  -14.0152 C   0  0  0  0  0  0  0  0  0  0  0  0
   22.6241   -4.8453  -13.3509 O   0  0  0  0  0  0  0  0  0  0  0  0
   18.5443   -7.1900  -15.5231 C   0  0  0  0  0  0  0  0  0  0  0  0
   18.5252   -6.8433  -16.7367 O   0  0  0  0  0  0  0  0  0  0  0  0
   23.3552   -6.4607  -14.7612 O   0  0  0  0  0  0  0  0  0  0  0  0
   17.5722   -6.5358  -14.6869 N   0  0  0  0  0  0  0  0  0  0  0  0
   16.6661   -5.5845  -15.2920 C   0  0  1  0  0  0  0  0  0  0  0  0
   15.4665   -5.4117  -14.4409 C   0  0  0  0  0  0  0  0  0  0  0  0
   14.4232   -4.5220  -14.9821 C   0  0  0  0  0  0  0  0  0  0  0  0
   13.9927   -4.5336  -16.3149 C   0  0  0  0  0  0  0  0  0  0  0  0
   13.0537   -3.5973  -16.4780 N   0  0  0  0  0  0  0  0  0  0  0  0
   12.8716   -2.9897  -15.2884 C   0  0  0  0  0  0  0  0  0  0  0  0
   13.6966   -3.5550  -14.4099 N   0  0  0  0  0  0  0  0  0  0  0  0
   17.3760   -4.2572  -15.4713 C   0  0  0  0  0  0  0  0  0  0  0  0
   17.1686   -3.5760  -16.5022 O   0  0  0  0  0  0  0  0  0  0  0  0
   18.2514   -3.7711  -14.5241 O   0  0  0  0  0  0  0  0  0  0  0  0
  1  2  1  0
  3  2  1  0
  4  3  1  0
  5  4  1  0
  5  6  1  1
  7  5  1  0
  8  7  2  0
  9  7  1  0
 10  9  1  0
 11 12  1  0
 10 11  1  6
 12 13  1  0
 13 17  1  0
 13 14  2  0
 15 10  1  0
 15 18  1  0
 16 15  2  0
 19 18  1  0
 19 20  1  1
 20 21  1  0
 21 22  2  0
 21 25  1  0
 22 23  1  0
 23 24  1  0
 25 24  2  0
 26 19  1  0
 27 26  2  0
 28 26  1  0
M  END
$$$$
