AAK.pdb
     RDKit          3D

 20 19  0  0  1  0  0  0  0  0999 V2000
   19.5526  -14.5940  -17.3615 C   0  0  0  0  0  0  0  0  0  0  0  0
   20.0201  -13.2687  -17.9256 C   0  0  2  0  0  0  0  0  0  0  0  0
   21.1482  -13.5216  -18.7812 N   0  0  0  0  0  0  0  0  0  0  0  0
   20.3662  -12.3625  -16.7961 C   0  0  0  0  0  0  0  0  0  0  0  0
   19.4605  -12.0717  -15.9802 O   0  0  0  0  0  0  0  0  0  0  0  0
   23.5162  -10.7123  -15.4761 C   0  0  0  0  0  0  0  0  0  0  0  0
   22.0329  -10.8744  -15.6854 C   0  0  2  0  0  0  0  0  0  0  0  0
   21.6841  -11.8543  -16.6638 N   0  0  0  0  0  0  0  0  0  0  0  0
   21.3747   -9.5814  -16.0406 C   0  0  0  0  0  0  0  0  0  0  0  0
   21.3174   -9.1321  -17.2097 O   0  0  0  0  0  0  0  0  0  0  0  0
   20.7645   -8.7781  -15.0334 N   0  0  0  0  0  0  0  0  0  0  0  0
   20.1444   -7.4839  -15.3718 C   0  0  1  0  0  0  0  0  0  0  0  0
   18.6833   -7.5759  -15.1172 C   0  0  0  0  0  0  0  0  0  0  0  0
   17.8946   -8.4657  -15.9996 C   0  0  0  0  0  0  0  0  0  0  0  0
   16.4426   -8.5957  -15.7365 C   0  0  0  0  0  0  0  0  0  0  0  0
   15.7302   -9.4495  -16.7729 C   0  0  0  0  0  0  0  0  0  0  0  0
   14.3644   -9.6996  -16.3748 N   0  0  0  0  0  0  0  0  0  0  0  0
   20.8766   -6.4114  -14.7154 C   0  0  0  0  0  0  0  0  0  0  0  0
   21.9007   -6.7312  -13.7943 O   0  0  0  0  0  0  0  0  0  0  0  0
   20.6980   -5.1864  -14.8800 O   0  0  0  0  0  0  0  0  0  0  0  0
  2  1  1  1
  2  3  1  0
  4  5  2  0
  4  2  1  0
  7  6  1  6
  7  8  1  0
  8  4  1  0
  9 10  2  0
  9  7  1  0
 11  9  1  0
 12 13  1  1
 12 11  1  0
 13 14  1  0
 14 15  1  0
 15 16  1  0
 16 17  1  0
 18 12  1  0
 19 18  1  0
 20 18  2  0
M  END
$$$$
