AAK.pdb
     RDKit          3D

 20 19  0  0  1  0  0  0  0  0999 V2000
   26.3821  -19.0910  -17.2694 C   0  0  0  0  0  0  0  0  0  0  0  0
   25.0454  -19.8004  -17.3253 C   0  0  2  0  0  0  0  0  0  0  0  0
   24.3320  -19.3165  -18.4766 N   0  0  0  0  0  0  0  0  0  0  0  0
   24.3091  -19.5358  -16.0586 C   0  0  0  0  0  0  0  0  0  0  0  0
   24.8177  -19.9463  -14.9892 O   0  0  0  0  0  0  0  0  0  0  0  0
   21.6318  -17.2766  -14.8358 C   0  0  0  0  0  0  0  0  0  0  0  0
   22.2908  -18.6298  -14.9047 C   0  0  2  0  0  0  0  0  0  0  0  0
   23.0730  -18.8401  -16.0807 N   0  0  0  0  0  0  0  0  0  0  0  0
   21.2998  -19.7404  -14.7786 C   0  0  0  0  0  0  0  0  0  0  0  0
   20.7202  -20.2653  -15.7586 O   0  0  0  0  0  0  0  0  0  0  0  0
   20.9605  -20.2670  -13.4982 N   0  0  0  0  0  0  0  0  0  0  0  0
   20.0026  -21.3804  -13.3687 C   0  0  1  0  0  0  0  0  0  0  0  0
   20.2162  -22.0407  -12.0547 C   0  0  0  0  0  0  0  0  0  0  0  0
   19.3099  -23.1567  -11.6999 C   0  0  0  0  0  0  0  0  0  0  0  0
   19.5394  -23.8560  -10.4143 C   0  0  0  0  0  0  0  0  0  0  0  0
   18.5196  -24.9517  -10.1494 C   0  0  0  0  0  0  0  0  0  0  0  0
   18.8257  -25.6457   -8.9202 N   0  0  0  0  0  0  0  0  0  0  0  0
   18.6625  -20.9023  -13.6727 C   0  0  0  0  0  0  0  0  0  0  0  0
   17.7766  -21.7315  -14.3989 O   0  0  0  0  0  0  0  0  0  0  0  0
   18.1822  -19.7953  -13.3509 O   0  0  0  0  0  0  0  0  0  0  0  0
  2  1  1  1
  2  3  1  0
  4  5  2  0
  4  2  1  0
  7  6  1  6
  7  8  1  0
  8  4  1  0
  9 10  2  0
  9  7  1  0
 11  9  1  0
 12 13  1  1
 12 11  1  0
 13 14  1  0
 14 15  1  0
 15 16  1  0
 16 17  1  0
 18 12  1  0
 19 18  1  0
 20 18  2  0
M  END
$$$$
