AAK.pdb
     RDKit          3D

 20 19  0  0  1  0  0  0  0  0999 V2000
   24.9901  -22.5254  -12.9995 C   0  0  0  0  0  0  0  0  0  0  0  0
   25.8720  -21.4522  -12.3965 C   0  0  2  0  0  0  0  0  0  0  0  0
   25.3837  -21.1650  -11.0746 N   0  0  0  0  0  0  0  0  0  0  0  0
   25.8389  -20.2532  -13.2784 C   0  0  0  0  0  0  0  0  0  0  0  0
   24.9252  -19.4155  -13.0935 O   0  0  0  0  0  0  0  0  0  0  0  0
   28.0879  -18.7505  -15.9299 C   0  0  0  0  0  0  0  0  0  0  0  0
   26.7858  -18.9899  -15.2106 C   0  0  2  0  0  0  0  0  0  0  0  0
   26.8184  -20.0811  -14.2901 N   0  0  0  0  0  0  0  0  0  0  0  0
   25.6520  -19.1935  -16.1615 C   0  0  0  0  0  0  0  0  0  0  0  0
   25.1355  -20.3123  -16.3932 O   0  0  0  0  0  0  0  0  0  0  0  0
   25.0913  -18.0897  -16.8680 N   0  0  0  0  0  0  0  0  0  0  0  0
   23.7457  -18.1787  -17.4639 C   0  0  1  0  0  0  0  0  0  0  0  0
   22.7617  -18.4330  -16.3799 C   0  0  0  0  0  0  0  0  0  0  0  0
   21.3279  -18.4320  -16.7498 C   0  0  0  0  0  0  0  0  0  0  0  0
   20.3723  -19.0899  -15.8286 C   0  0  0  0  0  0  0  0  0  0  0  0
   18.9457  -19.0786  -16.3532 C   0  0  0  0  0  0  0  0  0  0  0  0
   18.0224  -19.5028  -15.3264 N   0  0  0  0  0  0  0  0  0  0  0  0
   23.5202  -17.0252  -18.3217 C   0  0  0  0  0  0  0  0  0  0  0  0
   24.2563  -15.8386  -18.0988 O   0  0  0  0  0  0  0  0  0  0  0  0
   22.7169  -16.9596  -19.2756 O   0  0  0  0  0  0  0  0  0  0  0  0
  2  1  1  6
  2  3  1  0
  4  5  2  0
  4  2  1  0
  7  6  1  6
  7  8  1  0
  8  4  1  0
  9 10  2  0
  9  7  1  0
 11  9  1  0
 12 13  1  1
 12 11  1  0
 13 14  1  0
 14 15  1  0
 15 16  1  0
 16 17  1  0
 18 12  1  0
 19 18  1  0
 20 18  2  0
M  END
$$$$
