AAK.pdb
     RDKit          3D

 20 19  0  0  1  0  0  0  0  0999 V2000
   14.4406  -10.3081  -14.8579 C   0  0  0  0  0  0  0  0  0  0  0  0
   15.9464  -10.4614  -14.8128 C   0  0  2  0  0  0  0  0  0  0  0  0
   16.2487  -11.6930  -14.1343 N   0  0  0  0  0  0  0  0  0  0  0  0
   16.5277   -9.2811  -14.1159 C   0  0  0  0  0  0  0  0  0  0  0  0
   16.4907   -8.1761  -14.7060 O   0  0  0  0  0  0  0  0  0  0  0  0
   17.7393   -8.4755  -10.6422 C   0  0  0  0  0  0  0  0  0  0  0  0
   17.7258   -8.3350  -12.1422 C   0  0  2  0  0  0  0  0  0  0  0  0
   17.1006   -9.4217  -12.8258 N   0  0  0  0  0  0  0  0  0  0  0  0
   19.0990   -8.1411  -12.6971 C   0  0  0  0  0  0  0  0  0  0  0  0
   19.7810   -9.0673  -13.1962 O   0  0  0  0  0  0  0  0  0  0  0  0
   19.7118   -6.8541  -12.6822 N   0  0  0  0  0  0  0  0  0  0  0  0
   21.0260   -6.6355  -13.3138 C   0  0  1  0  0  0  0  0  0  0  0  0
   20.9350   -7.0211  -14.7460 C   0  0  0  0  0  0  0  0  0  0  0  0
   22.0980   -6.7107  -15.6084 C   0  0  0  0  0  0  0  0  0  0  0  0
   21.9995   -7.0345  -17.0506 C   0  0  0  0  0  0  0  0  0  0  0  0
   23.2894   -6.7579  -17.8059 C   0  0  0  0  0  0  0  0  0  0  0  0
   23.1013   -6.9561  -19.2242 N   0  0  0  0  0  0  0  0  0  0  0  0
   21.4921   -5.2919  -13.0060 C   0  0  0  0  0  0  0  0  0  0  0  0
   20.5707   -4.2192  -13.0066 O   0  0  0  0  0  0  0  0  0  0  0  0
   22.6640   -4.9621  -12.7276 O   0  0  0  0  0  0  0  0  0  0  0  0
  2  1  1  1
  2  3  1  0
  4  5  2  0
  4  2  1  0
  7  6  1  1
  7  8  1  0
  8  4  1  0
  9 10  2  0
  9  7  1  0
 11  9  1  0
 12 13  1  6
 12 11  1  0
 13 14  1  0
 14 15  1  0
 15 16  1  0
 16 17  1  0
 18 12  1  0
 19 18  1  0
 20 18  2  0
M  END
$$$$
