AAK.pdb
     RDKit          3D

 20 19  0  0  1  0  0  0  0  0999 V2000
   17.0273  -14.6437  -16.7908 C   0  0  0  0  0  0  0  0  0  0  0  0
   17.9672  -13.5579  -16.3104 C   0  0  2  0  0  0  0  0  0  0  0  0
   18.2707  -13.8110  -14.9275 N   0  0  0  0  0  0  0  0  0  0  0  0
   17.3121  -12.2355  -16.5068 C   0  0  0  0  0  0  0  0  0  0  0  0
   17.3325  -11.7369  -17.6564 O   0  0  0  0  0  0  0  0  0  0  0  0
   14.8514  -10.1409  -14.6200 C   0  0  0  0  0  0  0  0  0  0  0  0
   16.0136  -10.3262  -15.5607 C   0  0  2  0  0  0  0  0  0  0  0  0
   16.6896  -11.5757  -15.4160 N   0  0  0  0  0  0  0  0  0  0  0  0
   17.0108   -9.2206  -15.4406 C   0  0  0  0  0  0  0  0  0  0  0  0
   18.0383   -9.2900  -14.7255 O   0  0  0  0  0  0  0  0  0  0  0  0
   16.8308   -8.0011  -16.1565 N   0  0  0  0  0  0  0  0  0  0  0  0
   17.8270   -6.9180  -16.0667 C   0  0  1  0  0  0  0  0  0  0  0  0
   17.5868   -5.9581  -17.1754 C   0  0  0  0  0  0  0  0  0  0  0  0
   18.4868   -4.7859  -17.2662 C   0  0  0  0  0  0  0  0  0  0  0  0
   18.3342   -3.8813  -18.4293 C   0  0  0  0  0  0  0  0  0  0  0  0
   19.4126   -2.8117  -18.4893 C   0  0  0  0  0  0  0  0  0  0  0  0
   19.2992   -2.0420  -19.7063 N   0  0  0  0  0  0  0  0  0  0  0  0
   17.8457   -6.3903  -14.7108 C   0  0  0  0  0  0  0  0  0  0  0  0
   19.0789   -6.0221  -14.1251 O   0  0  0  0  0  0  0  0  0  0  0  0
   16.8539   -6.2160  -13.9721 O   0  0  0  0  0  0  0  0  0  0  0  0
  2  1  1  1
  2  3  1  0
  4  5  2  0
  4  2  1  0
  7  6  1  1
  7  8  1  0
  8  4  1  0
  9 10  2  0
  9  7  1  0
 11  9  1  0
 12 13  1  6
 12 11  1  0
 13 14  1  0
 14 15  1  0
 15 16  1  0
 16 17  1  0
 18 12  1  0
 19 18  1  0
 20 18  2  0
M  END
$$$$
