AAK.pdb
     RDKit          3D

 20 19  0  0  1  0  0  0  0  0999 V2000
   19.6660  -11.7010  -19.3103 C   0  0  0  0  0  0  0  0  0  0  0  0
   20.3391  -12.1155  -18.0187 C   0  0  2  0  0  0  0  0  0  0  0  0
   19.7789  -13.3750  -17.6085 N   0  0  0  0  0  0  0  0  0  0  0  0
   20.1231  -11.0492  -17.0022 C   0  0  0  0  0  0  0  0  0  0  0  0
   18.9421  -10.7639  -16.6949 O   0  0  0  0  0  0  0  0  0  0  0  0
   22.3292   -9.1177  -14.6085 C   0  0  0  0  0  0  0  0  0  0  0  0
   21.0780   -9.3891  -15.4027 C   0  0  2  0  0  0  0  0  0  0  0  0
   21.2307  -10.3885  -16.4111 N   0  0  0  0  0  0  0  0  0  0  0  0
   20.5353   -8.1474  -16.0311 C   0  0  0  0  0  0  0  0  0  0  0  0
   20.8553   -7.7557  -17.1784 O   0  0  0  0  0  0  0  0  0  0  0  0
   19.6012   -7.3293  -15.3311 N   0  0  0  0  0  0  0  0  0  0  0  0
   19.1181   -6.0646  -15.9149 C   0  0  1  0  0  0  0  0  0  0  0  0
   17.6638   -5.9377  -15.6370 C   0  0  0  0  0  0  0  0  0  0  0  0
   17.0005   -4.6799  -16.0497 C   0  0  0  0  0  0  0  0  0  0  0  0
   15.5391   -4.5632  -15.8374 C   0  0  0  0  0  0  0  0  0  0  0  0
   14.9915   -3.2044  -16.2431 C   0  0  0  0  0  0  0  0  0  0  0  0
   13.5516   -3.1816  -16.1308 N   0  0  0  0  0  0  0  0  0  0  0  0
   19.9831   -4.9747  -15.4891 C   0  0  0  0  0  0  0  0  0  0  0  0
   20.7708   -5.1267  -14.3246 O   0  0  0  0  0  0  0  0  0  0  0  0
   20.1173   -3.8719  -16.0596 O   0  0  0  0  0  0  0  0  0  0  0  0
  2  1  1  6
  2  3  1  0
  4  5  2  0
  4  2  1  0
  7  6  1  6
  7  8  1  0
  8  4  1  0
  9 10  2  0
  9  7  1  0
 11  9  1  0
 12 13  1  1
 12 11  1  0
 13 14  1  0
 14 15  1  0
 15 16  1  0
 16 17  1  0
 18 12  1  0
 19 18  1  0
 20 18  2  0
M  END
$$$$
