AAK.pdb
     RDKit          3D

 20 19  0  0  1  0  0  0  0  0999 V2000
   19.3901  -14.4598  -18.1848 C   0  0  0  0  0  0  0  0  0  0  0  0
   20.2403  -13.7005  -17.1880 C   0  0  2  0  0  0  0  0  0  0  0  0
   19.8434  -14.1035  -15.8656 N   0  0  0  0  0  0  0  0  0  0  0  0
   20.0494  -12.2406  -17.4092 C   0  0  0  0  0  0  0  0  0  0  0  0
   20.7337  -11.6895  -18.3028 O   0  0  0  0  0  0  0  0  0  0  0  0
   17.4675   -9.6910  -16.4633 C   0  0  0  0  0  0  0  0  0  0  0  0
   18.8637  -10.1231  -16.8292 C   0  0  2  0  0  0  0  0  0  0  0  0
   19.1183  -11.5131  -16.6240 N   0  0  0  0  0  0  0  0  0  0  0  0
   19.9014   -9.3297  -16.1047 C   0  0  0  0  0  0  0  0  0  0  0  0
   20.3488   -9.6425  -14.9760 O   0  0  0  0  0  0  0  0  0  0  0  0
   20.4443   -8.1458  -16.6843 N   0  0  0  0  0  0  0  0  0  0  0  0
   21.4784   -7.3655  -15.9804 C   0  0  1  0  0  0  0  0  0  0  0  0
   22.1383   -6.4609  -16.9573 C   0  0  0  0  0  0  0  0  0  0  0  0
   23.1233   -5.4907  -16.4270 C   0  0  0  0  0  0  0  0  0  0  0  0
   23.8002   -4.5913  -17.3900 C   0  0  0  0  0  0  0  0  0  0  0  0
   24.7852   -3.6463  -16.7211 C   0  0  0  0  0  0  0  0  0  0  0  0
   25.4520   -2.8258  -17.7053 N   0  0  0  0  0  0  0  0  0  0  0  0
   20.9010   -6.7636  -14.7881 C   0  0  0  0  0  0  0  0  0  0  0  0
   19.5680   -6.2930  -14.8228 O   0  0  0  0  0  0  0  0  0  0  0  0
   21.4718   -6.6090  -13.6881 O   0  0  0  0  0  0  0  0  0  0  0  0
  2  1  1  6
  2  3  1  0
  4  5  2  0
  4  2  1  0
  7  6  1  1
  7  8  1  0
  8  4  1  0
  9 10  2  0
  9  7  1  0
 11  9  1  0
 12 13  1  6
 12 11  1  0
 13 14  1  0
 14 15  1  0
 15 16  1  0
 16 17  1  0
 18 12  1  0
 19 18  1  0
 20 18  2  0
M  END
$$$$
