AAK.pdb
     RDKit          3D

 20 19  0  0  1  0  0  0  0  0999 V2000
   17.5751  -14.4554  -19.4693 C   0  0  0  0  0  0  0  0  0  0  0  0
   18.0568  -13.0679  -19.8380 C   0  0  2  0  0  0  0  0  0  0  0  0
   19.3652  -13.1910  -20.4223 N   0  0  0  0  0  0  0  0  0  0  0  0
   18.0683  -12.2231  -18.6121 C   0  0  0  0  0  0  0  0  0  0  0  0
   16.9717  -11.9878  -18.0530 O   0  0  0  0  0  0  0  0  0  0  0  0
   20.7289  -10.9327  -16.2639 C   0  0  0  0  0  0  0  0  0  0  0  0
   19.3634  -10.9508  -16.9003 C   0  0  2  0  0  0  0  0  0  0  0  0
   19.2909  -11.7098  -18.1077 N   0  0  0  0  0  0  0  0  0  0  0  0
   18.8525   -9.5722  -17.1648 C   0  0  0  0  0  0  0  0  0  0  0  0
   19.1275   -8.9188  -18.1990 O   0  0  0  0  0  0  0  0  0  0  0  0
   18.0038   -8.9206  -16.2229 N   0  0  0  0  0  0  0  0  0  0  0  0
   17.4991   -7.5587  -16.4763 C   0  0  1  0  0  0  0  0  0  0  0  0
   16.0858   -7.4837  -16.0232 C   0  0  0  0  0  0  0  0  0  0  0  0
   15.4253   -6.1594  -16.0745 C   0  0  0  0  0  0  0  0  0  0  0  0
   14.0356   -6.0563  -15.5719 C   0  0  0  0  0  0  0  0  0  0  0  0
   13.4100   -4.6979  -15.8440 C   0  0  0  0  0  0  0  0  0  0  0  0
   12.0077   -4.7047  -15.4978 N   0  0  0  0  0  0  0  0  0  0  0  0
   18.4345   -6.5875  -15.9296 C   0  0  0  0  0  0  0  0  0  0  0  0
   19.2595   -6.9535  -14.8410 O   0  0  0  0  0  0  0  0  0  0  0  0
   18.6014   -5.4162  -16.3293 O   0  0  0  0  0  0  0  0  0  0  0  0
  2  1  1  1
  2  3  1  0
  4  5  2  0
  4  2  1  0
  7  6  1  6
  7  8  1  0
  8  4  1  0
  9 10  2  0
  9  7  1  0
 11  9  1  0
 12 13  1  1
 12 11  1  0
 13 14  1  0
 14 15  1  0
 15 16  1  0
 16 17  1  0
 18 12  1  0
 19 18  1  0
 20 18  2  0
M  END
$$$$
