AAK.pdb
     RDKit          3D

 20 19  0  0  1  0  0  0  0  0999 V2000
   19.4849  -11.0355  -15.8788 C   0  0  0  0  0  0  0  0  0  0  0  0
   18.7427   -9.7587  -15.5442 C   0  0  2  0  0  0  0  0  0  0  0  0
   19.2543   -8.7119  -16.3873 N   0  0  0  0  0  0  0  0  0  0  0  0
   18.9348   -9.4575  -14.0988 C   0  0  0  0  0  0  0  0  0  0  0  0
   18.4649  -10.2663  -13.2648 O   0  0  0  0  0  0  0  0  0  0  0  0
   20.9462   -7.0114  -12.0512 C   0  0  0  0  0  0  0  0  0  0  0  0
   19.7702   -7.9121  -12.3268 C   0  0  2  0  0  0  0  0  0  0  0  0
   19.6301   -8.2879  -13.6973 N   0  0  0  0  0  0  0  0  0  0  0  0
   18.4855   -7.3125  -11.8564 C   0  0  0  0  0  0  0  0  0  0  0  0
   17.8074   -6.5071  -12.5373 O   0  0  0  0  0  0  0  0  0  0  0  0
   17.9594   -7.6408  -10.5729 N   0  0  0  0  0  0  0  0  0  0  0  0
   16.6930   -7.0509  -10.1018 C   0  0  1  0  0  0  0  0  0  0  0  0
   15.7778   -8.1499   -9.6982 C   0  0  0  0  0  0  0  0  0  0  0  0
   14.4437   -7.7679   -9.1818 C   0  0  0  0  0  0  0  0  0  0  0  0
   13.4750   -8.8505   -8.8918 C   0  0  0  0  0  0  0  0  0  0  0  0
   12.1077   -8.3245   -8.4862 C   0  0  0  0  0  0  0  0  0  0  0  0
   11.1767   -9.4137   -8.3041 N   0  0  0  0  0  0  0  0  0  0  0  0
   16.9783   -6.0165   -9.1191 C   0  0  0  0  0  0  0  0  0  0  0  0
   16.1047   -4.9109   -8.9999 O   0  0  0  0  0  0  0  0  0  0  0  0
   17.9481   -5.9918   -8.3327 O   0  0  0  0  0  0  0  0  0  0  0  0
  2  1  1  6
  2  3  1  0
  4  5  2  0
  4  2  1  0
  7  6  1  6
  7  8  1  0
  8  4  1  0
  9 10  2  0
  9  7  1  0
 11  9  1  0
 12 13  1  1
 12 11  1  0
 13 14  1  0
 14 15  1  0
 15 16  1  0
 16 17  1  0
 18 12  1  0
 19 18  1  0
 20 18  2  0
M  END
$$$$
