AAK.pdb
     RDKit          3D

 20 19  0  0  1  0  0  0  0  0999 V2000
   28.9078   -9.3063  -17.3124 C   0  0  0  0  0  0  0  0  0  0  0  0
   28.5024  -10.7358  -17.6047 C   0  0  2  0  0  0  0  0  0  0  0  0
   28.9039  -11.0466  -18.9502 N   0  0  0  0  0  0  0  0  0  0  0  0
   27.0313  -10.8649  -17.4155 C   0  0  0  0  0  0  0  0  0  0  0  0
   26.2837  -10.4207  -18.3180 O   0  0  0  0  0  0  0  0  0  0  0  0
   24.7640  -12.4955  -14.8386 C   0  0  0  0  0  0  0  0  0  0  0  0
   25.1087  -11.6209  -16.0161 C   0  0  2  0  0  0  0  0  0  0  0  0
   26.5105  -11.4739  -16.2448 N   0  0  0  0  0  0  0  0  0  0  0  0
   24.4927  -10.2648  -15.9034 C   0  0  0  0  0  0  0  0  0  0  0  0
   25.1586   -9.2031  -15.8660 O   0  0  0  0  0  0  0  0  0  0  0  0
   23.0769  -10.1155  -15.8314 N   0  0  0  0  0  0  0  0  0  0  0  0
   22.4543   -8.7800  -15.8819 C   0  0  1  0  0  0  0  0  0  0  0  0
   23.0457   -8.0225  -17.0154 C   0  0  0  0  0  0  0  0  0  0  0  0
   22.5125   -6.6663  -17.2779 C   0  0  0  0  0  0  0  0  0  0  0  0
   23.1411   -5.8696  -18.3571 C   0  0  0  0  0  0  0  0  0  0  0  0
   22.5375   -4.4811  -18.4924 C   0  0  0  0  0  0  0  0  0  0  0  0
   23.2354   -3.7187  -19.5014 N   0  0  0  0  0  0  0  0  0  0  0  0
   21.0064   -8.9206  -15.8479 C   0  0  0  0  0  0  0  0  0  0  0  0
   20.2224   -7.8999  -15.2620 O   0  0  0  0  0  0  0  0  0  0  0  0
   20.3466   -9.8807  -16.2977 O   0  0  0  0  0  0  0  0  0  0  0  0
  2  1  1  6
  2  3  1  0
  4  5  2  0
  4  2  1  0
  7  6  1  1
  7  8  1  0
  8  4  1  0
  9 10  2  0
  9  7  1  0
 11  9  1  0
 12 13  1  6
 12 11  1  0
 13 14  1  0
 14 15  1  0
 15 16  1  0
 16 17  1  0
 18 12  1  0
 19 18  1  0
 20 18  2  0
M  END
$$$$
