AAK.pdb
     RDKit          3D

 20 19  0  0  1  0  0  0  0  0999 V2000
   22.0286  -13.5438  -18.5947 C   0  0  0  0  0  0  0  0  0  0  0  0
   21.0550  -12.3861  -18.6644 C   0  0  2  0  0  0  0  0  0  0  0  0
   20.9894  -11.9406  -20.0303 N   0  0  0  0  0  0  0  0  0  0  0  0
   21.5224  -11.3109  -17.7467 C   0  0  0  0  0  0  0  0  0  0  0  0
   21.5836  -11.5718  -16.5224 O   0  0  0  0  0  0  0  0  0  0  0  0
   22.8553   -7.7783  -18.1258 C   0  0  0  0  0  0  0  0  0  0  0  0
   22.1997   -8.9326  -17.4132 C   0  0  2  0  0  0  0  0  0  0  0  0
   21.8827  -10.0382  -18.2595 N   0  0  0  0  0  0  0  0  0  0  0  0
   20.9649   -8.5111  -16.6860 C   0  0  0  0  0  0  0  0  0  0  0  0
   19.8193   -8.5372  -17.1947 O   0  0  0  0  0  0  0  0  0  0  0  0
   21.0391   -8.0466  -15.3404 N   0  0  0  0  0  0  0  0  0  0  0  0
   19.8536   -7.4831  -14.6690 C   0  0  1  0  0  0  0  0  0  0  0  0
   19.4034   -8.4354  -13.6209 C   0  0  0  0  0  0  0  0  0  0  0  0
   18.2474   -8.0323  -12.7880 C   0  0  0  0  0  0  0  0  0  0  0  0
   17.7376   -9.0024  -11.7911 C   0  0  0  0  0  0  0  0  0  0  0  0
   16.3985   -8.5914  -11.2006 C   0  0  0  0  0  0  0  0  0  0  0  0
   15.8932   -9.6194  -10.3206 N   0  0  0  0  0  0  0  0  0  0  0  0
   20.1346   -6.1151  -14.2607 C   0  0  0  0  0  0  0  0  0  0  0  0
   19.0608   -5.2272  -14.0192 O   0  0  0  0  0  0  0  0  0  0  0  0
   21.2650   -5.6124  -14.0899 O   0  0  0  0  0  0  0  0  0  0  0  0
  2  1  1  6
  2  3  1  0
  4  5  2  0
  4  2  1  0
  7  6  1  6
  7  8  1  0
  8  4  1  0
  9 10  2  0
  9  7  1  0
 11  9  1  0
 12 13  1  1
 12 11  1  0
 13 14  1  0
 14 15  1  0
 15 16  1  0
 16 17  1  0
 18 12  1  0
 19 18  1  0
 20 18  2  0
M  END
$$$$
