AAK.pdb
     RDKit          3D

 20 19  0  0  1  0  0  0  0  0999 V2000
   14.1608  -10.6841  -14.6531 C   0  0  0  0  0  0  0  0  0  0  0  0
   15.6513  -10.4791  -14.8248 C   0  0  2  0  0  0  0  0  0  0  0  0
   16.2165  -11.7073  -15.3152 N   0  0  0  0  0  0  0  0  0  0  0  0
   16.2341  -10.0786  -13.5146 C   0  0  0  0  0  0  0  0  0  0  0  0
   15.7613  -10.6025  -12.4789 O   0  0  0  0  0  0  0  0  0  0  0  0
   19.2626   -8.1492  -12.3583 C   0  0  0  0  0  0  0  0  0  0  0  0
   17.8652   -8.6971  -12.2273 C   0  0  2  0  0  0  0  0  0  0  0  0
   17.2901   -9.1329  -13.4596 N   0  0  0  0  0  0  0  0  0  0  0  0
   16.9399   -7.7180  -11.5819 C   0  0  0  0  0  0  0  0  0  0  0  0
   16.3474   -6.8084  -12.2094 O   0  0  0  0  0  0  0  0  0  0  0  0
   16.6833   -7.7781  -10.1810 N   0  0  0  0  0  0  0  0  0  0  0  0
   15.8547   -6.7533   -9.5199 C   0  0  1  0  0  0  0  0  0  0  0  0
   14.8257   -7.4353   -8.6926 C   0  0  0  0  0  0  0  0  0  0  0  0
   13.7422   -8.1479   -9.4074 C   0  0  0  0  0  0  0  0  0  0  0  0
   12.7539   -8.8993   -8.5993 C   0  0  0  0  0  0  0  0  0  0  0  0
   11.6682   -9.5434   -9.4461 C   0  0  0  0  0  0  0  0  0  0  0  0
   10.7990  -10.3561   -8.6273 N   0  0  0  0  0  0  0  0  0  0  0  0
   16.7183   -5.7866   -8.8591 C   0  0  0  0  0  0  0  0  0  0  0  0
   16.2104   -4.5067   -8.5370 O   0  0  0  0  0  0  0  0  0  0  0  0
   17.9090   -5.9649   -8.5275 O   0  0  0  0  0  0  0  0  0  0  0  0
  2  1  1  1
  2  3  1  0
  4  5  2  0
  4  2  1  0
  7  6  1  6
  7  8  1  0
  8  4  1  0
  9 10  2  0
  9  7  1  0
 11  9  1  0
 12 13  1  1
 12 11  1  0
 13 14  1  0
 14 15  1  0
 15 16  1  0
 16 17  1  0
 18 12  1  0
 19 18  1  0
 20 18  2  0
M  END
$$$$
