YVE.pdb
     RDKit          3D

 29 29  0  0  1  0  0  0  0  0999 V2000
   20.1899  -23.4645   -7.2015 O   0  0  0  0  0  0  0  0  0  0  0  0
   20.9486  -22.6900   -8.0798 C   0  0  0  0  0  0  0  0  0  0  0  0
   21.6398  -21.5736   -7.6087 C   0  0  0  0  0  0  0  0  0  0  0  0
   22.3957  -20.7991   -8.4751 C   0  0  0  0  0  0  0  0  0  0  0  0
   22.4960  -21.0915   -9.8132 C   0  0  0  0  0  0  0  0  0  0  0  0
   23.3083  -20.2587  -10.7419 C   0  0  0  0  0  0  0  0  0  0  0  0
   24.5117  -21.0384  -11.2780 C   0  0  2  0  0  0  0  0  0  0  0  0
   25.4265  -21.1524  -10.1607 N   0  0  0  0  0  0  0  0  0  0  0  0
   25.0964  -20.1776  -12.3430 C   0  0  0  0  0  0  0  0  0  0  0  0
   25.1930  -18.9409  -12.0922 O   0  0  0  0  0  0  0  0  0  0  0  0
   21.8101  -22.2010  -10.2858 C   0  0  0  0  0  0  0  0  0  0  0  0
   21.0564  -22.9716   -9.4167 C   0  0  0  0  0  0  0  0  0  0  0  0
   28.1641  -19.4925  -15.9960 C   0  0  0  0  0  0  0  0  0  0  0  0
   27.4749  -20.2859  -14.9489 C   0  0  1  0  0  0  0  0  0  0  0  0
   28.4201  -20.4117  -13.7548 C   0  0  0  0  0  0  0  0  0  0  0  0
   26.1418  -19.7437  -14.5352 C   0  0  2  0  0  0  0  0  0  0  0  0
   25.5296  -20.6996  -13.5843 N   0  0  0  0  0  0  0  0  0  0  0  0
   25.2447  -19.5732  -15.6791 C   0  0  0  0  0  0  0  0  0  0  0  0
   24.7892  -20.5792  -16.3296 O   0  0  0  0  0  0  0  0  0  0  0  0
   24.8263  -18.3082  -16.1233 N   0  0  0  0  0  0  0  0  0  0  0  0
   23.8033  -18.2014  -17.1931 C   0  0  1  0  0  0  0  0  0  0  0  0
   22.7844  -17.1750  -16.7845 C   0  0  0  0  0  0  0  0  0  0  0  0
   21.8230  -16.9119  -17.9030 C   0  0  0  0  0  0  0  0  0  0  0  0
   20.9563  -15.7695  -17.5061 C   0  0  0  0  0  0  0  0  0  0  0  0
   21.0914  -15.1062  -16.4583 O   0  0  0  0  0  0  0  0  0  0  0  0
   24.5046  -17.8152  -18.4149 C   0  0  0  0  0  0  0  0  0  0  0  0
   25.5806  -17.1871  -18.3780 O   0  0  0  0  0  0  0  0  0  0  0  0
   19.9005  -15.3851  -18.3510 O   0  0  0  0  0  0  0  0  0  0  0  0
   24.0113  -18.1279  -19.6675 O   0  0  0  0  0  0  0  0  0  0  0  0
  2  1  1  0
  2 12  2  0
  3  2  1  0
  4  3  2  0
  4  5  1  0
  5 11  2  0
  6  5  1  0
  6  7  1  0
  7  8  1  1
  9  7  1  0
  9 17  1  0
 10  9  2  0
 11 12  1  0
 14 13  1  6
 14 15  1  0
 16 17  1  1
 16 14  1  0
 18 16  1  0
 19 18  2  0
 20 18  1  0
 21 20  1  0
 21 22  1  1
 23 22  1  0
 23 24  1  0
 24 25  2  0
 26 21  1  0
 27 26  2  0
 28 24  1  0
 29 26  1  0
M  END
$$$$
