YVE.pdb
     RDKit          3D

 29 29  0  0  1  0  0  0  0  0999 V2000
   20.6254  -10.6703  -15.5194 O   0  0  0  0  0  0  0  0  0  0  0  0
   21.9248  -10.3872  -15.9420 C   0  0  0  0  0  0  0  0  0  0  0  0
   22.6233   -9.3162  -15.3844 C   0  0  0  0  0  0  0  0  0  0  0  0
   23.9145   -9.0284  -15.7989 C   0  0  0  0  0  0  0  0  0  0  0  0
   24.5526   -9.7723  -16.7609 C   0  0  0  0  0  0  0  0  0  0  0  0
   25.9391   -9.4619  -17.2047 C   0  0  0  0  0  0  0  0  0  0  0  0
   26.9443  -10.4596  -16.6237 C   0  0  2  0  0  0  0  0  0  0  0  0
   26.6279  -10.5490  -15.2130 N   0  0  0  0  0  0  0  0  0  0  0  0
   28.2804   -9.8317  -16.8182 C   0  0  0  0  0  0  0  0  0  0  0  0
   28.6113   -8.9232  -16.0018 O   0  0  0  0  0  0  0  0  0  0  0  0
   23.8613  -10.8384  -17.3181 C   0  0  0  0  0  0  0  0  0  0  0  0
   22.5719  -11.1220  -16.9009 C   0  0  0  0  0  0  0  0  0  0  0  0
   31.3014  -11.5005  -19.2627 C   0  0  0  0  0  0  0  0  0  0  0  0
   31.5210  -10.6182  -18.0903 C   0  0  1  0  0  0  0  0  0  0  0  0
   32.9172  -10.0095  -18.2140 C   0  0  0  0  0  0  0  0  0  0  0  0
   30.4782   -9.5596  -17.9054 C   0  0  2  0  0  0  0  0  0  0  0  0
   29.1533  -10.2194  -17.8615 N   0  0  0  0  0  0  0  0  0  0  0  0
   30.4880   -8.5886  -19.0006 C   0  0  0  0  0  0  0  0  0  0  0  0
   29.8635   -8.8095  -20.0979 O   0  0  0  0  0  0  0  0  0  0  0  0
   31.1694   -7.3637  -18.9122 N   0  0  0  0  0  0  0  0  0  0  0  0
   31.0838   -6.3880  -20.0272 C   0  0  1  0  0  0  0  0  0  0  0  0
   31.3251   -5.0092  -19.4803 C   0  0  0  0  0  0  0  0  0  0  0  0
   31.1619   -3.9791  -20.5559 C   0  0  0  0  0  0  0  0  0  0  0  0
   31.6519   -2.6781  -20.0257 C   0  0  0  0  0  0  0  0  0  0  0  0
   32.2102   -2.5266  -18.9205 O   0  0  0  0  0  0  0  0  0  0  0  0
   32.0989   -6.7703  -21.0055 C   0  0  0  0  0  0  0  0  0  0  0  0
   33.1945   -7.2502  -20.6544 O   0  0  0  0  0  0  0  0  0  0  0  0
   31.4891   -1.5173  -20.8018 O   0  0  0  0  0  0  0  0  0  0  0  0
   31.8939   -6.6206  -22.3640 O   0  0  0  0  0  0  0  0  0  0  0  0
  2  1  1  0
  2 12  2  0
  3  2  1  0
  4  3  2  0
  4  5  1  0
  5 11  2  0
  6  5  1  0
  6  7  1  0
  7  8  1  1
  9  7  1  0
  9 17  1  0
 10  9  2  0
 11 12  1  0
 14 13  1  6
 14 15  1  0
 16 17  1  6
 16 14  1  0
 18 16  1  0
 19 18  2  0
 20 18  1  0
 21 20  1  0
 21 22  1  1
 23 22  1  0
 23 24  1  0
 24 25  2  0
 26 21  1  0
 27 26  2  0
 28 24  1  0
 29 26  1  0
M  END
$$$$
