YVE.pdb
     RDKit          3D

 29 29  0  0  1  0  0  0  0  0999 V2000
   26.5649  -23.4806  -15.8997 O   0  0  0  0  0  0  0  0  0  0  0  0
   25.4332  -23.2171  -15.1272 C   0  0  0  0  0  0  0  0  0  0  0  0
   24.5908  -24.2605  -14.7429 C   0  0  0  0  0  0  0  0  0  0  0  0
   23.4645  -24.0068  -13.9755 C   0  0  0  0  0  0  0  0  0  0  0  0
   23.1334  -22.7384  -13.5664 C   0  0  0  0  0  0  0  0  0  0  0  0
   21.9236  -22.4680  -12.7424 C   0  0  0  0  0  0  0  0  0  0  0  0
   20.6461  -22.8729  -13.4825 C   0  0  2  0  0  0  0  0  0  0  0  0
   20.3417  -21.7633  -14.3623 N   0  0  0  0  0  0  0  0  0  0  0  0
   19.6032  -23.0014  -12.4275 C   0  0  0  0  0  0  0  0  0  0  0  0
   19.0282  -21.9367  -12.0570 O   0  0  0  0  0  0  0  0  0  0  0  0
   23.9686  -21.6977  -13.9465 C   0  0  0  0  0  0  0  0  0  0  0  0
   25.0924  -21.9559  -14.7130 C   0  0  0  0  0  0  0  0  0  0  0  0
   15.7684  -25.2519  -10.8581 C   0  0  0  0  0  0  0  0  0  0  0  0
   16.9557  -24.9500  -11.6948 C   0  0  1  0  0  0  0  0  0  0  0  0
   16.4893  -24.1260  -12.8943 C   0  0  0  0  0  0  0  0  0  0  0  0
   18.0727  -24.2693  -10.9659 C   0  0  2  0  0  0  0  0  0  0  0  0
   19.2575  -24.2472  -11.8538 N   0  0  0  0  0  0  0  0  0  0  0  0
   18.4211  -24.9687   -9.7283 C   0  0  0  0  0  0  0  0  0  0  0  0
   19.1411  -26.0290   -9.7374 O   0  0  0  0  0  0  0  0  0  0  0  0
   17.9978  -24.5190   -8.4669 N   0  0  0  0  0  0  0  0  0  0  0  0
   18.3760  -25.2753   -7.2472 C   0  0  1  0  0  0  0  0  0  0  0  0
   18.1190  -24.4105   -6.0452 C   0  0  0  0  0  0  0  0  0  0  0  0
   16.6487  -24.2990   -5.7805 C   0  0  0  0  0  0  0  0  0  0  0  0
   16.3588  -24.9883   -4.4941 C   0  0  0  0  0  0  0  0  0  0  0  0
   17.2133  -25.5562   -3.7845 O   0  0  0  0  0  0  0  0  0  0  0  0
   17.5615  -26.4877   -7.2291 C   0  0  0  0  0  0  0  0  0  0  0  0
   16.4277  -26.5190   -7.7461 O   0  0  0  0  0  0  0  0  0  0  0  0
   15.0370  -25.0195   -4.0166 O   0  0  0  0  0  0  0  0  0  0  0  0
   18.0078  -27.6560   -6.6411 O   0  0  0  0  0  0  0  0  0  0  0  0
  2  1  1  0
  2 12  2  0
  3  2  1  0
  4  3  2  0
  4  5  1  0
  5 11  2  0
  6  5  1  0
  6  7  1  0
  7  8  1  6
  9  7  1  0
  9 17  1  0
 10  9  2  0
 11 12  1  0
 14 13  1  1
 14 15  1  0
 16 17  1  6
 16 14  1  0
 18 16  1  0
 19 18  2  0
 20 18  1  0
 21 20  1  0
 21 22  1  1
 23 22  1  0
 23 24  1  0
 24 25  2  0
 26 21  1  0
 27 26  2  0
 28 24  1  0
 29 26  1  0
M  END
$$$$
