YVE.pdb
     RDKit          3D

 29 29  0  0  1  0  0  0  0  0999 V2000
   27.3833  -15.7491  -20.6227 O   0  0  0  0  0  0  0  0  0  0  0  0
   26.9008  -16.7397  -19.7666 C   0  0  0  0  0  0  0  0  0  0  0  0
   26.7280  -18.0431  -20.2328 C   0  0  0  0  0  0  0  0  0  0  0  0
   26.2491  -19.0327  -19.3884 C   0  0  0  0  0  0  0  0  0  0  0  0
   25.9288  -18.7784  -18.0774 C   0  0  0  0  0  0  0  0  0  0  0  0
   25.4148  -19.8424  -17.1723 C   0  0  0  0  0  0  0  0  0  0  0  0
   26.5241  -20.3849  -16.2674 C   0  0  2  0  0  0  0  0  0  0  0  0
   27.3139  -21.2611  -17.1080 N   0  0  0  0  0  0  0  0  0  0  0  0
   25.8242  -21.1684  -15.2122 C   0  0  0  0  0  0  0  0  0  0  0  0
   25.4077  -22.3193  -15.5338 O   0  0  0  0  0  0  0  0  0  0  0  0
   26.0992  -17.4833  -17.6097 C   0  0  0  0  0  0  0  0  0  0  0  0
   26.5778  -16.4981  -18.4568 C   0  0  0  0  0  0  0  0  0  0  0  0
   27.0280  -21.6877  -11.5996 C   0  0  0  0  0  0  0  0  0  0  0  0
   25.5717  -21.4043  -11.6093 C   0  0  1  0  0  0  0  0  0  0  0  0
   25.3608  -20.0034  -11.0366 C   0  0  0  0  0  0  0  0  0  0  0  0
   24.9192  -21.5505  -12.9491 C   0  0  2  0  0  0  0  0  0  0  0  0
   25.6245  -20.6663  -13.9049 N   0  0  0  0  0  0  0  0  0  0  0  0
   23.5053  -21.1739  -12.9100 C   0  0  0  0  0  0  0  0  0  0  0  0
   23.1301  -19.9597  -13.0765 O   0  0  0  0  0  0  0  0  0  0  0  0
   22.4835  -22.1137  -12.6978 N   0  0  0  0  0  0  0  0  0  0  0  0
   21.0691  -21.6678  -12.6408 C   0  0  1  0  0  0  0  0  0  0  0  0
   20.1794  -22.8765  -12.7185 C   0  0  0  0  0  0  0  0  0  0  0  0
   18.7417  -22.4838  -12.5658 C   0  0  0  0  0  0  0  0  0  0  0  0
   18.0179  -22.8980  -13.7981 C   0  0  0  0  0  0  0  0  0  0  0  0
   18.4898  -23.6389  -14.6838 O   0  0  0  0  0  0  0  0  0  0  0  0
   20.9006  -20.9486  -11.3805 C   0  0  0  0  0  0  0  0  0  0  0  0
   20.0103  -20.0885  -11.2349 O   0  0  0  0  0  0  0  0  0  0  0  0
   16.7061  -22.4383  -14.0089 O   0  0  0  0  0  0  0  0  0  0  0  0
   21.7167  -21.1876  -10.2911 O   0  0  0  0  0  0  0  0  0  0  0  0
  2  1  1  0
  2 12  2  0
  3  2  1  0
  4  3  2  0
  4  5  1  0
  5 11  2  0
  6  5  1  0
  6  7  1  0
  7  8  1  6
  9  7  1  0
  9 17  1  0
 10  9  2  0
 11 12  1  0
 14 13  1  6
 14 15  1  0
 16 17  1  6
 16 14  1  0
 18 16  1  0
 19 18  2  0
 20 18  1  0
 21 20  1  0
 21 22  1  1
 23 22  1  0
 23 24  1  0
 24 25  2  0
 26 21  1  0
 27 26  2  0
 28 24  1  0
 29 26  1  0
M  END
$$$$
