YVE.pdb
     RDKit          3D

 29 29  0  0  1  0  0  0  0  0999 V2000
   27.4546  -34.7027  -13.8227 O   0  0  0  0  0  0  0  0  0  0  0  0
   27.2673  -33.5111  -14.5241 C   0  0  0  0  0  0  0  0  0  0  0  0
   26.2258  -33.3986  -15.4453 C   0  0  0  0  0  0  0  0  0  0  0  0
   26.0333  -32.2180  -16.1461 C   0  0  0  0  0  0  0  0  0  0  0  0
   26.8455  -31.1252  -15.9676 C   0  0  0  0  0  0  0  0  0  0  0  0
   26.6371  -29.8584  -16.7209 C   0  0  0  0  0  0  0  0  0  0  0  0
   27.3639  -29.8877  -18.0680 C   0  0  2  0  0  0  0  0  0  0  0  0
   28.7464  -29.5776  -17.7674 N   0  0  0  0  0  0  0  0  0  0  0  0
   26.7488  -28.7955  -18.8717 C   0  0  0  0  0  0  0  0  0  0  0  0
   27.2969  -27.6568  -18.8060 O   0  0  0  0  0  0  0  0  0  0  0  0
   27.8826  -31.2329  -15.0522 C   0  0  0  0  0  0  0  0  0  0  0  0
   28.0710  -32.4140  -14.3547 C   0  0  0  0  0  0  0  0  0  0  0  0
   24.6562  -27.3057  -22.9021 C   0  0  0  0  0  0  0  0  0  0  0  0
   25.2761  -28.2578  -21.9480 C   0  0  1  0  0  0  0  0  0  0  0  0
   26.7368  -28.4482  -22.3546 C   0  0  0  0  0  0  0  0  0  0  0  0
   25.1571  -27.8613  -20.5089 C   0  0  2  0  0  0  0  0  0  0  0  0
   25.6046  -29.0019  -19.6773 N   0  0  0  0  0  0  0  0  0  0  0  0
   23.7789  -27.5246  -20.1492 C   0  0  0  0  0  0  0  0  0  0  0  0
   22.8367  -28.3906  -20.2206 O   0  0  0  0  0  0  0  0  0  0  0  0
   23.4111  -26.2457  -19.7000 N   0  0  0  0  0  0  0  0  0  0  0  0
   22.0043  -25.9744  -19.3128 C   0  0  1  0  0  0  0  0  0  0  0  0
   21.9505  -24.6627  -18.5813 C   0  0  0  0  0  0  0  0  0  0  0  0
   20.5331  -24.2899  -18.2706 C   0  0  0  0  0  0  0  0  0  0  0  0
   20.5358  -22.9274  -17.6727 C   0  0  0  0  0  0  0  0  0  0  0  0
   20.9201  -21.8955  -18.2589 O   0  0  0  0  0  0  0  0  0  0  0  0
   21.2226  -25.9416  -20.5464 C   0  0  0  0  0  0  0  0  0  0  0  0
   21.6787  -25.4434  -21.5940 O   0  0  0  0  0  0  0  0  0  0  0  0
   20.0784  -22.7572  -16.3543 O   0  0  0  0  0  0  0  0  0  0  0  0
   19.9438  -26.4614  -20.6121 O   0  0  0  0  0  0  0  0  0  0  0  0
  2  1  1  0
  2 12  2  0
  3  2  1  0
  4  3  2  0
  4  5  1  0
  5 11  2  0
  6  5  1  0
  6  7  1  0
  7  8  1  1
  9  7  1  0
  9 17  1  0
 10  9  2  0
 11 12  1  0
 14 13  1  6
 14 15  1  0
 16 17  1  1
 16 14  1  0
 18 16  1  0
 19 18  2  0
 20 18  1  0
 21 20  1  0
 21 22  1  6
 23 22  1  0
 23 24  1  0
 24 25  2  0
 26 21  1  0
 27 26  2  0
 28 24  1  0
 29 26  1  0
M  END
$$$$
