YVE.pdb
     RDKit          3D

 29 29  0  0  1  0  0  0  0  0999 V2000
   28.5777  -20.0410   -3.9090 O   0  0  0  0  0  0  0  0  0  0  0  0
   28.2918  -19.9552   -5.2720 C   0  0  0  0  0  0  0  0  0  0  0  0
   26.9918  -20.1735   -5.7286 C   0  0  0  0  0  0  0  0  0  0  0  0
   26.6999  -20.0900   -7.0813 C   0  0  0  0  0  0  0  0  0  0  0  0
   27.6612  -19.7938   -8.0162 C   0  0  0  0  0  0  0  0  0  0  0  0
   27.3457  -19.7046   -9.4681 C   0  0  0  0  0  0  0  0  0  0  0  0
   27.1005  -21.0912  -10.0690 C   0  0  2  0  0  0  0  0  0  0  0  0
   28.4145  -21.6776  -10.2353 N   0  0  0  0  0  0  0  0  0  0  0  0
   26.4713  -20.8405  -11.3951 C   0  0  0  0  0  0  0  0  0  0  0  0
   27.2289  -20.4262  -12.3201 O   0  0  0  0  0  0  0  0  0  0  0  0
   28.9554  -19.5761   -7.5662 C   0  0  0  0  0  0  0  0  0  0  0  0
   29.2423  -19.6605   -6.2143 C   0  0  0  0  0  0  0  0  0  0  0  0
   25.5715  -23.1367  -13.6924 C   0  0  0  0  0  0  0  0  0  0  0  0
   24.3629  -22.2852  -13.5682 C   0  0  1  0  0  0  0  0  0  0  0  0
   23.3427  -23.0373  -12.7146 C   0  0  0  0  0  0  0  0  0  0  0  0
   24.6224  -20.9134  -13.0269 C   0  0  2  0  0  0  0  0  0  0  0  0
   25.0921  -21.0499  -11.6292 N   0  0  0  0  0  0  0  0  0  0  0  0
   23.4159  -20.0848  -13.0426 C   0  0  0  0  0  0  0  0  0  0  0  0
   22.6488  -19.9983  -12.0194 O   0  0  0  0  0  0  0  0  0  0  0  0
   23.0345  -19.3349  -14.1671 N   0  0  0  0  0  0  0  0  0  0  0  0
   21.8891  -18.3956  -14.0755 C   0  0  1  0  0  0  0  0  0  0  0  0
   21.8346  -17.5782  -15.3354 C   0  0  0  0  0  0  0  0  0  0  0  0
   20.6500  -16.6611  -15.3183 C   0  0  0  0  0  0  0  0  0  0  0  0
   20.6185  -15.9253  -16.6111 C   0  0  0  0  0  0  0  0  0  0  0  0
   20.2507  -16.4148  -17.6980 O   0  0  0  0  0  0  0  0  0  0  0  0
   20.6869  -19.2070  -13.9012 C   0  0  0  0  0  0  0  0  0  0  0  0
   20.5473  -20.2992  -14.4853 O   0  0  0  0  0  0  0  0  0  0  0  0
   21.0263  -14.5803  -16.6437 O   0  0  0  0  0  0  0  0  0  0  0  0
   19.6497  -18.8048  -13.0812 O   0  0  0  0  0  0  0  0  0  0  0  0
  2  1  1  0
  2 12  2  0
  3  2  1  0
  4  3  2  0
  4  5  1  0
  5 11  2  0
  6  5  1  0
  6  7  1  0
  7  8  1  6
  9  7  1  0
  9 17  1  0
 10  9  2  0
 11 12  1  0
 14 13  1  1
 14 15  1  0
 16 17  1  1
 16 14  1  0
 18 16  1  0
 19 18  2  0
 20 18  1  0
 21 20  1  0
 21 22  1  6
 23 22  1  0
 23 24  1  0
 24 25  2  0
 26 21  1  0
 27 26  2  0
 28 24  1  0
 29 26  1  0
M  END
$$$$
