YVE.pdb
     RDKit          3D

 29 29  0  0  1  0  0  0  0  0999 V2000
   34.4383  -31.0173  -17.2196 O   0  0  0  0  0  0  0  0  0  0  0  0
   33.1033  -31.1327  -16.8305 C   0  0  0  0  0  0  0  0  0  0  0  0
   32.6488  -32.3079  -16.2319 C   0  0  0  0  0  0  0  0  0  0  0  0
   31.3239  -32.4302  -15.8426 C   0  0  0  0  0  0  0  0  0  0  0  0
   30.4151  -31.4170  -16.0260 C   0  0  0  0  0  0  0  0  0  0  0  0
   28.9930  -31.5503  -15.6072 C   0  0  0  0  0  0  0  0  0  0  0  0
   28.2253  -32.4899  -16.5407 C   0  0  2  0  0  0  0  0  0  0  0  0
   27.8598  -31.6821  -17.6861 N   0  0  0  0  0  0  0  0  0  0  0  0
   27.0104  -32.8946  -15.7808 C   0  0  0  0  0  0  0  0  0  0  0  0
   26.0180  -32.1106  -15.8263 O   0  0  0  0  0  0  0  0  0  0  0  0
   30.8631  -30.2465  -16.6211 C   0  0  0  0  0  0  0  0  0  0  0  0
   32.1873  -30.1289  -17.0082 C   0  0  0  0  0  0  0  0  0  0  0  0
   23.9695  -36.3114  -14.4053 C   0  0  0  0  0  0  0  0  0  0  0  0
   25.1709  -35.7251  -15.0488 C   0  0  1  0  0  0  0  0  0  0  0  0
   24.8705  -35.5512  -16.5369 C   0  0  0  0  0  0  0  0  0  0  0  0
   25.6424  -34.4439  -14.4336 C   0  0  2  0  0  0  0  0  0  0  0  0
   26.9494  -34.0959  -15.0365 N   0  0  0  0  0  0  0  0  0  0  0  0
   25.8062  -34.5639  -12.9841 C   0  0  0  0  0  0  0  0  0  0  0  0
   26.7492  -35.2647  -12.4718 O   0  0  0  0  0  0  0  0  0  0  0  0
   24.9524  -33.9170  -12.0758 N   0  0  0  0  0  0  0  0  0  0  0  0
   25.0903  -34.1734  -10.6205 C   0  0  1  0  0  0  0  0  0  0  0  0
   25.5282  -32.9032   -9.9471 C   0  0  0  0  0  0  0  0  0  0  0  0
   25.4747  -33.0507   -8.4571 C   0  0  0  0  0  0  0  0  0  0  0  0
   26.8192  -32.7188   -7.9129 C   0  0  0  0  0  0  0  0  0  0  0  0
   27.6082  -31.8973   -8.4216 O   0  0  0  0  0  0  0  0  0  0  0  0
   23.7845  -34.6203  -10.1419 C   0  0  0  0  0  0  0  0  0  0  0  0
   22.7336  -34.3234  -10.7427 O   0  0  0  0  0  0  0  0  0  0  0  0
   27.2616  -33.3600   -6.7426 O   0  0  0  0  0  0  0  0  0  0  0  0
   23.6516  -35.3934   -9.0041 O   0  0  0  0  0  0  0  0  0  0  0  0
  2  1  1  0
  2 12  2  0
  3  2  1  0
  4  3  2  0
  4  5  1  0
  5 11  2  0
  6  5  1  0
  6  7  1  0
  7  8  1  6
  9  7  1  0
  9 17  1  0
 10  9  2  0
 11 12  1  0
 14 13  1  1
 14 15  1  0
 16 17  1  6
 16 14  1  0
 18 16  1  0
 19 18  2  0
 20 18  1  0
 21 20  1  0
 21 22  1  1
 23 22  1  0
 23 24  1  0
 24 25  2  0
 26 21  1  0
 27 26  2  0
 28 24  1  0
 29 26  1  0
M  END
$$$$
