YVE.pdb
     RDKit          3D

 29 29  0  0  1  0  0  0  0  0999 V2000
   22.0551  -15.2184  -19.4870 O   0  0  0  0  0  0  0  0  0  0  0  0
   22.0132  -16.1682  -18.4657 C   0  0  0  0  0  0  0  0  0  0  0  0
   22.3386  -15.8042  -17.1589 C   0  0  0  0  0  0  0  0  0  0  0  0
   22.2993  -16.7421  -16.1388 C   0  0  0  0  0  0  0  0  0  0  0  0
   21.9443  -18.0493  -16.3654 C   0  0  0  0  0  0  0  0  0  0  0  0
   21.9027  -19.0548  -15.2687 C   0  0  0  0  0  0  0  0  0  0  0  0
   23.3131  -19.4405  -14.8155 C   0  0  2  0  0  0  0  0  0  0  0  0
   23.8685  -20.2194  -15.9032 N   0  0  0  0  0  0  0  0  0  0  0  0
   23.1205  -20.2936  -13.6104 C   0  0  0  0  0  0  0  0  0  0  0  0
   22.6864  -21.4668  -13.8018 O   0  0  0  0  0  0  0  0  0  0  0  0
   21.6199  -18.4154  -17.6638 C   0  0  0  0  0  0  0  0  0  0  0  0
   21.6606  -17.4752  -18.6794 C   0  0  0  0  0  0  0  0  0  0  0  0
   23.7036  -21.1318   -8.7770 C   0  0  0  0  0  0  0  0  0  0  0  0
   23.9495  -20.3465  -10.0115 C   0  0  1  0  0  0  0  0  0  0  0  0
   25.4434  -20.4176  -10.3251 C   0  0  0  0  0  0  0  0  0  0  0  0
   23.1239  -20.7648  -11.1887 C   0  0  2  0  0  0  0  0  0  0  0  0
   23.4041  -19.8317  -12.3038 N   0  0  0  0  0  0  0  0  0  0  0  0
   21.6917  -20.7290  -10.8894 C   0  0  0  0  0  0  0  0  0  0  0  0
   21.0556  -19.6209  -10.7875 O   0  0  0  0  0  0  0  0  0  0  0  0
   20.9334  -21.8968  -10.7059 N   0  0  0  0  0  0  0  0  0  0  0  0
   19.4763  -21.7983  -10.4416 C   0  0  1  0  0  0  0  0  0  0  0  0
   18.7742  -21.4722  -11.7297 C   0  0  0  0  0  0  0  0  0  0  0  0
   18.9042  -22.6042  -12.7025 C   0  0  0  0  0  0  0  0  0  0  0  0
   18.2005  -22.2178  -13.9553 C   0  0  0  0  0  0  0  0  0  0  0  0
   17.5293  -21.1764  -14.1005 O   0  0  0  0  0  0  0  0  0  0  0  0
   19.0537  -23.0889   -9.9035 C   0  0  0  0  0  0  0  0  0  0  0  0
   19.7906  -24.0925   -9.9623 O   0  0  0  0  0  0  0  0  0  0  0  0
   18.2782  -23.0659  -15.0738 O   0  0  0  0  0  0  0  0  0  0  0  0
   17.8205  -23.2589   -9.3032 O   0  0  0  0  0  0  0  0  0  0  0  0
  2  1  1  0
  2 12  2  0
  3  2  1  0
  4  3  2  0
  4  5  1  0
  5 11  2  0
  6  5  1  0
  6  7  1  0
  7  8  1  6
  9  7  1  0
  9 17  1  0
 10  9  2  0
 11 12  1  0
 14 13  1  1
 14 15  1  0
 16 17  1  6
 16 14  1  0
 18 16  1  0
 19 18  2  0
 20 18  1  0
 21 20  1  0
 21 22  1  6
 23 22  1  0
 23 24  1  0
 24 25  2  0
 26 21  1  0
 27 26  2  0
 28 24  1  0
 29 26  1  0
M  END
$$$$
