YVE.pdb
     RDKit          3D

 29 29  0  0  1  0  0  0  0  0999 V2000
   19.5849  -23.6646   -6.7775 O   0  0  0  0  0  0  0  0  0  0  0  0
   20.3991  -22.8593   -7.5748 C   0  0  0  0  0  0  0  0  0  0  0  0
   20.5958  -23.1775   -8.9187 C   0  0  0  0  0  0  0  0  0  0  0  0
   21.4033  -22.3824   -9.7172 C   0  0  0  0  0  0  0  0  0  0  0  0
   22.0350  -21.2650   -9.2290 C   0  0  0  0  0  0  0  0  0  0  0  0
   22.9016  -20.4125  -10.0881 C   0  0  0  0  0  0  0  0  0  0  0  0
   24.3291  -20.9616  -10.1546 C   0  0  2  0  0  0  0  0  0  0  0  0
   24.9423  -20.5960   -8.8943 N   0  0  0  0  0  0  0  0  0  0  0  0
   24.9792  -20.2343  -11.2796 C   0  0  0  0  0  0  0  0  0  0  0  0
   25.2363  -19.0087  -11.0975 O   0  0  0  0  0  0  0  0  0  0  0  0
   21.8420  -20.9450   -7.8929 C   0  0  0  0  0  0  0  0  0  0  0  0
   21.0346  -21.7420   -7.0992 C   0  0  0  0  0  0  0  0  0  0  0  0
   27.2505  -21.9605  -14.3400 C   0  0  0  0  0  0  0  0  0  0  0  0
   27.2327  -20.5404  -13.9110 C   0  0  1  0  0  0  0  0  0  0  0  0
   27.8930  -19.7083  -15.0096 C   0  0  0  0  0  0  0  0  0  0  0  0
   25.8743  -20.0120  -13.5678 C   0  0  2  0  0  0  0  0  0  0  0  0
   25.3020  -20.8670  -12.5028 N   0  0  0  0  0  0  0  0  0  0  0  0
   24.9757  -20.0288  -14.7230 C   0  0  0  0  0  0  0  0  0  0  0  0
   24.3419  -21.0895  -15.0639 O   0  0  0  0  0  0  0  0  0  0  0  0
   24.7497  -18.8914  -15.5152 N   0  0  0  0  0  0  0  0  0  0  0  0
   23.7210  -18.9277  -16.5844 C   0  0  1  0  0  0  0  0  0  0  0  0
   22.8650  -17.6976  -16.4711 C   0  0  0  0  0  0  0  0  0  0  0  0
   21.7512  -17.7362  -17.4724 C   0  0  0  0  0  0  0  0  0  0  0  0
   21.0256  -16.4390  -17.4042 C   0  0  0  0  0  0  0  0  0  0  0  0
   21.3534  -15.4084  -18.0259 O   0  0  0  0  0  0  0  0  0  0  0  0
   24.4338  -18.9788  -17.8585 C   0  0  0  0  0  0  0  0  0  0  0  0
   25.5427  -18.4296  -18.0075 O   0  0  0  0  0  0  0  0  0  0  0  0
   19.8846  -16.3347  -16.5896 O   0  0  0  0  0  0  0  0  0  0  0  0
   23.9153  -19.6382  -18.9568 O   0  0  0  0  0  0  0  0  0  0  0  0
  2  1  1  0
  2 12  2  0
  3  2  1  0
  4  3  2  0
  4  5  1  0
  5 11  2  0
  6  5  1  0
  6  7  1  0
  7  8  1  1
  9  7  1  0
  9 17  1  0
 10  9  2  0
 11 12  1  0
 14 13  1  6
 14 15  1  0
 16 17  1  1
 16 14  1  0
 18 16  1  0
 19 18  2  0
 20 18  1  0
 21 20  1  0
 21 22  1  6
 23 22  1  0
 23 24  1  0
 24 25  2  0
 26 21  1  0
 27 26  2  0
 28 24  1  0
 29 26  1  0
M  END
$$$$
