YVE.pdb
     RDKit          3D

 29 29  0  0  1  0  0  0  0  0999 V2000
   19.6612  -23.5479   -8.0356 O   0  0  0  0  0  0  0  0  0  0  0  0
   20.5707  -22.7216   -8.6967 C   0  0  0  0  0  0  0  0  0  0  0  0
   20.8791  -22.9534  -10.0373 C   0  0  0  0  0  0  0  0  0  0  0  0
   21.7817  -22.1369  -10.7010 C   0  0  0  0  0  0  0  0  0  0  0  0
   22.4019  -21.0813  -10.0789 C   0  0  0  0  0  0  0  0  0  0  0  0
   23.3707  -20.2057  -10.7933 C   0  0  0  0  0  0  0  0  0  0  0  0
   24.7037  -20.9232  -11.0214 C   0  0  2  0  0  0  0  0  0  0  0  0
   25.3715  -20.9144   -9.7361 N   0  0  0  0  0  0  0  0  0  0  0  0
   25.4443  -20.0778  -11.9981 C   0  0  0  0  0  0  0  0  0  0  0  0
   25.9073  -18.9801  -11.5711 O   0  0  0  0  0  0  0  0  0  0  0  0
   22.0978  -20.8474   -8.7455 C   0  0  0  0  0  0  0  0  0  0  0  0
   21.1958  -21.6655   -8.0867 C   0  0  0  0  0  0  0  0  0  0  0  0
   28.5765  -20.1878  -12.9467 C   0  0  0  0  0  0  0  0  0  0  0  0
   27.8528  -20.1818  -14.2418 C   0  0  1  0  0  0  0  0  0  0  0  0
   27.8179  -21.6159  -14.7684 C   0  0  0  0  0  0  0  0  0  0  0  0
   26.4794  -19.5880  -14.1834 C   0  0  2  0  0  0  0  0  0  0  0  0
   25.6320  -20.4666  -13.3451 N   0  0  0  0  0  0  0  0  0  0  0  0
   25.8772  -19.4771  -15.5128 C   0  0  0  0  0  0  0  0  0  0  0  0
   25.1934  -20.4347  -16.0210 O   0  0  0  0  0  0  0  0  0  0  0  0
   26.0046  -18.3215  -16.3008 N   0  0  0  0  0  0  0  0  0  0  0  0
   25.0502  -18.0744  -17.4102 C   0  0  1  0  0  0  0  0  0  0  0  0
   24.5895  -16.6456  -17.3399 C   0  0  0  0  0  0  0  0  0  0  0  0
   23.6175  -16.3501  -18.4410 C   0  0  0  0  0  0  0  0  0  0  0  0
   23.2394  -14.9140  -18.3484 C   0  0  0  0  0  0  0  0  0  0  0  0
   22.9034  -14.3346  -17.2960 O   0  0  0  0  0  0  0  0  0  0  0  0
   25.7623  -18.3556  -18.6542 C   0  0  0  0  0  0  0  0  0  0  0  0
   27.0065  -18.3142  -18.7167 O   0  0  0  0  0  0  0  0  0  0  0  0
   23.2518  -14.1262  -19.5126 O   0  0  0  0  0  0  0  0  0  0  0  0
   25.0931  -18.6819  -19.8185 O   0  0  0  0  0  0  0  0  0  0  0  0
  2  1  1  0
  2 12  2  0
  3  2  1  0
  4  3  2  0
  4  5  1  0
  5 11  2  0
  6  5  1  0
  6  7  1  0
  7  8  1  1
  9  7  1  0
  9 17  1  0
 10  9  2  0
 11 12  1  0
 14 13  1  1
 14 15  1  0
 16 17  1  1
 16 14  1  0
 18 16  1  0
 19 18  2  0
 20 18  1  0
 21 20  1  0
 21 22  1  6
 23 22  1  0
 23 24  1  0
 24 25  2  0
 26 21  1  0
 27 26  2  0
 28 24  1  0
 29 26  1  0
M  END
$$$$
