YVE.pdb
     RDKit          3D

 29 29  0  0  1  0  0  0  0  0999 V2000
   24.8908  -21.9853  -21.9049 O   0  0  0  0  0  0  0  0  0  0  0  0
   24.6277  -21.7140  -20.5617 C   0  0  0  0  0  0  0  0  0  0  0  0
   23.4577  -22.1891  -19.9688 C   0  0  0  0  0  0  0  0  0  0  0  0
   23.1892  -21.9237  -18.6349 C   0  0  0  0  0  0  0  0  0  0  0  0
   24.0484  -21.1935  -17.8510 C   0  0  0  0  0  0  0  0  0  0  0  0
   23.7583  -20.9097  -16.4189 C   0  0  0  0  0  0  0  0  0  0  0  0
   22.6585  -19.8548  -16.2739 C   0  0  2  0  0  0  0  0  0  0  0  0
   23.3129  -18.5819  -16.4967 N   0  0  0  0  0  0  0  0  0  0  0  0
   22.1940  -19.9608  -14.8632 C   0  0  0  0  0  0  0  0  0  0  0  0
   22.9544  -19.4830  -13.9717 O   0  0  0  0  0  0  0  0  0  0  0  0
   25.2132  -20.7192  -18.4368 C   0  0  0  0  0  0  0  0  0  0  0  0
   25.4772  -20.9867  -19.7694 C   0  0  0  0  0  0  0  0  0  0  0  0
   20.4453  -17.9885  -13.0713 C   0  0  0  0  0  0  0  0  0  0  0  0
   19.7165  -19.2702  -12.9067 C   0  0  1  0  0  0  0  0  0  0  0  0
   18.5276  -19.2626  -13.8666 C   0  0  0  0  0  0  0  0  0  0  0  0
   20.5605  -20.4931  -13.0926 C   0  0  2  0  0  0  0  0  0  0  0  0
   20.9627  -20.5644  -14.5159 N   0  0  0  0  0  0  0  0  0  0  0  0
   19.8333  -21.7146  -12.7440 C   0  0  0  0  0  0  0  0  0  0  0  0
   19.3429  -22.4830  -13.6450 O   0  0  0  0  0  0  0  0  0  0  0  0
   19.6383  -22.1185  -11.4131 N   0  0  0  0  0  0  0  0  0  0  0  0
   18.8762  -23.3580  -11.1208 C   0  0  1  0  0  0  0  0  0  0  0  0
   19.1919  -23.7983   -9.7190 C   0  0  0  0  0  0  0  0  0  0  0  0
   18.4270  -25.0386   -9.3709 C   0  0  0  0  0  0  0  0  0  0  0  0
   18.6635  -25.3370   -7.9326 C   0  0  0  0  0  0  0  0  0  0  0  0
   19.3571  -24.6377   -7.1670 O   0  0  0  0  0  0  0  0  0  0  0  0
   17.4608  -23.0352  -11.2838 C   0  0  0  0  0  0  0  0  0  0  0  0
   17.0106  -21.9110  -10.9889 O   0  0  0  0  0  0  0  0  0  0  0  0
   18.0771  -26.4818   -7.3652 O   0  0  0  0  0  0  0  0  0  0  0  0
   16.5553  -23.9576  -11.7729 O   0  0  0  0  0  0  0  0  0  0  0  0
  2  1  1  0
  2 12  2  0
  3  2  1  0
  4  3  2  0
  4  5  1  0
  5 11  2  0
  6  5  1  0
  6  7  1  0
  7  8  1  1
  9  7  1  0
  9 17  1  0
 10  9  2  0
 11 12  1  0
 14 13  1  6
 14 15  1  0
 16 17  1  6
 16 14  1  0
 18 16  1  0
 19 18  2  0
 20 18  1  0
 21 20  1  0
 21 22  1  1
 23 22  1  0
 23 24  1  0
 24 25  2  0
 26 21  1  0
 27 26  2  0
 28 24  1  0
 29 26  1  0
M  END
$$$$
