CTE.pdb
     RDKit          3D

 23 22  0  0  1  0  0  0  0  0999 V2000
    3.5561  -18.9563   19.3824 N   0  0  0  0  0  0  0  0  0  0  0  0
    3.8058  -18.3493   20.6502 C   0  0  1  0  0  0  0  0  0  0  0  0
    3.2285  -19.2155   21.7565 C   0  0  0  0  0  0  0  0  0  0  0  0
    1.4491  -19.0650   21.9037 S   0  0  0  0  0  0  0  0  0  0  0  0
    5.2648  -18.2246   20.9527 C   0  0  0  0  0  0  0  0  0  0  0  0
    6.0883  -18.8856   20.2688 O   0  0  0  0  0  0  0  0  0  0  0  0
    6.8678  -15.0156   21.0680 C   0  0  0  0  0  0  0  0  0  0  0  0
    7.3669  -15.7077   22.3262 C   0  0  1  0  0  0  0  0  0  0  0  0
    6.4684  -15.3122   23.3590 O   0  0  0  0  0  0  0  0  0  0  0  0
    7.2338  -17.2219   22.1901 C   0  0  2  0  0  0  0  0  0  0  0  0
    5.7719  -17.4005   21.9699 N   0  0  0  0  0  0  0  0  0  0  0  0
    7.6393  -17.9577   23.3897 C   0  0  0  0  0  0  0  0  0  0  0  0
    6.8325  -18.0747   24.3725 O   0  0  0  0  0  0  0  0  0  0  0  0
    8.9016  -18.5686   23.5360 N   0  0  0  0  0  0  0  0  0  0  0  0
    9.3157  -19.2137   24.7794 C   0  0  1  0  0  0  0  0  0  0  0  0
   10.4962  -20.0830   24.4370 C   0  0  0  0  0  0  0  0  0  0  0  0
   11.1935  -20.6734   25.6134 C   0  0  0  0  0  0  0  0  0  0  0  0
   12.3314  -21.5513   25.2895 C   0  0  0  0  0  0  0  0  0  0  0  0
   12.7056  -21.7318   24.1090 O   0  0  0  0  0  0  0  0  0  0  0  0
    9.6427  -18.1662   25.7613 C   0  0  0  0  0  0  0  0  0  0  0  0
    9.5414  -18.4132   27.1034 O   0  0  0  0  0  0  0  0  0  0  0  0
   13.0368  -22.2155   26.2805 O   0  0  0  0  0  0  0  0  0  0  0  0
   10.0155  -17.0434   25.3544 O   0  0  0  0  0  0  0  0  0  0  0  0
  2  1  1  6
  2  3  1  0
  3  4  1  0
  5  2  1  0
  6  5  2  0
  8  7  1  6
  8 10  1  0
  9  8  1  0
 10 11  1  1
 10 12  1  0
 11  5  1  0
 12 14  1  0
 13 12  2  0
 14 15  1  0
 15 16  1  6
 16 17  1  0
 17 18  1  0
 18 22  1  0
 19 18  2  0
 20 21  1  0
 20 15  1  0
 23 20  2  0
M  END
$$$$
