CTE.pdb
     RDKit          3D

 23 22  0  0  1  0  0  0  0  0999 V2000
    9.1847  -15.2370   14.5001 N   0  0  0  0  0  0  0  0  0  0  0  0
    8.4333  -15.4232   15.6996 C   0  0  1  0  0  0  0  0  0  0  0  0
    8.2110  -16.9064   15.9409 C   0  0  0  0  0  0  0  0  0  0  0  0
    9.7349  -17.8009   16.2379 S   0  0  0  0  0  0  0  0  0  0  0  0
    9.1479  -14.9180   16.9120 C   0  0  0  0  0  0  0  0  0  0  0  0
   10.3611  -14.5988   16.8164 O   0  0  0  0  0  0  0  0  0  0  0  0
    7.3566  -12.5048   19.3239 C   0  0  0  0  0  0  0  0  0  0  0  0
    8.0772  -13.5711   20.1334 C   0  0  1  0  0  0  0  0  0  0  0  0
    7.1275  -14.6180   20.3129 O   0  0  0  0  0  0  0  0  0  0  0  0
    9.2303  -14.1630   19.3280 C   0  0  2  0  0  0  0  0  0  0  0  0
    8.5319  -14.7788   18.1659 N   0  0  0  0  0  0  0  0  0  0  0  0
    9.9811  -15.1945   20.0475 C   0  0  0  0  0  0  0  0  0  0  0  0
    9.8226  -16.4262   19.7508 O   0  0  0  0  0  0  0  0  0  0  0  0
   10.9000  -14.9090   21.0781 N   0  0  0  0  0  0  0  0  0  0  0  0
   11.6268  -15.9590   21.7870 C   0  0  1  0  0  0  0  0  0  0  0  0
   13.0643  -15.5161   21.8494 C   0  0  0  0  0  0  0  0  0  0  0  0
   13.9539  -16.4074   22.6449 C   0  0  0  0  0  0  0  0  0  0  0  0
   15.3398  -15.9317   22.7981 C   0  0  0  0  0  0  0  0  0  0  0  0
   16.1625  -16.5309   23.5263 O   0  0  0  0  0  0  0  0  0  0  0  0
   11.0218  -16.1266   23.1189 C   0  0  0  0  0  0  0  0  0  0  0  0
   10.1371  -15.2020   23.6037 O   0  0  0  0  0  0  0  0  0  0  0  0
   15.7917  -14.7981   22.1410 O   0  0  0  0  0  0  0  0  0  0  0  0
   11.3261  -17.1270   23.8059 O   0  0  0  0  0  0  0  0  0  0  0  0
  2  1  1  6
  2  3  1  0
  3  4  1  0
  5  2  1  0
  6  5  2  0
  8  7  1  6
  8 10  1  0
  9  8  1  0
 10 11  1  6
 10 12  1  0
 11  5  1  0
 12 14  1  0
 13 12  2  0
 14 15  1  0
 15 16  1  1
 16 17  1  0
 17 18  1  0
 18 22  1  0
 19 18  2  0
 20 21  1  0
 20 15  1  0
 23 20  2  0
M  END
$$$$
