CTE.pdb
     RDKit          3D

 23 22  0  0  1  0  0  0  0  0999 V2000
    8.3718  -13.5226   16.9555 N   0  0  0  0  0  0  0  0  0  0  0  0
    9.1515  -13.3644   18.1410 C   0  0  1  0  0  0  0  0  0  0  0  0
    8.2384  -13.3248   19.3543 C   0  0  0  0  0  0  0  0  0  0  0  0
    7.4492  -11.7323   19.5817 S   0  0  0  0  0  0  0  0  0  0  0  0
   10.0856  -14.5084   18.3739 C   0  0  0  0  0  0  0  0  0  0  0  0
   10.0096  -15.5195   17.6289 O   0  0  0  0  0  0  0  0  0  0  0  0
   11.6740  -15.5895   17.0335 C   0  0  0  0  0  0  0  0  0  0  0  0
   12.7317  -15.5758   18.1256 C   0  0  1  0  0  0  0  0  0  0  0  0
   13.3867  -14.3162   18.0041 O   0  0  0  0  0  0  0  0  0  0  0  0
   12.0756  -15.5939   19.5032 C   0  0  2  0  0  0  0  0  0  0  0  0
   11.0541  -14.5163   19.3902 N   0  0  0  0  0  0  0  0  0  0  0  0
   12.9970  -15.2789   20.5972 C   0  0  0  0  0  0  0  0  0  0  0  0
   13.3990  -14.0795   20.7706 O   0  0  0  0  0  0  0  0  0  0  0  0
   13.4839  -16.2428   21.5039 N   0  0  0  0  0  0  0  0  0  0  0  0
   14.2503  -15.8775   22.6925 C   0  0  1  0  0  0  0  0  0  0  0  0
   14.1187  -17.0272   23.6555 C   0  0  0  0  0  0  0  0  0  0  0  0
   14.9032  -16.8760   24.9127 C   0  0  0  0  0  0  0  0  0  0  0  0
   14.7386  -17.9685   25.8872 C   0  0  0  0  0  0  0  0  0  0  0  0
   15.7230  -18.5109   26.4374 O   0  0  0  0  0  0  0  0  0  0  0  0
   15.6439  -15.6261   22.2891 C   0  0  0  0  0  0  0  0  0  0  0  0
   16.4839  -14.9073   23.0956 O   0  0  0  0  0  0  0  0  0  0  0  0
   13.4839  -18.4426   26.2364 O   0  0  0  0  0  0  0  0  0  0  0  0
   16.0542  -16.0782   21.1971 O   0  0  0  0  0  0  0  0  0  0  0  0
  2  1  1  6
  2  3  1  0
  3  4  1  0
  5  2  1  0
  6  5  2  0
  8  7  1  6
  8 10  1  0
  9  8  1  0
 10 11  1  6
 10 12  1  0
 11  5  1  0
 12 14  1  0
 13 12  2  0
 14 15  1  0
 15 16  1  1
 16 17  1  0
 17 18  1  0
 18 22  1  0
 19 18  2  0
 20 21  1  0
 20 15  1  0
 23 20  2  0
M  END
$$$$
