CTE.pdb
     RDKit          3D

 23 22  0  0  1  0  0  0  0  0999 V2000
    7.9653  -12.0498   25.5850 N   0  0  0  0  0  0  0  0  0  0  0  0
    7.1693  -13.1570   26.0078 C   0  0  1  0  0  0  0  0  0  0  0  0
    5.7002  -12.7712   25.9856 C   0  0  0  0  0  0  0  0  0  0  0  0
    5.3566  -11.2794   26.9168 S   0  0  0  0  0  0  0  0  0  0  0  0
    7.2924  -14.3367   25.0975 C   0  0  0  0  0  0  0  0  0  0  0  0
    6.6120  -15.3672   25.3389 O   0  0  0  0  0  0  0  0  0  0  0  0
    6.7409  -14.5816   21.6576 C   0  0  0  0  0  0  0  0  0  0  0  0
    8.1302  -15.1880   21.7734 C   0  0  1  0  0  0  0  0  0  0  0  0
    9.0336  -14.1270   21.4766 O   0  0  0  0  0  0  0  0  0  0  0  0
    8.4102  -15.6077   23.2137 C   0  0  2  0  0  0  0  0  0  0  0  0
    8.1354  -14.3578   23.9750 N   0  0  0  0  0  0  0  0  0  0  0  0
    9.7949  -16.0249   23.4456 C   0  0  0  0  0  0  0  0  0  0  0  0
   10.6781  -15.1616   23.7695 O   0  0  0  0  0  0  0  0  0  0  0  0
   10.2320  -17.3608   23.3346 N   0  0  0  0  0  0  0  0  0  0  0  0
   11.6314  -17.7401   23.5121 C   0  0  1  0  0  0  0  0  0  0  0  0
   11.6548  -18.7974   24.5835 C   0  0  0  0  0  0  0  0  0  0  0  0
   11.3543  -18.2981   25.9543 C   0  0  0  0  0  0  0  0  0  0  0  0
   11.3522  -19.3277   27.0079 C   0  0  0  0  0  0  0  0  0  0  0  0
   12.0386  -19.2046   28.0471 O   0  0  0  0  0  0  0  0  0  0  0  0
   12.1507  -18.2224   22.2214 C   0  0  0  0  0  0  0  0  0  0  0  0
   13.4932  -18.4145   22.0384 O   0  0  0  0  0  0  0  0  0  0  0  0
   10.5884  -20.4785   26.8925 O   0  0  0  0  0  0  0  0  0  0  0  0
   11.3489  -18.4557   21.2898 O   0  0  0  0  0  0  0  0  0  0  0  0
  2  1  1  6
  2  3  1  0
  3  4  1  0
  5  2  1  0
  6  5  2  0
  8  7  1  1
  8 10  1  0
  9  8  1  0
 10 11  1  1
 10 12  1  0
 11  5  1  0
 12 14  1  0
 13 12  2  0
 14 15  1  0
 15 16  1  1
 16 17  1  0
 17 18  1  0
 18 22  1  0
 19 18  2  0
 20 21  1  0
 20 15  1  0
 23 20  2  0
M  END
$$$$
