CTE.pdb
     RDKit          3D

 23 22  0  0  1  0  0  0  0  0999 V2000
    7.8775  -13.5863   16.0592 N   0  0  0  0  0  0  0  0  0  0  0  0
    8.1429  -14.7515   16.8404 C   0  0  1  0  0  0  0  0  0  0  0  0
    9.1311  -15.6448   16.1103 C   0  0  0  0  0  0  0  0  0  0  0  0
    8.3690  -16.6070   14.8049 S   0  0  0  0  0  0  0  0  0  0  0  0
    8.7799  -14.4318   18.1548 C   0  0  0  0  0  0  0  0  0  0  0  0
    9.7082  -13.5834   18.1926 O   0  0  0  0  0  0  0  0  0  0  0  0
    6.7513  -13.6016   21.1324 C   0  0  0  0  0  0  0  0  0  0  0  0
    7.7695  -14.6313   21.5956 C   0  0  1  0  0  0  0  0  0  0  0  0
    7.1323  -15.8953   21.4327 O   0  0  0  0  0  0  0  0  0  0  0  0
    8.9835  -14.6336   20.6711 C   0  0  2  0  0  0  0  0  0  0  0  0
    8.3945  -15.0336   19.3632 N   0  0  0  0  0  0  0  0  0  0  0  0
   10.0143  -15.5999   21.0570 C   0  0  0  0  0  0  0  0  0  0  0  0
   10.0486  -16.7528   20.5093 O   0  0  0  0  0  0  0  0  0  0  0  0
   11.0062  -15.3327   22.0228 N   0  0  0  0  0  0  0  0  0  0  0  0
   11.9917  -16.3329   22.4251 C   0  0  1  0  0  0  0  0  0  0  0  0
   13.3454  -15.7265   22.1676 C   0  0  0  0  0  0  0  0  0  0  0  0
   14.4954  -16.5811   22.5749 C   0  0  0  0  0  0  0  0  0  0  0  0
   15.8250  -15.9871   22.3522 C   0  0  0  0  0  0  0  0  0  0  0  0
   16.5697  -16.3748   21.4241 O   0  0  0  0  0  0  0  0  0  0  0  0
   11.7719  -16.6591   23.8440 C   0  0  0  0  0  0  0  0  0  0  0  0
   10.8703  -15.9501   24.5904 O   0  0  0  0  0  0  0  0  0  0  0  0
   16.3082  -14.9719   23.1626 O   0  0  0  0  0  0  0  0  0  0  0  0
   12.4204  -17.5948   24.3627 O   0  0  0  0  0  0  0  0  0  0  0  0
  2  1  1  6
  2  3  1  0
  3  4  1  0
  5  2  1  0
  6  5  2  0
  8  7  1  6
  8 10  1  0
  9  8  1  0
 10 11  1  6
 10 12  1  0
 11  5  1  0
 12 14  1  0
 13 12  2  0
 14 15  1  0
 15 16  1  1
 16 17  1  0
 17 18  1  0
 18 22  1  0
 19 18  2  0
 20 21  1  0
 20 15  1  0
 23 20  2  0
M  END
$$$$
