CTE.pdb
     RDKit          3D

 23 22  0  0  1  0  0  0  0  0999 V2000
   10.6138  -13.8541   17.5304 N   0  0  0  0  0  0  0  0  0  0  0  0
   11.1237  -14.4564   18.7201 C   0  0  1  0  0  0  0  0  0  0  0  0
   12.4837  -13.8665   19.0518 C   0  0  0  0  0  0  0  0  0  0  0  0
   13.8375  -14.9763   18.6695 S   0  0  0  0  0  0  0  0  0  0  0  0
   10.2645  -14.1911   19.9147 C   0  0  0  0  0  0  0  0  0  0  0  0
    9.9919  -13.0008   20.2179 O   0  0  0  0  0  0  0  0  0  0  0  0
    6.9491  -14.6722   20.6308 C   0  0  0  0  0  0  0  0  0  0  0  0
    7.6290  -15.4669   21.7343 C   0  0  1  0  0  0  0  0  0  0  0  0
    7.8009  -16.7792   21.2065 O   0  0  0  0  0  0  0  0  0  0  0  0
    9.0278  -14.9187   22.0016 C   0  0  2  0  0  0  0  0  0  0  0  0
    9.7392  -15.2093   20.7261 N   0  0  0  0  0  0  0  0  0  0  0  0
    9.7189  -15.5852   23.1076 C   0  0  0  0  0  0  0  0  0  0  0  0
   10.6190  -16.4583   22.8672 O   0  0  0  0  0  0  0  0  0  0  0  0
    9.4502  -15.3163   24.4653 N   0  0  0  0  0  0  0  0  0  0  0  0
   10.1590  -15.9926   25.5488 C   0  0  1  0  0  0  0  0  0  0  0  0
    9.9584  -15.1513   26.7811 C   0  0  0  0  0  0  0  0  0  0  0  0
   10.5644  -15.7126   28.0206 C   0  0  0  0  0  0  0  0  0  0  0  0
   10.4352  -14.8648   29.2185 C   0  0  0  0  0  0  0  0  0  0  0  0
    9.8221  -13.7743   29.1876 O   0  0  0  0  0  0  0  0  0  0  0  0
    9.6091  -17.3513   25.6884 C   0  0  0  0  0  0  0  0  0  0  0  0
   10.3857  -18.3715   26.1669 O   0  0  0  0  0  0  0  0  0  0  0  0
   10.9885  -15.2401   30.4326 O   0  0  0  0  0  0  0  0  0  0  0  0
    8.4199  -17.5647   25.3638 O   0  0  0  0  0  0  0  0  0  0  0  0
  2  1  1  6
  2  3  1  0
  3  4  1  0
  5  2  1  0
  6  5  2  0
  8  7  1  6
  8 10  1  0
  9  8  1  0
 10 11  1  6
 10 12  1  0
 11  5  1  0
 12 14  1  0
 13 12  2  0
 14 15  1  0
 15 16  1  1
 16 17  1  0
 17 18  1  0
 18 22  1  0
 19 18  2  0
 20 21  1  0
 20 15  1  0
 23 20  2  0
M  END
$$$$
