CTE.pdb
     RDKit          3D

 23 22  0  0  1  0  0  0  0  0999 V2000
    8.7202  -16.4893   16.1254 N   0  0  0  0  0  0  0  0  0  0  0  0
    8.2716  -16.9578   17.3972 C   0  0  1  0  0  0  0  0  0  0  0  0
    8.6774  -18.4101   17.5814 C   0  0  0  0  0  0  0  0  0  0  0  0
    8.0984  -19.1053   19.1280 S   0  0  0  0  0  0  0  0  0  0  0  0
    8.8926  -16.2158   18.5371 C   0  0  0  0  0  0  0  0  0  0  0  0
   10.0847  -15.8266   18.4345 O   0  0  0  0  0  0  0  0  0  0  0  0
    7.0397  -13.4441   20.0482 C   0  0  0  0  0  0  0  0  0  0  0  0
    7.6070  -14.2161   21.2287 C   0  0  1  0  0  0  0  0  0  0  0  0
    6.5823  -15.1280   21.6139 O   0  0  0  0  0  0  0  0  0  0  0  0
    8.7991  -15.0615   20.7893 C   0  0  2  0  0  0  0  0  0  0  0  0
    8.2104  -15.9261   19.7294 N   0  0  0  0  0  0  0  0  0  0  0  0
    9.3478  -15.9028   21.8553 C   0  0  0  0  0  0  0  0  0  0  0  0
    8.9493  -17.1085   21.9887 O   0  0  0  0  0  0  0  0  0  0  0  0
   10.3211  -15.4568   22.7727 N   0  0  0  0  0  0  0  0  0  0  0  0
   10.7497  -16.2675   23.9097 C   0  0  1  0  0  0  0  0  0  0  0  0
   12.2279  -16.0310   24.0698 C   0  0  0  0  0  0  0  0  0  0  0  0
   13.0697  -16.6117   22.9868 C   0  0  0  0  0  0  0  0  0  0  0  0
   14.5101  -16.3209   23.0913 C   0  0  0  0  0  0  0  0  0  0  0  0
   15.0873  -15.5638   22.2789 O   0  0  0  0  0  0  0  0  0  0  0  0
    9.9738  -15.8585   25.0924 C   0  0  0  0  0  0  0  0  0  0  0  0
    9.9670  -16.6304   26.2223 O   0  0  0  0  0  0  0  0  0  0  0  0
   15.2884  -16.8747   24.0956 O   0  0  0  0  0  0  0  0  0  0  0  0
    9.3180  -14.7938   25.0537 O   0  0  0  0  0  0  0  0  0  0  0  0
  2  1  1  6
  2  3  1  0
  3  4  1  0
  5  2  1  0
  6  5  2  0
  8  7  1  6
  8 10  1  0
  9  8  1  0
 10 11  1  6
 10 12  1  0
 11  5  1  0
 12 14  1  0
 13 12  2  0
 14 15  1  0
 15 16  1  1
 16 17  1  0
 17 18  1  0
 18 22  1  0
 19 18  2  0
 20 21  1  0
 20 15  1  0
 23 20  2  0
M  END
$$$$
