CTE.pdb
     RDKit          3D

 23 22  0  0  1  0  0  0  0  0999 V2000
    7.3822  -13.6473   17.3782 N   0  0  0  0  0  0  0  0  0  0  0  0
    8.3391  -13.5680   18.4347 C   0  0  1  0  0  0  0  0  0  0  0  0
    7.8887  -12.5407   19.4590 C   0  0  0  0  0  0  0  0  0  0  0  0
    8.9726  -12.4540   20.8832 S   0  0  0  0  0  0  0  0  0  0  0  0
    8.4783  -14.8540   19.1846 C   0  0  0  0  0  0  0  0  0  0  0  0
    7.4476  -15.3990   19.6577 O   0  0  0  0  0  0  0  0  0  0  0  0
    9.3844  -17.6871   17.7601 C   0  0  0  0  0  0  0  0  0  0  0  0
   10.3288  -17.7212   18.9511 C   0  0  1  0  0  0  0  0  0  0  0  0
   11.5447  -17.1401   18.4883 O   0  0  0  0  0  0  0  0  0  0  0  0
    9.8120  -16.8177   20.0671 C   0  0  2  0  0  0  0  0  0  0  0  0
    9.7104  -15.4942   19.3922 N   0  0  0  0  0  0  0  0  0  0  0  0
   10.7237  -16.7136   21.2087 C   0  0  0  0  0  0  0  0  0  0  0  0
   11.5683  -15.7580   21.2686 O   0  0  0  0  0  0  0  0  0  0  0  0
   10.7295  -17.6266   22.2831 N   0  0  0  0  0  0  0  0  0  0  0  0
   11.6565  -17.5035   23.4053 C   0  0  1  0  0  0  0  0  0  0  0  0
   11.0973  -18.3517   24.5163 C   0  0  0  0  0  0  0  0  0  0  0  0
   12.0083  -18.5267   25.6816 C   0  0  0  0  0  0  0  0  0  0  0  0
   11.4982  -19.4072   26.7469 C   0  0  0  0  0  0  0  0  0  0  0  0
   12.2079  -19.7330   27.7248 O   0  0  0  0  0  0  0  0  0  0  0  0
   12.9878  -17.9486   22.9608 C   0  0  0  0  0  0  0  0  0  0  0  0
   14.1209  -17.3999   23.4971 O   0  0  0  0  0  0  0  0  0  0  0  0
   10.2084  -19.9131   26.7107 O   0  0  0  0  0  0  0  0  0  0  0  0
   13.0730  -18.8371   22.0842 O   0  0  0  0  0  0  0  0  0  0  0  0
  2  1  1  6
  2  3  1  0
  3  4  1  0
  5  2  1  0
  6  5  2  0
  8  7  1  6
  8 10  1  0
  9  8  1  0
 10 11  1  6
 10 12  1  0
 11  5  1  0
 12 14  1  0
 13 12  2  0
 14 15  1  0
 15 16  1  1
 16 17  1  0
 17 18  1  0
 18 22  1  0
 19 18  2  0
 20 21  1  0
 20 15  1  0
 23 20  2  0
M  END
$$$$
