QNK.pdb
     RDKit          3D

 27 26  0  0  1  0  0  0  0  0999 V2000
   23.7729  -19.0457  -17.0467 N   0  0  0  0  0  0  0  0  0  0  0  0
   22.8485  -18.9588  -18.1255 C   0  0  0  0  0  0  0  0  0  0  0  0
   22.4905  -20.0401  -18.6497 O   0  0  0  0  0  0  0  0  0  0  0  0
   22.3920  -17.6322  -18.5354 C   0  0  0  0  0  0  0  0  0  0  0  0
   22.9524  -16.4997  -17.7478 C   0  0  0  0  0  0  0  0  0  0  0  0
   22.8031  -15.1459  -18.3459 C   0  0  2  0  0  0  0  0  0  0  0  0
   23.3379  -15.0347  -19.6801 N   0  0  0  0  0  0  0  0  0  0  0  0
   23.4407  -14.1705  -17.4111 C   0  0  0  0  0  0  0  0  0  0  0  0
   24.3165  -14.5872  -16.6123 O   0  0  0  0  0  0  0  0  0  0  0  0
   27.0960  -10.1345  -16.2466 N   0  0  0  0  0  0  0  0  0  0  0  0
   26.0104  -10.9562  -15.8463 C   0  0  0  0  0  0  0  0  0  0  0  0
   25.6729  -10.9031  -14.6353 O   0  0  0  0  0  0  0  0  0  0  0  0
   25.2689  -11.8472  -16.7342 C   0  0  0  0  0  0  0  0  0  0  0  0
   23.7909  -11.8226  -16.5587 C   0  0  2  0  0  0  0  0  0  0  0  0
   23.1019  -12.7895  -17.3830 N   0  0  0  0  0  0  0  0  0  0  0  0
   23.2092  -10.4619  -16.6989 C   0  0  0  0  0  0  0  0  0  0  0  0
   23.4476   -9.7821  -17.7295 O   0  0  0  0  0  0  0  0  0  0  0  0
   22.3818   -9.8769  -15.7110 N   0  0  0  0  0  0  0  0  0  0  0  0
   21.8168   -8.5184  -15.9296 C   0  0  1  0  0  0  0  0  0  0  0  0
   20.3711   -8.6416  -16.2958 C   0  0  0  0  0  0  0  0  0  0  0  0
   19.7583   -7.2947  -16.5233 C   0  0  0  0  0  0  0  0  0  0  0  0
   18.2889   -7.4159  -16.9256 C   0  0  0  0  0  0  0  0  0  0  0  0
   17.6455   -6.0780  -17.0707 C   0  0  0  0  0  0  0  0  0  0  0  0
   16.2672   -6.1432  -17.5072 N   0  0  0  0  0  0  0  0  0  0  0  0
   22.0665   -7.6839  -14.7634 C   0  0  0  0  0  0  0  0  0  0  0  0
   22.1041   -8.2353  -13.6104 O   0  0  0  0  0  0  0  0  0  0  0  0
   22.2762   -6.3254  -14.7652 O   0  0  0  0  0  0  0  0  0  0  0  0
  2  1  1  0
  3  2  2  0
  4  2  1  0
  5  4  1  0
  6  5  1  0
  6  7  1  6
  8  9  2  0
  8  6  1  0
 10 11  1  0
 11 13  1  0
 12 11  2  0
 14 13  1  6
 14 15  1  0
 15  8  1  0
 16 14  1  0
 16 18  1  0
 17 16  2  0
 18 19  1  0
 19 25  1  0
 20 21  1  0
 19 20  1  1
 22 21  1  0
 23 22  1  0
 24 23  1  0
 25 26  2  0
 25 27  1  0
M  END
$$$$
