QNK.pdb
     RDKit          3D

 27 26  0  0  1  0  0  0  0  0999 V2000
   19.1727  -17.0679  -17.1108 N   0  0  0  0  0  0  0  0  0  0  0  0
   20.0002  -16.8334  -18.2448 C   0  0  0  0  0  0  0  0  0  0  0  0
   19.8486  -17.6038  -19.2224 O   0  0  0  0  0  0  0  0  0  0  0  0
   20.9522  -15.7260  -18.1848 C   0  0  0  0  0  0  0  0  0  0  0  0
   20.3468  -14.3833  -17.9662 C   0  0  0  0  0  0  0  0  0  0  0  0
   20.9498  -13.2583  -18.7300 C   0  0  2  0  0  0  0  0  0  0  0  0
   21.9582  -13.6684  -19.6753 N   0  0  0  0  0  0  0  0  0  0  0  0
   21.4872  -12.2800  -17.7371 C   0  0  0  0  0  0  0  0  0  0  0  0
   20.7174  -11.8445  -16.8445 O   0  0  0  0  0  0  0  0  0  0  0  0
   26.2824  -10.3385  -14.6900 N   0  0  0  0  0  0  0  0  0  0  0  0
   25.4152   -9.9527  -15.7449 C   0  0  0  0  0  0  0  0  0  0  0  0
   25.1252   -8.7309  -15.8251 O   0  0  0  0  0  0  0  0  0  0  0  0
   24.8446  -10.8668  -16.7304 C   0  0  0  0  0  0  0  0  0  0  0  0
   23.3575  -10.8755  -16.7929 C   0  0  2  0  0  0  0  0  0  0  0  0
   22.8320  -11.8175  -17.7550 N   0  0  0  0  0  0  0  0  0  0  0  0
   22.7728   -9.5204  -16.9697 C   0  0  0  0  0  0  0  0  0  0  0  0
   22.9221   -8.9114  -18.0596 O   0  0  0  0  0  0  0  0  0  0  0  0
   22.0398   -8.8636  -15.9528 N   0  0  0  0  0  0  0  0  0  0  0  0
   21.4396   -7.5288  -16.2187 C   0  0  1  0  0  0  0  0  0  0  0  0
   19.9533   -7.6705  -16.3183 C   0  0  0  0  0  0  0  0  0  0  0  0
   19.3028   -6.3442  -16.5618 C   0  0  0  0  0  0  0  0  0  0  0  0
   17.7859   -6.4856  -16.6829 C   0  0  0  0  0  0  0  0  0  0  0  0
   17.1323   -5.1770  -16.9752 C   0  0  0  0  0  0  0  0  0  0  0  0
   15.7380   -5.2963  -17.3443 N   0  0  0  0  0  0  0  0  0  0  0  0
   21.8806   -6.5769  -15.2097 C   0  0  0  0  0  0  0  0  0  0  0  0
   21.8139   -5.3275  -15.4732 O   0  0  0  0  0  0  0  0  0  0  0  0
   22.3736   -6.8825  -13.9634 O   0  0  0  0  0  0  0  0  0  0  0  0
  2  1  1  0
  3  2  2  0
  4  2  1  0
  5  4  1  0
  6  5  1  0
  6  7  1  6
  8  9  2  0
  8  6  1  0
 10 11  1  0
 11 13  1  0
 12 11  2  0
 14 13  1  6
 14 15  1  0
 15  8  1  0
 16 14  1  0
 16 18  1  0
 17 16  2  0
 18 19  1  0
 19 25  1  0
 20 21  1  0
 19 20  1  1
 22 21  1  0
 23 22  1  0
 24 23  1  0
 25 26  2  0
 25 27  1  0
M  END
$$$$
