QNK.pdb
     RDKit          3D

 27 26  0  0  1  0  0  0  0  0999 V2000
   27.9164  -16.9045  -20.5710 N   0  0  0  0  0  0  0  0  0  0  0  0
   27.6630  -15.6529  -19.9426 C   0  0  0  0  0  0  0  0  0  0  0  0
   28.0101  -14.6255  -20.5719 O   0  0  0  0  0  0  0  0  0  0  0  0
   27.0249  -15.6598  -18.6277 C   0  0  0  0  0  0  0  0  0  0  0  0
   26.7597  -17.0109  -18.0609 C   0  0  0  0  0  0  0  0  0  0  0  0
   25.3420  -17.3192  -17.7327 C   0  0  2  0  0  0  0  0  0  0  0  0
   24.6791  -16.2850  -16.9780 N   0  0  0  0  0  0  0  0  0  0  0  0
   25.3233  -18.6280  -17.0127 C   0  0  0  0  0  0  0  0  0  0  0  0
   26.0678  -19.5523  -17.4255 O   0  0  0  0  0  0  0  0  0  0  0  0
   24.9969  -22.6202  -13.7333 N   0  0  0  0  0  0  0  0  0  0  0  0
   26.0733  -21.7327  -13.9932 C   0  0  0  0  0  0  0  0  0  0  0  0
   27.2085  -22.0766  -13.5731 O   0  0  0  0  0  0  0  0  0  0  0  0
   25.9531  -20.4641  -14.7061 C   0  0  0  0  0  0  0  0  0  0  0  0
   24.5673  -20.0967  -15.1066 C   0  0  2  0  0  0  0  0  0  0  0  0
   24.5007  -18.8773  -15.8797 N   0  0  0  0  0  0  0  0  0  0  0  0
   23.6148  -20.0809  -13.9656 C   0  0  0  0  0  0  0  0  0  0  0  0
   23.8286  -19.3271  -12.9820 O   0  0  0  0  0  0  0  0  0  0  0  0
   22.4529  -20.8877  -13.9262 N   0  0  0  0  0  0  0  0  0  0  0  0
   21.1431  -20.2807  -13.5677 C   0  0  1  0  0  0  0  0  0  0  0  0
   20.9727  -19.0005  -14.3235 C   0  0  0  0  0  0  0  0  0  0  0  0
   19.7002  -18.3135  -13.9357 C   0  0  0  0  0  0  0  0  0  0  0  0
   18.8233  -18.0418  -15.1575 C   0  0  0  0  0  0  0  0  0  0  0  0
   17.5981  -17.2716  -14.7958 C   0  0  0  0  0  0  0  0  0  0  0  0
   16.7497  -16.9687  -15.9285 N   0  0  0  0  0  0  0  0  0  0  0  0
   20.0742  -21.2453  -13.7819 C   0  0  0  0  0  0  0  0  0  0  0  0
   19.1701  -21.3692  -12.8864 O   0  0  0  0  0  0  0  0  0  0  0  0
   19.9228  -22.0616  -14.8775 O   0  0  0  0  0  0  0  0  0  0  0  0
  2  1  1  0
  3  2  2  0
  4  2  1  0
  5  4  1  0
  6  5  1  0
  6  7  1  1
  8  9  2  0
  8  6  1  0
 10 11  1  0
 11 13  1  0
 12 11  2  0
 14 13  1  1
 14 15  1  0
 15  8  1  0
 16 14  1  0
 16 18  1  0
 17 16  2  0
 18 19  1  0
 19 25  1  0
 20 21  1  0
 19 20  1  6
 22 21  1  0
 23 22  1  0
 24 23  1  0
 25 26  2  0
 25 27  1  0
M  END
$$$$
