QNK.pdb
     RDKit          3D

 27 26  0  0  1  0  0  0  0  0999 V2000
   22.6379  -21.9144   -7.9444 N   0  0  0  0  0  0  0  0  0  0  0  0
   23.3940  -21.1846   -6.9845 C   0  0  0  0  0  0  0  0  0  0  0  0
   22.9051  -21.0922   -5.8336 O   0  0  0  0  0  0  0  0  0  0  0  0
   24.6675  -20.6055   -7.4076 C   0  0  0  0  0  0  0  0  0  0  0  0
   24.9778  -20.7514   -8.8566 C   0  0  0  0  0  0  0  0  0  0  0  0
   23.9174  -20.3130   -9.8031 C   0  0  2  0  0  0  0  0  0  0  0  0
   22.7713  -21.1868   -9.8416 N   0  0  0  0  0  0  0  0  0  0  0  0
   24.5496  -20.1699  -11.1491 C   0  0  0  0  0  0  0  0  0  0  0  0
   25.5134  -19.3742  -11.2793 O   0  0  0  0  0  0  0  0  0  0  0  0
   27.2493  -21.9281  -15.9134 N   0  0  0  0  0  0  0  0  0  0  0  0
   25.9302  -21.5864  -15.5171 C   0  0  0  0  0  0  0  0  0  0  0  0
   25.1917  -21.0613  -16.3902 O   0  0  0  0  0  0  0  0  0  0  0  0
   25.3801  -21.8007  -14.1816 C   0  0  0  0  0  0  0  0  0  0  0  0
   24.6166  -20.6509  -13.6241 C   0  0  2  0  0  0  0  0  0  0  0  0
   24.1108  -20.8935  -12.2920 N   0  0  0  0  0  0  0  0  0  0  0  0
   23.5531  -20.1583  -14.5383 C   0  0  0  0  0  0  0  0  0  0  0  0
   22.6125  -20.9225  -14.8739 O   0  0  0  0  0  0  0  0  0  0  0  0
   23.5422  -18.8443  -15.0634 N   0  0  0  0  0  0  0  0  0  0  0  0
   22.4295  -18.4119  -15.9508 C   0  0  1  0  0  0  0  0  0  0  0  0
   22.7043  -18.8797  -17.3454 C   0  0  0  0  0  0  0  0  0  0  0  0
   21.5705  -18.5348  -18.2604 C   0  0  0  0  0  0  0  0  0  0  0  0
   21.7255  -17.1235  -18.8260 C   0  0  0  0  0  0  0  0  0  0  0  0
   20.5892  -16.7615  -19.7221 C   0  0  0  0  0  0  0  0  0  0  0  0
   20.5676  -15.3626  -20.0926 N   0  0  0  0  0  0  0  0  0  0  0  0
   21.1576  -18.8683  -15.4095 C   0  0  0  0  0  0  0  0  0  0  0  0
   20.8809  -20.1155  -15.4599 O   0  0  0  0  0  0  0  0  0  0  0  0
   20.1917  -18.0816  -14.8285 O   0  0  0  0  0  0  0  0  0  0  0  0
  2  1  1  0
  3  2  2  0
  4  2  1  0
  5  4  1  0
  6  5  1  0
  6  7  1  6
  8  9  2  0
  8  6  1  0
 10 11  1  0
 11 13  1  0
 12 11  2  0
 14 13  1  6
 14 15  1  0
 15  8  1  0
 16 14  1  0
 16 18  1  0
 17 16  2  0
 18 19  1  0
 19 25  1  0
 20 21  1  0
 19 20  1  6
 22 21  1  0
 23 22  1  0
 24 23  1  0
 25 26  2  0
 25 27  1  0
M  END
$$$$
