QNK.pdb
     RDKit          3D

 27 26  0  0  1  0  0  0  0  0999 V2000
   24.7454  -22.9591  -18.4086 N   0  0  0  0  0  0  0  0  0  0  0  0
   23.7237  -22.4876  -19.2801 C   0  0  0  0  0  0  0  0  0  0  0  0
   23.9602  -22.5464  -20.5100 O   0  0  0  0  0  0  0  0  0  0  0  0
   22.4912  -21.9773  -18.6828 C   0  0  0  0  0  0  0  0  0  0  0  0
   22.4752  -21.9477  -17.1943 C   0  0  0  0  0  0  0  0  0  0  0  0
   22.4892  -20.6006  -16.5635 C   0  0  2  0  0  0  0  0  0  0  0  0
   23.6572  -19.8182  -16.8832 N   0  0  0  0  0  0  0  0  0  0  0  0
   22.3393  -20.7944  -15.0899 C   0  0  0  0  0  0  0  0  0  0  0  0
   23.2197  -21.4484  -14.4766 O   0  0  0  0  0  0  0  0  0  0  0  0
   21.1338  -20.0879  -10.0077 N   0  0  0  0  0  0  0  0  0  0  0  0
   21.0964  -18.9319  -10.8298 C   0  0  0  0  0  0  0  0  0  0  0  0
   21.0427  -17.8191  -10.2449 O   0  0  0  0  0  0  0  0  0  0  0  0
   21.1159  -18.9474  -12.2898 C   0  0  0  0  0  0  0  0  0  0  0  0
   21.1822  -20.3019  -12.9035 C   0  0  2  0  0  0  0  0  0  0  0  0
   21.2446  -20.2722  -14.3472 N   0  0  0  0  0  0  0  0  0  0  0  0
   20.1176  -21.2169  -12.4147 C   0  0  0  0  0  0  0  0  0  0  0  0
   19.8876  -21.3078  -11.1818 O   0  0  0  0  0  0  0  0  0  0  0  0
   19.3305  -22.0098  -13.2833 N   0  0  0  0  0  0  0  0  0  0  0  0
   18.3789  -23.0036  -12.7182 C   0  0  1  0  0  0  0  0  0  0  0  0
   19.0383  -23.7245  -11.5847 C   0  0  0  0  0  0  0  0  0  0  0  0
   18.1451  -23.7679  -10.3840 C   0  0  0  0  0  0  0  0  0  0  0  0
   18.8168  -24.4963   -9.2205 C   0  0  0  0  0  0  0  0  0  0  0  0
   17.9759  -24.4601   -7.9890 C   0  0  0  0  0  0  0  0  0  0  0  0
   18.5249  -25.2266   -6.8908 N   0  0  0  0  0  0  0  0  0  0  0  0
   17.1303  -22.3467  -12.3599 C   0  0  0  0  0  0  0  0  0  0  0  0
   17.1642  -21.1232  -11.9901 O   0  0  0  0  0  0  0  0  0  0  0  0
   15.8783  -22.9136  -12.3790 O   0  0  0  0  0  0  0  0  0  0  0  0
  2  1  1  0
  3  2  2  0
  4  2  1  0
  5  4  1  0
  6  5  1  0
  6  7  1  1
  8  9  2  0
  8  6  1  0
 10 11  1  0
 11 13  1  0
 12 11  2  0
 14 13  1  6
 14 15  1  0
 15  8  1  0
 16 14  1  0
 16 18  1  0
 17 16  2  0
 18 19  1  0
 19 25  1  0
 20 21  1  0
 19 20  1  1
 22 21  1  0
 23 22  1  0
 24 23  1  0
 25 26  2  0
 25 27  1  0
M  END
$$$$
