QNK.pdb
     RDKit          3D

 27 26  0  0  1  0  0  0  0  0999 V2000
   11.5884  -22.2811   -2.7001 N   0  0  0  0  0  0  0  0  0  0  0  0
   12.6462  -22.7950   -3.5018 C   0  0  0  0  0  0  0  0  0  0  0  0
   12.5266  -22.6661   -4.7432 O   0  0  0  0  0  0  0  0  0  0  0  0
   13.7778  -23.4261   -2.8256 C   0  0  0  0  0  0  0  0  0  0  0  0
   13.7196  -23.4004   -1.3380 C   0  0  0  0  0  0  0  0  0  0  0  0
   14.2467  -22.1745   -0.6807 C   0  0  2  0  0  0  0  0  0  0  0  0
   15.3643  -21.5776   -1.3687 N   0  0  0  0  0  0  0  0  0  0  0  0
   14.5919  -22.5344    0.7275 C   0  0  0  0  0  0  0  0  0  0  0  0
   13.7554  -23.1827    1.4049 O   0  0  0  0  0  0  0  0  0  0  0  0
   16.7448  -25.1908    1.9804 N   0  0  0  0  0  0  0  0  0  0  0  0
   17.7375  -24.3399    2.5321 C   0  0  0  0  0  0  0  0  0  0  0  0
   18.8871  -24.8290    2.6815 O   0  0  0  0  0  0  0  0  0  0  0  0
   17.5167  -22.9531    2.9326 C   0  0  0  0  0  0  0  0  0  0  0  0
   16.1308  -22.4515    2.7241 C   0  0  2  0  0  0  0  0  0  0  0  0
   15.8254  -22.1768    1.3384 N   0  0  0  0  0  0  0  0  0  0  0  0
   15.7869  -21.3040    3.6042 C   0  0  0  0  0  0  0  0  0  0  0  0
   16.1347  -20.1399    3.2797 O   0  0  0  0  0  0  0  0  0  0  0  0
   15.0723  -21.4551    4.8162 N   0  0  0  0  0  0  0  0  0  0  0  0
   14.8626  -20.2790    5.7024 C   0  0  1  0  0  0  0  0  0  0  0  0
   13.9098  -20.6516    6.7945 C   0  0  0  0  0  0  0  0  0  0  0  0
   13.6063  -19.4734    7.6671 C   0  0  0  0  0  0  0  0  0  0  0  0
   12.5957  -19.8360    8.7547 C   0  0  0  0  0  0  0  0  0  0  0  0
   12.3091  -18.6768    9.6487 C   0  0  0  0  0  0  0  0  0  0  0  0
   11.4072  -18.9934   10.7354 N   0  0  0  0  0  0  0  0  0  0  0  0
   16.1454  -19.7801    6.1761 C   0  0  0  0  0  0  0  0  0  0  0  0
   16.3543  -18.5187    6.1691 O   0  0  0  0  0  0  0  0  0  0  0  0
   17.1894  -20.5395    6.6483 O   0  0  0  0  0  0  0  0  0  0  0  0
  2  1  1  0
  3  2  2  0
  4  2  1  0
  5  4  1  0
  6  5  1  0
  6  7  1  6
  8  9  2  0
  8  6  1  0
 10 11  1  0
 11 13  1  0
 12 11  2  0
 14 13  1  6
 14 15  1  0
 15  8  1  0
 16 14  1  0
 16 18  1  0
 17 16  2  0
 18 19  1  0
 19 25  1  0
 20 21  1  0
 19 20  1  1
 22 21  1  0
 23 22  1  0
 24 23  1  0
 25 26  2  0
 25 27  1  0
M  END
$$$$
