QNK.pdb
     RDKit          3D

 27 26  0  0  1  0  0  0  0  0999 V2000
   13.9773  -13.3814  -15.0655 N   0  0  0  0  0  0  0  0  0  0  0  0
   13.8939  -12.7273  -16.3269 C   0  0  0  0  0  0  0  0  0  0  0  0
   13.2116  -13.2950  -17.2124 O   0  0  0  0  0  0  0  0  0  0  0  0
   14.6008  -11.4587  -16.4922 C   0  0  0  0  0  0  0  0  0  0  0  0
   15.3427  -10.9873  -15.2904 C   0  0  0  0  0  0  0  0  0  0  0  0
   16.8234  -11.1211  -15.3377 C   0  0  2  0  0  0  0  0  0  0  0  0
   17.2847  -12.4854  -15.4044 N   0  0  0  0  0  0  0  0  0  0  0  0
   17.3759  -10.4078  -14.1470 C   0  0  0  0  0  0  0  0  0  0  0  0
   17.1529  -10.8818  -13.0049 O   0  0  0  0  0  0  0  0  0  0  0  0
   19.8776   -6.9448  -10.9689 N   0  0  0  0  0  0  0  0  0  0  0  0
   20.4440   -6.9798  -12.2695 C   0  0  0  0  0  0  0  0  0  0  0  0
   21.5186   -6.3476  -12.4394 O   0  0  0  0  0  0  0  0  0  0  0  0
   19.8706   -7.6911  -13.4087 C   0  0  0  0  0  0  0  0  0  0  0  0
   18.6718   -8.5162  -13.0961 C   0  0  2  0  0  0  0  0  0  0  0  0
   18.1440   -9.2150  -14.2460 N   0  0  0  0  0  0  0  0  0  0  0  0
   17.6145   -7.7599  -12.3753 C   0  0  0  0  0  0  0  0  0  0  0  0
   16.9215   -6.9108  -12.9917 O   0  0  0  0  0  0  0  0  0  0  0  0
   17.3397   -7.9490  -11.0000 N   0  0  0  0  0  0  0  0  0  0  0  0
   16.2474   -7.1752  -10.3512 C   0  0  1  0  0  0  0  0  0  0  0  0
   15.2231   -8.1264   -9.8171 C   0  0  0  0  0  0  0  0  0  0  0  0
   14.1208   -7.3919   -9.1192 C   0  0  0  0  0  0  0  0  0  0  0  0
   13.0689   -8.3583   -8.5760 C   0  0  0  0  0  0  0  0  0  0  0  0
   11.9223   -7.6330   -7.9564 C   0  0  0  0  0  0  0  0  0  0  0  0
   10.9540   -8.5081   -7.3309 N   0  0  0  0  0  0  0  0  0  0  0  0
   16.8035   -6.2757   -9.3509 C   0  0  0  0  0  0  0  0  0  0  0  0
   17.9119   -6.5861   -8.7943 O   0  0  0  0  0  0  0  0  0  0  0  0
   16.2524   -5.0898   -8.9274 O   0  0  0  0  0  0  0  0  0  0  0  0
  2  1  1  0
  3  2  2  0
  4  2  1  0
  5  4  1  0
  6  5  1  0
  6  7  1  1
  8  9  2  0
  8  6  1  0
 10 11  1  0
 11 13  1  0
 12 11  2  0
 14 13  1  6
 14 15  1  0
 15  8  1  0
 16 14  1  0
 16 18  1  0
 17 16  2  0
 18 19  1  0
 19 25  1  0
 20 21  1  0
 19 20  1  1
 22 21  1  0
 23 22  1  0
 24 23  1  0
 25 26  2  0
 25 27  1  0
M  END
$$$$
