QNK.pdb
     RDKit          3D

 27 26  0  0  1  0  0  0  0  0999 V2000
   16.2859  -12.8807  -15.7808 N   0  0  0  0  0  0  0  0  0  0  0  0
   17.5387  -13.5245  -15.5765 C   0  0  0  0  0  0  0  0  0  0  0  0
   17.5242  -14.7762  -15.5034 O   0  0  0  0  0  0  0  0  0  0  0  0
   18.7326  -12.6883  -15.4691 C   0  0  0  0  0  0  0  0  0  0  0  0
   18.4762  -11.2220  -15.4337 C   0  0  0  0  0  0  0  0  0  0  0  0
   19.4222  -10.3706  -16.2037 C   0  0  2  0  0  0  0  0  0  0  0  0
   20.7522  -10.9183  -16.3033 N   0  0  0  0  0  0  0  0  0  0  0  0
   19.4267   -9.0185  -15.5685 C   0  0  0  0  0  0  0  0  0  0  0  0
   18.3324   -8.4179  -15.4248 O   0  0  0  0  0  0  0  0  0  0  0  0
   21.0272   -4.2850  -13.7075 N   0  0  0  0  0  0  0  0  0  0  0  0
   21.9155   -5.3264  -13.3332 C   0  0  0  0  0  0  0  0  0  0  0  0
   22.8216   -5.0334  -12.5107 O   0  0  0  0  0  0  0  0  0  0  0  0
   21.8491   -6.6971  -13.8323 C   0  0  0  0  0  0  0  0  0  0  0  0
   20.6469   -7.0102  -14.6523 C   0  0  2  0  0  0  0  0  0  0  0  0
   20.6139   -8.3781  -15.1180 N   0  0  0  0  0  0  0  0  0  0  0  0
   20.4279   -6.0434  -15.7599 C   0  0  0  0  0  0  0  0  0  0  0  0
   21.1548   -6.0906  -16.7849 O   0  0  0  0  0  0  0  0  0  0  0  0
   19.4214   -5.0494  -15.7215 N   0  0  0  0  0  0  0  0  0  0  0  0
   19.2586   -4.1175  -16.8694 C   0  0  1  0  0  0  0  0  0  0  0  0
   17.8768   -4.2611  -17.4255 C   0  0  0  0  0  0  0  0  0  0  0  0
   17.6271   -3.2581  -18.5086 C   0  0  0  0  0  0  0  0  0  0  0  0
   16.2187   -3.4035  -19.0837 C   0  0  0  0  0  0  0  0  0  0  0  0
   15.9579   -2.4052  -20.1610 C   0  0  0  0  0  0  0  0  0  0  0  0
   14.6132   -2.4659  -20.6928 N   0  0  0  0  0  0  0  0  0  0  0  0
   19.5976   -2.7624  -16.4599 C   0  0  0  0  0  0  0  0  0  0  0  0
   19.3393   -2.4003  -15.2612 O   0  0  0  0  0  0  0  0  0  0  0  0
   20.1867   -1.7992  -17.2439 O   0  0  0  0  0  0  0  0  0  0  0  0
  2  1  1  0
  3  2  2  0
  4  2  1  0
  5  4  1  0
  6  5  1  0
  6  7  1  1
  8  9  2  0
  8  6  1  0
 10 11  1  0
 11 13  1  0
 12 11  2  0
 14 13  1  6
 14 15  1  0
 15  8  1  0
 16 14  1  0
 16 18  1  0
 17 16  2  0
 18 19  1  0
 19 25  1  0
 20 21  1  0
 19 20  1  1
 22 21  1  0
 23 22  1  0
 24 23  1  0
 25 26  2  0
 25 27  1  0
M  END
$$$$
