QNK.pdb
     RDKit          3D

 27 26  0  0  1  0  0  0  0  0999 V2000
   27.4013  -16.8770  -14.9179 N   0  0  0  0  0  0  0  0  0  0  0  0
   27.9694  -17.3377  -16.1388 C   0  0  0  0  0  0  0  0  0  0  0  0
   28.8658  -16.6243  -16.6483 O   0  0  0  0  0  0  0  0  0  0  0  0
   27.4713  -18.5923  -16.6993 C   0  0  0  0  0  0  0  0  0  0  0  0
   26.5046  -19.3291  -15.8391 C   0  0  0  0  0  0  0  0  0  0  0  0
   27.0929  -20.2282  -14.8104 C   0  0  2  0  0  0  0  0  0  0  0  0
   27.9464  -21.2560  -15.3524 N   0  0  0  0  0  0  0  0  0  0  0  0
   25.9635  -20.8057  -14.0215 C   0  0  0  0  0  0  0  0  0  0  0  0
   25.2640  -21.7088  -14.5451 O   0  0  0  0  0  0  0  0  0  0  0  0
   26.7247  -21.9226  -10.4887 N   0  0  0  0  0  0  0  0  0  0  0  0
   25.7381  -21.1211   -9.8579 C   0  0  0  0  0  0  0  0  0  0  0  0
   25.9123  -20.8580   -8.6398 O   0  0  0  0  0  0  0  0  0  0  0  0
   24.5502  -20.5883  -10.5192 C   0  0  0  0  0  0  0  0  0  0  0  0
   24.4776  -20.8447  -11.9837 C   0  0  2  0  0  0  0  0  0  0  0  0
   25.6422  -20.3804  -12.7030 N   0  0  0  0  0  0  0  0  0  0  0  0
   23.2161  -20.3564  -12.5999 C   0  0  0  0  0  0  0  0  0  0  0  0
   23.0833  -19.1358  -12.8712 O   0  0  0  0  0  0  0  0  0  0  0  0
   22.1309  -21.2122  -12.9045 N   0  0  0  0  0  0  0  0  0  0  0  0
   20.8988  -20.6524  -13.5220 C   0  0  1  0  0  0  0  0  0  0  0  0
   20.7053  -21.2658  -14.8731 C   0  0  0  0  0  0  0  0  0  0  0  0
   19.4442  -20.7717  -15.5113 C   0  0  0  0  0  0  0  0  0  0  0  0
   19.2084  -21.4432  -16.8637 C   0  0  0  0  0  0  0  0  0  0  0  0
   18.0082  -20.8869  -17.5529 C   0  0  0  0  0  0  0  0  0  0  0  0
   17.6590  -21.5931  -18.7670 N   0  0  0  0  0  0  0  0  0  0  0  0
   19.7690  -20.8280  -12.6211 C   0  0  0  0  0  0  0  0  0  0  0  0
   18.7904  -20.0085  -12.6964 O   0  0  0  0  0  0  0  0  0  0  0  0
   19.6321  -21.8110  -11.6702 O   0  0  0  0  0  0  0  0  0  0  0  0
  2  1  1  0
  3  2  2  0
  4  2  1  0
  5  4  1  0
  6  5  1  0
  6  7  1  6
  8  9  2  0
  8  6  1  0
 10 11  1  0
 11 13  1  0
 12 11  2  0
 14 13  1  1
 14 15  1  0
 15  8  1  0
 16 14  1  0
 16 18  1  0
 17 16  2  0
 18 19  1  0
 19 25  1  0
 20 21  1  0
 19 20  1  6
 22 21  1  0
 23 22  1  0
 24 23  1  0
 25 26  2  0
 25 27  1  0
M  END
$$$$
