QNK.pdb
     RDKit          3D

 27 26  0  0  1  0  0  0  0  0999 V2000
   25.5226  -13.7176  -16.4315 N   0  0  0  0  0  0  0  0  0  0  0  0
   25.2537  -12.3881  -16.8628 C   0  0  0  0  0  0  0  0  0  0  0  0
   25.0191  -12.2281  -18.0841 O   0  0  0  0  0  0  0  0  0  0  0  0
   25.2708  -11.3232  -15.8618 C   0  0  0  0  0  0  0  0  0  0  0  0
   24.1288  -10.3705  -15.9329 C   0  0  0  0  0  0  0  0  0  0  0  0
   22.8202  -10.8750  -15.4374 C   0  0  2  0  0  0  0  0  0  0  0  0
   22.3058  -11.9960  -16.1841 N   0  0  0  0  0  0  0  0  0  0  0  0
   21.8669   -9.7248  -15.4390 C   0  0  0  0  0  0  0  0  0  0  0  0
   21.2912   -9.4222  -16.5142 O   0  0  0  0  0  0  0  0  0  0  0  0
   18.5261   -9.7631  -13.6436 N   0  0  0  0  0  0  0  0  0  0  0  0
   18.8641   -8.7200  -12.7428 C   0  0  0  0  0  0  0  0  0  0  0  0
   18.2079   -8.6590  -11.6709 O   0  0  0  0  0  0  0  0  0  0  0  0
   19.9087   -7.7262  -12.9737 C   0  0  0  0  0  0  0  0  0  0  0  0
   20.6324   -7.8634  -14.2672 C   0  0  2  0  0  0  0  0  0  0  0  0
   21.5800   -8.9548  -14.2782 N   0  0  0  0  0  0  0  0  0  0  0  0
   21.2480   -6.5919  -14.7294 C   0  0  0  0  0  0  0  0  0  0  0  0
   22.3821   -6.2543  -14.3038 O   0  0  0  0  0  0  0  0  0  0  0  0
   20.6108   -5.7203  -15.6444 N   0  0  0  0  0  0  0  0  0  0  0  0
   21.3126   -4.4935  -16.1079 C   0  0  1  0  0  0  0  0  0  0  0  0
   20.9173   -4.2072  -17.5224 C   0  0  0  0  0  0  0  0  0  0  0  0
   21.5761   -2.9589  -18.0217 C   0  0  0  0  0  0  0  0  0  0  0  0
   21.1386   -2.6354  -19.4498 C   0  0  0  0  0  0  0  0  0  0  0  0
   21.7726   -1.3809  -19.9493 C   0  0  0  0  0  0  0  0  0  0  0  0
   21.2566   -0.9412  -21.2279 N   0  0  0  0  0  0  0  0  0  0  0  0
   21.0571   -3.3973  -15.1848 C   0  0  0  0  0  0  0  0  0  0  0  0
   19.9252   -3.3444  -14.5926 O   0  0  0  0  0  0  0  0  0  0  0  0
   21.9275   -2.3820  -14.8669 O   0  0  0  0  0  0  0  0  0  0  0  0
  2  1  1  0
  3  2  2  0
  4  2  1  0
  5  4  1  0
  6  5  1  0
  6  7  1  6
  8  9  2  0
  8  6  1  0
 10 11  1  0
 11 13  1  0
 12 11  2  0
 14 13  1  1
 14 15  1  0
 15  8  1  0
 16 14  1  0
 16 18  1  0
 17 16  2  0
 18 19  1  0
 19 25  1  0
 20 21  1  0
 19 20  1  6
 22 21  1  0
 23 22  1  0
 24 23  1  0
 25 26  2  0
 25 27  1  0
M  END
$$$$
