QNK.pdb
     RDKit          3D

 27 26  0  0  1  0  0  0  0  0999 V2000
   16.6042  -16.1340  -14.8453 N   0  0  0  0  0  0  0  0  0  0  0  0
   17.9615  -16.3332  -15.2244 C   0  0  0  0  0  0  0  0  0  0  0  0
   18.3923  -17.5099  -15.1805 O   0  0  0  0  0  0  0  0  0  0  0  0
   18.7407  -15.1656  -15.6315 C   0  0  0  0  0  0  0  0  0  0  0  0
   18.0233  -13.8640  -15.5407 C   0  0  0  0  0  0  0  0  0  0  0  0
   17.7838  -13.1546  -16.8261 C   0  0  2  0  0  0  0  0  0  0  0  0
   18.7222  -13.4969  -17.8657 N   0  0  0  0  0  0  0  0  0  0  0  0
   17.7889  -11.6891  -16.5366 C   0  0  0  0  0  0  0  0  0  0  0  0
   17.0750  -11.2593  -15.5961 O   0  0  0  0  0  0  0  0  0  0  0  0
   16.2545   -8.4621  -18.2976 N   0  0  0  0  0  0  0  0  0  0  0  0
   16.3621   -8.4034  -16.8838 C   0  0  0  0  0  0  0  0  0  0  0  0
   15.3883   -7.9088  -16.2590 O   0  0  0  0  0  0  0  0  0  0  0  0
   17.5123   -8.8724  -16.1161 C   0  0  0  0  0  0  0  0  0  0  0  0
   18.6591   -9.3551  -16.9330 C   0  0  2  0  0  0  0  0  0  0  0  0
   18.5654  -10.7558  -17.2772 N   0  0  0  0  0  0  0  0  0  0  0  0
   19.9803   -9.0184  -16.3407 C   0  0  0  0  0  0  0  0  0  0  0  0
   20.3030   -9.4908  -15.2209 O   0  0  0  0  0  0  0  0  0  0  0  0
   20.9161   -8.1748  -16.9850 N   0  0  0  0  0  0  0  0  0  0  0  0
   22.2579   -7.9609  -16.3796 C   0  0  1  0  0  0  0  0  0  0  0  0
   23.3094   -8.3953  -17.3516 C   0  0  0  0  0  0  0  0  0  0  0  0
   24.6803   -8.1991  -16.7826 C   0  0  0  0  0  0  0  0  0  0  0  0
   25.7547   -8.7261  -17.7331 C   0  0  0  0  0  0  0  0  0  0  0  0
   27.1274   -8.4780  -17.2045 C   0  0  0  0  0  0  0  0  0  0  0  0
   28.1754   -9.0391  -18.0301 N   0  0  0  0  0  0  0  0  0  0  0  0
   22.3886   -6.5797  -15.9391 C   0  0  0  0  0  0  0  0  0  0  0  0
   21.8513   -5.6572  -16.6426 O   0  0  0  0  0  0  0  0  0  0  0  0
   23.0441   -6.1439  -14.8121 O   0  0  0  0  0  0  0  0  0  0  0  0
  2  1  1  0
  3  2  2  0
  4  2  1  0
  5  4  1  0
  6  5  1  0
  6  7  1  6
  8  9  2  0
  8  6  1  0
 10 11  1  0
 11 13  1  0
 12 11  2  0
 14 13  1  1
 14 15  1  0
 15  8  1  0
 16 14  1  0
 16 18  1  0
 17 16  2  0
 18 19  1  0
 19 25  1  0
 20 21  1  0
 19 20  1  6
 22 21  1  0
 23 22  1  0
 24 23  1  0
 25 26  2  0
 25 27  1  0
M  END
$$$$
