QNK.pdb
     RDKit          3D

 27 26  0  0  1  0  0  0  0  0999 V2000
   25.6180  -20.4708   -8.9328 N   0  0  0  0  0  0  0  0  0  0  0  0
   24.6934  -20.7950   -9.9651 C   0  0  0  0  0  0  0  0  0  0  0  0
   23.6206  -20.1465   -9.9853 O   0  0  0  0  0  0  0  0  0  0  0  0
   25.0601  -21.8463  -10.9120 C   0  0  0  0  0  0  0  0  0  0  0  0
   25.4412  -21.3690  -12.2700 C   0  0  0  0  0  0  0  0  0  0  0  0
   26.7007  -20.5829  -12.3608 C   0  0  2  0  0  0  0  0  0  0  0  0
   26.7005  -19.3849  -11.5587 N   0  0  0  0  0  0  0  0  0  0  0  0
   26.9380  -20.2822  -13.8047 C   0  0  0  0  0  0  0  0  0  0  0  0
   26.5631  -19.1715  -14.2573 O   0  0  0  0  0  0  0  0  0  0  0  0
   28.6739  -20.3484  -18.8101 N   0  0  0  0  0  0  0  0  0  0  0  0
   29.3666  -21.2874  -18.0025 C   0  0  0  0  0  0  0  0  0  0  0  0
   30.3194  -21.9080  -18.5414 O   0  0  0  0  0  0  0  0  0  0  0  0
   29.0515  -21.5777  -16.6065 C   0  0  0  0  0  0  0  0  0  0  0  0
   27.8395  -20.8925  -16.0799 C   0  0  2  0  0  0  0  0  0  0  0  0
   27.5695  -21.1960  -14.6928 N   0  0  0  0  0  0  0  0  0  0  0  0
   26.6390  -21.0920  -16.9334 C   0  0  0  0  0  0  0  0  0  0  0  0
   25.9851  -22.1631  -16.8536 O   0  0  0  0  0  0  0  0  0  0  0  0
   26.1821  -20.1179  -17.8527 N   0  0  0  0  0  0  0  0  0  0  0  0
   24.8905  -20.3196  -18.5624 C   0  0  1  0  0  0  0  0  0  0  0  0
   24.2201  -18.9945  -18.7467 C   0  0  0  0  0  0  0  0  0  0  0  0
   22.9373  -19.1427  -19.5043 C   0  0  0  0  0  0  0  0  0  0  0  0
   21.7302  -19.0571  -18.5710 C   0  0  0  0  0  0  0  0  0  0  0  0
   20.4553  -19.3383  -19.2924 C   0  0  0  0  0  0  0  0  0  0  0  0
   19.2730  -19.0974  -18.4932 N   0  0  0  0  0  0  0  0  0  0  0  0
   25.1141  -21.0510  -19.8009 C   0  0  0  0  0  0  0  0  0  0  0  0
   26.1779  -20.8151  -20.4699 O   0  0  0  0  0  0  0  0  0  0  0  0
   24.2828  -22.0001  -20.3465 O   0  0  0  0  0  0  0  0  0  0  0  0
  2  1  1  0
  3  2  2  0
  4  2  1  0
  5  4  1  0
  6  5  1  0
  6  7  1  1
  8  9  2  0
  8  6  1  0
 10 11  1  0
 11 13  1  0
 12 11  2  0
 14 13  1  6
 14 15  1  0
 15  8  1  0
 16 14  1  0
 16 18  1  0
 17 16  2  0
 18 19  1  0
 19 25  1  0
 20 21  1  0
 19 20  1  6
 22 21  1  0
 23 22  1  0
 24 23  1  0
 25 26  2  0
 25 27  1  0
M  END
$$$$
