QNK.pdb
     RDKit          3D

 27 26  0  0  1  0  0  0  0  0999 V2000
   22.2523  -20.6715  -11.7432 N   0  0  0  0  0  0  0  0  0  0  0  0
   22.7833  -20.5235  -10.4309 C   0  0  0  0  0  0  0  0  0  0  0  0
   21.9722  -20.6236   -9.4800 O   0  0  0  0  0  0  0  0  0  0  0  0
   24.2160  -20.2696  -10.2929 C   0  0  0  0  0  0  0  0  0  0  0  0
   24.9542  -20.0997  -11.5748 C   0  0  0  0  0  0  0  0  0  0  0  0
   25.7137  -21.2839  -12.0578 C   0  0  2  0  0  0  0  0  0  0  0  0
   26.7589  -21.7124  -11.1620 N   0  0  0  0  0  0  0  0  0  0  0  0
   26.2479  -20.9513  -13.4127 C   0  0  0  0  0  0  0  0  0  0  0  0
   25.9675  -19.8328  -13.9119 O   0  0  0  0  0  0  0  0  0  0  0  0
   28.9070  -20.8452  -17.9140 N   0  0  0  0  0  0  0  0  0  0  0  0
   29.2015  -22.0464  -17.2183 C   0  0  0  0  0  0  0  0  0  0  0  0
   30.1552  -22.7396  -17.6581 O   0  0  0  0  0  0  0  0  0  0  0  0
   28.4814  -22.5254  -16.0417 C   0  0  0  0  0  0  0  0  0  0  0  0
   27.4063  -21.6203  -15.5510 C   0  0  2  0  0  0  0  0  0  0  0  0
   27.0606  -21.8432  -14.1654 N   0  0  0  0  0  0  0  0  0  0  0  0
   26.2050  -21.6128  -16.4263 C   0  0  0  0  0  0  0  0  0  0  0  0
   25.2168  -22.3356  -16.1395 O   0  0  0  0  0  0  0  0  0  0  0  0
   26.1118  -20.8169  -17.5927 N   0  0  0  0  0  0  0  0  0  0  0  0
   24.7783  -20.3740  -18.0809 C   0  0  1  0  0  0  0  0  0  0  0  0
   24.0659  -19.6564  -16.9778 C   0  0  0  0  0  0  0  0  0  0  0  0
   22.5841  -19.8409  -17.0868 C   0  0  0  0  0  0  0  0  0  0  0  0
   21.8737  -19.3778  -15.8154 C   0  0  0  0  0  0  0  0  0  0  0  0
   20.3977  -19.5729  -15.9070 C   0  0  0  0  0  0  0  0  0  0  0  0
   19.6791  -19.1088  -14.7396 N   0  0  0  0  0  0  0  0  0  0  0  0
   24.9310  -19.5916  -19.2988 C   0  0  0  0  0  0  0  0  0  0  0  0
   25.6692  -18.5481  -19.2700 O   0  0  0  0  0  0  0  0  0  0  0  0
   24.3531  -19.8613  -20.5166 O   0  0  0  0  0  0  0  0  0  0  0  0
  2  1  1  0
  3  2  2  0
  4  2  1  0
  5  4  1  0
  6  5  1  0
  6  7  1  1
  8  9  2  0
  8  6  1  0
 10 11  1  0
 11 13  1  0
 12 11  2  0
 14 13  1  6
 14 15  1  0
 15  8  1  0
 16 14  1  0
 16 18  1  0
 17 16  2  0
 18 19  1  0
 19 25  1  0
 20 21  1  0
 19 20  1  1
 22 21  1  0
 23 22  1  0
 24 23  1  0
 25 26  2  0
 25 27  1  0
M  END
$$$$
