QNK.pdb
     RDKit          3D

 27 26  0  0  1  0  0  0  0  0999 V2000
   21.4907  -15.4034  -20.8128 N   0  0  0  0  0  0  0  0  0  0  0  0
   21.9622  -15.1353  -19.4969 C   0  0  0  0  0  0  0  0  0  0  0  0
   21.5920  -15.9227  -18.5941 O   0  0  0  0  0  0  0  0  0  0  0  0
   22.8317  -13.9771  -19.3002 C   0  0  0  0  0  0  0  0  0  0  0  0
   22.5086  -13.1386  -18.1129 C   0  0  0  0  0  0  0  0  0  0  0  0
   22.2503  -11.6977  -18.3767 C   0  0  2  0  0  0  0  0  0  0  0  0
   22.8666  -11.2053  -19.5835 N   0  0  0  0  0  0  0  0  0  0  0  0
   22.7006  -10.9344  -17.1741 C   0  0  0  0  0  0  0  0  0  0  0  0
   22.3024  -11.3063  -16.0418 O   0  0  0  0  0  0  0  0  0  0  0  0
   26.9283  -10.2014  -15.1160 N   0  0  0  0  0  0  0  0  0  0  0  0
   26.3526   -9.5454  -16.2349 C   0  0  0  0  0  0  0  0  0  0  0  0
   26.7641   -9.8928  -17.3721 O   0  0  0  0  0  0  0  0  0  0  0  0
   25.3281   -8.5079  -16.1556 C   0  0  0  0  0  0  0  0  0  0  0  0
   23.9278   -9.0099  -16.1007 C   0  0  2  0  0  0  0  0  0  0  0  0
   23.5606   -9.8043  -17.2510 N   0  0  0  0  0  0  0  0  0  0  0  0
   22.9340   -7.9386  -15.8286 C   0  0  0  0  0  0  0  0  0  0  0  0
   22.4169   -7.3066  -16.7849 O   0  0  0  0  0  0  0  0  0  0  0  0
   22.5292   -7.5834  -14.5199 N   0  0  0  0  0  0  0  0  0  0  0  0
   21.4782   -6.5488  -14.3263 C   0  0  1  0  0  0  0  0  0  0  0  0
   20.4361   -7.0773  -13.3915 C   0  0  0  0  0  0  0  0  0  0  0  0
   19.3614   -7.8025  -14.1403 C   0  0  0  0  0  0  0  0  0  0  0  0
   18.2478   -8.2645  -13.2012 C   0  0  0  0  0  0  0  0  0  0  0  0
   17.0790   -8.8026  -13.9557 C   0  0  0  0  0  0  0  0  0  0  0  0
   16.0569   -9.3767  -13.1069 N   0  0  0  0  0  0  0  0  0  0  0  0
   22.0865   -5.2988  -13.8945 C   0  0  0  0  0  0  0  0  0  0  0  0
   23.2027   -5.3417  -13.2725 O   0  0  0  0  0  0  0  0  0  0  0  0
   21.5786   -4.0366  -14.0909 O   0  0  0  0  0  0  0  0  0  0  0  0
  2  1  1  0
  3  2  2  0
  4  2  1  0
  5  4  1  0
  6  5  1  0
  6  7  1  6
  8  9  2  0
  8  6  1  0
 10 11  1  0
 11 13  1  0
 12 11  2  0
 14 13  1  6
 14 15  1  0
 15  8  1  0
 16 14  1  0
 16 18  1  0
 17 16  2  0
 18 19  1  0
 19 25  1  0
 20 21  1  0
 19 20  1  1
 22 21  1  0
 23 22  1  0
 24 23  1  0
 25 26  2  0
 25 27  1  0
M  END
$$$$
