LSM.pdb
     RDKit          3D

 23 22  0  0  1  0  0  0  0  0999 V2000
   19.4677  -18.8464  -14.2560 C   0  0  0  0  0  0  0  0  0  0  0  0
   20.0362  -20.2032  -14.4854 C   0  0  2  0  0  0  0  0  0  0  0  0
   18.8973  -21.1863  -14.7900 C   0  0  0  0  0  0  0  0  0  0  0  0
   20.8187  -20.7931  -13.3704 C   0  0  0  0  0  0  0  0  0  0  0  0
   22.0025  -20.0288  -12.8754 C   0  0  2  0  0  0  0  0  0  0  0  0
   22.6368  -19.5234  -14.1281 N   0  0  0  0  0  0  0  0  0  0  0  0
   22.9462  -20.8478  -12.1363 C   0  0  0  0  0  0  0  0  0  0  0  0
   22.5813  -21.8378  -11.4251 O   0  0  0  0  0  0  0  0  0  0  0  0
   26.8473  -21.0130  -13.2050 O   0  0  0  0  0  0  0  0  0  0  0  0
   26.2270  -22.0455  -12.5430 C   0  0  0  0  0  0  0  0  0  0  0  0
   25.2838  -21.5229  -11.4491 C   0  0  2  0  0  0  0  0  0  0  0  0
   24.3618  -20.6281  -12.1326 N   0  0  0  0  0  0  0  0  0  0  0  0
   26.0396  -20.7077  -10.4639 C   0  0  0  0  0  0  0  0  0  0  0  0
   25.9897  -19.4437  -10.4418 O   0  0  0  0  0  0  0  0  0  0  0  0
   26.8742  -19.3770   -4.6154 C   0  0  0  0  0  0  0  0  0  0  0  0
   28.5451  -19.9544   -4.8890 S   0  0  0  0  0  0  0  0  0  0  0  0
   28.9899  -19.9303   -6.6729 C   0  0  0  0  0  0  0  0  0  0  0  0
   27.8735  -20.5800   -7.4057 C   0  0  0  0  0  0  0  0  0  0  0  0
   28.0098  -20.6013   -8.8935 C   0  0  2  0  0  0  0  0  0  0  0  0
   26.8801  -21.3049   -9.4677 N   0  0  0  0  0  0  0  0  0  0  0  0
   29.2449  -21.1882   -9.3938 C   0  0  0  0  0  0  0  0  0  0  0  0
   30.4891  -20.5714   -9.3829 O   0  0  0  0  0  0  0  0  0  0  0  0
   29.2189  -22.3447   -9.8816 O   0  0  0  0  0  0  0  0  0  0  0  0
  2  1  1  1
  2  3  1  0
  4  2  1  0
  5  4  1  0
  5  6  1  6
  7  5  1  0
  8  7  2  0
  9 10  1  0
 11 10  1  6
 11 12  1  0
 12  7  1  0
 13 11  1  0
 13 20  1  0
 14 13  2  0
 16 17  1  0
 16 15  1  0
 19 18  1  1
 18 17  1  0
 19 21  1  0
 20 19  1  0
 21 23  2  0
 21 22  1  0
M  END
$$$$
