LSM.pdb
     RDKit          3D

 23 22  0  0  1  0  0  0  0  0999 V2000
   21.8099  -12.3338  -17.1160 C   0  0  0  0  0  0  0  0  0  0  0  0
   20.7224  -11.7107  -17.9195 C   0  0  2  0  0  0  0  0  0  0  0  0
   21.1777  -11.5857  -19.3801 C   0  0  0  0  0  0  0  0  0  0  0  0
   20.2749  -10.3597  -17.4977 C   0  0  0  0  0  0  0  0  0  0  0  0
   19.8354  -10.1872  -16.0808 C   0  0  2  0  0  0  0  0  0  0  0  0
   18.5479  -10.9397  -16.0235 N   0  0  0  0  0  0  0  0  0  0  0  0
   19.6168   -8.8000  -15.7126 C   0  0  0  0  0  0  0  0  0  0  0  0
   18.6725   -8.1032  -16.2042 O   0  0  0  0  0  0  0  0  0  0  0  0
   22.2333   -6.9055  -13.1838 O   0  0  0  0  0  0  0  0  0  0  0  0
   20.9463   -6.4238  -13.1527 C   0  0  0  0  0  0  0  0  0  0  0  0
   20.2222   -6.6750  -14.4838 C   0  0  2  0  0  0  0  0  0  0  0  0
   20.4293   -8.0861  -14.7732 N   0  0  0  0  0  0  0  0  0  0  0  0
   20.8685   -5.9022  -15.5754 C   0  0  0  0  0  0  0  0  0  0  0  0
   21.7086   -6.4149  -16.3703 O   0  0  0  0  0  0  0  0  0  0  0  0
   21.3302   -4.9077  -21.6666 C   0  0  0  0  0  0  0  0  0  0  0  0
   20.3092   -3.7309  -20.7875 S   0  0  0  0  0  0  0  0  0  0  0  0
   21.1273   -3.1324  -19.2536 C   0  0  0  0  0  0  0  0  0  0  0  0
   20.5984   -3.9517  -18.1335 C   0  0  0  0  0  0  0  0  0  0  0  0
   21.2681   -3.7425  -16.8143 C   0  0  2  0  0  0  0  0  0  0  0  0
   20.5797   -4.5159  -15.8000 N   0  0  0  0  0  0  0  0  0  0  0  0
   21.3604   -2.3559  -16.3796 C   0  0  0  0  0  0  0  0  0  0  0  0
   20.6373   -1.7914  -15.3368 O   0  0  0  0  0  0  0  0  0  0  0  0
   22.1478   -1.5796  -16.9740 O   0  0  0  0  0  0  0  0  0  0  0  0
  2  1  1  1
  2  3  1  0
  4  2  1  0
  5  4  1  0
  5  6  1  6
  7  5  1  0
  8  7  2  0
  9 10  1  0
 11 10  1  1
 11 12  1  0
 12  7  1  0
 13 11  1  0
 13 20  1  0
 14 13  2  0
 16 17  1  0
 16 15  1  0
 19 18  1  6
 18 17  1  0
 19 21  1  0
 20 19  1  0
 21 23  2  0
 21 22  1  0
M  END
$$$$
