LSM.pdb
     RDKit          3D

 23 22  0  0  1  0  0  0  0  0999 V2000
   15.2478  -13.8166  -14.6024 C   0  0  0  0  0  0  0  0  0  0  0  0
   16.6522  -14.2399  -14.8579 C   0  0  2  0  0  0  0  0  0  0  0  0
   17.2541  -14.8095  -13.5659 C   0  0  0  0  0  0  0  0  0  0  0  0
   17.5868  -13.1895  -15.3341 C   0  0  0  0  0  0  0  0  0  0  0  0
   17.2904  -12.5430  -16.6473 C   0  0  2  0  0  0  0  0  0  0  0  0
   17.5184  -13.6403  -17.6328 N   0  0  0  0  0  0  0  0  0  0  0  0
   18.1616  -11.4202  -16.9438 C   0  0  0  0  0  0  0  0  0  0  0  0
   19.3542  -11.5720  -17.3607 O   0  0  0  0  0  0  0  0  0  0  0  0
   17.1537   -7.5588  -15.9194 O   0  0  0  0  0  0  0  0  0  0  0  0
   17.7564   -7.6961  -17.1471 C   0  0  0  0  0  0  0  0  0  0  0  0
   18.6407   -8.9509  -17.1995 C   0  0  2  0  0  0  0  0  0  0  0  0
   17.7733  -10.0489  -16.7993 N   0  0  0  0  0  0  0  0  0  0  0  0
   19.7270   -8.8578  -16.1907 C   0  0  0  0  0  0  0  0  0  0  0  0
   19.6057   -9.3045  -15.0132 O   0  0  0  0  0  0  0  0  0  0  0  0
   27.0660  -10.6286  -15.1899 C   0  0  0  0  0  0  0  0  0  0  0  0
   25.5982  -10.3013  -16.1587 S   0  0  0  0  0  0  0  0  0  0  0  0
   24.3914   -9.2648  -15.2368 C   0  0  0  0  0  0  0  0  0  0  0  0
   23.1698   -9.1734  -16.0763 C   0  0  0  0  0  0  0  0  0  0  0  0
   22.0959   -8.2776  -15.5500 C   0  0  2  0  0  0  0  0  0  0  0  0
   20.9917   -8.2516  -16.4885 N   0  0  0  0  0  0  0  0  0  0  0  0
   22.5136   -6.9126  -15.2629 C   0  0  0  0  0  0  0  0  0  0  0  0
   23.1748   -6.5000  -14.1134 O   0  0  0  0  0  0  0  0  0  0  0  0
   22.2721   -6.0099  -16.1013 O   0  0  0  0  0  0  0  0  0  0  0  0
  2  1  1  1
  2  3  1  0
  4  2  1  0
  5  4  1  0
  5  6  1  6
  7  5  1  0
  8  7  2  0
  9 10  1  0
 11 10  1  1
 11 12  1  0
 12  7  1  0
 13 11  1  0
 13 20  1  0
 14 13  2  0
 16 17  1  0
 16 15  1  0
 19 18  1  6
 18 17  1  0
 19 21  1  0
 20 19  1  0
 21 23  2  0
 21 22  1  0
M  END
$$$$
