LSM.pdb
     RDKit          3D

 23 22  0  0  1  0  0  0  0  0999 V2000
   17.1128  -11.1403  -19.3934 C   0  0  0  0  0  0  0  0  0  0  0  0
   16.5903  -11.4922  -18.0444 C   0  0  2  0  0  0  0  0  0  0  0  0
   15.2114  -10.8466  -17.8494 C   0  0  0  0  0  0  0  0  0  0  0  0
   17.4188  -11.0819  -16.8831 C   0  0  0  0  0  0  0  0  0  0  0  0
   18.8587  -11.4782  -16.8856 C   0  0  2  0  0  0  0  0  0  0  0  0
   18.8199  -12.9266  -16.5280 N   0  0  0  0  0  0  0  0  0  0  0  0
   19.6564  -10.7486  -15.9166 C   0  0  0  0  0  0  0  0  0  0  0  0
   19.4466  -10.8233  -14.6638 O   0  0  0  0  0  0  0  0  0  0  0  0
   23.7998   -8.9450  -14.5833 O   0  0  0  0  0  0  0  0  0  0  0  0
   22.9529   -9.6264  -15.4246 C   0  0  0  0  0  0  0  0  0  0  0  0
   21.5021   -9.1474  -15.2667 C   0  0  2  0  0  0  0  0  0  0  0  0
   20.7436   -9.8840  -16.2668 N   0  0  0  0  0  0  0  0  0  0  0  0
   21.3959   -7.7055  -15.6075 C   0  0  0  0  0  0  0  0  0  0  0  0
   21.4375   -7.2803  -16.7984 O   0  0  0  0  0  0  0  0  0  0  0  0
   17.5098   -1.3487  -15.9166 C   0  0  0  0  0  0  0  0  0  0  0  0
   17.8533   -3.0365  -15.4333 S   0  0  0  0  0  0  0  0  0  0  0  0
   19.6603   -3.3604  -15.3302 C   0  0  0  0  0  0  0  0  0  0  0  0
   19.8253   -4.8156  -15.0837 C   0  0  0  0  0  0  0  0  0  0  0  0
   21.2357   -5.2831  -14.9257 C   0  0  2  0  0  0  0  0  0  0  0  0
   21.2383   -6.6959  -14.6019 N   0  0  0  0  0  0  0  0  0  0  0  0
   22.0195   -4.5621  -13.9327 C   0  0  0  0  0  0  0  0  0  0  0  0
   22.4285   -3.2391  -14.0387 O   0  0  0  0  0  0  0  0  0  0  0  0
   22.3714   -5.1545  -12.8834 O   0  0  0  0  0  0  0  0  0  0  0  0
  2  1  1  6
  2  3  1  0
  4  2  1  0
  5  4  1  0
  5  6  1  1
  7  5  1  0
  8  7  2  0
  9 10  1  0
 11 10  1  6
 11 12  1  0
 12  7  1  0
 13 11  1  0
 13 20  1  0
 14 13  2  0
 16 17  1  0
 16 15  1  0
 19 18  1  1
 18 17  1  0
 19 21  1  0
 20 19  1  0
 21 23  2  0
 21 22  1  0
M  END
$$$$
