LSM.pdb
     RDKit          3D

 23 22  0  0  1  0  0  0  0  0999 V2000
   17.4190  -22.7669  -10.3340 C   0  0  0  0  0  0  0  0  0  0  0  0
   17.7611  -23.8885  -11.2514 C   0  0  2  0  0  0  0  0  0  0  0  0
   17.8742  -25.1890  -10.4438 C   0  0  0  0  0  0  0  0  0  0  0  0
   19.0235  -23.7561  -12.0211 C   0  0  0  0  0  0  0  0  0  0  0  0
   19.2269  -22.5023  -12.8067 C   0  0  2  0  0  0  0  0  0  0  0  0
   18.2760  -22.6503  -13.9473 N   0  0  0  0  0  0  0  0  0  0  0  0
   20.5818  -22.3514  -13.3059 C   0  0  0  0  0  0  0  0  0  0  0  0
   21.2199  -23.3080  -13.8505 O   0  0  0  0  0  0  0  0  0  0  0  0
   22.1817  -18.6158  -14.0200 O   0  0  0  0  0  0  0  0  0  0  0  0
   22.4969  -19.7291  -14.7620 C   0  0  0  0  0  0  0  0  0  0  0  0
   22.6256  -20.9758  -13.8741 C   0  0  2  0  0  0  0  0  0  0  0  0
   21.3261  -21.1293  -13.2371 N   0  0  0  0  0  0  0  0  0  0  0  0
   23.6193  -20.7394  -12.7956 C   0  0  0  0  0  0  0  0  0  0  0  0
   23.2920  -20.3379  -11.6413 O   0  0  0  0  0  0  0  0  0  0  0  0
   27.5953  -19.4765   -7.5056 C   0  0  0  0  0  0  0  0  0  0  0  0
   26.3684  -19.7971   -8.7674 S   0  0  0  0  0  0  0  0  0  0  0  0
   26.7026  -21.3710   -9.6573 C   0  0  0  0  0  0  0  0  0  0  0  0
   25.7029  -21.4700  -10.7510 C   0  0  0  0  0  0  0  0  0  0  0  0
   25.9990  -20.6522  -11.9661 C   0  0  2  0  0  0  0  0  0  0  0  0
   25.0231  -20.9526  -12.9947 N   0  0  0  0  0  0  0  0  0  0  0  0
   27.3384  -20.8181  -12.5127 C   0  0  0  0  0  0  0  0  0  0  0  0
   28.4633  -20.1099  -12.1104 O   0  0  0  0  0  0  0  0  0  0  0  0
   27.5274  -21.6614  -13.4233 O   0  0  0  0  0  0  0  0  0  0  0  0
  2  1  1  1
  2  3  1  0
  4  2  1  0
  5  4  1  0
  5  6  1  6
  7  5  1  0
  8  7  2  0
  9 10  1  0
 11 10  1  6
 11 12  1  0
 12  7  1  0
 13 11  1  0
 13 20  1  0
 14 13  2  0
 16 17  1  0
 16 15  1  0
 19 18  1  1
 18 17  1  0
 19 21  1  0
 20 19  1  0
 21 23  2  0
 21 22  1  0
M  END
$$$$
