LSM.pdb
     RDKit          3D

 23 22  0  0  1  0  0  0  0  0999 V2000
   14.8322  -10.6291  -16.3987 C   0  0  0  0  0  0  0  0  0  0  0  0
   15.2857  -11.6423  -15.4066 C   0  0  2  0  0  0  0  0  0  0  0  0
   14.0655  -12.3867  -14.8467 C   0  0  0  0  0  0  0  0  0  0  0  0
   16.0455  -11.1338  -14.2371 C   0  0  0  0  0  0  0  0  0  0  0  0
   17.2510  -10.2945  -14.5068 C   0  0  2  0  0  0  0  0  0  0  0  0
   18.3148  -11.2998  -14.7980 N   0  0  0  0  0  0  0  0  0  0  0  0
   17.6415   -9.4711  -13.3767 C   0  0  0  0  0  0  0  0  0  0  0  0
   18.0498   -9.9673  -12.2785 O   0  0  0  0  0  0  0  0  0  0  0  0
   17.9035   -5.3506  -13.6854 O   0  0  0  0  0  0  0  0  0  0  0  0
   18.6713   -6.0072  -12.7533 C   0  0  0  0  0  0  0  0  0  0  0  0
   17.9507   -7.2498  -12.2094 C   0  0  2  0  0  0  0  0  0  0  0  0
   17.6073   -8.0390  -13.3830 N   0  0  0  0  0  0  0  0  0  0  0  0
   16.6766   -6.8600  -11.5528 C   0  0  0  0  0  0  0  0  0  0  0  0
   15.5915   -6.7301  -12.1904 O   0  0  0  0  0  0  0  0  0  0  0  0
   11.7806   -8.4277   -6.0882 C   0  0  0  0  0  0  0  0  0  0  0  0
   13.4844   -8.0729   -6.5020 S   0  0  0  0  0  0  0  0  0  0  0  0
   13.6164   -7.0527   -8.0259 C   0  0  0  0  0  0  0  0  0  0  0  0
   15.0641   -6.8958   -8.3172 C   0  0  0  0  0  0  0  0  0  0  0  0
   15.3899   -6.0830   -9.5280 C   0  0  2  0  0  0  0  0  0  0  0  0
   16.5938   -6.6040  -10.1445 N   0  0  0  0  0  0  0  0  0  0  0  0
   15.5520   -4.6556   -9.2903 C   0  0  0  0  0  0  0  0  0  0  0  0
   16.7460   -3.9542   -9.3972 O   0  0  0  0  0  0  0  0  0  0  0  0
   14.5515   -3.9730   -8.9602 O   0  0  0  0  0  0  0  0  0  0  0  0
  2  1  1  6
  2  3  1  0
  4  2  1  0
  5  4  1  0
  5  6  1  1
  7  5  1  0
  8  7  2  0
  9 10  1  0
 11 10  1  6
 11 12  1  0
 12  7  1  0
 13 11  1  0
 13 20  1  0
 14 13  2  0
 16 17  1  0
 16 15  1  0
 19 18  1  1
 18 17  1  0
 19 21  1  0
 20 19  1  0
 21 23  2  0
 21 22  1  0
M  END
$$$$
