LSM.pdb
     RDKit          3D

 23 22  0  0  1  0  0  0  0  0999 V2000
   25.2566  -15.5809  -15.2603 C   0  0  0  0  0  0  0  0  0  0  0  0
   25.9068  -14.5537  -16.1198 C   0  0  2  0  0  0  0  0  0  0  0  0
   27.2137  -14.0923  -15.4597 C   0  0  0  0  0  0  0  0  0  0  0  0
   25.1186  -13.3279  -16.4022 C   0  0  0  0  0  0  0  0  0  0  0  0
   23.7501  -13.5015  -16.9745 C   0  0  2  0  0  0  0  0  0  0  0  0
   24.0081  -14.1240  -18.3061 N   0  0  0  0  0  0  0  0  0  0  0  0
   23.0349  -12.2492  -17.1417 C   0  0  0  0  0  0  0  0  0  0  0  0
   23.3664  -11.3842  -18.0139 O   0  0  0  0  0  0  0  0  0  0  0  0
   19.7293  -11.4140  -14.8330 O   0  0  0  0  0  0  0  0  0  0  0  0
   19.7247  -10.9361  -16.1218 C   0  0  0  0  0  0  0  0  0  0  0  0
   21.1497  -10.6482  -16.6174 C   0  0  2  0  0  0  0  0  0  0  0  0
   21.9013  -11.8663  -16.3541 N   0  0  0  0  0  0  0  0  0  0  0  0
   21.7674   -9.5663  -15.8084 C   0  0  0  0  0  0  0  0  0  0  0  0
   22.4530   -9.7963  -14.7702 O   0  0  0  0  0  0  0  0  0  0  0  0
   25.3757   -5.2615  -18.2262 C   0  0  0  0  0  0  0  0  0  0  0  0
   24.5169   -4.1490  -17.1194 S   0  0  0  0  0  0  0  0  0  0  0  0
   23.6805   -5.0564  -15.7565 C   0  0  0  0  0  0  0  0  0  0  0  0
   22.9806   -6.2124  -16.3723 C   0  0  0  0  0  0  0  0  0  0  0  0
   22.2969   -7.1326  -15.4139 C   0  0  2  0  0  0  0  0  0  0  0  0
   21.6254   -8.1822  -16.1543 N   0  0  0  0  0  0  0  0  0  0  0  0
   21.3448   -6.4950  -14.5155 C   0  0  0  0  0  0  0  0  0  0  0  0
   21.6722   -5.8141  -13.3502 O   0  0  0  0  0  0  0  0  0  0  0  0
   20.1200   -6.5457  -14.7862 O   0  0  0  0  0  0  0  0  0  0  0  0
  2  1  1  1
  2  3  1  0
  4  2  1  0
  5  4  1  0
  5  6  1  6
  7  5  1  0
  8  7  2  0
  9 10  1  0
 11 10  1  1
 11 12  1  0
 12  7  1  0
 13 11  1  0
 13 20  1  0
 14 13  2  0
 16 17  1  0
 16 15  1  0
 19 18  1  6
 18 17  1  0
 19 21  1  0
 20 19  1  0
 21 23  2  0
 21 22  1  0
M  END
$$$$
