LSM.pdb
     RDKit          3D

 23 22  0  0  1  0  0  0  0  0999 V2000
   27.0890  -13.8406  -16.3047 C   0  0  0  0  0  0  0  0  0  0  0  0
   27.4909  -12.4306  -16.5635 C   0  0  2  0  0  0  0  0  0  0  0  0
   28.9435  -12.2253  -16.1115 C   0  0  0  0  0  0  0  0  0  0  0  0
   26.6861  -11.3768  -15.8961 C   0  0  0  0  0  0  0  0  0  0  0  0
   25.2199  -11.3434  -16.1777 C   0  0  2  0  0  0  0  0  0  0  0  0
   25.1538  -11.3290  -17.6686 N   0  0  0  0  0  0  0  0  0  0  0  0
   24.5589  -10.1679  -15.6399 C   0  0  0  0  0  0  0  0  0  0  0  0
   24.5934   -9.8704  -14.4033 O   0  0  0  0  0  0  0  0  0  0  0  0
   22.7570   -7.4151  -18.1379 O   0  0  0  0  0  0  0  0  0  0  0  0
   23.2739   -6.9781  -16.9417 C   0  0  0  0  0  0  0  0  0  0  0  0
   23.1752   -8.0633  -15.8592 C   0  0  2  0  0  0  0  0  0  0  0  0
   23.8126   -9.2384  -16.4344 N   0  0  0  0  0  0  0  0  0  0  0  0
   21.7533   -8.4122  -15.6080 C   0  0  0  0  0  0  0  0  0  0  0  0
   21.1169   -9.2403  -16.3221 O   0  0  0  0  0  0  0  0  0  0  0  0
   16.1886  -10.1867  -10.6051 C   0  0  0  0  0  0  0  0  0  0  0  0
   17.8533   -9.7162  -11.0608 S   0  0  0  0  0  0  0  0  0  0  0  0
   17.8973   -8.8591  -12.6869 C   0  0  0  0  0  0  0  0  0  0  0  0
   19.3275   -8.7040  -13.0554 C   0  0  0  0  0  0  0  0  0  0  0  0
   19.5822   -8.0540  -14.3765 C   0  0  2  0  0  0  0  0  0  0  0  0
   21.0055   -7.8290  -14.5328 N   0  0  0  0  0  0  0  0  0  0  0  0
   18.8717   -6.8024  -14.5980 C   0  0  0  0  0  0  0  0  0  0  0  0
   19.4287   -5.5341  -14.4975 O   0  0  0  0  0  0  0  0  0  0  0  0
   17.6553   -6.8359  -14.9065 O   0  0  0  0  0  0  0  0  0  0  0  0
  2  1  1  1
  2  3  1  0
  4  2  1  0
  5  4  1  0
  5  6  1  6
  7  5  1  0
  8  7  2  0
  9 10  1  0
 11 10  1  6
 11 12  1  0
 12  7  1  0
 13 11  1  0
 13 20  1  0
 14 13  2  0
 16 17  1  0
 16 15  1  0
 19 18  1  1
 18 17  1  0
 19 21  1  0
 20 19  1  0
 21 23  2  0
 21 22  1  0
M  END
$$$$
