LSM.pdb
     RDKit          3D

 23 22  0  0  1  0  0  0  0  0999 V2000
   24.1022  -16.6563  -17.1521 C   0  0  0  0  0  0  0  0  0  0  0  0
   23.1177  -16.1004  -16.1834 C   0  0  2  0  0  0  0  0  0  0  0  0
   23.6348  -14.7581  -15.6475 C   0  0  0  0  0  0  0  0  0  0  0  0
   22.8055  -16.9382  -14.9984 C   0  0  0  0  0  0  0  0  0  0  0  0
   22.4545  -18.3702  -15.2363 C   0  0  2  0  0  0  0  0  0  0  0  0
   20.9748  -18.3368  -15.4277 N   0  0  0  0  0  0  0  0  0  0  0  0
   22.7917  -19.2366  -14.1213 C   0  0  0  0  0  0  0  0  0  0  0  0
   22.1647  -19.2016  -13.0147 O   0  0  0  0  0  0  0  0  0  0  0  0
   25.7116  -22.2397  -14.4129 O   0  0  0  0  0  0  0  0  0  0  0  0
   24.6043  -22.3929  -13.6130 C   0  0  0  0  0  0  0  0  0  0  0  0
   24.1579  -21.0518  -13.0119 C   0  0  2  0  0  0  0  0  0  0  0  0
   23.8481  -20.2037  -14.1532 N   0  0  0  0  0  0  0  0  0  0  0  0
   25.2838  -20.4143  -12.2823 C   0  0  0  0  0  0  0  0  0  0  0  0
   25.9763  -19.4786  -12.7781 O   0  0  0  0  0  0  0  0  0  0  0  0
   26.8898  -18.9441   -5.8456 C   0  0  0  0  0  0  0  0  0  0  0  0
   27.7626  -20.4115   -6.3797 S   0  0  0  0  0  0  0  0  0  0  0  0
   28.1468  -20.3584   -8.1769 C   0  0  0  0  0  0  0  0  0  0  0  0
   26.8670  -20.5728   -8.8992 C   0  0  0  0  0  0  0  0  0  0  0  0
   26.9473  -20.4762  -10.3881 C   0  0  2  0  0  0  0  0  0  0  0  0
   25.6610  -20.8210  -10.9602 N   0  0  0  0  0  0  0  0  0  0  0  0
   27.9818  -21.2931  -11.0068 C   0  0  0  0  0  0  0  0  0  0  0  0
   29.3010  -20.9056  -11.2026 O   0  0  0  0  0  0  0  0  0  0  0  0
   27.6919  -22.4469  -11.4075 O   0  0  0  0  0  0  0  0  0  0  0  0
  2  1  1  6
  2  3  1  0
  4  2  1  0
  5  4  1  0
  5  6  1  1
  7  5  1  0
  8  7  2  0
  9 10  1  0
 11 10  1  6
 11 12  1  0
 12  7  1  0
 13 11  1  0
 13 20  1  0
 14 13  2  0
 16 17  1  0
 16 15  1  0
 19 18  1  1
 18 17  1  0
 19 21  1  0
 20 19  1  0
 21 23  2  0
 21 22  1  0
M  END
$$$$
