LSM.pdb
     RDKit          3D

 23 22  0  0  1  0  0  0  0  0999 V2000
   13.4327   -7.7009  -16.1843 C   0  0  0  0  0  0  0  0  0  0  0  0
   13.9554   -8.6504  -15.1636 C   0  0  2  0  0  0  0  0  0  0  0  0
   12.7871   -9.4444  -14.5628 C   0  0  0  0  0  0  0  0  0  0  0  0
   14.6965   -8.0575  -14.0221 C   0  0  0  0  0  0  0  0  0  0  0  0
   15.8268   -7.1332  -14.3360 C   0  0  2  0  0  0  0  0  0  0  0  0
   16.9608   -8.0590  -14.6263 N   0  0  0  0  0  0  0  0  0  0  0  0
   16.1728   -6.2545  -13.2333 C   0  0  0  0  0  0  0  0  0  0  0  0
   16.8991   -6.6333  -12.2597 O   0  0  0  0  0  0  0  0  0  0  0  0
   17.0609   -1.8199  -11.7680 O   0  0  0  0  0  0  0  0  0  0  0  0
   16.7224   -2.7712  -12.7005 C   0  0  0  0  0  0  0  0  0  0  0  0
   16.1467   -4.0293  -12.0334 C   0  0  2  0  0  0  0  0  0  0  0  0
   15.7384   -4.8933  -13.1310 N   0  0  0  0  0  0  0  0  0  0  0  0
   14.9235   -3.6892  -11.2623 C   0  0  0  0  0  0  0  0  0  0  0  0
   13.7811   -3.5990  -11.7986 O   0  0  0  0  0  0  0  0  0  0  0  0
   11.3644   -4.2100   -4.3097 C   0  0  0  0  0  0  0  0  0  0  0  0
   12.7597   -4.4269   -5.4081 S   0  0  0  0  0  0  0  0  0  0  0  0
   12.6056   -3.3881   -6.9173 C   0  0  0  0  0  0  0  0  0  0  0  0
   13.7197   -3.7712   -7.8214 C   0  0  0  0  0  0  0  0  0  0  0  0
   13.7814   -3.0249   -9.1145 C   0  0  2  0  0  0  0  0  0  0  0  0
   14.9589   -3.4397   -9.8509 N   0  0  0  0  0  0  0  0  0  0  0  0
   13.7784   -1.5738   -8.9927 C   0  0  0  0  0  0  0  0  0  0  0  0
   12.6648   -0.7941   -8.7089 O   0  0  0  0  0  0  0  0  0  0  0  0
   14.8530   -0.9445   -9.1513 O   0  0  0  0  0  0  0  0  0  0  0  0
  2  1  1  6
  2  3  1  0
  4  2  1  0
  5  4  1  0
  5  6  1  1
  7  5  1  0
  8  7  2  0
  9 10  1  0
 11 10  1  6
 11 12  1  0
 12  7  1  0
 13 11  1  0
 13 20  1  0
 14 13  2  0
 16 17  1  0
 16 15  1  0
 19 18  1  1
 18 17  1  0
 19 21  1  0
 20 19  1  0
 21 23  2  0
 21 22  1  0
M  END
$$$$
