LSM.pdb
     RDKit          3D

 23 22  0  0  1  0  0  0  0  0999 V2000
   19.9723  -21.4688  -11.9418 C   0  0  0  0  0  0  0  0  0  0  0  0
   18.4952  -21.3529  -12.0878 C   0  0  2  0  0  0  0  0  0  0  0  0
   18.0674  -19.9084  -11.7932 C   0  0  0  0  0  0  0  0  0  0  0  0
   17.6706  -22.2258  -11.2151 C   0  0  0  0  0  0  0  0  0  0  0  0
   17.9371  -23.6947  -11.2553 C   0  0  2  0  0  0  0  0  0  0  0  0
   17.4161  -24.1047  -12.5924 N   0  0  0  0  0  0  0  0  0  0  0  0
   17.2521  -24.4311  -10.2083 C   0  0  0  0  0  0  0  0  0  0  0  0
   15.9911  -24.3768  -10.0476 O   0  0  0  0  0  0  0  0  0  0  0  0
   19.3882  -26.8188   -7.6772 O   0  0  0  0  0  0  0  0  0  0  0  0
   18.0899  -27.2152   -7.8928 C   0  0  0  0  0  0  0  0  0  0  0  0
   17.1905  -26.0204   -8.2429 C   0  0  2  0  0  0  0  0  0  0  0  0
   17.9159  -25.2801   -9.2645 N   0  0  0  0  0  0  0  0  0  0  0  0
   17.0460  -25.1230   -7.0681 C   0  0  0  0  0  0  0  0  0  0  0  0
   17.8174  -24.1422   -6.8588 O   0  0  0  0  0  0  0  0  0  0  0  0
   12.2875  -21.1758   -2.4501 C   0  0  0  0  0  0  0  0  0  0  0  0
   12.6938  -22.2446   -3.8259 S   0  0  0  0  0  0  0  0  0  0  0  0
   14.3322  -23.0484   -3.6023 C   0  0  0  0  0  0  0  0  0  0  0  0
   14.6040  -23.8268   -4.8375 C   0  0  0  0  0  0  0  0  0  0  0  0
   15.9371  -24.4999   -4.8908 C   0  0  2  0  0  0  0  0  0  0  0  0
   16.0159  -25.3117   -6.0889 N   0  0  0  0  0  0  0  0  0  0  0  0
   16.2630  -25.3207   -3.7330 C   0  0  0  0  0  0  0  0  0  0  0  0
   16.6319  -24.8374   -2.4843 O   0  0  0  0  0  0  0  0  0  0  0  0
   16.2170  -26.5709   -3.8371 O   0  0  0  0  0  0  0  0  0  0  0  0
  2  1  1  1
  2  3  1  0
  4  2  1  0
  5  4  1  0
  5  6  1  6
  7  5  1  0
  8  7  2  0
  9 10  1  0
 11 10  1  1
 11 12  1  0
 12  7  1  0
 13 11  1  0
 13 20  1  0
 14 13  2  0
 16 17  1  0
 16 15  1  0
 19 18  1  1
 18 17  1  0
 19 21  1  0
 20 19  1  0
 21 23  2  0
 21 22  1  0
M  END
$$$$
