LSM.pdb
     RDKit          3D

 23 22  0  0  1  0  0  0  0  0999 V2000
   16.7556   -9.1898  -19.5770 C   0  0  0  0  0  0  0  0  0  0  0  0
   15.9202   -9.1752  -18.3447 C   0  0  2  0  0  0  0  0  0  0  0  0
   14.6333   -8.3824  -18.6127 C   0  0  0  0  0  0  0  0  0  0  0  0
   16.5371   -8.5845  -17.1305 C   0  0  0  0  0  0  0  0  0  0  0  0
   17.9086   -9.0433  -16.7580 C   0  0  2  0  0  0  0  0  0  0  0  0
   17.6577  -10.3016  -15.9958 N   0  0  0  0  0  0  0  0  0  0  0  0
   18.6253   -8.0934  -15.9263 C   0  0  0  0  0  0  0  0  0  0  0  0
   18.2289   -7.7698  -14.7614 O   0  0  0  0  0  0  0  0  0  0  0  0
   22.5595   -7.4874  -16.3689 O   0  0  0  0  0  0  0  0  0  0  0  0
   21.9097   -7.2140  -15.1890 C   0  0  0  0  0  0  0  0  0  0  0  0
   20.5554   -6.5343  -15.4401 C   0  0  2  0  0  0  0  0  0  0  0  0
   19.8326   -7.4342  -16.3265 N   0  0  0  0  0  0  0  0  0  0  0  0
   20.7486   -5.2563  -16.1722 C   0  0  0  0  0  0  0  0  0  0  0  0
   20.9641   -5.2088  -17.4180 O   0  0  0  0  0  0  0  0  0  0  0  0
   18.4591    2.2191  -16.3395 C   0  0  0  0  0  0  0  0  0  0  0  0
   18.5000    0.5566  -15.6802 S   0  0  0  0  0  0  0  0  0  0  0  0
   19.8860   -0.4223  -16.3881 C   0  0  0  0  0  0  0  0  0  0  0  0
   19.7769   -1.7936  -15.8286 C   0  0  0  0  0  0  0  0  0  0  0  0
   20.8633   -2.7379  -16.2295 C   0  0  2  0  0  0  0  0  0  0  0  0
   20.7028   -3.9857  -15.5097 N   0  0  0  0  0  0  0  0  0  0  0  0
   22.2183   -2.2421  -16.0335 C   0  0  0  0  0  0  0  0  0  0  0  0
   22.9057   -1.4148  -16.9121 O   0  0  0  0  0  0  0  0  0  0  0  0
   22.8454   -2.5696  -14.9965 O   0  0  0  0  0  0  0  0  0  0  0  0
  2  1  1  6
  2  3  1  0
  4  2  1  0
  5  4  1  0
  5  6  1  1
  7  5  1  0
  8  7  2  0
  9 10  1  0
 11 10  1  6
 11 12  1  0
 12  7  1  0
 13 11  1  0
 13 20  1  0
 14 13  2  0
 16 17  1  0
 16 15  1  0
 19 18  1  1
 18 17  1  0
 19 21  1  0
 20 19  1  0
 21 23  2  0
 21 22  1  0
M  END
$$$$
