LSM.pdb
     RDKit          3D

 23 22  0  0  1  0  0  0  0  0999 V2000
   25.0578  -15.8294  -15.1499 C   0  0  0  0  0  0  0  0  0  0  0  0
   25.7422  -14.8516  -16.0399 C   0  0  2  0  0  0  0  0  0  0  0  0
   27.0771  -14.4358  -15.4065 C   0  0  0  0  0  0  0  0  0  0  0  0
   25.0064  -13.5977  -16.3400 C   0  0  0  0  0  0  0  0  0  0  0  0
   23.6480  -13.7211  -16.9484 C   0  0  2  0  0  0  0  0  0  0  0  0
   23.9153  -14.3757  -18.2626 N   0  0  0  0  0  0  0  0  0  0  0  0
   22.9934  -12.4418  -17.1547 C   0  0  0  0  0  0  0  0  0  0  0  0
   23.3788  -11.6117  -18.0386 O   0  0  0  0  0  0  0  0  0  0  0  0
   19.8522  -11.2615  -14.7561 O   0  0  0  0  0  0  0  0  0  0  0  0
   19.7718  -10.9063  -16.0815 C   0  0  0  0  0  0  0  0  0  0  0  0
   21.1669  -10.7523  -16.7055 C   0  0  2  0  0  0  0  0  0  0  0  0
   21.8648  -11.9913  -16.3961 N   0  0  0  0  0  0  0  0  0  0  0  0
   21.9095   -9.6509  -16.0407 C   0  0  0  0  0  0  0  0  0  0  0  0
   22.6040   -9.8274  -14.9980 O   0  0  0  0  0  0  0  0  0  0  0  0
   25.4366   -2.7478  -17.3991 C   0  0  0  0  0  0  0  0  0  0  0  0
   24.3792   -4.1133  -17.8657 S   0  0  0  0  0  0  0  0  0  0  0  0
   23.9236   -5.1476  -16.4154 C   0  0  0  0  0  0  0  0  0  0  0  0
   23.1018   -6.2732  -16.9282 C   0  0  0  0  0  0  0  0  0  0  0  0
   22.6135   -7.2340  -15.8932 C   0  0  2  0  0  0  0  0  0  0  0  0
   21.8870   -8.3076  -16.5414 N   0  0  0  0  0  0  0  0  0  0  0  0
   21.7794   -6.6511  -14.8517 C   0  0  0  0  0  0  0  0  0  0  0  0
   22.2472   -5.9674  -13.7370 O   0  0  0  0  0  0  0  0  0  0  0  0
   20.5314   -6.7566  -14.9369 O   0  0  0  0  0  0  0  0  0  0  0  0
  2  1  1  1
  2  3  1  0
  4  2  1  0
  5  4  1  0
  5  6  1  6
  7  5  1  0
  8  7  2  0
  9 10  1  0
 11 10  1  1
 11 12  1  0
 12  7  1  0
 13 11  1  0
 13 20  1  0
 14 13  2  0
 16 17  1  0
 16 15  1  0
 19 18  1  6
 18 17  1  0
 19 21  1  0
 20 19  1  0
 21 23  2  0
 21 22  1  0
M  END
$$$$
