LSM.pdb
     RDKit          3D

 23 22  0  0  1  0  0  0  0  0999 V2000
   19.5981  -14.7495  -17.5635 C   0  0  0  0  0  0  0  0  0  0  0  0
   18.3122  -14.0120  -17.7019 C   0  0  2  0  0  0  0  0  0  0  0  0
   17.6660  -14.3659  -19.0485 C   0  0  0  0  0  0  0  0  0  0  0  0
   18.3860  -12.5305  -17.6433 C   0  0  0  0  0  0  0  0  0  0  0  0
   18.9980  -11.9157  -16.4275 C   0  0  2  0  0  0  0  0  0  0  0  0
   18.1186  -12.3907  -15.3193 N   0  0  0  0  0  0  0  0  0  0  0  0
   19.0116  -10.4644  -16.4635 C   0  0  0  0  0  0  0  0  0  0  0  0
   19.6329   -9.8089  -17.3598 O   0  0  0  0  0  0  0  0  0  0  0  0
   17.5302   -8.2868  -13.3280 O   0  0  0  0  0  0  0  0  0  0  0  0
   17.3375   -7.6999  -14.5559 C   0  0  0  0  0  0  0  0  0  0  0  0
   18.3784   -8.1829  -15.5769 C   0  0  2  0  0  0  0  0  0  0  0  0
   18.3377   -9.6360  -15.5086 N   0  0  0  0  0  0  0  0  0  0  0  0
   19.7408   -7.7606  -15.1622 C   0  0  0  0  0  0  0  0  0  0  0  0
   20.5188   -8.5123  -14.5061 O   0  0  0  0  0  0  0  0  0  0  0  0
   26.5430   -5.5849  -17.4980 C   0  0  0  0  0  0  0  0  0  0  0  0
   24.8081   -5.9947  -17.6468 S   0  0  0  0  0  0  0  0  0  0  0  0
   23.9119   -5.7474  -16.0605 C   0  0  0  0  0  0  0  0  0  0  0  0
   22.5162   -6.2067  -16.2763 C   0  0  0  0  0  0  0  0  0  0  0  0
   21.6054   -6.0641  -15.1003 C   0  0  2  0  0  0  0  0  0  0  0  0
   20.2657   -6.4650  -15.4810 N   0  0  0  0  0  0  0  0  0  0  0  0
   21.5585   -4.7333  -14.5112 C   0  0  0  0  0  0  0  0  0  0  0  0
   22.4828   -4.2210  -13.6101 O   0  0  0  0  0  0  0  0  0  0  0  0
   20.6195   -3.9599  -14.8211 O   0  0  0  0  0  0  0  0  0  0  0  0
  2  1  1  6
  2  3  1  0
  4  2  1  0
  5  4  1  0
  5  6  1  1
  7  5  1  0
  8  7  2  0
  9 10  1  0
 11 10  1  1
 11 12  1  0
 12  7  1  0
 13 11  1  0
 13 20  1  0
 14 13  2  0
 16 17  1  0
 16 15  1  0
 19 18  1  6
 18 17  1  0
 19 21  1  0
 20 19  1  0
 21 23  2  0
 21 22  1  0
M  END
$$$$
