IIV.pdb
     RDKit          3D

 24 23  0  0  1  0  0  0  0  0999 V2000
   25.7173  -24.8773  -17.5333 C   0  0  0  0  0  0  0  0  0  0  0  0
   26.8728  -25.8642  -17.4301 C   0  0  0  0  0  0  0  0  0  0  0  0
   26.3783  -27.2855  -17.6534 C   0  0  2  0  0  0  0  0  0  0  0  0
   25.4505  -27.5899  -16.4782 C   0  0  0  0  0  0  0  0  0  0  0  0
   27.5448  -28.2140  -17.5713 C   0  0  2  0  0  0  0  0  0  0  0  0
   28.5069  -28.0074  -18.6143 N   0  0  0  0  0  0  0  0  0  0  0  0
   27.1199  -29.6494  -17.5456 C   0  0  0  0  0  0  0  0  0  0  0  0
   26.5364  -30.0606  -18.5753 O   0  0  0  0  0  0  0  0  0  0  0  0
   28.6144  -35.2543  -15.7250 C   0  0  0  0  0  0  0  0  0  0  0  0
   27.5408  -34.1919  -15.9200 C   0  0  0  0  0  0  0  0  0  0  0  0
   28.1066  -32.8096  -16.0197 C   0  0  2  0  0  0  0  0  0  0  0  0
   28.8297  -32.4934  -14.7394 C   0  0  0  0  0  0  0  0  0  0  0  0
   26.9847  -31.8271  -16.2262 C   0  0  2  0  0  0  0  0  0  0  0  0
   27.3665  -30.4730  -16.4294 N   0  0  0  0  0  0  0  0  0  0  0  0
   25.8039  -32.0281  -15.3725 C   0  0  0  0  0  0  0  0  0  0  0  0
   25.6789  -31.5866  -14.2195 O   0  0  0  0  0  0  0  0  0  0  0  0
   21.0400  -32.8486  -15.1030 C   0  0  0  0  0  0  0  0  0  0  0  0
   22.2991  -32.5874  -15.9309 C   0  0  2  0  0  0  0  0  0  0  0  0
   22.1994  -33.3926  -17.2096 C   0  0  0  0  0  0  0  0  0  0  0  0
   23.4945  -33.0638  -15.1326 C   0  0  2  0  0  0  0  0  0  0  0  0
   24.6794  -32.7893  -15.8675 N   0  0  0  0  0  0  0  0  0  0  0  0
   23.3656  -34.5184  -14.8643 C   0  0  0  0  0  0  0  0  0  0  0  0
   24.0239  -35.3350  -15.5204 O   0  0  0  0  0  0  0  0  0  0  0  0
   22.4779  -34.8951  -13.8515 O   0  0  0  0  0  0  0  0  0  0  0  0
  2  1  1  0
  3  2  1  0
  3  4  1  1
  5  6  1  6
  5  3  1  0
  7  8  2  0
  7  5  1  0
 10  9  1  0
 11 12  1  1
 11 10  1  0
 13 14  1  1
 13 11  1  0
 14  7  1  0
 15 13  1  0
 16 15  2  0
 18 17  1  1
 18 19  1  0
 20 18  1  0
 20 21  1  6
 21 15  1  0
 22 20  1  0
 23 22  2  0
 24 22  1  0
M  END
$$$$
