IIV.pdb
     RDKit          3D

 24 23  0  0  1  0  0  0  0  0999 V2000
   17.4872  -12.3168  -13.6376 C   0  0  0  0  0  0  0  0  0  0  0  0
   16.8259  -12.1640  -12.2741 C   0  0  0  0  0  0  0  0  0  0  0  0
   16.2792  -10.7544  -12.1045 C   0  0  2  0  0  0  0  0  0  0  0  0
   17.5019   -9.8388  -12.0651 C   0  0  0  0  0  0  0  0  0  0  0  0
   15.5945  -10.6653  -10.7806 C   0  0  2  0  0  0  0  0  0  0  0  0
   14.6296  -11.7051  -10.5715 N   0  0  0  0  0  0  0  0  0  0  0  0
   14.9580   -9.3272  -10.5660 C   0  0  0  0  0  0  0  0  0  0  0  0
   14.1213   -8.9798  -11.4315 O   0  0  0  0  0  0  0  0  0  0  0  0
   11.6455   -7.8452   -7.0709 C   0  0  0  0  0  0  0  0  0  0  0  0
   12.6703   -7.9570   -8.1918 C   0  0  0  0  0  0  0  0  0  0  0  0
   13.8941   -7.1322   -7.9407 C   0  0  2  0  0  0  0  0  0  0  0  0
   13.4749   -5.7033   -7.7296 C   0  0  0  0  0  0  0  0  0  0  0  0
   14.8082   -7.2232   -9.1336 C   0  0  2  0  0  0  0  0  0  0  0  0
   15.2878   -8.5213   -9.4585 N   0  0  0  0  0  0  0  0  0  0  0  0
   15.7924   -6.1374   -9.2593 C   0  0  0  0  0  0  0  0  0  0  0  0
   16.8300   -6.0392   -8.5858 O   0  0  0  0  0  0  0  0  0  0  0  0
   15.3677   -3.8275  -12.6831 C   0  0  0  0  0  0  0  0  0  0  0  0
   16.7294   -3.9729  -12.0021 C   0  0  2  0  0  0  0  0  0  0  0  0
   17.3557   -5.2700  -12.4699 C   0  0  0  0  0  0  0  0  0  0  0  0
   16.5029   -4.0388  -10.5062 C   0  0  2  0  0  0  0  0  0  0  0  0
   15.5807   -5.0827  -10.2246 N   0  0  0  0  0  0  0  0  0  0  0  0
   15.9852   -2.7335  -10.0236 C   0  0  0  0  0  0  0  0  0  0  0  0
   14.7833   -2.5955   -9.7653 O   0  0  0  0  0  0  0  0  0  0  0  0
   16.9170   -1.7001   -9.8839 O   0  0  0  0  0  0  0  0  0  0  0  0
  2  1  1  0
  3  2  1  0
  3  4  1  1
  5  6  1  6
  5  3  1  0
  7  8  2  0
  7  5  1  0
 10  9  1  0
 11 12  1  6
 11 10  1  0
 13 14  1  1
 13 11  1  0
 14  7  1  0
 15 13  1  0
 16 15  2  0
 18 17  1  6
 18 19  1  0
 20 18  1  0
 20 21  1  6
 21 15  1  0
 22 20  1  0
 23 22  2  0
 24 22  1  0
M  END
$$$$
