IIV.pdb
     RDKit          3D

 24 23  0  0  1  0  0  0  0  0999 V2000
   18.9271  -21.9318  -15.6937 C   0  0  0  0  0  0  0  0  0  0  0  0
   19.5270  -21.9676  -14.2941 C   0  0  0  0  0  0  0  0  0  0  0  0
   20.8806  -21.2732  -14.2790 C   0  0  2  0  0  0  0  0  0  0  0  0
   21.8019  -22.1448  -15.1312 C   0  0  0  0  0  0  0  0  0  0  0  0
   21.4039  -21.2804  -12.8806 C   0  0  2  0  0  0  0  0  0  0  0  0
   20.5445  -20.6067  -11.9514 N   0  0  0  0  0  0  0  0  0  0  0  0
   22.7887  -20.7176  -12.7958 C   0  0  0  0  0  0  0  0  0  0  0  0
   22.8805  -19.4778  -12.9519 O   0  0  0  0  0  0  0  0  0  0  0  0
   25.9815  -20.1013   -9.3398 C   0  0  0  0  0  0  0  0  0  0  0  0
   25.3268  -21.2393  -10.1115 C   0  0  0  0  0  0  0  0  0  0  0  0
   26.0802  -21.6053  -11.3521 C   0  0  2  0  0  0  0  0  0  0  0  0
   27.4016  -20.8870  -11.3408 C   0  0  0  0  0  0  0  0  0  0  0  0
   25.2838  -21.1863  -12.5591 C   0  0  2  0  0  0  0  0  0  0  0  0
   23.9071  -21.5401  -12.5557 N   0  0  0  0  0  0  0  0  0  0  0  0
   25.9701  -21.3353  -13.8515 C   0  0  0  0  0  0  0  0  0  0  0  0
   26.5320  -22.3709  -14.2409 O   0  0  0  0  0  0  0  0  0  0  0  0
   25.5371  -18.0889  -16.5141 C   0  0  0  0  0  0  0  0  0  0  0  0
   25.7250  -19.5146  -17.0348 C   0  0  2  0  0  0  0  0  0  0  0  0
   24.3674  -20.1842  -17.0797 C   0  0  0  0  0  0  0  0  0  0  0  0
   26.6163  -20.2574  -16.0616 C   0  0  2  0  0  0  0  0  0  0  0  0
   26.0215  -20.2217  -14.7714 N   0  0  0  0  0  0  0  0  0  0  0  0
   27.9613  -19.6289  -16.0396 C   0  0  0  0  0  0  0  0  0  0  0  0
   28.7665  -19.8455  -16.9535 O   0  0  0  0  0  0  0  0  0  0  0  0
   28.2508  -18.8004  -14.9509 O   0  0  0  0  0  0  0  0  0  0  0  0
  2  1  1  0
  3  2  1  0
  3  4  1  6
  5  6  1  1
  5  3  1  0
  7  8  2  0
  7  5  1  0
 10  9  1  0
 11 12  1  1
 11 10  1  0
 13 14  1  6
 13 11  1  0
 14  7  1  0
 15 13  1  0
 16 15  2  0
 18 17  1  1
 18 19  1  0
 20 18  1  0
 20 21  1  1
 21 15  1  0
 22 20  1  0
 23 22  2  0
 24 22  1  0
M  END
$$$$
