IIV.pdb
     RDKit          3D

 24 23  0  0  1  0  0  0  0  0999 V2000
   21.5729  -13.1046  -21.8487 C   0  0  0  0  0  0  0  0  0  0  0  0
   22.3226  -12.8076  -20.5566 C   0  0  0  0  0  0  0  0  0  0  0  0
   21.5243  -11.8463  -19.6888 C   0  0  2  0  0  0  0  0  0  0  0  0
   21.4739  -10.5319  -20.4664 C   0  0  0  0  0  0  0  0  0  0  0  0
   22.2818  -11.6046  -18.4249 C   0  0  2  0  0  0  0  0  0  0  0  0
   22.6778  -12.8131  -17.7627 N   0  0  0  0  0  0  0  0  0  0  0  0
   21.5264  -10.7264  -17.4762 C   0  0  0  0  0  0  0  0  0  0  0  0
   20.2906  -10.9249  -17.4208 O   0  0  0  0  0  0  0  0  0  0  0  0
   22.9552  -10.4914  -12.5229 C   0  0  0  0  0  0  0  0  0  0  0  0
   22.3120  -10.3478  -13.8958 C   0  0  0  0  0  0  0  0  0  0  0  0
   22.2449   -8.9252  -14.3570 C   0  0  2  0  0  0  0  0  0  0  0  0
   21.4044   -8.1444  -13.3845 C   0  0  0  0  0  0  0  0  0  0  0  0
   21.6186   -8.8753  -15.7252 C   0  0  2  0  0  0  0  0  0  0  0  0
   22.1759   -9.7446  -16.7021 N   0  0  0  0  0  0  0  0  0  0  0  0
   21.2598   -7.5326  -16.2069 C   0  0  0  0  0  0  0  0  0  0  0  0
   22.0742   -6.6557  -16.5350 O   0  0  0  0  0  0  0  0  0  0  0  0
   18.1533   -7.0761  -18.6180 C   0  0  0  0  0  0  0  0  0  0  0  0
   18.0215   -6.1213  -17.4305 C   0  0  2  0  0  0  0  0  0  0  0  0
   17.4996   -4.7961  -17.9453 C   0  0  0  0  0  0  0  0  0  0  0  0
   19.3989   -5.9181  -16.8348 C   0  0  2  0  0  0  0  0  0  0  0  0
   19.8687   -7.1585  -16.3246 N   0  0  0  0  0  0  0  0  0  0  0  0
   19.3298   -4.8975  -15.7587 C   0  0  0  0  0  0  0  0  0  0  0  0
   19.5194   -3.7029  -16.0182 O   0  0  0  0  0  0  0  0  0  0  0  0
   19.0447   -5.3603  -14.4702 O   0  0  0  0  0  0  0  0  0  0  0  0
  2  1  1  0
  3  2  1  0
  3  4  1  6
  5  6  1  1
  5  3  1  0
  7  8  2  0
  7  5  1  0
 10  9  1  0
 11 12  1  1
 11 10  1  0
 13 14  1  6
 13 11  1  0
 14  7  1  0
 15 13  1  0
 16 15  2  0
 18 17  1  6
 18 19  1  0
 20 18  1  0
 20 21  1  1
 21 15  1  0
 22 20  1  0
 23 22  2  0
 24 22  1  0
M  END
$$$$
