IIV.pdb
     RDKit          3D

 24 23  0  0  1  0  0  0  0  0999 V2000
   18.8408  -21.8932  -15.9286 C   0  0  0  0  0  0  0  0  0  0  0  0
   19.4272  -21.9311  -14.5234 C   0  0  0  0  0  0  0  0  0  0  0  0
   20.7782  -21.2323  -14.4931 C   0  0  2  0  0  0  0  0  0  0  0  0
   21.6883  -22.0521  -15.4065 C   0  0  0  0  0  0  0  0  0  0  0  0
   21.3249  -21.3129  -13.1060 C   0  0  2  0  0  0  0  0  0  0  0  0
   20.4538  -20.7422  -12.1204 N   0  0  0  0  0  0  0  0  0  0  0  0
   22.6861  -20.6981  -13.0018 C   0  0  0  0  0  0  0  0  0  0  0  0
   22.7273  -19.4506  -13.1109 O   0  0  0  0  0  0  0  0  0  0  0  0
   25.8116  -20.8646   -9.0022 C   0  0  0  0  0  0  0  0  0  0  0  0
   25.1356  -20.6954  -10.3563 C   0  0  0  0  0  0  0  0  0  0  0  0
   25.9358  -21.2787  -11.4790 C   0  0  2  0  0  0  0  0  0  0  0  0
   27.2661  -20.5793  -11.5343 C   0  0  0  0  0  0  0  0  0  0  0  0
   25.1981  -21.0720  -12.7750 C   0  0  2  0  0  0  0  0  0  0  0  0
   23.8375  -21.4832  -12.7946 N   0  0  0  0  0  0  0  0  0  0  0  0
   25.9654  -21.3726  -13.9933 C   0  0  0  0  0  0  0  0  0  0  0  0
   26.4868  -22.4688  -14.2508 O   0  0  0  0  0  0  0  0  0  0  0  0
   26.3170  -21.0270  -18.6490 C   0  0  0  0  0  0  0  0  0  0  0  0
   25.6601  -20.8502  -17.2792 C   0  0  2  0  0  0  0  0  0  0  0  0
   24.7169  -19.6679  -17.3564 C   0  0  0  0  0  0  0  0  0  0  0  0
   26.7494  -20.5549  -16.2694 C   0  0  2  0  0  0  0  0  0  0  0  0
   26.1542  -20.3484  -14.9956 N   0  0  0  0  0  0  0  0  0  0  0  0
   27.5111  -19.3541  -16.6964 C   0  0  0  0  0  0  0  0  0  0  0  0
   27.2903  -18.2556  -16.1720 O   0  0  0  0  0  0  0  0  0  0  0  0
   28.4667  -19.5395  -17.7005 O   0  0  0  0  0  0  0  0  0  0  0  0
  2  1  1  0
  3  2  1  0
  3  4  1  6
  5  6  1  1
  5  3  1  0
  7  8  2  0
  7  5  1  0
 10  9  1  0
 11 12  1  6
 11 10  1  0
 13 14  1  1
 13 11  1  0
 14  7  1  0
 15 13  1  0
 16 15  2  0
 18 17  1  6
 18 19  1  0
 20 18  1  0
 20 21  1  1
 21 15  1  0
 22 20  1  0
 23 22  2  0
 24 22  1  0
M  END
$$$$
