IIV.pdb
     RDKit          3D

 24 23  0  0  1  0  0  0  0  0999 V2000
   28.2322  -17.3899  -16.5544 C   0  0  0  0  0  0  0  0  0  0  0  0
   28.6663  -18.5192  -15.6292 C   0  0  0  0  0  0  0  0  0  0  0  0
   27.4764  -19.0470  -14.8417 C   0  0  2  0  0  0  0  0  0  0  0  0
   27.0346  -17.8961  -13.9390 C   0  0  0  0  0  0  0  0  0  0  0  0
   27.9417  -20.1648  -13.9679 C   0  0  2  0  0  0  0  0  0  0  0  0
   28.6130  -21.2058  -14.6902 N   0  0  0  0  0  0  0  0  0  0  0  0
   26.8259  -20.7448  -13.1553 C   0  0  0  0  0  0  0  0  0  0  0  0
   26.0469  -21.5088  -13.7713 O   0  0  0  0  0  0  0  0  0  0  0  0
   26.3035  -19.5748   -7.3547 C   0  0  0  0  0  0  0  0  0  0  0  0
   25.9028  -19.5665   -8.8239 C   0  0  0  0  0  0  0  0  0  0  0  0
   25.9771  -20.9236   -9.4512 C   0  0  2  0  0  0  0  0  0  0  0  0
   27.3816  -21.4423   -9.3085 C   0  0  0  0  0  0  0  0  0  0  0  0
   25.6199  -20.8172  -10.9099 C   0  0  2  0  0  0  0  0  0  0  0  0
   26.6735  -20.4426  -11.7877 N   0  0  0  0  0  0  0  0  0  0  0  0
   24.3127  -20.2073  -11.1973 C   0  0  0  0  0  0  0  0  0  0  0  0
   24.0468  -19.0028  -11.0619 O   0  0  0  0  0  0  0  0  0  0  0  0
   21.7152  -22.3151  -13.7134 C   0  0  0  0  0  0  0  0  0  0  0  0
   21.6674  -20.8053  -13.4738 C   0  0  2  0  0  0  0  0  0  0  0  0
   22.7676  -20.1620  -14.2919 C   0  0  0  0  0  0  0  0  0  0  0  0
   21.9264  -20.5537  -12.0032 C   0  0  2  0  0  0  0  0  0  0  0  0
   23.2245  -21.0299  -11.6750 N   0  0  0  0  0  0  0  0  0  0  0  0
   20.8914  -21.2419  -11.1910 C   0  0  0  0  0  0  0  0  0  0  0  0
   21.1896  -22.2269  -10.5043 O   0  0  0  0  0  0  0  0  0  0  0  0
   19.5953  -20.7201  -11.2505 O   0  0  0  0  0  0  0  0  0  0  0  0
  2  1  1  0
  3  2  1  0
  3  4  1  1
  5  6  1  6
  5  3  1  0
  7  8  2  0
  7  5  1  0
 10  9  1  0
 11 12  1  6
 11 10  1  0
 13 14  1  6
 13 11  1  0
 14  7  1  0
 15 13  1  0
 16 15  2  0
 18 17  1  1
 18 19  1  0
 20 18  1  0
 20 21  1  1
 21 15  1  0
 22 20  1  0
 23 22  2  0
 24 22  1  0
M  END
$$$$
