IIV.pdb
     RDKit          3D

 24 23  0  0  1  0  0  0  0  0999 V2000
   19.8410  -17.9801  -17.0412 C   0  0  0  0  0  0  0  0  0  0  0  0
   21.3576  -17.9003  -17.1570 C   0  0  0  0  0  0  0  0  0  0  0  0
   22.0170  -18.7927  -16.1161 C   0  0  2  0  0  0  0  0  0  0  0  0
   22.5272  -17.8502  -15.0270 C   0  0  0  0  0  0  0  0  0  0  0  0
   23.1992  -19.4583  -16.7396 C   0  0  2  0  0  0  0  0  0  0  0  0
   22.8442  -20.4099  -17.7517 N   0  0  0  0  0  0  0  0  0  0  0  0
   24.0836  -20.1044  -15.7189 C   0  0  0  0  0  0  0  0  0  0  0  0
   23.5643  -21.0384  -15.0648 O   0  0  0  0  0  0  0  0  0  0  0  0
   29.1817  -21.3357  -16.8552 C   0  0  0  0  0  0  0  0  0  0  0  0
   27.7853  -21.1612  -16.2731 C   0  0  0  0  0  0  0  0  0  0  0  0
   27.7726  -20.2987  -15.0496 C   0  0  2  0  0  0  0  0  0  0  0  0
   28.6068  -20.9603  -13.9872 C   0  0  0  0  0  0  0  0  0  0  0  0
   26.3559  -20.1473  -14.5630 C   0  0  2  0  0  0  0  0  0  0  0  0
   25.4118  -19.6797  -15.5172 N   0  0  0  0  0  0  0  0  0  0  0  0
   26.2093  -19.5948  -13.2077 C   0  0  0  0  0  0  0  0  0  0  0  0
   26.4369  -18.4160  -12.8938 O   0  0  0  0  0  0  0  0  0  0  0  0
   24.6586  -22.2321  -10.1852 C   0  0  0  0  0  0  0  0  0  0  0  0
   24.3746  -20.7295  -10.2075 C   0  0  2  0  0  0  0  0  0  0  0  0
   23.1847  -20.4868  -11.1124 C   0  0  0  0  0  0  0  0  0  0  0  0
   25.5889  -20.0294  -10.7808 C   0  0  2  0  0  0  0  0  0  0  0  0
   25.7704  -20.4479  -12.1266 N   0  0  0  0  0  0  0  0  0  0  0  0
   26.7836  -20.3551   -9.9617 C   0  0  0  0  0  0  0  0  0  0  0  0
   27.6437  -21.1323  -10.3936 O   0  0  0  0  0  0  0  0  0  0  0  0
   26.8716  -19.7443   -8.7067 O   0  0  0  0  0  0  0  0  0  0  0  0
  2  1  1  0
  3  2  1  0
  3  4  1  1
  5  6  1  6
  5  3  1  0
  7  8  2  0
  7  5  1  0
 10  9  1  0
 11 12  1  1
 11 10  1  0
 13 14  1  6
 13 11  1  0
 14  7  1  0
 15 13  1  0
 16 15  2  0
 18 17  1  6
 18 19  1  0
 20 18  1  0
 20 21  1  6
 21 15  1  0
 22 20  1  0
 23 22  2  0
 24 22  1  0
M  END
$$$$
