IIV.pdb
     RDKit          3D

 24 23  0  0  1  0  0  0  0  0999 V2000
   27.9904  -18.1745  -16.4089 C   0  0  0  0  0  0  0  0  0  0  0  0
   28.5168  -18.9365  -15.1998 C   0  0  0  0  0  0  0  0  0  0  0  0
   27.3648  -19.5379  -14.4088 C   0  0  2  0  0  0  0  0  0  0  0  0
   26.5159  -18.3534  -13.9493 C   0  0  0  0  0  0  0  0  0  0  0  0
   27.9189  -20.2059  -13.1937 C   0  0  2  0  0  0  0  0  0  0  0  0
   28.9332  -21.1742  -13.4933 N   0  0  0  0  0  0  0  0  0  0  0  0
   26.8460  -20.8321  -12.3580 C   0  0  0  0  0  0  0  0  0  0  0  0
   26.3563  -21.8930  -12.8104 O   0  0  0  0  0  0  0  0  0  0  0  0
   27.1209  -19.9739   -7.0103 C   0  0  0  0  0  0  0  0  0  0  0  0
   26.8542  -20.5139   -8.4090 C   0  0  0  0  0  0  0  0  0  0  0  0
   25.4457  -20.2815   -8.8597 C   0  0  2  0  0  0  0  0  0  0  0  0
   24.5319  -21.1622   -8.0526 C   0  0  0  0  0  0  0  0  0  0  0  0
   25.3274  -20.6285  -10.3199 C   0  0  2  0  0  0  0  0  0  0  0  0
   26.4240  -20.2552  -11.1439 N   0  0  0  0  0  0  0  0  0  0  0  0
   23.9962  -20.4254  -10.9115 C   0  0  0  0  0  0  0  0  0  0  0  0
   23.4521  -19.3217  -11.0719 O   0  0  0  0  0  0  0  0  0  0  0  0
   22.9630  -22.1116  -14.1610 C   0  0  0  0  0  0  0  0  0  0  0  0
   21.9174  -22.5091  -13.1180 C   0  0  2  0  0  0  0  0  0  0  0  0
   20.5543  -22.4708  -13.7768 C   0  0  0  0  0  0  0  0  0  0  0  0
   21.9594  -21.4910  -11.9978 C   0  0  2  0  0  0  0  0  0  0  0  0
   23.2245  -21.5644  -11.3546 N   0  0  0  0  0  0  0  0  0  0  0  0
   20.8622  -21.7646  -11.0356 C   0  0  0  0  0  0  0  0  0  0  0  0
   21.1071  -22.2875   -9.9415 O   0  0  0  0  0  0  0  0  0  0  0  0
   19.5713  -21.4035  -11.4343 O   0  0  0  0  0  0  0  0  0  0  0  0
  2  1  1  0
  3  2  1  0
  3  4  1  1
  5  6  1  6
  5  3  1  0
  7  8  2  0
  7  5  1  0
 10  9  1  0
 11 12  1  1
 11 10  1  0
 13 14  1  6
 13 11  1  0
 14  7  1  0
 15 13  1  0
 16 15  2  0
 18 17  1  6
 18 19  1  0
 20 18  1  0
 20 21  1  1
 21 15  1  0
 22 20  1  0
 23 22  2  0
 24 22  1  0
M  END
$$$$
