IIV.pdb
     RDKit          3D

 24 23  0  0  1  0  0  0  0  0999 V2000
   19.7847  -14.9964  -21.0908 C   0  0  0  0  0  0  0  0  0  0  0  0
   21.0056  -15.3157  -20.2379 C   0  0  0  0  0  0  0  0  0  0  0  0
   21.2337  -14.2205  -19.2069 C   0  0  2  0  0  0  0  0  0  0  0  0
   21.6577  -12.9862  -20.0017 C   0  0  0  0  0  0  0  0  0  0  0  0
   22.3764  -14.6199  -18.3328 C   0  0  2  0  0  0  0  0  0  0  0  0
   22.1930  -15.8989  -17.7110 N   0  0  0  0  0  0  0  0  0  0  0  0
   22.6773  -13.5852  -17.2933 C   0  0  0  0  0  0  0  0  0  0  0  0
   21.8098  -13.4457  -16.4001 O   0  0  0  0  0  0  0  0  0  0  0  0
   27.5990  -13.1754  -15.2798 C   0  0  0  0  0  0  0  0  0  0  0  0
   26.1069  -13.0743  -15.5673 C   0  0  0  0  0  0  0  0  0  0  0  0
   25.7064  -11.7251  -16.0773 C   0  0  2  0  0  0  0  0  0  0  0  0
   25.9087  -10.7173  -14.9793 C   0  0  0  0  0  0  0  0  0  0  0  0
   24.2556  -11.7559  -16.4785 C   0  0  2  0  0  0  0  0  0  0  0  0
   23.8629  -12.8248  -17.3293 N   0  0  0  0  0  0  0  0  0  0  0  0
   23.6592  -10.4485  -16.7920 C   0  0  0  0  0  0  0  0  0  0  0  0
   23.9863   -9.7311  -17.7502 O   0  0  0  0  0  0  0  0  0  0  0  0
   19.8747   -9.5903  -15.2066 C   0  0  0  0  0  0  0  0  0  0  0  0
   20.4897   -8.9298  -16.4414 C   0  0  2  0  0  0  0  0  0  0  0  0
   20.3685   -9.8941  -17.6029 C   0  0  0  0  0  0  0  0  0  0  0  0
   21.9546   -8.6722  -16.1570 C   0  0  2  0  0  0  0  0  0  0  0  0
   22.6106   -9.9160  -15.9517 N   0  0  0  0  0  0  0  0  0  0  0  0
   22.0836   -7.8041  -14.9594 C   0  0  0  0  0  0  0  0  0  0  0  0
   22.4476   -8.2823  -13.8780 O   0  0  0  0  0  0  0  0  0  0  0  0
   21.7760   -6.4503  -15.1277 O   0  0  0  0  0  0  0  0  0  0  0  0
  2  1  1  0
  3  2  1  0
  3  4  1  6
  5  6  1  1
  5  3  1  0
  7  8  2  0
  7  5  1  0
 10  9  1  0
 11 12  1  1
 11 10  1  0
 13 14  1  6
 13 11  1  0
 14  7  1  0
 15 13  1  0
 16 15  2  0
 18 17  1  1
 18 19  1  0
 20 18  1  0
 20 21  1  1
 21 15  1  0
 22 20  1  0
 23 22  2  0
 24 22  1  0
M  END
$$$$
