IIV.pdb
     RDKit          3D

 24 23  0  0  1  0  0  0  0  0999 V2000
   18.7408  -22.3661  -15.7225 C   0  0  0  0  0  0  0  0  0  0  0  0
   19.2869  -22.0671  -14.3324 C   0  0  0  0  0  0  0  0  0  0  0  0
   20.6777  -21.4580  -14.4284 C   0  0  2  0  0  0  0  0  0  0  0  0
   21.5465  -22.5160  -15.1070 C   0  0  0  0  0  0  0  0  0  0  0  0
   21.2024  -21.2490  -13.0462 C   0  0  2  0  0  0  0  0  0  0  0  0
   20.3796  -20.3825  -12.2536 N   0  0  0  0  0  0  0  0  0  0  0  0
   22.6139  -20.7496  -13.0504 C   0  0  0  0  0  0  0  0  0  0  0  0
   22.7618  -19.5446  -13.3600 O   0  0  0  0  0  0  0  0  0  0  0  0
   25.8545  -20.7216   -9.0850 C   0  0  0  0  0  0  0  0  0  0  0  0
   25.1465  -20.6505  -10.4314 C   0  0  0  0  0  0  0  0  0  0  0  0
   25.8504  -21.4316  -11.4969 C   0  0  2  0  0  0  0  0  0  0  0  0
   27.2350  -20.8699  -11.6684 C   0  0  0  0  0  0  0  0  0  0  0  0
   25.0879  -21.3087  -12.7892 C   0  0  2  0  0  0  0  0  0  0  0  0
   23.6962  -21.5911  -12.7254 N   0  0  0  0  0  0  0  0  0  0  0  0
   25.7808  -21.8183  -13.9823 C   0  0  0  0  0  0  0  0  0  0  0  0
   26.2884  -22.9464  -14.0800 O   0  0  0  0  0  0  0  0  0  0  0  0
   25.1823  -19.6556  -17.5018 C   0  0  0  0  0  0  0  0  0  0  0  0
   25.5952  -21.1282  -17.5187 C   0  0  2  0  0  0  0  0  0  0  0  0
   24.3518  -21.9699  -17.3216 C   0  0  0  0  0  0  0  0  0  0  0  0
   26.5460  -21.3637  -16.3638 C   0  0  2  0  0  0  0  0  0  0  0  0
   25.9062  -20.9812  -15.1539 N   0  0  0  0  0  0  0  0  0  0  0  0
   27.7884  -20.5785  -16.5743 C   0  0  0  0  0  0  0  0  0  0  0  0
   27.9471  -19.4949  -15.9989 O   0  0  0  0  0  0  0  0  0  0  0  0
   28.7402  -21.1269  -17.4398 O   0  0  0  0  0  0  0  0  0  0  0  0
  2  1  1  0
  3  2  1  0
  3  4  1  6
  5  6  1  6
  5  3  1  0
  7  8  2  0
  7  5  1  0
 10  9  1  0
 11 12  1  6
 11 10  1  0
 13 14  1  1
 13 11  1  0
 14  7  1  0
 15 13  1  0
 16 15  2  0
 18 17  1  1
 18 19  1  0
 20 18  1  0
 20 21  1  1
 21 15  1  0
 22 20  1  0
 23 22  2  0
 24 22  1  0
M  END
$$$$
