IIV.pdb
     RDKit          3D

 24 23  0  0  1  0  0  0  0  0999 V2000
   30.4979  -21.4287  -10.3529 C   0  0  0  0  0  0  0  0  0  0  0  0
   29.0049  -21.2595  -10.1032 C   0  0  0  0  0  0  0  0  0  0  0  0
   28.2631  -21.0842  -11.4198 C   0  0  2  0  0  0  0  0  0  0  0  0
   28.8216  -19.8053  -12.0420 C   0  0  0  0  0  0  0  0  0  0  0  0
   26.8168  -20.8592  -11.1252 C   0  0  2  0  0  0  0  0  0  0  0  0
   26.2305  -21.9041  -10.3374 N   0  0  0  0  0  0  0  0  0  0  0  0
   26.0152  -20.6490  -12.3722 C   0  0  0  0  0  0  0  0  0  0  0  0
   26.5843  -20.9665  -13.4424 O   0  0  0  0  0  0  0  0  0  0  0  0
   21.1252  -21.3498  -11.4222 C   0  0  0  0  0  0  0  0  0  0  0  0
   22.1414  -21.3725  -12.5563 C   0  0  0  0  0  0  0  0  0  0  0  0
   22.3664  -20.0205  -13.1582 C   0  0  2  0  0  0  0  0  0  0  0  0
   21.6097  -19.9405  -14.4555 C   0  0  0  0  0  0  0  0  0  0  0  0
   23.8375  -19.8292  -13.4148 C   0  0  2  0  0  0  0  0  0  0  0  0
   24.7072  -20.1273  -12.3305 N   0  0  0  0  0  0  0  0  0  0  0  0
   24.1921  -18.6357  -14.1979 C   0  0  0  0  0  0  0  0  0  0  0  0
   24.0500  -17.4653  -13.8107 O   0  0  0  0  0  0  0  0  0  0  0  0
   26.6276  -19.2905  -17.5170 C   0  0  0  0  0  0  0  0  0  0  0  0
   26.5454  -17.9200  -16.8431 C   0  0  2  0  0  0  0  0  0  0  0  0
   27.4683  -17.9277  -15.6424 C   0  0  0  0  0  0  0  0  0  0  0  0
   25.1202  -17.7098  -16.3762 C   0  0  2  0  0  0  0  0  0  0  0  0
   24.7510  -18.7842  -15.5225 N   0  0  0  0  0  0  0  0  0  0  0  0
   24.2172  -17.6368  -17.5525 C   0  0  0  0  0  0  0  0  0  0  0  0
   23.4279  -18.5589  -17.7918 O   0  0  0  0  0  0  0  0  0  0  0  0
   24.3135  -16.4916  -18.3494 O   0  0  0  0  0  0  0  0  0  0  0  0
  2  1  1  0
  3  2  1  0
  3  4  1  1
  5  6  1  6
  5  3  1  0
  7  8  2  0
  7  5  1  0
 10  9  1  0
 11 12  1  6
 11 10  1  0
 13 14  1  1
 13 11  1  0
 14  7  1  0
 15 13  1  0
 16 15  2  0
 18 17  1  1
 18 19  1  0
 20 18  1  0
 20 21  1  1
 21 15  1  0
 22 20  1  0
 23 22  2  0
 24 22  1  0
M  END
$$$$
