IIV.pdb
     RDKit          3D

 24 23  0  0  1  0  0  0  0  0999 V2000
   23.0383  -20.2477  -13.8067 C   0  0  0  0  0  0  0  0  0  0  0  0
   24.4855  -20.2232  -13.3324 C   0  0  0  0  0  0  0  0  0  0  0  0
   24.5868  -20.7534  -11.9101 C   0  0  2  0  0  0  0  0  0  0  0  0
   23.7392  -19.8113  -11.0563 C   0  0  0  0  0  0  0  0  0  0  0  0
   26.0046  -20.6345  -11.4574 C   0  0  2  0  0  0  0  0  0  0  0  0
   26.9245  -21.3640  -12.2806 N   0  0  0  0  0  0  0  0  0  0  0  0
   26.1727  -21.0357  -10.0247 C   0  0  0  0  0  0  0  0  0  0  0  0
   25.9727  -22.2468   -9.7738 O   0  0  0  0  0  0  0  0  0  0  0  0
   29.0978  -19.4965   -4.7980 C   0  0  0  0  0  0  0  0  0  0  0  0
   27.9510  -20.1464   -5.5607 C   0  0  0  0  0  0  0  0  0  0  0  0
   27.8313  -19.6419   -6.9650 C   0  0  2  0  0  0  0  0  0  0  0  0
   27.6254  -18.1526   -6.9242 C   0  0  0  0  0  0  0  0  0  0  0  0
   26.6524  -20.3003   -7.6309 C   0  0  2  0  0  0  0  0  0  0  0  0
   26.5327  -20.1015   -9.0333 N   0  0  0  0  0  0  0  0  0  0  0  0
   25.3907  -20.2482   -6.8766 C   0  0  0  0  0  0  0  0  0  0  0  0
   24.5966  -19.2947   -6.8877 O   0  0  0  0  0  0  0  0  0  0  0  0
   21.7110  -22.8979   -5.2406 C   0  0  0  0  0  0  0  0  0  0  0  0
   23.1024  -22.8042   -5.8687 C   0  0  2  0  0  0  0  0  0  0  0  0
   23.9273  -23.9706   -5.3661 C   0  0  0  0  0  0  0  0  0  0  0  0
   23.7390  -21.5085   -5.4113 C   0  0  2  0  0  0  0  0  0  0  0  0
   25.0023  -21.3656   -6.0462 N   0  0  0  0  0  0  0  0  0  0  0  0
   23.8898  -21.5227   -3.9343 C   0  0  0  0  0  0  0  0  0  0  0  0
   24.9975  -21.7247   -3.4218 O   0  0  0  0  0  0  0  0  0  0  0  0
   22.7326  -21.2995   -3.1816 O   0  0  0  0  0  0  0  0  0  0  0  0
  2  1  1  0
  3  2  1  0
  3  4  1  1
  5  6  1  6
  5  3  1  0
  7  8  2  0
  7  5  1  0
 10  9  1  0
 11 12  1  1
 11 10  1  0
 13 14  1  6
 13 11  1  0
 14  7  1  0
 15 13  1  0
 16 15  2  0
 18 17  1  1
 18 19  1  0
 20 18  1  0
 20 21  1  6
 21 15  1  0
 22 20  1  0
 23 22  2  0
 24 22  1  0
M  END
$$$$
