IIV.pdb
     RDKit          3D

 24 23  0  0  1  0  0  0  0  0999 V2000
   26.8742  -18.1901  -19.6035 C   0  0  0  0  0  0  0  0  0  0  0  0
   27.3452  -18.1176  -18.1569 C   0  0  0  0  0  0  0  0  0  0  0  0
   26.3825  -18.8661  -17.2472 C   0  0  2  0  0  0  0  0  0  0  0  0
   25.6473  -17.7905  -16.4487 C   0  0  0  0  0  0  0  0  0  0  0  0
   27.1768  -19.6894  -16.2876 C   0  0  2  0  0  0  0  0  0  0  0  0
   28.0011  -20.6703  -16.9312 N   0  0  0  0  0  0  0  0  0  0  0  0
   26.3096  -20.3466  -15.2591 C   0  0  0  0  0  0  0  0  0  0  0  0
   25.4617  -21.1559  -15.7019 O   0  0  0  0  0  0  0  0  0  0  0  0
   28.7235  -21.0486  -10.6345 C   0  0  0  0  0  0  0  0  0  0  0  0
   27.6690  -21.4142  -11.6706 C   0  0  0  0  0  0  0  0  0  0  0  0
   26.3851  -20.6694  -11.4766 C   0  0  2  0  0  0  0  0  0  0  0  0
   25.5286  -21.4341  -10.5051 C   0  0  0  0  0  0  0  0  0  0  0  0
   25.6740  -20.5519  -12.7984 C   0  0  2  0  0  0  0  0  0  0  0  0
   26.4486  -20.0640  -13.8859 N   0  0  0  0  0  0  0  0  0  0  0  0
   24.2941  -20.0473  -12.7306 C   0  0  0  0  0  0  0  0  0  0  0  0
   23.9717  -18.9132  -12.3435 O   0  0  0  0  0  0  0  0  0  0  0  0
   21.2990  -21.8836  -14.9984 C   0  0  0  0  0  0  0  0  0  0  0  0
   21.1683  -20.5110  -14.3365 C   0  0  2  0  0  0  0  0  0  0  0  0
   21.9072  -19.5021  -15.1908 C   0  0  0  0  0  0  0  0  0  0  0  0
   21.8204  -20.5826  -12.9717 C   0  0  2  0  0  0  0  0  0  0  0  0
   23.1967  -20.8972  -13.1336 N   0  0  0  0  0  0  0  0  0  0  0  0
   21.1376  -21.6118  -12.1476 C   0  0  0  0  0  0  0  0  0  0  0  0
   21.6688  -22.7128  -11.9577 O   0  0  0  0  0  0  0  0  0  0  0  0
   19.8914  -21.2664  -11.6153 O   0  0  0  0  0  0  0  0  0  0  0  0
  2  1  1  0
  3  2  1  0
  3  4  1  1
  5  6  1  6
  5  3  1  0
  7  8  2  0
  7  5  1  0
 10  9  1  0
 11 12  1  1
 11 10  1  0
 13 14  1  6
 13 11  1  0
 14  7  1  0
 15 13  1  0
 16 15  2  0
 18 17  1  6
 18 19  1  0
 20 18  1  0
 20 21  1  6
 21 15  1  0
 22 20  1  0
 23 22  2  0
 24 22  1  0
M  END
$$$$
