IIV.pdb
     RDKit          3D

 24 23  0  0  1  0  0  0  0  0999 V2000
   26.8289  -25.8701  -16.6816 C   0  0  0  0  0  0  0  0  0  0  0  0
   27.4584  -24.4898  -16.5461 C   0  0  0  0  0  0  0  0  0  0  0  0
   27.3553  -23.7283  -17.8590 C   0  0  2  0  0  0  0  0  0  0  0  0
   28.1390  -24.5538  -18.8784 C   0  0  0  0  0  0  0  0  0  0  0  0
   28.0460  -22.4138  -17.7026 C   0  0  2  0  0  0  0  0  0  0  0  0
   29.4590  -22.5385  -17.4927 N   0  0  0  0  0  0  0  0  0  0  0  0
   27.4390  -21.5861  -16.6126 C   0  0  0  0  0  0  0  0  0  0  0  0
   28.2091  -21.2768  -15.6739 O   0  0  0  0  0  0  0  0  0  0  0  0
   25.2828  -17.1785  -18.0182 C   0  0  0  0  0  0  0  0  0  0  0  0
   25.8253  -18.4051  -17.2968 C   0  0  0  0  0  0  0  0  0  0  0  0
   24.7952  -19.0762  -16.4427 C   0  0  2  0  0  0  0  0  0  0  0  0
   24.3402  -18.1058  -15.3876 C   0  0  0  0  0  0  0  0  0  0  0  0
   25.4040  -20.2887  -15.7900 C   0  0  2  0  0  0  0  0  0  0  0  0
   26.0881  -21.1881  -16.6525 N   0  0  0  0  0  0  0  0  0  0  0  0
   24.5871  -20.9186  -14.7415 C   0  0  0  0  0  0  0  0  0  0  0  0
   23.6139  -21.6597  -14.9500 O   0  0  0  0  0  0  0  0  0  0  0  0
   24.9931  -19.5331  -10.6698 C   0  0  0  0  0  0  0  0  0  0  0  0
   24.9938  -21.0295  -10.9861 C   0  0  2  0  0  0  0  0  0  0  0  0
   26.4256  -21.4613  -11.2252 C   0  0  0  0  0  0  0  0  0  0  0  0
   24.1898  -21.2434  -12.2515 C   0  0  2  0  0  0  0  0  0  0  0  0
   24.9009  -20.6884  -13.3495 N   0  0  0  0  0  0  0  0  0  0  0  0
   22.8576  -20.6036  -12.1084 C   0  0  0  0  0  0  0  0  0  0  0  0
   22.6171  -19.5294  -12.6730 O   0  0  0  0  0  0  0  0  0  0  0  0
   21.9194  -21.2740  -11.3172 O   0  0  0  0  0  0  0  0  0  0  0  0
  2  1  1  0
  3  2  1  0
  3  4  1  6
  5  6  1  1
  5  3  1  0
  7  8  2  0
  7  5  1  0
 10  9  1  0
 11 12  1  1
 11 10  1  0
 13 14  1  6
 13 11  1  0
 14  7  1  0
 15 13  1  0
 16 15  2  0
 18 17  1  6
 18 19  1  0
 20 18  1  0
 20 21  1  6
 21 15  1  0
 22 20  1  0
 23 22  2  0
 24 22  1  0
M  END
$$$$
