IIV.pdb
     RDKit          3D

 24 23  0  0  1  0  0  0  0  0999 V2000
   27.4068  -17.5166  -18.5368 C   0  0  0  0  0  0  0  0  0  0  0  0
   27.9793  -18.3717  -17.4139 C   0  0  0  0  0  0  0  0  0  0  0  0
   26.8576  -19.0131  -16.6107 C   0  0  2  0  0  0  0  0  0  0  0  0
   26.1129  -17.8572  -15.9444 C   0  0  0  0  0  0  0  0  0  0  0  0
   27.4626  -19.8524  -15.5341 C   0  0  2  0  0  0  0  0  0  0  0  0
   28.3197  -20.8861  -16.0368 N   0  0  0  0  0  0  0  0  0  0  0  0
   26.4241  -20.4438  -14.6321 C   0  0  0  0  0  0  0  0  0  0  0  0
   25.6561  -21.2788  -15.1639 O   0  0  0  0  0  0  0  0  0  0  0  0
   27.7808  -21.1409   -9.3958 C   0  0  0  0  0  0  0  0  0  0  0  0
   27.1627  -21.2197  -10.7854 C   0  0  0  0  0  0  0  0  0  0  0  0
   25.8493  -20.5071  -10.8753 C   0  0  2  0  0  0  0  0  0  0  0  0
   24.8506  -21.2307  -10.0144 C   0  0  0  0  0  0  0  0  0  0  0  0
   25.3812  -20.5062  -12.3062 C   0  0  2  0  0  0  0  0  0  0  0  0
   26.3280  -20.0762  -13.2755 N   0  0  0  0  0  0  0  0  0  0  0  0
   24.0032  -20.0383  -12.5197 C   0  0  0  0  0  0  0  0  0  0  0  0
   23.6021  -18.8863  -12.2919 O   0  0  0  0  0  0  0  0  0  0  0  0
   21.4142  -22.6662  -14.5984 C   0  0  0  0  0  0  0  0  0  0  0  0
   21.1963  -21.1525  -14.5799 C   0  0  2  0  0  0  0  0  0  0  0  0
   22.0640  -20.5368  -15.6577 C   0  0  0  0  0  0  0  0  0  0  0  0
   21.6342  -20.6305  -13.2275 C   0  0  2  0  0  0  0  0  0  0  0  0
   23.0050  -20.9498  -13.0313 N   0  0  0  0  0  0  0  0  0  0  0  0
   20.7941  -21.2373  -12.1643 C   0  0  0  0  0  0  0  0  0  0  0  0
   21.2431  -22.1478  -11.4572 O   0  0  0  0  0  0  0  0  0  0  0  0
   19.4999  -20.7281  -12.0178 O   0  0  0  0  0  0  0  0  0  0  0  0
  2  1  1  0
  3  2  1  0
  3  4  1  1
  5  6  1  6
  5  3  1  0
  7  8  2  0
  7  5  1  0
 10  9  1  0
 11 12  1  1
 11 10  1  0
 13 14  1  6
 13 11  1  0
 14  7  1  0
 15 13  1  0
 16 15  2  0
 18 17  1  1
 18 19  1  0
 20 18  1  0
 20 21  1  1
 21 15  1  0
 22 20  1  0
 23 22  2  0
 24 22  1  0
M  END
$$$$
