HKY.pdb
     RDKit          3D

 32 33  0  0  1  0  0  0  0  0999 V2000
    8.6090  -16.4236   17.0889 N   0  0  0  0  0  0  0  0  0  0  0  0
    8.0948  -15.4508   18.0275 C   0  0  1  0  0  0  0  0  0  0  0  0
    6.8718  -14.7796   17.4437 C   0  0  0  0  0  0  0  0  0  0  0  0
    7.2357  -14.1080   16.1731 C   0  0  0  0  0  0  0  0  0  0  0  0
    7.9650  -12.9365   15.9855 C   0  0  0  0  0  0  0  0  0  0  0  0
    8.0389  -12.7219   14.6601 N   0  0  0  0  0  0  0  0  0  0  0  0
    7.3794  -13.7243   14.0536 C   0  0  0  0  0  0  0  0  0  0  0  0
    6.8871  -14.5730   14.9691 N   0  0  0  0  0  0  0  0  0  0  0  0
    7.7378  -16.1656   19.2792 C   0  0  0  0  0  0  0  0  0  0  0  0
    6.5459  -16.1692   19.6503 O   0  0  0  0  0  0  0  0  0  0  0  0
    8.7002  -16.8315   20.0486 N   0  0  0  0  0  0  0  0  0  0  0  0
    8.4359  -17.5110   21.3101 C   0  0  1  0  0  0  0  0  0  0  0  0
    8.6138  -18.9600   21.0980 C   0  0  0  0  0  0  0  0  0  0  0  0
    8.4992  -19.8162   22.3227 C   0  0  0  0  0  0  0  0  0  0  0  0
    8.6175  -21.2666   21.9330 C   0  0  0  0  0  0  0  0  0  0  0  0
    8.4124  -22.1822   23.1283 C   0  0  0  0  0  0  0  0  0  0  0  0
    8.4481  -23.5501   22.6455 N   0  0  0  0  0  0  0  0  0  0  0  0
    9.2999  -16.9548   22.3819 C   0  0  0  0  0  0  0  0  0  0  0  0
   10.5315  -16.8704   22.1521 O   0  0  0  0  0  0  0  0  0  0  0  0
   11.4394  -14.3775   30.6896 O   0  0  0  0  0  0  0  0  0  0  0  0
   10.7964  -14.6220   29.4634 C   0  0  0  0  0  0  0  0  0  0  0  0
   10.3728  -15.8995   29.1707 C   0  0  0  0  0  0  0  0  0  0  0  0
    9.7385  -16.1528   27.9671 C   0  0  0  0  0  0  0  0  0  0  0  0
    9.5085  -15.1661   27.0329 C   0  0  0  0  0  0  0  0  0  0  0  0
    8.8375  -15.4524   25.7638 C   0  0  0  0  0  0  0  0  0  0  0  0
    9.7235  -16.0615   24.7046 C   0  0  2  0  0  0  0  0  0  0  0  0
    8.8319  -16.5199   23.6272 N   0  0  0  0  0  0  0  0  0  0  0  0
   10.4518  -17.2634   25.1819 C   0  0  0  0  0  0  0  0  0  0  0  0
   11.7806  -17.2497   25.5224 O   0  0  0  0  0  0  0  0  0  0  0  0
    9.9390  -13.8919   27.3415 C   0  0  0  0  0  0  0  0  0  0  0  0
   10.5795  -13.6117   28.5458 C   0  0  0  0  0  0  0  0  0  0  0  0
    9.8166  -18.3681   25.2830 O   0  0  0  0  0  0  0  0  0  0  0  0
  2  1  1  6
  2  9  1  0
  2  3  1  0
  4  3  1  0
  4  5  2  0
  6  5  1  0
  7  6  1  0
  8  7  2  0
  8  4  1  0
  9 10  2  0
 11 12  1  0
 11  9  1  0
 12 13  1  6
 13 14  1  0
 15 16  1  0
 15 14  1  0
 16 17  1  0
 18 19  2  0
 18 12  1  0
 20 21  1  0
 21 31  2  0
 21 22  1  0
 22 23  2  0
 23 24  1  0
 24 25  1  0
 26 25  1  1
 26 28  1  0
 26 27  1  0
 27 18  1  0
 28 29  1  0
 30 24  2  0
 31 30  1  0
 32 28  2  0
M  END
$$$$
