HKY.pdb
     RDKit          3D

 32 33  0  0  1  0  0  0  0  0999 V2000
    8.5892  -16.4274   18.4075 N   0  0  0  0  0  0  0  0  0  0  0  0
    8.7157  -15.2062   19.1720 C   0  0  1  0  0  0  0  0  0  0  0  0
    7.9599  -14.0939   18.4804 C   0  0  0  0  0  0  0  0  0  0  0  0
    8.2829  -14.1021   17.0335 C   0  0  0  0  0  0  0  0  0  0  0  0
    7.4584  -14.4271   15.9592 C   0  0  0  0  0  0  0  0  0  0  0  0
    8.1905  -14.2885   14.8398 N   0  0  0  0  0  0  0  0  0  0  0  0
    9.4207  -13.8928   15.2108 C   0  0  0  0  0  0  0  0  0  0  0  0
    9.4848  -13.7769   16.5462 N   0  0  0  0  0  0  0  0  0  0  0  0
    8.1467  -15.4493   20.5219 C   0  0  0  0  0  0  0  0  0  0  0  0
    7.7874  -14.4702   21.2080 O   0  0  0  0  0  0  0  0  0  0  0  0
    8.0042  -16.7425   21.0406 N   0  0  0  0  0  0  0  0  0  0  0  0
    7.5882  -17.0546   22.4016 C   0  0  1  0  0  0  0  0  0  0  0  0
    7.1263  -18.4553   22.4315 C   0  0  0  0  0  0  0  0  0  0  0  0
    5.8296  -18.7283   21.7313 C   0  0  0  0  0  0  0  0  0  0  0  0
    5.5987  -20.2156   21.6665 C   0  0  0  0  0  0  0  0  0  0  0  0
    4.2930  -20.5456   20.9624 C   0  0  0  0  0  0  0  0  0  0  0  0
    4.4972  -20.3432   19.5401 N   0  0  0  0  0  0  0  0  0  0  0  0
    8.6927  -16.7705   23.3523 C   0  0  0  0  0  0  0  0  0  0  0  0
    9.8557  -17.0953   23.0077 O   0  0  0  0  0  0  0  0  0  0  0  0
    5.1394  -12.0297   28.0579 O   0  0  0  0  0  0  0  0  0  0  0  0
    6.2826  -12.6178   27.4885 C   0  0  0  0  0  0  0  0  0  0  0  0
    6.3328  -12.8045   26.1248 C   0  0  0  0  0  0  0  0  0  0  0  0
    7.4525  -13.3823   25.5525 C   0  0  0  0  0  0  0  0  0  0  0  0
    8.5376  -13.7859   26.3000 C   0  0  0  0  0  0  0  0  0  0  0  0
    9.7133  -14.3970   25.6779 C   0  0  0  0  0  0  0  0  0  0  0  0
    9.6382  -15.8965   25.5236 C   0  0  2  0  0  0  0  0  0  0  0  0
    8.5219  -16.1662   24.6031 N   0  0  0  0  0  0  0  0  0  0  0  0
    9.3086  -16.5920   26.7927 C   0  0  0  0  0  0  0  0  0  0  0  0
   10.1610  -16.6380   27.8665 O   0  0  0  0  0  0  0  0  0  0  0  0
    8.4714  -13.5918   27.6646 C   0  0  0  0  0  0  0  0  0  0  0  0
    7.3560  -13.0126   28.2642 C   0  0  0  0  0  0  0  0  0  0  0  0
    8.1776  -17.1785   26.8973 O   0  0  0  0  0  0  0  0  0  0  0  0
  2  1  1  6
  2  9  1  0
  2  3  1  0
  4  3  1  0
  4  5  2  0
  6  5  1  0
  7  6  1  0
  8  7  2  0
  8  4  1  0
  9 10  2  0
 11 12  1  0
 11  9  1  0
 12 13  1  6
 13 14  1  0
 15 16  1  0
 15 14  1  0
 16 17  1  0
 18 19  2  0
 18 12  1  0
 20 21  1  0
 21 31  2  0
 21 22  1  0
 22 23  2  0
 23 24  1  0
 24 25  1  0
 26 25  1  1
 26 28  1  0
 26 27  1  0
 27 18  1  0
 28 29  1  0
 30 24  2  0
 31 30  1  0
 32 28  2  0
M  END
$$$$
