HKY.pdb
     RDKit          3D

 32 33  0  0  1  0  0  0  0  0999 V2000
    7.5673  -19.5897   20.0376 N   0  0  0  0  0  0  0  0  0  0  0  0
    7.0642  -18.7446   21.0979 C   0  0  1  0  0  0  0  0  0  0  0  0
    6.9681  -19.5414   22.3796 C   0  0  0  0  0  0  0  0  0  0  0  0
    5.9283  -20.5882   22.2340 C   0  0  0  0  0  0  0  0  0  0  0  0
    5.1860  -20.9268   21.1054 C   0  0  0  0  0  0  0  0  0  0  0  0
    4.3684  -21.9355   21.4550 N   0  0  0  0  0  0  0  0  0  0  0  0
    4.5986  -22.2082   22.7513 C   0  0  0  0  0  0  0  0  0  0  0  0
    5.5480  -21.3913   23.2330 N   0  0  0  0  0  0  0  0  0  0  0  0
    8.0094  -17.6121   21.2691 C   0  0  0  0  0  0  0  0  0  0  0  0
    9.2252  -17.8075   21.0637 O   0  0  0  0  0  0  0  0  0  0  0  0
    7.5724  -16.3380   21.6532 N   0  0  0  0  0  0  0  0  0  0  0  0
    8.4443  -15.2004   21.9145 C   0  0  1  0  0  0  0  0  0  0  0  0
    7.8396  -14.0057   21.2955 C   0  0  0  0  0  0  0  0  0  0  0  0
    7.4226  -14.1548   19.8636 C   0  0  0  0  0  0  0  0  0  0  0  0
    8.1171  -13.1111   19.0283 C   0  0  0  0  0  0  0  0  0  0  0  0
    7.6973  -13.1959   17.5702 C   0  0  0  0  0  0  0  0  0  0  0  0
    8.4050  -12.1553   16.8478 N   0  0  0  0  0  0  0  0  0  0  0  0
    8.6802  -15.0611   23.3739 C   0  0  0  0  0  0  0  0  0  0  0  0
    8.1975  -14.0543   23.9484 O   0  0  0  0  0  0  0  0  0  0  0  0
    6.0785  -10.5982   27.0397 O   0  0  0  0  0  0  0  0  0  0  0  0
    6.6059  -11.8824   26.8170 C   0  0  0  0  0  0  0  0  0  0  0  0
    5.7743  -12.9759   26.9156 C   0  0  0  0  0  0  0  0  0  0  0  0
    6.2816  -14.2450   26.6986 C   0  0  0  0  0  0  0  0  0  0  0  0
    7.6047  -14.4662   26.3831 C   0  0  0  0  0  0  0  0  0  0  0  0
    8.1247  -15.8160   26.1585 C   0  0  0  0  0  0  0  0  0  0  0  0
    9.5297  -15.8680   25.6099 C   0  0  2  0  0  0  0  0  0  0  0  0
    9.4033  -15.9762   24.1476 N   0  0  0  0  0  0  0  0  0  0  0  0
   10.2788  -17.0703   26.0531 C   0  0  0  0  0  0  0  0  0  0  0  0
   10.6468  -18.0812   25.2020 O   0  0  0  0  0  0  0  0  0  0  0  0
    8.4244  -13.3602   26.2882 C   0  0  0  0  0  0  0  0  0  0  0  0
    7.9379  -12.0731   26.5019 C   0  0  0  0  0  0  0  0  0  0  0  0
   10.5999  -17.1754   27.2859 O   0  0  0  0  0  0  0  0  0  0  0  0
  2  1  1  6
  2  9  1  0
  2  3  1  0
  4  3  1  0
  4  5  2  0
  6  5  1  0
  7  6  1  0
  8  7  2  0
  8  4  1  0
  9 10  2  0
 11 12  1  0
 11  9  1  0
 12 13  1  1
 13 14  1  0
 15 16  1  0
 15 14  1  0
 16 17  1  0
 18 19  2  0
 18 12  1  0
 20 21  1  0
 21 31  2  0
 21 22  1  0
 22 23  2  0
 23 24  1  0
 24 25  1  0
 26 25  1  1
 26 28  1  0
 26 27  1  0
 27 18  1  0
 28 29  1  0
 30 24  2  0
 31 30  1  0
 32 28  2  0
M  END
$$$$
