HKY.pdb
     RDKit          3D

 32 33  0  0  1  0  0  0  0  0999 V2000
    6.9834  -17.5071   18.2008 N   0  0  0  0  0  0  0  0  0  0  0  0
    7.8565  -16.7901   19.1037 C   0  0  1  0  0  0  0  0  0  0  0  0
    7.3569  -15.3730   19.2744 C   0  0  0  0  0  0  0  0  0  0  0  0
    7.9020  -14.5227   18.1892 C   0  0  0  0  0  0  0  0  0  0  0  0
    8.7414  -14.8841   17.1383 C   0  0  0  0  0  0  0  0  0  0  0  0
    8.9659  -13.7766   16.4096 N   0  0  0  0  0  0  0  0  0  0  0  0
    8.2897  -12.7699   16.9901 C   0  0  0  0  0  0  0  0  0  0  0  0
    7.6389  -13.2168   18.0753 N   0  0  0  0  0  0  0  0  0  0  0  0
    7.8462  -17.4972   20.4095 C   0  0  0  0  0  0  0  0  0  0  0  0
    6.7589  -17.9155   20.8580 O   0  0  0  0  0  0  0  0  0  0  0  0
    9.0197  -17.7046   21.1454 N   0  0  0  0  0  0  0  0  0  0  0  0
    9.0959  -18.4274   22.4082 C   0  0  1  0  0  0  0  0  0  0  0  0
   10.2630  -19.3281   22.3528 C   0  0  0  0  0  0  0  0  0  0  0  0
   10.4952  -20.1685   23.5718 C   0  0  0  0  0  0  0  0  0  0  0  0
   11.7368  -20.9994   23.3784 C   0  0  0  0  0  0  0  0  0  0  0  0
   11.9841  -21.9148   24.5659 C   0  0  0  0  0  0  0  0  0  0  0  0
   13.1348  -22.7412   24.2520 N   0  0  0  0  0  0  0  0  0  0  0  0
    9.1338  -17.4714   23.5437 C   0  0  0  0  0  0  0  0  0  0  0  0
    9.9363  -16.5085   23.4678 O   0  0  0  0  0  0  0  0  0  0  0  0
    7.0427  -10.3999   26.6763 O   0  0  0  0  0  0  0  0  0  0  0  0
    7.0581  -11.7933   26.4890 C   0  0  0  0  0  0  0  0  0  0  0  0
    6.5879  -12.6106   27.4930 C   0  0  0  0  0  0  0  0  0  0  0  0
    6.5978  -13.9837   27.3206 C   0  0  0  0  0  0  0  0  0  0  0  0
    7.0656  -14.5789   26.1690 C   0  0  0  0  0  0  0  0  0  0  0  0
    7.0702  -16.0334   26.0044 C   0  0  0  0  0  0  0  0  0  0  0  0
    8.4387  -16.6440   25.8250 C   0  0  2  0  0  0  0  0  0  0  0  0
    8.3357  -17.5737   24.6888 N   0  0  0  0  0  0  0  0  0  0  0  0
    8.8658  -17.4572   26.9910 C   0  0  0  0  0  0  0  0  0  0  0  0
    9.5680  -16.9399   28.0498 O   0  0  0  0  0  0  0  0  0  0  0  0
    7.5330  -13.7460   25.1730 C   0  0  0  0  0  0  0  0  0  0  0  0
    7.5334  -12.3615   25.3225 C   0  0  0  0  0  0  0  0  0  0  0  0
    8.5683  -18.7001   27.0164 O   0  0  0  0  0  0  0  0  0  0  0  0
  2  1  1  6
  2  9  1  0
  2  3  1  0
  4  3  1  0
  4  5  2  0
  6  5  1  0
  7  6  1  0
  8  7  2  0
  8  4  1  0
  9 10  2  0
 11 12  1  0
 11  9  1  0
 12 13  1  6
 13 14  1  0
 15 16  1  0
 15 14  1  0
 16 17  1  0
 18 19  2  0
 18 12  1  0
 20 21  1  0
 21 31  2  0
 21 22  1  0
 22 23  2  0
 23 24  1  0
 24 25  1  0
 26 25  1  1
 26 28  1  0
 26 27  1  0
 27 18  1  0
 28 29  1  0
 30 24  2  0
 31 30  1  0
 32 28  2  0
M  END
$$$$
