HKY.pdb
     RDKit          3D

 32 33  0  0  1  0  0  0  0  0999 V2000
    8.4675  -16.1297   18.6559 N   0  0  0  0  0  0  0  0  0  0  0  0
    8.1347  -14.9726   19.4571 C   0  0  1  0  0  0  0  0  0  0  0  0
    7.0243  -14.1942   18.7878 C   0  0  0  0  0  0  0  0  0  0  0  0
    7.3896  -13.9269   17.3760 C   0  0  0  0  0  0  0  0  0  0  0  0
    8.0803  -12.8397   16.8464 C   0  0  0  0  0  0  0  0  0  0  0  0
    8.1732  -13.0357   15.5194 N   0  0  0  0  0  0  0  0  0  0  0  0
    7.5622  -14.2007   15.2417 C   0  0  0  0  0  0  0  0  0  0  0  0
    7.0821  -14.7497   16.3681 N   0  0  0  0  0  0  0  0  0  0  0  0
    7.6920  -15.4508   20.7915 C   0  0  0  0  0  0  0  0  0  0  0  0
    7.3185  -14.6118   21.6372 O   0  0  0  0  0  0  0  0  0  0  0  0
    7.6835  -16.8118   21.1220 N   0  0  0  0  0  0  0  0  0  0  0  0
    7.2347  -17.3584   22.3958 C   0  0  1  0  0  0  0  0  0  0  0  0
    6.8639  -18.7706   22.1852 C   0  0  0  0  0  0  0  0  0  0  0  0
    6.5731  -19.5594   23.4259 C   0  0  0  0  0  0  0  0  0  0  0  0
    6.3468  -21.0032   23.0602 C   0  0  0  0  0  0  0  0  0  0  0  0
    6.0866  -21.8547   24.2917 C   0  0  0  0  0  0  0  0  0  0  0  0
    5.8592  -23.2163   23.8447 N   0  0  0  0  0  0  0  0  0  0  0  0
    8.2798  -17.1646   23.4326 C   0  0  0  0  0  0  0  0  0  0  0  0
    9.4025  -17.6907   23.2334 O   0  0  0  0  0  0  0  0  0  0  0  0
   11.8182  -14.2680   31.1424 O   0  0  0  0  0  0  0  0  0  0  0  0
   11.0905  -14.4326   29.9506 C   0  0  0  0  0  0  0  0  0  0  0  0
   11.6736  -15.0970   28.8945 C   0  0  0  0  0  0  0  0  0  0  0  0
   10.9675  -15.2654   27.7163 C   0  0  0  0  0  0  0  0  0  0  0  0
    9.6849  -14.7892   27.5508 C   0  0  0  0  0  0  0  0  0  0  0  0
    8.9533  -14.9749   26.2966 C   0  0  0  0  0  0  0  0  0  0  0  0
    9.1216  -16.3344   25.6630 C   0  0  2  0  0  0  0  0  0  0  0  0
    8.0951  -16.4359   24.6132 N   0  0  0  0  0  0  0  0  0  0  0  0
    8.8617  -17.4486   26.6085 C   0  0  0  0  0  0  0  0  0  0  0  0
    9.8608  -18.1545   27.2293 O   0  0  0  0  0  0  0  0  0  0  0  0
    9.1152  -14.1260   28.6184 C   0  0  0  0  0  0  0  0  0  0  0  0
    9.8051  -13.9438   29.8142 C   0  0  0  0  0  0  0  0  0  0  0  0
    7.6510  -17.7713   26.8613 O   0  0  0  0  0  0  0  0  0  0  0  0
  2  1  1  6
  2  9  1  0
  2  3  1  0
  4  3  1  0
  4  5  2  0
  6  5  1  0
  7  6  1  0
  8  7  2  0
  8  4  1  0
  9 10  2  0
 11 12  1  0
 11  9  1  0
 12 13  1  6
 13 14  1  0
 15 16  1  0
 15 14  1  0
 16 17  1  0
 18 19  2  0
 18 12  1  0
 20 21  1  0
 21 31  2  0
 21 22  1  0
 22 23  2  0
 23 24  1  0
 24 25  1  0
 26 25  1  1
 26 28  1  0
 26 27  1  0
 27 18  1  0
 28 29  1  0
 30 24  2  0
 31 30  1  0
 32 28  2  0
M  END
$$$$
