HKY.pdb
     RDKit          3D

 32 33  0  0  1  0  0  0  0  0999 V2000
    7.6903  -16.3205   19.5964 N   0  0  0  0  0  0  0  0  0  0  0  0
    8.9491  -16.3780   20.3063 C   0  0  1  0  0  0  0  0  0  0  0  0
    9.5644  -14.9977   20.3609 C   0  0  0  0  0  0  0  0  0  0  0  0
    8.6278  -14.0151   19.7648 C   0  0  0  0  0  0  0  0  0  0  0  0
    7.3832  -14.2413   19.1824 C   0  0  0  0  0  0  0  0  0  0  0  0
    6.9073  -13.0482   18.7849 N   0  0  0  0  0  0  0  0  0  0  0  0
    7.8249  -12.1210   19.1105 C   0  0  0  0  0  0  0  0  0  0  0  0
    8.8763  -12.7027   19.7080 N   0  0  0  0  0  0  0  0  0  0  0  0
    8.6785  -16.8723   21.6802 C   0  0  0  0  0  0  0  0  0  0  0  0
    7.5510  -16.6754   22.1788 O   0  0  0  0  0  0  0  0  0  0  0  0
    9.6517  -17.5500   22.4255 N   0  0  0  0  0  0  0  0  0  0  0  0
    9.4218  -18.1847   23.7166 C   0  0  1  0  0  0  0  0  0  0  0  0
   10.0647  -19.5124   23.6973 C   0  0  0  0  0  0  0  0  0  0  0  0
    9.9098  -20.3289   24.9445 C   0  0  0  0  0  0  0  0  0  0  0  0
   10.6924  -21.6087   24.8058 C   0  0  0  0  0  0  0  0  0  0  0  0
   10.4381  -22.5456   25.9750 C   0  0  0  0  0  0  0  0  0  0  0  0
   10.9268  -21.8933   27.1755 N   0  0  0  0  0  0  0  0  0  0  0  0
    9.9027  -17.3053   24.8121 C   0  0  0  0  0  0  0  0  0  0  0  0
   11.0499  -16.8074   24.6982 O   0  0  0  0  0  0  0  0  0  0  0  0
    6.2819  -11.0285   25.2621 O   0  0  0  0  0  0  0  0  0  0  0  0
    6.8127  -12.1705   25.8873 C   0  0  0  0  0  0  0  0  0  0  0  0
    8.1608  -12.2177   26.1658 C   0  0  0  0  0  0  0  0  0  0  0  0
    8.6951  -13.3363   26.7810 C   0  0  0  0  0  0  0  0  0  0  0  0
    7.9244  -14.4231   27.1330 C   0  0  0  0  0  0  0  0  0  0  0  0
    8.5069  -15.5990   27.7818 C   0  0  0  0  0  0  0  0  0  0  0  0
    9.6980  -16.1891   27.0670 C   0  0  2  0  0  0  0  0  0  0  0  0
    9.1625  -16.9965   25.9591 N   0  0  0  0  0  0  0  0  0  0  0  0
   10.4807  -17.1187   27.9192 C   0  0  0  0  0  0  0  0  0  0  0  0
   10.5055  -18.4762   27.7227 O   0  0  0  0  0  0  0  0  0  0  0  0
    6.5759  -14.3598   26.8471 C   0  0  0  0  0  0  0  0  0  0  0  0
    6.0144  -13.2456   26.2288 C   0  0  0  0  0  0  0  0  0  0  0  0
   11.1671  -16.6383   28.8846 O   0  0  0  0  0  0  0  0  0  0  0  0
  2  1  1  6
  2  9  1  0
  2  3  1  0
  4  3  1  0
  4  5  2  0
  6  5  1  0
  7  6  1  0
  8  7  2  0
  8  4  1  0
  9 10  2  0
 11 12  1  0
 11  9  1  0
 12 13  1  6
 13 14  1  0
 15 16  1  0
 15 14  1  0
 16 17  1  0
 18 19  2  0
 18 12  1  0
 20 21  1  0
 21 31  2  0
 21 22  1  0
 22 23  2  0
 23 24  1  0
 24 25  1  0
 26 25  1  1
 26 28  1  0
 26 27  1  0
 27 18  1  0
 28 29  1  0
 30 24  2  0
 31 30  1  0
 32 28  2  0
M  END
$$$$
