HKY.pdb
     RDKit          3D

 32 33  0  0  1  0  0  0  0  0999 V2000
   10.8024  -16.2288   18.7847 N   0  0  0  0  0  0  0  0  0  0  0  0
   11.4747  -15.9500   20.0345 C   0  0  1  0  0  0  0  0  0  0  0  0
   11.8374  -14.4833   20.0995 C   0  0  0  0  0  0  0  0  0  0  0  0
   13.1726  -14.2768   19.4892 C   0  0  0  0  0  0  0  0  0  0  0  0
   14.0159  -15.2165   18.9014 C   0  0  0  0  0  0  0  0  0  0  0  0
   15.1157  -14.5615   18.4898 N   0  0  0  0  0  0  0  0  0  0  0  0
   14.9559  -13.2660   18.8121 C   0  0  0  0  0  0  0  0  0  0  0  0
   13.7741  -13.0847   19.4214 N   0  0  0  0  0  0  0  0  0  0  0  0
   10.5476  -16.2974   21.1413 C   0  0  0  0  0  0  0  0  0  0  0  0
    9.3702  -15.8856   21.0908 O   0  0  0  0  0  0  0  0  0  0  0  0
   10.9598  -17.0712   22.2336 N   0  0  0  0  0  0  0  0  0  0  0  0
   10.0670  -17.6639   23.2207 C   0  0  1  0  0  0  0  0  0  0  0  0
   10.3307  -19.1146   23.2668 C   0  0  0  0  0  0  0  0  0  0  0  0
    9.5012  -19.8964   24.2400 C   0  0  0  0  0  0  0  0  0  0  0  0
    9.8132  -21.3635   24.0988 C   0  0  0  0  0  0  0  0  0  0  0  0
    9.0046  -22.2006   25.0760 C   0  0  0  0  0  0  0  0  0  0  0  0
    9.3626  -23.5909   24.8650 N   0  0  0  0  0  0  0  0  0  0  0  0
   10.2310  -16.9860   24.5315 C   0  0  0  0  0  0  0  0  0  0  0  0
   11.3777  -16.5736   24.8345 O   0  0  0  0  0  0  0  0  0  0  0  0
    6.1346  -10.8664   25.2539 O   0  0  0  0  0  0  0  0  0  0  0  0
    6.6246  -12.0771   25.7744 C   0  0  0  0  0  0  0  0  0  0  0  0
    6.0869  -13.2649   25.3304 C   0  0  0  0  0  0  0  0  0  0  0  0
    6.5608  -14.4632   25.8352 C   0  0  0  0  0  0  0  0  0  0  0  0
    7.5639  -14.5208   26.7783 C   0  0  0  0  0  0  0  0  0  0  0  0
    8.0519  -15.7975   27.3026 C   0  0  0  0  0  0  0  0  0  0  0  0
    9.4091  -16.2131   26.7897 C   0  0  2  0  0  0  0  0  0  0  0  0
    9.1937  -16.7777   25.4478 N   0  0  0  0  0  0  0  0  0  0  0  0
   10.0277  -17.2913   27.6007 C   0  0  0  0  0  0  0  0  0  0  0  0
   10.2034  -18.5710   27.1387 O   0  0  0  0  0  0  0  0  0  0  0  0
    8.0917  -13.3220   27.2125 C   0  0  0  0  0  0  0  0  0  0  0  0
    7.6320  -12.1033   26.7199 C   0  0  0  0  0  0  0  0  0  0  0  0
   10.4180  -17.0217   28.7877 O   0  0  0  0  0  0  0  0  0  0  0  0
  2  1  1  6
  2  9  1  0
  2  3  1  0
  4  3  1  0
  4  5  2  0
  6  5  1  0
  7  6  1  0
  8  7  2  0
  8  4  1  0
  9 10  2  0
 11 12  1  0
 11  9  1  0
 12 13  1  1
 13 14  1  0
 15 16  1  0
 15 14  1  0
 16 17  1  0
 18 19  2  0
 18 12  1  0
 20 21  1  0
 21 31  2  0
 21 22  1  0
 22 23  2  0
 23 24  1  0
 24 25  1  0
 26 25  1  1
 26 28  1  0
 26 27  1  0
 27 18  1  0
 28 29  1  0
 30 24  2  0
 31 30  1  0
 32 28  2  0
M  END
$$$$
