HKY.pdb
     RDKit          3D

 32 33  0  0  1  0  0  0  0  0999 V2000
    9.1069  -20.1149   17.7447 N   0  0  0  0  0  0  0  0  0  0  0  0
    9.0566  -18.8035   18.3524 C   0  0  1  0  0  0  0  0  0  0  0  0
    8.1336  -18.8342   19.5500 C   0  0  0  0  0  0  0  0  0  0  0  0
    6.7502  -19.1211   19.1005 C   0  0  0  0  0  0  0  0  0  0  0  0
    6.2834  -19.3429   17.8072 C   0  0  0  0  0  0  0  0  0  0  0  0
    4.9595  -19.5612   17.8943 N   0  0  0  0  0  0  0  0  0  0  0  0
    4.6230  -19.4771   19.1933 C   0  0  0  0  0  0  0  0  0  0  0  0
    5.7090  -19.2091   19.9346 N   0  0  0  0  0  0  0  0  0  0  0  0
   10.4330  -18.4415   18.7764 C   0  0  0  0  0  0  0  0  0  0  0  0
   11.1840  -19.3394   19.2104 O   0  0  0  0  0  0  0  0  0  0  0  0
   10.9058  -17.1253   18.7016 N   0  0  0  0  0  0  0  0  0  0  0  0
   12.2333  -16.6907   19.1160 C   0  0  1  0  0  0  0  0  0  0  0  0
   12.6217  -15.5387   18.2804 C   0  0  0  0  0  0  0  0  0  0  0  0
   14.0460  -15.0908   18.4107 C   0  0  0  0  0  0  0  0  0  0  0  0
   14.2964  -13.9381   17.4736 C   0  0  0  0  0  0  0  0  0  0  0  0
   15.7517  -13.5016   17.5052 C   0  0  0  0  0  0  0  0  0  0  0  0
   15.8764  -12.3259   16.6639 N   0  0  0  0  0  0  0  0  0  0  0  0
   12.2459  -16.4021   20.5725 C   0  0  0  0  0  0  0  0  0  0  0  0
   11.5348  -15.4526   20.9842 O   0  0  0  0  0  0  0  0  0  0  0  0
    6.7855  -16.5389   24.2493 O   0  0  0  0  0  0  0  0  0  0  0  0
    8.1575  -16.8245   24.1356 C   0  0  0  0  0  0  0  0  0  0  0  0
    8.6048  -17.5483   23.0525 C   0  0  0  0  0  0  0  0  0  0  0  0
    9.9529  -17.8358   22.9293 C   0  0  0  0  0  0  0  0  0  0  0  0
   10.8828  -17.4227   23.8586 C   0  0  0  0  0  0  0  0  0  0  0  0
   12.3050  -17.7373   23.7132 C   0  0  0  0  0  0  0  0  0  0  0  0
   13.0988  -16.7228   22.9266 C   0  0  2  0  0  0  0  0  0  0  0  0
   12.9964  -17.1176   21.5126 N   0  0  0  0  0  0  0  0  0  0  0  0
   14.5452  -16.7373   23.2592 C   0  0  0  0  0  0  0  0  0  0  0  0
   15.0497  -16.2442   24.4357 O   0  0  0  0  0  0  0  0  0  0  0  0
   10.4183  -16.6986   24.9376 C   0  0  0  0  0  0  0  0  0  0  0  0
    9.0669  -16.3964   25.0840 C   0  0  0  0  0  0  0  0  0  0  0  0
   15.3662  -17.2316   22.4133 O   0  0  0  0  0  0  0  0  0  0  0  0
  2  1  1  1
  2  9  1  0
  2  3  1  0
  4  3  1  0
  4  5  2  0
  6  5  1  0
  7  6  1  0
  8  7  2  0
  8  4  1  0
  9 10  2  0
 11 12  1  0
 11  9  1  0
 12 13  1  6
 13 14  1  0
 15 16  1  0
 15 14  1  0
 16 17  1  0
 18 19  2  0
 18 12  1  0
 20 21  1  0
 21 31  2  0
 21 22  1  0
 22 23  2  0
 23 24  1  0
 24 25  1  0
 26 25  1  1
 26 28  1  0
 26 27  1  0
 27 18  1  0
 28 29  1  0
 30 24  2  0
 31 30  1  0
 32 28  2  0
M  END
$$$$
