HKY.pdb
     RDKit          3D

 32 33  0  0  1  0  0  0  0  0999 V2000
    8.7354  -14.9070   18.0869 N   0  0  0  0  0  0  0  0  0  0  0  0
    9.3373  -16.0556   18.7272 C   0  0  1  0  0  0  0  0  0  0  0  0
   10.8418  -15.9027   18.7334 C   0  0  0  0  0  0  0  0  0  0  0  0
   11.3815  -16.2711   17.4026 C   0  0  0  0  0  0  0  0  0  0  0  0
   10.6926  -16.7122   16.2755 C   0  0  0  0  0  0  0  0  0  0  0  0
   11.6037  -16.9209   15.3089 N   0  0  0  0  0  0  0  0  0  0  0  0
   12.8095  -16.6196   15.8216 C   0  0  0  0  0  0  0  0  0  0  0  0
   12.6822  -16.2228   17.0972 N   0  0  0  0  0  0  0  0  0  0  0  0
    8.8243  -16.1259   20.1190 C   0  0  0  0  0  0  0  0  0  0  0  0
    8.6116  -15.0615   20.7357 O   0  0  0  0  0  0  0  0  0  0  0  0
    8.5751  -17.3499   20.7525 N   0  0  0  0  0  0  0  0  0  0  0  0
    8.0045  -17.4990   22.0848 C   0  0  1  0  0  0  0  0  0  0  0  0
    7.5304  -18.8885   22.2292 C   0  0  0  0  0  0  0  0  0  0  0  0
    6.9954  -19.2568   23.5798 C   0  0  0  0  0  0  0  0  0  0  0  0
    6.5165  -20.6850   23.5566 C   0  0  0  0  0  0  0  0  0  0  0  0
    5.7957  -21.0509   24.8435 C   0  0  0  0  0  0  0  0  0  0  0  0
    5.3389  -22.4223   24.7168 N   0  0  0  0  0  0  0  0  0  0  0  0
    8.9964  -17.0974   23.1142 C   0  0  0  0  0  0  0  0  0  0  0  0
   10.1947  -17.4226   22.9265 O   0  0  0  0  0  0  0  0  0  0  0  0
    5.0281  -11.9175   27.0889 O   0  0  0  0  0  0  0  0  0  0  0  0
    6.1885  -12.5558   26.6166 C   0  0  0  0  0  0  0  0  0  0  0  0
    7.2212  -12.8054   27.4931 C   0  0  0  0  0  0  0  0  0  0  0  0
    8.3684  -13.4330   27.0402 C   0  0  0  0  0  0  0  0  0  0  0  0
    8.5253  -13.8257   25.7287 C   0  0  0  0  0  0  0  0  0  0  0  0
    9.7467  -14.4871   25.2666 C   0  0  0  0  0  0  0  0  0  0  0  0
    9.6904  -15.9953   25.2766 C   0  0  2  0  0  0  0  0  0  0  0  0
    8.6831  -16.3824   24.2759 N   0  0  0  0  0  0  0  0  0  0  0  0
    9.2230  -16.5473   26.5728 C   0  0  0  0  0  0  0  0  0  0  0  0
    9.9943  -16.5545   27.7072 O   0  0  0  0  0  0  0  0  0  0  0  0
    7.4815  -13.5684   24.8635 C   0  0  0  0  0  0  0  0  0  0  0  0
    6.3170  -12.9384   25.2949 C   0  0  0  0  0  0  0  0  0  0  0  0
    8.0461  -17.0413   26.6427 O   0  0  0  0  0  0  0  0  0  0  0  0
  2  1  1  1
  2  9  1  0
  2  3  1  0
  4  3  1  0
  4  5  2  0
  6  5  1  0
  7  6  1  0
  8  7  2  0
  8  4  1  0
  9 10  2  0
 11 12  1  0
 11  9  1  0
 12 13  1  1
 13 14  1  0
 15 16  1  0
 15 14  1  0
 16 17  1  0
 18 19  2  0
 18 12  1  0
 20 21  1  0
 21 31  2  0
 21 22  1  0
 22 23  2  0
 23 24  1  0
 24 25  1  0
 26 25  1  1
 26 28  1  0
 26 27  1  0
 27 18  1  0
 28 29  1  0
 30 24  2  0
 31 30  1  0
 32 28  2  0
M  END
$$$$
