HKY.pdb
     RDKit          3D

 32 33  0  0  1  0  0  0  0  0999 V2000
    8.3437  -16.2321   18.5855 N   0  0  0  0  0  0  0  0  0  0  0  0
    8.0913  -15.0894   19.4352 C   0  0  1  0  0  0  0  0  0  0  0  0
    7.0055  -14.2324   18.8239 C   0  0  0  0  0  0  0  0  0  0  0  0
    7.3761  -13.8839   17.4314 C   0  0  0  0  0  0  0  0  0  0  0  0
    8.0087  -12.7362   16.9601 C   0  0  0  0  0  0  0  0  0  0  0  0
    8.1338  -12.8695   15.6279 N   0  0  0  0  0  0  0  0  0  0  0  0
    7.5980  -14.0557   15.2909 C   0  0  0  0  0  0  0  0  0  0  0  0
    7.1342  -14.6798   16.3846 N   0  0  0  0  0  0  0  0  0  0  0  0
    7.6591  -15.5924   20.7638 C   0  0  0  0  0  0  0  0  0  0  0  0
    7.3825  -14.7667   21.6583 O   0  0  0  0  0  0  0  0  0  0  0  0
    7.5549  -16.9624   21.0358 N   0  0  0  0  0  0  0  0  0  0  0  0
    7.1312  -17.5305   22.3088 C   0  0  1  0  0  0  0  0  0  0  0  0
    6.8495  -18.9637   22.1017 C   0  0  0  0  0  0  0  0  0  0  0  0
    5.5147  -19.4417   22.5876 C   0  0  0  0  0  0  0  0  0  0  0  0
    4.6848  -19.8891   21.4126 C   0  0  0  0  0  0  0  0  0  0  0  0
    3.2781  -20.2741   21.8398 C   0  0  0  0  0  0  0  0  0  0  0  0
    2.5523  -20.6777   20.6499 N   0  0  0  0  0  0  0  0  0  0  0  0
    8.1548  -17.2687   23.3521 C   0  0  0  0  0  0  0  0  0  0  0  0
    9.3473  -17.5556   23.0830 O   0  0  0  0  0  0  0  0  0  0  0  0
   11.4383  -14.3591   31.1687 O   0  0  0  0  0  0  0  0  0  0  0  0
   10.7765  -14.5898   29.9499 C   0  0  0  0  0  0  0  0  0  0  0  0
    9.7324  -13.7680   29.5871 C   0  0  0  0  0  0  0  0  0  0  0  0
    9.0731  -13.9850   28.3898 C   0  0  0  0  0  0  0  0  0  0  0  0
    9.4213  -15.0045   27.5305 C   0  0  0  0  0  0  0  0  0  0  0  0
    8.7115  -15.2204   26.2686 C   0  0  0  0  0  0  0  0  0  0  0  0
    8.8904  -16.5947   25.6709 C   0  0  2  0  0  0  0  0  0  0  0  0
    7.8773  -16.7245   24.6114 N   0  0  0  0  0  0  0  0  0  0  0  0
    8.6211  -17.6858   26.6404 C   0  0  0  0  0  0  0  0  0  0  0  0
    7.3576  -18.1263   26.9426 O   0  0  0  0  0  0  0  0  0  0  0  0
   10.4692  -15.8187   27.9088 C   0  0  0  0  0  0  0  0  0  0  0  0
   11.1484  -15.6209   29.1082 C   0  0  0  0  0  0  0  0  0  0  0  0
    9.6094  -18.2466   27.2259 O   0  0  0  0  0  0  0  0  0  0  0  0
  2  1  1  6
  2  9  1  0
  2  3  1  0
  4  3  1  0
  4  5  2  0
  6  5  1  0
  7  6  1  0
  8  7  2  0
  8  4  1  0
  9 10  2  0
 11 12  1  0
 11  9  1  0
 12 13  1  6
 13 14  1  0
 15 16  1  0
 15 14  1  0
 16 17  1  0
 18 19  2  0
 18 12  1  0
 20 21  1  0
 21 31  2  0
 21 22  1  0
 22 23  2  0
 23 24  1  0
 24 25  1  0
 26 25  1  1
 26 28  1  0
 26 27  1  0
 27 18  1  0
 28 29  1  0
 30 24  2  0
 31 30  1  0
 32 28  2  0
M  END
$$$$
