HKY.pdb
     RDKit          3D

 32 33  0  0  1  0  0  0  0  0999 V2000
   11.4944  -14.0515   17.8814 N   0  0  0  0  0  0  0  0  0  0  0  0
   12.0254  -14.9823   18.8527 C   0  0  1  0  0  0  0  0  0  0  0  0
   13.2271  -14.3708   19.5373 C   0  0  0  0  0  0  0  0  0  0  0  0
   14.4662  -14.8337   18.8676 C   0  0  0  0  0  0  0  0  0  0  0  0
   15.0300  -14.3874   17.6750 C   0  0  0  0  0  0  0  0  0  0  0  0
   16.1501  -15.1031   17.4722 N   0  0  0  0  0  0  0  0  0  0  0  0
   16.2718  -15.9590   18.5019 C   0  0  0  0  0  0  0  0  0  0  0  0
   15.2494  -15.8007   19.3565 N   0  0  0  0  0  0  0  0  0  0  0  0
   10.9593  -15.2656   19.8468 C   0  0  0  0  0  0  0  0  0  0  0  0
   10.2034  -14.3366   20.1989 O   0  0  0  0  0  0  0  0  0  0  0  0
   10.7826  -16.5421   20.3955 N   0  0  0  0  0  0  0  0  0  0  0  0
    9.8025  -16.8823   21.4184 C   0  0  1  0  0  0  0  0  0  0  0  0
    9.3380  -18.2603   21.1702 C   0  0  0  0  0  0  0  0  0  0  0  0
    8.4227  -18.4373   19.9967 C   0  0  0  0  0  0  0  0  0  0  0  0
    8.0172  -19.8844   19.8914 C   0  0  0  0  0  0  0  0  0  0  0  0
    7.0506  -20.1088   18.7405 C   0  0  0  0  0  0  0  0  0  0  0  0
    6.7563  -21.5286   18.6840 N   0  0  0  0  0  0  0  0  0  0  0  0
   10.3836  -16.6834   22.7703 C   0  0  0  0  0  0  0  0  0  0  0  0
   11.5706  -17.0497   22.9536 O   0  0  0  0  0  0  0  0  0  0  0  0
   10.6325  -14.9324   31.5451 O   0  0  0  0  0  0  0  0  0  0  0  0
   10.2835  -15.0244   30.1862 C   0  0  0  0  0  0  0  0  0  0  0  0
    9.8730  -16.2375   29.6793 C   0  0  0  0  0  0  0  0  0  0  0  0
    9.5269  -16.3408   28.3434 C   0  0  0  0  0  0  0  0  0  0  0  0
    9.5759  -15.2649   27.4837 C   0  0  0  0  0  0  0  0  0  0  0  0
    9.2077  -15.3928   26.0727 C   0  0  0  0  0  0  0  0  0  0  0  0
   10.2906  -15.9584   25.1865 C   0  0  2  0  0  0  0  0  0  0  0  0
    9.6962  -16.1159   23.8494 N   0  0  0  0  0  0  0  0  0  0  0  0
   10.7334  -17.3111   25.6072 C   0  0  0  0  0  0  0  0  0  0  0  0
   10.0025  -18.4475   25.3702 O   0  0  0  0  0  0  0  0  0  0  0  0
    9.9892  -14.0569   28.0072 C   0  0  0  0  0  0  0  0  0  0  0  0
   10.3426  -13.9273   29.3479 C   0  0  0  0  0  0  0  0  0  0  0  0
   11.8486  -17.4305   26.2204 O   0  0  0  0  0  0  0  0  0  0  0  0
  2  1  1  6
  2  9  1  0
  2  3  1  0
  4  3  1  0
  4  5  2  0
  6  5  1  0
  7  6  1  0
  8  7  2  0
  8  4  1  0
  9 10  2  0
 11 12  1  0
 11  9  1  0
 12 13  1  6
 13 14  1  0
 15 16  1  0
 15 14  1  0
 16 17  1  0
 18 19  2  0
 18 12  1  0
 20 21  1  0
 21 31  2  0
 21 22  1  0
 22 23  2  0
 23 24  1  0
 24 25  1  0
 26 25  1  1
 26 28  1  0
 26 27  1  0
 27 18  1  0
 28 29  1  0
 30 24  2  0
 31 30  1  0
 32 28  2  0
M  END
$$$$
