HKY.pdb
     RDKit          3D

 32 33  0  0  1  0  0  0  0  0999 V2000
    7.0890  -20.7531   19.3344 N   0  0  0  0  0  0  0  0  0  0  0  0
    6.5482  -20.0351   20.4674 C   0  0  1  0  0  0  0  0  0  0  0  0
    6.7248  -20.8602   21.7224 C   0  0  0  0  0  0  0  0  0  0  0  0
    5.9556  -22.1214   21.5970 C   0  0  0  0  0  0  0  0  0  0  0  0
    4.6825  -22.3156   21.0669 C   0  0  0  0  0  0  0  0  0  0  0  0
    4.4056  -23.6276   21.1675 N   0  0  0  0  0  0  0  0  0  0  0  0
    5.4690  -24.2199   21.7385 C   0  0  0  0  0  0  0  0  0  0  0  0
    6.4177  -23.3084   22.0032 N   0  0  0  0  0  0  0  0  0  0  0  0
    7.2848  -18.7516   20.5910 C   0  0  0  0  0  0  0  0  0  0  0  0
    8.5243  -18.7816   20.7368 O   0  0  0  0  0  0  0  0  0  0  0  0
    6.6265  -17.5161   20.5483 N   0  0  0  0  0  0  0  0  0  0  0  0
    7.2540  -16.2269   20.8073 C   0  0  1  0  0  0  0  0  0  0  0  0
    6.3838  -15.1724   20.2532 C   0  0  0  0  0  0  0  0  0  0  0  0
    7.0009  -13.8111   20.1417 C   0  0  0  0  0  0  0  0  0  0  0  0
    7.8502  -13.7463   18.8991 C   0  0  0  0  0  0  0  0  0  0  0  0
    8.5240  -12.3917   18.7560 C   0  0  0  0  0  0  0  0  0  0  0  0
    9.3350  -12.4289   17.5534 N   0  0  0  0  0  0  0  0  0  0  0  0
    7.5273  -16.0730   22.2586 C   0  0  0  0  0  0  0  0  0  0  0  0
    6.6472  -16.4688   23.0621 O   0  0  0  0  0  0  0  0  0  0  0  0
    6.6750  -11.5708   29.1922 O   0  0  0  0  0  0  0  0  0  0  0  0
    6.8287  -12.4105   28.0749 C   0  0  0  0  0  0  0  0  0  0  0  0
    8.0662  -12.9532   27.8084 C   0  0  0  0  0  0  0  0  0  0  0  0
    8.2300  -13.7812   26.7117 C   0  0  0  0  0  0  0  0  0  0  0  0
    7.1918  -14.0915   25.8604 C   0  0  0  0  0  0  0  0  0  0  0  0
    7.3836  -14.9679   24.7037 C   0  0  0  0  0  0  0  0  0  0  0  0
    8.7913  -14.9970   24.1603 C   0  0  2  0  0  0  0  0  0  0  0  0
    8.6983  -15.5174   22.7869 N   0  0  0  0  0  0  0  0  0  0  0  0
    9.6770  -15.9304   24.9001 C   0  0  0  0  0  0  0  0  0  0  0  0
   10.3897  -15.5648   26.0138 O   0  0  0  0  0  0  0  0  0  0  0  0
    5.9586  -13.5396   26.1414 C   0  0  0  0  0  0  0  0  0  0  0  0
    5.7682  -12.7037   27.2387 C   0  0  0  0  0  0  0  0  0  0  0  0
    9.7856  -17.1346   24.4853 O   0  0  0  0  0  0  0  0  0  0  0  0
  2  1  1  6
  2  9  1  0
  2  3  1  0
  4  3  1  0
  4  5  2  0
  6  5  1  0
  7  6  1  0
  8  7  2  0
  8  4  1  0
  9 10  2  0
 11 12  1  0
 11  9  1  0
 12 13  1  1
 13 14  1  0
 15 16  1  0
 15 14  1  0
 16 17  1  0
 18 19  2  0
 18 12  1  0
 20 21  1  0
 21 31  2  0
 21 22  1  0
 22 23  2  0
 23 24  1  0
 24 25  1  0
 26 25  1  1
 26 28  1  0
 26 27  1  0
 27 18  1  0
 28 29  1  0
 30 24  2  0
 31 30  1  0
 32 28  2  0
M  END
$$$$
