HKY.pdb
     RDKit          3D

 32 33  0  0  1  0  0  0  0  0999 V2000
   10.4596  -17.1659   14.9283 N   0  0  0  0  0  0  0  0  0  0  0  0
   11.3193  -17.2151   16.0902 C   0  0  1  0  0  0  0  0  0  0  0  0
   12.1417  -15.9484   16.1672 C   0  0  0  0  0  0  0  0  0  0  0  0
   13.2586  -16.0244   15.1952 C   0  0  0  0  0  0  0  0  0  0  0  0
   14.5727  -15.5876   15.3433 C   0  0  0  0  0  0  0  0  0  0  0  0
   15.2172  -15.8702   14.1975 N   0  0  0  0  0  0  0  0  0  0  0  0
   14.3328  -16.4594   13.3739 C   0  0  0  0  0  0  0  0  0  0  0  0
   13.1370  -16.5569   13.9749 N   0  0  0  0  0  0  0  0  0  0  0  0
   10.4576  -17.3396   17.2932 C   0  0  0  0  0  0  0  0  0  0  0  0
    9.3253  -16.8141   17.2785 O   0  0  0  0  0  0  0  0  0  0  0  0
   10.8820  -18.0281   18.4367 N   0  0  0  0  0  0  0  0  0  0  0  0
   10.0743  -18.2409   19.6305 C   0  0  1  0  0  0  0  0  0  0  0  0
   10.2220  -19.6502   20.0406 C   0  0  0  0  0  0  0  0  0  0  0  0
    9.6088  -20.6633   19.1219 C   0  0  0  0  0  0  0  0  0  0  0  0
    9.8755  -22.0475   19.6532 C   0  0  0  0  0  0  0  0  0  0  0  0
    9.3524  -23.1163   18.7080 C   0  0  0  0  0  0  0  0  0  0  0  0
    9.6082  -24.4072   19.3192 N   0  0  0  0  0  0  0  0  0  0  0  0
   10.4560  -17.2694   20.6865 C   0  0  0  0  0  0  0  0  0  0  0  0
   11.6711  -16.9701   20.7908 O   0  0  0  0  0  0  0  0  0  0  0  0
    7.4263  -12.2063   17.8155 O   0  0  0  0  0  0  0  0  0  0  0  0
    7.7990  -12.8097   19.0295 C   0  0  0  0  0  0  0  0  0  0  0  0
    6.9761  -13.7646   19.5847 C   0  0  0  0  0  0  0  0  0  0  0  0
    7.3320  -14.3658   20.7793 C   0  0  0  0  0  0  0  0  0  0  0  0
    8.4931  -14.0455   21.4488 C   0  0  0  0  0  0  0  0  0  0  0  0
    8.8530  -14.6905   22.7127 C   0  0  0  0  0  0  0  0  0  0  0  0
    9.9621  -15.7088   22.6082 C   0  0  2  0  0  0  0  0  0  0  0  0
    9.5522  -16.6679   21.5699 N   0  0  0  0  0  0  0  0  0  0  0  0
   10.1430  -16.4957   23.8537 C   0  0  0  0  0  0  0  0  0  0  0  0
    9.8129  -17.8231   23.9573 O   0  0  0  0  0  0  0  0  0  0  0  0
    9.3063  -13.0871   20.8792 C   0  0  0  0  0  0  0  0  0  0  0  0
    8.9703  -12.4678   19.6782 C   0  0  0  0  0  0  0  0  0  0  0  0
   10.6293  -15.9149   24.8833 O   0  0  0  0  0  0  0  0  0  0  0  0
  2  1  1  6
  2  9  1  0
  2  3  1  0
  4  3  1  0
  4  5  2  0
  6  5  1  0
  7  6  1  0
  8  7  2  0
  8  4  1  0
  9 10  2  0
 11 12  1  0
 11  9  1  0
 12 13  1  1
 13 14  1  0
 15 16  1  0
 15 14  1  0
 16 17  1  0
 18 19  2  0
 18 12  1  0
 20 21  1  0
 21 31  2  0
 21 22  1  0
 22 23  2  0
 23 24  1  0
 24 25  1  0
 26 25  1  1
 26 28  1  0
 26 27  1  0
 27 18  1  0
 28 29  1  0
 30 24  2  0
 31 30  1  0
 32 28  2  0
M  END
$$$$
