HKY.pdb
     RDKit          3D

 32 33  0  0  1  0  0  0  0  0999 V2000
   10.8489  -15.1457   17.3541 N   0  0  0  0  0  0  0  0  0  0  0  0
   11.5088  -15.3599   18.6231 C   0  0  1  0  0  0  0  0  0  0  0  0
   12.3737  -14.1642   18.9535 C   0  0  0  0  0  0  0  0  0  0  0  0
   13.7633  -14.4203   18.5047 C   0  0  0  0  0  0  0  0  0  0  0  0
   14.9164  -14.5518   19.2746 C   0  0  0  0  0  0  0  0  0  0  0  0
   15.9364  -14.7769   18.4278 N   0  0  0  0  0  0  0  0  0  0  0  0
   15.4304  -14.7838   17.1822 C   0  0  0  0  0  0  0  0  0  0  0  0
   14.1066  -14.5672   17.2210 N   0  0  0  0  0  0  0  0  0  0  0  0
   10.4612  -15.5360   19.6607 C   0  0  0  0  0  0  0  0  0  0  0  0
    9.7012  -14.5791   19.9161 O   0  0  0  0  0  0  0  0  0  0  0  0
   10.3062  -16.7423   20.3553 N   0  0  0  0  0  0  0  0  0  0  0  0
    9.3490  -16.9693   21.4301 C   0  0  1  0  0  0  0  0  0  0  0  0
    8.7833  -18.3216   21.2640 C   0  0  0  0  0  0  0  0  0  0  0  0
    7.9141  -18.8058   22.3848 C   0  0  0  0  0  0  0  0  0  0  0  0
    7.4422  -20.2046   22.0844 C   0  0  0  0  0  0  0  0  0  0  0  0
    6.5152  -20.7241   23.1708 C   0  0  0  0  0  0  0  0  0  0  0  0
    6.1120  -22.0676   22.7993 N   0  0  0  0  0  0  0  0  0  0  0  0
    9.9980  -16.7521   22.7477 C   0  0  0  0  0  0  0  0  0  0  0  0
   11.1459  -17.2319   22.9177 O   0  0  0  0  0  0  0  0  0  0  0  0
   10.4198  -14.9795   31.4999 O   0  0  0  0  0  0  0  0  0  0  0  0
   10.1020  -14.9924   30.1304 C   0  0  0  0  0  0  0  0  0  0  0  0
    9.4354  -16.0778   29.6063 C   0  0  0  0  0  0  0  0  0  0  0  0
    9.1170  -16.1023   28.2597 C   0  0  0  0  0  0  0  0  0  0  0  0
    9.4433  -15.0709   27.4061 C   0  0  0  0  0  0  0  0  0  0  0  0
    9.1000  -15.1143   25.9837 C   0  0  0  0  0  0  0  0  0  0  0  0
   10.0513  -15.9158   25.1290 C   0  0  2  0  0  0  0  0  0  0  0  0
    9.4150  -16.0496   23.8087 N   0  0  0  0  0  0  0  0  0  0  0  0
   10.2578  -17.2963   25.6334 C   0  0  0  0  0  0  0  0  0  0  0  0
    9.3296  -18.2957   25.4866 O   0  0  0  0  0  0  0  0  0  0  0  0
   10.1109  -13.9910   27.9469 C   0  0  0  0  0  0  0  0  0  0  0  0
   10.4424  -13.9427   29.2985 C   0  0  0  0  0  0  0  0  0  0  0  0
   11.3510  -17.5747   26.2346 O   0  0  0  0  0  0  0  0  0  0  0  0
  2  1  1  6
  2  9  1  0
  2  3  1  0
  4  3  1  0
  4  5  2  0
  6  5  1  0
  7  6  1  0
  8  7  2  0
  8  4  1  0
  9 10  2  0
 11 12  1  0
 11  9  1  0
 12 13  1  1
 13 14  1  0
 15 16  1  0
 15 14  1  0
 16 17  1  0
 18 19  2  0
 18 12  1  0
 20 21  1  0
 21 31  2  0
 21 22  1  0
 22 23  2  0
 23 24  1  0
 24 25  1  0
 26 25  1  1
 26 28  1  0
 26 27  1  0
 27 18  1  0
 28 29  1  0
 30 24  2  0
 31 30  1  0
 32 28  2  0
M  END
$$$$
