HKY.pdb
     RDKit          3D

 32 33  0  0  1  0  0  0  0  0999 V2000
   11.4077  -18.3657   19.6345 N   0  0  0  0  0  0  0  0  0  0  0  0
   12.4953  -17.5435   20.1171 C   0  0  1  0  0  0  0  0  0  0  0  0
   13.2338  -16.9391   18.9440 C   0  0  0  0  0  0  0  0  0  0  0  0
   13.8862  -18.0167   18.1623 C   0  0  0  0  0  0  0  0  0  0  0  0
   15.0627  -18.7067   18.4444 C   0  0  0  0  0  0  0  0  0  0  0  0
   15.2537  -19.5906   17.4492 N   0  0  0  0  0  0  0  0  0  0  0  0
   14.2327  -19.4503   16.5858 C   0  0  0  0  0  0  0  0  0  0  0  0
   13.3951  -18.4930   17.0136 N   0  0  0  0  0  0  0  0  0  0  0  0
   11.9174  -16.4706   20.9657 C   0  0  0  0  0  0  0  0  0  0  0  0
   12.6685  -15.5663   21.3857 O   0  0  0  0  0  0  0  0  0  0  0  0
   10.5585  -16.4491   21.3041 N   0  0  0  0  0  0  0  0  0  0  0  0
    9.9340  -15.4736   22.1879 C   0  0  1  0  0  0  0  0  0  0  0  0
    8.7710  -14.8965   21.4873 C   0  0  0  0  0  0  0  0  0  0  0  0
    9.0475  -14.3217   20.1311 C   0  0  0  0  0  0  0  0  0  0  0  0
    7.7714  -13.7694   19.5515 C   0  0  0  0  0  0  0  0  0  0  0  0
    7.9897  -13.2153   18.1533 C   0  0  0  0  0  0  0  0  0  0  0  0
    6.7115  -12.7281   17.6690 N   0  0  0  0  0  0  0  0  0  0  0  0
    9.5938  -16.1049   23.4881 C   0  0  0  0  0  0  0  0  0  0  0  0
    9.0860  -17.2530   23.4628 O   0  0  0  0  0  0  0  0  0  0  0  0
    5.8251  -10.3852   26.8405 O   0  0  0  0  0  0  0  0  0  0  0  0
    6.2881  -11.6815   26.5542 C   0  0  0  0  0  0  0  0  0  0  0  0
    5.3844  -12.6475   26.1705 C   0  0  0  0  0  0  0  0  0  0  0  0
    5.8280  -13.9272   25.8860 C   0  0  0  0  0  0  0  0  0  0  0  0
    7.1565  -14.2831   25.9715 C   0  0  0  0  0  0  0  0  0  0  0  0
    7.6078  -15.6423   25.6685 C   0  0  0  0  0  0  0  0  0  0  0  0
    9.0683  -15.8996   25.9486 C   0  0  2  0  0  0  0  0  0  0  0  0
    9.8021  -15.5051   24.7354 N   0  0  0  0  0  0  0  0  0  0  0  0
    9.3699  -17.3361   26.1688 C   0  0  0  0  0  0  0  0  0  0  0  0
   10.0384  -18.1112   25.2555 O   0  0  0  0  0  0  0  0  0  0  0  0
    8.0488  -13.3037   26.3573 C   0  0  0  0  0  0  0  0  0  0  0  0
    7.6274  -12.0090   26.6488 C   0  0  0  0  0  0  0  0  0  0  0  0
    8.9914  -17.8841   27.2599 O   0  0  0  0  0  0  0  0  0  0  0  0
  2  1  1  6
  2  9  1  0
  2  3  1  0
  4  3  1  0
  4  5  2  0
  6  5  1  0
  7  6  1  0
  8  7  2  0
  8  4  1  0
  9 10  2  0
 11 12  1  0
 11  9  1  0
 12 13  1  6
 13 14  1  0
 15 16  1  0
 15 14  1  0
 16 17  1  0
 18 19  2  0
 18 12  1  0
 20 21  1  0
 21 31  2  0
 21 22  1  0
 22 23  2  0
 23 24  1  0
 24 25  1  0
 26 25  1  6
 26 28  1  0
 26 27  1  0
 27 18  1  0
 28 29  1  0
 30 24  2  0
 31 30  1  0
 32 28  2  0
M  END
$$$$
