WNA.pdb
     RDKit          3D

 28 29  0  0  1  0  0  0  0  0999 V2000
    6.8684  -17.4843   24.0615 N   0  0  0  0  0  0  0  0  0  0  0  0
    7.9132  -16.5089   24.2348 C   0  0  1  0  0  0  0  0  0  0  0  0
    7.9167  -15.9020   25.5999 C   0  0  0  0  0  0  0  0  0  0  0  0
    6.8661  -14.8757   25.7748 C   0  0  0  0  0  0  0  0  0  0  0  0
    5.5396  -15.1623   26.1053 C   0  0  0  0  0  0  0  0  0  0  0  0
    4.8367  -14.0225   26.2113 N   0  0  0  0  0  0  0  0  0  0  0  0
    5.6523  -12.9761   25.9608 C   0  0  0  0  0  0  0  0  0  0  0  0
    5.4512  -11.6151   25.9301 C   0  0  0  0  0  0  0  0  0  0  0  0
    6.5100  -10.7757   25.6269 C   0  0  0  0  0  0  0  0  0  0  0  0
    7.7567  -11.2691   25.3556 C   0  0  0  0  0  0  0  0  0  0  0  0
    7.9406  -12.6505   25.3919 C   0  0  0  0  0  0  0  0  0  0  0  0
    6.9068  -13.5019   25.6907 C   0  0  0  0  0  0  0  0  0  0  0  0
    9.1895  -17.0966   23.8272 C   0  0  0  0  0  0  0  0  0  0  0  0
    9.2974  -18.3478   23.8075 O   0  0  0  0  0  0  0  0  0  0  0  0
   11.7865  -17.5661   20.7289 N   0  0  0  0  0  0  0  0  0  0  0  0
   12.2858  -16.2812   21.1671 C   0  0  0  0  0  0  0  0  0  0  0  0
   12.4057  -15.4147   20.2671 O   0  0  0  0  0  0  0  0  0  0  0  0
   12.5995  -16.1137   22.5950 C   0  0  0  0  0  0  0  0  0  0  0  0
   11.6971  -16.9159   23.4560 C   0  0  2  0  0  0  0  0  0  0  0  0
   10.3312  -16.3621   23.4477 N   0  0  0  0  0  0  0  0  0  0  0  0
   12.1977  -16.8471   24.8718 C   0  0  0  0  0  0  0  0  0  0  0  0
   13.2922  -17.3031   25.2406 O   0  0  0  0  0  0  0  0  0  0  0  0
   11.3036  -14.8952   27.9599 C   0  0  0  0  0  0  0  0  0  0  0  0
   11.8108  -16.1499   27.2809 C   0  0  2  0  0  0  0  0  0  0  0  0
   11.4159  -16.2324   25.9087 N   0  0  0  0  0  0  0  0  0  0  0  0
   11.4665  -17.3489   28.0543 C   0  0  0  0  0  0  0  0  0  0  0  0
   11.9023  -17.5120   29.3814 O   0  0  0  0  0  0  0  0  0  0  0  0
   10.7783  -18.2807   27.5906 O   0  0  0  0  0  0  0  0  0  0  0  0
  2  1  1  1
  3  2  1  0
  4  5  2  0
  4  3  1  0
  6  5  1  0
  7 12  2  0
  7  6  1  0
  8  7  1  0
  9 10  1  0
  9  8  2  0
 10 11  2  0
 11 12  1  0
 12  4  1  0
 13 14  2  0
 13  2  1  0
 16 17  2  0
 16 15  1  0
 18 16  1  0
 19 18  1  6
 19 20  1  0
 20 13  1  0
 21 25  1  0
 21 19  1  0
 22 21  2  0
 24 23  1  1
 24 25  1  0
 24 26  1  0
 26 27  1  0
 28 26  2  0
M  END
$$$$
