WNA.pdb
     RDKit          3D

 28 29  0  0  1  0  0  0  0  0999 V2000
    6.1918  -18.0448   23.9043 N   0  0  0  0  0  0  0  0  0  0  0  0
    7.1386  -16.9968   23.6244 C   0  0  1  0  0  0  0  0  0  0  0  0
    7.8202  -16.4900   24.8534 C   0  0  0  0  0  0  0  0  0  0  0  0
    7.0903  -15.3760   25.4967 C   0  0  0  0  0  0  0  0  0  0  0  0
    6.0288  -15.5473   26.3883 C   0  0  0  0  0  0  0  0  0  0  0  0
    5.5898  -14.3514   26.8142 N   0  0  0  0  0  0  0  0  0  0  0  0
    6.3253  -13.3791   26.2340 C   0  0  0  0  0  0  0  0  0  0  0  0
    6.2961  -12.0055   26.3137 C   0  0  0  0  0  0  0  0  0  0  0  0
    7.1988  -11.2601   25.5741 C   0  0  0  0  0  0  0  0  0  0  0  0
    8.1228  -11.8587   24.7623 C   0  0  0  0  0  0  0  0  0  0  0  0
    8.1369  -13.2511   24.6953 C   0  0  0  0  0  0  0  0  0  0  0  0
    7.2529  -14.0109   25.4195 C   0  0  0  0  0  0  0  0  0  0  0  0
    8.0453  -17.4408   22.5655 C   0  0  0  0  0  0  0  0  0  0  0  0
    8.1523  -18.6720   22.3412 O   0  0  0  0  0  0  0  0  0  0  0  0
    8.1214  -17.6862   18.6970 N   0  0  0  0  0  0  0  0  0  0  0  0
    9.0907  -16.6396   18.4570 C   0  0  0  0  0  0  0  0  0  0  0  0
    9.1764  -16.2475   17.2678 O   0  0  0  0  0  0  0  0  0  0  0  0
    9.8681  -16.1436   19.6036 C   0  0  0  0  0  0  0  0  0  0  0  0
    9.7955  -17.0679   20.7609 C   0  0  2  0  0  0  0  0  0  0  0  0
    8.8248  -16.5861   21.7599 N   0  0  0  0  0  0  0  0  0  0  0  0
   11.1414  -17.1070   21.4295 C   0  0  0  0  0  0  0  0  0  0  0  0
   12.1919  -17.4267   20.8497 O   0  0  0  0  0  0  0  0  0  0  0  0
   12.8754  -15.6594   24.3267 C   0  0  0  0  0  0  0  0  0  0  0  0
   12.5076  -16.9117   23.5590 C   0  0  2  0  0  0  0  0  0  0  0  0
   11.2934  -16.7670   22.8171 N   0  0  0  0  0  0  0  0  0  0  0  0
   12.5141  -18.0914   24.4323 C   0  0  0  0  0  0  0  0  0  0  0  0
   13.6581  -18.4494   25.1677 O   0  0  0  0  0  0  0  0  0  0  0  0
   11.5230  -18.8361   24.5735 O   0  0  0  0  0  0  0  0  0  0  0  0
  2  1  1  1
  3  2  1  0
  4  5  2  0
  4  3  1  0
  6  5  1  0
  7 12  2  0
  7  6  1  0
  8  7  1  0
  9 10  1  0
  9  8  2  0
 10 11  2  0
 11 12  1  0
 12  4  1  0
 13 14  2  0
 13  2  1  0
 16 17  2  0
 16 15  1  0
 18 16  1  0
 19 18  1  6
 19 20  1  0
 20 13  1  0
 21 25  1  0
 21 19  1  0
 22 21  2  0
 24 23  1  1
 24 25  1  0
 24 26  1  0
 26 27  1  0
 28 26  2  0
M  END
$$$$
