WNA.pdb
     RDKit          3D

 28 29  0  0  1  0  0  0  0  0999 V2000
    7.3055  -17.3428   23.7020 N   0  0  0  0  0  0  0  0  0  0  0  0
    8.2743  -16.3863   24.1708 C   0  0  1  0  0  0  0  0  0  0  0  0
    8.0145  -15.9400   25.5726 C   0  0  0  0  0  0  0  0  0  0  0  0
    6.9683  -14.8980   25.6589 C   0  0  0  0  0  0  0  0  0  0  0  0
    5.6588  -15.1370   26.0822 C   0  0  0  0  0  0  0  0  0  0  0  0
    4.9566  -13.9920   26.0701 N   0  0  0  0  0  0  0  0  0  0  0  0
    5.7560  -12.9884   25.6498 C   0  0  0  0  0  0  0  0  0  0  0  0
    5.5481  -11.6426   25.4514 C   0  0  0  0  0  0  0  0  0  0  0  0
    6.5891  -10.8515   24.9952 C   0  0  0  0  0  0  0  0  0  0  0  0
    7.8246  -11.3781   24.7354 C   0  0  0  0  0  0  0  0  0  0  0  0
    8.0157  -12.7433   24.9428 C   0  0  0  0  0  0  0  0  0  0  0  0
    6.9996  -13.5470   25.3952 C   0  0  0  0  0  0  0  0  0  0  0  0
    9.6191  -16.9144   23.9401 C   0  0  0  0  0  0  0  0  0  0  0  0
    9.7828  -18.1596   23.9250 O   0  0  0  0  0  0  0  0  0  0  0  0
   12.9243  -17.0035   21.0437 N   0  0  0  0  0  0  0  0  0  0  0  0
   12.8613  -15.7514   21.7653 C   0  0  0  0  0  0  0  0  0  0  0  0
   12.5825  -14.7435   21.0713 O   0  0  0  0  0  0  0  0  0  0  0  0
   13.1240  -15.7757   23.2129 C   0  0  0  0  0  0  0  0  0  0  0  0
   12.1433  -16.6197   23.9376 C   0  0  2  0  0  0  0  0  0  0  0  0
   10.7696  -16.1277   23.7296 N   0  0  0  0  0  0  0  0  0  0  0  0
   12.4303  -16.5321   25.4107 C   0  0  0  0  0  0  0  0  0  0  0  0
   13.5032  -16.8834   25.9276 O   0  0  0  0  0  0  0  0  0  0  0  0
   10.8646  -14.7952   28.3696 C   0  0  0  0  0  0  0  0  0  0  0  0
   11.6352  -15.9400   27.7467 C   0  0  2  0  0  0  0  0  0  0  0  0
   11.4514  -16.0226   26.3306 N   0  0  0  0  0  0  0  0  0  0  0  0
   11.3610  -17.2045   28.4396 C   0  0  0  0  0  0  0  0  0  0  0  0
   10.8777  -18.3279   27.7452 O   0  0  0  0  0  0  0  0  0  0  0  0
   11.5365  -17.3581   29.6653 O   0  0  0  0  0  0  0  0  0  0  0  0
  2  1  1  1
  3  2  1  0
  4  5  2  0
  4  3  1  0
  6  5  1  0
  7 12  2  0
  7  6  1  0
  8  7  1  0
  9 10  1  0
  9  8  2  0
 10 11  2  0
 11 12  1  0
 12  4  1  0
 13 14  2  0
 13  2  1  0
 16 17  2  0
 16 15  1  0
 18 16  1  0
 19 18  1  6
 19 20  1  0
 20 13  1  0
 21 25  1  0
 21 19  1  0
 22 21  2  0
 24 23  1  1
 24 25  1  0
 24 26  1  0
 26 27  1  0
 28 26  2  0
M  END
$$$$
