WNA.pdb
     RDKit          3D

 28 29  0  0  1  0  0  0  0  0999 V2000
    6.6715  -17.8695   24.1357 N   0  0  0  0  0  0  0  0  0  0  0  0
    7.5578  -16.7653   24.3973 C   0  0  1  0  0  0  0  0  0  0  0  0
    7.4054  -16.2164   25.7784 C   0  0  0  0  0  0  0  0  0  0  0  0
    6.5951  -14.9798   25.8186 C   0  0  0  0  0  0  0  0  0  0  0  0
    5.2483  -14.9384   26.1868 C   0  0  0  0  0  0  0  0  0  0  0  0
    4.7994  -13.6730   26.1431 N   0  0  0  0  0  0  0  0  0  0  0  0
    5.8059  -12.8610   25.7551 C   0  0  0  0  0  0  0  0  0  0  0  0
    5.8894  -11.5034   25.5458 C   0  0  0  0  0  0  0  0  0  0  0  0
    7.0894  -10.9495   25.1325 C   0  0  0  0  0  0  0  0  0  0  0  0
    8.1986  -11.7228   24.9259 C   0  0  0  0  0  0  0  0  0  0  0  0
    8.0943  -13.0958   25.1436 C   0  0  0  0  0  0  0  0  0  0  0  0
    6.9161  -13.6672   25.5541 C   0  0  0  0  0  0  0  0  0  0  0  0
    8.9235  -17.1535   24.0444 C   0  0  0  0  0  0  0  0  0  0  0  0
    9.2346  -18.3695   24.0887 O   0  0  0  0  0  0  0  0  0  0  0  0
   11.1590  -14.7146   20.7327 N   0  0  0  0  0  0  0  0  0  0  0  0
   11.7635  -15.8475   21.3988 C   0  0  0  0  0  0  0  0  0  0  0  0
   11.8995  -16.8769   20.6938 O   0  0  0  0  0  0  0  0  0  0  0  0
   12.1539  -15.6907   22.8088 C   0  0  0  0  0  0  0  0  0  0  0  0
   11.3767  -16.5861   23.6995 C   0  0  2  0  0  0  0  0  0  0  0  0
    9.9402  -16.2596   23.6514 N   0  0  0  0  0  0  0  0  0  0  0  0
   11.8356  -16.3719   25.1149 C   0  0  0  0  0  0  0  0  0  0  0  0
   13.0077  -16.5312   25.4928 O   0  0  0  0  0  0  0  0  0  0  0  0
   10.4152  -14.6574   28.1558 C   0  0  0  0  0  0  0  0  0  0  0  0
   11.2808  -15.7139   27.5022 C   0  0  2  0  0  0  0  0  0  0  0  0
   10.9181  -15.9590   26.1405 N   0  0  0  0  0  0  0  0  0  0  0  0
   11.3336  -16.9351   28.3148 C   0  0  0  0  0  0  0  0  0  0  0  0
   12.0609  -16.9810   29.5176 O   0  0  0  0  0  0  0  0  0  0  0  0
   10.7471  -17.9887   27.9945 O   0  0  0  0  0  0  0  0  0  0  0  0
  2  1  1  1
  3  2  1  0
  4  5  2  0
  4  3  1  0
  6  5  1  0
  7 12  2  0
  7  6  1  0
  8  7  1  0
  9 10  1  0
  9  8  2  0
 10 11  2  0
 11 12  1  0
 12  4  1  0
 13 14  2  0
 13  2  1  0
 16 17  2  0
 16 15  1  0
 18 16  1  0
 19 18  1  6
 19 20  1  0
 20 13  1  0
 21 25  1  0
 21 19  1  0
 22 21  2  0
 24 23  1  1
 24 25  1  0
 24 26  1  0
 26 27  1  0
 28 26  2  0
M  END
$$$$
