WNA.pdb
     RDKit          3D

 28 29  0  0  1  0  0  0  0  0999 V2000
    6.0542  -17.9085   23.6707 N   0  0  0  0  0  0  0  0  0  0  0  0
    6.7956  -16.6748   23.6315 C   0  0  1  0  0  0  0  0  0  0  0  0
    7.4142  -16.3301   24.9469 C   0  0  0  0  0  0  0  0  0  0  0  0
    6.7434  -15.1949   25.6170 C   0  0  0  0  0  0  0  0  0  0  0  0
    5.5917  -15.3167   26.3978 C   0  0  0  0  0  0  0  0  0  0  0  0
    5.2375  -14.1154   26.8835 N   0  0  0  0  0  0  0  0  0  0  0  0
    6.1179  -13.1876   26.4512 C   0  0  0  0  0  0  0  0  0  0  0  0
    6.2197  -11.8286   26.6427 C   0  0  0  0  0  0  0  0  0  0  0  0
    7.2577  -11.1317   26.0473 C   0  0  0  0  0  0  0  0  0  0  0  0
    8.1883  -11.7644   25.2695 C   0  0  0  0  0  0  0  0  0  0  0  0
    8.0685  -13.1413   25.0877 C   0  0  0  0  0  0  0  0  0  0  0  0
    7.0490  -13.8532   25.6682 C   0  0  0  0  0  0  0  0  0  0  0  0
    7.7344  -16.7157   22.5101 C   0  0  0  0  0  0  0  0  0  0  0  0
    8.0391  -17.8313   22.0200 O   0  0  0  0  0  0  0  0  0  0  0  0
    7.3182  -12.9972   19.7024 N   0  0  0  0  0  0  0  0  0  0  0  0
    8.0919  -14.1646   19.3403 C   0  0  0  0  0  0  0  0  0  0  0  0
    7.5981  -14.8778   18.4333 O   0  0  0  0  0  0  0  0  0  0  0  0
    9.3573  -14.4015   20.0530 C   0  0  0  0  0  0  0  0  0  0  0  0
    9.3251  -15.6642   20.8300 C   0  0  2  0  0  0  0  0  0  0  0  0
    8.3381  -15.5858   21.9218 N   0  0  0  0  0  0  0  0  0  0  0  0
   10.6731  -15.8741   21.4614 C   0  0  0  0  0  0  0  0  0  0  0  0
   11.7346  -15.9348   20.8199 O   0  0  0  0  0  0  0  0  0  0  0  0
   12.2497  -15.4330   24.7816 C   0  0  0  0  0  0  0  0  0  0  0  0
   12.0489  -16.2936   23.5520 C   0  0  2  0  0  0  0  0  0  0  0  0
   10.8142  -16.0208   22.8836 N   0  0  0  0  0  0  0  0  0  0  0  0
   12.2359  -17.7159   23.8625 C   0  0  0  0  0  0  0  0  0  0  0  0
   13.4266  -18.1859   24.4449 O   0  0  0  0  0  0  0  0  0  0  0  0
   11.3658  -18.5803   23.6332 O   0  0  0  0  0  0  0  0  0  0  0  0
  2  1  1  1
  3  2  1  0
  4  5  2  0
  4  3  1  0
  6  5  1  0
  7 12  2  0
  7  6  1  0
  8  7  1  0
  9 10  1  0
  9  8  2  0
 10 11  2  0
 11 12  1  0
 12  4  1  0
 13 14  2  0
 13  2  1  0
 16 17  2  0
 16 15  1  0
 18 16  1  0
 19 18  1  1
 19 20  1  0
 20 13  1  0
 21 25  1  0
 21 19  1  0
 22 21  2  0
 24 23  1  1
 24 25  1  0
 24 26  1  0
 26 27  1  0
 28 26  2  0
M  END
$$$$
