WNA.pdb
     RDKit          3D

 28 29  0  0  1  0  0  0  0  0999 V2000
    8.9421  -14.6279   24.2164 N   0  0  0  0  0  0  0  0  0  0  0  0
    8.3808  -15.9115   23.8838 C   0  0  1  0  0  0  0  0  0  0  0  0
    6.9200  -15.9989   24.1841 C   0  0  0  0  0  0  0  0  0  0  0  0
    6.4887  -15.0380   25.2224 C   0  0  0  0  0  0  0  0  0  0  0  0
    5.4501  -15.2757   26.1256 C   0  0  0  0  0  0  0  0  0  0  0  0
    5.3123  -14.2263   26.9528 N   0  0  0  0  0  0  0  0  0  0  0  0
    6.2285  -13.2880   26.6317 C   0  0  0  0  0  0  0  0  0  0  0  0
    6.5171  -12.0435   27.1434 C   0  0  0  0  0  0  0  0  0  0  0  0
    7.5381  -11.2952   26.5821 C   0  0  0  0  0  0  0  0  0  0  0  0
    8.2698  -11.7651   25.5262 C   0  0  0  0  0  0  0  0  0  0  0  0
    7.9627  -13.0280   25.0221 C   0  0  0  0  0  0  0  0  0  0  0  0
    6.9561  -13.7882   25.5624 C   0  0  0  0  0  0  0  0  0  0  0  0
    8.7398  -16.2486   22.5061 C   0  0  0  0  0  0  0  0  0  0  0  0
    8.3992  -17.3691   22.0520 O   0  0  0  0  0  0  0  0  0  0  0  0
    8.0804  -12.8199   19.6792 N   0  0  0  0  0  0  0  0  0  0  0  0
    8.3290  -14.1845   19.2685 C   0  0  0  0  0  0  0  0  0  0  0  0
    7.3167  -14.8293   18.9015 O   0  0  0  0  0  0  0  0  0  0  0  0
    9.7144  -14.6781   19.3182 C   0  0  0  0  0  0  0  0  0  0  0  0
    9.8651  -15.8042   20.2712 C   0  0  2  0  0  0  0  0  0  0  0  0
    9.4503  -15.4052   21.6281 N   0  0  0  0  0  0  0  0  0  0  0  0
   11.3185  -16.1820   20.3421 C   0  0  0  0  0  0  0  0  0  0  0  0
   12.0656  -16.2427   19.3522 O   0  0  0  0  0  0  0  0  0  0  0  0
   14.0493  -16.2563   22.8252 C   0  0  0  0  0  0  0  0  0  0  0  0
   13.2865  -16.9765   21.7333 C   0  0  2  0  0  0  0  0  0  0  0  0
   11.9436  -16.5038   21.5950 N   0  0  0  0  0  0  0  0  0  0  0  0
   13.3725  -18.4326   21.8967 C   0  0  0  0  0  0  0  0  0  0  0  0
   12.2160  -19.2236   22.0172 O   0  0  0  0  0  0  0  0  0  0  0  0
   14.4575  -19.0474   21.9380 O   0  0  0  0  0  0  0  0  0  0  0  0
  2  1  1  6
  3  2  1  0
  4  5  2  0
  4  3  1  0
  6  5  1  0
  7 12  2  0
  7  6  1  0
  8  7  1  0
  9 10  1  0
  9  8  2  0
 10 11  2  0
 11 12  1  0
 12  4  1  0
 13 14  2  0
 13  2  1  0
 16 17  2  0
 16 15  1  0
 18 16  1  0
 19 18  1  6
 19 20  1  0
 20 13  1  0
 21 25  1  0
 21 19  1  0
 22 21  2  0
 24 23  1  1
 24 25  1  0
 24 26  1  0
 26 27  1  0
 28 26  2  0
M  END
$$$$
