WNA.pdb
     RDKit          3D

 28 29  0  0  1  0  0  0  0  0999 V2000
    6.6913  -18.2618   24.8492 N   0  0  0  0  0  0  0  0  0  0  0  0
    7.4690  -17.0525   24.7733 C   0  0  1  0  0  0  0  0  0  0  0  0
    7.4425  -16.2674   26.0441 C   0  0  0  0  0  0  0  0  0  0  0  0
    6.5545  -15.0869   25.9712 C   0  0  0  0  0  0  0  0  0  0  0  0
    5.1594  -15.1556   25.9766 C   0  0  0  0  0  0  0  0  0  0  0  0
    4.6389  -13.9185   25.9198 N   0  0  0  0  0  0  0  0  0  0  0  0
    5.6442  -13.0184   25.8757 C   0  0  0  0  0  0  0  0  0  0  0  0
    5.6718  -11.6442   25.8063 C   0  0  0  0  0  0  0  0  0  0  0  0
    6.8904  -10.9876   25.7675 C   0  0  0  0  0  0  0  0  0  0  0  0
    8.0727  -11.6750   25.7961 C   0  0  0  0  0  0  0  0  0  0  0  0
    8.0240  -13.0664   25.8668 C   0  0  0  0  0  0  0  0  0  0  0  0
    6.8286  -13.7390   25.9073 C   0  0  0  0  0  0  0  0  0  0  0  0
    8.8101  -17.3754   24.2858 C   0  0  0  0  0  0  0  0  0  0  0  0
    9.2697  -18.5239   24.5033 O   0  0  0  0  0  0  0  0  0  0  0  0
   13.3705  -17.5085   21.8230 N   0  0  0  0  0  0  0  0  0  0  0  0
   12.9716  -16.1194   21.8854 C   0  0  0  0  0  0  0  0  0  0  0  0
   13.8706  -15.2881   21.6102 O   0  0  0  0  0  0  0  0  0  0  0  0
   11.5802  -15.8176   22.2574 C   0  0  0  0  0  0  0  0  0  0  0  0
   11.0573  -16.7753   23.2616 C   0  0  2  0  0  0  0  0  0  0  0  0
    9.6469  -16.4881   23.5789 N   0  0  0  0  0  0  0  0  0  0  0  0
   11.8424  -16.6142   24.5333 C   0  0  0  0  0  0  0  0  0  0  0  0
   13.0298  -16.9549   24.6602 O   0  0  0  0  0  0  0  0  0  0  0  0
   11.3971  -14.7677   27.7976 C   0  0  0  0  0  0  0  0  0  0  0  0
   11.8948  -15.9405   26.9794 C   0  0  2  0  0  0  0  0  0  0  0  0
   11.2468  -16.0406   25.7082 N   0  0  0  0  0  0  0  0  0  0  0  0
   11.8457  -17.1870   27.7527 C   0  0  0  0  0  0  0  0  0  0  0  0
   12.7364  -17.4229   28.8151 O   0  0  0  0  0  0  0  0  0  0  0  0
   11.0256  -18.0979   27.5195 O   0  0  0  0  0  0  0  0  0  0  0  0
  2  1  1  1
  3  2  1  0
  4  5  2  0
  4  3  1  0
  6  5  1  0
  7 12  2  0
  7  6  1  0
  8  7  1  0
  9 10  1  0
  9  8  2  0
 10 11  2  0
 11 12  1  0
 12  4  1  0
 13 14  2  0
 13  2  1  0
 16 17  2  0
 16 15  1  0
 18 16  1  0
 19 18  1  6
 19 20  1  0
 20 13  1  0
 21 25  1  0
 21 19  1  0
 22 21  2  0
 24 23  1  1
 24 25  1  0
 24 26  1  0
 26 27  1  0
 28 26  2  0
M  END
$$$$
