WNA.pdb
     RDKit          3D

 28 29  0  0  1  0  0  0  0  0999 V2000
    7.8010  -15.9163   23.1262 N   0  0  0  0  0  0  0  0  0  0  0  0
    8.4966  -15.6702   24.3627 C   0  0  1  0  0  0  0  0  0  0  0  0
    7.6124  -15.8023   25.5596 C   0  0  0  0  0  0  0  0  0  0  0  0
    6.6086  -14.7203   25.6542 C   0  0  0  0  0  0  0  0  0  0  0  0
    5.2431  -14.9351   25.8556 C   0  0  0  0  0  0  0  0  0  0  0  0
    4.5976  -13.7585   25.9157 N   0  0  0  0  0  0  0  0  0  0  0  0
    5.4898  -12.7572   25.7598 C   0  0  0  0  0  0  0  0  0  0  0  0
    5.3681  -11.3867   25.7342 C   0  0  0  0  0  0  0  0  0  0  0  0
    6.4955  -10.6052   25.5449 C   0  0  0  0  0  0  0  0  0  0  0  0
    7.7327  -11.1653   25.3815 C   0  0  0  0  0  0  0  0  0  0  0  0
    7.8357  -12.5552   25.4109 C   0  0  0  0  0  0  0  0  0  0  0  0
    6.7329  -13.3501   25.5980 C   0  0  0  0  0  0  0  0  0  0  0  0
    9.7046  -16.4945   24.4049 C   0  0  0  0  0  0  0  0  0  0  0  0
    9.6247  -17.6565   24.8748 O   0  0  0  0  0  0  0  0  0  0  0  0
   13.2300  -15.0632   21.2165 N   0  0  0  0  0  0  0  0  0  0  0  0
   13.0137  -16.2970   21.9401 C   0  0  0  0  0  0  0  0  0  0  0  0
   12.5665  -17.2503   21.2572 O   0  0  0  0  0  0  0  0  0  0  0  0
   13.3313  -16.3187   23.3767 C   0  0  0  0  0  0  0  0  0  0  0  0
   12.2096  -16.8600   24.1817 C   0  0  2  0  0  0  0  0  0  0  0  0
   10.9762  -16.0859   23.9541 N   0  0  0  0  0  0  0  0  0  0  0  0
   12.5566  -16.7282   25.6384 C   0  0  0  0  0  0  0  0  0  0  0  0
   13.6150  -17.1445   26.1370 O   0  0  0  0  0  0  0  0  0  0  0  0
   11.3117  -14.7597   28.5895 C   0  0  0  0  0  0  0  0  0  0  0  0
   11.8626  -16.0304   27.9775 C   0  0  2  0  0  0  0  0  0  0  0  0
   11.6578  -16.0952   26.5634 N   0  0  0  0  0  0  0  0  0  0  0  0
   11.3725  -17.2180   28.6873 C   0  0  0  0  0  0  0  0  0  0  0  0
   10.7041  -18.2515   28.0069 O   0  0  0  0  0  0  0  0  0  0  0  0
   11.5161  -17.3811   29.9159 O   0  0  0  0  0  0  0  0  0  0  0  0
  2  1  1  6
  3  2  1  0
  4  5  2  0
  4  3  1  0
  6  5  1  0
  7 12  2  0
  7  6  1  0
  8  7  1  0
  9 10  1  0
  9  8  2  0
 10 11  2  0
 11 12  1  0
 12  4  1  0
 13 14  2  0
 13  2  1  0
 16 17  2  0
 16 15  1  0
 18 16  1  0
 19 18  1  6
 19 20  1  0
 20 13  1  0
 21 25  1  0
 21 19  1  0
 22 21  2  0
 24 23  1  1
 24 25  1  0
 24 26  1  0
 26 27  1  0
 28 26  2  0
M  END
$$$$
