WNA.pdb
     RDKit          3D

 28 29  0  0  1  0  0  0  0  0999 V2000
    7.3632  -17.0964   23.8098 N   0  0  0  0  0  0  0  0  0  0  0  0
    8.4077  -16.1663   24.1520 C   0  0  1  0  0  0  0  0  0  0  0  0
    8.2381  -15.5831   25.5169 C   0  0  0  0  0  0  0  0  0  0  0  0
    7.0692  -14.6822   25.6152 C   0  0  0  0  0  0  0  0  0  0  0  0
    5.7985  -15.0911   26.0265 C   0  0  0  0  0  0  0  0  0  0  0  0
    4.9582  -14.0430   26.0303 N   0  0  0  0  0  0  0  0  0  0  0  0
    5.6270  -12.9397   25.6325 C   0  0  0  0  0  0  0  0  0  0  0  0
    5.2527  -11.6272   25.4565 C   0  0  0  0  0  0  0  0  0  0  0  0
    6.1880  -10.7037   25.0204 C   0  0  0  0  0  0  0  0  0  0  0  0
    7.4807  -11.0665   24.7587 C   0  0  0  0  0  0  0  0  0  0  0  0
    7.8407  -12.4005   24.9433 C   0  0  0  0  0  0  0  0  0  0  0  0
    6.9317  -13.3333   25.3755 C   0  0  0  0  0  0  0  0  0  0  0  0
    9.7066  -16.7973   23.9174 C   0  0  0  0  0  0  0  0  0  0  0  0
    9.7807  -18.0509   23.9433 O   0  0  0  0  0  0  0  0  0  0  0  0
   13.3534  -17.2276   21.1430 N   0  0  0  0  0  0  0  0  0  0  0  0
   13.1637  -15.9418   21.7779 C   0  0  0  0  0  0  0  0  0  0  0  0
   12.9000  -14.9916   21.0016 O   0  0  0  0  0  0  0  0  0  0  0  0
   13.2945  -15.8696   23.2418 C   0  0  0  0  0  0  0  0  0  0  0  0
   12.2442  -16.6590   23.9294 C   0  0  2  0  0  0  0  0  0  0  0  0
   10.9061  -16.1030   23.6600 N   0  0  0  0  0  0  0  0  0  0  0  0
   12.4726  -16.5730   25.4127 C   0  0  0  0  0  0  0  0  0  0  0  0
   13.5384  -16.8875   25.9671 O   0  0  0  0  0  0  0  0  0  0  0  0
   10.7896  -14.9215   28.3418 C   0  0  0  0  0  0  0  0  0  0  0  0
   11.5524  -16.0747   27.7245 C   0  0  2  0  0  0  0  0  0  0  0  0
   11.4414  -16.1091   26.2990 N   0  0  0  0  0  0  0  0  0  0  0  0
   11.1983  -17.3482   28.3625 C   0  0  0  0  0  0  0  0  0  0  0  0
   11.3766  -17.5479   29.7431 O   0  0  0  0  0  0  0  0  0  0  0  0
   10.7257  -18.3149   27.7309 O   0  0  0  0  0  0  0  0  0  0  0  0
  2  1  1  1
  3  2  1  0
  4  5  2  0
  4  3  1  0
  6  5  1  0
  7 12  2  0
  7  6  1  0
  8  7  1  0
  9 10  1  0
  9  8  2  0
 10 11  2  0
 11 12  1  0
 12  4  1  0
 13 14  2  0
 13  2  1  0
 16 17  2  0
 16 15  1  0
 18 16  1  0
 19 18  1  6
 19 20  1  0
 20 13  1  0
 21 25  1  0
 21 19  1  0
 22 21  2  0
 24 23  1  1
 24 25  1  0
 24 26  1  0
 26 27  1  0
 28 26  2  0
M  END
$$$$
