WNA.pdb
     RDKit          3D

 28 29  0  0  1  0  0  0  0  0999 V2000
    9.6979  -15.1912   24.4523 N   0  0  0  0  0  0  0  0  0  0  0  0
    8.9159  -16.1630   23.7329 C   0  0  1  0  0  0  0  0  0  0  0  0
    7.5807  -15.6373   23.3172 C   0  0  0  0  0  0  0  0  0  0  0  0
    6.9105  -14.8635   24.3847 C   0  0  0  0  0  0  0  0  0  0  0  0
    6.0581  -15.4232   25.3394 C   0  0  0  0  0  0  0  0  0  0  0  0
    5.6241  -14.4708   26.1814 N   0  0  0  0  0  0  0  0  0  0  0  0
    6.1596  -13.2851   25.8204 C   0  0  0  0  0  0  0  0  0  0  0  0
    6.0461  -12.0105   26.3266 C   0  0  0  0  0  0  0  0  0  0  0  0
    6.7307  -10.9716   25.7186 C   0  0  0  0  0  0  0  0  0  0  0  0
    7.5203  -11.1828   24.6218 C   0  0  0  0  0  0  0  0  0  0  0  0
    7.6229  -12.4808   24.1240 C   0  0  0  0  0  0  0  0  0  0  0  0
    6.9547  -13.5263   24.7101 C   0  0  0  0  0  0  0  0  0  0  0  0
    9.7204  -16.7116   22.6410 C   0  0  0  0  0  0  0  0  0  0  0  0
    9.1456  -17.3798   21.7462 O   0  0  0  0  0  0  0  0  0  0  0  0
   11.9971  -17.9394   19.5839 N   0  0  0  0  0  0  0  0  0  0  0  0
   13.1485  -17.2606   20.1369 C   0  0  0  0  0  0  0  0  0  0  0  0
   13.9419  -16.7733   19.2953 O   0  0  0  0  0  0  0  0  0  0  0  0
   13.2791  -17.2057   21.6015 C   0  0  0  0  0  0  0  0  0  0  0  0
   12.0467  -17.6701   22.2833 C   0  0  2  0  0  0  0  0  0  0  0  0
   11.1143  -16.5506   22.5062 N   0  0  0  0  0  0  0  0  0  0  0  0
   12.4210  -18.2146   23.6336 C   0  0  0  0  0  0  0  0  0  0  0  0
   13.1763  -19.1858   23.8018 O   0  0  0  0  0  0  0  0  0  0  0  0
   11.9951  -17.0374   27.2190 C   0  0  0  0  0  0  0  0  0  0  0  0
   12.2021  -18.0987   26.1591 C   0  0  2  0  0  0  0  0  0  0  0  0
   11.9115  -17.6257   24.8409 N   0  0  0  0  0  0  0  0  0  0  0  0
   11.4891  -19.3357   26.4993 C   0  0  0  0  0  0  0  0  0  0  0  0
   11.7926  -20.0557   27.6686 O   0  0  0  0  0  0  0  0  0  0  0  0
   10.5859  -19.8163   25.7850 O   0  0  0  0  0  0  0  0  0  0  0  0
  2  1  1  6
  3  2  1  0
  4  5  2  0
  4  3  1  0
  6  5  1  0
  7 12  2  0
  7  6  1  0
  8  7  1  0
  9 10  1  0
  9  8  2  0
 10 11  2  0
 11 12  1  0
 12  4  1  0
 13 14  2  0
 13  2  1  0
 16 17  2  0
 16 15  1  0
 18 16  1  0
 19 18  1  1
 19 20  1  0
 20 13  1  0
 21 25  1  0
 21 19  1  0
 22 21  2  0
 24 23  1  1
 24 25  1  0
 24 26  1  0
 26 27  1  0
 28 26  2  0
M  END
$$$$
