WNA.pdb
     RDKit          3D

 28 29  0  0  1  0  0  0  0  0999 V2000
    7.1863  -17.3458   22.9069 N   0  0  0  0  0  0  0  0  0  0  0  0
    7.9334  -16.3945   23.6881 C   0  0  1  0  0  0  0  0  0  0  0  0
    7.4050  -16.2455   25.0775 C   0  0  0  0  0  0  0  0  0  0  0  0
    6.4719  -15.1066   25.2179 C   0  0  0  0  0  0  0  0  0  0  0  0
    5.0859  -15.2397   25.3294 C   0  0  0  0  0  0  0  0  0  0  0  0
    4.5180  -14.0296   25.4623 N   0  0  0  0  0  0  0  0  0  0  0  0
    5.4825  -13.0850   25.4427 C   0  0  0  0  0  0  0  0  0  0  0  0
    5.4542  -11.7122   25.5344 C   0  0  0  0  0  0  0  0  0  0  0  0
    6.6402  -11.0000   25.4738 C   0  0  0  0  0  0  0  0  0  0  0  0
    7.8446  -11.6309   25.3238 C   0  0  0  0  0  0  0  0  0  0  0  0
    7.8527  -13.0220   25.2332 C   0  0  0  0  0  0  0  0  0  0  0  0
    6.6905  -13.7491   25.2916 C   0  0  0  0  0  0  0  0  0  0  0  0
    9.3568  -16.7240   23.6108 C   0  0  0  0  0  0  0  0  0  0  0  0
    9.8059  -17.2076   22.5422 O   0  0  0  0  0  0  0  0  0  0  0  0
   12.0999  -15.1614   21.1417 N   0  0  0  0  0  0  0  0  0  0  0  0
   12.2673  -16.1610   22.1738 C   0  0  0  0  0  0  0  0  0  0  0  0
   12.3691  -17.3437   21.7664 O   0  0  0  0  0  0  0  0  0  0  0  0
   12.3021  -15.7080   23.5734 C   0  0  0  0  0  0  0  0  0  0  0  0
   11.7390  -16.7232   24.4962 C   0  0  2  0  0  0  0  0  0  0  0  0
   10.2851  -16.5411   24.6557 N   0  0  0  0  0  0  0  0  0  0  0  0
   12.3630  -16.5389   25.8514 C   0  0  0  0  0  0  0  0  0  0  0  0
   13.5837  -16.6150   26.0660 O   0  0  0  0  0  0  0  0  0  0  0  0
   11.4753  -15.1372   29.1876 C   0  0  0  0  0  0  0  0  0  0  0  0
   12.0446  -16.2658   28.3541 C   0  0  2  0  0  0  0  0  0  0  0  0
   11.5597  -16.2565   27.0086 N   0  0  0  0  0  0  0  0  0  0  0  0
   11.8695  -17.5608   29.0225 C   0  0  0  0  0  0  0  0  0  0  0  0
   12.3579  -17.7838   30.3222 O   0  0  0  0  0  0  0  0  0  0  0  0
   11.2869  -18.5263   28.4884 O   0  0  0  0  0  0  0  0  0  0  0  0
  2  1  1  1
  3  2  1  0
  4  5  2  0
  4  3  1  0
  6  5  1  0
  7 12  2  0
  7  6  1  0
  8  7  1  0
  9 10  1  0
  9  8  2  0
 10 11  2  0
 11 12  1  0
 12  4  1  0
 13 14  2  0
 13  2  1  0
 16 17  2  0
 16 15  1  0
 18 16  1  0
 19 18  1  6
 19 20  1  0
 20 13  1  0
 21 25  1  0
 21 19  1  0
 22 21  2  0
 24 23  1  1
 24 25  1  0
 24 26  1  0
 26 27  1  0
 28 26  2  0
M  END
$$$$
