WNA.pdb
     RDKit          3D

 28 29  0  0  1  0  0  0  0  0999 V2000
    6.6240  -16.7227   22.4754 N   0  0  0  0  0  0  0  0  0  0  0  0
    7.7491  -15.9019   22.8409 C   0  0  1  0  0  0  0  0  0  0  0  0
    8.0823  -15.9917   24.2944 C   0  0  0  0  0  0  0  0  0  0  0  0
    7.1444  -15.2289   25.1467 C   0  0  0  0  0  0  0  0  0  0  0  0
    6.1236  -15.8107   25.9021 C   0  0  0  0  0  0  0  0  0  0  0  0
    5.4584  -14.8622   26.5819 N   0  0  0  0  0  0  0  0  0  0  0  0
    6.0020  -13.6577   26.3052 C   0  0  0  0  0  0  0  0  0  0  0  0
    5.7095  -12.3781   26.7189 C   0  0  0  0  0  0  0  0  0  0  0  0
    6.4627  -11.3183   26.2424 C   0  0  0  0  0  0  0  0  0  0  0  0
    7.4947  -11.5134   25.3660 C   0  0  0  0  0  0  0  0  0  0  0  0
    7.7758  -12.8167   24.9589 C   0  0  0  0  0  0  0  0  0  0  0  0
    7.0440  -13.8828   25.4182 C   0  0  0  0  0  0  0  0  0  0  0  0
    8.8661  -16.1925   21.9419 C   0  0  0  0  0  0  0  0  0  0  0  0
    8.9595  -17.3446   21.4502 O   0  0  0  0  0  0  0  0  0  0  0  0
   10.0386  -12.6410   19.4353 N   0  0  0  0  0  0  0  0  0  0  0  0
   10.6178  -13.9317   19.1330 C   0  0  0  0  0  0  0  0  0  0  0  0
   10.2073  -14.4721   18.0773 O   0  0  0  0  0  0  0  0  0  0  0  0
   11.6118  -14.4780   20.0704 C   0  0  0  0  0  0  0  0  0  0  0  0
   11.0802  -15.6396   20.8235 C   0  0  2  0  0  0  0  0  0  0  0  0
    9.8666  -15.2702   21.5739 N   0  0  0  0  0  0  0  0  0  0  0  0
   12.1111  -16.0733   21.8279 C   0  0  0  0  0  0  0  0  0  0  0  0
   13.2632  -16.4258   21.5273 O   0  0  0  0  0  0  0  0  0  0  0  0
   12.1730  -16.3682   25.6436 C   0  0  0  0  0  0  0  0  0  0  0  0
   12.7236  -16.5473   24.2445 C   0  0  2  0  0  0  0  0  0  0  0  0
   11.8137  -16.1058   23.2331 N   0  0  0  0  0  0  0  0  0  0  0  0
   13.2015  -17.9188   24.0329 C   0  0  0  0  0  0  0  0  0  0  0  0
   12.3436  -18.9257   23.5556 O   0  0  0  0  0  0  0  0  0  0  0  0
   14.3773  -18.2698   24.2593 O   0  0  0  0  0  0  0  0  0  0  0  0
  2  1  1  6
  3  2  1  0
  4  5  2  0
  4  3  1  0
  6  5  1  0
  7 12  2  0
  7  6  1  0
  8  7  1  0
  9 10  1  0
  9  8  2  0
 10 11  2  0
 11 12  1  0
 12  4  1  0
 13 14  2  0
 13  2  1  0
 16 17  2  0
 16 15  1  0
 18 16  1  0
 19 18  1  1
 19 20  1  0
 20 13  1  0
 21 25  1  0
 21 19  1  0
 22 21  2  0
 24 23  1  1
 24 25  1  0
 24 26  1  0
 26 27  1  0
 28 26  2  0
M  END
$$$$
