WNA.pdb
     RDKit          3D

 28 29  0  0  1  0  0  0  0  0999 V2000
    6.9992  -16.4069   23.2926 N   0  0  0  0  0  0  0  0  0  0  0  0
    8.3595  -15.9617   23.1350 C   0  0  1  0  0  0  0  0  0  0  0  0
    8.7218  -14.8639   24.0812 C   0  0  0  0  0  0  0  0  0  0  0  0
    7.5644  -14.3710   24.8590 C   0  0  0  0  0  0  0  0  0  0  0  0
    6.6588  -15.2002   25.5249 C   0  0  0  0  0  0  0  0  0  0  0  0
    5.7335  -14.4571   26.1544 N   0  0  0  0  0  0  0  0  0  0  0  0
    5.9901  -13.1505   25.9307 C   0  0  0  0  0  0  0  0  0  0  0  0
    5.3662  -11.9898   26.3275 C   0  0  0  0  0  0  0  0  0  0  0  0
    5.8759  -10.7682   25.9207 C   0  0  0  0  0  0  0  0  0  0  0  0
    6.9893  -10.6870   25.1302 C   0  0  0  0  0  0  0  0  0  0  0  0
    7.6073  -11.8737   24.7390 C   0  0  0  0  0  0  0  0  0  0  0  0
    7.1212  -13.0959   25.1302 C   0  0  0  0  0  0  0  0  0  0  0  0
    9.2508  -17.1210   23.1785 C   0  0  0  0  0  0  0  0  0  0  0  0
    9.1914  -17.9618   22.2473 O   0  0  0  0  0  0  0  0  0  0  0  0
   12.1146  -17.8809   21.6328 N   0  0  0  0  0  0  0  0  0  0  0  0
   12.1343  -16.4439   21.7979 C   0  0  0  0  0  0  0  0  0  0  0  0
   12.4459  -15.7885   20.7740 O   0  0  0  0  0  0  0  0  0  0  0  0
   11.7947  -15.8971   23.1211 C   0  0  0  0  0  0  0  0  0  0  0  0
   11.6031  -16.9685   24.1284 C   0  0  2  0  0  0  0  0  0  0  0  0
   10.1893  -17.3792   24.1981 N   0  0  0  0  0  0  0  0  0  0  0  0
   11.9781  -16.4291   25.4805 C   0  0  0  0  0  0  0  0  0  0  0  0
   13.1233  -16.0554   25.7820 O   0  0  0  0  0  0  0  0  0  0  0  0
   10.4488  -14.6414   28.2365 C   0  0  0  0  0  0  0  0  0  0  0  0
   11.2900  -15.8399   27.8510 C   0  0  2  0  0  0  0  0  0  0  0  0
   11.0052  -16.3119   26.5312 N   0  0  0  0  0  0  0  0  0  0  0  0
   11.2132  -16.8931   28.8704 C   0  0  0  0  0  0  0  0  0  0  0  0
   11.4647  -16.6169   30.2262 O   0  0  0  0  0  0  0  0  0  0  0  0
   10.9253  -18.0771   28.6019 O   0  0  0  0  0  0  0  0  0  0  0  0
  2  1  1  1
  3  2  1  0
  4  5  2  0
  4  3  1  0
  6  5  1  0
  7 12  2  0
  7  6  1  0
  8  7  1  0
  9 10  1  0
  9  8  2  0
 10 11  2  0
 11 12  1  0
 12  4  1  0
 13 14  2  0
 13  2  1  0
 16 17  2  0
 16 15  1  0
 18 16  1  0
 19 18  1  6
 19 20  1  0
 20 13  1  0
 21 25  1  0
 21 19  1  0
 22 21  2  0
 24 23  1  1
 24 25  1  0
 24 26  1  0
 26 27  1  0
 28 26  2  0
M  END
$$$$
