WNA.pdb
     RDKit          3D

 28 29  0  0  1  0  0  0  0  0999 V2000
    6.9097  -17.5222   24.2403 N   0  0  0  0  0  0  0  0  0  0  0  0
    7.8345  -16.4298   24.3977 C   0  0  1  0  0  0  0  0  0  0  0  0
    7.6955  -15.7400   25.7155 C   0  0  0  0  0  0  0  0  0  0  0  0
    6.6422  -14.7016   25.7118 C   0  0  0  0  0  0  0  0  0  0  0  0
    5.2787  -14.9696   25.8535 C   0  0  0  0  0  0  0  0  0  0  0  0
    4.5807  -13.8222   25.8293 N   0  0  0  0  0  0  0  0  0  0  0  0
    5.4357  -12.7887   25.6746 C   0  0  0  0  0  0  0  0  0  0  0  0
    5.2563  -11.4274   25.5827 C   0  0  0  0  0  0  0  0  0  0  0  0
    6.3573  -10.6041   25.4162 C   0  0  0  0  0  0  0  0  0  0  0  0
    7.6244  -11.1137   25.3401 C   0  0  0  0  0  0  0  0  0  0  0  0
    7.7857  -12.4951   25.4356 C   0  0  0  0  0  0  0  0  0  0  0  0
    6.7100  -13.3308   25.6017 C   0  0  0  0  0  0  0  0  0  0  0  0
    9.1868  -16.9002   24.0971 C   0  0  0  0  0  0  0  0  0  0  0  0
    9.4489  -18.1188   24.2514 O   0  0  0  0  0  0  0  0  0  0  0  0
   14.1874  -17.0428   21.8160 N   0  0  0  0  0  0  0  0  0  0  0  0
   13.8869  -16.0000   22.7725 C   0  0  0  0  0  0  0  0  0  0  0  0
   14.8668  -15.5761   23.4324 O   0  0  0  0  0  0  0  0  0  0  0  0
   12.4921  -15.5439   22.8801 C   0  0  0  0  0  0  0  0  0  0  0  0
   11.6553  -16.5021   23.6421 C   0  0  2  0  0  0  0  0  0  0  0  0
   10.2418  -16.0845   23.6402 N   0  0  0  0  0  0  0  0  0  0  0  0
   12.1162  -16.5098   25.0730 C   0  0  0  0  0  0  0  0  0  0  0  0
   13.2355  -16.9062   25.4362 O   0  0  0  0  0  0  0  0  0  0  0  0
   10.9586  -14.7931   28.2168 C   0  0  0  0  0  0  0  0  0  0  0  0
   11.6621  -15.9266   27.5006 C   0  0  2  0  0  0  0  0  0  0  0  0
   11.2635  -16.0460   26.1322 N   0  0  0  0  0  0  0  0  0  0  0  0
   11.5426  -17.1836   28.2490 C   0  0  0  0  0  0  0  0  0  0  0  0
   11.9840  -17.2857   29.5803 O   0  0  0  0  0  0  0  0  0  0  0  0
   11.0508  -18.2204   27.7591 O   0  0  0  0  0  0  0  0  0  0  0  0
  2  1  1  1
  3  2  1  0
  4  5  2  0
  4  3  1  0
  6  5  1  0
  7 12  2  0
  7  6  1  0
  8  7  1  0
  9 10  1  0
  9  8  2  0
 10 11  2  0
 11 12  1  0
 12  4  1  0
 13 14  2  0
 13  2  1  0
 16 17  2  0
 16 15  1  0
 18 16  1  0
 19 18  1  6
 19 20  1  0
 20 13  1  0
 21 25  1  0
 21 19  1  0
 22 21  2  0
 24 23  1  1
 24 25  1  0
 24 26  1  0
 26 27  1  0
 28 26  2  0
M  END
$$$$
