CMK.pdb
     RDKit          3D

 24 23  0  0  1  0  0  0  0  0999 V2000
   21.2431  -14.8051  -17.2503 N   0  0  0  0  0  0  0  0  0  0  0  0
   21.4136  -13.4811  -17.7562 C   0  0  1  0  0  0  0  0  0  0  0  0
   20.1255  -12.9057  -18.3240 C   0  0  0  0  0  0  0  0  0  0  0  0
   20.4073  -11.2439  -18.9888 S   0  0  0  0  0  0  0  0  0  0  0  0
   21.9021  -12.5221  -16.7423 C   0  0  0  0  0  0  0  0  0  0  0  0
   21.2374  -12.4701  -15.6588 O   0  0  0  0  0  0  0  0  0  0  0  0
   28.3644  -12.9494  -15.1459 C   0  0  0  0  0  0  0  0  0  0  0  0
   27.4603  -11.4426  -15.6427 S   0  0  0  0  0  0  0  0  0  0  0  0
   25.6829  -11.8226  -15.5153 C   0  0  0  0  0  0  0  0  0  0  0  0
   24.9292  -10.5508  -15.8756 C   0  0  0  0  0  0  0  0  0  0  0  0
   23.4397  -10.7995  -15.9206 C   0  0  2  0  0  0  0  0  0  0  0  0
   23.0406  -11.7027  -16.9487 N   0  0  0  0  0  0  0  0  0  0  0  0
   22.8170   -9.4604  -16.2205 C   0  0  0  0  0  0  0  0  0  0  0  0
   22.6142   -9.1006  -17.4307 O   0  0  0  0  0  0  0  0  0  0  0  0
   22.4417   -8.5716  -15.2164 N   0  0  0  0  0  0  0  0  0  0  0  0
   21.7296   -7.2874  -15.6249 C   0  0  1  0  0  0  0  0  0  0  0  0
   20.4023   -7.8178  -16.0249 C   0  0  0  0  0  0  0  0  0  0  0  0
   19.3085   -6.9034  -16.2723 C   0  0  0  0  0  0  0  0  0  0  0  0
   18.0033   -7.4872  -16.6576 C   0  0  0  0  0  0  0  0  0  0  0  0
   16.9567   -6.3345  -16.7723 C   0  0  0  0  0  0  0  0  0  0  0  0
   15.6489   -6.9011  -16.9195 N   0  0  0  0  0  0  0  0  0  0  0  0
   21.7982   -6.4945  -14.3786 C   0  0  0  0  0  0  0  0  0  0  0  0
   21.8802   -7.1413  -13.2664 O   0  0  0  0  0  0  0  0  0  0  0  0
   21.7945   -5.1367  -14.2158 O   0  0  0  0  0  0  0  0  0  0  0  0
  2  1  1  1
  2  3  1  0
  3  4  1  0
  5  2  1  0
  5  6  2  0
  7  8  1  0
  8  9  1  0
  9 10  1  0
 11 10  1  6
 11 12  1  0
 11 13  1  0
 12  5  1  0
 13 15  1  0
 13 14  2  0
 15 16  1  0
 16 22  1  0
 16 17  1  1
 18 17  1  0
 18 19  1  0
 19 20  1  0
 21 20  1  0
 22 23  2  0
 22 24  1  0
M  END
$$$$
