CMK.pdb
     RDKit          3D

 24 23  0  0  1  0  0  0  0  0999 V2000
   16.6569  -12.1307  -14.6418 N   0  0  0  0  0  0  0  0  0  0  0  0
   16.5514  -10.7070  -14.6359 C   0  0  1  0  0  0  0  0  0  0  0  0
   15.1310  -10.2285  -14.8924 C   0  0  0  0  0  0  0  0  0  0  0  0
   14.6144  -10.6383  -16.5800 S   0  0  0  0  0  0  0  0  0  0  0  0
   16.9898  -10.0898  -13.3658 C   0  0  0  0  0  0  0  0  0  0  0  0
   16.8448  -10.8016  -12.3213 O   0  0  0  0  0  0  0  0  0  0  0  0
   21.5973   -5.8595  -12.8613 C   0  0  0  0  0  0  0  0  0  0  0  0
   21.6355   -6.5120  -11.1561 S   0  0  0  0  0  0  0  0  0  0  0  0
   20.0216   -7.3014  -10.8526 C   0  0  0  0  0  0  0  0  0  0  0  0
   19.4712   -7.7234  -12.2070 C   0  0  0  0  0  0  0  0  0  0  0  0
   18.0948   -8.3301  -12.0660 C   0  0  2  0  0  0  0  0  0  0  0  0
   17.5404   -8.7850  -13.2980 N   0  0  0  0  0  0  0  0  0  0  0  0
   17.2163   -7.2194  -11.5510 C   0  0  0  0  0  0  0  0  0  0  0  0
   16.8542   -6.2710  -12.3288 O   0  0  0  0  0  0  0  0  0  0  0  0
   16.7675   -7.1743  -10.2336 N   0  0  0  0  0  0  0  0  0  0  0  0
   15.8416   -6.0328   -9.8302 C   0  0  1  0  0  0  0  0  0  0  0  0
   14.9094   -6.7377   -8.9154 C   0  0  0  0  0  0  0  0  0  0  0  0
   13.8875   -5.9897   -8.2154 C   0  0  0  0  0  0  0  0  0  0  0  0
   13.0002   -6.7391   -7.2967 C   0  0  0  0  0  0  0  0  0  0  0  0
   11.9592   -5.7465   -6.6899 C   0  0  0  0  0  0  0  0  0  0  0  0
   11.0427   -6.4749   -5.8637 N   0  0  0  0  0  0  0  0  0  0  0  0
   16.7909   -5.0726   -9.2273 C   0  0  0  0  0  0  0  0  0  0  0  0
   17.8213   -5.5562   -8.6217 O   0  0  0  0  0  0  0  0  0  0  0  0
   16.7492   -3.7058   -9.2165 O   0  0  0  0  0  0  0  0  0  0  0  0
  2  1  1  1
  2  3  1  0
  3  4  1  0
  5  2  1  0
  5  6  2  0
  7  8  1  0
  8  9  1  0
  9 10  1  0
 11 10  1  6
 11 12  1  0
 11 13  1  0
 12  5  1  0
 13 15  1  0
 13 14  2  0
 15 16  1  0
 16 22  1  0
 16 17  1  1
 18 17  1  0
 18 19  1  0
 19 20  1  0
 21 20  1  0
 22 23  2  0
 22 24  1  0
M  END
$$$$
