CMK.pdb
     RDKit          3D

 24 23  0  0  1  0  0  0  0  0999 V2000
   39.4005  -24.3338    4.6646 N   0  0  0  0  0  0  0  0  0  0  0  0
   38.1003  -24.8742    4.9004 C   0  0  1  0  0  0  0  0  0  0  0  0
   38.1445  -26.1660    5.7014 C   0  0  0  0  0  0  0  0  0  0  0  0
   36.4747  -26.8292    5.9356 S   0  0  0  0  0  0  0  0  0  0  0  0
   37.2016  -23.9501    5.6246 C   0  0  0  0  0  0  0  0  0  0  0  0
   37.7114  -23.3422    6.6191 O   0  0  0  0  0  0  0  0  0  0  0  0
   31.9072  -21.0028    3.4112 C   0  0  0  0  0  0  0  0  0  0  0  0
   31.4696  -21.0446    5.1836 S   0  0  0  0  0  0  0  0  0  0  0  0
   33.0024  -21.4019    6.1015 C   0  0  0  0  0  0  0  0  0  0  0  0
   33.7321  -22.4981    5.3389 C   0  0  0  0  0  0  0  0  0  0  0  0
   35.0595  -22.8156    5.9869 C   0  0  2  0  0  0  0  0  0  0  0  0
   35.8508  -23.7422    5.2471 N   0  0  0  0  0  0  0  0  0  0  0  0
   34.7194  -23.4563    7.3078 C   0  0  0  0  0  0  0  0  0  0  0  0
   34.5323  -24.7191    7.3822 O   0  0  0  0  0  0  0  0  0  0  0  0
   34.5954  -22.7198    8.4830 N   0  0  0  0  0  0  0  0  0  0  0  0
   34.6970  -23.4638    9.8095 C   0  0  1  0  0  0  0  0  0  0  0  0
   36.1674  -23.4775   10.0115 C   0  0  0  0  0  0  0  0  0  0  0  0
   36.8307  -24.7109   10.3754 C   0  0  0  0  0  0  0  0  0  0  0  0
   38.3014  -24.6722   10.5442 C   0  0  0  0  0  0  0  0  0  0  0  0
   38.8086  -26.1216   10.8252 C   0  0  0  0  0  0  0  0  0  0  0  0
   40.2388  -26.1097   10.9115 N   0  0  0  0  0  0  0  0  0  0  0  0
   33.8953  -22.5998   10.7025 C   0  0  0  0  0  0  0  0  0  0  0  0
   33.6181  -21.4110   10.2877 O   0  0  0  0  0  0  0  0  0  0  0  0
   33.3791  -22.8756   11.9384 O   0  0  0  0  0  0  0  0  0  0  0  0
  2  1  1  1
  2  3  1  0
  3  4  1  0
  5  2  1  0
  5  6  2  0
  7  8  1  0
  8  9  1  0
  9 10  1  0
 11 10  1  6
 11 12  1  0
 11 13  1  0
 12  5  1  0
 13 15  1  0
 13 14  2  0
 15 16  1  0
 16 22  1  0
 16 17  1  1
 18 17  1  0
 18 19  1  0
 19 20  1  0
 21 20  1  0
 22 23  2  0
 22 24  1  0
M  END
$$$$
