CMK.pdb
     RDKit          3D

 24 23  0  0  1  0  0  0  0  0999 V2000
   21.7640  -16.0264  -17.1115 N   0  0  0  0  0  0  0  0  0  0  0  0
   21.4888  -14.7507  -17.6904 C   0  0  1  0  0  0  0  0  0  0  0  0
   20.0109  -14.5553  -17.9903 C   0  0  0  0  0  0  0  0  0  0  0  0
   19.5091  -15.5629  -19.4101 S   0  0  0  0  0  0  0  0  0  0  0  0
   21.9083  -13.6160  -16.8403 C   0  0  0  0  0  0  0  0  0  0  0  0
   21.5854  -13.6909  -15.6120 O   0  0  0  0  0  0  0  0  0  0  0  0
   27.5098  -11.9495  -14.9208 C   0  0  0  0  0  0  0  0  0  0  0  0
   26.9615  -10.3440  -15.5962 S   0  0  0  0  0  0  0  0  0  0  0  0
   25.1408  -10.3326  -15.5287 C   0  0  0  0  0  0  0  0  0  0  0  0
   24.6531  -11.3962  -16.5015 C   0  0  0  0  0  0  0  0  0  0  0  0
   23.1509  -11.5430  -16.4333 C   0  0  2  0  0  0  0  0  0  0  0  0
   22.6274  -12.5040  -17.3469 N   0  0  0  0  0  0  0  0  0  0  0  0
   22.5970  -10.1957  -16.8188 C   0  0  0  0  0  0  0  0  0  0  0  0
   22.7327   -9.7611  -18.0139 O   0  0  0  0  0  0  0  0  0  0  0  0
   21.9266   -9.3787  -15.9122 N   0  0  0  0  0  0  0  0  0  0  0  0
   21.4214   -8.0268  -16.4028 C   0  0  1  0  0  0  0  0  0  0  0  0
   20.1183   -7.9416  -15.6975 C   0  0  0  0  0  0  0  0  0  0  0  0
   19.3103   -6.7479  -15.8236 C   0  0  0  0  0  0  0  0  0  0  0  0
   17.9011   -6.9177  -16.2457 C   0  0  0  0  0  0  0  0  0  0  0  0
   17.2307   -5.5098  -16.3206 C   0  0  0  0  0  0  0  0  0  0  0  0
   15.9898   -5.6180  -17.0288 N   0  0  0  0  0  0  0  0  0  0  0  0
   22.4995   -7.1202  -15.9527 C   0  0  0  0  0  0  0  0  0  0  0  0
   23.1623   -7.4610  -14.9007 O   0  0  0  0  0  0  0  0  0  0  0  0
   22.9221   -5.9402  -16.4997 O   0  0  0  0  0  0  0  0  0  0  0  0
  2  1  1  1
  2  3  1  0
  3  4  1  0
  5  2  1  0
  5  6  2  0
  7  8  1  0
  8  9  1  0
  9 10  1  0
 11 10  1  6
 11 12  1  0
 11 13  1  0
 12  5  1  0
 13 15  1  0
 13 14  2  0
 15 16  1  0
 16 22  1  0
 16 17  1  1
 18 17  1  0
 18 19  1  0
 19 20  1  0
 21 20  1  0
 22 23  2  0
 22 24  1  0
M  END
$$$$
