CMK.pdb
     RDKit          3D

 24 23  0  0  1  0  0  0  0  0999 V2000
   27.9176  -19.7799  -15.9138 N   0  0  0  0  0  0  0  0  0  0  0  0
   26.8463  -19.1561  -15.2057 C   0  0  1  0  0  0  0  0  0  0  0  0
   26.0707  -18.1755  -16.0714 C   0  0  0  0  0  0  0  0  0  0  0  0
   25.0120  -17.1197  -15.0481 S   0  0  0  0  0  0  0  0  0  0  0  0
   25.8641  -20.1167  -14.6592 C   0  0  0  0  0  0  0  0  0  0  0  0
   25.6137  -21.1311  -15.3850 O   0  0  0  0  0  0  0  0  0  0  0  0
   25.8745  -20.1490   -8.5656 C   0  0  0  0  0  0  0  0  0  0  0  0
   26.4361  -21.7241   -9.2992 S   0  0  0  0  0  0  0  0  0  0  0  0
   26.2268  -21.5751  -11.1030 C   0  0  0  0  0  0  0  0  0  0  0  0
   24.7710  -21.2094  -11.3530 C   0  0  0  0  0  0  0  0  0  0  0  0
   24.5072  -21.0191  -12.8284 C   0  0  2  0  0  0  0  0  0  0  0  0
   25.2302  -19.9338  -13.4041 N   0  0  0  0  0  0  0  0  0  0  0  0
   23.0386  -20.6995  -12.9367 C   0  0  0  0  0  0  0  0  0  0  0  0
   22.5655  -19.6479  -12.3839 O   0  0  0  0  0  0  0  0  0  0  0  0
   22.1475  -21.5161  -13.6281 N   0  0  0  0  0  0  0  0  0  0  0  0
   20.7012  -21.0522  -13.7558 C   0  0  1  0  0  0  0  0  0  0  0  0
   20.4493  -21.3122  -15.1952 C   0  0  0  0  0  0  0  0  0  0  0  0
   21.1920  -20.5795  -16.1979 C   0  0  0  0  0  0  0  0  0  0  0  0
   22.1272  -21.3465  -17.0523 C   0  0  0  0  0  0  0  0  0  0  0  0
   22.8430  -20.3546  -18.0223 C   0  0  0  0  0  0  0  0  0  0  0  0
   23.7699  -21.0821  -18.8373 N   0  0  0  0  0  0  0  0  0  0  0  0
   20.0168  -21.9240  -12.7768 C   0  0  0  0  0  0  0  0  0  0  0  0
   20.6025  -23.0252  -12.4503 O   0  0  0  0  0  0  0  0  0  0  0  0
   18.8229  -21.7359  -12.1372 O   0  0  0  0  0  0  0  0  0  0  0  0
  2  1  1  6
  2  3  1  0
  3  4  1  0
  5  2  1  0
  5  6  2  0
  7  8  1  0
  8  9  1  0
  9 10  1  0
 11 10  1  1
 11 12  1  0
 11 13  1  0
 12  5  1  0
 13 15  1  0
 13 14  2  0
 15 16  1  0
 16 22  1  0
 16 17  1  6
 18 17  1  0
 18 19  1  0
 19 20  1  0
 21 20  1  0
 22 23  2  0
 22 24  1  0
M  END
$$$$
