CMK.pdb
     RDKit          3D

 24 23  0  0  1  0  0  0  0  0999 V2000
   28.0051  -12.2995  -18.1157 N   0  0  0  0  0  0  0  0  0  0  0  0
   26.8809  -12.2549  -17.2370 C   0  0  1  0  0  0  0  0  0  0  0  0
   27.2811  -11.9877  -15.7945 C   0  0  0  0  0  0  0  0  0  0  0  0
   28.2429  -13.3729  -15.1319 S   0  0  0  0  0  0  0  0  0  0  0  0
   25.8870  -11.2239  -17.6050 C   0  0  0  0  0  0  0  0  0  0  0  0
   26.3448  -10.1946  -18.1962 O   0  0  0  0  0  0  0  0  0  0  0  0
   19.1422  -11.4078  -17.5366 C   0  0  0  0  0  0  0  0  0  0  0  0
   19.7273  -10.9481  -19.2043 S   0  0  0  0  0  0  0  0  0  0  0  0
   21.3396  -10.1259  -18.9942 C   0  0  0  0  0  0  0  0  0  0  0  0
   22.2274  -11.0815  -18.2106 C   0  0  0  0  0  0  0  0  0  0  0  0
   23.5809  -10.4658  -17.9435 C   0  0  2  0  0  0  0  0  0  0  0  0
   24.5038  -11.3581  -17.3236 N   0  0  0  0  0  0  0  0  0  0  0  0
   23.3252   -9.3324  -16.9839 C   0  0  0  0  0  0  0  0  0  0  0  0
   23.3911   -9.5291  -15.7220 O   0  0  0  0  0  0  0  0  0  0  0  0
   23.0118   -8.0464  -17.4163 N   0  0  0  0  0  0  0  0  0  0  0  0
   22.9273   -6.9394  -16.3720 C   0  0  1  0  0  0  0  0  0  0  0  0
   23.4686   -5.7892  -17.1381 C   0  0  0  0  0  0  0  0  0  0  0  0
   23.3738   -4.4533  -16.5903 C   0  0  0  0  0  0  0  0  0  0  0  0
   23.9845   -3.3507  -17.3678 C   0  0  0  0  0  0  0  0  0  0  0  0
   23.5971   -1.9949  -16.6977 C   0  0  0  0  0  0  0  0  0  0  0  0
   24.0931   -0.9164  -17.5000 N   0  0  0  0  0  0  0  0  0  0  0  0
   21.4821   -6.9291  -16.0591 C   0  0  0  0  0  0  0  0  0  0  0  0
   20.6692   -7.2885  -16.9930 O   0  0  0  0  0  0  0  0  0  0  0  0
   20.8518   -6.5929  -14.8930 O   0  0  0  0  0  0  0  0  0  0  0  0
  2  1  1  6
  2  3  1  0
  3  4  1  0
  5  2  1  0
  5  6  2  0
  7  8  1  0
  8  9  1  0
  9 10  1  0
 11 10  1  1
 11 12  1  0
 11 13  1  0
 12  5  1  0
 13 15  1  0
 13 14  2  0
 15 16  1  0
 16 22  1  0
 16 17  1  6
 18 17  1  0
 18 19  1  0
 19 20  1  0
 21 20  1  0
 22 23  2  0
 22 24  1  0
M  END
$$$$
