CMK.pdb
     RDKit          3D

 24 23  0  0  1  0  0  0  0  0999 V2000
   28.5003  -21.4391  -16.5600 N   0  0  0  0  0  0  0  0  0  0  0  0
   27.8738  -20.4058  -15.7998 C   0  0  1  0  0  0  0  0  0  0  0  0
   27.1526  -19.3946  -16.6772 C   0  0  0  0  0  0  0  0  0  0  0  0
   28.3122  -18.5987  -17.8194 S   0  0  0  0  0  0  0  0  0  0  0  0
   26.8844  -20.9107  -14.8239 C   0  0  0  0  0  0  0  0  0  0  0  0
   26.0763  -21.7933  -15.2557 O   0  0  0  0  0  0  0  0  0  0  0  0
   24.2075  -21.6459   -7.4648 C   0  0  0  0  0  0  0  0  0  0  0  0
   25.3583  -20.7415   -8.5568 S   0  0  0  0  0  0  0  0  0  0  0  0
   25.0839  -21.3608  -10.2482 C   0  0  0  0  0  0  0  0  0  0  0  0
   26.1000  -20.6694  -11.1453 C   0  0  0  0  0  0  0  0  0  0  0  0
   25.8689  -21.0224  -12.5960 C   0  0  2  0  0  0  0  0  0  0  0  0
   26.8258  -20.4501  -13.4842 N   0  0  0  0  0  0  0  0  0  0  0  0
   24.5208  -20.4442  -12.9411 C   0  0  0  0  0  0  0  0  0  0  0  0
   24.3706  -19.1787  -13.0473 O   0  0  0  0  0  0  0  0  0  0  0  0
   23.4004  -21.2426  -13.1555 N   0  0  0  0  0  0  0  0  0  0  0  0
   22.0980  -20.5585  -13.5543 C   0  0  1  0  0  0  0  0  0  0  0  0
   21.8760  -21.1412  -14.9011 C   0  0  0  0  0  0  0  0  0  0  0  0
   20.7380  -20.7176  -15.6881 C   0  0  0  0  0  0  0  0  0  0  0  0
   20.4521  -21.4651  -16.9340 C   0  0  0  0  0  0  0  0  0  0  0  0
   19.1889  -20.8437  -17.6088 C   0  0  0  0  0  0  0  0  0  0  0  0
   18.9310  -21.5274  -18.8412 N   0  0  0  0  0  0  0  0  0  0  0  0
   21.1881  -20.9855  -12.4695 C   0  0  0  0  0  0  0  0  0  0  0  0
   20.3585  -20.1115  -12.0112 O   0  0  0  0  0  0  0  0  0  0  0  0
   21.0809  -22.2050  -11.8602 O   0  0  0  0  0  0  0  0  0  0  0  0
  2  1  1  6
  2  3  1  0
  3  4  1  0
  5  2  1  0
  5  6  2  0
  7  8  1  0
  8  9  1  0
  9 10  1  0
 11 10  1  1
 11 12  1  0
 11 13  1  0
 12  5  1  0
 13 15  1  0
 13 14  2  0
 15 16  1  0
 16 22  1  0
 16 17  1  6
 18 17  1  0
 18 19  1  0
 19 20  1  0
 21 20  1  0
 22 23  2  0
 22 24  1  0
M  END
$$$$
