CMK.pdb
     RDKit          3D

 24 23  0  0  1  0  0  0  0  0999 V2000
   21.5490  -14.2984  -16.5248 N   0  0  0  0  0  0  0  0  0  0  0  0
   20.8561  -13.1653  -17.0485 C   0  0  1  0  0  0  0  0  0  0  0  0
   19.3800  -13.1670  -16.6830 C   0  0  0  0  0  0  0  0  0  0  0  0
   18.5976  -14.7191  -17.1946 S   0  0  0  0  0  0  0  0  0  0  0  0
   21.4105  -11.8734  -16.5906 C   0  0  0  0  0  0  0  0  0  0  0  0
   21.6009  -11.7615  -15.3377 O   0  0  0  0  0  0  0  0  0  0  0  0
   22.6464   -6.1700  -19.9349 C   0  0  0  0  0  0  0  0  0  0  0  0
   23.9845   -6.3557  -18.7062 S   0  0  0  0  0  0  0  0  0  0  0  0
   23.3272   -7.3878  -17.3562 C   0  0  0  0  0  0  0  0  0  0  0  0
   22.8498   -8.6893  -17.9834 C   0  0  0  0  0  0  0  0  0  0  0  0
   22.2041   -9.5825  -16.9500 C   0  0  2  0  0  0  0  0  0  0  0  0
   21.7171  -10.8128  -17.4803 N   0  0  0  0  0  0  0  0  0  0  0  0
   21.0206   -8.8073  -16.4312 C   0  0  0  0  0  0  0  0  0  0  0  0
   19.9245   -8.7875  -17.0896 O   0  0  0  0  0  0  0  0  0  0  0  0
   21.0639   -8.0920  -15.2373 N   0  0  0  0  0  0  0  0  0  0  0  0
   19.8057   -7.3515  -14.7990 C   0  0  1  0  0  0  0  0  0  0  0  0
   19.1573   -8.3798  -13.9476 C   0  0  0  0  0  0  0  0  0  0  0  0
   17.9960   -8.0304  -13.1583 C   0  0  0  0  0  0  0  0  0  0  0  0
   17.4481   -9.0660  -12.2527 C   0  0  0  0  0  0  0  0  0  0  0  0
   16.3435   -8.4148  -11.3621 C   0  0  0  0  0  0  0  0  0  0  0  0
   15.7386   -9.4278  -10.5491 N   0  0  0  0  0  0  0  0  0  0  0  0
   20.3736   -6.1661  -14.1214 C   0  0  0  0  0  0  0  0  0  0  0  0
   21.6018   -6.2338  -13.7352 O   0  0  0  0  0  0  0  0  0  0  0  0
   19.7821   -4.9666  -13.8362 O   0  0  0  0  0  0  0  0  0  0  0  0
  2  1  1  1
  2  3  1  0
  3  4  1  0
  5  2  1  0
  5  6  2  0
  7  8  1  0
  8  9  1  0
  9 10  1  0
 11 10  1  6
 11 12  1  0
 11 13  1  0
 12  5  1  0
 13 15  1  0
 13 14  2  0
 15 16  1  0
 16 22  1  0
 16 17  1  1
 18 17  1  0
 18 19  1  0
 19 20  1  0
 21 20  1  0
 22 23  2  0
 22 24  1  0
M  END
$$$$
