CMK.pdb
     RDKit          3D

 24 23  0  0  1  0  0  0  0  0999 V2000
   24.4665  -31.9602   -9.3486 N   0  0  0  0  0  0  0  0  0  0  0  0
   25.0864  -32.7221   -8.3125 C   0  0  1  0  0  0  0  0  0  0  0  0
   26.5871  -32.4886   -8.2380 C   0  0  0  0  0  0  0  0  0  0  0  0
   27.3235  -33.4858   -6.9165 S   0  0  0  0  0  0  0  0  0  0  0  0
   24.5404  -32.4400   -6.9677 C   0  0  0  0  0  0  0  0  0  0  0  0
   24.2965  -31.2182   -6.7106 O   0  0  0  0  0  0  0  0  0  0  0  0
   19.0216  -33.7577   -4.8698 C   0  0  0  0  0  0  0  0  0  0  0  0
   19.9458  -34.1701   -3.3498 S   0  0  0  0  0  0  0  0  0  0  0  0
   21.5317  -33.2769   -3.4330 C   0  0  0  0  0  0  0  0  0  0  0  0
   22.2533  -33.7671   -4.6798 C   0  0  0  0  0  0  0  0  0  0  0  0
   23.6152  -33.1248   -4.8039 C   0  0  2  0  0  0  0  0  0  0  0  0
   24.2974  -33.4575   -6.0105 N   0  0  0  0  0  0  0  0  0  0  0  0
   24.4237  -33.6707   -3.6554 C   0  0  0  0  0  0  0  0  0  0  0  0
   25.1824  -34.6859   -3.8265 O   0  0  0  0  0  0  0  0  0  0  0  0
   24.3836  -33.1082   -2.3823 N   0  0  0  0  0  0  0  0  0  0  0  0
   25.2360  -33.7440   -1.2903 C   0  0  1  0  0  0  0  0  0  0  0  0
   25.1245  -32.7239   -0.2179 C   0  0  0  0  0  0  0  0  0  0  0  0
   25.8560  -32.8988    1.0183 C   0  0  0  0  0  0  0  0  0  0  0  0
   25.7899  -31.8034    2.0126 C   0  0  0  0  0  0  0  0  0  0  0  0
   26.7213  -32.1634    3.2126 C   0  0  0  0  0  0  0  0  0  0  0  0
   26.7759  -31.0512    4.1142 N   0  0  0  0  0  0  0  0  0  0  0  0
   24.5429  -35.0330   -1.0782 C   0  0  0  0  0  0  0  0  0  0  0  0
   23.2686  -35.0616   -1.2722 O   0  0  0  0  0  0  0  0  0  0  0  0
   25.0602  -36.2417   -0.7020 O   0  0  0  0  0  0  0  0  0  0  0  0
  2  1  1  6
  2  3  1  0
  3  4  1  0
  5  2  1  0
  5  6  2  0
  7  8  1  0
  8  9  1  0
  9 10  1  0
 11 10  1  6
 11 12  1  0
 11 13  1  0
 12  5  1  0
 13 15  1  0
 13 14  2  0
 15 16  1  0
 16 22  1  0
 16 17  1  1
 18 17  1  0
 18 19  1  0
 19 20  1  0
 21 20  1  0
 22 23  2  0
 22 24  1  0
M  END
$$$$
