CMK.pdb
     RDKit          3D

 24 23  0  0  1  0  0  0  0  0999 V2000
   21.4568  -15.7252  -18.3070 N   0  0  0  0  0  0  0  0  0  0  0  0
   20.8600  -15.5195  -17.0265 C   0  0  1  0  0  0  0  0  0  0  0  0
   20.8557  -16.7813  -16.1779 C   0  0  0  0  0  0  0  0  0  0  0  0
   20.8811  -18.2572  -17.2286 S   0  0  0  0  0  0  0  0  0  0  0  0
   21.5263  -14.4677  -16.2290 C   0  0  0  0  0  0  0  0  0  0  0  0
   21.0590  -14.2737  -15.0617 O   0  0  0  0  0  0  0  0  0  0  0  0
   27.6367  -13.2394  -15.4552 C   0  0  0  0  0  0  0  0  0  0  0  0
   27.0681  -11.5075  -15.3469 S   0  0  0  0  0  0  0  0  0  0  0  0
   25.2663  -11.5551  -15.0806 C   0  0  0  0  0  0  0  0  0  0  0  0
   24.7035  -12.6006  -16.0324 C   0  0  0  0  0  0  0  0  0  0  0  0
   23.2042  -12.7148  -15.8847 C   0  0  2  0  0  0  0  0  0  0  0  0
   22.6208  -13.7118  -16.7199 N   0  0  0  0  0  0  0  0  0  0  0  0
   22.6547  -11.3790  -16.3141 C   0  0  0  0  0  0  0  0  0  0  0  0
   22.7019  -11.0276  -17.5427 O   0  0  0  0  0  0  0  0  0  0  0  0
   22.0825  -10.4844  -15.4133 N   0  0  0  0  0  0  0  0  0  0  0  0
   21.5412   -9.1673  -15.9569 C   0  0  1  0  0  0  0  0  0  0  0  0
   20.0801   -9.3828  -15.8106 C   0  0  0  0  0  0  0  0  0  0  0  0
   19.1721   -8.2645  -15.9471 C   0  0  0  0  0  0  0  0  0  0  0  0
   17.7207   -8.5498  -15.8762 C   0  0  0  0  0  0  0  0  0  0  0  0
   16.9390   -7.2323  -16.1771 C   0  0  0  0  0  0  0  0  0  0  0  0
   15.5333   -7.5094  -16.1729 N   0  0  0  0  0  0  0  0  0  0  0  0
   22.1779   -8.1837  -15.0546 C   0  0  0  0  0  0  0  0  0  0  0  0
   22.4426   -7.0181  -15.5378 O   0  0  0  0  0  0  0  0  0  0  0  0
   22.5361   -8.3193  -13.7418 O   0  0  0  0  0  0  0  0  0  0  0  0
  2  1  1  6
  2  3  1  0
  3  4  1  0
  5  2  1  0
  5  6  2  0
  7  8  1  0
  8  9  1  0
  9 10  1  0
 11 10  1  6
 11 12  1  0
 11 13  1  0
 12  5  1  0
 13 15  1  0
 13 14  2  0
 15 16  1  0
 16 22  1  0
 16 17  1  1
 18 17  1  0
 18 19  1  0
 19 20  1  0
 21 20  1  0
 22 23  2  0
 22 24  1  0
M  END
$$$$
