CMK.pdb
     RDKit          3D

 24 23  0  0  1  0  0  0  0  0999 V2000
   22.0112  -19.0143  -15.4053 N   0  0  0  0  0  0  0  0  0  0  0  0
   22.8538  -18.2696  -16.2848 C   0  0  1  0  0  0  0  0  0  0  0  0
   22.4076  -18.3642  -17.7355 C   0  0  0  0  0  0  0  0  0  0  0  0
   22.4886  -20.0780  -18.3177 S   0  0  0  0  0  0  0  0  0  0  0  0
   22.9277  -16.8311  -15.9510 C   0  0  0  0  0  0  0  0  0  0  0  0
   21.8566  -16.3060  -15.5088 O   0  0  0  0  0  0  0  0  0  0  0  0
   27.0019  -10.2479  -14.5966 C   0  0  0  0  0  0  0  0  0  0  0  0
   27.0958  -12.0429  -14.9189 S   0  0  0  0  0  0  0  0  0  0  0  0
   25.3981  -12.6122  -15.2554 C   0  0  0  0  0  0  0  0  0  0  0  0
   25.4715  -14.1132  -15.4943 C   0  0  0  0  0  0  0  0  0  0  0  0
   24.0985  -14.6866  -15.7565 C   0  0  2  0  0  0  0  0  0  0  0  0
   24.1124  -16.0680  -16.1082 N   0  0  0  0  0  0  0  0  0  0  0  0
   23.5604  -13.9192  -16.9364 C   0  0  0  0  0  0  0  0  0  0  0  0
   23.9279  -14.2214  -18.1234 O   0  0  0  0  0  0  0  0  0  0  0  0
   22.6582  -12.8683  -16.7930 N   0  0  0  0  0  0  0  0  0  0  0  0
   22.1966  -12.1427  -18.0514 C   0  0  1  0  0  0  0  0  0  0  0  0
   20.8246  -11.7388  -17.6550 C   0  0  0  0  0  0  0  0  0  0  0  0
   20.0435  -10.8932  -18.5317 C   0  0  0  0  0  0  0  0  0  0  0  0
   18.6403  -10.6195  -18.1459 C   0  0  0  0  0  0  0  0  0  0  0  0
   17.9765   -9.7540  -19.2629 C   0  0  0  0  0  0  0  0  0  0  0  0
   16.5904   -9.5682  -18.9511 N   0  0  0  0  0  0  0  0  0  0  0  0
   23.2120  -11.0746  -18.1737 C   0  0  0  0  0  0  0  0  0  0  0  0
   23.5384  -10.6982  -19.3628 O   0  0  0  0  0  0  0  0  0  0  0  0
   23.8769  -10.3963  -17.1899 O   0  0  0  0  0  0  0  0  0  0  0  0
  2  1  1  1
  2  3  1  0
  3  4  1  0
  5  2  1  0
  5  6  2  0
  7  8  1  0
  8  9  1  0
  9 10  1  0
 11 10  1  6
 11 12  1  0
 11 13  1  0
 12  5  1  0
 13 15  1  0
 13 14  2  0
 15 16  1  0
 16 22  1  0
 16 17  1  1
 18 17  1  0
 18 19  1  0
 19 20  1  0
 21 20  1  0
 22 23  2  0
 22 24  1  0
M  END
$$$$
