CMK.pdb
     RDKit          3D

 24 23  0  0  1  0  0  0  0  0999 V2000
   20.7982  -20.0475   -8.9814 N   0  0  0  0  0  0  0  0  0  0  0  0
   21.9098  -20.8732   -8.6342 C   0  0  1  0  0  0  0  0  0  0  0  0
   21.6668  -22.3398   -8.9546 C   0  0  0  0  0  0  0  0  0  0  0  0
   20.2333  -22.9641   -8.0392 S   0  0  0  0  0  0  0  0  0  0  0  0
   23.1647  -20.4871   -9.3142 C   0  0  0  0  0  0  0  0  0  0  0  0
   23.0335  -19.8077  -10.3817 O   0  0  0  0  0  0  0  0  0  0  0  0
   29.5964  -20.6993   -7.4546 C   0  0  0  0  0  0  0  0  0  0  0  0
   28.2958  -19.9677   -6.4020 S   0  0  0  0  0  0  0  0  0  0  0  0
   26.9470  -19.4447   -7.5096 C   0  0  0  0  0  0  0  0  0  0  0  0
   26.8678  -20.4717   -8.6296 C   0  0  0  0  0  0  0  0  0  0  0  0
   25.6047  -20.2925   -9.4390 C   0  0  2  0  0  0  0  0  0  0  0  0
   24.4449  -20.8441   -8.8203 N   0  0  0  0  0  0  0  0  0  0  0  0
   25.8398  -21.0446  -10.7235 C   0  0  0  0  0  0  0  0  0  0  0  0
   25.6758  -22.3121  -10.7674 O   0  0  0  0  0  0  0  0  0  0  0  0
   26.2378  -20.4090  -11.8968 N   0  0  0  0  0  0  0  0  0  0  0  0
   26.2522  -21.2244  -13.1845 C   0  0  1  0  0  0  0  0  0  0  0  0
   25.0826  -20.6487  -13.8941 C   0  0  0  0  0  0  0  0  0  0  0  0
   24.8024  -21.0465  -15.2569 C   0  0  0  0  0  0  0  0  0  0  0  0
   23.8084  -22.1245  -15.4637 C   0  0  0  0  0  0  0  0  0  0  0  0
   23.6776  -22.3938  -16.9959 C   0  0  0  0  0  0  0  0  0  0  0  0
   22.6746  -23.3938  -17.2125 N   0  0  0  0  0  0  0  0  0  0  0  0
   27.5945  -20.9153  -13.7226 C   0  0  0  0  0  0  0  0  0  0  0  0
   28.2087  -21.8516  -14.3616 O   0  0  0  0  0  0  0  0  0  0  0  0
   28.3078  -19.7508  -13.6517 O   0  0  0  0  0  0  0  0  0  0  0  0
  2  1  1  6
  2  3  1  0
  3  4  1  0
  5  2  1  0
  5  6  2  0
  7  8  1  0
  8  9  1  0
  9 10  1  0
 11 10  1  1
 11 12  1  0
 11 13  1  0
 12  5  1  0
 13 15  1  0
 13 14  2  0
 15 16  1  0
 16 22  1  0
 16 17  1  6
 18 17  1  0
 18 19  1  0
 19 20  1  0
 21 20  1  0
 22 23  2  0
 22 24  1  0
M  END
$$$$
