CMK.pdb
     RDKit          3D

 24 23  0  0  1  0  0  0  0  0999 V2000
   23.9968  -13.8180  -16.0249 N   0  0  0  0  0  0  0  0  0  0  0  0
   24.9478  -13.6349  -17.0738 C   0  0  1  0  0  0  0  0  0  0  0  0
   24.3329  -13.8125  -18.4532 C   0  0  0  0  0  0  0  0  0  0  0  0
   23.8258  -15.5331  -18.7092 S   0  0  0  0  0  0  0  0  0  0  0  0
   25.5916  -12.3039  -17.0586 C   0  0  0  0  0  0  0  0  0  0  0  0
   24.8775  -11.3446  -16.6248 O   0  0  0  0  0  0  0  0  0  0  0  0
   31.9755   -7.7570  -17.0927 C   0  0  0  0  0  0  0  0  0  0  0  0
   31.3414   -9.4494  -17.3547 S   0  0  0  0  0  0  0  0  0  0  0  0
   29.5226   -9.3423  -17.3507 C   0  0  0  0  0  0  0  0  0  0  0  0
   28.9930  -10.7669  -17.4248 C   0  0  0  0  0  0  0  0  0  0  0  0
   27.4824  -10.7837  -17.4066 C   0  0  2  0  0  0  0  0  0  0  0  0
   26.9231  -12.0918  -17.4974 N   0  0  0  0  0  0  0  0  0  0  0  0
   27.0567  -10.0177  -18.6324 C   0  0  0  0  0  0  0  0  0  0  0  0
   27.1238  -10.5617  -19.7878 O   0  0  0  0  0  0  0  0  0  0  0  0
   26.5810   -8.7107  -18.5663 N   0  0  0  0  0  0  0  0  0  0  0  0
   26.1762   -8.0282  -19.8677 C   0  0  1  0  0  0  0  0  0  0  0  0
   24.7611   -7.6877  -19.5775 C   0  0  0  0  0  0  0  0  0  0  0  0
   24.0142   -6.8690  -20.5080 C   0  0  0  0  0  0  0  0  0  0  0  0
   22.5759   -6.6548  -20.2281 C   0  0  0  0  0  0  0  0  0  0  0  0
   21.9647   -5.8041  -21.3857 C   0  0  0  0  0  0  0  0  0  0  0  0
   20.5488   -5.6985  -21.1933 N   0  0  0  0  0  0  0  0  0  0  0  0
   27.1443   -6.9125  -19.9374 C   0  0  0  0  0  0  0  0  0  0  0  0
   27.6212   -6.4691  -18.8248 O   0  0  0  0  0  0  0  0  0  0  0  0
   27.6342   -6.2596  -21.0346 O   0  0  0  0  0  0  0  0  0  0  0  0
  2  1  1  1
  2  3  1  0
  3  4  1  0
  5  2  1  0
  5  6  2  0
  7  8  1  0
  8  9  1  0
  9 10  1  0
 11 10  1  6
 11 12  1  0
 11 13  1  0
 12  5  1  0
 13 15  1  0
 13 14  2  0
 15 16  1  0
 16 22  1  0
 16 17  1  1
 18 17  1  0
 18 19  1  0
 19 20  1  0
 21 20  1  0
 22 23  2  0
 22 24  1  0
M  END
$$$$
