CMK.pdb
     RDKit          3D

 24 23  0  0  1  0  0  0  0  0999 V2000
   19.4608  -13.1770  -17.5881 N   0  0  0  0  0  0  0  0  0  0  0  0
   19.8354  -11.8463  -17.9445 C   0  0  1  0  0  0  0  0  0  0  0  0
   18.6318  -10.9491  -18.1873 C   0  0  0  0  0  0  0  0  0  0  0  0
   17.6689  -11.5420  -19.6029 S   0  0  0  0  0  0  0  0  0  0  0  0
   20.6712  -11.1773  -16.9247 C   0  0  0  0  0  0  0  0  0  0  0  0
   20.4161  -11.4731  -15.7139 O   0  0  0  0  0  0  0  0  0  0  0  0
   26.8095  -11.2902  -14.9284 C   0  0  0  0  0  0  0  0  0  0  0  0
   26.5230   -9.6074  -15.5773 S   0  0  0  0  0  0  0  0  0  0  0  0
   24.7649   -9.2210  -15.2955 C   0  0  0  0  0  0  0  0  0  0  0  0
   23.9745   -9.9212  -16.3912 C   0  0  0  0  0  0  0  0  0  0  0  0
   22.4908   -9.6966  -16.2152 C   0  0  2  0  0  0  0  0  0  0  0  0
   21.6988  -10.2591  -17.2584 N   0  0  0  0  0  0  0  0  0  0  0  0
   22.3029   -8.2019  -16.2529 C   0  0  0  0  0  0  0  0  0  0  0  0
   22.4610   -7.5600  -17.3476 O   0  0  0  0  0  0  0  0  0  0  0  0
   21.9563   -7.4658  -15.1228 N   0  0  0  0  0  0  0  0  0  0  0  0
   21.7248   -5.9682  -15.2858 C   0  0  1  0  0  0  0  0  0  0  0  0
   20.2512   -5.9294  -15.4589 C   0  0  0  0  0  0  0  0  0  0  0  0
   19.5755   -4.6554  -15.5782 C   0  0  0  0  0  0  0  0  0  0  0  0
   18.1173   -4.6764  -15.8349 C   0  0  0  0  0  0  0  0  0  0  0  0
   17.6062   -3.2040  -15.9242 C   0  0  0  0  0  0  0  0  0  0  0  0
   16.2434   -3.2064  -16.3666 N   0  0  0  0  0  0  0  0  0  0  0  0
   22.2756   -5.4379  -14.0201 C   0  0  0  0  0  0  0  0  0  0  0  0
   22.3076   -6.2337  -13.0062 O   0  0  0  0  0  0  0  0  0  0  0  0
   22.7793   -4.1958  -13.7490 O   0  0  0  0  0  0  0  0  0  0  0  0
  2  1  1  1
  2  3  1  0
  3  4  1  0
  5  2  1  0
  5  6  2  0
  7  8  1  0
  8  9  1  0
  9 10  1  0
 11 10  1  6
 11 12  1  0
 11 13  1  0
 12  5  1  0
 13 15  1  0
 13 14  2  0
 15 16  1  0
 16 22  1  0
 16 17  1  1
 18 17  1  0
 18 19  1  0
 19 20  1  0
 21 20  1  0
 22 23  2  0
 22 24  1  0
M  END
$$$$
