CMK.pdb
     RDKit          3D

 24 23  0  0  1  0  0  0  0  0999 V2000
   23.3794  -12.1687  -21.3721 N   0  0  0  0  0  0  0  0  0  0  0  0
   23.8788  -10.8454  -21.1778 C   0  0  1  0  0  0  0  0  0  0  0  0
   23.0706   -9.8025  -21.9338 C   0  0  0  0  0  0  0  0  0  0  0  0
   23.4497   -9.8616  -23.7045 S   0  0  0  0  0  0  0  0  0  0  0  0
   23.9005  -10.4270  -19.7598 C   0  0  0  0  0  0  0  0  0  0  0  0
   22.9874  -10.9156  -19.0208 O   0  0  0  0  0  0  0  0  0  0  0  0
   27.3323  -11.6932  -15.2770 C   0  0  0  0  0  0  0  0  0  0  0  0
   25.8782  -10.6490  -14.9165 S   0  0  0  0  0  0  0  0  0  0  0  0
   26.1691   -9.0379  -15.7163 C   0  0  0  0  0  0  0  0  0  0  0  0
   26.2469   -9.2928  -17.2144 C   0  0  0  0  0  0  0  0  0  0  0  0
   24.8732   -9.2512  -17.8419 C   0  0  2  0  0  0  0  0  0  0  0  0
   24.8727   -9.5362  -19.2386 N   0  0  0  0  0  0  0  0  0  0  0  0
   24.3920   -7.8344  -17.6636 C   0  0  0  0  0  0  0  0  0  0  0  0
   25.0432   -6.8629  -18.1807 O   0  0  0  0  0  0  0  0  0  0  0  0
   23.2417   -7.5233  -16.9433 N   0  0  0  0  0  0  0  0  0  0  0  0
   22.8489   -6.0559  -16.8181 C   0  0  1  0  0  0  0  0  0  0  0  0
   21.4251   -6.1102  -17.2337 C   0  0  0  0  0  0  0  0  0  0  0  0
   20.5751   -4.9559  -17.0367 C   0  0  0  0  0  0  0  0  0  0  0  0
   19.1659   -5.0611  -17.4796 C   0  0  0  0  0  0  0  0  0  0  0  0
   18.4148   -3.7572  -17.0638 C   0  0  0  0  0  0  0  0  0  0  0  0
   17.0275   -3.8882  -17.3974 N   0  0  0  0  0  0  0  0  0  0  0  0
   23.1318   -5.7881  -15.3915 C   0  0  0  0  0  0  0  0  0  0  0  0
   23.1149   -6.7927  -14.5836 O   0  0  0  0  0  0  0  0  0  0  0  0
   23.4247   -4.6030  -14.7753 O   0  0  0  0  0  0  0  0  0  0  0  0
  2  1  1  1
  2  3  1  0
  3  4  1  0
  5  2  1  0
  5  6  2  0
  7  8  1  0
  8  9  1  0
  9 10  1  0
 11 10  1  6
 11 12  1  0
 11 13  1  0
 12  5  1  0
 13 15  1  0
 13 14  2  0
 15 16  1  0
 16 22  1  0
 16 17  1  1
 18 17  1  0
 18 19  1  0
 19 20  1  0
 21 20  1  0
 22 23  2  0
 22 24  1  0
M  END
$$$$
