CMK.pdb
     RDKit          3D

 24 23  0  0  1  0  0  0  0  0999 V2000
   20.6819  -16.2753  -16.8221 N   0  0  0  0  0  0  0  0  0  0  0  0
   20.0128  -15.0821  -16.4136 C   0  0  1  0  0  0  0  0  0  0  0  0
   18.9503  -15.3442  -15.3577 C   0  0  0  0  0  0  0  0  0  0  0  0
   17.8211  -16.6534  -15.8996 S   0  0  0  0  0  0  0  0  0  0  0  0
   20.9235  -14.0565  -15.8614 C   0  0  0  0  0  0  0  0  0  0  0  0
   20.4916  -13.4132  -14.8524 O   0  0  0  0  0  0  0  0  0  0  0  0
   27.9493  -10.5399  -15.4451 C   0  0  0  0  0  0  0  0  0  0  0  0
   26.9733  -11.8569  -16.2497 S   0  0  0  0  0  0  0  0  0  0  0  0
   25.2784  -11.7406  -15.5912 C   0  0  0  0  0  0  0  0  0  0  0  0
   24.4530  -12.8065  -16.2967 C   0  0  0  0  0  0  0  0  0  0  0  0
   23.0225  -12.7922  -15.8107 C   0  0  2  0  0  0  0  0  0  0  0  0
   22.2038  -13.7930  -16.4108 N   0  0  0  0  0  0  0  0  0  0  0  0
   22.4736  -11.4484  -16.2152 C   0  0  0  0  0  0  0  0  0  0  0  0
   22.2737  -11.1789  -17.4492 O   0  0  0  0  0  0  0  0  0  0  0  0
   22.1651  -10.4591  -15.2851 N   0  0  0  0  0  0  0  0  0  0  0  0
   21.6218   -9.1325  -15.8030 C   0  0  1  0  0  0  0  0  0  0  0  0
   20.1655   -9.3232  -15.5893 C   0  0  0  0  0  0  0  0  0  0  0  0
   19.2675   -8.1957  -15.7162 C   0  0  0  0  0  0  0  0  0  0  0  0
   17.8190   -8.4529  -15.5466 C   0  0  0  0  0  0  0  0  0  0  0  0
   17.0388   -7.1405  -15.8721 C   0  0  0  0  0  0  0  0  0  0  0  0
   16.9852   -6.9667  -17.2933 N   0  0  0  0  0  0  0  0  0  0  0  0
   22.3162   -8.1607  -14.9310 C   0  0  0  0  0  0  0  0  0  0  0  0
   22.5476   -6.9881  -15.4142 O   0  0  0  0  0  0  0  0  0  0  0  0
   22.7606   -8.3141  -13.6469 O   0  0  0  0  0  0  0  0  0  0  0  0
  2  1  1  1
  2  3  1  0
  3  4  1  0
  5  2  1  0
  5  6  2  0
  7  8  1  0
  8  9  1  0
  9 10  1  0
 11 10  1  6
 11 12  1  0
 11 13  1  0
 12  5  1  0
 13 15  1  0
 13 14  2  0
 15 16  1  0
 16 22  1  0
 16 17  1  1
 18 17  1  0
 18 19  1  0
 19 20  1  0
 21 20  1  0
 22 23  2  0
 22 24  1  0
M  END
$$$$
