CMK.pdb
     RDKit          3D

 24 23  0  0  1  0  0  0  0  0999 V2000
   28.4191  -21.7357  -15.9926 N   0  0  0  0  0  0  0  0  0  0  0  0
   28.1431  -20.7316  -15.0159 C   0  0  1  0  0  0  0  0  0  0  0  0
   27.6900  -19.4217  -15.6414 C   0  0  0  0  0  0  0  0  0  0  0  0
   29.0352  -18.6706  -16.5948 S   0  0  0  0  0  0  0  0  0  0  0  0
   27.1012  -21.1267  -14.0440 C   0  0  0  0  0  0  0  0  0  0  0  0
   26.1938  -21.9020  -14.4845 O   0  0  0  0  0  0  0  0  0  0  0  0
   26.3326  -19.1882   -7.7549 C   0  0  0  0  0  0  0  0  0  0  0  0
   25.6266  -20.8723   -7.7674 S   0  0  0  0  0  0  0  0  0  0  0  0
   25.1695  -21.2445   -9.4914 C   0  0  0  0  0  0  0  0  0  0  0  0
   26.3335  -20.8015  -10.3657 C   0  0  0  0  0  0  0  0  0  0  0  0
   26.0813  -21.1436  -11.8155 C   0  0  2  0  0  0  0  0  0  0  0  0
   27.0984  -20.6780  -12.6991 N   0  0  0  0  0  0  0  0  0  0  0  0
   24.8008  -20.4372  -12.1788 C   0  0  0  0  0  0  0  0  0  0  0  0
   24.7971  -19.1750  -12.3841 O   0  0  0  0  0  0  0  0  0  0  0  0
   23.5884  -21.1104  -12.3051 N   0  0  0  0  0  0  0  0  0  0  0  0
   22.3873  -20.3321  -12.8293 C   0  0  1  0  0  0  0  0  0  0  0  0
   22.2933  -20.8601  -14.2132 C   0  0  0  0  0  0  0  0  0  0  0  0
   22.1914  -19.9417  -15.3267 C   0  0  0  0  0  0  0  0  0  0  0  0
   21.0066  -20.0630  -16.2067 C   0  0  0  0  0  0  0  0  0  0  0  0
   21.1241  -19.0049  -17.3486 C   0  0  0  0  0  0  0  0  0  0  0  0
   19.9578  -19.0777  -18.1776 N   0  0  0  0  0  0  0  0  0  0  0  0
   21.3297  -20.7305  -11.8755 C   0  0  0  0  0  0  0  0  0  0  0  0
   21.5099  -21.8192  -11.2089 O   0  0  0  0  0  0  0  0  0  0  0  0
   20.1538  -20.1004  -11.5750 O   0  0  0  0  0  0  0  0  0  0  0  0
  2  1  1  6
  2  3  1  0
  3  4  1  0
  5  2  1  0
  5  6  2  0
  7  8  1  0
  8  9  1  0
  9 10  1  0
 11 10  1  1
 11 12  1  0
 11 13  1  0
 12  5  1  0
 13 15  1  0
 13 14  2  0
 15 16  1  0
 16 22  1  0
 16 17  1  6
 18 17  1  0
 18 19  1  0
 19 20  1  0
 21 20  1  0
 22 23  2  0
 22 24  1  0
M  END
$$$$
