QVC.pdb
     RDKit          3D

 23 22  0  0  1  0  0  0  0  0999 V2000
   27.3749  -10.9178  -16.0451 N   0  0  0  0  0  0  0  0  0  0  0  0
   26.9706  -12.2861  -16.0032 C   0  0  0  0  0  0  0  0  0  0  0  0
   27.8118  -13.1046  -15.5870 O   0  0  0  0  0  0  0  0  0  0  0  0
   25.6023  -12.6280  -16.4496 C   0  0  0  0  0  0  0  0  0  0  0  0
   24.7510  -11.4344  -16.7765 C   0  0  0  0  0  0  0  0  0  0  0  0
   23.3660  -11.8221  -17.2362 C   0  0  2  0  0  0  0  0  0  0  0  0
   23.5427  -12.4905  -18.5334 N   0  0  0  0  0  0  0  0  0  0  0  0
   22.5485  -10.5889  -17.4031 C   0  0  0  0  0  0  0  0  0  0  0  0
   22.6463   -9.8444  -18.4081 O   0  0  0  0  0  0  0  0  0  0  0  0
   18.9723  -10.2064  -17.8481 C   0  0  0  0  0  0  0  0  0  0  0  0
   19.2838   -9.4573  -16.5672 C   0  0  2  0  0  0  0  0  0  0  0  0
   18.4447   -8.2081  -16.4711 C   0  0  0  0  0  0  0  0  0  0  0  0
   20.7518   -9.0769  -16.5106 C   0  0  2  0  0  0  0  0  0  0  0  0
   21.6116  -10.2101  -16.4059 N   0  0  0  0  0  0  0  0  0  0  0  0
   21.0047   -8.0375  -15.4957 C   0  0  0  0  0  0  0  0  0  0  0  0
   20.8969   -8.3304  -14.2871 O   0  0  0  0  0  0  0  0  0  0  0  0
   21.3628   -6.7350  -15.9127 N   0  0  0  0  0  0  0  0  0  0  0  0
   21.6221   -5.6566  -14.9705 C   0  0  1  0  0  0  0  0  0  0  0  0
   22.7686   -4.7820  -15.4031 C   0  0  0  0  0  0  0  0  0  0  0  0
   22.9880   -3.5261  -14.0870 S   0  0  0  0  0  0  0  0  0  0  0  0
   20.3829   -4.9098  -14.7400 C   0  0  0  0  0  0  0  0  0  0  0  0
   19.8992   -4.8025  -13.5907 O   0  0  0  0  0  0  0  0  0  0  0  0
   19.6971   -4.2933  -15.7818 O   0  0  0  0  0  0  0  0  0  0  0  0
  2  3  2  0
  2  1  1  0
  4  2  1  0
  5  4  1  0
  6  5  1  0
  6  7  1  6
  8  6  1  0
  8  9  2  0
 11 10  1  6
 11 13  1  0
 12 11  1  0
 13 14  1  1
 14  8  1  0
 15 13  1  0
 16 15  2  0
 17 15  1  0
 18 17  1  0
 18 21  1  0
 18 19  1  6
 20 19  1  0
 21 23  1  0
 22 21  2  0
M  END
$$$$
