QVC.pdb
     RDKit          3D

 23 22  0  0  1  0  0  0  0  0999 V2000
   20.3051  -16.1637  -16.1622 N   0  0  0  0  0  0  0  0  0  0  0  0
   19.3517  -15.7560  -17.1431 C   0  0  0  0  0  0  0  0  0  0  0  0
   18.7711  -16.6629  -17.7685 O   0  0  0  0  0  0  0  0  0  0  0  0
   19.1249  -14.3077  -17.3426 C   0  0  0  0  0  0  0  0  0  0  0  0
   19.9335  -13.4319  -16.4287 C   0  0  0  0  0  0  0  0  0  0  0  0
   20.3862  -12.1583  -17.1017 C   0  0  2  0  0  0  0  0  0  0  0  0
   21.2161  -12.5756  -18.2408 N   0  0  0  0  0  0  0  0  0  0  0  0
   21.1998  -11.3652  -16.1393 C   0  0  0  0  0  0  0  0  0  0  0  0
   20.8001  -11.0907  -14.9823 O   0  0  0  0  0  0  0  0  0  0  0  0
   24.9645  -11.8554  -15.3004 C   0  0  0  0  0  0  0  0  0  0  0  0
   24.7599  -10.4165  -15.7325 C   0  0  2  0  0  0  0  0  0  0  0  0
   25.5339   -9.4830  -14.8364 C   0  0  0  0  0  0  0  0  0  0  0  0
   23.2891  -10.0458  -15.6867 C   0  0  2  0  0  0  0  0  0  0  0  0
   22.4828  -10.8846  -16.5117 N   0  0  0  0  0  0  0  0  0  0  0  0
   23.0851   -8.6038  -15.9180 C   0  0  0  0  0  0  0  0  0  0  0  0
   23.3414   -8.1275  -17.0430 O   0  0  0  0  0  0  0  0  0  0  0  0
   22.6050   -7.7944  -14.8631 N   0  0  0  0  0  0  0  0  0  0  0  0
   22.4319   -6.3557  -14.9987 C   0  0  1  0  0  0  0  0  0  0  0  0
   21.2132   -5.9996  -15.8076 C   0  0  0  0  0  0  0  0  0  0  0  0
   19.7841   -6.7712  -14.9591 S   0  0  0  0  0  0  0  0  0  0  0  0
   22.4401   -5.7419  -13.6685 C   0  0  0  0  0  0  0  0  0  0  0  0
   22.4729   -6.4455  -12.6340 O   0  0  0  0  0  0  0  0  0  0  0  0
   22.4121   -4.3610  -13.5011 O   0  0  0  0  0  0  0  0  0  0  0  0
  2  3  2  0
  2  1  1  0
  4  2  1  0
  5  4  1  0
  6  5  1  0
  6  7  1  6
  8  6  1  0
  8  9  2  0
 11 10  1  1
 11 13  1  0
 12 11  1  0
 13 14  1  6
 14  8  1  0
 15 13  1  0
 16 15  2  0
 17 15  1  0
 18 17  1  0
 18 21  1  0
 18 19  1  1
 20 19  1  0
 21 23  1  0
 22 21  2  0
M  END
$$$$
