QVC.pdb
     RDKit          3D

 23 22  0  0  1  0  0  0  0  0999 V2000
   17.9994  -12.0845  -18.9783 N   0  0  0  0  0  0  0  0  0  0  0  0
   16.5767  -12.0357  -18.8751 C   0  0  0  0  0  0  0  0  0  0  0  0
   15.9359  -12.7967  -19.6243 O   0  0  0  0  0  0  0  0  0  0  0  0
   15.9749  -11.0996  -17.9004 C   0  0  0  0  0  0  0  0  0  0  0  0
   16.9800  -10.2963  -17.1254 C   0  0  0  0  0  0  0  0  0  0  0  0
   17.5991  -11.0829  -15.9949 C   0  0  2  0  0  0  0  0  0  0  0  0
   16.5060  -11.3683  -15.0546 N   0  0  0  0  0  0  0  0  0  0  0  0
   18.6370  -10.2448  -15.3336 C   0  0  0  0  0  0  0  0  0  0  0  0
   18.3731   -9.4640  -14.3878 O   0  0  0  0  0  0  0  0  0  0  0  0
   22.3048  -11.5944  -14.4791 C   0  0  0  0  0  0  0  0  0  0  0  0
   22.3801  -10.2767  -15.2253 C   0  0  2  0  0  0  0  0  0  0  0  0
   23.4455   -9.3934  -14.6266 C   0  0  0  0  0  0  0  0  0  0  0  0
   21.0470   -9.5535  -15.1745 C   0  0  2  0  0  0  0  0  0  0  0  0
   19.9885  -10.3060  -15.7644 N   0  0  0  0  0  0  0  0  0  0  0  0
   21.1576   -8.1743  -15.6843 C   0  0  0  0  0  0  0  0  0  0  0  0
   21.2660   -7.9887  -16.9138 O   0  0  0  0  0  0  0  0  0  0  0  0
   21.1385   -7.0950  -14.7714 N   0  0  0  0  0  0  0  0  0  0  0  0
   21.2425   -5.7079  -15.1992 C   0  0  1  0  0  0  0  0  0  0  0  0
   19.9005   -5.0298  -15.2732 C   0  0  0  0  0  0  0  0  0  0  0  0
   20.2332   -3.2527  -15.5719 S   0  0  0  0  0  0  0  0  0  0  0  0
   22.1953   -5.0071  -14.3346 C   0  0  0  0  0  0  0  0  0  0  0  0
   22.5005   -5.4624  -13.2095 O   0  0  0  0  0  0  0  0  0  0  0  0
   22.7962   -3.8147  -14.7256 O   0  0  0  0  0  0  0  0  0  0  0  0
  2  3  2  0
  2  1  1  0
  4  2  1  0
  5  4  1  0
  6  5  1  0
  6  7  1  1
  8  6  1  0
  8  9  2  0
 11 10  1  1
 11 13  1  0
 12 11  1  0
 13 14  1  6
 14  8  1  0
 15 13  1  0
 16 15  2  0
 17 15  1  0
 18 17  1  0
 18 21  1  0
 18 19  1  1
 20 19  1  0
 21 23  1  0
 22 21  2  0
M  END
$$$$
