QVC.pdb
     RDKit          3D

 23 22  0  0  1  0  0  0  0  0999 V2000
   19.6220  -20.6659  -17.1447 N   0  0  0  0  0  0  0  0  0  0  0  0
   18.5616  -20.6744  -16.1894 C   0  0  0  0  0  0  0  0  0  0  0  0
   17.4398  -21.0224  -16.6032 O   0  0  0  0  0  0  0  0  0  0  0  0
   18.8669  -20.2759  -14.7977 C   0  0  0  0  0  0  0  0  0  0  0  0
   20.3172  -19.9693  -14.5551 C   0  0  0  0  0  0  0  0  0  0  0  0
   21.1457  -21.2166  -14.3602 C   0  0  2  0  0  0  0  0  0  0  0  0
   20.7508  -21.7646  -13.0548 N   0  0  0  0  0  0  0  0  0  0  0  0
   22.5868  -20.8426  -14.3435 C   0  0  0  0  0  0  0  0  0  0  0  0
   23.1377  -20.3205  -13.3446 O   0  0  0  0  0  0  0  0  0  0  0  0
   27.1058  -21.7411  -15.3789 C   0  0  0  0  0  0  0  0  0  0  0  0
   25.6397  -22.0615  -15.5956 C   0  0  2  0  0  0  0  0  0  0  0  0
   25.4387  -22.7245  -16.9349 C   0  0  0  0  0  0  0  0  0  0  0  0
   24.7990  -20.7998  -15.5332 C   0  0  2  0  0  0  0  0  0  0  0  0
   23.3995  -21.0713  -15.4849 N   0  0  0  0  0  0  0  0  0  0  0  0
   25.1864  -19.8367  -16.5804 C   0  0  0  0  0  0  0  0  0  0  0  0
   24.3625  -19.5452  -17.4716 O   0  0  0  0  0  0  0  0  0  0  0  0
   26.4795  -19.2660  -16.5522 N   0  0  0  0  0  0  0  0  0  0  0  0
   26.9131  -18.2654  -17.5160 C   0  0  1  0  0  0  0  0  0  0  0  0
   26.8388  -16.8675  -16.9623 C   0  0  0  0  0  0  0  0  0  0  0  0
   28.0737  -16.7785  -15.6114 S   0  0  0  0  0  0  0  0  0  0  0  0
   28.2459  -18.6190  -18.0111 C   0  0  0  0  0  0  0  0  0  0  0  0
   28.9108  -19.5341  -17.4754 O   0  0  0  0  0  0  0  0  0  0  0  0
   28.8238  -17.9568  -19.0897 O   0  0  0  0  0  0  0  0  0  0  0  0
  2  3  2  0
  2  1  1  0
  4  2  1  0
  5  4  1  0
  6  5  1  0
  6  7  1  1
  8  6  1  0
  8  9  2  0
 11 10  1  6
 11 13  1  0
 12 11  1  0
 13 14  1  6
 14  8  1  0
 15 13  1  0
 16 15  2  0
 17 15  1  0
 18 17  1  0
 18 21  1  0
 18 19  1  1
 20 19  1  0
 21 23  1  0
 22 21  2  0
M  END
$$$$
