QVC.pdb
     RDKit          3D

 23 22  0  0  1  0  0  0  0  0999 V2000
   17.7014  -12.7034  -14.9012 N   0  0  0  0  0  0  0  0  0  0  0  0
   18.6161  -13.7656  -15.1701 C   0  0  0  0  0  0  0  0  0  0  0  0
   18.2582  -14.9097  -14.8328 O   0  0  0  0  0  0  0  0  0  0  0  0
   19.9033  -13.4361  -15.8206 C   0  0  0  0  0  0  0  0  0  0  0  0
   20.0735  -11.9766  -16.1321 C   0  0  0  0  0  0  0  0  0  0  0  0
   19.3120  -11.5575  -17.3668 C   0  0  2  0  0  0  0  0  0  0  0  0
   19.9784  -12.2199  -18.4972 N   0  0  0  0  0  0  0  0  0  0  0  0
   19.4041  -10.0787  -17.5136 C   0  0  0  0  0  0  0  0  0  0  0  0
   20.3287   -9.5194  -18.1509 O   0  0  0  0  0  0  0  0  0  0  0  0
   16.8211   -7.5351  -18.8271 C   0  0  0  0  0  0  0  0  0  0  0  0
   17.1397   -7.2012  -17.3828 C   0  0  2  0  0  0  0  0  0  0  0  0
   17.2023   -5.7070  -17.1899 C   0  0  0  0  0  0  0  0  0  0  0  0
   18.4656   -7.8128  -16.9698 C   0  0  2  0  0  0  0  0  0  0  0  0
   18.4248   -9.2378  -16.9224 N   0  0  0  0  0  0  0  0  0  0  0  0
   18.9933   -7.1877  -15.7430 C   0  0  0  0  0  0  0  0  0  0  0  0
   18.4348   -7.4254  -14.6523 O   0  0  0  0  0  0  0  0  0  0  0  0
   20.1175   -6.3349  -15.8288 N   0  0  0  0  0  0  0  0  0  0  0  0
   20.6968   -5.6860  -14.6620 C   0  0  1  0  0  0  0  0  0  0  0  0
   22.0689   -6.2131  -14.3363 C   0  0  0  0  0  0  0  0  0  0  0  0
   22.6776   -5.2308  -12.9142 S   0  0  0  0  0  0  0  0  0  0  0  0
   20.6681   -4.2339  -14.8543 C   0  0  0  0  0  0  0  0  0  0  0  0
   21.0163   -3.7205  -15.9413 O   0  0  0  0  0  0  0  0  0  0  0  0
   20.2555   -3.3713  -13.8436 O   0  0  0  0  0  0  0  0  0  0  0  0
  2  3  2  0
  2  1  1  0
  4  2  1  0
  5  4  1  0
  6  5  1  0
  6  7  1  6
  8  6  1  0
  8  9  2  0
 11 10  1  6
 11 13  1  0
 12 11  1  0
 13 14  1  1
 14  8  1  0
 15 13  1  0
 16 15  2  0
 17 15  1  0
 18 17  1  0
 18 21  1  0
 18 19  1  6
 20 19  1  0
 21 23  1  0
 22 21  2  0
M  END
$$$$
