QVC.pdb
     RDKit          3D

 23 22  0  0  1  0  0  0  0  0999 V2000
   29.3857  -24.1165  -19.6893 N   0  0  0  0  0  0  0  0  0  0  0  0
   28.2059  -23.5896  -20.2956 C   0  0  0  0  0  0  0  0  0  0  0  0
   28.2793  -23.3047  -21.5056 O   0  0  0  0  0  0  0  0  0  0  0  0
   26.9992  -23.4230  -19.4560 C   0  0  0  0  0  0  0  0  0  0  0  0
   27.1704  -23.8968  -18.0410 C   0  0  0  0  0  0  0  0  0  0  0  0
   28.1586  -23.0573  -17.2670 C   0  0  2  0  0  0  0  0  0  0  0  0
   29.1294  -24.0007  -16.6942 N   0  0  0  0  0  0  0  0  0  0  0  0
   27.4375  -22.3412  -16.1788 C   0  0  0  0  0  0  0  0  0  0  0  0
   27.2990  -22.8234  -15.0290 O   0  0  0  0  0  0  0  0  0  0  0  0
   28.0901  -18.5909  -15.2712 C   0  0  0  0  0  0  0  0  0  0  0  0
   26.6073  -18.7975  -15.5112 C   0  0  2  0  0  0  0  0  0  0  0  0
   25.7981  -18.0179  -14.5056 C   0  0  0  0  0  0  0  0  0  0  0  0
   26.2462  -20.2678  -15.4090 C   0  0  2  0  0  0  0  0  0  0  0  0
   26.8719  -21.0608  -16.4161 N   0  0  0  0  0  0  0  0  0  0  0  0
   24.7878  -20.4634  -15.3131 C   0  0  0  0  0  0  0  0  0  0  0  0
   24.0815  -20.2677  -16.3234 O   0  0  0  0  0  0  0  0  0  0  0  0
   24.2228  -20.8673  -14.0817 N   0  0  0  0  0  0  0  0  0  0  0  0
   22.7868  -21.0021  -13.8877 C   0  0  1  0  0  0  0  0  0  0  0  0
   22.4437  -21.6002  -12.5494 C   0  0  0  0  0  0  0  0  0  0  0  0
   20.6144  -21.6603  -12.4620 S   0  0  0  0  0  0  0  0  0  0  0  0
   22.1452  -19.7059  -14.1211 C   0  0  0  0  0  0  0  0  0  0  0  0
   22.5662  -18.6682  -13.5621 O   0  0  0  0  0  0  0  0  0  0  0  0
   21.0491  -19.5754  -14.9680 O   0  0  0  0  0  0  0  0  0  0  0  0
  2  3  2  0
  2  1  1  0
  4  2  1  0
  5  4  1  0
  6  5  1  0
  6  7  1  1
  8  6  1  0
  8  9  2  0
 11 10  1  1
 11 13  1  0
 12 11  1  0
 13 14  1  6
 14  8  1  0
 15 13  1  0
 16 15  2  0
 17 15  1  0
 18 17  1  0
 18 21  1  0
 18 19  1  1
 20 19  1  0
 21 23  1  0
 22 21  2  0
M  END
$$$$
