QVC.pdb
     RDKit          3D

 23 22  0  0  1  0  0  0  0  0999 V2000
   16.9982  -13.2896  -17.0500 N   0  0  0  0  0  0  0  0  0  0  0  0
   17.4049  -14.5752  -17.5180 C   0  0  0  0  0  0  0  0  0  0  0  0
   16.4976  -15.3865  -17.7812 O   0  0  0  0  0  0  0  0  0  0  0  0
   18.8526  -14.8469  -17.6553 C   0  0  0  0  0  0  0  0  0  0  0  0
   19.7294  -13.6856  -17.2826 C   0  0  0  0  0  0  0  0  0  0  0  0
   20.5812  -13.2124  -18.4361 C   0  0  2  0  0  0  0  0  0  0  0  0
   21.5913  -14.2587  -18.6489 N   0  0  0  0  0  0  0  0  0  0  0  0
   21.2417  -11.9330  -18.0570 C   0  0  0  0  0  0  0  0  0  0  0  0
   22.3558  -11.8924  -17.4816 O   0  0  0  0  0  0  0  0  0  0  0  0
   22.5433   -9.2815  -20.1279 C   0  0  0  0  0  0  0  0  0  0  0  0
   21.4907   -8.5999  -19.2755 C   0  0  2  0  0  0  0  0  0  0  0  0
   21.9590   -7.2286  -18.8583 C   0  0  0  0  0  0  0  0  0  0  0  0
   21.1882   -9.4215  -18.0361 C   0  0  2  0  0  0  0  0  0  0  0  0
   20.6153  -10.6913  -18.3424 N   0  0  0  0  0  0  0  0  0  0  0  0
   20.4251   -8.6442  -17.0422 C   0  0  0  0  0  0  0  0  0  0  0  0
   19.2323   -8.3623  -17.2783 O   0  0  0  0  0  0  0  0  0  0  0  0
   21.0597   -8.2363  -15.8466 N   0  0  0  0  0  0  0  0  0  0  0  0
   20.3995   -7.3952  -14.8593 C   0  0  1  0  0  0  0  0  0  0  0  0
   21.0198   -7.5215  -13.4934 C   0  0  0  0  0  0  0  0  0  0  0  0
   20.5700   -9.1855  -12.8716 S   0  0  0  0  0  0  0  0  0  0  0  0
   20.3619   -6.0152  -15.3497 C   0  0  0  0  0  0  0  0  0  0  0  0
   21.2127   -5.5982  -16.1674 O   0  0  0  0  0  0  0  0  0  0  0  0
   19.3857   -5.1172  -14.9297 O   0  0  0  0  0  0  0  0  0  0  0  0
  2  3  2  0
  2  1  1  0
  4  2  1  0
  5  4  1  0
  6  5  1  0
  6  7  1  1
  8  6  1  0
  8  9  2  0
 11 10  1  1
 11 13  1  0
 12 11  1  0
 13 14  1  6
 14  8  1  0
 15 13  1  0
 16 15  2  0
 17 15  1  0
 18 17  1  0
 18 21  1  0
 18 19  1  1
 20 19  1  0
 21 23  1  0
 22 21  2  0
M  END
$$$$
