QVC.pdb
     RDKit          3D

 23 22  0  0  1  0  0  0  0  0999 V2000
   18.2004  -14.3900  -14.7483 N   0  0  0  0  0  0  0  0  0  0  0  0
   16.9617  -14.5448  -15.4403 C   0  0  0  0  0  0  0  0  0  0  0  0
   16.1008  -15.2582  -14.8918 O   0  0  0  0  0  0  0  0  0  0  0  0
   16.7920  -13.8569  -16.7390 C   0  0  0  0  0  0  0  0  0  0  0  0
   18.0122  -13.1109  -17.1983 C   0  0  0  0  0  0  0  0  0  0  0  0
   17.7931  -12.4000  -18.5123 C   0  0  2  0  0  0  0  0  0  0  0  0
   18.3084  -13.3028  -19.5515 N   0  0  0  0  0  0  0  0  0  0  0  0
   18.5674  -11.1282  -18.5095 C   0  0  0  0  0  0  0  0  0  0  0  0
   19.7641  -11.0650  -18.8805 O   0  0  0  0  0  0  0  0  0  0  0  0
   18.2386   -8.1029  -20.4751 C   0  0  0  0  0  0  0  0  0  0  0  0
   17.9999   -7.6674  -19.0424 C   0  0  2  0  0  0  0  0  0  0  0  0
   18.5910   -6.3011  -18.8026 C   0  0  0  0  0  0  0  0  0  0  0  0
   18.6181   -8.6552  -18.0705 C   0  0  2  0  0  0  0  0  0  0  0  0
   17.9595   -9.9205  -18.0764 N   0  0  0  0  0  0  0  0  0  0  0  0
   18.7759   -8.0686  -16.7269 C   0  0  0  0  0  0  0  0  0  0  0  0
   17.7564   -7.7797  -16.0672 O   0  0  0  0  0  0  0  0  0  0  0  0
   20.0755   -7.8466  -16.2165 N   0  0  0  0  0  0  0  0  0  0  0  0
   20.3104   -7.2581  -14.9064 C   0  0  1  0  0  0  0  0  0  0  0  0
   21.7564   -7.3362  -14.4949 C   0  0  0  0  0  0  0  0  0  0  0  0
   22.1616   -9.1181  -14.3598 S   0  0  0  0  0  0  0  0  0  0  0  0
   19.7794   -5.8927  -14.8893 C   0  0  0  0  0  0  0  0  0  0  0  0
   20.0305   -5.0916  -15.8175 O   0  0  0  0  0  0  0  0  0  0  0  0
   18.9796   -5.4332  -13.8478 O   0  0  0  0  0  0  0  0  0  0  0  0
  2  3  2  0
  2  1  1  0
  4  2  1  0
  5  4  1  0
  6  5  1  0
  6  7  1  6
  8  6  1  0
  8  9  2  0
 11 10  1  6
 11 13  1  0
 12 11  1  0
 13 14  1  1
 14  8  1  0
 15 13  1  0
 16 15  2  0
 17 15  1  0
 18 17  1  0
 18 21  1  0
 18 19  1  6
 20 19  1  0
 21 23  1  0
 22 21  2  0
M  END
$$$$
