QVC.pdb
     RDKit          3D

 23 22  0  0  1  0  0  0  0  0999 V2000
   15.6356  -12.3007  -14.3247 N   0  0  0  0  0  0  0  0  0  0  0  0
   15.3359  -12.2402  -15.7189 C   0  0  0  0  0  0  0  0  0  0  0  0
   14.2446  -12.7213  -16.0770 O   0  0  0  0  0  0  0  0  0  0  0  0
   16.3277  -11.6192  -16.6241 C   0  0  0  0  0  0  0  0  0  0  0  0
   17.5469  -11.0913  -15.9233 C   0  0  0  0  0  0  0  0  0  0  0  0
   18.8255  -11.4462  -16.6440 C   0  0  2  0  0  0  0  0  0  0  0  0
   19.1462  -12.8238  -16.2442 N   0  0  0  0  0  0  0  0  0  0  0  0
   19.9040  -10.5204  -16.2006 C   0  0  0  0  0  0  0  0  0  0  0  0
   20.4967  -10.6503  -15.1025 O   0  0  0  0  0  0  0  0  0  0  0  0
   23.0700   -9.8207  -17.9482 C   0  0  0  0  0  0  0  0  0  0  0  0
   22.4316   -8.4595  -17.7515 C   0  0  2  0  0  0  0  0  0  0  0  0
   23.4690   -7.4471  -17.3361 C   0  0  0  0  0  0  0  0  0  0  0  0
   21.3458   -8.5231  -16.6934 C   0  0  2  0  0  0  0  0  0  0  0  0
   20.3031   -9.4373  -17.0272 N   0  0  0  0  0  0  0  0  0  0  0  0
   20.8674   -7.1779  -16.3247 C   0  0  0  0  0  0  0  0  0  0  0  0
   20.0366   -6.6065  -17.0604 O   0  0  0  0  0  0  0  0  0  0  0  0
   21.3591   -6.5663  -15.1488 N   0  0  0  0  0  0  0  0  0  0  0  0
   20.9679   -5.2243  -14.7438 C   0  0  1  0  0  0  0  0  0  0  0  0
   19.6004   -5.1920  -14.1152 C   0  0  0  0  0  0  0  0  0  0  0  0
   19.3458   -3.4794  -13.5152 S   0  0  0  0  0  0  0  0  0  0  0  0
   22.0104   -4.6570  -13.8849 C   0  0  0  0  0  0  0  0  0  0  0  0
   22.6567   -5.3790  -13.0927 O   0  0  0  0  0  0  0  0  0  0  0  0
   22.3231   -3.3016  -13.9138 O   0  0  0  0  0  0  0  0  0  0  0  0
  2  3  2  0
  2  1  1  0
  4  2  1  0
  5  4  1  0
  6  5  1  0
  6  7  1  1
  8  6  1  0
  8  9  2  0
 11 10  1  1
 11 13  1  0
 12 11  1  0
 13 14  1  6
 14  8  1  0
 15 13  1  0
 16 15  2  0
 17 15  1  0
 18 17  1  0
 18 21  1  0
 18 19  1  1
 20 19  1  0
 21 23  1  0
 22 21  2  0
M  END
$$$$
