QVC.pdb
     RDKit          3D

 23 22  0  0  1  0  0  0  0  0999 V2000
   15.4892  -10.8255  -19.3886 N   0  0  0  0  0  0  0  0  0  0  0  0
   15.7405  -12.1804  -19.7606 C   0  0  0  0  0  0  0  0  0  0  0  0
   15.0029  -12.6643  -20.6395 O   0  0  0  0  0  0  0  0  0  0  0  0
   16.8426  -12.9010  -19.0861 C   0  0  0  0  0  0  0  0  0  0  0  0
   17.6421  -12.0481  -18.1431 C   0  0  0  0  0  0  0  0  0  0  0  0
   18.7839  -12.8050  -17.5078 C   0  0  2  0  0  0  0  0  0  0  0  0
   18.1932  -14.0242  -16.9374 N   0  0  0  0  0  0  0  0  0  0  0  0
   19.3764  -11.9696  -16.4271 C   0  0  0  0  0  0  0  0  0  0  0  0
   18.9003  -11.9282  -15.2672 O   0  0  0  0  0  0  0  0  0  0  0  0
   22.8088  -12.0403  -15.0386 C   0  0  0  0  0  0  0  0  0  0  0  0
   22.6077  -10.6155  -15.5168 C   0  0  2  0  0  0  0  0  0  0  0  0
   23.1763   -9.6401  -14.5174 C   0  0  0  0  0  0  0  0  0  0  0  0
   21.1331  -10.3195  -15.7184 C   0  0  2  0  0  0  0  0  0  0  0  0
   20.5255  -11.1761  -16.6836 N   0  0  0  0  0  0  0  0  0  0  0  0
   20.8952   -8.8841  -15.9576 C   0  0  0  0  0  0  0  0  0  0  0  0
   21.3208   -8.3656  -17.0102 O   0  0  0  0  0  0  0  0  0  0  0  0
   20.1919   -8.1284  -14.9917 N   0  0  0  0  0  0  0  0  0  0  0  0
   19.9021   -6.7129  -15.1666 C   0  0  1  0  0  0  0  0  0  0  0  0
   18.5056   -6.3567  -14.7316 C   0  0  0  0  0  0  0  0  0  0  0  0
   17.3690   -7.3325  -15.7869 S   0  0  0  0  0  0  0  0  0  0  0  0
   20.9350   -5.9227  -14.4920 C   0  0  0  0  0  0  0  0  0  0  0  0
   20.9798   -4.6783  -14.6181 O   0  0  0  0  0  0  0  0  0  0  0  0
   21.9023   -6.5185  -13.6888 O   0  0  0  0  0  0  0  0  0  0  0  0
  2  3  2  0
  2  1  1  0
  4  2  1  0
  5  4  1  0
  6  5  1  0
  6  7  1  1
  8  6  1  0
  8  9  2  0
 11 10  1  1
 11 13  1  0
 12 11  1  0
 13 14  1  6
 14  8  1  0
 15 13  1  0
 16 15  2  0
 17 15  1  0
 18 17  1  0
 18 21  1  0
 18 19  1  1
 20 19  1  0
 21 23  1  0
 22 21  2  0
M  END
$$$$
