GAT.pdb
     RDKit          3D

 17 16  0  0  1  0  0  0  0  0999 V2000
    8.1033  -16.7405   16.1734 N   0  0  0  0  0  0  0  0  0  0  0  0
    7.3780  -16.0675   17.2041 C   0  0  0  0  0  0  0  0  0  0  0  0
    8.2682  -15.5095   18.2594 C   0  0  0  0  0  0  0  0  0  0  0  0
    9.4858  -15.8036   18.3585 O   0  0  0  0  0  0  0  0  0  0  0  0
    7.7743  -12.9406   21.0196 C   0  0  0  0  0  0  0  0  0  0  0  0
    8.5432  -14.0454   20.2807 C   0  0  2  0  0  0  0  0  0  0  0  0
    7.7258  -14.5950   19.2115 N   0  0  0  0  0  0  0  0  0  0  0  0
    8.7823  -15.1106   21.2872 C   0  0  0  0  0  0  0  0  0  0  0  0
    7.8240  -15.7973   21.6808 O   0  0  0  0  0  0  0  0  0  0  0  0
   11.5313  -17.8619   21.0502 C   0  0  0  0  0  0  0  0  0  0  0  0
   11.5404  -17.2420   22.4286 C   0  0  1  0  0  0  0  0  0  0  0  0
   12.6619  -16.4462   22.5578 O   0  0  0  0  0  0  0  0  0  0  0  0
   10.2508  -16.4927   22.6924 C   0  0  2  0  0  0  0  0  0  0  0  0
   10.0767  -15.3736   21.8193 N   0  0  0  0  0  0  0  0  0  0  0  0
   10.2304  -16.0548   24.0922 C   0  0  0  0  0  0  0  0  0  0  0  0
   10.2494  -14.8399   24.4403 O   0  0  0  0  0  0  0  0  0  0  0  0
   10.1883  -17.0107   25.0979 O   0  0  0  0  0  0  0  0  0  0  0  0
  1  2  1  0
  2  3  1  0
  3  4  2  0
  6  5  1  1
  7  6  1  0
  7  3  1  0
  8  9  2  0
  8  6  1  0
 11 10  1  6
 11 13  1  0
 12 11  1  0
 13 15  1  0
 13 14  1  6
 14  8  1  0
 15 17  1  0
 16 15  2  0
M  END
$$$$
