GAT.pdb
     RDKit          3D

 17 16  0  0  1  0  0  0  0  0999 V2000
    8.2691  -15.9896   15.4030 N   0  0  0  0  0  0  0  0  0  0  0  0
    7.4965  -15.4569   16.4804 C   0  0  0  0  0  0  0  0  0  0  0  0
    8.3385  -15.0301   17.6320 C   0  0  0  0  0  0  0  0  0  0  0  0
    9.5019  -15.4612   17.8306 O   0  0  0  0  0  0  0  0  0  0  0  0
    7.8600  -12.5012   20.4331 C   0  0  0  0  0  0  0  0  0  0  0  0
    8.5866  -13.6459   19.7122 C   0  0  2  0  0  0  0  0  0  0  0  0
    7.8116  -14.0862   18.5637 N   0  0  0  0  0  0  0  0  0  0  0  0
    8.6528  -14.7598   20.6919 C   0  0  0  0  0  0  0  0  0  0  0  0
    7.5966  -15.2857   21.0825 O   0  0  0  0  0  0  0  0  0  0  0  0
    9.7671  -18.1691   20.4364 C   0  0  0  0  0  0  0  0  0  0  0  0
   10.5584  -17.5752   21.5791 C   0  0  1  0  0  0  0  0  0  0  0  0
   11.8502  -17.3322   21.1547 O   0  0  0  0  0  0  0  0  0  0  0  0
    9.8737  -16.3395   22.1255 C   0  0  2  0  0  0  0  0  0  0  0  0
    9.8896  -15.2482   21.2014 N   0  0  0  0  0  0  0  0  0  0  0  0
   10.5210  -15.9515   23.3832 C   0  0  0  0  0  0  0  0  0  0  0  0
   11.1709  -14.8771   23.5274 O   0  0  0  0  0  0  0  0  0  0  0  0
   10.4243  -16.7960   24.4806 O   0  0  0  0  0  0  0  0  0  0  0  0
  1  2  1  0
  2  3  1  0
  3  4  2  0
  6  5  1  1
  7  6  1  0
  7  3  1  0
  8  9  2  0
  8  6  1  0
 11 10  1  6
 11 13  1  0
 12 11  1  0
 13 15  1  0
 13 14  1  6
 14  8  1  0
 15 17  1  0
 16 15  2  0
M  END
$$$$
