GAT.pdb
     RDKit          3D

 17 16  0  0  1  0  0  0  0  0999 V2000
    5.7788  -20.6911   21.9445 N   0  0  0  0  0  0  0  0  0  0  0  0
    5.7267  -20.7183   23.3721 C   0  0  0  0  0  0  0  0  0  0  0  0
    6.7540  -19.8413   23.9990 C   0  0  0  0  0  0  0  0  0  0  0  0
    7.6104  -19.2032   23.3370 O   0  0  0  0  0  0  0  0  0  0  0  0
    7.1848  -18.2287   27.3307 C   0  0  0  0  0  0  0  0  0  0  0  0
    7.7844  -18.8967   26.0848 C   0  0  2  0  0  0  0  0  0  0  0  0
    6.7792  -19.7096   25.4198 N   0  0  0  0  0  0  0  0  0  0  0  0
    8.8585  -19.7911   26.5862 C   0  0  0  0  0  0  0  0  0  0  0  0
    8.5469  -20.8240   27.2032 O   0  0  0  0  0  0  0  0  0  0  0  0
   11.9562  -21.0974   24.5050 C   0  0  0  0  0  0  0  0  0  0  0  0
   12.3877  -20.5534   25.8475 C   0  0  1  0  0  0  0  0  0  0  0  0
   13.0195  -19.3395   25.6603 O   0  0  0  0  0  0  0  0  0  0  0  0
   11.2120  -20.4671   26.7986 C   0  0  2  0  0  0  0  0  0  0  0  0
   10.2387  -19.5051   26.3836 N   0  0  0  0  0  0  0  0  0  0  0  0
   11.7065  -20.1448   28.1414 C   0  0  0  0  0  0  0  0  0  0  0  0
   11.3839  -19.0950   28.7671 O   0  0  0  0  0  0  0  0  0  0  0  0
   12.5736  -21.0271   28.7711 O   0  0  0  0  0  0  0  0  0  0  0  0
  1  2  1  0
  2  3  1  0
  3  4  2  0
  6  5  1  1
  7  6  1  0
  7  3  1  0
  8  9  2  0
  8  6  1  0
 11 10  1  6
 11 13  1  0
 12 11  1  0
 13 15  1  0
 13 14  1  6
 14  8  1  0
 15 17  1  0
 16 15  2  0
M  END
$$$$
