GAT.pdb
     RDKit          3D

 17 16  0  0  1  0  0  0  0  0999 V2000
    6.4365  -18.3867   14.9620 N   0  0  0  0  0  0  0  0  0  0  0  0
    7.3548  -18.8152   15.9693 C   0  0  0  0  0  0  0  0  0  0  0  0
    6.6853  -19.5466   17.0802 C   0  0  0  0  0  0  0  0  0  0  0  0
    5.4372  -19.5980   17.2162 O   0  0  0  0  0  0  0  0  0  0  0  0
    7.8976  -21.9831   19.7051 C   0  0  0  0  0  0  0  0  0  0  0  0
    6.8840  -20.9833   19.1299 C   0  0  2  0  0  0  0  0  0  0  0  0
    7.4874  -20.2268   18.0449 N   0  0  0  0  0  0  0  0  0  0  0  0
    6.5687  -20.0478   20.2391 C   0  0  0  0  0  0  0  0  0  0  0  0
    7.4441  -19.2578   20.6319 O   0  0  0  0  0  0  0  0  0  0  0  0
    3.2852  -17.7307   20.6068 C   0  0  0  0  0  0  0  0  0  0  0  0
    3.5780  -18.5627   21.8342 C   0  0  1  0  0  0  0  0  0  0  0  0
    2.6839  -19.6140   21.8902 O   0  0  0  0  0  0  0  0  0  0  0  0
    5.0235  -19.0152   21.8477 C   0  0  2  0  0  0  0  0  0  0  0  0
    5.2928  -20.0246   20.8710 N   0  0  0  0  0  0  0  0  0  0  0  0
    5.3589  -19.5026   23.1898 C   0  0  0  0  0  0  0  0  0  0  0  0
    5.7027  -20.6949   23.4301 O   0  0  0  0  0  0  0  0  0  0  0  0
    5.3009  -18.6224   24.2616 O   0  0  0  0  0  0  0  0  0  0  0  0
  1  2  1  0
  2  3  1  0
  3  4  2  0
  6  5  1  1
  7  6  1  0
  7  3  1  0
  8  9  2  0
  8  6  1  0
 11 10  1  6
 11 13  1  0
 12 11  1  0
 13 15  1  0
 13 14  1  6
 14  8  1  0
 15 17  1  0
 16 15  2  0
M  END
$$$$
