GAT.pdb
     RDKit          3D

 17 16  0  0  1  0  0  0  0  0999 V2000
   10.6387  -20.0104   22.2337 N   0  0  0  0  0  0  0  0  0  0  0  0
   10.5334  -19.8041   23.6436 C   0  0  0  0  0  0  0  0  0  0  0  0
    9.3286  -19.0131   24.0178 C   0  0  0  0  0  0  0  0  0  0  0  0
    8.5715  -18.4720   23.1735 O   0  0  0  0  0  0  0  0  0  0  0  0
    7.5820  -18.2858   27.3118 C   0  0  0  0  0  0  0  0  0  0  0  0
    7.8646  -18.0572   25.8199 C   0  0  2  0  0  0  0  0  0  0  0  0
    9.0056  -18.8535   25.3987 N   0  0  0  0  0  0  0  0  0  0  0  0
    8.2191  -16.6208   25.6937 C   0  0  0  0  0  0  0  0  0  0  0  0
    9.3518  -16.2444   26.0399 O   0  0  0  0  0  0  0  0  0  0  0  0
    8.2636  -14.1673   22.5927 C   0  0  0  0  0  0  0  0  0  0  0  0
    7.3304  -13.7147   23.6922 C   0  0  1  0  0  0  0  0  0  0  0  0
    6.0325  -14.0300   23.3403 O   0  0  0  0  0  0  0  0  0  0  0  0
    7.7408  -14.3043   25.0257 C   0  0  2  0  0  0  0  0  0  0  0  0
    7.3023  -15.6558   25.1876 N   0  0  0  0  0  0  0  0  0  0  0  0
    7.2089  -13.4636   26.1036 C   0  0  0  0  0  0  0  0  0  0  0  0
    6.4094  -13.8882   26.9856 O   0  0  0  0  0  0  0  0  0  0  0  0
    7.5934  -12.1315   26.1729 O   0  0  0  0  0  0  0  0  0  0  0  0
  1  2  1  0
  2  3  1  0
  3  4  2  0
  6  5  1  1
  7  6  1  0
  7  3  1  0
  8  9  2  0
  8  6  1  0
 11 10  1  6
 11 13  1  0
 12 11  1  0
 13 15  1  0
 13 14  1  1
 14  8  1  0
 15 17  1  0
 16 15  2  0
M  END
$$$$
