GAT.pdb
     RDKit          3D

 17 16  0  0  1  0  0  0  0  0999 V2000
    2.2453  -19.4963   21.0878 N   0  0  0  0  0  0  0  0  0  0  0  0
    1.3351  -19.3866   22.1837 C   0  0  0  0  0  0  0  0  0  0  0  0
    0.9319  -20.7128   22.7278 C   0  0  0  0  0  0  0  0  0  0  0  0
    1.0650  -21.7872   22.0901 O   0  0  0  0  0  0  0  0  0  0  0  0
    0.2678  -22.0087   26.1560 C   0  0  0  0  0  0  0  0  0  0  0  0
    0.0189  -22.0575   24.6415 C   0  0  2  0  0  0  0  0  0  0  0  0
    0.3655  -20.7822   24.0358 N   0  0  0  0  0  0  0  0  0  0  0  0
   -1.4412  -22.2749   24.4812 C   0  0  0  0  0  0  0  0  0  0  0  0
   -2.2165  -21.3160   24.6367 O   0  0  0  0  0  0  0  0  0  0  0  0
   -3.4803  -23.7395   21.4231 C   0  0  0  0  0  0  0  0  0  0  0  0
   -3.7094  -24.5118   22.7020 C   0  0  1  0  0  0  0  0  0  0  0  0
   -2.9764  -25.6817   22.6598 O   0  0  0  0  0  0  0  0  0  0  0  0
   -3.3914  -23.6587   23.9125 C   0  0  2  0  0  0  0  0  0  0  0  0
   -1.9861  -23.5492   24.1541 N   0  0  0  0  0  0  0  0  0  0  0  0
   -4.0675  -24.2229   25.0855 C   0  0  0  0  0  0  0  0  0  0  0  0
   -3.4508  -24.7144   26.0732 O   0  0  0  0  0  0  0  0  0  0  0  0
   -5.4550  -24.2247   25.1288 O   0  0  0  0  0  0  0  0  0  0  0  0
  1  2  1  0
  2  3  1  0
  3  4  2  0
  6  5  1  1
  7  6  1  0
  7  3  1  0
  8  9  2  0
  8  6  1  0
 11 10  1  6
 11 13  1  0
 12 11  1  0
 13 15  1  0
 13 14  1  1
 14  8  1  0
 15 17  1  0
 16 15  2  0
M  END
$$$$
