GAT.pdb
     RDKit          3D

 17 16  0  0  1  0  0  0  0  0999 V2000
    6.6562  -16.2953   19.3739 N   0  0  0  0  0  0  0  0  0  0  0  0
    6.1846  -15.5095   20.4701 C   0  0  0  0  0  0  0  0  0  0  0  0
    7.2340  -15.2766   21.5005 C   0  0  0  0  0  0  0  0  0  0  0  0
    8.3580  -15.8378   21.4767 O   0  0  0  0  0  0  0  0  0  0  0  0
    7.5250  -12.9255   24.4689 C   0  0  0  0  0  0  0  0  0  0  0  0
    7.9396  -14.1396   23.6251 C   0  0  2  0  0  0  0  0  0  0  0  0
    6.9641  -14.3748   22.5732 N   0  0  0  0  0  0  0  0  0  0  0  0
    7.9219  -15.2986   24.5530 C   0  0  0  0  0  0  0  0  0  0  0  0
    6.8419  -15.6571   25.0530 O   0  0  0  0  0  0  0  0  0  0  0  0
    7.9758  -18.6981   24.0971 C   0  0  0  0  0  0  0  0  0  0  0  0
    9.1491  -18.4632   25.0205 C   0  0  1  0  0  0  0  0  0  0  0  0
   10.3197  -18.5427   24.2915 O   0  0  0  0  0  0  0  0  0  0  0  0
    9.0009  -17.1489   25.7586 C   0  0  2  0  0  0  0  0  0  0  0  0
    9.1042  -16.0166   24.8913 N   0  0  0  0  0  0  0  0  0  0  0  0
   10.0169  -17.0765   26.8141 C   0  0  0  0  0  0  0  0  0  0  0  0
   10.9023  -16.1760   26.8655 O   0  0  0  0  0  0  0  0  0  0  0  0
   10.0201  -18.0385   27.8149 O   0  0  0  0  0  0  0  0  0  0  0  0
  1  2  1  0
  2  3  1  0
  3  4  2  0
  6  5  1  1
  7  6  1  0
  7  3  1  0
  8  9  2  0
  8  6  1  0
 11 10  1  6
 11 13  1  0
 12 11  1  0
 13 15  1  0
 13 14  1  6
 14  8  1  0
 15 17  1  0
 16 15  2  0
M  END
$$$$
