GAT.pdb
     RDKit          3D

 17 16  0  0  1  0  0  0  0  0999 V2000
    5.9250  -18.6867   22.0011 N   0  0  0  0  0  0  0  0  0  0  0  0
    5.6949  -17.3366   22.4080 C   0  0  0  0  0  0  0  0  0  0  0  0
    6.8951  -16.4731   22.2308 C   0  0  0  0  0  0  0  0  0  0  0  0
    8.0713  -16.9129   22.2738 O   0  0  0  0  0  0  0  0  0  0  0  0
    7.4275  -12.8618   21.2259 C   0  0  0  0  0  0  0  0  0  0  0  0
    7.8532  -14.1766   21.8953 C   0  0  2  0  0  0  0  0  0  0  0  0
    6.7161  -15.0761   22.0003 N   0  0  0  0  0  0  0  0  0  0  0  0
    8.2903  -13.8066   23.2654 C   0  0  0  0  0  0  0  0  0  0  0  0
    9.3844  -13.2370   23.4184 O   0  0  0  0  0  0  0  0  0  0  0  0
    6.5985  -11.6166   26.0891 C   0  0  0  0  0  0  0  0  0  0  0  0
    6.8776  -13.0320   26.5401 C   0  0  1  0  0  0  0  0  0  0  0  0
    5.6988  -13.7516   26.5225 O   0  0  0  0  0  0  0  0  0  0  0  0
    7.9672  -13.6623   25.6977 C   0  0  2  0  0  0  0  0  0  0  0  0
    7.4962  -14.0829   24.4146 N   0  0  0  0  0  0  0  0  0  0  0  0
    8.5387  -14.7987   26.4281 C   0  0  0  0  0  0  0  0  0  0  0  0
    9.0774  -14.6926   27.5666 O   0  0  0  0  0  0  0  0  0  0  0  0
    8.4936  -16.0617   25.8539 O   0  0  0  0  0  0  0  0  0  0  0  0
  1  2  1  0
  2  3  1  0
  3  4  2  0
  6  5  1  6
  7  6  1  0
  7  3  1  0
  8  9  2  0
  8  6  1  0
 11 10  1  6
 11 13  1  0
 12 11  1  0
 13 15  1  0
 13 14  1  6
 14  8  1  0
 15 17  1  0
 16 15  2  0
M  END
$$$$
