GAT.pdb
     RDKit          3D

 17 16  0  0  1  0  0  0  0  0999 V2000
    8.0853  -14.7907   14.1713 N   0  0  0  0  0  0  0  0  0  0  0  0
    7.4859  -14.5730   15.4499 C   0  0  0  0  0  0  0  0  0  0  0  0
    8.4804  -14.1916   16.4906 C   0  0  0  0  0  0  0  0  0  0  0  0
    9.7223  -14.2453   16.3077 O   0  0  0  0  0  0  0  0  0  0  0  0
    8.1562  -12.6740   19.9645 C   0  0  0  0  0  0  0  0  0  0  0  0
    8.9361  -13.2418   18.7698 C   0  0  2  0  0  0  0  0  0  0  0  0
    8.0148  -13.7413   17.7623 N   0  0  0  0  0  0  0  0  0  0  0  0
    9.7151  -14.3865   19.3060 C   0  0  0  0  0  0  0  0  0  0  0  0
    9.1480  -15.4801   19.4711 O   0  0  0  0  0  0  0  0  0  0  0  0
   13.1323  -15.4697   17.8252 C   0  0  0  0  0  0  0  0  0  0  0  0
   13.2137  -15.4673   19.3345 C   0  0  1  0  0  0  0  0  0  0  0  0
   13.9896  -14.3999   19.7426 O   0  0  0  0  0  0  0  0  0  0  0  0
   11.8298  -15.4611   19.9501 C   0  0  2  0  0  0  0  0  0  0  0  0
   11.0950  -14.2743   19.6391 N   0  0  0  0  0  0  0  0  0  0  0  0
   11.9526  -15.6181   21.4033 C   0  0  0  0  0  0  0  0  0  0  0  0
   11.5278  -14.7642   22.2326 O   0  0  0  0  0  0  0  0  0  0  0  0
   12.5639  -16.7568   21.9098 O   0  0  0  0  0  0  0  0  0  0  0  0
  1  2  1  0
  2  3  1  0
  3  4  2  0
  6  5  1  1
  7  6  1  0
  7  3  1  0
  8  9  2  0
  8  6  1  0
 11 10  1  6
 11 13  1  0
 12 11  1  0
 13 15  1  0
 13 14  1  1
 14  8  1  0
 15 17  1  0
 16 15  2  0
M  END
$$$$
