GAT.pdb
     RDKit          3D

 17 16  0  0  1  0  0  0  0  0999 V2000
    6.3401  -18.6197   19.5664 N   0  0  0  0  0  0  0  0  0  0  0  0
    6.0114  -17.3346   20.0974 C   0  0  0  0  0  0  0  0  0  0  0  0
    7.1547  -16.3822   20.0400 C   0  0  0  0  0  0  0  0  0  0  0  0
    8.3474  -16.7475   19.8892 O   0  0  0  0  0  0  0  0  0  0  0  0
    7.4435  -12.5974   20.0257 C   0  0  0  0  0  0  0  0  0  0  0  0
    7.9849  -14.0200   20.2280 C   0  0  2  0  0  0  0  0  0  0  0  0
    6.8984  -14.9835   20.1606 N   0  0  0  0  0  0  0  0  0  0  0  0
    8.5515  -14.0429   21.6004 C   0  0  0  0  0  0  0  0  0  0  0  0
    9.6553  -13.5108   21.8083 O   0  0  0  0  0  0  0  0  0  0  0  0
    6.8305  -13.2409   25.1853 C   0  0  0  0  0  0  0  0  0  0  0  0
    7.4836  -14.6019   25.1100 C   0  0  1  0  0  0  0  0  0  0  0  0
    6.5020  -15.5678   25.0036 O   0  0  0  0  0  0  0  0  0  0  0  0
    8.4906  -14.6560   23.9798 C   0  0  2  0  0  0  0  0  0  0  0  0
    7.8711  -14.6557   22.6909 N   0  0  0  0  0  0  0  0  0  0  0  0
    9.3276  -15.8495   24.1425 C   0  0  0  0  0  0  0  0  0  0  0  0
    9.4146  -16.7609   23.2712 O   0  0  0  0  0  0  0  0  0  0  0  0
   10.0681  -16.0009   25.3068 O   0  0  0  0  0  0  0  0  0  0  0  0
  1  2  1  0
  2  3  1  0
  3  4  2  0
  6  5  1  1
  7  6  1  0
  7  3  1  0
  8  9  2  0
  8  6  1  0
 11 10  1  6
 11 13  1  0
 12 11  1  0
 13 15  1  0
 13 14  1  6
 14  8  1  0
 15 17  1  0
 16 15  2  0
M  END
$$$$
