YGV.pdb
     RDKit          3D

 24 24  0  0  1  0  0  0  0  0999 V2000
   19.4968  -20.9732  -15.1281 O   0  0  0  0  0  0  0  0  0  0  0  0
   20.7339  -20.6859  -14.5551 C   0  0  0  0  0  0  0  0  0  0  0  0
   21.9206  -21.0923  -15.1305 C   0  0  0  0  0  0  0  0  0  0  0  0
   23.1397  -20.8007  -14.5520 C   0  0  0  0  0  0  0  0  0  0  0  0
   23.2264  -20.0906  -13.3736 C   0  0  0  0  0  0  0  0  0  0  0  0
   24.5202  -19.7619  -12.7279 C   0  0  0  0  0  0  0  0  0  0  0  0
   25.0021  -21.0084  -12.0271 C   0  0  2  0  0  0  0  0  0  0  0  0
   24.0320  -21.3825  -11.0157 N   0  0  0  0  0  0  0  0  0  0  0  0
   26.3573  -20.8233  -11.4354 C   0  0  0  0  0  0  0  0  0  0  0  0
   27.2998  -20.4024  -12.1501 O   0  0  0  0  0  0  0  0  0  0  0  0
   22.0485  -19.6782  -12.7876 C   0  0  0  0  0  0  0  0  0  0  0  0
   20.8342  -19.9761  -13.3762 C   0  0  0  0  0  0  0  0  0  0  0  0
   26.6406  -21.1062  -10.0726 N   0  0  0  0  0  0  0  0  0  0  0  0
   27.9339  -20.8979   -9.5192 C   0  0  0  0  0  0  0  0  0  0  0  0
   28.0842  -21.1213   -8.0844 C   0  0  0  0  0  0  0  0  0  0  0  0
   27.6076  -22.2285   -7.6477 O   0  0  0  0  0  0  0  0  0  0  0  0
   29.5310  -18.4589   -4.7448 C   0  0  0  0  0  0  0  0  0  0  0  0
   29.7204  -19.9264   -4.9486 C   0  0  2  0  0  0  0  0  0  0  0  0
   31.0478  -20.1691   -5.6121 C   0  0  0  0  0  0  0  0  0  0  0  0
   28.5646  -20.5215   -5.7223 C   0  0  2  0  0  0  0  0  0  0  0  0
   28.6771  -20.2821   -7.1377 N   0  0  0  0  0  0  0  0  0  0  0  0
   27.2561  -20.0741   -5.2000 C   0  0  0  0  0  0  0  0  0  0  0  0
   26.5214  -19.3143   -5.8763 O   0  0  0  0  0  0  0  0  0  0  0  0
   26.7978  -20.4735   -3.9570 O   0  0  0  0  0  0  0  0  0  0  0  0
  2  1  1  0
  2  3  2  0
  4  3  1  0
  5  4  2  0
  6  7  1  0
  6  5  1  0
  7  9  1  0
  7  8  1  1
  9 10  2  0
  9 13  1  0
 11 12  2  0
 11  5  1  0
 12  2  1  0
 13 14  1  0
 15 14  1  0
 15 21  1  0
 16 15  2  0
 18 17  1  6
 19 18  1  0
 20 21  1  6
 20 22  1  0
 20 18  1  0
 22 23  2  0
 22 24  1  0
M  END
$$$$
