YGV.pdb
     RDKit          3D

 24 24  0  0  1  0  0  0  0  0999 V2000
   21.5712  -15.3843  -22.8404 O   0  0  0  0  0  0  0  0  0  0  0  0
   21.1806  -14.4452  -21.8880 C   0  0  0  0  0  0  0  0  0  0  0  0
   20.0701  -14.6288  -21.0896 C   0  0  0  0  0  0  0  0  0  0  0  0
   19.6942  -13.6901  -20.1497 C   0  0  0  0  0  0  0  0  0  0  0  0
   20.4114  -12.5271  -19.9665 C   0  0  0  0  0  0  0  0  0  0  0  0
   20.0333  -11.5002  -18.9658 C   0  0  0  0  0  0  0  0  0  0  0  0
   21.0152  -11.6020  -17.8245 C   0  0  2  0  0  0  0  0  0  0  0  0
   20.8289  -12.8768  -17.1580 N   0  0  0  0  0  0  0  0  0  0  0  0
   20.8756  -10.4663  -16.8697 C   0  0  0  0  0  0  0  0  0  0  0  0
   20.0510  -10.5403  -15.9259 O   0  0  0  0  0  0  0  0  0  0  0  0
   21.5235  -12.3305  -20.7574 C   0  0  0  0  0  0  0  0  0  0  0  0
   21.8897  -13.2775  -21.6950 C   0  0  0  0  0  0  0  0  0  0  0  0
   21.6468   -9.2784  -16.9780 N   0  0  0  0  0  0  0  0  0  0  0  0
   21.4192   -8.1596  -16.1302 C   0  0  0  0  0  0  0  0  0  0  0  0
   20.9439   -6.9338  -16.7645 C   0  0  0  0  0  0  0  0  0  0  0  0
   21.4622   -6.6696  -17.9071 O   0  0  0  0  0  0  0  0  0  0  0  0
   17.1569   -5.3059  -16.6292 C   0  0  0  0  0  0  0  0  0  0  0  0
   18.2030   -5.1181  -17.6787 C   0  0  2  0  0  0  0  0  0  0  0  0
   18.1845   -6.2945  -18.6153 C   0  0  0  0  0  0  0  0  0  0  0  0
   19.5628   -4.8899  -17.0565 C   0  0  2  0  0  0  0  0  0  0  0  0
   20.0030   -6.0208  -16.2816 N   0  0  0  0  0  0  0  0  0  0  0  0
   19.6111   -3.6411  -16.2671 C   0  0  0  0  0  0  0  0  0  0  0  0
   19.6297   -3.6755  -15.0128 O   0  0  0  0  0  0  0  0  0  0  0  0
   19.6373   -2.3995  -16.8771 O   0  0  0  0  0  0  0  0  0  0  0  0
  2  1  1  0
  2  3  2  0
  4  3  1  0
  5  4  2  0
  6  7  1  0
  6  5  1  0
  7  9  1  0
  7  8  1  1
  9 10  2  0
  9 13  1  0
 11 12  2  0
 11  5  1  0
 12  2  1  0
 13 14  1  0
 15 14  1  0
 15 21  1  0
 16 15  2  0
 18 17  1  1
 19 18  1  0
 20 21  1  1
 20 22  1  0
 20 18  1  0
 22 23  2  0
 22 24  1  0
M  END
$$$$
