YGV.pdb
     RDKit          3D

 24 24  0  0  1  0  0  0  0  0999 V2000
   19.8735  -21.9726  -15.0062 O   0  0  0  0  0  0  0  0  0  0  0  0
   20.9419  -21.4603  -14.2728 C   0  0  0  0  0  0  0  0  0  0  0  0
   21.0570  -21.6550  -12.9114 C   0  0  0  0  0  0  0  0  0  0  0  0
   22.1209  -21.1419  -12.1969 C   0  0  0  0  0  0  0  0  0  0  0  0
   23.1161  -20.4120  -12.8112 C   0  0  0  0  0  0  0  0  0  0  0  0
   24.2709  -19.8480  -12.0714 C   0  0  0  0  0  0  0  0  0  0  0  0
   25.4268  -20.8019  -12.2477 C   0  0  2  0  0  0  0  0  0  0  0  0
   24.9592  -22.1542  -12.0093 N   0  0  0  0  0  0  0  0  0  0  0  0
   26.5700  -20.4590  -11.3553 C   0  0  0  0  0  0  0  0  0  0  0  0
   26.9268  -19.2621  -11.2277 O   0  0  0  0  0  0  0  0  0  0  0  0
   23.0139  -20.2098  -14.1711 C   0  0  0  0  0  0  0  0  0  0  0  0
   21.9441  -20.7285  -14.8757 C   0  0  0  0  0  0  0  0  0  0  0  0
   27.2913  -21.4419  -10.6265 N   0  0  0  0  0  0  0  0  0  0  0  0
   28.3870  -21.0965   -9.7883 C   0  0  0  0  0  0  0  0  0  0  0  0
   28.0986  -20.8916   -8.3721 C   0  0  0  0  0  0  0  0  0  0  0  0
   26.8695  -21.0329   -8.0354 O   0  0  0  0  0  0  0  0  0  0  0  0
   29.3463  -20.5453   -3.6097 C   0  0  0  0  0  0  0  0  0  0  0  0
   29.7662  -20.3656   -5.0319 C   0  0  2  0  0  0  0  0  0  0  0  0
   30.4767  -19.0484   -5.1780 C   0  0  0  0  0  0  0  0  0  0  0  0
   28.5855  -20.4979   -5.9683 C   0  0  2  0  0  0  0  0  0  0  0  0
   28.9904  -20.5614   -7.3485 N   0  0  0  0  0  0  0  0  0  0  0  0
   27.5787  -19.4383   -5.7477 C   0  0  0  0  0  0  0  0  0  0  0  0
   27.5242  -18.4380   -6.5034 O   0  0  0  0  0  0  0  0  0  0  0  0
   26.6676  -19.5101   -4.7088 O   0  0  0  0  0  0  0  0  0  0  0  0
  2  1  1  0
  2  3  2  0
  4  3  1  0
  5  4  2  0
  6  7  1  0
  6  5  1  0
  7  9  1  0
  7  8  1  1
  9 10  2  0
  9 13  1  0
 11 12  2  0
 11  5  1  0
 12  2  1  0
 13 14  1  0
 15 14  1  0
 15 21  1  0
 16 15  2  0
 18 17  1  1
 19 18  1  0
 20 21  1  6
 20 22  1  0
 20 18  1  0
 22 23  2  0
 22 24  1  0
M  END
$$$$
