YGV.pdb
     RDKit          3D

 24 24  0  0  1  0  0  0  0  0999 V2000
   18.5391  -15.8937  -19.7805 O   0  0  0  0  0  0  0  0  0  0  0  0
   19.5823  -16.2391  -18.9238 C   0  0  0  0  0  0  0  0  0  0  0  0
   19.4857  -16.0932  -17.5549 C   0  0  0  0  0  0  0  0  0  0  0  0
   20.5271  -16.4394  -16.7174 C   0  0  0  0  0  0  0  0  0  0  0  0
   21.7103  -16.9463  -17.2109 C   0  0  0  0  0  0  0  0  0  0  0  0
   22.8465  -17.3272  -16.3375 C   0  0  0  0  0  0  0  0  0  0  0  0
   22.9247  -18.8341  -16.3334 C   0  0  2  0  0  0  0  0  0  0  0  0
   21.6519  -19.3684  -15.8879 N   0  0  0  0  0  0  0  0  0  0  0  0
   24.0462  -19.3291  -15.4859 C   0  0  0  0  0  0  0  0  0  0  0  0
   24.0599  -19.0760  -14.2563 O   0  0  0  0  0  0  0  0  0  0  0  0
   21.8207  -17.0974  -18.5768 C   0  0  0  0  0  0  0  0  0  0  0  0
   20.7712  -16.7473  -19.4051 C   0  0  0  0  0  0  0  0  0  0  0  0
   25.1237  -20.0897  -16.0132 N   0  0  0  0  0  0  0  0  0  0  0  0
   26.1102  -20.6720  -15.1706 C   0  0  0  0  0  0  0  0  0  0  0  0
   25.6463  -21.2677  -13.9212 C   0  0  0  0  0  0  0  0  0  0  0  0
   25.4654  -22.5366  -13.9512 O   0  0  0  0  0  0  0  0  0  0  0  0
   25.1797  -21.8093   -9.1410 C   0  0  0  0  0  0  0  0  0  0  0  0
   25.7442  -21.1088  -10.3333 C   0  0  2  0  0  0  0  0  0  0  0  0
   25.9173  -19.6490  -10.0168 C   0  0  0  0  0  0  0  0  0  0  0  0
   24.8865  -21.3420  -11.5574 C   0  0  2  0  0  0  0  0  0  0  0  0
   25.3760  -20.6288  -12.7084 N   0  0  0  0  0  0  0  0  0  0  0  0
   23.4609  -21.0453  -11.3029 C   0  0  0  0  0  0  0  0  0  0  0  0
   22.8645  -20.1550  -11.9558 O   0  0  0  0  0  0  0  0  0  0  0  0
   22.7384  -21.7327  -10.3437 O   0  0  0  0  0  0  0  0  0  0  0  0
  2  1  1  0
  2  3  2  0
  4  3  1  0
  5  4  2  0
  6  7  1  0
  6  5  1  0
  7  9  1  0
  7  8  1  1
  9 10  2  0
  9 13  1  0
 11 12  2  0
 11  5  1  0
 12  2  1  0
 13 14  1  0
 15 14  1  0
 15 21  1  0
 16 15  2  0
 18 17  1  1
 19 18  1  0
 20 21  1  6
 20 22  1  0
 20 18  1  0
 22 23  2  0
 22 24  1  0
M  END
$$$$
