YGV.pdb
     RDKit          3D

 24 24  0  0  1  0  0  0  0  0999 V2000
   29.0939  -18.5176   -3.0628 O   0  0  0  0  0  0  0  0  0  0  0  0
   28.7448  -19.0905   -4.2842 C   0  0  0  0  0  0  0  0  0  0  0  0
   28.7943  -20.4533   -4.4956 C   0  0  0  0  0  0  0  0  0  0  0  0
   28.4456  -21.0078   -5.7108 C   0  0  0  0  0  0  0  0  0  0  0  0
   28.0324  -20.2250   -6.7677 C   0  0  0  0  0  0  0  0  0  0  0  0
   27.6516  -20.7906   -8.0845 C   0  0  0  0  0  0  0  0  0  0  0  0
   26.2490  -20.3227   -8.3858 C   0  0  2  0  0  0  0  0  0  0  0  0
   25.3550  -20.8320   -7.3633 N   0  0  0  0  0  0  0  0  0  0  0  0
   25.8064  -20.7370   -9.7473 C   0  0  0  0  0  0  0  0  0  0  0  0
   25.3227  -21.8816   -9.9264 O   0  0  0  0  0  0  0  0  0  0  0  0
   27.9782  -18.8616   -6.5705 C   0  0  0  0  0  0  0  0  0  0  0  0
   28.3297  -18.3182   -5.3494 C   0  0  0  0  0  0  0  0  0  0  0  0
   25.9077  -19.8813  -10.8764 N   0  0  0  0  0  0  0  0  0  0  0  0
   25.5208  -20.3099  -12.1760 C   0  0  0  0  0  0  0  0  0  0  0  0
   24.1398  -20.0540  -12.5740 C   0  0  0  0  0  0  0  0  0  0  0  0
   23.4113  -19.4768  -11.6908 O   0  0  0  0  0  0  0  0  0  0  0  0
   22.4571  -20.2910  -16.5183 C   0  0  0  0  0  0  0  0  0  0  0  0
   22.0296  -19.3429  -15.4463 C   0  0  2  0  0  0  0  0  0  0  0  0
   22.8093  -18.0633  -15.5741 C   0  0  0  0  0  0  0  0  0  0  0  0
   22.1643  -19.9731  -14.0777 C   0  0  2  0  0  0  0  0  0  0  0  0
   23.5205  -20.3605  -13.7883 N   0  0  0  0  0  0  0  0  0  0  0  0
   21.2273  -21.1008  -13.8896 C   0  0  0  0  0  0  0  0  0  0  0  0
   21.5988  -22.2830  -14.0873 O   0  0  0  0  0  0  0  0  0  0  0  0
   19.9179  -20.8957  -13.4923 O   0  0  0  0  0  0  0  0  0  0  0  0
  2  1  1  0
  2  3  2  0
  4  3  1  0
  5  4  2  0
  6  7  1  0
  6  5  1  0
  7  9  1  0
  7  8  1  1
  9 10  2  0
  9 13  1  0
 11 12  2  0
 11  5  1  0
 12  2  1  0
 13 14  1  0
 15 14  1  0
 15 21  1  0
 16 15  2  0
 18 17  1  6
 19 18  1  0
 20 21  1  6
 20 22  1  0
 20 18  1  0
 22 23  2  0
 22 24  1  0
M  END
$$$$
