YGV.pdb
     RDKit          3D

 24 24  0  0  1  0  0  0  0  0999 V2000
   19.7094  -13.4634  -22.4327 O   0  0  0  0  0  0  0  0  0  0  0  0
   19.1788  -12.5048  -21.5717 C   0  0  0  0  0  0  0  0  0  0  0  0
   18.5664  -12.8458  -20.3829 C   0  0  0  0  0  0  0  0  0  0  0  0
   18.0448  -11.8858  -19.5390 C   0  0  0  0  0  0  0  0  0  0  0  0
   18.1124  -10.5435  -19.8459 C   0  0  0  0  0  0  0  0  0  0  0  0
   17.5618   -9.4891  -18.9605 C   0  0  0  0  0  0  0  0  0  0  0  0
   18.6425   -9.1214  -17.9736 C   0  0  2  0  0  0  0  0  0  0  0  0
   18.9034  -10.2628  -17.1173 N   0  0  0  0  0  0  0  0  0  0  0  0
   18.2779   -7.9172  -17.1749 C   0  0  0  0  0  0  0  0  0  0  0  0
   17.7269   -8.0528  -16.0550 O   0  0  0  0  0  0  0  0  0  0  0  0
   18.7217  -10.1884  -21.0306 C   0  0  0  0  0  0  0  0  0  0  0  0
   19.2400  -11.1586  -21.8673 C   0  0  0  0  0  0  0  0  0  0  0  0
   18.5291   -6.5950  -17.6289 N   0  0  0  0  0  0  0  0  0  0  0  0
   18.0362   -5.4586  -16.9303 C   0  0  0  0  0  0  0  0  0  0  0  0
   18.4514   -4.1480  -17.4212 C   0  0  0  0  0  0  0  0  0  0  0  0
   19.3384   -4.1635  -18.3469 O   0  0  0  0  0  0  0  0  0  0  0  0
   16.6272   -1.8426  -19.3295 C   0  0  0  0  0  0  0  0  0  0  0  0
   17.3002   -0.9543  -18.3350 C   0  0  2  0  0  0  0  0  0  0  0  0
   17.7437    0.3101  -19.0176 C   0  0  0  0  0  0  0  0  0  0  0  0
   18.4380   -1.6742  -17.6454 C   0  0  2  0  0  0  0  0  0  0  0  0
   18.0052   -2.8903  -17.0076 N   0  0  0  0  0  0  0  0  0  0  0  0
   19.1617   -0.7961  -16.7019 C   0  0  0  0  0  0  0  0  0  0  0  0
   18.7717   -0.6694  -15.5159 O   0  0  0  0  0  0  0  0  0  0  0  0
   20.2857   -0.0879  -17.0887 O   0  0  0  0  0  0  0  0  0  0  0  0
  2  1  1  0
  2  3  2  0
  4  3  1  0
  5  4  2  0
  6  7  1  0
  6  5  1  0
  7  9  1  0
  7  8  1  1
  9 10  2  0
  9 13  1  0
 11 12  2  0
 11  5  1  0
 12  2  1  0
 13 14  1  0
 15 14  1  0
 15 21  1  0
 16 15  2  0
 18 17  1  6
 19 18  1  0
 20 21  1  1
 20 22  1  0
 20 18  1  0
 22 23  2  0
 22 24  1  0
M  END
$$$$
