YGV.pdb
     RDKit          3D

 24 24  0  0  1  0  0  0  0  0999 V2000
   20.0805  -19.3964  -22.8452 O   0  0  0  0  0  0  0  0  0  0  0  0
   20.8903  -19.1768  -21.7327 C   0  0  0  0  0  0  0  0  0  0  0  0
   21.3497  -20.2122  -20.9444 C   0  0  0  0  0  0  0  0  0  0  0  0
   22.1516  -19.9806  -19.8448 C   0  0  0  0  0  0  0  0  0  0  0  0
   22.5293  -18.7046  -19.4848 C   0  0  0  0  0  0  0  0  0  0  0  0
   23.3892  -18.4235  -18.3099 C   0  0  0  0  0  0  0  0  0  0  0  0
   22.8210  -19.1928  -17.1427 C   0  0  2  0  0  0  0  0  0  0  0  0
   21.4847  -18.7023  -16.8638 N   0  0  0  0  0  0  0  0  0  0  0  0
   23.6943  -19.0996  -15.9388 C   0  0  0  0  0  0  0  0  0  0  0  0
   23.6997  -18.0501  -15.2498 O   0  0  0  0  0  0  0  0  0  0  0  0
   22.0775  -17.6604  -20.2635 C   0  0  0  0  0  0  0  0  0  0  0  0
   21.2753  -17.9048  -21.3620 C   0  0  0  0  0  0  0  0  0  0  0  0
   24.5392  -20.1634  -15.5240 N   0  0  0  0  0  0  0  0  0  0  0  0
   25.3993  -20.0393  -14.3984 C   0  0  0  0  0  0  0  0  0  0  0  0
   24.8817  -20.5038  -13.1149 C   0  0  0  0  0  0  0  0  0  0  0  0
   23.7497  -21.1040  -13.1636 O   0  0  0  0  0  0  0  0  0  0  0  0
   25.0999  -21.4252   -8.2565 C   0  0  0  0  0  0  0  0  0  0  0  0
   25.7642  -20.8565   -9.4674 C   0  0  2  0  0  0  0  0  0  0  0  0
   26.2674  -19.4741   -9.1555 C   0  0  0  0  0  0  0  0  0  0  0  0
   24.8345  -20.8828  -10.6605 C   0  0  2  0  0  0  0  0  0  0  0  0
   25.4635  -20.3736  -11.8514 N   0  0  0  0  0  0  0  0  0  0  0  0
   23.5567  -20.1925  -10.3857 C   0  0  0  0  0  0  0  0  0  0  0  0
   23.4167  -18.9735  -10.6488 O   0  0  0  0  0  0  0  0  0  0  0  0
   22.4776  -20.8594   -9.8331 O   0  0  0  0  0  0  0  0  0  0  0  0
  2  1  1  0
  2  3  2  0
  4  3  1  0
  5  4  2  0
  6  7  1  0
  6  5  1  0
  7  9  1  0
  7  8  1  1
  9 10  2  0
  9 13  1  0
 11 12  2  0
 11  5  1  0
 12  2  1  0
 13 14  1  0
 15 14  1  0
 15 21  1  0
 16 15  2  0
 18 17  1  1
 19 18  1  0
 20 21  1  6
 20 22  1  0
 20 18  1  0
 22 23  2  0
 22 24  1  0
M  END
$$$$
