YGV.pdb
     RDKit          3D

 24 24  0  0  1  0  0  0  0  0999 V2000
   28.4824  -18.3380   -3.6345 O   0  0  0  0  0  0  0  0  0  0  0  0
   28.2272  -19.0059   -4.8305 C   0  0  0  0  0  0  0  0  0  0  0  0
   28.2807  -18.3673   -6.0527 C   0  0  0  0  0  0  0  0  0  0  0  0
   28.0256  -19.0411   -7.2303 C   0  0  0  0  0  0  0  0  0  0  0  0
   27.7058  -20.3820   -7.2382 C   0  0  0  0  0  0  0  0  0  0  0  0
   27.4265  -21.1332   -8.4858 C   0  0  0  0  0  0  0  0  0  0  0  0
   26.2200  -20.4982   -9.1322 C   0  0  2  0  0  0  0  0  0  0  0  0
   25.0545  -20.7611   -8.3096 N   0  0  0  0  0  0  0  0  0  0  0  0
   26.0186  -20.9824  -10.5272 C   0  0  0  0  0  0  0  0  0  0  0  0
   25.9094  -22.2126  -10.7526 O   0  0  0  0  0  0  0  0  0  0  0  0
   27.6487  -21.0328   -6.0240 C   0  0  0  0  0  0  0  0  0  0  0  0
   27.9061  -20.3475   -4.8518 C   0  0  0  0  0  0  0  0  0  0  0  0
   25.9428  -20.1006  -11.6381 N   0  0  0  0  0  0  0  0  0  0  0  0
   25.8739  -20.5850  -12.9734 C   0  0  0  0  0  0  0  0  0  0  0  0
   24.5467  -20.6904  -13.5721 C   0  0  0  0  0  0  0  0  0  0  0  0
   24.5289  -20.9673  -14.8238 O   0  0  0  0  0  0  0  0  0  0  0  0
   20.6831  -21.2497  -11.7222 C   0  0  0  0  0  0  0  0  0  0  0  0
   21.1330  -21.6532  -13.0881 C   0  0  2  0  0  0  0  0  0  0  0  0
   21.7506  -23.0228  -13.0239 C   0  0  0  0  0  0  0  0  0  0  0  0
   22.0661  -20.6203  -13.6805 C   0  0  2  0  0  0  0  0  0  0  0  0
   23.3051  -20.5259  -12.9530 N   0  0  0  0  0  0  0  0  0  0  0  0
   21.4178  -19.2992  -13.8193 C   0  0  0  0  0  0  0  0  0  0  0  0
   21.7611  -18.3366  -13.0911 O   0  0  0  0  0  0  0  0  0  0  0  0
   20.4175  -19.0776  -14.7493 O   0  0  0  0  0  0  0  0  0  0  0  0
  2  1  1  0
  2  3  2  0
  4  3  1  0
  5  4  2  0
  6  7  1  0
  6  5  1  0
  7  9  1  0
  7  8  1  1
  9 10  2  0
  9 13  1  0
 11 12  2  0
 11  5  1  0
 12  2  1  0
 13 14  1  0
 15 14  1  0
 15 21  1  0
 16 15  2  0
 18 17  1  1
 19 18  1  0
 20 21  1  1
 20 22  1  0
 20 18  1  0
 22 23  2  0
 22 24  1  0
M  END
$$$$
