YGV.pdb
     RDKit          3D

 24 24  0  0  1  0  0  0  0  0999 V2000
   28.4132  -19.4474   -5.1071 O   0  0  0  0  0  0  0  0  0  0  0  0
   28.0476  -19.9098   -6.3697 C   0  0  0  0  0  0  0  0  0  0  0  0
   26.7407  -19.8788   -6.8117 C   0  0  0  0  0  0  0  0  0  0  0  0
   26.3921  -20.3402   -8.0652 C   0  0  0  0  0  0  0  0  0  0  0  0
   27.3339  -20.8527   -8.9317 C   0  0  0  0  0  0  0  0  0  0  0  0
   26.9910  -21.3558  -10.2838 C   0  0  0  0  0  0  0  0  0  0  0  0
   26.9071  -20.1601  -11.2003 C   0  0  2  0  0  0  0  0  0  0  0  0
   25.9450  -19.2199  -10.6576 N   0  0  0  0  0  0  0  0  0  0  0  0
   26.5535  -20.5529  -12.5938 C   0  0  0  0  0  0  0  0  0  0  0  0
   27.2317  -21.4260  -13.1887 O   0  0  0  0  0  0  0  0  0  0  0  0
   28.6438  -20.8898   -8.5031 C   0  0  0  0  0  0  0  0  0  0  0  0
   28.9805  -20.4249   -7.2460 C   0  0  0  0  0  0  0  0  0  0  0  0
   25.4628  -19.9750  -13.2966 N   0  0  0  0  0  0  0  0  0  0  0  0
   25.2237  -20.2589  -14.6694 C   0  0  0  0  0  0  0  0  0  0  0  0
   24.3600  -21.3968  -14.9696 C   0  0  0  0  0  0  0  0  0  0  0  0
   24.9453  -22.4055  -15.5025 O   0  0  0  0  0  0  0  0  0  0  0  0
   23.8408  -24.5251  -13.8142 C   0  0  0  0  0  0  0  0  0  0  0  0
   22.6926  -23.6169  -13.5182 C   0  0  2  0  0  0  0  0  0  0  0  0
   21.5401  -24.4274  -12.9924 C   0  0  0  0  0  0  0  0  0  0  0  0
   22.3212  -22.7960  -14.7334 C   0  0  2  0  0  0  0  0  0  0  0  0
   22.9855  -21.5187  -14.7506 N   0  0  0  0  0  0  0  0  0  0  0  0
   20.8577  -22.6470  -14.8784 C   0  0  0  0  0  0  0  0  0  0  0  0
   20.2826  -21.5892  -14.5249 O   0  0  0  0  0  0  0  0  0  0  0  0
   20.0754  -23.6597  -15.4047 O   0  0  0  0  0  0  0  0  0  0  0  0
  2  1  1  0
  2  3  2  0
  4  3  1  0
  5  4  2  0
  6  7  1  0
  6  5  1  0
  7  9  1  0
  7  8  1  1
  9 10  2  0
  9 13  1  0
 11 12  2  0
 11  5  1  0
 12  2  1  0
 13 14  1  0
 15 14  1  0
 15 21  1  0
 16 15  2  0
 18 17  1  6
 19 18  1  0
 20 21  1  1
 20 22  1  0
 20 18  1  0
 22 23  2  0
 22 24  1  0
M  END
$$$$
