YGV.pdb
     RDKit          3D

 24 24  0  0  1  0  0  0  0  0999 V2000
   17.7454  -23.7506   -9.2243 O   0  0  0  0  0  0  0  0  0  0  0  0
   18.4689  -23.2633  -10.3110 C   0  0  0  0  0  0  0  0  0  0  0  0
   17.9561  -22.3073  -11.1639 C   0  0  0  0  0  0  0  0  0  0  0  0
   18.6838  -21.8332  -12.2370 C   0  0  0  0  0  0  0  0  0  0  0  0
   19.9554  -22.2935  -12.5046 C   0  0  0  0  0  0  0  0  0  0  0  0
   20.7618  -21.8041  -13.6488 C   0  0  0  0  0  0  0  0  0  0  0  0
   21.5235  -20.5906  -13.1754 C   0  0  2  0  0  0  0  0  0  0  0  0
   21.5884  -19.6263  -14.2571 N   0  0  0  0  0  0  0  0  0  0  0  0
   22.8850  -20.9467  -12.6850 C   0  0  0  0  0  0  0  0  0  0  0  0
   23.7244  -21.4437  -13.4753 O   0  0  0  0  0  0  0  0  0  0  0  0
   20.4804  -23.2488  -11.6605 C   0  0  0  0  0  0  0  0  0  0  0  0
   19.7422  -23.7157  -10.5895 C   0  0  0  0  0  0  0  0  0  0  0  0
   23.2879  -20.7467  -11.3377 N   0  0  0  0  0  0  0  0  0  0  0  0
   24.6041  -21.0565  -10.8973 C   0  0  0  0  0  0  0  0  0  0  0  0
   25.7017  -20.3295  -11.5279 C   0  0  0  0  0  0  0  0  0  0  0  0
   25.8497  -19.1155  -11.1429 O   0  0  0  0  0  0  0  0  0  0  0  0
   29.3549  -21.7110  -12.9138 C   0  0  0  0  0  0  0  0  0  0  0  0
   29.0025  -20.3041  -12.5568 C   0  0  2  0  0  0  0  0  0  0  0  0
   29.1469  -20.1168  -11.0717 C   0  0  0  0  0  0  0  0  0  0  0  0
   27.6207  -19.9458  -13.0577 C   0  0  2  0  0  0  0  0  0  0  0  0
   26.6012  -20.7908  -12.4923 N   0  0  0  0  0  0  0  0  0  0  0  0
   27.5514  -19.9277  -14.5341 C   0  0  0  0  0  0  0  0  0  0  0  0
   28.2498  -19.1251  -15.1993 O   0  0  0  0  0  0  0  0  0  0  0  0
   26.7208  -20.7879  -15.2305 O   0  0  0  0  0  0  0  0  0  0  0  0
  2  1  1  0
  2  3  2  0
  4  3  1  0
  5  4  2  0
  6  7  1  0
  6  5  1  0
  7  9  1  0
  7  8  1  6
  9 10  2  0
  9 13  1  0
 11 12  2  0
 11  5  1  0
 12  2  1  0
 13 14  1  0
 15 14  1  0
 15 21  1  0
 16 15  2  0
 18 17  1  1
 19 18  1  0
 20 21  1  6
 20 22  1  0
 20 18  1  0
 22 23  2  0
 22 24  1  0
M  END
$$$$
