YGV.pdb
     RDKit          3D

 24 24  0  0  1  0  0  0  0  0999 V2000
   29.0069  -18.7664   -2.9959 O   0  0  0  0  0  0  0  0  0  0  0  0
   28.6292  -19.2411   -4.2503 C   0  0  0  0  0  0  0  0  0  0  0  0
   28.4179  -18.3961   -5.3208 C   0  0  0  0  0  0  0  0  0  0  0  0
   28.0438  -18.8796   -6.5585 C   0  0  0  0  0  0  0  0  0  0  0  0
   27.8646  -20.2283   -6.7808 C   0  0  0  0  0  0  0  0  0  0  0  0
   27.4633  -20.7782   -8.0981 C   0  0  0  0  0  0  0  0  0  0  0  0
   26.1202  -20.1833   -8.4433 C   0  0  2  0  0  0  0  0  0  0  0  0
   25.1265  -20.7038   -7.5236 N   0  0  0  0  0  0  0  0  0  0  0  0
   25.7414  -20.4527   -9.8592 C   0  0  0  0  0  0  0  0  0  0  0  0
   26.5062  -20.0985  -10.7896 O   0  0  0  0  0  0  0  0  0  0  0  0
   28.0723  -21.0842   -5.7201 C   0  0  0  0  0  0  0  0  0  0  0  0
   28.4466  -20.5882   -4.4857 C   0  0  0  0  0  0  0  0  0  0  0  0
   24.5308  -21.1050  -10.2148 N   0  0  0  0  0  0  0  0  0  0  0  0
   24.1228  -21.2360  -11.5708 C   0  0  0  0  0  0  0  0  0  0  0  0
   24.7944  -20.3862  -12.5495 C   0  0  0  0  0  0  0  0  0  0  0  0
   24.5330  -19.1341  -12.4615 O   0  0  0  0  0  0  0  0  0  0  0  0
   28.1687  -21.3736  -14.9794 C   0  0  0  0  0  0  0  0  0  0  0  0
   27.8309  -20.0149  -14.4590 C   0  0  2  0  0  0  0  0  0  0  0  0
   28.4855  -19.8185  -13.1195 C   0  0  0  0  0  0  0  0  0  0  0  0
   26.3332  -19.8077  -14.4117 C   0  0  2  0  0  0  0  0  0  0  0  0
   25.6778  -20.7681  -13.5623 N   0  0  0  0  0  0  0  0  0  0  0  0
   25.7322  -19.7803  -15.7619 C   0  0  0  0  0  0  0  0  0  0  0  0
   26.0731  -18.9089  -16.5981 O   0  0  0  0  0  0  0  0  0  0  0  0
   24.7801  -20.7064  -16.1496 O   0  0  0  0  0  0  0  0  0  0  0  0
  2  1  1  0
  2  3  2  0
  4  3  1  0
  5  4  2  0
  6  7  1  0
  6  5  1  0
  7  9  1  0
  7  8  1  1
  9 10  2  0
  9 13  1  0
 11 12  2  0
 11  5  1  0
 12  2  1  0
 13 14  1  0
 15 14  1  0
 15 21  1  0
 16 15  2  0
 18 17  1  1
 19 18  1  0
 20 21  1  1
 20 22  1  0
 20 18  1  0
 22 23  2  0
 22 24  1  0
M  END
$$$$
