HCR.pdb
     RDKit          3D

 28 28  0  0  1  0  0  0  0  0999 V2000
    9.8438  -14.4228   21.2365 N   0  0  0  0  0  0  0  0  0  0  0  0
    8.6064  -14.0411   21.8519 C   0  0  1  0  0  0  0  0  0  0  0  0
    7.3997  -14.6397   21.1746 C   0  0  0  0  0  0  0  0  0  0  0  0
    7.3332  -14.3600   19.7420 C   0  0  0  0  0  0  0  0  0  0  0  0
    7.7304  -13.1976   19.1136 C   0  0  0  0  0  0  0  0  0  0  0  0
    7.5021  -13.3507   17.7939 N   0  0  0  0  0  0  0  0  0  0  0  0
    6.9803  -14.5556   17.5672 C   0  0  0  0  0  0  0  0  0  0  0  0
    6.8811  -15.1644   18.7643 N   0  0  0  0  0  0  0  0  0  0  0  0
    8.6780  -14.4821   23.2800 C   0  0  0  0  0  0  0  0  0  0  0  0
    9.4797  -15.3856   23.6296 O   0  0  0  0  0  0  0  0  0  0  0  0
    7.8605  -13.9145   24.2945 N   0  0  0  0  0  0  0  0  0  0  0  0
    8.0141  -14.2677   25.7009 C   0  0  1  0  0  0  0  0  0  0  0  0
    7.2832  -13.2252   26.5302 C   0  0  0  0  0  0  0  0  0  0  0  0
    5.5015  -13.3523   26.1960 S   0  0  0  0  0  0  0  0  0  0  0  0
    7.4924  -15.6219   25.9550 C   0  0  0  0  0  0  0  0  0  0  0  0
    6.2545  -15.8115   25.9410 O   0  0  0  0  0  0  0  0  0  0  0  0
    6.4199  -20.8354   21.8009 N   0  0  0  0  0  0  0  0  0  0  0  0
    7.1304  -19.6811   21.3996 C   0  0  0  0  0  0  0  0  0  0  0  0
    6.8688  -19.1624   20.2581 N   0  0  0  0  0  0  0  0  0  0  0  0
    8.1174  -19.1245   22.2719 N   0  0  0  0  0  0  0  0  0  0  0  0
    8.2084  -19.6370   23.6244 C   0  0  0  0  0  0  0  0  0  0  0  0
    7.5924  -18.6674   24.6068 C   0  0  0  0  0  0  0  0  0  0  0  0
    7.7907  -19.0601   26.0251 C   0  0  0  0  0  0  0  0  0  0  0  0
    7.9885  -17.8875   26.9570 C   0  0  2  0  0  0  0  0  0  0  0  0
    8.3580  -16.7001   26.2119 N   0  0  0  0  0  0  0  0  0  0  0  0
    8.9594  -18.1136   28.0167 C   0  0  0  0  0  0  0  0  0  0  0  0
    8.7708  -18.9803   28.9068 O   0  0  0  0  0  0  0  0  0  0  0  0
   10.1265  -17.3706   28.0687 O   0  0  0  0  0  0  0  0  0  0  0  0
  2  1  1  6
  2  9  1  0
  3  2  1  0
  4  3  1  0
  4  5  2  0
  6  5  1  0
  7  6  1  0
  8  7  2  0
  8  4  1  0
  9 10  2  0
 11 12  1  0
 11  9  1  0
 12 15  1  0
 12 13  1  1
 14 13  1  0
 15 16  2  0
 18 17  1  0
 19 18  2  0
 20 18  1  0
 21 20  1  0
 22 21  1  0
 23 22  1  0
 24 23  1  6
 24 26  1  0
 25 15  1  0
 25 24  1  0
 26 27  2  0
 26 28  1  0
M  END
$$$$
