HCR.pdb
     RDKit          3D

 28 28  0  0  1  0  0  0  0  0999 V2000
    9.3410  -12.7242   20.2974 N   0  0  0  0  0  0  0  0  0  0  0  0
    8.3166  -13.4445   20.9955 C   0  0  1  0  0  0  0  0  0  0  0  0
    7.9976  -14.7772   20.3669 C   0  0  0  0  0  0  0  0  0  0  0  0
    7.4965  -14.6743   18.9982 C   0  0  0  0  0  0  0  0  0  0  0  0
    7.3238  -13.5134   18.2727 C   0  0  0  0  0  0  0  0  0  0  0  0
    6.8450  -13.8589   17.0609 N   0  0  0  0  0  0  0  0  0  0  0  0
    6.7099  -15.1828   16.9944 C   0  0  0  0  0  0  0  0  0  0  0  0
    7.1108  -15.6717   18.1835 N   0  0  0  0  0  0  0  0  0  0  0  0
    8.7971  -13.6297   22.4005 C   0  0  0  0  0  0  0  0  0  0  0  0
   10.0193  -13.8046   22.6392 O   0  0  0  0  0  0  0  0  0  0  0  0
    7.9155  -13.6179   23.5150 N   0  0  0  0  0  0  0  0  0  0  0  0
    8.3865  -13.8361   24.8777 C   0  0  1  0  0  0  0  0  0  0  0  0
    7.6017  -12.9178   25.7993 C   0  0  0  0  0  0  0  0  0  0  0  0
    5.8270  -13.1417   25.4796 S   0  0  0  0  0  0  0  0  0  0  0  0
    8.2271  -15.2498   25.2608 C   0  0  0  0  0  0  0  0  0  0  0  0
    7.1065  -15.7941   25.1324 O   0  0  0  0  0  0  0  0  0  0  0  0
   12.1370  -21.3080   22.1944 N   0  0  0  0  0  0  0  0  0  0  0  0
   11.8367  -20.1440   21.4506 C   0  0  0  0  0  0  0  0  0  0  0  0
   11.5918  -20.2590   20.1987 N   0  0  0  0  0  0  0  0  0  0  0  0
   11.8139  -18.8751   22.1096 N   0  0  0  0  0  0  0  0  0  0  0  0
   11.8078  -18.8520   23.5586 C   0  0  0  0  0  0  0  0  0  0  0  0
   10.5132  -18.2710   24.0792 C   0  0  0  0  0  0  0  0  0  0  0  0
   10.4905  -18.1117   25.5555 C   0  0  0  0  0  0  0  0  0  0  0  0
    9.2554  -17.4106   26.0708 C   0  0  2  0  0  0  0  0  0  0  0  0
    9.3078  -15.9944   25.7662 N   0  0  0  0  0  0  0  0  0  0  0  0
    9.0072  -17.5892   27.4932 C   0  0  0  0  0  0  0  0  0  0  0  0
    9.0968  -16.6312   28.3014 O   0  0  0  0  0  0  0  0  0  0  0  0
    8.6627  -18.8331   27.9941 O   0  0  0  0  0  0  0  0  0  0  0  0
  2  1  1  6
  2  9  1  0
  3  2  1  0
  4  3  1  0
  4  5  2  0
  6  5  1  0
  7  6  1  0
  8  7  2  0
  8  4  1  0
  9 10  2  0
 11 12  1  0
 11  9  1  0
 12 15  1  0
 12 13  1  1
 14 13  1  0
 15 16  2  0
 18 17  1  0
 19 18  2  0
 20 18  1  0
 21 20  1  0
 22 21  1  0
 23 22  1  0
 24 23  1  1
 24 26  1  0
 25 15  1  0
 25 24  1  0
 26 27  2  0
 26 28  1  0
M  END
$$$$
