HCR.pdb
     RDKit          3D

 28 28  0  0  1  0  0  0  0  0999 V2000
    6.1993  -16.3474   13.4417 N   0  0  0  0  0  0  0  0  0  0  0  0
    7.5427  -16.5937   13.0058 C   0  0  1  0  0  0  0  0  0  0  0  0
    7.9386  -15.7632   11.8114 C   0  0  0  0  0  0  0  0  0  0  0  0
    9.1448  -16.2412   11.1393 C   0  0  0  0  0  0  0  0  0  0  0  0
    9.8600  -17.3799   11.4489 C   0  0  0  0  0  0  0  0  0  0  0  0
   10.8967  -17.4544   10.5905 N   0  0  0  0  0  0  0  0  0  0  0  0
   10.8635  -16.4147    9.7579 C   0  0  0  0  0  0  0  0  0  0  0  0
    9.7889  -15.6794   10.1017 N   0  0  0  0  0  0  0  0  0  0  0  0
    8.4371  -16.2985   14.1686 C   0  0  0  0  0  0  0  0  0  0  0  0
    8.5509  -15.1244   14.6043 O   0  0  0  0  0  0  0  0  0  0  0  0
    9.1889  -17.3087   14.8273 N   0  0  0  0  0  0  0  0  0  0  0  0
   10.0050  -17.0252   16.0019 C   0  0  1  0  0  0  0  0  0  0  0  0
    9.1165  -16.3676   17.0444 C   0  0  0  0  0  0  0  0  0  0  0  0
    7.9304  -17.5965   17.6649 S   0  0  0  0  0  0  0  0  0  0  0  0
   10.6178  -18.2617   16.5179 C   0  0  0  0  0  0  0  0  0  0  0  0
    9.8815  -19.1513   17.0026 O   0  0  0  0  0  0  0  0  0  0  0  0
   17.7725  -19.3349   15.7268 N   0  0  0  0  0  0  0  0  0  0  0  0
   17.5959  -18.1847   14.9242 C   0  0  0  0  0  0  0  0  0  0  0  0
   18.1485  -18.1484   13.7693 N   0  0  0  0  0  0  0  0  0  0  0  0
   16.8101  -17.0968   15.4182 N   0  0  0  0  0  0  0  0  0  0  0  0
   16.1178  -17.2650   16.6801 C   0  0  0  0  0  0  0  0  0  0  0  0
   14.8109  -17.9977   16.4802 C   0  0  0  0  0  0  0  0  0  0  0  0
   14.0751  -18.2459   17.7459 C   0  0  0  0  0  0  0  0  0  0  0  0
   12.7912  -19.0201   17.5591 C   0  0  2  0  0  0  0  0  0  0  0  0
   12.0096  -18.4584   16.4751 N   0  0  0  0  0  0  0  0  0  0  0  0
   11.9632  -19.1158   18.7515 C   0  0  0  0  0  0  0  0  0  0  0  0
   11.2654  -18.1483   19.1466 O   0  0  0  0  0  0  0  0  0  0  0  0
   11.9249  -20.2887   19.4863 O   0  0  0  0  0  0  0  0  0  0  0  0
  2  1  1  1
  2  9  1  0
  3  2  1  0
  4  3  1  0
  4  5  2  0
  6  5  1  0
  7  6  1  0
  8  7  2  0
  8  4  1  0
  9 10  2  0
 11 12  1  0
 11  9  1  0
 12 15  1  0
 12 13  1  1
 14 13  1  0
 15 16  2  0
 18 17  1  0
 19 18  2  0
 20 18  1  0
 21 20  1  0
 22 21  1  0
 23 22  1  0
 24 23  1  1
 24 26  1  0
 25 15  1  0
 25 24  1  0
 26 27  2  0
 26 28  1  0
M  END
$$$$
