HCR.pdb
     RDKit          3D

 28 28  0  0  1  0  0  0  0  0999 V2000
   10.9390  -15.7099   21.5109 N   0  0  0  0  0  0  0  0  0  0  0  0
    9.8995  -15.1199   22.3026 C   0  0  1  0  0  0  0  0  0  0  0  0
    8.5315  -15.6692   21.9866 C   0  0  0  0  0  0  0  0  0  0  0  0
    7.9128  -15.0600   20.8113 C   0  0  0  0  0  0  0  0  0  0  0  0
    8.4979  -14.1501   19.9549 C   0  0  0  0  0  0  0  0  0  0  0  0
    7.5907  -13.8437   19.0060 N   0  0  0  0  0  0  0  0  0  0  0  0
    6.4645  -14.5200   19.2292 C   0  0  0  0  0  0  0  0  0  0  0  0
    6.6718  -15.2604   20.3348 N   0  0  0  0  0  0  0  0  0  0  0  0
   10.2479  -15.3745   23.7354 C   0  0  0  0  0  0  0  0  0  0  0  0
   10.9598  -16.3611   24.0536 O   0  0  0  0  0  0  0  0  0  0  0  0
    9.8017  -14.5320   24.7893 N   0  0  0  0  0  0  0  0  0  0  0  0
   10.2962  -14.6706   26.1541 C   0  0  1  0  0  0  0  0  0  0  0  0
    9.7539  -13.5099   26.9710 C   0  0  0  0  0  0  0  0  0  0  0  0
   10.3888  -13.6392   28.6687 S   0  0  0  0  0  0  0  0  0  0  0  0
    9.8897  -15.9674   26.7232 C   0  0  0  0  0  0  0  0  0  0  0  0
    8.6924  -16.3240   26.6350 O   0  0  0  0  0  0  0  0  0  0  0  0
    8.5882  -23.8170   25.8153 N   0  0  0  0  0  0  0  0  0  0  0  0
    8.9402  -23.5525   27.1586 C   0  0  0  0  0  0  0  0  0  0  0  0
    8.1698  -23.9728   28.0915 N   0  0  0  0  0  0  0  0  0  0  0  0
   10.1395  -22.8269   27.4412 N   0  0  0  0  0  0  0  0  0  0  0  0
   10.3251  -21.5332   26.8149 C   0  0  0  0  0  0  0  0  0  0  0  0
   10.9451  -20.5532   27.7844 C   0  0  0  0  0  0  0  0  0  0  0  0
   11.1776  -19.2097   27.1961 C   0  0  0  0  0  0  0  0  0  0  0  0
   10.4953  -18.0917   27.9493 C   0  0  2  0  0  0  0  0  0  0  0  0
   10.8201  -16.8073   27.3608 N   0  0  0  0  0  0  0  0  0  0  0  0
   10.7858  -18.0567   29.3744 C   0  0  0  0  0  0  0  0  0  0  0  0
   11.5124  -17.1621   29.8753 O   0  0  0  0  0  0  0  0  0  0  0  0
   10.2621  -19.0192   30.2207 O   0  0  0  0  0  0  0  0  0  0  0  0
  2  1  1  6
  2  9  1  0
  3  2  1  0
  4  3  1  0
  4  5  2  0
  6  5  1  0
  7  6  1  0
  8  7  2  0
  8  4  1  0
  9 10  2  0
 11 12  1  0
 11  9  1  0
 12 15  1  0
 12 13  1  1
 14 13  1  0
 15 16  2  0
 18 17  1  0
 19 18  2  0
 20 18  1  0
 21 20  1  0
 22 21  1  0
 23 22  1  0
 24 23  1  6
 24 26  1  0
 25 15  1  0
 25 24  1  0
 26 27  2  0
 26 28  1  0
M  END
$$$$
