HCR.pdb
     RDKit          3D

 28 28  0  0  1  0  0  0  0  0999 V2000
    8.6967  -12.3491   20.5760 N   0  0  0  0  0  0  0  0  0  0  0  0
    7.8347  -13.3275   21.1720 C   0  0  1  0  0  0  0  0  0  0  0  0
    7.9153  -14.6745   20.4997 C   0  0  0  0  0  0  0  0  0  0  0  0
    7.5306  -14.6498   19.0902 C   0  0  0  0  0  0  0  0  0  0  0  0
    7.1557  -13.5397   18.3614 C   0  0  0  0  0  0  0  0  0  0  0  0
    6.8840  -13.9503   17.1065 N   0  0  0  0  0  0  0  0  0  0  0  0
    7.0717  -15.2664   17.0162 C   0  0  0  0  0  0  0  0  0  0  0  0
    7.4667  -15.6842   18.2340 N   0  0  0  0  0  0  0  0  0  0  0  0
    8.2309  -13.4357   22.6109 C   0  0  0  0  0  0  0  0  0  0  0  0
    9.0984  -12.6640   23.0939 O   0  0  0  0  0  0  0  0  0  0  0  0
    7.6592  -14.3964   23.4882 N   0  0  0  0  0  0  0  0  0  0  0  0
    7.9910  -14.4437   24.9074 C   0  0  1  0  0  0  0  0  0  0  0  0
    7.5757  -13.1222   25.5318 C   0  0  0  0  0  0  0  0  0  0  0  0
    5.7632  -13.0730   25.6515 S   0  0  0  0  0  0  0  0  0  0  0  0
    7.3203  -15.5825   25.5587 C   0  0  0  0  0  0  0  0  0  0  0  0
    6.1533  -15.8807   25.2158 O   0  0  0  0  0  0  0  0  0  0  0  0
   14.4675  -19.6357   23.6905 N   0  0  0  0  0  0  0  0  0  0  0  0
   13.3076  -19.9001   22.9269 C   0  0  0  0  0  0  0  0  0  0  0  0
   13.4351  -20.1373   21.6747 N   0  0  0  0  0  0  0  0  0  0  0  0
   12.0287  -19.8961   23.5668 N   0  0  0  0  0  0  0  0  0  0  0  0
   11.3977  -18.6196   23.8363 C   0  0  0  0  0  0  0  0  0  0  0  0
   10.3540  -18.7568   24.9209 C   0  0  0  0  0  0  0  0  0  0  0  0
    9.6912  -17.4736   25.2664 C   0  0  0  0  0  0  0  0  0  0  0  0
    8.6198  -17.6098   26.3229 C   0  0  2  0  0  0  0  0  0  0  0  0
    7.9665  -16.3366   26.5544 N   0  0  0  0  0  0  0  0  0  0  0  0
    9.0854  -18.1507   27.5908 C   0  0  0  0  0  0  0  0  0  0  0  0
    9.4231  -17.4008   28.5408 O   0  0  0  0  0  0  0  0  0  0  0  0
    9.1676  -19.5195   27.7812 O   0  0  0  0  0  0  0  0  0  0  0  0
  2  1  1  6
  2  9  1  0
  3  2  1  0
  4  3  1  0
  4  5  2  0
  6  5  1  0
  7  6  1  0
  8  7  2  0
  8  4  1  0
  9 10  2  0
 11 12  1  0
 11  9  1  0
 12 15  1  0
 12 13  1  1
 14 13  1  0
 15 16  2  0
 18 17  1  0
 19 18  2  0
 20 18  1  0
 21 20  1  0
 22 21  1  0
 23 22  1  0
 24 23  1  6
 24 26  1  0
 25 15  1  0
 25 24  1  0
 26 27  2  0
 26 28  1  0
M  END
$$$$
