HCR.pdb
     RDKit          3D

 28 28  0  0  1  0  0  0  0  0999 V2000
    9.7522  -12.8438   19.4642 N   0  0  0  0  0  0  0  0  0  0  0  0
    8.7060  -13.6125   20.0725 C   0  0  1  0  0  0  0  0  0  0  0  0
    8.3604  -14.8586   19.2973 C   0  0  0  0  0  0  0  0  0  0  0  0
    8.0293  -14.6043   17.8970 C   0  0  0  0  0  0  0  0  0  0  0  0
    7.3962  -13.4864   17.3935 C   0  0  0  0  0  0  0  0  0  0  0  0
    7.2848  -13.6486   16.0599 N   0  0  0  0  0  0  0  0  0  0  0  0
    7.8191  -14.8166   15.7054 C   0  0  0  0  0  0  0  0  0  0  0  0
    8.2712  -15.3929   16.8354 N   0  0  0  0  0  0  0  0  0  0  0  0
    9.1717  -13.9652   21.4502 C   0  0  0  0  0  0  0  0  0  0  0  0
   10.3752  -14.2631   21.6604 O   0  0  0  0  0  0  0  0  0  0  0  0
    8.2962  -13.9814   22.5695 N   0  0  0  0  0  0  0  0  0  0  0  0
    8.7579  -14.3258   23.9091 C   0  0  1  0  0  0  0  0  0  0  0  0
    7.7807  -13.7329   24.9102 C   0  0  0  0  0  0  0  0  0  0  0  0
    6.1227  -14.3980   24.5774 S   0  0  0  0  0  0  0  0  0  0  0  0
    8.8650  -15.7874   24.0604 C   0  0  0  0  0  0  0  0  0  0  0  0
    8.2604  -16.5303   23.2536 O   0  0  0  0  0  0  0  0  0  0  0  0
   13.4381  -15.6400   20.0314 N   0  0  0  0  0  0  0  0  0  0  0  0
   14.2317  -15.3429   21.1629 C   0  0  0  0  0  0  0  0  0  0  0  0
   15.0642  -14.3720   21.0939 N   0  0  0  0  0  0  0  0  0  0  0  0
   14.0868  -16.1285   22.3490 N   0  0  0  0  0  0  0  0  0  0  0  0
   13.0074  -17.0937   22.4078 C   0  0  0  0  0  0  0  0  0  0  0  0
   12.1842  -16.9006   23.6606 C   0  0  0  0  0  0  0  0  0  0  0  0
   11.0363  -17.8373   23.7615 C   0  0  0  0  0  0  0  0  0  0  0  0
   10.2327  -17.6770   25.0308 C   0  0  2  0  0  0  0  0  0  0  0  0
    9.6317  -16.3592   25.0914 N   0  0  0  0  0  0  0  0  0  0  0  0
   10.9792  -17.9235   26.2550 C   0  0  0  0  0  0  0  0  0  0  0  0
   11.4813  -19.0484   26.5034 O   0  0  0  0  0  0  0  0  0  0  0  0
   11.1553  -16.9127   27.1845 O   0  0  0  0  0  0  0  0  0  0  0  0
  2  1  1  6
  2  9  1  0
  3  2  1  0
  4  3  1  0
  4  5  2  0
  6  5  1  0
  7  6  1  0
  8  7  2  0
  8  4  1  0
  9 10  2  0
 11 12  1  0
 11  9  1  0
 12 15  1  0
 12 13  1  1
 14 13  1  0
 15 16  2  0
 18 17  1  0
 19 18  2  0
 20 18  1  0
 21 20  1  0
 22 21  1  0
 23 22  1  0
 24 23  1  6
 24 26  1  0
 25 15  1  0
 25 24  1  0
 26 27  2  0
 26 28  1  0
M  END
$$$$
