HCR.pdb
     RDKit          3D

 28 28  0  0  1  0  0  0  0  0999 V2000
    7.0339  -15.9887   21.0395 N   0  0  0  0  0  0  0  0  0  0  0  0
    8.4547  -15.8416   21.1623 C   0  0  1  0  0  0  0  0  0  0  0  0
    9.0927  -15.2230   19.9444 C   0  0  0  0  0  0  0  0  0  0  0  0
    8.2106  -14.3099   19.2209 C   0  0  0  0  0  0  0  0  0  0  0  0
    8.0542  -12.9597   19.4585 C   0  0  0  0  0  0  0  0  0  0  0  0
    7.1519  -12.4931   18.5724 N   0  0  0  0  0  0  0  0  0  0  0  0
    6.7362  -13.4891   17.7910 C   0  0  0  0  0  0  0  0  0  0  0  0
    7.3893  -14.5951   18.1956 N   0  0  0  0  0  0  0  0  0  0  0  0
    8.7002  -14.9930   22.3701 C   0  0  0  0  0  0  0  0  0  0  0  0
    9.8650  -14.6196   22.6619 O   0  0  0  0  0  0  0  0  0  0  0  0
    7.6513  -14.5735   23.2324 N   0  0  0  0  0  0  0  0  0  0  0  0
    7.8914  -14.2088   24.6237 C   0  0  1  0  0  0  0  0  0  0  0  0
    6.6966  -13.4077   25.1129 C   0  0  0  0  0  0  0  0  0  0  0  0
    6.9213  -13.0359   26.8774 S   0  0  0  0  0  0  0  0  0  0  0  0
    8.1067  -15.4127   25.4452 C   0  0  0  0  0  0  0  0  0  0  0  0
    7.1672  -16.2279   25.5910 O   0  0  0  0  0  0  0  0  0  0  0  0
   14.3215  -19.8990   27.0001 N   0  0  0  0  0  0  0  0  0  0  0  0
   13.5915  -21.0889   26.7777 C   0  0  0  0  0  0  0  0  0  0  0  0
   14.0468  -22.1887   27.2506 N   0  0  0  0  0  0  0  0  0  0  0  0
   12.3706  -21.0361   26.0350 N   0  0  0  0  0  0  0  0  0  0  0  0
   11.9907  -19.7784   25.4235 C   0  0  0  0  0  0  0  0  0  0  0  0
   11.1484  -18.9554   26.3711 C   0  0  0  0  0  0  0  0  0  0  0  0
   10.5987  -17.7228   25.7516 C   0  0  0  0  0  0  0  0  0  0  0  0
    9.7159  -16.9202   26.6785 C   0  0  2  0  0  0  0  0  0  0  0  0
    9.3444  -15.6602   26.0655 N   0  0  0  0  0  0  0  0  0  0  0  0
   10.2888  -16.6674   27.9917 C   0  0  0  0  0  0  0  0  0  0  0  0
   10.5810  -15.5048   28.3686 O   0  0  0  0  0  0  0  0  0  0  0  0
   10.5276  -17.7141   28.8659 O   0  0  0  0  0  0  0  0  0  0  0  0
  2  1  1  6
  2  9  1  0
  3  2  1  0
  4  3  1  0
  4  5  2  0
  6  5  1  0
  7  6  1  0
  8  7  2  0
  8  4  1  0
  9 10  2  0
 11 12  1  0
 11  9  1  0
 12 15  1  0
 12 13  1  1
 14 13  1  0
 15 16  2  0
 18 17  1  0
 19 18  2  0
 20 18  1  0
 21 20  1  0
 22 21  1  0
 23 22  1  0
 24 23  1  6
 24 26  1  0
 25 15  1  0
 25 24  1  0
 26 27  2  0
 26 28  1  0
M  END
$$$$
