HCR.pdb
     RDKit          3D

 28 28  0  0  1  0  0  0  0  0999 V2000
   10.2548  -13.3054   19.9245 N   0  0  0  0  0  0  0  0  0  0  0  0
    8.9195  -13.5797   20.3684 C   0  0  1  0  0  0  0  0  0  0  0  0
    8.3066  -14.7802   19.6929 C   0  0  0  0  0  0  0  0  0  0  0  0
    8.0140  -14.5696   18.2769 C   0  0  0  0  0  0  0  0  0  0  0  0
    8.2692  -13.4266   17.5474 C   0  0  0  0  0  0  0  0  0  0  0  0
    7.8497  -13.6477   16.2856 N   0  0  0  0  0  0  0  0  0  0  0  0
    7.3435  -14.8766   16.1915 C   0  0  0  0  0  0  0  0  0  0  0  0
    7.4486  -15.4317   17.4140 N   0  0  0  0  0  0  0  0  0  0  0  0
    8.9890  -13.7903   21.8483 C   0  0  0  0  0  0  0  0  0  0  0  0
   10.0312  -14.2524   22.3790 O   0  0  0  0  0  0  0  0  0  0  0  0
    7.9033  -13.4851   22.7131 N   0  0  0  0  0  0  0  0  0  0  0  0
    7.9790  -13.6930   24.1544 C   0  0  1  0  0  0  0  0  0  0  0  0
    6.7166  -13.1228   24.7788 C   0  0  0  0  0  0  0  0  0  0  0  0
    6.7840  -13.3771   26.5768 S   0  0  0  0  0  0  0  0  0  0  0  0
    8.1346  -15.1250   24.4639 C   0  0  0  0  0  0  0  0  0  0  0  0
    7.3038  -15.9422   24.0053 O   0  0  0  0  0  0  0  0  0  0  0  0
   14.5169  -20.0814   26.5480 N   0  0  0  0  0  0  0  0  0  0  0  0
   13.8697  -21.0442   25.7402 C   0  0  0  0  0  0  0  0  0  0  0  0
   14.4221  -22.1893   25.5843 N   0  0  0  0  0  0  0  0  0  0  0  0
   12.6226  -20.7185   25.1210 N   0  0  0  0  0  0  0  0  0  0  0  0
   12.3712  -19.3365   24.7646 C   0  0  0  0  0  0  0  0  0  0  0  0
   11.0977  -18.8403   25.4101 C   0  0  0  0  0  0  0  0  0  0  0  0
   10.7475  -17.4485   25.0287 C   0  0  0  0  0  0  0  0  0  0  0  0
    9.4266  -16.9795   25.5928 C   0  0  2  0  0  0  0  0  0  0  0  0
    9.1962  -15.5870   25.2623 N   0  0  0  0  0  0  0  0  0  0  0  0
    9.2816  -17.1650   27.0285 C   0  0  0  0  0  0  0  0  0  0  0  0
    9.4541  -16.2165   27.8344 O   0  0  0  0  0  0  0  0  0  0  0  0
    8.9463  -18.4050   27.5450 O   0  0  0  0  0  0  0  0  0  0  0  0
  2  1  1  6
  2  9  1  0
  3  2  1  0
  4  3  1  0
  4  5  2  0
  6  5  1  0
  7  6  1  0
  8  7  2  0
  8  4  1  0
  9 10  2  0
 11 12  1  0
 11  9  1  0
 12 15  1  0
 12 13  1  1
 14 13  1  0
 15 16  2  0
 18 17  1  0
 19 18  2  0
 20 18  1  0
 21 20  1  0
 22 21  1  0
 23 22  1  0
 24 23  1  1
 24 26  1  0
 25 15  1  0
 25 24  1  0
 26 27  2  0
 26 28  1  0
M  END
$$$$
