HCR.pdb
     RDKit          3D

 28 28  0  0  1  0  0  0  0  0999 V2000
    8.6778  -12.3504   20.3407 N   0  0  0  0  0  0  0  0  0  0  0  0
    7.8221  -13.3523   20.9059 C   0  0  1  0  0  0  0  0  0  0  0  0
    7.8919  -14.6697   20.1762 C   0  0  0  0  0  0  0  0  0  0  0  0
    7.6281  -14.5604   18.7432 C   0  0  0  0  0  0  0  0  0  0  0  0
    7.6274  -13.4009   17.9952 C   0  0  0  0  0  0  0  0  0  0  0  0
    7.3403  -13.7388   16.7221 N   0  0  0  0  0  0  0  0  0  0  0  0
    7.1613  -15.0566   16.6389 C   0  0  0  0  0  0  0  0  0  0  0  0
    7.3393  -15.5492   17.8795 N   0  0  0  0  0  0  0  0  0  0  0  0
    8.2368  -13.5217   22.3336 C   0  0  0  0  0  0  0  0  0  0  0  0
    9.4379  -13.7520   22.6264 O   0  0  0  0  0  0  0  0  0  0  0  0
    7.3139  -13.4331   23.4107 N   0  0  0  0  0  0  0  0  0  0  0  0
    7.7225  -13.6186   24.7981 C   0  0  1  0  0  0  0  0  0  0  0  0
    6.7044  -12.9223   25.6854 C   0  0  0  0  0  0  0  0  0  0  0  0
    5.0744  -13.6786   25.4145 S   0  0  0  0  0  0  0  0  0  0  0  0
    7.8276  -15.0525   25.1200 C   0  0  0  0  0  0  0  0  0  0  0  0
    7.0019  -15.8517   24.6221 O   0  0  0  0  0  0  0  0  0  0  0  0
   12.5683  -21.5811   24.8735 N   0  0  0  0  0  0  0  0  0  0  0  0
   13.1232  -20.7625   23.8634 C   0  0  0  0  0  0  0  0  0  0  0  0
   14.0471  -21.2440   23.1184 N   0  0  0  0  0  0  0  0  0  0  0  0
   12.6428  -19.4256   23.6992 N   0  0  0  0  0  0  0  0  0  0  0  0
   11.2139  -19.1942   23.7692 C   0  0  0  0  0  0  0  0  0  0  0  0
   10.8298  -18.6195   25.1134 C   0  0  0  0  0  0  0  0  0  0  0  0
   10.3076  -17.2317   25.0333 C   0  0  0  0  0  0  0  0  0  0  0  0
    9.2403  -16.9254   26.0578 C   0  0  2  0  0  0  0  0  0  0  0  0
    8.8354  -15.5360   25.9734 N   0  0  0  0  0  0  0  0  0  0  0  0
    9.6110  -17.2374   27.4297 C   0  0  0  0  0  0  0  0  0  0  0  0
    9.7874  -16.3334   28.2846 O   0  0  0  0  0  0  0  0  0  0  0  0
    9.7796  -18.5523   27.8287 O   0  0  0  0  0  0  0  0  0  0  0  0
  2  1  1  6
  2  9  1  0
  3  2  1  0
  4  3  1  0
  4  5  2  0
  6  5  1  0
  7  6  1  0
  8  7  2  0
  8  4  1  0
  9 10  2  0
 11 12  1  0
 11  9  1  0
 12 15  1  0
 12 13  1  1
 14 13  1  0
 15 16  2  0
 18 17  1  0
 19 18  2  0
 20 18  1  0
 21 20  1  0
 22 21  1  0
 23 22  1  0
 24 23  1  6
 24 26  1  0
 25 15  1  0
 25 24  1  0
 26 27  2  0
 26 28  1  0
M  END
$$$$
