HCR.pdb
     RDKit          3D

 28 28  0  0  1  0  0  0  0  0999 V2000
    9.1562  -13.1440   20.3703 N   0  0  0  0  0  0  0  0  0  0  0  0
    8.2135  -14.0071   21.0199 C   0  0  1  0  0  0  0  0  0  0  0  0
    8.2889  -15.4339   20.5387 C   0  0  0  0  0  0  0  0  0  0  0  0
    7.9260  -15.5979   19.1328 C   0  0  0  0  0  0  0  0  0  0  0  0
    8.7426  -15.3747   18.0432 C   0  0  0  0  0  0  0  0  0  0  0  0
    8.0238  -15.6436   16.9349 N   0  0  0  0  0  0  0  0  0  0  0  0
    6.7948  -16.0249   17.2806 C   0  0  0  0  0  0  0  0  0  0  0  0
    6.7454  -15.9936   18.6260 N   0  0  0  0  0  0  0  0  0  0  0  0
    8.4976  -13.9336   22.4872 C   0  0  0  0  0  0  0  0  0  0  0  0
    9.6358  -14.2294   22.9326 O   0  0  0  0  0  0  0  0  0  0  0  0
    7.5161  -13.5338   23.4341 N   0  0  0  0  0  0  0  0  0  0  0  0
    7.7681  -13.5629   24.8701 C   0  0  1  0  0  0  0  0  0  0  0  0
    6.7767  -12.6268   25.5406 C   0  0  0  0  0  0  0  0  0  0  0  0
    7.0458  -12.6751   27.3371 S   0  0  0  0  0  0  0  0  0  0  0  0
    7.6491  -14.9366   25.3893 C   0  0  0  0  0  0  0  0  0  0  0  0
    6.9107  -15.7528   24.7919 O   0  0  0  0  0  0  0  0  0  0  0  0
   13.3942  -19.1726   22.7951 N   0  0  0  0  0  0  0  0  0  0  0  0
   13.5398  -19.4679   24.1698 C   0  0  0  0  0  0  0  0  0  0  0  0
   14.5489  -20.1603   24.5478 N   0  0  0  0  0  0  0  0  0  0  0  0
   12.5634  -18.9897   25.0987 N   0  0  0  0  0  0  0  0  0  0  0  0
   11.1787  -18.9352   24.6749 C   0  0  0  0  0  0  0  0  0  0  0  0
   10.2869  -18.4980   25.8143 C   0  0  0  0  0  0  0  0  0  0  0  0
    9.7551  -17.1211   25.6512 C   0  0  0  0  0  0  0  0  0  0  0  0
    8.8339  -16.6906   26.7686 C   0  0  2  0  0  0  0  0  0  0  0  0
    8.3481  -15.3442   26.5395 N   0  0  0  0  0  0  0  0  0  0  0  0
    9.4165  -16.7734   28.0991 C   0  0  0  0  0  0  0  0  0  0  0  0
    9.8172  -15.7487   28.7061 O   0  0  0  0  0  0  0  0  0  0  0  0
    9.5441  -17.9972   28.7338 O   0  0  0  0  0  0  0  0  0  0  0  0
  2  1  1  6
  2  9  1  0
  3  2  1  0
  4  3  1  0
  4  5  2  0
  6  5  1  0
  7  6  1  0
  8  7  2  0
  8  4  1  0
  9 10  2  0
 11 12  1  0
 11  9  1  0
 12 15  1  0
 12 13  1  1
 14 13  1  0
 15 16  2  0
 18 17  1  0
 19 18  2  0
 20 18  1  0
 21 20  1  0
 22 21  1  0
 23 22  1  0
 24 23  1  6
 24 26  1  0
 25 15  1  0
 25 24  1  0
 26 27  2  0
 26 28  1  0
M  END
$$$$
