HCR.pdb
     RDKit          3D

 28 28  0  0  1  0  0  0  0  0999 V2000
    9.6380  -12.8281   21.1010 N   0  0  0  0  0  0  0  0  0  0  0  0
    8.4359  -13.4999   21.5001 C   0  0  1  0  0  0  0  0  0  0  0  0
    8.1168  -14.6994   20.6442 C   0  0  0  0  0  0  0  0  0  0  0  0
    7.9269  -14.3773   19.2317 C   0  0  0  0  0  0  0  0  0  0  0  0
    7.2658  -13.2785   18.7223 C   0  0  0  0  0  0  0  0  0  0  0  0
    7.3201  -13.3589   17.3778 N   0  0  0  0  0  0  0  0  0  0  0  0
    7.9848  -14.4575   17.0220 C   0  0  0  0  0  0  0  0  0  0  0  0
    8.3514  -15.0728   18.1624 N   0  0  0  0  0  0  0  0  0  0  0  0
    8.6211  -13.9093   22.9274 C   0  0  0  0  0  0  0  0  0  0  0  0
    9.6915  -14.4529   23.3017 O   0  0  0  0  0  0  0  0  0  0  0  0
    7.6178  -13.7090   23.9137 N   0  0  0  0  0  0  0  0  0  0  0  0
    7.8234  -14.0684   25.3119 C   0  0  1  0  0  0  0  0  0  0  0  0
    6.6079  -13.6089   26.0993 C   0  0  0  0  0  0  0  0  0  0  0  0
    6.5094  -11.7960   26.0227 S   0  0  0  0  0  0  0  0  0  0  0  0
    8.0371  -15.5198   25.4477 C   0  0  0  0  0  0  0  0  0  0  0  0
    7.1676  -16.3081   25.0107 O   0  0  0  0  0  0  0  0  0  0  0  0
   14.0726  -16.2251   22.2816 N   0  0  0  0  0  0  0  0  0  0  0  0
   13.0431  -16.7395   21.4607 C   0  0  0  0  0  0  0  0  0  0  0  0
   13.0468  -16.4493   20.2132 N   0  0  0  0  0  0  0  0  0  0  0  0
   12.0295  -17.5658   22.0392 N   0  0  0  0  0  0  0  0  0  0  0  0
   12.0901  -17.8356   23.4618 C   0  0  0  0  0  0  0  0  0  0  0  0
   10.7533  -17.5688   24.1146 C   0  0  0  0  0  0  0  0  0  0  0  0
   10.7438  -17.8478   25.5732 C   0  0  0  0  0  0  0  0  0  0  0  0
    9.4602  -17.4429   26.2596 C   0  0  2  0  0  0  0  0  0  0  0  0
    9.1963  -16.0320   26.0574 N   0  0  0  0  0  0  0  0  0  0  0  0
    9.4140  -17.7433   27.6824 C   0  0  0  0  0  0  0  0  0  0  0  0
    9.3393  -18.9253   28.1025 O   0  0  0  0  0  0  0  0  0  0  0  0
    9.4518  -16.7219   28.6163 O   0  0  0  0  0  0  0  0  0  0  0  0
  2  1  1  6
  2  9  1  0
  3  2  1  0
  4  3  1  0
  4  5  2  0
  6  5  1  0
  7  6  1  0
  8  7  2  0
  8  4  1  0
  9 10  2  0
 11 12  1  0
 11  9  1  0
 12 15  1  0
 12 13  1  1
 14 13  1  0
 15 16  2  0
 18 17  1  0
 19 18  2  0
 20 18  1  0
 21 20  1  0
 22 21  1  0
 23 22  1  0
 24 23  1  1
 24 26  1  0
 25 15  1  0
 25 24  1  0
 26 27  2  0
 26 28  1  0
M  END
$$$$
