HCR.pdb
     RDKit          3D

 28 28  0  0  1  0  0  0  0  0999 V2000
    7.9747  -14.2559   20.5145 N   0  0  0  0  0  0  0  0  0  0  0  0
    7.5535  -15.1044   21.5906 C   0  0  1  0  0  0  0  0  0  0  0  0
    7.8527  -16.5618   21.3464 C   0  0  0  0  0  0  0  0  0  0  0  0
    6.6578  -17.3822   21.1617 C   0  0  0  0  0  0  0  0  0  0  0  0
    5.7399  -17.7253   22.1331 C   0  0  0  0  0  0  0  0  0  0  0  0
    4.7938  -18.4864   21.5475 N   0  0  0  0  0  0  0  0  0  0  0  0
    5.0773  -18.6356   20.2541 C   0  0  0  0  0  0  0  0  0  0  0  0
    6.2184  -17.9569   20.0286 N   0  0  0  0  0  0  0  0  0  0  0  0
    8.2558  -14.6247   22.8217 C   0  0  0  0  0  0  0  0  0  0  0  0
    9.5014  -14.4517   22.8196 O   0  0  0  0  0  0  0  0  0  0  0  0
    7.5659  -14.3453   24.0324 N   0  0  0  0  0  0  0  0  0  0  0  0
    8.2673  -14.1423   25.2946 C   0  0  1  0  0  0  0  0  0  0  0  0
    7.4310  -13.2079   26.1525 C   0  0  0  0  0  0  0  0  0  0  0  0
    5.7820  -13.9369   26.3792 S   0  0  0  0  0  0  0  0  0  0  0  0
    8.5014  -15.4305   25.9702 C   0  0  0  0  0  0  0  0  0  0  0  0
    7.5629  -16.2556   26.0527 O   0  0  0  0  0  0  0  0  0  0  0  0
   14.1418  -15.4972   23.5284 N   0  0  0  0  0  0  0  0  0  0  0  0
   13.4632  -16.4002   22.6785 C   0  0  0  0  0  0  0  0  0  0  0  0
   13.2493  -16.0593   21.4625 N   0  0  0  0  0  0  0  0  0  0  0  0
   13.0348  -17.6635   23.1936 N   0  0  0  0  0  0  0  0  0  0  0  0
   12.9398  -17.8246   24.6306 C   0  0  0  0  0  0  0  0  0  0  0  0
   11.5817  -17.3871   25.1297 C   0  0  0  0  0  0  0  0  0  0  0  0
   11.4244  -17.5180   26.6005 C   0  0  0  0  0  0  0  0  0  0  0  0
   10.0908  -17.0271   27.1136 C   0  0  2  0  0  0  0  0  0  0  0  0
    9.7559  -15.7471   26.5215 N   0  0  0  0  0  0  0  0  0  0  0  0
    9.9993  -16.9272   28.5622 C   0  0  0  0  0  0  0  0  0  0  0  0
    9.8372  -15.8210   29.1358 O   0  0  0  0  0  0  0  0  0  0  0  0
   10.0899  -18.0618   29.3504 O   0  0  0  0  0  0  0  0  0  0  0  0
  2  1  1  6
  2  9  1  0
  3  2  1  0
  4  3  1  0
  4  5  2  0
  6  5  1  0
  7  6  1  0
  8  7  2  0
  8  4  1  0
  9 10  2  0
 11 12  1  0
 11  9  1  0
 12 15  1  0
 12 13  1  1
 14 13  1  0
 15 16  2  0
 18 17  1  0
 19 18  2  0
 20 18  1  0
 21 20  1  0
 22 21  1  0
 23 22  1  0
 24 23  1  1
 24 26  1  0
 25 15  1  0
 25 24  1  0
 26 27  2  0
 26 28  1  0
M  END
$$$$
