HCR.pdb
     RDKit          3D

 28 28  0  0  1  0  0  0  0  0999 V2000
    9.9342  -13.3526   20.6652 N   0  0  0  0  0  0  0  0  0  0  0  0
    8.6047  -13.6719   21.0962 C   0  0  1  0  0  0  0  0  0  0  0  0
    8.0631  -14.9279   20.4621 C   0  0  0  0  0  0  0  0  0  0  0  0
    7.8646  -14.8168   19.0187 C   0  0  0  0  0  0  0  0  0  0  0  0
    8.2416  -13.7583   18.2178 C   0  0  0  0  0  0  0  0  0  0  0  0
    7.8769  -14.0549   16.9543 N   0  0  0  0  0  0  0  0  0  0  0  0
    7.2890  -15.2503   16.9275 C   0  0  0  0  0  0  0  0  0  0  0  0
    7.2865  -15.7074   18.1942 N   0  0  0  0  0  0  0  0  0  0  0  0
    8.6542  -13.8162   22.5848 C   0  0  0  0  0  0  0  0  0  0  0  0
    9.6507  -14.3429   23.1423 O   0  0  0  0  0  0  0  0  0  0  0  0
    7.5993  -13.3744   23.4285 N   0  0  0  0  0  0  0  0  0  0  0  0
    7.6633  -13.5013   24.8798 C   0  0  1  0  0  0  0  0  0  0  0  0
    6.4928  -12.7339   25.4711 C   0  0  0  0  0  0  0  0  0  0  0  0
    6.3155  -13.1899   27.2212 S   0  0  0  0  0  0  0  0  0  0  0  0
    7.6349  -14.9196   25.2776 C   0  0  0  0  0  0  0  0  0  0  0  0
    6.8556  -15.7031   24.6883 O   0  0  0  0  0  0  0  0  0  0  0  0
   10.7294  -17.8162   20.6030 N   0  0  0  0  0  0  0  0  0  0  0  0
   11.0161  -19.0146   21.2958 C   0  0  0  0  0  0  0  0  0  0  0  0
   10.7283  -20.1319   20.7395 N   0  0  0  0  0  0  0  0  0  0  0  0
   11.6164  -18.9507   22.5921 N   0  0  0  0  0  0  0  0  0  0  0  0
   11.5143  -17.7122   23.3378 C   0  0  0  0  0  0  0  0  0  0  0  0
   10.4330  -17.8083   24.3896 C   0  0  0  0  0  0  0  0  0  0  0  0
   10.2960  -16.5767   25.2079 C   0  0  0  0  0  0  0  0  0  0  0  0
    9.1974  -16.6549   26.2420 C   0  0  2  0  0  0  0  0  0  0  0  0
    8.4647  -15.4056   26.3037 N   0  0  0  0  0  0  0  0  0  0  0  0
    9.6477  -17.0166   27.5773 C   0  0  0  0  0  0  0  0  0  0  0  0
    9.3759  -18.1347   28.0822 O   0  0  0  0  0  0  0  0  0  0  0  0
   10.3946  -16.1267   28.3304 O   0  0  0  0  0  0  0  0  0  0  0  0
  2  1  1  6
  2  9  1  0
  3  2  1  0
  4  3  1  0
  4  5  2  0
  6  5  1  0
  7  6  1  0
  8  7  2  0
  8  4  1  0
  9 10  2  0
 11 12  1  0
 11  9  1  0
 12 15  1  0
 12 13  1  1
 14 13  1  0
 15 16  2  0
 18 17  1  0
 19 18  2  0
 20 18  1  0
 21 20  1  0
 22 21  1  0
 23 22  1  0
 24 23  1  6
 24 26  1  0
 25 15  1  0
 25 24  1  0
 26 27  2  0
 26 28  1  0
M  END
$$$$
