HCR.pdb
     RDKit          3D

 28 28  0  0  1  0  0  0  0  0999 V2000
    6.6545  -13.3057   20.0082 N   0  0  0  0  0  0  0  0  0  0  0  0
    7.7848  -14.1653   20.2053 C   0  0  1  0  0  0  0  0  0  0  0  0
    8.8893  -13.9282   19.2068 C   0  0  0  0  0  0  0  0  0  0  0  0
    8.5271  -14.2853   17.8369 C   0  0  0  0  0  0  0  0  0  0  0  0
    8.2233  -15.5482   17.3712 C   0  0  0  0  0  0  0  0  0  0  0  0
    7.9456  -15.4405   16.0565 N   0  0  0  0  0  0  0  0  0  0  0  0
    8.0615  -14.1683   15.6778 C   0  0  0  0  0  0  0  0  0  0  0  0
    8.4172  -13.4705   16.7733 N   0  0  0  0  0  0  0  0  0  0  0  0
    8.2767  -13.9227   21.5976 C   0  0  0  0  0  0  0  0  0  0  0  0
    8.6972  -12.7873   21.9372 O   0  0  0  0  0  0  0  0  0  0  0  0
    8.2936  -14.9418   22.5879 N   0  0  0  0  0  0  0  0  0  0  0  0
    8.5547  -14.6523   23.9930 C   0  0  1  0  0  0  0  0  0  0  0  0
    7.4492  -13.7408   24.4987 C   0  0  0  0  0  0  0  0  0  0  0  0
    7.5962  -13.5845   26.3032 S   0  0  0  0  0  0  0  0  0  0  0  0
    8.6257  -15.8993   24.7745 C   0  0  0  0  0  0  0  0  0  0  0  0
    7.5751  -16.5472   24.9864 O   0  0  0  0  0  0  0  0  0  0  0  0
   13.0277  -20.4484   20.9077 N   0  0  0  0  0  0  0  0  0  0  0  0
   13.2955  -19.3451   21.7500 C   0  0  0  0  0  0  0  0  0  0  0  0
   13.7390  -18.2635   21.2263 N   0  0  0  0  0  0  0  0  0  0  0  0
   13.0665  -19.4626   23.1566 N   0  0  0  0  0  0  0  0  0  0  0  0
   13.2725  -18.2933   23.9876 C   0  0  0  0  0  0  0  0  0  0  0  0
   11.9506  -17.6651   24.3648 C   0  0  0  0  0  0  0  0  0  0  0  0
   11.3144  -18.2969   25.5486 C   0  0  0  0  0  0  0  0  0  0  0  0
   10.0173  -17.6418   25.9619 C   0  0  2  0  0  0  0  0  0  0  0  0
    9.8484  -16.3716   25.2840 N   0  0  0  0  0  0  0  0  0  0  0  0
    9.8677  -17.4469   27.3959 C   0  0  0  0  0  0  0  0  0  0  0  0
    9.7969  -16.2977   27.8992 O   0  0  0  0  0  0  0  0  0  0  0  0
    9.7992  -18.5359   28.2481 O   0  0  0  0  0  0  0  0  0  0  0  0
  2  1  1  6
  2  9  1  0
  3  2  1  0
  4  3  1  0
  4  5  2  0
  6  5  1  0
  7  6  1  0
  8  7  2  0
  8  4  1  0
  9 10  2  0
 11 12  1  0
 11  9  1  0
 12 15  1  0
 12 13  1  1
 14 13  1  0
 15 16  2  0
 18 17  1  0
 19 18  2  0
 20 18  1  0
 21 20  1  0
 22 21  1  0
 23 22  1  0
 24 23  1  1
 24 26  1  0
 25 15  1  0
 25 24  1  0
 26 27  2  0
 26 28  1  0
M  END
$$$$
