HCR.pdb
     RDKit          3D

 28 28  0  0  1  0  0  0  0  0999 V2000
   10.0856  -14.3359   21.5575 N   0  0  0  0  0  0  0  0  0  0  0  0
    8.7870  -14.1254   22.1274 C   0  0  1  0  0  0  0  0  0  0  0  0
    7.6955  -14.8727   21.4041 C   0  0  0  0  0  0  0  0  0  0  0  0
    7.3809  -14.3211   20.0880 C   0  0  0  0  0  0  0  0  0  0  0  0
    7.9810  -13.2320   19.4900 C   0  0  0  0  0  0  0  0  0  0  0  0
    7.4011  -13.0591   18.2855 N   0  0  0  0  0  0  0  0  0  0  0  0
    6.4656  -13.9899   18.1019 C   0  0  0  0  0  0  0  0  0  0  0  0
    6.4612  -14.7562   19.2093 N   0  0  0  0  0  0  0  0  0  0  0  0
    8.8640  -14.5641   23.5560 C   0  0  0  0  0  0  0  0  0  0  0  0
    9.7898  -15.3226   23.9418 O   0  0  0  0  0  0  0  0  0  0  0  0
    7.9144  -14.1547   24.5309 N   0  0  0  0  0  0  0  0  0  0  0  0
    8.0339  -14.5311   25.9346 C   0  0  1  0  0  0  0  0  0  0  0  0
    6.9022  -13.8645   26.6983 C   0  0  0  0  0  0  0  0  0  0  0  0
    7.2196  -12.0770   26.7772 S   0  0  0  0  0  0  0  0  0  0  0  0
    7.9954  -15.9965   26.0831 C   0  0  0  0  0  0  0  0  0  0  0  0
    6.8936  -16.5879   26.0152 O   0  0  0  0  0  0  0  0  0  0  0  0
   11.6645  -20.4911   21.9669 N   0  0  0  0  0  0  0  0  0  0  0  0
   10.7233  -19.5151   21.5671 C   0  0  0  0  0  0  0  0  0  0  0  0
    9.9873  -19.7509   20.5456 N   0  0  0  0  0  0  0  0  0  0  0  0
   10.6165  -18.2965   22.3076 N   0  0  0  0  0  0  0  0  0  0  0  0
   10.9703  -18.3117   23.7129 C   0  0  0  0  0  0  0  0  0  0  0  0
    9.8662  -18.9346   24.5361 C   0  0  0  0  0  0  0  0  0  0  0  0
   10.1521  -18.9450   25.9933 C   0  0  0  0  0  0  0  0  0  0  0  0
    9.2002  -18.0968   26.8040 C   0  0  2  0  0  0  0  0  0  0  0  0
    9.1705  -16.7384   26.2990 N   0  0  0  0  0  0  0  0  0  0  0  0
    9.4760  -18.0745   28.2324 C   0  0  0  0  0  0  0  0  0  0  0  0
    9.4394  -19.1223   28.9252 O   0  0  0  0  0  0  0  0  0  0  0  0
    9.7887  -16.8848   28.8677 O   0  0  0  0  0  0  0  0  0  0  0  0
  2  1  1  6
  2  9  1  0
  3  2  1  0
  4  3  1  0
  4  5  2  0
  6  5  1  0
  7  6  1  0
  8  7  2  0
  8  4  1  0
  9 10  2  0
 11 12  1  0
 11  9  1  0
 12 15  1  0
 12 13  1  1
 14 13  1  0
 15 16  2  0
 18 17  1  0
 19 18  2  0
 20 18  1  0
 21 20  1  0
 22 21  1  0
 23 22  1  0
 24 23  1  6
 24 26  1  0
 25 15  1  0
 25 24  1  0
 26 27  2  0
 26 28  1  0
M  END
$$$$
