RFT.pdb
     RDKit          3D

 30 30  0  0  1  0  0  0  0  0999 V2000
    6.9871  -13.8045   16.2223 N   0  0  0  0  0  0  0  0  0  0  0  0
    8.3765  -13.9752   15.9603 C   0  0  0  0  0  0  0  0  0  0  0  0
    8.7685  -14.1523   14.7658 N   0  0  0  0  0  0  0  0  0  0  0  0
    9.2399  -13.9310   17.0861 N   0  0  0  0  0  0  0  0  0  0  0  0
    8.6727  -13.8951   18.4171 C   0  0  0  0  0  0  0  0  0  0  0  0
    9.7494  -13.7600   19.4512 C   0  0  0  0  0  0  0  0  0  0  0  0
    9.2645  -13.7771   20.8652 C   0  0  0  0  0  0  0  0  0  0  0  0
    9.2409  -15.1890   21.3794 C   0  0  2  0  0  0  0  0  0  0  0  0
    8.0180  -15.8769   21.0345 N   0  0  0  0  0  0  0  0  0  0  0  0
    9.3666  -15.2272   22.8734 C   0  0  0  0  0  0  0  0  0  0  0  0
   10.3512  -14.6384   23.4390 O   0  0  0  0  0  0  0  0  0  0  0  0
    9.7830  -14.2275   14.5425 N   0  0  0  0  0  0  0  0  0  0  0  0
    8.4441  -15.8882   23.7090 C   0  0  1  0  0  0  0  0  0  0  0  0
    8.6192  -15.8709   25.1909 C   0  0  0  0  0  0  0  0  0  0  0  0
    7.2942  -15.4060   25.7384 C   0  0  0  0  0  0  0  0  0  0  0  0
    7.1893  -14.0035   26.0852 C   0  0  0  0  0  0  0  0  0  0  0  0
    7.6506  -13.4869   27.2736 C   0  0  0  0  0  0  0  0  0  0  0  0
    7.5210  -12.1304   27.5808 C   0  0  0  0  0  0  0  0  0  0  0  0
    6.9241  -11.2542   26.7015 C   0  0  0  0  0  0  0  0  0  0  0  0
    6.4583  -11.7542   25.5096 C   0  0  0  0  0  0  0  0  0  0  0  0
    6.5874  -13.0839   25.2132 C   0  0  0  0  0  0  0  0  0  0  0  0
    8.8576  -17.2643   25.5747 O   0  0  0  0  0  0  0  0  0  0  0  0
    7.8986  -18.1015   25.4681 C   0  0  0  0  0  0  0  0  0  0  0  0
   11.0327  -19.9399   24.3700 C   0  0  2  0  0  0  0  0  0  0  0  0
   11.3476  -19.8062   25.8311 O   0  0  0  0  0  0  0  0  0  0  0  0
   12.4362  -18.9540   26.0587 C   0  0  2  0  0  0  0  0  0  0  0  0
   10.1623  -19.1690   26.5624 N   0  0  0  0  0  0  0  0  0  0  0  0
   10.0745  -17.8038   26.0604 C   0  0  0  0  0  0  0  0  0  0  0  0
   10.3923  -19.2727   27.9901 O   0  0  0  0  0  0  0  0  0  0  0  0
   10.4468  -20.5138   28.5970 O   0  0  0  0  0  0  0  0  0  0  0  0
  2  1  1  0
  3  2  2  0
  4  2  1  0
  5  4  1  0
  6  5  1  0
  7  6  1  0
  8  7  1  0
  8  9  1  1
 10 12  1  0
 10  8  1  0
 11 10  2  0
 13 21  1  0
 13 12  1  0
 13 14  1  1
 15 14  1  0
 16 15  2  0
 17 16  1  0
 18 19  1  0
 18 17  2  0
 19 20  2  0
 20 15  1  0
 21 27  1  0
 22 21  2  0
 24 25  1  0
 24 23  1  6
 24 26  1  0
 26 28  1  0
 26 27  1  1
 28 30  2  0
 28 29  1  0
M  END
$$$$
