RFT.pdb
     RDKit          3D

 30 30  0  0  1  0  0  0  0  0999 V2000
    9.1625  -12.8994   15.3870 N   0  0  0  0  0  0  0  0  0  0  0  0
    8.0418  -13.7672   15.2476 C   0  0  0  0  0  0  0  0  0  0  0  0
    7.1425  -13.4918   14.3948 N   0  0  0  0  0  0  0  0  0  0  0  0
    8.0172  -14.9053   16.0954 N   0  0  0  0  0  0  0  0  0  0  0  0
    9.1719  -15.2087   16.9135 C   0  0  0  0  0  0  0  0  0  0  0  0
    8.9041  -16.3913   17.7948 C   0  0  0  0  0  0  0  0  0  0  0  0
    9.8865  -16.5786   18.9059 C   0  0  0  0  0  0  0  0  0  0  0  0
    9.1865  -17.1225   20.1195 C   0  0  2  0  0  0  0  0  0  0  0  0
    7.7767  -17.3379   19.8876 N   0  0  0  0  0  0  0  0  0  0  0  0
    9.3077  -16.1856   21.2843 C   0  0  0  0  0  0  0  0  0  0  0  0
   10.4021  -15.5507   21.4722 O   0  0  0  0  0  0  0  0  0  0  0  0
    6.3396  -14.1366   14.2386 N   0  0  0  0  0  0  0  0  0  0  0  0
    8.2644  -15.9587   22.2043 C   0  0  1  0  0  0  0  0  0  0  0  0
    8.4932  -15.1151   23.4137 C   0  0  0  0  0  0  0  0  0  0  0  0
    7.1831  -14.4104   23.6557 C   0  0  0  0  0  0  0  0  0  0  0  0
    7.0969  -13.5868   24.8441 C   0  0  0  0  0  0  0  0  0  0  0  0
    7.7895  -12.4077   24.9930 C   0  0  0  0  0  0  0  0  0  0  0  0
    7.6926  -11.6447   26.1590 C   0  0  0  0  0  0  0  0  0  0  0  0
    6.8960  -12.0452   27.2090 C   0  0  0  0  0  0  0  0  0  0  0  0
    6.1970  -13.2205   27.0760 C   0  0  0  0  0  0  0  0  0  0  0  0
    6.2953  -13.9647   25.9317 C   0  0  0  0  0  0  0  0  0  0  0  0
    8.7637  -16.0558   24.5035 O   0  0  0  0  0  0  0  0  0  0  0  0
    7.9159  -16.9823   24.7373 C   0  0  0  0  0  0  0  0  0  0  0  0
   12.5084  -16.4224   26.2827 C   0  0  2  0  0  0  0  0  0  0  0  0
   11.5628  -17.5771   26.1258 O   0  0  0  0  0  0  0  0  0  0  0  0
   11.7806  -18.5702   27.0899 C   0  0  1  0  0  0  0  0  0  0  0  0
   10.1223  -17.1022   26.3379 N   0  0  0  0  0  0  0  0  0  0  0  0
    9.9007  -16.0549   25.3492 C   0  0  0  0  0  0  0  0  0  0  0  0
    9.9773  -16.6717   27.7148 O   0  0  0  0  0  0  0  0  0  0  0  0
   10.0398  -17.5952   28.7419 O   0  0  0  0  0  0  0  0  0  0  0  0
  2  1  1  0
  3  2  2  0
  4  2  1  0
  5  4  1  0
  6  5  1  0
  7  6  1  0
  8  7  1  0
  8  9  1  6
 10 12  1  0
 10  8  1  0
 11 10  2  0
 13 21  1  0
 13 12  1  0
 13 14  1  6
 15 14  1  0
 16 15  2  0
 17 16  1  0
 18 19  1  0
 18 17  2  0
 19 20  2  0
 20 15  1  0
 21 27  1  0
 22 21  2  0
 24 25  1  0
 24 23  1  6
 24 26  1  0
 26 28  1  0
 26 27  1  6
 28 30  2  0
 28 29  1  0
M  END
$$$$
