RFT.pdb
     RDKit          3D

 30 30  0  0  1  0  0  0  0  0999 V2000
    9.2658  -22.1948   19.9026 N   0  0  0  0  0  0  0  0  0  0  0  0
    8.9112  -21.0622   19.1152 C   0  0  0  0  0  0  0  0  0  0  0  0
    7.7856  -21.0387   18.5284 N   0  0  0  0  0  0  0  0  0  0  0  0
    9.8696  -20.0175   19.0470 N   0  0  0  0  0  0  0  0  0  0  0  0
   10.2095  -19.2837   20.2473 C   0  0  0  0  0  0  0  0  0  0  0  0
    9.3562  -18.0587   20.3819 C   0  0  0  0  0  0  0  0  0  0  0  0
    9.6492  -16.9800   19.3892 C   0  0  0  0  0  0  0  0  0  0  0  0
    8.7656  -15.7927   19.6504 C   0  0  2  0  0  0  0  0  0  0  0  0
    8.9464  -14.7491   18.6676 N   0  0  0  0  0  0  0  0  0  0  0  0
    9.0451  -15.1906   20.9952 C   0  0  0  0  0  0  0  0  0  0  0  0
   10.1397  -14.5576   21.1880 O   0  0  0  0  0  0  0  0  0  0  0  0
    7.5217  -20.2421   17.9116 N   0  0  0  0  0  0  0  0  0  0  0  0
    8.1535  -15.2832   22.0828 C   0  0  2  0  0  0  0  0  0  0  0  0
    8.4909  -14.6526   23.3926 C   0  0  0  0  0  0  0  0  0  0  0  0
    7.2543  -13.8891   23.7918 C   0  0  0  0  0  0  0  0  0  0  0  0
    7.2905  -13.2162   25.0740 C   0  0  0  0  0  0  0  0  0  0  0  0
    8.3547  -12.4508   25.4911 C   0  0  0  0  0  0  0  0  0  0  0  0
    8.3613  -11.8263   26.7405 C   0  0  0  0  0  0  0  0  0  0  0  0
    7.2977  -11.9532   27.6066 C   0  0  0  0  0  0  0  0  0  0  0  0
    6.2266  -12.7140   27.2050 C   0  0  0  0  0  0  0  0  0  0  0  0
    6.2247  -13.3240   25.9799 C   0  0  0  0  0  0  0  0  0  0  0  0
    8.7123  -15.7655   24.3190 O   0  0  0  0  0  0  0  0  0  0  0  0
    7.7649  -16.6009   24.5102 C   0  0  0  0  0  0  0  0  0  0  0  0
   10.7371  -18.6794   24.1898 C   0  0  2  0  0  0  0  0  0  0  0  0
   11.1375  -18.0205   25.4773 O   0  0  0  0  0  0  0  0  0  0  0  0
   12.2341  -17.1644   25.3113 C   0  0  2  0  0  0  0  0  0  0  0  0
    9.9949  -17.1367   25.9864 N   0  0  0  0  0  0  0  0  0  0  0  0
    9.9007  -16.0290   25.0442 C   0  0  0  0  0  0  0  0  0  0  0  0
   10.2892  -16.7441   27.3507 O   0  0  0  0  0  0  0  0  0  0  0  0
   10.3935  -17.7019   28.3424 O   0  0  0  0  0  0  0  0  0  0  0  0
  2  1  1  0
  3  2  2  0
  4  2  1  0
  5  4  1  0
  6  5  1  0
  7  6  1  0
  8  7  1  0
  8  9  1  6
 10 12  1  0
 10  8  1  0
 11 10  2  0
 13 21  1  0
 13 12  1  0
 13 14  1  6
 15 14  1  0
 16 15  2  0
 17 16  1  0
 18 19  1  0
 18 17  2  0
 19 20  2  0
 20 15  1  0
 21 27  1  0
 22 21  2  0
 24 25  1  0
 24 23  1  1
 24 26  1  0
 26 28  1  0
 26 27  1  1
 28 30  2  0
 28 29  1  0
M  END
$$$$
