RFT.pdb
     RDKit          3D

 30 30  0  0  1  0  0  0  0  0999 V2000
   12.2907  -19.2386   16.9338 N   0  0  0  0  0  0  0  0  0  0  0  0
   11.5452  -20.4256   17.1860 C   0  0  0  0  0  0  0  0  0  0  0  0
   12.0695  -21.5553   16.9392 N   0  0  0  0  0  0  0  0  0  0  0  0
   10.2380  -20.2491   17.7100 N   0  0  0  0  0  0  0  0  0  0  0  0
    9.8021  -18.9268   18.1054 C   0  0  0  0  0  0  0  0  0  0  0  0
   10.5126  -18.4813   19.3478 C   0  0  0  0  0  0  0  0  0  0  0  0
   10.1540  -17.1072   19.8149 C   0  0  0  0  0  0  0  0  0  0  0  0
    8.9615  -17.1735   20.7271 C   0  0  2  0  0  0  0  0  0  0  0  0
    7.7403  -16.7830   20.0609 N   0  0  0  0  0  0  0  0  0  0  0  0
    9.1306  -16.2696   21.9118 C   0  0  0  0  0  0  0  0  0  0  0  0
   10.1869  -15.5558   22.0152 O   0  0  0  0  0  0  0  0  0  0  0  0
   11.5744  -22.4384   17.1833 N   0  0  0  0  0  0  0  0  0  0  0  0
    8.1736  -16.1581   22.9405 C   0  0  2  0  0  0  0  0  0  0  0  0
    8.4326  -15.2846   24.1224 C   0  0  0  0  0  0  0  0  0  0  0  0
    7.1102  -14.6273   24.4233 C   0  0  0  0  0  0  0  0  0  0  0  0
    7.0738  -13.7277   25.5580 C   0  0  0  0  0  0  0  0  0  0  0  0
    6.9338  -12.3651   25.4323 C   0  0  0  0  0  0  0  0  0  0  0  0
    6.9157  -11.5256   26.5487 C   0  0  0  0  0  0  0  0  0  0  0  0
    7.0376  -12.0323   27.8237 C   0  0  0  0  0  0  0  0  0  0  0  0
    7.1777  -13.3915   27.9666 C   0  0  0  0  0  0  0  0  0  0  0  0
    7.1950  -14.2099   26.8699 C   0  0  0  0  0  0  0  0  0  0  0  0
    8.7980  -16.1944   25.2107 O   0  0  0  0  0  0  0  0  0  0  0  0
    7.9417  -17.0589   25.5998 C   0  0  0  0  0  0  0  0  0  0  0  0
   11.4849  -18.6399   25.2870 C   0  0  2  0  0  0  0  0  0  0  0  0
   11.6454  -17.8574   26.5575 O   0  0  0  0  0  0  0  0  0  0  0  0
   12.5556  -16.8019   26.4138 C   0  0  2  0  0  0  0  0  0  0  0  0
   10.3126  -17.2064   26.9391 N   0  0  0  0  0  0  0  0  0  0  0  0
   10.0375  -16.2262   25.8966 C   0  0  0  0  0  0  0  0  0  0  0  0
   10.4370  -16.6499   28.2722 O   0  0  0  0  0  0  0  0  0  0  0  0
   10.6550  -17.4816   29.3550 O   0  0  0  0  0  0  0  0  0  0  0  0
  2  1  1  0
  3  2  2  0
  4  2  1  0
  5  4  1  0
  6  5  1  0
  7  6  1  0
  8  7  1  0
  8  9  1  6
 10 12  1  0
 10  8  1  0
 11 10  2  0
 13 21  1  0
 13 12  1  0
 13 14  1  1
 15 14  1  0
 16 15  2  0
 17 16  1  0
 18 19  1  0
 18 17  2  0
 19 20  2  0
 20 15  1  0
 21 27  1  0
 22 21  2  0
 24 25  1  0
 24 23  1  1
 24 26  1  0
 26 28  1  0
 26 27  1  1
 28 30  2  0
 28 29  1  0
M  END
$$$$
