RFT.pdb
     RDKit          3D

 30 30  0  0  1  0  0  0  0  0999 V2000
    9.6276  -13.1117   18.1082 N   0  0  0  0  0  0  0  0  0  0  0  0
    8.4135  -12.6893   18.7213 C   0  0  0  0  0  0  0  0  0  0  0  0
    8.3140  -11.4992   19.1523 N   0  0  0  0  0  0  0  0  0  0  0  0
    7.3793  -13.6579   18.8039 N   0  0  0  0  0  0  0  0  0  0  0  0
    7.5767  -14.9626   18.2093 C   0  0  0  0  0  0  0  0  0  0  0  0
    7.5904  -16.0305   19.2611 C   0  0  0  0  0  0  0  0  0  0  0  0
    8.6397  -15.8599   20.3122 C   0  0  0  0  0  0  0  0  0  0  0  0
    8.5821  -17.0070   21.2814 C   0  0  2  0  0  0  0  0  0  0  0  0
    7.2606  -17.5849   21.3678 N   0  0  0  0  0  0  0  0  0  0  0  0
    8.9689  -16.5725   22.6637 C   0  0  0  0  0  0  0  0  0  0  0  0
   10.1447  -16.1160   22.8758 O   0  0  0  0  0  0  0  0  0  0  0  0
    7.4347  -11.1652   19.5994 N   0  0  0  0  0  0  0  0  0  0  0  0
    8.0943  -16.6392   23.7669 C   0  0  1  0  0  0  0  0  0  0  0  0
    8.5284  -16.1456   25.1066 C   0  0  0  0  0  0  0  0  0  0  0  0
    7.2637  -15.6859   25.7854 C   0  0  0  0  0  0  0  0  0  0  0  0
    7.1084  -14.2582   25.9742 C   0  0  0  0  0  0  0  0  0  0  0  0
    6.0570  -13.5413   25.4519 C   0  0  0  0  0  0  0  0  0  0  0  0
    5.9456  -12.1621   25.6430 C   0  0  0  0  0  0  0  0  0  0  0  0
    6.8882  -11.4640   26.3653 C   0  0  0  0  0  0  0  0  0  0  0  0
    7.9444  -12.1655   26.8943 C   0  0  0  0  0  0  0  0  0  0  0  0
    8.0493  -13.5166   26.7042 C   0  0  0  0  0  0  0  0  0  0  0  0
    9.0709  -17.3164   25.7999 O   0  0  0  0  0  0  0  0  0  0  0  0
    8.2991  -18.3106   26.0187 C   0  0  0  0  0  0  0  0  0  0  0  0
   13.1631  -18.0236   26.3425 C   0  0  2  0  0  0  0  0  0  0  0  0
   12.1359  -19.1080   26.1977 O   0  0  0  0  0  0  0  0  0  0  0  0
   12.5444  -20.3038   26.8029 C   0  0  1  0  0  0  0  0  0  0  0  0
   10.8451  -18.7006   26.9143 N   0  0  0  0  0  0  0  0  0  0  0  0
   10.4004  -17.4749   26.2635 C   0  0  0  0  0  0  0  0  0  0  0  0
   11.1278  -18.5632   28.3297 O   0  0  0  0  0  0  0  0  0  0  0  0
   11.5005  -19.6668   29.0744 O   0  0  0  0  0  0  0  0  0  0  0  0
  2  1  1  0
  3  2  2  0
  4  2  1  0
  5  4  1  0
  6  5  1  0
  7  6  1  0
  8  7  1  0
  8  9  1  1
 10 12  1  0
 10  8  1  0
 11 10  2  0
 13 21  1  0
 13 12  1  0
 13 14  1  6
 15 14  1  0
 16 15  2  0
 17 16  1  0
 18 19  1  0
 18 17  2  0
 19 20  2  0
 20 15  1  0
 21 27  1  0
 22 21  2  0
 24 25  1  0
 24 23  1  6
 24 26  1  0
 26 28  1  0
 26 27  1  6
 28 30  2  0
 28 29  1  0
M  END
$$$$
