RFT.pdb
     RDKit          3D

 30 30  0  0  1  0  0  0  0  0999 V2000
    5.6018  -19.2256   17.9358 N   0  0  0  0  0  0  0  0  0  0  0  0
    6.5244  -19.5717   16.9075 C   0  0  0  0  0  0  0  0  0  0  0  0
    6.0872  -19.8866   15.7578 N   0  0  0  0  0  0  0  0  0  0  0  0
    7.8997  -19.5353   17.2567 N   0  0  0  0  0  0  0  0  0  0  0  0
    8.2908  -19.0364   18.5577 C   0  0  0  0  0  0  0  0  0  0  0  0
    9.1905  -17.8450   18.4227 C   0  0  0  0  0  0  0  0  0  0  0  0
    9.5652  -17.1944   19.7155 C   0  0  0  0  0  0  0  0  0  0  0  0
    8.7791  -15.9262   19.8950 C   0  0  2  0  0  0  0  0  0  0  0  0
    9.1305  -14.9213   18.9180 N   0  0  0  0  0  0  0  0  0  0  0  0
    9.0107  -15.3286   21.2509 C   0  0  0  0  0  0  0  0  0  0  0  0
   10.2012  -15.0384   21.6174 O   0  0  0  0  0  0  0  0  0  0  0  0
    6.7402  -20.1709   14.9979 N   0  0  0  0  0  0  0  0  0  0  0  0
    7.9715  -15.0624   22.1649 C   0  0  2  0  0  0  0  0  0  0  0  0
    8.2772  -14.5109   23.5174 C   0  0  0  0  0  0  0  0  0  0  0  0
    7.0755  -13.6783   23.8837 C   0  0  0  0  0  0  0  0  0  0  0  0
    7.0668  -13.0963   25.2101 C   0  0  0  0  0  0  0  0  0  0  0  0
    5.9111  -12.8406   25.9109 C   0  0  0  0  0  0  0  0  0  0  0  0
    5.9394  -12.2661   27.1838 C   0  0  0  0  0  0  0  0  0  0  0  0
    7.1310  -11.9323   27.7889 C   0  0  0  0  0  0  0  0  0  0  0  0
    8.2946  -12.1816   27.1025 C   0  0  0  0  0  0  0  0  0  0  0  0
    8.2618  -12.7446   25.8555 C   0  0  0  0  0  0  0  0  0  0  0  0
    8.3694  -15.6732   24.4041 O   0  0  0  0  0  0  0  0  0  0  0  0
    7.3178  -16.3672   24.6154 C   0  0  0  0  0  0  0  0  0  0  0  0
   10.0076  -18.7702   24.0047 C   0  0  2  0  0  0  0  0  0  0  0  0
   10.5104  -18.2889   25.3342 O   0  0  0  0  0  0  0  0  0  0  0  0
   11.7175  -17.5871   25.2174 C   0  0  2  0  0  0  0  0  0  0  0  0
    9.5118  -17.2983   25.9401 N   0  0  0  0  0  0  0  0  0  0  0  0
    9.5341  -16.1303   25.0690 C   0  0  0  0  0  0  0  0  0  0  0  0
    9.8997  -17.0345   27.3121 O   0  0  0  0  0  0  0  0  0  0  0  0
    9.8566  -18.0463   28.2533 O   0  0  0  0  0  0  0  0  0  0  0  0
  2  1  1  0
  3  2  2  0
  4  2  1  0
  5  4  1  0
  6  5  1  0
  7  6  1  0
  8  7  1  0
  8  9  1  6
 10 12  1  0
 10  8  1  0
 11 10  2  0
 13 21  1  0
 13 12  1  0
 13 14  1  6
 15 14  1  0
 16 15  2  0
 17 16  1  0
 18 19  1  0
 18 17  2  0
 19 20  2  0
 20 15  1  0
 21 27  1  0
 22 21  2  0
 24 25  1  0
 24 23  1  1
 24 26  1  0
 26 28  1  0
 26 27  1  1
 28 30  2  0
 28 29  1  0
M  END
$$$$
