RFT.pdb
     RDKit          3D

 30 30  0  0  1  0  0  0  0  0999 V2000
    7.2281  -14.8039   18.3185 N   0  0  0  0  0  0  0  0  0  0  0  0
    7.8374  -13.7025   17.6522 C   0  0  0  0  0  0  0  0  0  0  0  0
    7.1751  -13.0556   16.7834 N   0  0  0  0  0  0  0  0  0  0  0  0
    9.1747  -13.4039   18.0224 N   0  0  0  0  0  0  0  0  0  0  0  0
    9.9150  -14.3444   18.8360 C   0  0  0  0  0  0  0  0  0  0  0  0
    9.0794  -14.8308   19.9814 C   0  0  0  0  0  0  0  0  0  0  0  0
    9.6653  -14.5806   21.3338 C   0  0  0  0  0  0  0  0  0  0  0  0
    9.8538  -15.8843   22.0572 C   0  0  2  0  0  0  0  0  0  0  0  0
    8.7572  -16.7981   21.8335 N   0  0  0  0  0  0  0  0  0  0  0  0
    9.9634  -15.6749   23.5382 C   0  0  0  0  0  0  0  0  0  0  0  0
   10.9015  -14.9408   24.0040 O   0  0  0  0  0  0  0  0  0  0  0  0
    7.5854  -12.2236   16.3100 N   0  0  0  0  0  0  0  0  0  0  0  0
    9.0746  -16.2521   24.4673 C   0  0  1  0  0  0  0  0  0  0  0  0
    9.2593  -16.0266   25.9308 C   0  0  0  0  0  0  0  0  0  0  0  0
    7.8970  -15.6360   26.4438 C   0  0  0  0  0  0  0  0  0  0  0  0
    7.5503  -14.2318   26.3661 C   0  0  0  0  0  0  0  0  0  0  0  0
    7.7072  -13.3598   27.4183 C   0  0  0  0  0  0  0  0  0  0  0  0
    7.3498  -12.0136   27.3121 C   0  0  0  0  0  0  0  0  0  0  0  0
    6.8246  -11.5054   26.1445 C   0  0  0  0  0  0  0  0  0  0  0  0
    6.6619  -12.3632   25.0838 C   0  0  0  0  0  0  0  0  0  0  0  0
    7.0134  -13.6813   25.1927 C   0  0  0  0  0  0  0  0  0  0  0  0
    9.6477  -17.3266   26.4828 O   0  0  0  0  0  0  0  0  0  0  0  0
    9.6787  -17.4685   27.7521 C   0  0  0  0  0  0  0  0  0  0  0  0
   11.7245  -20.2001   24.3100 C   0  0  2  0  0  0  0  0  0  0  0  0
   10.6881  -20.7137   25.2660 O   0  0  0  0  0  0  0  0  0  0  0  0
   11.0949  -21.8967   25.8971 C   0  0  1  0  0  0  0  0  0  0  0  0
   10.4693  -19.6977   26.3910 N   0  0  0  0  0  0  0  0  0  0  0  0
    9.9978  -18.4819   25.7408 C   0  0  0  0  0  0  0  0  0  0  0  0
   11.7115  -19.5469   27.1233 O   0  0  0  0  0  0  0  0  0  0  0  0
   12.2179  -20.6030   27.8580 O   0  0  0  0  0  0  0  0  0  0  0  0
  2  1  1  0
  3  2  2  0
  4  2  1  0
  5  4  1  0
  6  5  1  0
  7  6  1  0
  8  7  1  0
  8  9  1  1
 10 12  1  0
 10  8  1  0
 11 10  2  0
 13 21  1  0
 13 12  1  0
 13 14  1  1
 15 14  1  0
 16 15  2  0
 17 16  1  0
 18 19  1  0
 18 17  2  0
 19 20  2  0
 20 15  1  0
 21 27  1  0
 22 21  2  0
 24 25  1  0
 24 23  1  6
 24 26  1  0
 26 28  1  0
 26 27  1  6
 28 30  2  0
 28 29  1  0
M  END
$$$$
