RFT.pdb
     RDKit          3D

 30 30  0  0  1  0  0  0  0  0999 V2000
    8.2190  -12.0159   19.1929 N   0  0  0  0  0  0  0  0  0  0  0  0
    8.6407  -12.9364   18.1913 C   0  0  0  0  0  0  0  0  0  0  0  0
    8.6820  -12.5625   16.9787 N   0  0  0  0  0  0  0  0  0  0  0  0
    8.9937  -14.2363   18.6389 N   0  0  0  0  0  0  0  0  0  0  0  0
    8.0011  -15.0548   19.3018 C   0  0  0  0  0  0  0  0  0  0  0  0
    7.6178  -14.4609   20.6236 C   0  0  0  0  0  0  0  0  0  0  0  0
    6.6702  -15.2891   21.4305 C   0  0  0  0  0  0  0  0  0  0  0  0
    7.4142  -16.4119   22.0970 C   0  0  2  0  0  0  0  0  0  0  0  0
    6.5830  -17.5768   22.2968 N   0  0  0  0  0  0  0  0  0  0  0  0
    7.9328  -15.9993   23.4424 C   0  0  0  0  0  0  0  0  0  0  0  0
    8.0676  -14.7564   23.7126 O   0  0  0  0  0  0  0  0  0  0  0  0
    9.0215  -13.2055   16.2331 N   0  0  0  0  0  0  0  0  0  0  0  0
    8.2883  -16.9202   24.4483 C   0  0  1  0  0  0  0  0  0  0  0  0
    8.8003  -16.4406   25.7654 C   0  0  0  0  0  0  0  0  0  0  0  0
    7.5950  -15.8803   26.4759 C   0  0  0  0  0  0  0  0  0  0  0  0
    7.3691  -14.4552   26.3494 C   0  0  0  0  0  0  0  0  0  0  0  0
    8.3190  -13.5127   26.6681 C   0  0  0  0  0  0  0  0  0  0  0  0
    8.0623  -12.1451   26.5460 C   0  0  0  0  0  0  0  0  0  0  0  0
    6.8428  -11.6857   26.0995 C   0  0  0  0  0  0  0  0  0  0  0  0
    5.8831  -12.6143   25.7765 C   0  0  0  0  0  0  0  0  0  0  0  0
    6.1394  -13.9531   25.8979 C   0  0  0  0  0  0  0  0  0  0  0  0
    9.2787  -17.6380   26.4605 O   0  0  0  0  0  0  0  0  0  0  0  0
    8.4238  -18.4005   27.0260 C   0  0  0  0  0  0  0  0  0  0  0  0
   11.7607  -20.1964   25.0858 C   0  0  2  0  0  0  0  0  0  0  0  0
   12.1788  -19.8673   26.4890 O   0  0  0  0  0  0  0  0  0  0  0  0
   13.1708  -18.8785   26.5241 C   0  0  2  0  0  0  0  0  0  0  0  0
   10.9905  -19.2902   27.2639 N   0  0  0  0  0  0  0  0  0  0  0  0
   10.6268  -18.0599   26.5730 C   0  0  0  0  0  0  0  0  0  0  0  0
   11.3863  -19.1104   28.6471 O   0  0  0  0  0  0  0  0  0  0  0  0
   11.7196  -20.2054   29.4227 O   0  0  0  0  0  0  0  0  0  0  0  0
  2  1  1  0
  3  2  2  0
  4  2  1  0
  5  4  1  0
  6  5  1  0
  7  6  1  0
  8  7  1  0
  8  9  1  1
 10 12  1  0
 10  8  1  0
 11 10  2  0
 13 21  1  0
 13 12  1  0
 13 14  1  1
 15 14  1  0
 16 15  2  0
 17 16  1  0
 18 19  1  0
 18 17  2  0
 19 20  2  0
 20 15  1  0
 21 27  1  0
 22 21  2  0
 24 25  1  0
 24 23  1  6
 24 26  1  0
 26 28  1  0
 26 27  1  1
 28 30  2  0
 28 29  1  0
M  END
$$$$
