RFT.pdb
     RDKit          3D

 30 30  0  0  1  0  0  0  0  0999 V2000
    8.8032  -13.4665   18.9486 N   0  0  0  0  0  0  0  0  0  0  0  0
    8.2276  -13.6297   17.6562 C   0  0  0  0  0  0  0  0  0  0  0  0
    7.2057  -12.9467   17.3382 N   0  0  0  0  0  0  0  0  0  0  0  0
    8.8594  -14.5683   16.7992 N   0  0  0  0  0  0  0  0  0  0  0  0
    9.9380  -15.3862   17.3112 C   0  0  0  0  0  0  0  0  0  0  0  0
    9.4017  -16.5370   18.1079 C   0  0  0  0  0  0  0  0  0  0  0  0
   10.1575  -16.8355   19.3627 C   0  0  0  0  0  0  0  0  0  0  0  0
    9.2029  -17.2496   20.4470 C   0  0  2  0  0  0  0  0  0  0  0  0
    7.8227  -17.1246   20.0383 N   0  0  0  0  0  0  0  0  0  0  0  0
    9.3800  -16.4118   21.6783 C   0  0  0  0  0  0  0  0  0  0  0  0
   10.5564  -16.0669   22.0429 O   0  0  0  0  0  0  0  0  0  0  0  0
    6.8200  -12.9816   16.3714 N   0  0  0  0  0  0  0  0  0  0  0  0
    8.3032  -15.9729   22.4747 C   0  0  1  0  0  0  0  0  0  0  0  0
    8.5547  -15.2006   23.7266 C   0  0  0  0  0  0  0  0  0  0  0  0
    7.3412  -14.3234   23.8983 C   0  0  0  0  0  0  0  0  0  0  0  0
    7.2585  -13.5599   25.1264 C   0  0  0  0  0  0  0  0  0  0  0  0
    6.2561  -13.7325   26.0524 C   0  0  0  0  0  0  0  0  0  0  0  0
    6.2002  -12.9690   27.2208 C   0  0  0  0  0  0  0  0  0  0  0  0
    7.1511  -12.0099   27.4918 C   0  0  0  0  0  0  0  0  0  0  0  0
    8.1595  -11.8253   26.5771 C   0  0  0  0  0  0  0  0  0  0  0  0
    8.2099  -12.5757   25.4338 C   0  0  0  0  0  0  0  0  0  0  0  0
    8.6072  -16.1970   24.7990 O   0  0  0  0  0  0  0  0  0  0  0  0
    7.5469  -16.8525   25.0784 C   0  0  0  0  0  0  0  0  0  0  0  0
   10.0711  -19.2952   24.9447 C   0  0  2  0  0  0  0  0  0  0  0  0
   10.6034  -18.6637   26.1977 O   0  0  0  0  0  0  0  0  0  0  0  0
   11.8589  -18.0747   25.9974 C   0  0  2  0  0  0  0  0  0  0  0  0
    9.6780  -17.5266   26.6406 N   0  0  0  0  0  0  0  0  0  0  0  0
    9.7416  -16.5284   25.5809 C   0  0  0  0  0  0  0  0  0  0  0  0
   10.1165  -17.0554   27.9397 O   0  0  0  0  0  0  0  0  0  0  0  0
   10.6251  -15.7774   28.0802 O   0  0  0  0  0  0  0  0  0  0  0  0
  2  1  1  0
  3  2  2  0
  4  2  1  0
  5  4  1  0
  6  5  1  0
  7  6  1  0
  8  7  1  0
  8  9  1  6
 10 12  1  0
 10  8  1  0
 11 10  2  0
 13 21  1  0
 13 12  1  0
 13 14  1  6
 15 14  1  0
 16 15  2  0
 17 16  1  0
 18 19  1  0
 18 17  2  0
 19 20  2  0
 20 15  1  0
 21 27  1  0
 22 21  2  0
 24 25  1  0
 24 23  1  1
 24 26  1  0
 26 28  1  0
 26 27  1  1
 28 30  2  0
 28 29  1  0
M  END
$$$$
