RFT.pdb
     RDKit          3D

 30 30  0  0  1  0  0  0  0  0999 V2000
    9.0826  -12.6967   13.8047 N   0  0  0  0  0  0  0  0  0  0  0  0
    8.2265  -13.8218   13.6324 C   0  0  0  0  0  0  0  0  0  0  0  0
    7.9009  -14.1836   12.4598 N   0  0  0  0  0  0  0  0  0  0  0  0
    7.7928  -14.4707   14.8180 N   0  0  0  0  0  0  0  0  0  0  0  0
    8.2190  -13.9624   16.1043 C   0  0  0  0  0  0  0  0  0  0  0  0
    7.6449  -14.7845   17.2185 C   0  0  0  0  0  0  0  0  0  0  0  0
    7.9822  -14.2995   18.5918 C   0  0  0  0  0  0  0  0  0  0  0  0
    8.5536  -15.4269   19.4049 C   0  0  2  0  0  0  0  0  0  0  0  0
    7.6374  -16.5382   19.5197 N   0  0  0  0  0  0  0  0  0  0  0  0
    8.8877  -14.9801   20.7970 C   0  0  0  0  0  0  0  0  0  0  0  0
   10.0082  -14.4065   21.0237 O   0  0  0  0  0  0  0  0  0  0  0  0
    7.2722  -15.0000   12.3083 N   0  0  0  0  0  0  0  0  0  0  0  0
    8.0211  -15.1590   21.8940 C   0  0  1  0  0  0  0  0  0  0  0  0
    8.3702  -14.5985   23.2322 C   0  0  0  0  0  0  0  0  0  0  0  0
    7.1176  -13.9090   23.7090 C   0  0  0  0  0  0  0  0  0  0  0  0
    7.1524  -13.3454   25.0429 C   0  0  0  0  0  0  0  0  0  0  0  0
    6.3394  -13.7802   26.0637 C   0  0  0  0  0  0  0  0  0  0  0  0
    6.3907  -13.2046   27.3354 C   0  0  0  0  0  0  0  0  0  0  0  0
    7.2615  -12.1753   27.6174 C   0  0  0  0  0  0  0  0  0  0  0  0
    8.0810  -11.7296   26.6088 C   0  0  0  0  0  0  0  0  0  0  0  0
    8.0270  -12.2966   25.3644 C   0  0  0  0  0  0  0  0  0  0  0  0
    8.6570  -15.7574   24.0810 O   0  0  0  0  0  0  0  0  0  0  0  0
    7.8241  -16.7260   24.0967 C   0  0  0  0  0  0  0  0  0  0  0  0
   12.3964  -16.9426   24.8606 C   0  0  2  0  0  0  0  0  0  0  0  0
   11.2037  -17.8532   24.8783 O   0  0  0  0  0  0  0  0  0  0  0  0
   11.4588  -19.0407   25.5770 C   0  0  1  0  0  0  0  0  0  0  0  0
   10.0448  -17.1781   25.6176 N   0  0  0  0  0  0  0  0  0  0  0  0
    9.7949  -15.9304   24.9074 C   0  0  0  0  0  0  0  0  0  0  0  0
   10.4186  -17.0152   27.0090 O   0  0  0  0  0  0  0  0  0  0  0  0
   10.6069  -18.1245   27.8125 O   0  0  0  0  0  0  0  0  0  0  0  0
  2  1  1  0
  3  2  2  0
  4  2  1  0
  5  4  1  0
  6  5  1  0
  7  6  1  0
  8  7  1  0
  8  9  1  1
 10 12  1  0
 10  8  1  0
 11 10  2  0
 13 21  1  0
 13 12  1  0
 13 14  1  6
 15 14  1  0
 16 15  2  0
 17 16  1  0
 18 19  1  0
 18 17  2  0
 19 20  2  0
 20 15  1  0
 21 27  1  0
 22 21  2  0
 24 25  1  0
 24 23  1  6
 24 26  1  0
 26 28  1  0
 26 27  1  6
 28 30  2  0
 28 29  1  0
M  END
$$$$
