RFT.pdb
     RDKit          3D

 30 30  0  0  1  0  0  0  0  0999 V2000
    8.3370  -21.5634   16.4789 N   0  0  0  0  0  0  0  0  0  0  0  0
    8.8234  -21.3793   17.8047 C   0  0  0  0  0  0  0  0  0  0  0  0
    8.4162  -22.1469   18.7303 N   0  0  0  0  0  0  0  0  0  0  0  0
    9.7530  -20.3234   17.9936 N   0  0  0  0  0  0  0  0  0  0  0  0
    9.2797  -19.0287   18.4344 C   0  0  0  0  0  0  0  0  0  0  0  0
    8.3440  -19.1712   19.5967 C   0  0  0  0  0  0  0  0  0  0  0  0
    8.7679  -18.4467   20.8337 C   0  0  0  0  0  0  0  0  0  0  0  0
    9.0252  -17.0007   20.5151 C   0  0  2  0  0  0  0  0  0  0  0  0
   10.1991  -16.8220   19.6918 N   0  0  0  0  0  0  0  0  0  0  0  0
    9.2308  -16.1957   21.7636 C   0  0  0  0  0  0  0  0  0  0  0  0
   10.4177  -15.9905   22.1938 O   0  0  0  0  0  0  0  0  0  0  0  0
    8.7447  -22.0219   19.7107 N   0  0  0  0  0  0  0  0  0  0  0  0
    8.1702  -15.6400   22.5072 C   0  0  2  0  0  0  0  0  0  0  0  0
    8.4426  -14.8921   23.7695 C   0  0  0  0  0  0  0  0  0  0  0  0
    7.2199  -14.0398   23.9935 C   0  0  0  0  0  0  0  0  0  0  0  0
    7.1566  -13.3079   25.2418 C   0  0  0  0  0  0  0  0  0  0  0  0
    6.0898  -13.3880   26.1065 C   0  0  0  0  0  0  0  0  0  0  0  0
    6.0564  -12.6575   27.2967 C   0  0  0  0  0  0  0  0  0  0  0  0
    7.0952  -11.8256   27.6519 C   0  0  0  0  0  0  0  0  0  0  0  0
    8.1687  -11.7346   26.7993 C   0  0  0  0  0  0  0  0  0  0  0  0
    8.1968  -12.4521   25.6343 C   0  0  0  0  0  0  0  0  0  0  0  0
    8.5403  -15.9115   24.8169 O   0  0  0  0  0  0  0  0  0  0  0  0
    7.4905  -16.5672   25.1331 C   0  0  0  0  0  0  0  0  0  0  0  0
    9.9815  -19.0944   24.8593 C   0  0  2  0  0  0  0  0  0  0  0  0
   10.6184  -18.4119   26.0343 O   0  0  0  0  0  0  0  0  0  0  0  0
   11.8163  -17.7739   25.6863 C   0  0  2  0  0  0  0  0  0  0  0  0
    9.6961  -17.3060   26.5560 N   0  0  0  0  0  0  0  0  0  0  0  0
    9.7087  -16.2654   25.5360 C   0  0  0  0  0  0  0  0  0  0  0  0
   10.1763  -16.8813   27.8565 O   0  0  0  0  0  0  0  0  0  0  0  0
   10.2029  -17.7730   28.9128 O   0  0  0  0  0  0  0  0  0  0  0  0
  2  1  1  0
  3  2  2  0
  4  2  1  0
  5  4  1  0
  6  5  1  0
  7  6  1  0
  8  7  1  0
  8  9  1  6
 10 12  1  0
 10  8  1  0
 11 10  2  0
 13 21  1  0
 13 12  1  0
 13 14  1  1
 15 14  1  0
 16 15  2  0
 17 16  1  0
 18 19  1  0
 18 17  2  0
 19 20  2  0
 20 15  1  0
 21 27  1  0
 22 21  2  0
 24 25  1  0
 24 23  1  1
 24 26  1  0
 26 28  1  0
 26 27  1  1
 28 30  2  0
 28 29  1  0
M  END
$$$$
