RFT.pdb
     RDKit          3D

 30 30  0  0  1  0  0  0  0  0999 V2000
    7.2382  -15.2223   15.6540 N   0  0  0  0  0  0  0  0  0  0  0  0
    8.2348  -14.2835   15.2619 C   0  0  0  0  0  0  0  0  0  0  0  0
    7.9344  -13.3609   14.4431 N   0  0  0  0  0  0  0  0  0  0  0  0
    9.5223  -14.4559   15.8340 N   0  0  0  0  0  0  0  0  0  0  0  0
    9.7984  -15.6374   16.6228 C   0  0  0  0  0  0  0  0  0  0  0  0
    9.0674  -15.5875   17.9304 C   0  0  0  0  0  0  0  0  0  0  0  0
    9.9427  -15.4187   19.1305 C   0  0  0  0  0  0  0  0  0  0  0  0
    9.4738  -16.3233   20.2352 C   0  0  2  0  0  0  0  0  0  0  0  0
    8.1039  -16.7451   20.0531 N   0  0  0  0  0  0  0  0  0  0  0  0
    9.5562  -15.6427   21.5690 C   0  0  0  0  0  0  0  0  0  0  0  0
   10.6924  -15.2549   22.0104 O   0  0  0  0  0  0  0  0  0  0  0  0
    8.6324  -12.6351   14.1771 N   0  0  0  0  0  0  0  0  0  0  0  0
    8.4313  -15.4001   22.3827 C   0  0  1  0  0  0  0  0  0  0  0  0
    8.5960  -14.8129   23.7447 C   0  0  0  0  0  0  0  0  0  0  0  0
    7.3316  -14.0308   23.9916 C   0  0  0  0  0  0  0  0  0  0  0  0
    7.2267  -13.3482   25.2648 C   0  0  0  0  0  0  0  0  0  0  0  0
    6.2400  -13.6199   26.1840 C   0  0  0  0  0  0  0  0  0  0  0  0
    6.1614  -12.9325   27.3974 C   0  0  0  0  0  0  0  0  0  0  0  0
    7.0730  -11.9521   27.7218 C   0  0  0  0  0  0  0  0  0  0  0  0
    8.0652  -11.6688   26.8146 C   0  0  0  0  0  0  0  0  0  0  0  0
    8.1380  -12.3449   25.6270 C   0  0  0  0  0  0  0  0  0  0  0  0
    8.6643  -15.9550   24.6593 O   0  0  0  0  0  0  0  0  0  0  0  0
    7.6338  -16.6989   24.7881 C   0  0  0  0  0  0  0  0  0  0  0  0
   10.4230  -18.9728   24.5006 C   0  0  2  0  0  0  0  0  0  0  0  0
   10.7939  -18.4585   25.8608 O   0  0  0  0  0  0  0  0  0  0  0  0
   11.9963  -17.7394   25.8413 C   0  0  2  0  0  0  0  0  0  0  0  0
    9.7294  -17.4732   26.3523 N   0  0  0  0  0  0  0  0  0  0  0  0
    9.7845  -16.3410   25.4365 C   0  0  0  0  0  0  0  0  0  0  0  0
   10.0108  -17.1436   27.7359 O   0  0  0  0  0  0  0  0  0  0  0  0
    9.8920  -18.1091   28.7184 O   0  0  0  0  0  0  0  0  0  0  0  0
  2  1  1  0
  3  2  2  0
  4  2  1  0
  5  4  1  0
  6  5  1  0
  7  6  1  0
  8  7  1  0
  8  9  1  6
 10 12  1  0
 10  8  1  0
 11 10  2  0
 13 21  1  0
 13 12  1  0
 13 14  1  1
 15 14  1  0
 16 15  2  0
 17 16  1  0
 18 19  1  0
 18 17  2  0
 19 20  2  0
 20 15  1  0
 21 27  1  0
 22 21  2  0
 24 25  1  0
 24 23  1  1
 24 26  1  0
 26 28  1  0
 26 27  1  1
 28 30  2  0
 28 29  1  0
M  END
$$$$
