RFT.pdb
     RDKit          3D

 30 30  0  0  1  0  0  0  0  0999 V2000
    8.3496  -15.3206   14.7864 N   0  0  0  0  0  0  0  0  0  0  0  0
    8.1950  -13.9103   14.9110 C   0  0  0  0  0  0  0  0  0  0  0  0
    8.1941  -13.1886   13.8664 N   0  0  0  0  0  0  0  0  0  0  0  0
    8.0481  -13.4068   16.2299 N   0  0  0  0  0  0  0  0  0  0  0  0
    7.7872  -14.3253   17.3175 C   0  0  0  0  0  0  0  0  0  0  0  0
    8.9949  -15.1646   17.6069 C   0  0  0  0  0  0  0  0  0  0  0  0
    9.6331  -14.9061   18.9338 C   0  0  0  0  0  0  0  0  0  0  0  0
    9.1787  -15.9375   19.9280 C   0  0  2  0  0  0  0  0  0  0  0  0
    7.7813  -16.2701   19.7718 N   0  0  0  0  0  0  0  0  0  0  0  0
    9.3670  -15.4572   21.3363 C   0  0  0  0  0  0  0  0  0  0  0  0
   10.5333  -15.1171   21.7362 O   0  0  0  0  0  0  0  0  0  0  0  0
    8.0068  -12.1657   13.9244 N   0  0  0  0  0  0  0  0  0  0  0  0
    8.3118  -15.3567   22.2652 C   0  0  1  0  0  0  0  0  0  0  0  0
    8.5444  -14.7559   23.6112 C   0  0  0  0  0  0  0  0  0  0  0  0
    7.3224  -13.9171   23.8843 C   0  0  0  0  0  0  0  0  0  0  0  0
    7.2962  -13.1944   25.1393 C   0  0  0  0  0  0  0  0  0  0  0  0
    8.3558  -12.4468   25.5981 C   0  0  0  0  0  0  0  0  0  0  0  0
    8.3006  -11.7728   26.8203 C   0  0  0  0  0  0  0  0  0  0  0  0
    7.1779  -11.8308   27.6164 C   0  0  0  0  0  0  0  0  0  0  0  0
    6.1105  -12.5729   27.1723 C   0  0  0  0  0  0  0  0  0  0  0  0
    6.1693  -13.2317   25.9742 C   0  0  0  0  0  0  0  0  0  0  0  0
    8.5939  -15.8855   24.5425 O   0  0  0  0  0  0  0  0  0  0  0  0
    7.5131  -16.5173   24.7968 C   0  0  0  0  0  0  0  0  0  0  0  0
    9.9204  -19.1225   24.3183 C   0  0  2  0  0  0  0  0  0  0  0  0
   10.5475  -18.5887   25.5728 O   0  0  0  0  0  0  0  0  0  0  0  0
   11.7957  -18.0011   25.3280 C   0  0  2  0  0  0  0  0  0  0  0  0
    9.6731  -17.4759   26.1584 N   0  0  0  0  0  0  0  0  0  0  0  0
    9.7456  -16.3735   25.2082 C   0  0  0  0  0  0  0  0  0  0  0  0
   10.1593  -17.1594   27.4872 O   0  0  0  0  0  0  0  0  0  0  0  0
   10.1168  -18.1123   28.4881 O   0  0  0  0  0  0  0  0  0  0  0  0
  2  1  1  0
  3  2  2  0
  4  2  1  0
  5  4  1  0
  6  5  1  0
  7  6  1  0
  8  7  1  0
  8  9  1  6
 10 12  1  0
 10  8  1  0
 11 10  2  0
 13 21  1  0
 13 12  1  0
 13 14  1  1
 15 14  1  0
 16 15  2  0
 17 16  1  0
 18 19  1  0
 18 17  2  0
 19 20  2  0
 20 15  1  0
 21 27  1  0
 22 21  2  0
 24 25  1  0
 24 23  1  1
 24 26  1  0
 26 28  1  0
 26 27  1  1
 28 30  2  0
 28 29  1  0
M  END
$$$$
