KLL.pdb
     RDKit          3D

 26 25  0  0  1  0  0  0  0  0999 V2000
    8.2184  -18.3818   21.7371 N   0  0  0  0  0  0  0  0  0  0  0  0
    9.4203  -17.7005   21.3626 C   0  0  1  0  0  0  0  0  0  0  0  0
    9.3860  -17.4838   19.8618 C   0  0  0  0  0  0  0  0  0  0  0  0
    9.3462  -18.8589   19.2278 C   0  0  0  0  0  0  0  0  0  0  0  0
    9.7053  -18.8500   17.7795 C   0  0  0  0  0  0  0  0  0  0  0  0
    9.5120  -20.2232   17.1623 C   0  0  0  0  0  0  0  0  0  0  0  0
    9.9004  -20.2455   15.7742 N   0  0  0  0  0  0  0  0  0  0  0  0
    9.6042  -16.4256   22.1073 C   0  0  0  0  0  0  0  0  0  0  0  0
   10.5528  -15.6515   21.9300 O   0  0  0  0  0  0  0  0  0  0  0  0
    7.8177  -12.1889   24.6207 C   0  0  0  0  0  0  0  0  0  0  0  0
    7.6579  -13.3926   25.5472 C   0  0  1  0  0  0  0  0  0  0  0  0
    6.3360  -13.1567   26.2875 C   0  0  0  0  0  0  0  0  0  0  0  0
    7.5280  -14.5997   24.6850 C   0  0  0  0  0  0  0  0  0  0  0  0
    8.8011  -14.9503   23.9499 C   0  0  2  0  0  0  0  0  0  0  0  0
    8.6290  -16.0880   23.0746 N   0  0  0  0  0  0  0  0  0  0  0  0
    9.8098  -15.3109   24.9756 C   0  0  0  0  0  0  0  0  0  0  0  0
   10.9781  -14.8374   24.8544 O   0  0  0  0  0  0  0  0  0  0  0  0
    9.6012  -14.1341   29.8294 C   0  0  0  0  0  0  0  0  0  0  0  0
   10.0725  -14.4065   28.3609 C   0  0  1  0  0  0  0  0  0  0  0  0
   11.3013  -13.5679   28.1920 C   0  0  0  0  0  0  0  0  0  0  0  0
   10.2439  -15.8711   28.2935 C   0  0  0  0  0  0  0  0  0  0  0  0
   10.6260  -16.5325   27.0271 C   0  0  2  0  0  0  0  0  0  0  0  0
    9.5474  -16.1442   26.0708 N   0  0  0  0  0  0  0  0  0  0  0  0
   10.6411  -17.9899   27.0145 C   0  0  0  0  0  0  0  0  0  0  0  0
    9.6550  -18.7091   26.3720 O   0  0  0  0  0  0  0  0  0  0  0  0
   11.5433  -18.6344   27.5827 O   0  0  0  0  0  0  0  0  0  0  0  0
  2  1  1  1
  3  2  1  0
  4  5  1  0
  4  3  1  0
  5  6  1  0
  6  7  1  0
  8  2  1  0
  8 15  1  0
  9  8  2  0
 11 10  1  6
 12 11  1  0
 14 13  1  1
 13 11  1  0
 14 15  1  0
 16 14  1  0
 17 16  2  0
 19 18  1  1
 20 19  1  0
 21 19  1  0
 22 21  1  1
 22 24  1  0
 22 23  1  0
 23 16  1  0
 24 25  1  0
 26 24  2  0
M  END
$$$$
