KLL.pdb
     RDKit          3D

 26 25  0  0  1  0  0  0  0  0999 V2000
    8.8059  -18.7383   20.3511 N   0  0  0  0  0  0  0  0  0  0  0  0
   10.1178  -18.2739   20.6866 C   0  0  1  0  0  0  0  0  0  0  0  0
   10.9505  -18.2711   19.4188 C   0  0  0  0  0  0  0  0  0  0  0  0
   11.5652  -19.6506   19.3029 C   0  0  0  0  0  0  0  0  0  0  0  0
   12.5153  -19.7775   18.1592 C   0  0  0  0  0  0  0  0  0  0  0  0
   13.0620  -21.1900   18.0600 C   0  0  0  0  0  0  0  0  0  0  0  0
   14.0082  -21.3230   16.9805 N   0  0  0  0  0  0  0  0  0  0  0  0
   10.0953  -16.9391   21.3435 C   0  0  0  0  0  0  0  0  0  0  0  0
   11.0952  -16.3823   21.8130 O   0  0  0  0  0  0  0  0  0  0  0  0
    6.5460  -13.1691   19.4623 C   0  0  0  0  0  0  0  0  0  0  0  0
    7.8171  -13.8491   19.9668 C   0  0  1  0  0  0  0  0  0  0  0  0
    8.9195  -12.7922   19.8292 C   0  0  0  0  0  0  0  0  0  0  0  0
    7.6109  -14.1573   21.4090 C   0  0  0  0  0  0  0  0  0  0  0  0
    8.7388  -14.9585   22.0172 C   0  0  2  0  0  0  0  0  0  0  0  0
    8.8492  -16.2754   21.4311 N   0  0  0  0  0  0  0  0  0  0  0  0
    8.4267  -15.1238   23.4577 C   0  0  0  0  0  0  0  0  0  0  0  0
    7.4687  -15.8886   23.7757 O   0  0  0  0  0  0  0  0  0  0  0  0
    5.5169  -12.6945   26.0761 C   0  0  0  0  0  0  0  0  0  0  0  0
    7.0615  -12.7870   25.8351 C   0  0  1  0  0  0  0  0  0  0  0  0
    7.6589  -11.8174   26.8070 C   0  0  0  0  0  0  0  0  0  0  0  0
    7.3809  -14.2152   26.0284 C   0  0  0  0  0  0  0  0  0  0  0  0
    8.7731  -14.7023   25.9213 C   0  0  2  0  0  0  0  0  0  0  0  0
    9.1286  -14.4843   24.4879 N   0  0  0  0  0  0  0  0  0  0  0  0
    9.0029  -16.1216   26.1603 C   0  0  0  0  0  0  0  0  0  0  0  0
    9.0760  -17.0193   25.1156 O   0  0  0  0  0  0  0  0  0  0  0  0
    9.1405  -16.5715   27.3139 O   0  0  0  0  0  0  0  0  0  0  0  0
  2  1  1  6
  3  2  1  0
  4  5  1  0
  4  3  1  0
  5  6  1  0
  6  7  1  0
  8  2  1  0
  8 15  1  0
  9  8  2  0
 11 10  1  1
 12 11  1  0
 14 13  1  6
 13 11  1  0
 14 15  1  0
 16 14  1  0
 17 16  2  0
 19 18  1  1
 20 19  1  0
 21 19  1  0
 22 21  1  6
 22 24  1  0
 22 23  1  0
 23 16  1  0
 24 25  1  0
 26 24  2  0
M  END
$$$$
