KLL.pdb
     RDKit          3D

 26 25  0  0  1  0  0  0  0  0999 V2000
    8.1501  -18.6968   21.8493 N   0  0  0  0  0  0  0  0  0  0  0  0
    9.3671  -18.0140   21.5302 C   0  0  1  0  0  0  0  0  0  0  0  0
    9.4356  -17.8616   20.0226 C   0  0  0  0  0  0  0  0  0  0  0  0
    8.7376  -19.0704   19.4343 C   0  0  0  0  0  0  0  0  0  0  0  0
    8.7315  -19.0784   17.9422 C   0  0  0  0  0  0  0  0  0  0  0  0
    7.9106  -20.2377   17.4074 C   0  0  0  0  0  0  0  0  0  0  0  0
    7.7535  -20.1668   15.9761 N   0  0  0  0  0  0  0  0  0  0  0  0
    9.4829  -16.7060   22.2299 C   0  0  0  0  0  0  0  0  0  0  0  0
   10.4152  -15.9108   22.0600 O   0  0  0  0  0  0  0  0  0  0  0  0
    7.3388  -12.3983   24.5350 C   0  0  0  0  0  0  0  0  0  0  0  0
    7.2525  -13.6170   25.4516 C   0  0  1  0  0  0  0  0  0  0  0  0
    5.9178  -13.4689   26.1917 C   0  0  0  0  0  0  0  0  0  0  0  0
    7.1982  -14.8229   24.5797 C   0  0  0  0  0  0  0  0  0  0  0  0
    8.5146  -15.1344   23.9059 C   0  0  2  0  0  0  0  0  0  0  0  0
    8.4591  -16.3611   23.1429 N   0  0  0  0  0  0  0  0  0  0  0  0
    9.5220  -15.3092   24.9803 C   0  0  0  0  0  0  0  0  0  0  0  0
   10.2941  -14.3387   25.2366 O   0  0  0  0  0  0  0  0  0  0  0  0
   11.3217  -13.6936   27.8948 C   0  0  0  0  0  0  0  0  0  0  0  0
   10.6612  -14.7726   28.8180 C   0  0  1  0  0  0  0  0  0  0  0  0
    9.9041  -13.9870   29.8432 C   0  0  0  0  0  0  0  0  0  0  0  0
    9.8710  -15.6132   27.8970 C   0  0  0  0  0  0  0  0  0  0  0  0
   10.5370  -16.5267   26.9436 C   0  0  2  0  0  0  0  0  0  0  0  0
    9.6704  -16.4842   25.7288 N   0  0  0  0  0  0  0  0  0  0  0  0
   10.6108  -17.9353   27.3111 C   0  0  0  0  0  0  0  0  0  0  0  0
   11.7835  -18.4913   27.7780 O   0  0  0  0  0  0  0  0  0  0  0  0
    9.6192  -18.6835   27.2159 O   0  0  0  0  0  0  0  0  0  0  0  0
  2  1  1  6
  3  2  1  0
  4  5  1  0
  4  3  1  0
  5  6  1  0
  6  7  1  0
  8  2  1  0
  8 15  1  0
  9  8  2  0
 11 10  1  6
 12 11  1  0
 14 13  1  1
 13 11  1  0
 14 15  1  0
 16 14  1  0
 17 16  2  0
 19 18  1  6
 20 19  1  0
 21 19  1  0
 22 21  1  1
 22 24  1  0
 22 23  1  0
 23 16  1  0
 24 25  1  0
 26 24  2  0
M  END
$$$$
