KLL.pdb
     RDKit          3D

 26 25  0  0  1  0  0  0  0  0999 V2000
    8.2087  -17.5304   20.1945 N   0  0  0  0  0  0  0  0  0  0  0  0
    8.8735  -17.8177   21.4293 C   0  0  1  0  0  0  0  0  0  0  0  0
   10.1180  -18.6249   21.1127 C   0  0  0  0  0  0  0  0  0  0  0  0
    9.6590  -19.8355   20.3263 C   0  0  0  0  0  0  0  0  0  0  0  0
   10.7666  -20.7817   20.0026 C   0  0  0  0  0  0  0  0  0  0  0  0
   10.2611  -21.9478   19.1728 C   0  0  0  0  0  0  0  0  0  0  0  0
   11.3179  -22.8746   18.8527 N   0  0  0  0  0  0  0  0  0  0  0  0
    9.1879  -16.5864   22.2031 C   0  0  0  0  0  0  0  0  0  0  0  0
   10.2102  -15.9091   22.0402 O   0  0  0  0  0  0  0  0  0  0  0  0
    7.5511  -12.1651   24.4311 C   0  0  0  0  0  0  0  0  0  0  0  0
    7.3627  -13.2825   25.4552 C   0  0  1  0  0  0  0  0  0  0  0  0
    6.0465  -12.9541   26.1700 C   0  0  0  0  0  0  0  0  0  0  0  0
    7.2046  -14.5545   24.6974 C   0  0  0  0  0  0  0  0  0  0  0  0
    8.4504  -14.9621   23.9451 C   0  0  2  0  0  0  0  0  0  0  0  0
    8.2538  -16.1743   23.1821 N   0  0  0  0  0  0  0  0  0  0  0  0
    9.5027  -15.2241   24.9569 C   0  0  0  0  0  0  0  0  0  0  0  0
   10.5641  -14.5354   24.9044 O   0  0  0  0  0  0  0  0  0  0  0  0
    9.6406  -13.4314   28.0162 C   0  0  0  0  0  0  0  0  0  0  0  0
   10.1323  -14.5883   28.9503 C   0  0  1  0  0  0  0  0  0  0  0  0
    9.5060  -14.2992   30.2791 C   0  0  0  0  0  0  0  0  0  0  0  0
    9.7088  -15.8239   28.2624 C   0  0  0  0  0  0  0  0  0  0  0  0
   10.4133  -16.2971   27.0513 C   0  0  2  0  0  0  0  0  0  0  0  0
    9.3926  -16.1883   25.9674 N   0  0  0  0  0  0  0  0  0  0  0  0
   10.8439  -17.6895   27.0320 C   0  0  0  0  0  0  0  0  0  0  0  0
   12.0349  -18.0770   27.6098 O   0  0  0  0  0  0  0  0  0  0  0  0
   10.1524  -18.5752   26.4938 O   0  0  0  0  0  0  0  0  0  0  0  0
  2  1  1  6
  3  2  1  0
  4  5  1  0
  4  3  1  0
  5  6  1  0
  6  7  1  0
  8  2  1  0
  8 15  1  0
  9  8  2  0
 11 10  1  6
 12 11  1  0
 14 13  1  1
 13 11  1  0
 14 15  1  0
 16 14  1  0
 17 16  2  0
 19 18  1  6
 20 19  1  0
 21 19  1  0
 22 21  1  1
 22 24  1  0
 22 23  1  0
 23 16  1  0
 24 25  1  0
 26 24  2  0
M  END
$$$$
