KLL.pdb
     RDKit          3D

 26 25  0  0  1  0  0  0  0  0999 V2000
    9.0084  -19.6325   21.2529 N   0  0  0  0  0  0  0  0  0  0  0  0
   10.3267  -19.1284   21.0133 C   0  0  1  0  0  0  0  0  0  0  0  0
   10.7550  -19.5799   19.6301 C   0  0  0  0  0  0  0  0  0  0  0  0
   10.7473  -21.0945   19.6486 C   0  0  0  0  0  0  0  0  0  0  0  0
   11.2166  -21.7012   18.3686 C   0  0  0  0  0  0  0  0  0  0  0  0
   11.2299  -23.2165   18.4572 C   0  0  0  0  0  0  0  0  0  0  0  0
   11.6178  -23.8221   17.2078 N   0  0  0  0  0  0  0  0  0  0  0  0
   10.4047  -17.6507   21.1681 C   0  0  0  0  0  0  0  0  0  0  0  0
   11.4235  -16.9848   20.9463 O   0  0  0  0  0  0  0  0  0  0  0  0
    8.7622  -13.1720   19.8647 C   0  0  0  0  0  0  0  0  0  0  0  0
    7.8784  -13.4926   21.0684 C   0  0  1  0  0  0  0  0  0  0  0  0
    6.4747  -13.0184   20.6735 C   0  0  0  0  0  0  0  0  0  0  0  0
    7.8687  -14.9731   21.2278 C   0  0  0  0  0  0  0  0  0  0  0  0
    9.1939  -15.5343   21.6892 C   0  0  2  0  0  0  0  0  0  0  0  0
    9.2370  -16.9764   21.5953 N   0  0  0  0  0  0  0  0  0  0  0  0
    9.3490  -15.1642   23.1170 C   0  0  0  0  0  0  0  0  0  0  0  0
   10.4096  -14.5662   23.4655 O   0  0  0  0  0  0  0  0  0  0  0  0
    5.4333  -12.8046   25.9451 C   0  0  0  0  0  0  0  0  0  0  0  0
    6.9139  -12.9917   25.4703 C   0  0  1  0  0  0  0  0  0  0  0  0
    7.6729  -11.8895   26.1417 C   0  0  0  0  0  0  0  0  0  0  0  0
    7.2542  -14.3749   25.8578 C   0  0  0  0  0  0  0  0  0  0  0  0
    8.5666  -14.9596   25.5072 C   0  0  2  0  0  0  0  0  0  0  0  0
    8.3921  -15.4366   24.1034 N   0  0  0  0  0  0  0  0  0  0  0  0
    8.9957  -16.1326   26.2586 C   0  0  0  0  0  0  0  0  0  0  0  0
    9.6438  -16.0074   27.4697 O   0  0  0  0  0  0  0  0  0  0  0  0
    8.7925  -17.2858   25.8332 O   0  0  0  0  0  0  0  0  0  0  0  0
  2  1  1  6
  3  2  1  0
  4  5  1  0
  4  3  1  0
  5  6  1  0
  6  7  1  0
  8  2  1  0
  8 15  1  0
  9  8  2  0
 11 10  1  6
 12 11  1  0
 14 13  1  1
 13 11  1  0
 14 15  1  0
 16 14  1  0
 17 16  2  0
 19 18  1  1
 20 19  1  0
 21 19  1  0
 22 21  1  1
 22 24  1  0
 22 23  1  0
 23 16  1  0
 24 25  1  0
 26 24  2  0
M  END
$$$$
