KLL.pdb
     RDKit          3D

 26 25  0  0  1  0  0  0  0  0999 V2000
    8.7620  -18.9001   20.7678 N   0  0  0  0  0  0  0  0  0  0  0  0
    9.9486  -18.3522   20.1839 C   0  0  1  0  0  0  0  0  0  0  0  0
    9.8143  -18.4483   18.6761 C   0  0  0  0  0  0  0  0  0  0  0  0
   10.0912  -19.8915   18.3090 C   0  0  0  0  0  0  0  0  0  0  0  0
   10.0902  -20.1350   16.8368 C   0  0  0  0  0  0  0  0  0  0  0  0
   10.1766  -21.6191   16.5305 C   0  0  0  0  0  0  0  0  0  0  0  0
   10.3267  -21.8662   15.1182 N   0  0  0  0  0  0  0  0  0  0  0  0
   10.2099  -16.9584   20.6341 C   0  0  0  0  0  0  0  0  0  0  0  0
   11.2517  -16.3370   20.3916 O   0  0  0  0  0  0  0  0  0  0  0  0
    6.4315  -13.3729   19.9358 C   0  0  0  0  0  0  0  0  0  0  0  0
    7.7766  -14.0844   20.0675 C   0  0  1  0  0  0  0  0  0  0  0  0
    8.7784  -13.1889   19.3287 C   0  0  0  0  0  0  0  0  0  0  0  0
    8.1210  -14.1139   21.5159 C   0  0  0  0  0  0  0  0  0  0  0  0
    9.3456  -14.9446   21.8233 C   0  0  2  0  0  0  0  0  0  0  0  0
    9.1987  -16.3143   21.3846 N   0  0  0  0  0  0  0  0  0  0  0  0
    9.5071  -14.9514   23.2976 C   0  0  0  0  0  0  0  0  0  0  0  0
   10.5071  -14.3503   23.7900 O   0  0  0  0  0  0  0  0  0  0  0  0
    5.7522  -13.1433   26.4497 C   0  0  0  0  0  0  0  0  0  0  0  0
    7.2471  -13.3460   26.0290 C   0  0  1  0  0  0  0  0  0  0  0  0
    8.0341  -12.5365   27.0124 C   0  0  0  0  0  0  0  0  0  0  0  0
    7.4428  -14.8089   26.0535 C   0  0  0  0  0  0  0  0  0  0  0  0
    8.7353  -15.4079   25.6562 C   0  0  2  0  0  0  0  0  0  0  0  0
    8.6192  -15.5831   24.1782 N   0  0  0  0  0  0  0  0  0  0  0  0
    9.0424  -16.7349   26.1752 C   0  0  0  0  0  0  0  0  0  0  0  0
    9.5331  -16.9064   27.4528 O   0  0  0  0  0  0  0  0  0  0  0  0
    8.8727  -17.7573   25.4837 O   0  0  0  0  0  0  0  0  0  0  0  0
  2  1  1  1
  3  2  1  0
  4  5  1  0
  4  3  1  0
  5  6  1  0
  6  7  1  0
  8  2  1  0
  8 15  1  0
  9  8  2  0
 11 10  1  1
 12 11  1  0
 14 13  1  1
 13 11  1  0
 14 15  1  0
 16 14  1  0
 17 16  2  0
 19 18  1  1
 20 19  1  0
 21 19  1  0
 22 21  1  1
 22 24  1  0
 22 23  1  0
 23 16  1  0
 24 25  1  0
 26 24  2  0
M  END
$$$$
