KLL.pdb
     RDKit          3D

 26 25  0  0  1  0  0  0  0  0999 V2000
    8.9139  -19.5504   21.5467 N   0  0  0  0  0  0  0  0  0  0  0  0
   10.2543  -19.0890   21.3469 C   0  0  1  0  0  0  0  0  0  0  0  0
   10.7876  -19.7366   20.0833 C   0  0  0  0  0  0  0  0  0  0  0  0
   10.4088  -21.2015   20.1558 C   0  0  0  0  0  0  0  0  0  0  0  0
   10.7188  -21.9523   18.9041 C   0  0  0  0  0  0  0  0  0  0  0  0
   10.3213  -23.4116   19.0321 C   0  0  0  0  0  0  0  0  0  0  0  0
   10.5329  -24.1337   17.8025 N   0  0  0  0  0  0  0  0  0  0  0  0
   10.3403  -17.6046   21.2934 C   0  0  0  0  0  0  0  0  0  0  0  0
   11.3845  -16.9798   21.0708 O   0  0  0  0  0  0  0  0  0  0  0  0
    8.6647  -13.2050   19.3203 C   0  0  0  0  0  0  0  0  0  0  0  0
    7.8171  -13.4620   20.5646 C   0  0  1  0  0  0  0  0  0  0  0  0
    6.3989  -13.0218   20.1823 C   0  0  0  0  0  0  0  0  0  0  0  0
    7.8251  -14.9308   20.8091 C   0  0  0  0  0  0  0  0  0  0  0  0
    9.1218  -15.4320   21.4022 C   0  0  2  0  0  0  0  0  0  0  0  0
    9.1493  -16.8733   21.5118 N   0  0  0  0  0  0  0  0  0  0  0  0
    9.2208  -14.8674   22.7701 C   0  0  0  0  0  0  0  0  0  0  0  0
    9.6590  -13.6860   22.8965 O   0  0  0  0  0  0  0  0  0  0  0  0
    7.9205  -11.9680   26.2844 C   0  0  0  0  0  0  0  0  0  0  0  0
    7.1135  -13.3067   26.3807 C   0  0  1  0  0  0  0  0  0  0  0  0
    5.6771  -12.8857   26.4136 C   0  0  0  0  0  0  0  0  0  0  0  0
    7.5574  -14.0907   25.2113 C   0  0  0  0  0  0  0  0  0  0  0  0
    8.8051  -14.8832   25.2588 C   0  0  2  0  0  0  0  0  0  0  0  0
    8.8584  -15.5631   23.9309 N   0  0  0  0  0  0  0  0  0  0  0  0
    8.8751  -15.9577   26.2412 C   0  0  0  0  0  0  0  0  0  0  0  0
    9.5704  -15.8018   27.4222 O   0  0  0  0  0  0  0  0  0  0  0  0
    8.3107  -17.0514   26.0478 O   0  0  0  0  0  0  0  0  0  0  0  0
  2  1  1  6
  3  2  1  0
  4  5  1  0
  4  3  1  0
  5  6  1  0
  6  7  1  0
  8  2  1  0
  8 15  1  0
  9  8  2  0
 11 10  1  6
 12 11  1  0
 14 13  1  1
 13 11  1  0
 14 15  1  0
 16 14  1  0
 17 16  2  0
 19 18  1  6
 20 19  1  0
 21 19  1  0
 22 21  1  6
 22 24  1  0
 22 23  1  0
 23 16  1  0
 24 25  1  0
 26 24  2  0
M  END
$$$$
