KLL.pdb
     RDKit          3D

 26 25  0  0  1  0  0  0  0  0999 V2000
    7.3694  -18.8125   21.3130 N   0  0  0  0  0  0  0  0  0  0  0  0
    8.7542  -19.0378   21.0287 C   0  0  1  0  0  0  0  0  0  0  0  0
    8.8538  -19.6416   19.6409 C   0  0  0  0  0  0  0  0  0  0  0  0
    7.6587  -20.5587   19.4823 C   0  0  0  0  0  0  0  0  0  0  0  0
    7.4185  -20.9736   18.0692 C   0  0  0  0  0  0  0  0  0  0  0  0
    6.2332  -21.9168   17.9728 C   0  0  0  0  0  0  0  0  0  0  0  0
    5.9454  -22.2767   16.6068 N   0  0  0  0  0  0  0  0  0  0  0  0
    9.5680  -17.7990   21.1589 C   0  0  0  0  0  0  0  0  0  0  0  0
   10.7697  -17.7276   20.8742 O   0  0  0  0  0  0  0  0  0  0  0  0
    7.4692  -12.5624   21.5536 C   0  0  0  0  0  0  0  0  0  0  0  0
    7.6312  -14.0371   21.1903 C   0  0  1  0  0  0  0  0  0  0  0  0
    6.8875  -14.2069   19.8602 C   0  0  0  0  0  0  0  0  0  0  0  0
    9.0840  -14.2819   20.9741 C   0  0  0  0  0  0  0  0  0  0  0  0
    9.6368  -15.3985   21.8296 C   0  0  2  0  0  0  0  0  0  0  0  0
    8.9176  -16.6380   21.6386 N   0  0  0  0  0  0  0  0  0  0  0  0
    9.4692  -14.9858   23.2442 C   0  0  0  0  0  0  0  0  0  0  0  0
    9.9665  -13.8782   23.6045 O   0  0  0  0  0  0  0  0  0  0  0  0
    7.4732  -12.5240   26.8029 C   0  0  0  0  0  0  0  0  0  0  0  0
    6.5730  -13.7712   26.5083 C   0  0  1  0  0  0  0  0  0  0  0  0
    5.2063  -13.2084   26.2694 C   0  0  0  0  0  0  0  0  0  0  0  0
    7.2318  -14.4420   25.3703 C   0  0  0  0  0  0  0  0  0  0  0  0
    8.4890  -15.1974   25.5597 C   0  0  2  0  0  0  0  0  0  0  0  0
    8.7933  -15.7481   24.2060 N   0  0  0  0  0  0  0  0  0  0  0  0
    8.4434  -16.3566   26.4422 C   0  0  0  0  0  0  0  0  0  0  0  0
    9.0547  -16.3378   27.6785 O   0  0  0  0  0  0  0  0  0  0  0  0
    7.8523  -17.4019   26.1104 O   0  0  0  0  0  0  0  0  0  0  0  0
  2  1  1  6
  3  2  1  0
  4  5  1  0
  4  3  1  0
  5  6  1  0
  6  7  1  0
  8  2  1  0
  8 15  1  0
  9  8  2  0
 11 10  1  6
 12 11  1  0
 14 13  1  6
 13 11  1  0
 14 15  1  0
 16 14  1  0
 17 16  2  0
 19 18  1  6
 20 19  1  0
 21 19  1  0
 22 21  1  6
 22 24  1  0
 22 23  1  0
 23 16  1  0
 24 25  1  0
 26 24  2  0
M  END
$$$$
