KLL.pdb
     RDKit          3D

 26 25  0  0  1  0  0  0  0  0999 V2000
    8.0015  -19.4753   21.7118 N   0  0  0  0  0  0  0  0  0  0  0  0
    9.3864  -19.3134   21.3878 C   0  0  1  0  0  0  0  0  0  0  0  0
    9.6779  -20.1470   20.1545 C   0  0  0  0  0  0  0  0  0  0  0  0
    9.0579  -21.5077   20.3965 C   0  0  0  0  0  0  0  0  0  0  0  0
    9.3102  -22.4750   19.2887 C   0  0  0  0  0  0  0  0  0  0  0  0
    8.6464  -23.8106   19.5706 C   0  0  0  0  0  0  0  0  0  0  0  0
    8.8263  -24.7379   18.4816 N   0  0  0  0  0  0  0  0  0  0  0  0
    9.7609  -17.8859   21.1989 C   0  0  0  0  0  0  0  0  0  0  0  0
   10.8893  -17.5053   20.8640 O   0  0  0  0  0  0  0  0  0  0  0  0
    6.9732  -12.8558   19.3968 C   0  0  0  0  0  0  0  0  0  0  0  0
    8.1679  -13.3870   20.1863 C   0  0  1  0  0  0  0  0  0  0  0  0
    8.2150  -12.5385   21.4627 C   0  0  0  0  0  0  0  0  0  0  0  0
    7.8658  -14.7996   20.5479 C   0  0  0  0  0  0  0  0  0  0  0  0
    9.0202  -15.5053   21.2213 C   0  0  2  0  0  0  0  0  0  0  0  0
    8.7576  -16.9133   21.4182 N   0  0  0  0  0  0  0  0  0  0  0  0
    9.1922  -14.8811   22.5557 C   0  0  0  0  0  0  0  0  0  0  0  0
    9.8528  -13.8031   22.6283 O   0  0  0  0  0  0  0  0  0  0  0  0
    8.5022  -12.0081   26.4058 C   0  0  0  0  0  0  0  0  0  0  0  0
    7.4415  -13.1574   26.4880 C   0  0  1  0  0  0  0  0  0  0  0  0
    6.1280  -12.4552   26.6400 C   0  0  0  0  0  0  0  0  0  0  0  0
    7.6468  -13.9387   25.2524 C   0  0  0  0  0  0  0  0  0  0  0  0
    8.8764  -14.7363   25.0550 C   0  0  2  0  0  0  0  0  0  0  0  0
    8.6674  -15.4130   23.7408 N   0  0  0  0  0  0  0  0  0  0  0  0
    9.1313  -15.8137   26.0030 C   0  0  0  0  0  0  0  0  0  0  0  0
    8.5376  -17.0500   25.8562 O   0  0  0  0  0  0  0  0  0  0  0  0
    9.8925  -15.6549   26.9765 O   0  0  0  0  0  0  0  0  0  0  0  0
  2  1  1  6
  3  2  1  0
  4  5  1  0
  4  3  1  0
  5  6  1  0
  6  7  1  0
  8  2  1  0
  8 15  1  0
  9  8  2  0
 11 10  1  6
 12 11  1  0
 14 13  1  1
 13 11  1  0
 14 15  1  0
 16 14  1  0
 17 16  2  0
 19 18  1  6
 20 19  1  0
 21 19  1  0
 22 21  1  1
 22 24  1  0
 22 23  1  0
 23 16  1  0
 24 25  1  0
 26 24  2  0
M  END
$$$$
