KLL.pdb
     RDKit          3D

 26 25  0  0  1  0  0  0  0  0999 V2000
    9.0134  -19.5379   21.6505 N   0  0  0  0  0  0  0  0  0  0  0  0
   10.2390  -19.0572   21.0884 C   0  0  1  0  0  0  0  0  0  0  0  0
   10.3396  -19.5827   19.6691 C   0  0  0  0  0  0  0  0  0  0  0  0
   10.6118  -21.0688   19.7772 C   0  0  0  0  0  0  0  0  0  0  0  0
   10.7644  -21.7372   18.4518 C   0  0  0  0  0  0  0  0  0  0  0  0
   10.9778  -23.2309   18.6168 C   0  0  0  0  0  0  0  0  0  0  0  0
   11.1482  -23.8907   17.3464 N   0  0  0  0  0  0  0  0  0  0  0  0
   10.3443  -17.5741   21.1441 C   0  0  0  0  0  0  0  0  0  0  0  0
   11.3768  -16.9438   20.8853 O   0  0  0  0  0  0  0  0  0  0  0  0
    8.7916  -12.9143   19.8735 C   0  0  0  0  0  0  0  0  0  0  0  0
    7.8503  -13.3491   20.9949 C   0  0  1  0  0  0  0  0  0  0  0  0
    6.4592  -12.8747   20.5580 C   0  0  0  0  0  0  0  0  0  0  0  0
    7.8699  -14.8375   21.0362 C   0  0  0  0  0  0  0  0  0  0  0  0
    9.1783  -15.4054   21.5360 C   0  0  2  0  0  0  0  0  0  0  0  0
    9.1872  -16.8509   21.5169 N   0  0  0  0  0  0  0  0  0  0  0  0
    9.3331  -14.9657   22.9440 C   0  0  0  0  0  0  0  0  0  0  0  0
   10.1159  -13.9994   23.1836 O   0  0  0  0  0  0  0  0  0  0  0  0
    5.5574  -13.1377   25.9460 C   0  0  0  0  0  0  0  0  0  0  0  0
    7.0351  -13.2087   25.4321 C   0  0  1  0  0  0  0  0  0  0  0  0
    7.7265  -12.0589   26.0965 C   0  0  0  0  0  0  0  0  0  0  0  0
    7.4878  -14.5660   25.7955 C   0  0  0  0  0  0  0  0  0  0  0  0
    8.8355  -15.0427   25.4166 C   0  0  2  0  0  0  0  0  0  0  0  0
    8.6651  -15.5556   24.0250 N   0  0  0  0  0  0  0  0  0  0  0  0
    9.3832  -16.1625   26.1720 C   0  0  0  0  0  0  0  0  0  0  0  0
    9.6597  -17.3684   25.5623 O   0  0  0  0  0  0  0  0  0  0  0  0
    9.6194  -16.0687   27.3917 O   0  0  0  0  0  0  0  0  0  0  0  0
  2  1  1  6
  3  2  1  0
  4  5  1  0
  4  3  1  0
  5  6  1  0
  6  7  1  0
  8  2  1  0
  8 15  1  0
  9  8  2  0
 11 10  1  6
 12 11  1  0
 14 13  1  1
 13 11  1  0
 14 15  1  0
 16 14  1  0
 17 16  2  0
 19 18  1  1
 20 19  1  0
 21 19  1  0
 22 21  1  1
 22 24  1  0
 22 23  1  0
 23 16  1  0
 24 25  1  0
 26 24  2  0
M  END
$$$$
