KLL.pdb
     RDKit          3D

 26 25  0  0  1  0  0  0  0  0999 V2000
    7.2871  -16.7777   21.7418 N   0  0  0  0  0  0  0  0  0  0  0  0
    8.2210  -15.7113   21.5425 C   0  0  1  0  0  0  0  0  0  0  0  0
    7.5353  -14.6378   20.7192 C   0  0  0  0  0  0  0  0  0  0  0  0
    8.2999  -14.5392   19.4153 C   0  0  0  0  0  0  0  0  0  0  0  0
    7.5557  -13.8051   18.3505 C   0  0  0  0  0  0  0  0  0  0  0  0
    8.3915  -13.6803   17.0896 C   0  0  0  0  0  0  0  0  0  0  0  0
    7.6368  -13.1103   16.0016 N   0  0  0  0  0  0  0  0  0  0  0  0
    8.7531  -15.1773   22.8252 C   0  0  0  0  0  0  0  0  0  0  0  0
    9.8667  -14.6523   22.9471 O   0  0  0  0  0  0  0  0  0  0  0  0
    5.4696  -12.8227   26.7541 C   0  0  0  0  0  0  0  0  0  0  0  0
    6.6309  -13.0776   25.7953 C   0  0  1  0  0  0  0  0  0  0  0  0
    7.6569  -11.9816   26.1072 C   0  0  0  0  0  0  0  0  0  0  0  0
    7.2096  -14.4043   26.1449 C   0  0  0  0  0  0  0  0  0  0  0  0
    8.3677  -14.8043   25.2602 C   0  0  2  0  0  0  0  0  0  0  0  0
    7.9270  -15.2816   23.9687 N   0  0  0  0  0  0  0  0  0  0  0  0
    9.0720  -15.9168   25.9429 C   0  0  0  0  0  0  0  0  0  0  0  0
    8.5619  -17.0741   25.8772 O   0  0  0  0  0  0  0  0  0  0  0  0
   14.4742  -15.6517   26.4578 C   0  0  0  0  0  0  0  0  0  0  0  0
   13.0371  -16.0859   26.0120 C   0  0  1  0  0  0  0  0  0  0  0  0
   13.2614  -17.0983   24.9320 C   0  0  0  0  0  0  0  0  0  0  0  0
   12.3923  -16.5588   27.2529 C   0  0  0  0  0  0  0  0  0  0  0  0
   10.9622  -16.9351   27.2685 C   0  0  2  0  0  0  0  0  0  0  0  0
   10.2681  -15.7639   26.6562 N   0  0  0  0  0  0  0  0  0  0  0  0
   10.3340  -17.1128   28.5717 C   0  0  0  0  0  0  0  0  0  0  0  0
   10.5273  -18.2637   29.3070 O   0  0  0  0  0  0  0  0  0  0  0  0
    9.6024  -16.2331   29.0648 O   0  0  0  0  0  0  0  0  0  0  0  0
  2  1  1  1
  3  2  1  0
  4  5  1  0
  4  3  1  0
  5  6  1  0
  6  7  1  0
  8  2  1  0
  8 15  1  0
  9  8  2  0
 11 10  1  1
 12 11  1  0
 14 13  1  1
 13 11  1  0
 14 15  1  0
 16 14  1  0
 17 16  2  0
 19 18  1  1
 20 19  1  0
 21 19  1  0
 22 21  1  1
 22 24  1  0
 22 23  1  0
 23 16  1  0
 24 25  1  0
 26 24  2  0
M  END
$$$$
