KLL.pdb
     RDKit          3D

 26 25  0  0  1  0  0  0  0  0999 V2000
    7.4207  -18.6768   21.5135 N   0  0  0  0  0  0  0  0  0  0  0  0
    8.7874  -18.6497   21.0884 C   0  0  1  0  0  0  0  0  0  0  0  0
    8.8336  -19.0870   19.6367 C   0  0  0  0  0  0  0  0  0  0  0  0
    8.7231  -20.5977   19.6371 C   0  0  0  0  0  0  0  0  0  0  0  0
    9.6959  -21.2592   18.7191 C   0  0  0  0  0  0  0  0  0  0  0  0
    9.4112  -22.7457   18.6039 C   0  0  0  0  0  0  0  0  0  0  0  0
   10.3371  -23.4005   17.7138 N   0  0  0  0  0  0  0  0  0  0  0  0
    9.4173  -17.3171   21.2911 C   0  0  0  0  0  0  0  0  0  0  0  0
   10.6237  -17.0915   21.1362 O   0  0  0  0  0  0  0  0  0  0  0  0
    6.6933  -12.8917   19.7980 C   0  0  0  0  0  0  0  0  0  0  0  0
    7.8039  -13.9104   20.0467 C   0  0  1  0  0  0  0  0  0  0  0  0
    8.9953  -13.4159   19.2177 C   0  0  0  0  0  0  0  0  0  0  0  0
    8.1510  -13.8414   21.4931 C   0  0  0  0  0  0  0  0  0  0  0  0
    9.1052  -14.9280   21.9324 C   0  0  2  0  0  0  0  0  0  0  0  0
    8.5759  -16.2503   21.6848 N   0  0  0  0  0  0  0  0  0  0  0  0
    9.2918  -14.7767   23.3959 C   0  0  0  0  0  0  0  0  0  0  0  0
   10.0962  -13.8883   23.8052 O   0  0  0  0  0  0  0  0  0  0  0  0
    5.6619  -13.1395   26.3380 C   0  0  0  0  0  0  0  0  0  0  0  0
    7.1638  -13.2957   25.9228 C   0  0  1  0  0  0  0  0  0  0  0  0
    7.8906  -12.2564   26.7185 C   0  0  0  0  0  0  0  0  0  0  0  0
    7.4822  -14.7079   26.2122 C   0  0  0  0  0  0  0  0  0  0  0  0
    8.7823  -15.2892   25.8136 C   0  0  2  0  0  0  0  0  0  0  0  0
    8.6313  -15.5582   24.3530 N   0  0  0  0  0  0  0  0  0  0  0  0
    9.1475  -16.5716   26.4023 C   0  0  0  0  0  0  0  0  0  0  0  0
    9.5844  -16.6599   27.7076 O   0  0  0  0  0  0  0  0  0  0  0  0
    9.0779  -17.6295   25.7479 O   0  0  0  0  0  0  0  0  0  0  0  0
  2  1  1  6
  3  2  1  0
  4  5  1  0
  4  3  1  0
  5  6  1  0
  6  7  1  0
  8  2  1  0
  8 15  1  0
  9  8  2  0
 11 10  1  1
 12 11  1  0
 14 13  1  1
 13 11  1  0
 14 15  1  0
 16 14  1  0
 17 16  2  0
 19 18  1  1
 20 19  1  0
 21 19  1  0
 22 21  1  1
 22 24  1  0
 22 23  1  0
 23 16  1  0
 24 25  1  0
 26 24  2  0
M  END
$$$$
