KLL.pdb
     RDKit          3D

 26 25  0  0  1  0  0  0  0  0999 V2000
    7.5583  -14.8723   20.1259 N   0  0  0  0  0  0  0  0  0  0  0  0
    8.2074  -15.8703   20.9208 C   0  0  1  0  0  0  0  0  0  0  0  0
    9.2439  -16.5576   20.0525 C   0  0  0  0  0  0  0  0  0  0  0  0
    8.7215  -17.9528   19.7787 C   0  0  0  0  0  0  0  0  0  0  0  0
    9.6928  -18.8104   19.0386 C   0  0  0  0  0  0  0  0  0  0  0  0
    9.1474  -20.2146   18.8526 C   0  0  0  0  0  0  0  0  0  0  0  0
   10.0788  -21.0618   18.1505 N   0  0  0  0  0  0  0  0  0  0  0  0
    8.8031  -15.3066   22.1622 C   0  0  0  0  0  0  0  0  0  0  0  0
    9.8855  -14.7087   22.2003 O   0  0  0  0  0  0  0  0  0  0  0  0
    5.5521  -12.8414   25.9252 C   0  0  0  0  0  0  0  0  0  0  0  0
    6.6681  -13.1843   24.9404 C   0  0  1  0  0  0  0  0  0  0  0  0
    7.6388  -11.9990   25.0051 C   0  0  0  0  0  0  0  0  0  0  0  0
    7.3501  -14.4047   25.4529 C   0  0  0  0  0  0  0  0  0  0  0  0
    8.5141  -14.8449   24.5953 C   0  0  2  0  0  0  0  0  0  0  0  0
    8.0793  -15.4701   23.3664 N   0  0  0  0  0  0  0  0  0  0  0  0
    9.2734  -15.8513   25.3766 C   0  0  0  0  0  0  0  0  0  0  0  0
    9.4363  -17.0001   24.8693 O   0  0  0  0  0  0  0  0  0  0  0  0
    9.6211  -14.1207   29.1338 C   0  0  0  0  0  0  0  0  0  0  0  0
   11.0855  -14.4993   28.7279 C   0  0  1  0  0  0  0  0  0  0  0  0
   11.9436  -13.9232   29.8111 C   0  0  0  0  0  0  0  0  0  0  0  0
   11.0645  -15.9697   28.5979 C   0  0  0  0  0  0  0  0  0  0  0  0
   10.6927  -16.6126   27.3190 C   0  0  2  0  0  0  0  0  0  0  0  0
    9.8213  -15.6068   26.6427 N   0  0  0  0  0  0  0  0  0  0  0  0
    9.8892  -17.8265   27.3922 C   0  0  0  0  0  0  0  0  0  0  0  0
    8.5325  -17.8012   27.1444 O   0  0  0  0  0  0  0  0  0  0  0  0
   10.3993  -18.9259   27.6807 O   0  0  0  0  0  0  0  0  0  0  0  0
  2  1  1  6
  3  2  1  0
  4  5  1  0
  4  3  1  0
  5  6  1  0
  6  7  1  0
  8  2  1  0
  8 15  1  0
  9  8  2  0
 11 10  1  1
 12 11  1  0
 14 13  1  1
 13 11  1  0
 14 15  1  0
 16 14  1  0
 17 16  2  0
 19 18  1  1
 20 19  1  0
 21 19  1  0
 22 21  1  1
 22 24  1  0
 22 23  1  0
 23 16  1  0
 24 25  1  0
 26 24  2  0
M  END
$$$$
