KLL.pdb
     RDKit          3D

 26 25  0  0  1  0  0  0  0  0999 V2000
    8.4879  -15.3220   20.5231 N   0  0  0  0  0  0  0  0  0  0  0  0
    7.9218  -15.8130   21.7428 C   0  0  1  0  0  0  0  0  0  0  0  0
    8.0304  -17.3259   21.7322 C   0  0  0  0  0  0  0  0  0  0  0  0
    7.5183  -17.7861   20.3830 C   0  0  0  0  0  0  0  0  0  0  0  0
    7.4533  -19.2713   20.2533 C   0  0  0  0  0  0  0  0  0  0  0  0
    6.9239  -19.6759   18.8896 C   0  0  0  0  0  0  0  0  0  0  0  0
    7.9375  -20.3195   18.0915 N   0  0  0  0  0  0  0  0  0  0  0  0
    8.5622  -15.2152   22.9454 C   0  0  0  0  0  0  0  0  0  0  0  0
    9.7671  -14.9467   23.0262 O   0  0  0  0  0  0  0  0  0  0  0  0
    5.5692  -12.0215   26.4587 C   0  0  0  0  0  0  0  0  0  0  0  0
    6.6288  -12.5671   25.5036 C   0  0  1  0  0  0  0  0  0  0  0  0
    7.6846  -11.4599   25.4003 C   0  0  0  0  0  0  0  0  0  0  0  0
    7.2346  -13.7629   26.1520 C   0  0  0  0  0  0  0  0  0  0  0  0
    8.2818  -14.4407   25.2987 C   0  0  2  0  0  0  0  0  0  0  0  0
    7.7332  -14.9411   24.0583 N   0  0  0  0  0  0  0  0  0  0  0  0
    8.7910  -15.5983   26.0736 C   0  0  0  0  0  0  0  0  0  0  0  0
    7.9565  -16.4676   26.4632 O   0  0  0  0  0  0  0  0  0  0  0  0
   11.8982  -16.5448   24.6131 C   0  0  0  0  0  0  0  0  0  0  0  0
   12.3063  -17.6837   25.6077 C   0  0  1  0  0  0  0  0  0  0  0  0
   13.7522  -17.9435   25.3189 C   0  0  0  0  0  0  0  0  0  0  0  0
   11.9735  -17.1462   26.9416 C   0  0  0  0  0  0  0  0  0  0  0  0
   10.5698  -16.8795   27.3232 C   0  0  2  0  0  0  0  0  0  0  0  0
   10.1401  -15.7875   26.4004 N   0  0  0  0  0  0  0  0  0  0  0  0
   10.3306  -16.3620   28.6647 C   0  0  0  0  0  0  0  0  0  0  0  0
   10.4382  -17.1750   29.7737 O   0  0  0  0  0  0  0  0  0  0  0  0
   10.0211  -15.1703   28.8549 O   0  0  0  0  0  0  0  0  0  0  0  0
  2  1  1  6
  3  2  1  0
  4  5  1  0
  4  3  1  0
  5  6  1  0
  6  7  1  0
  8  2  1  0
  8 15  1  0
  9  8  2  0
 11 10  1  1
 12 11  1  0
 14 13  1  1
 13 11  1  0
 14 15  1  0
 16 14  1  0
 17 16  2  0
 19 18  1  6
 20 19  1  0
 21 19  1  0
 22 21  1  1
 22 24  1  0
 22 23  1  0
 23 16  1  0
 24 25  1  0
 26 24  2  0
M  END
$$$$
