KLL.pdb
     RDKit          3D

 26 25  0  0  1  0  0  0  0  0999 V2000
    7.3746  -17.6850   21.8543 N   0  0  0  0  0  0  0  0  0  0  0  0
    8.5121  -17.0027   21.3158 C   0  0  1  0  0  0  0  0  0  0  0  0
    8.1682  -16.5627   19.9056 C   0  0  0  0  0  0  0  0  0  0  0  0
    7.8550  -17.8223   19.1245 C   0  0  0  0  0  0  0  0  0  0  0  0
    7.8870  -17.6215   17.6463 C   0  0  0  0  0  0  0  0  0  0  0  0
    7.5656  -18.9119   16.9146 C   0  0  0  0  0  0  0  0  0  0  0  0
    7.7105  -18.7684   15.4875 N   0  0  0  0  0  0  0  0  0  0  0  0
    8.9437  -15.8618   22.1677 C   0  0  0  0  0  0  0  0  0  0  0  0
    9.9179  -15.1415   21.9175 O   0  0  0  0  0  0  0  0  0  0  0  0
    7.6171  -11.6431   25.1285 C   0  0  0  0  0  0  0  0  0  0  0  0
    7.4999  -12.9366   25.9321 C   0  0  1  0  0  0  0  0  0  0  0  0
    6.2752  -12.7397   26.8336 C   0  0  0  0  0  0  0  0  0  0  0  0
    7.2247  -14.0346   24.9646 C   0  0  0  0  0  0  0  0  0  0  0  0
    8.4257  -14.4099   24.1274 C   0  0  2  0  0  0  0  0  0  0  0  0
    8.1868  -15.5934   23.3321 N   0  0  0  0  0  0  0  0  0  0  0  0
    9.5346  -14.7063   25.0667 C   0  0  0  0  0  0  0  0  0  0  0  0
   10.2037  -13.7333   25.5242 O   0  0  0  0  0  0  0  0  0  0  0  0
    9.8090  -15.0197   29.7382 C   0  0  0  0  0  0  0  0  0  0  0  0
   10.1223  -14.7749   28.2234 C   0  0  1  0  0  0  0  0  0  0  0  0
   11.1293  -13.6669   28.2156 C   0  0  0  0  0  0  0  0  0  0  0  0
   10.5662  -16.0899   27.7206 C   0  0  0  0  0  0  0  0  0  0  0  0
   11.0793  -16.2409   26.3418 C   0  0  2  0  0  0  0  0  0  0  0  0
    9.8860  -15.9986   25.4781 N   0  0  0  0  0  0  0  0  0  0  0  0
   11.5706  -17.5572   25.9540 C   0  0  0  0  0  0  0  0  0  0  0  0
   10.8842  -18.3372   25.0468 O   0  0  0  0  0  0  0  0  0  0  0  0
   12.6250  -18.0218   26.4279 O   0  0  0  0  0  0  0  0  0  0  0  0
  2  1  1  1
  3  2  1  0
  4  5  1  0
  4  3  1  0
  5  6  1  0
  6  7  1  0
  8  2  1  0
  8 15  1  0
  9  8  2  0
 11 10  1  6
 12 11  1  0
 14 13  1  1
 13 11  1  0
 14 15  1  0
 16 14  1  0
 17 16  2  0
 19 18  1  1
 20 19  1  0
 21 19  1  0
 22 21  1  1
 22 24  1  0
 22 23  1  0
 23 16  1  0
 24 25  1  0
 26 24  2  0
M  END
$$$$
