KQW.pdb
     RDKit          3D

 33 34  0  0  1  0  0  0  0  0999 V2000
   25.4757  -18.1129  -16.0274 N   0  0  0  0  0  0  0  0  0  0  0  0
   26.4023  -18.6352  -15.0926 C   0  0  1  0  0  0  0  0  0  0  0  0
   27.5809  -17.7941  -14.7402 C   0  0  0  0  0  0  0  0  0  0  0  0
   28.6350  -17.6169  -15.7536 C   0  0  0  0  0  0  0  0  0  0  0  0
   28.9099  -18.7244  -16.6992 C   0  0  0  0  0  0  0  0  0  0  0  0
   30.0705  -18.5402  -17.6167 C   0  0  0  0  0  0  0  0  0  0  0  0
   30.3545  -19.7048  -18.4032 N   0  0  0  0  0  0  0  0  0  0  0  0
   25.7545  -19.1860  -13.8713 C   0  0  0  0  0  0  0  0  0  0  0  0
   24.9911  -18.4052  -13.2464 O   0  0  0  0  0  0  0  0  0  0  0  0
   24.0538  -24.5181  -14.2597 N   0  0  0  0  0  0  0  0  0  0  0  0
   23.1943  -23.3974  -14.3956 C   0  0  0  0  0  0  0  0  0  0  0  0
   22.2738  -23.4692  -15.2374 O   0  0  0  0  0  0  0  0  0  0  0  0
   23.3875  -22.1892  -13.5678 C   0  0  0  0  0  0  0  0  0  0  0  0
   24.5228  -22.2685  -12.5952 C   0  0  0  0  0  0  0  0  0  0  0  0
   25.1668  -20.9671  -12.2641 C   0  0  2  0  0  0  0  0  0  0  0  0
   25.9387  -20.4775  -13.3918 N   0  0  0  0  0  0  0  0  0  0  0  0
   26.0564  -21.0219  -11.0758 C   0  0  0  0  0  0  0  0  0  0  0  0
   27.2982  -21.0429  -11.2472 O   0  0  0  0  0  0  0  0  0  0  0  0
   25.5758  -21.0527   -9.7396 N   0  0  0  0  0  0  0  0  0  0  0  0
   26.5017  -21.2094   -8.6555 C   0  0  1  0  0  0  0  0  0  0  0  0
   27.4899  -20.0990   -8.5153 C   0  0  0  0  0  0  0  0  0  0  0  0
   28.4759  -20.3143   -7.4250 C   0  0  0  0  0  0  0  0  0  0  0  0
   29.4376  -21.3209   -7.4071 C   0  0  0  0  0  0  0  0  0  0  0  0
   30.1654  -21.2252   -6.2688 N   0  0  0  0  0  0  0  0  0  0  0  0
   29.7163  -20.1905   -5.5368 C   0  0  0  0  0  0  0  0  0  0  0  0
   30.0903  -19.6511   -4.3086 C   0  0  0  0  0  0  0  0  0  0  0  0
   29.4236  -18.5559   -3.7997 C   0  0  0  0  0  0  0  0  0  0  0  0
   28.3783  -18.0071   -4.5343 C   0  0  0  0  0  0  0  0  0  0  0  0
   27.9984  -18.5279   -5.7462 C   0  0  0  0  0  0  0  0  0  0  0  0
   28.6671  -19.6233   -6.2528 C   0  0  0  0  0  0  0  0  0  0  0  0
   25.7700  -21.3110   -7.3392 C   0  0  0  0  0  0  0  0  0  0  0  0
   24.7703  -20.5606   -7.2041 O   0  0  0  0  0  0  0  0  0  0  0  0
   26.2065  -22.1910   -6.3654 O   0  0  0  0  0  0  0  0  0  0  0  0
  2  1  1  1
  2  3  1  0
  4  3  1  0
  4  5  1  0
  5  6  1  0
  6  7  1  0
  8  9  2  0
  8  2  1  0
 10 11  1  0
 11 13  1  0
 12 11  2  0
 13 14  1  0
 15 14  1  6
 15 16  1  0
 16  8  1  0
 17 15  1  0
 17 19  1  0
 18 17  2  0
 20 19  1  0
 20 31  1  0
 20 21  1  1
 22 21  1  0
 22 30  1  0
 23 24  1  0
 23 22  2  0
 24 25  1  0
 25 26  1  0
 25 30  2  0
 26 27  2  0
 27 28  1  0
 29 28  2  0
 30 29  1  0
 31 32  2  0
 31 33  1  0
M  END
$$$$
