KQW.pdb
     RDKit          3D

 33 34  0  0  1  0  0  0  0  0999 V2000
   27.3737  -19.9488  -19.1618 N   0  0  0  0  0  0  0  0  0  0  0  0
   27.4726  -19.4990  -17.8227 C   0  0  1  0  0  0  0  0  0  0  0  0
   27.4771  -18.0281  -17.5836 C   0  0  0  0  0  0  0  0  0  0  0  0
   28.7701  -17.3236  -17.6158 C   0  0  0  0  0  0  0  0  0  0  0  0
   30.0101  -18.1148  -17.7970 C   0  0  0  0  0  0  0  0  0  0  0  0
   31.2923  -17.3549  -17.7630 C   0  0  0  0  0  0  0  0  0  0  0  0
   31.1714  -16.0263  -18.2880 N   0  0  0  0  0  0  0  0  0  0  0  0
   26.5269  -20.1872  -16.9025 C   0  0  0  0  0  0  0  0  0  0  0  0
   25.3146  -19.8691  -17.0111 O   0  0  0  0  0  0  0  0  0  0  0  0
   25.1342  -25.8125  -16.0533 N   0  0  0  0  0  0  0  0  0  0  0  0
   26.3945  -25.2511  -16.3843 C   0  0  0  0  0  0  0  0  0  0  0  0
   27.2237  -25.9847  -16.9636 O   0  0  0  0  0  0  0  0  0  0  0  0
   26.7099  -23.8468  -16.0515 C   0  0  0  0  0  0  0  0  0  0  0  0
   25.6032  -23.0967  -15.3781 C   0  0  0  0  0  0  0  0  0  0  0  0
   25.9136  -21.6814  -15.0338 C   0  0  2  0  0  0  0  0  0  0  0  0
   26.8940  -21.1349  -15.9542 N   0  0  0  0  0  0  0  0  0  0  0  0
   26.4172  -21.4963  -13.6486 C   0  0  0  0  0  0  0  0  0  0  0  0
   27.6317  -21.6982  -13.4119 O   0  0  0  0  0  0  0  0  0  0  0  0
   25.5921  -21.0994  -12.5628 N   0  0  0  0  0  0  0  0  0  0  0  0
   26.0844  -21.2082  -11.2201 C   0  0  1  0  0  0  0  0  0  0  0  0
   26.8497  -20.0197  -10.7393 C   0  0  0  0  0  0  0  0  0  0  0  0
   27.1060  -20.0294   -9.2759 C   0  0  0  0  0  0  0  0  0  0  0  0
   26.1446  -19.7951   -8.2966 C   0  0  0  0  0  0  0  0  0  0  0  0
   26.7205  -19.8804   -7.0736 N   0  0  0  0  0  0  0  0  0  0  0  0
   28.0277  -20.1628   -7.2139 C   0  0  0  0  0  0  0  0  0  0  0  0
   29.0690  -20.3567   -6.3099 C   0  0  0  0  0  0  0  0  0  0  0  0
   30.3397  -20.6407   -6.7655 C   0  0  0  0  0  0  0  0  0  0  0  0
   30.5558  -20.7283   -8.1362 C   0  0  0  0  0  0  0  0  0  0  0  0
   29.5394  -20.5397   -9.0392 C   0  0  0  0  0  0  0  0  0  0  0  0
   28.2694  -20.2558   -8.5807 C   0  0  0  0  0  0  0  0  0  0  0  0
   24.9471  -21.4165  -10.2498 C   0  0  0  0  0  0  0  0  0  0  0  0
   23.8562  -20.8697  -10.5525 O   0  0  0  0  0  0  0  0  0  0  0  0
   25.1361  -22.1717   -9.1065 O   0  0  0  0  0  0  0  0  0  0  0  0
  2  1  1  6
  2  3  1  0
  4  3  1  0
  4  5  1  0
  5  6  1  0
  6  7  1  0
  8  9  2  0
  8  2  1  0
 10 11  1  0
 11 13  1  0
 12 11  2  0
 13 14  1  0
 15 14  1  6
 15 16  1  0
 16  8  1  0
 17 15  1  0
 17 19  1  0
 18 17  2  0
 20 19  1  0
 20 31  1  0
 20 21  1  1
 22 21  1  0
 22 30  1  0
 23 24  1  0
 23 22  2  0
 24 25  1  0
 25 26  1  0
 25 30  2  0
 26 27  2  0
 27 28  1  0
 29 28  2  0
 30 29  1  0
 31 32  2  0
 31 33  1  0
M  END
$$$$
