KQW.pdb
     RDKit          3D

 33 34  0  0  1  0  0  0  0  0999 V2000
   25.5584  -18.8589  -19.4975 N   0  0  0  0  0  0  0  0  0  0  0  0
   25.4456  -18.3305  -18.1886 C   0  0  1  0  0  0  0  0  0  0  0  0
   24.5740  -17.1373  -17.9951 C   0  0  0  0  0  0  0  0  0  0  0  0
   24.8511  -15.9371  -18.8026 C   0  0  0  0  0  0  0  0  0  0  0  0
   25.9980  -15.0753  -18.4305 C   0  0  0  0  0  0  0  0  0  0  0  0
   26.2427  -13.8868  -19.2967 C   0  0  0  0  0  0  0  0  0  0  0  0
   25.6493  -12.6867  -18.7837 N   0  0  0  0  0  0  0  0  0  0  0  0
   25.1661  -19.3690  -17.1600 C   0  0  0  0  0  0  0  0  0  0  0  0
   24.5004  -20.3656  -17.5425 O   0  0  0  0  0  0  0  0  0  0  0  0
   25.1819  -24.0239  -12.6906 N   0  0  0  0  0  0  0  0  0  0  0  0
   25.8998  -23.0789  -13.4684 C   0  0  0  0  0  0  0  0  0  0  0  0
   26.3226  -23.4464  -14.5853 O   0  0  0  0  0  0  0  0  0  0  0  0
   26.1370  -21.7093  -12.9683 C   0  0  0  0  0  0  0  0  0  0  0  0
   26.4037  -20.6895  -14.0311 C   0  0  0  0  0  0  0  0  0  0  0  0
   25.2387  -20.3556  -14.8968 C   0  0  2  0  0  0  0  0  0  0  0  0
   25.5849  -19.3045  -15.8362 N   0  0  0  0  0  0  0  0  0  0  0  0
   24.0316  -19.9309  -14.1424 C   0  0  0  0  0  0  0  0  0  0  0  0
   24.0474  -18.8313  -13.5402 O   0  0  0  0  0  0  0  0  0  0  0  0
   22.8456  -20.7082  -14.0624 N   0  0  0  0  0  0  0  0  0  0  0  0
   21.7025  -20.1900  -13.3680 C   0  0  1  0  0  0  0  0  0  0  0  0
   21.1621  -18.9139  -13.9237 C   0  0  0  0  0  0  0  0  0  0  0  0
   20.7860  -19.0019  -15.3583 C   0  0  0  0  0  0  0  0  0  0  0  0
   19.9421  -19.9656  -15.9036 C   0  0  0  0  0  0  0  0  0  0  0  0
   19.8166  -19.7500  -17.2349 N   0  0  0  0  0  0  0  0  0  0  0  0
   20.5487  -18.6777  -17.5849 C   0  0  0  0  0  0  0  0  0  0  0  0
   20.7778  -18.0267  -18.7944 C   0  0  0  0  0  0  0  0  0  0  0  0
   21.6009  -16.9207  -18.8422 C   0  0  0  0  0  0  0  0  0  0  0  0
   22.1918  -16.4742  -17.6655 C   0  0  0  0  0  0  0  0  0  0  0  0
   21.9754  -17.1056  -16.4661 C   0  0  0  0  0  0  0  0  0  0  0  0
   21.1516  -18.2115  -16.4212 C   0  0  0  0  0  0  0  0  0  0  0  0
   20.5699  -21.1877  -13.3854 C   0  0  0  0  0  0  0  0  0  0  0  0
   20.7747  -22.2438  -14.0362 O   0  0  0  0  0  0  0  0  0  0  0  0
   19.3926  -20.9171  -12.7119 O   0  0  0  0  0  0  0  0  0  0  0  0
  2  1  1  6
  2  3  1  0
  4  3  1  0
  4  5  1  0
  5  6  1  0
  6  7  1  0
  8  9  2  0
  8  2  1  0
 10 11  1  0
 11 13  1  0
 12 11  2  0
 13 14  1  0
 15 14  1  1
 15 16  1  0
 16  8  1  0
 17 15  1  0
 17 19  1  0
 18 17  2  0
 20 19  1  0
 20 31  1  0
 20 21  1  6
 22 21  1  0
 22 30  1  0
 23 24  1  0
 23 22  2  0
 24 25  1  0
 25 26  1  0
 25 30  2  0
 26 27  2  0
 27 28  1  0
 29 28  2  0
 30 29  1  0
 31 32  2  0
 31 33  1  0
M  END
$$$$
