KQW.pdb
     RDKit          3D

 33 34  0  0  1  0  0  0  0  0999 V2000
   29.3097  -25.1275  -17.2552 N   0  0  0  0  0  0  0  0  0  0  0  0
   28.1962  -24.5188  -17.8837 C   0  0  1  0  0  0  0  0  0  0  0  0
   27.0694  -25.3993  -18.3028 C   0  0  0  0  0  0  0  0  0  0  0  0
   27.3625  -26.5108  -19.2236 C   0  0  0  0  0  0  0  0  0  0  0  0
   27.6238  -26.2062  -20.6503 C   0  0  0  0  0  0  0  0  0  0  0  0
   27.8650  -27.3747  -21.5443 C   0  0  0  0  0  0  0  0  0  0  0  0
   28.1045  -26.9987  -22.9069 N   0  0  0  0  0  0  0  0  0  0  0  0
   27.6962  -23.3205  -17.1565 C   0  0  0  0  0  0  0  0  0  0  0  0
   27.3122  -23.5081  -15.9732 O   0  0  0  0  0  0  0  0  0  0  0  0
   29.9734  -20.7901  -18.8435 N   0  0  0  0  0  0  0  0  0  0  0  0
   29.1015  -19.7975  -19.3610 C   0  0  0  0  0  0  0  0  0  0  0  0
   29.2704  -19.4351  -20.5448 O   0  0  0  0  0  0  0  0  0  0  0  0
   28.0333  -19.2153  -18.5229 C   0  0  0  0  0  0  0  0  0  0  0  0
   27.9935  -19.7208  -17.1145 C   0  0  0  0  0  0  0  0  0  0  0  0
   27.1468  -20.9265  -16.8967 C   0  0  2  0  0  0  0  0  0  0  0  0
   27.6290  -22.0401  -17.6932 N   0  0  0  0  0  0  0  0  0  0  0  0
   25.7096  -20.7156  -17.2076 C   0  0  0  0  0  0  0  0  0  0  0  0
   25.0989  -19.7743  -16.6482 O   0  0  0  0  0  0  0  0  0  0  0  0
   24.9776  -21.5290  -18.1130 N   0  0  0  0  0  0  0  0  0  0  0  0
   23.5927  -21.2485  -18.3592 C   0  0  1  0  0  0  0  0  0  0  0  0
   23.2931  -20.7519  -19.7351 C   0  0  0  0  0  0  0  0  0  0  0  0
   23.6837  -19.3354  -19.9544 C   0  0  0  0  0  0  0  0  0  0  0  0
   24.9881  -18.8513  -19.9050 C   0  0  0  0  0  0  0  0  0  0  0  0
   24.9815  -17.5194  -20.1513 N   0  0  0  0  0  0  0  0  0  0  0  0
   23.7180  -17.1100  -20.3612 C   0  0  0  0  0  0  0  0  0  0  0  0
   23.1464  -15.8734  -20.6498 C   0  0  0  0  0  0  0  0  0  0  0  0
   21.7815  -15.7615  -20.8155 C   0  0  0  0  0  0  0  0  0  0  0  0
   20.9957  -16.9016  -20.6888 C   0  0  0  0  0  0  0  0  0  0  0  0
   21.5448  -18.1270  -20.4045 C   0  0  0  0  0  0  0  0  0  0  0  0
   22.9103  -18.2360  -20.2394 C   0  0  0  0  0  0  0  0  0  0  0  0
   22.7522  -22.4845  -18.1488 C   0  0  0  0  0  0  0  0  0  0  0  0
   23.3756  -23.5275  -17.8256 O   0  0  0  0  0  0  0  0  0  0  0  0
   21.3798  -22.4299  -18.3121 O   0  0  0  0  0  0  0  0  0  0  0  0
  2  1  1  1
  2  3  1  0
  4  3  1  0
  4  5  1  0
  5  6  1  0
  6  7  1  0
  8  9  2  0
  8  2  1  0
 10 11  1  0
 11 13  1  0
 12 11  2  0
 13 14  1  0
 15 14  1  6
 15 16  1  0
 16  8  1  0
 17 15  1  0
 17 19  1  0
 18 17  2  0
 20 19  1  0
 20 31  1  0
 20 21  1  6
 22 21  1  0
 22 30  1  0
 23 24  1  0
 23 22  2  0
 24 25  1  0
 25 26  1  0
 25 30  2  0
 26 27  2  0
 27 28  1  0
 29 28  2  0
 30 29  1  0
 31 32  2  0
 31 33  1  0
M  END
$$$$
