KQW.pdb
     RDKit          3D

 33 34  0  0  1  0  0  0  0  0999 V2000
   27.0893  -18.5889  -16.9353 N   0  0  0  0  0  0  0  0  0  0  0  0
   27.6978  -18.5212  -15.6584 C   0  0  1  0  0  0  0  0  0  0  0  0
   28.3337  -17.2335  -15.2605 C   0  0  0  0  0  0  0  0  0  0  0  0
   27.7254  -15.9813  -15.7414 C   0  0  0  0  0  0  0  0  0  0  0  0
   28.1832  -15.4147  -17.0321 C   0  0  0  0  0  0  0  0  0  0  0  0
   27.5620  -14.1246  -17.4474 C   0  0  0  0  0  0  0  0  0  0  0  0
   27.8865  -13.7531  -18.7935 N   0  0  0  0  0  0  0  0  0  0  0  0
   26.8326  -19.0492  -14.5688 C   0  0  0  0  0  0  0  0  0  0  0  0
   25.6975  -18.5189  -14.4536 O   0  0  0  0  0  0  0  0  0  0  0  0
   25.3804  -24.6614  -14.7801 N   0  0  0  0  0  0  0  0  0  0  0  0
   24.6713  -24.2926  -13.6077 C   0  0  0  0  0  0  0  0  0  0  0  0
   23.8042  -25.0839  -13.1795 O   0  0  0  0  0  0  0  0  0  0  0  0
   24.9525  -23.0147  -12.9221 C   0  0  0  0  0  0  0  0  0  0  0  0
   25.9470  -22.1356  -13.6144 C   0  0  0  0  0  0  0  0  0  0  0  0
   26.1848  -20.8151  -12.9680 C   0  0  2  0  0  0  0  0  0  0  0  0
   27.1948  -20.0659  -13.6931 N   0  0  0  0  0  0  0  0  0  0  0  0
   26.6020  -20.9087  -11.5454 C   0  0  0  0  0  0  0  0  0  0  0  0
   27.8242  -20.9775  -11.2742 O   0  0  0  0  0  0  0  0  0  0  0  0
   25.6852  -20.9254  -10.4608 N   0  0  0  0  0  0  0  0  0  0  0  0
   26.1776  -20.8901   -9.1142 C   0  0  1  0  0  0  0  0  0  0  0  0
   27.0320  -19.7082   -8.7944 C   0  0  0  0  0  0  0  0  0  0  0  0
   27.4171  -19.6226   -7.3621 C   0  0  0  0  0  0  0  0  0  0  0  0
   26.7970  -18.8098   -6.4170 C   0  0  0  0  0  0  0  0  0  0  0  0
   27.3989  -18.9798   -5.2156 N   0  0  0  0  0  0  0  0  0  0  0  0
   28.3937  -19.8764   -5.3370 C   0  0  0  0  0  0  0  0  0  0  0  0
   29.3156  -20.4126   -4.4416 C   0  0  0  0  0  0  0  0  0  0  0  0
   30.2420  -21.3399   -4.8714 C   0  0  0  0  0  0  0  0  0  0  0  0
   30.2349  -21.7241   -6.2077 C   0  0  0  0  0  0  0  0  0  0  0  0
   29.3324  -21.2042   -7.1018 C   0  0  0  0  0  0  0  0  0  0  0  0
   28.4069  -20.2769   -6.6691 C   0  0  0  0  0  0  0  0  0  0  0  0
   25.0349  -20.8820   -8.1280 C   0  0  0  0  0  0  0  0  0  0  0  0
   23.9331  -20.4610   -8.5635 O   0  0  0  0  0  0  0  0  0  0  0  0
   25.2307  -21.3206   -6.8310 O   0  0  0  0  0  0  0  0  0  0  0  0
  2  1  1  6
  2  3  1  0
  4  3  1  0
  4  5  1  0
  5  6  1  0
  6  7  1  0
  8  9  2  0
  8  2  1  0
 10 11  1  0
 11 13  1  0
 12 11  2  0
 13 14  1  0
 15 14  1  6
 15 16  1  0
 16  8  1  0
 17 15  1  0
 17 19  1  0
 18 17  2  0
 20 19  1  0
 20 31  1  0
 20 21  1  6
 22 21  1  0
 22 30  1  0
 23 24  1  0
 23 22  2  0
 24 25  1  0
 25 26  1  0
 25 30  2  0
 26 27  2  0
 27 28  1  0
 29 28  2  0
 30 29  1  0
 31 32  2  0
 31 33  1  0
M  END
$$$$
