KQW.pdb
     RDKit          3D

 33 34  0  0  1  0  0  0  0  0999 V2000
   28.0831  -20.2892  -16.9641 N   0  0  0  0  0  0  0  0  0  0  0  0
   26.9414  -19.4664  -16.8062 C   0  0  1  0  0  0  0  0  0  0  0  0
   26.3675  -18.8345  -18.0276 C   0  0  0  0  0  0  0  0  0  0  0  0
   27.2786  -18.1014  -18.9232 C   0  0  0  0  0  0  0  0  0  0  0  0
   28.1570  -17.0556  -18.3479 C   0  0  0  0  0  0  0  0  0  0  0  0
   29.0118  -16.3042  -19.3109 C   0  0  0  0  0  0  0  0  0  0  0  0
   29.7785  -15.2650  -18.6884 N   0  0  0  0  0  0  0  0  0  0  0  0
   25.8761  -20.0958  -15.9792 C   0  0  0  0  0  0  0  0  0  0  0  0
   25.1519  -20.9460  -16.5584 O   0  0  0  0  0  0  0  0  0  0  0  0
   25.5872  -20.7320   -9.6725 N   0  0  0  0  0  0  0  0  0  0  0  0
   26.5889  -21.0848  -10.6135 C   0  0  0  0  0  0  0  0  0  0  0  0
   27.6973  -21.4555  -10.1714 O   0  0  0  0  0  0  0  0  0  0  0  0
   26.3245  -21.0129  -12.0651 C   0  0  0  0  0  0  0  0  0  0  0  0
   24.9599  -20.5184  -12.4316 C   0  0  0  0  0  0  0  0  0  0  0  0
   24.6440  -20.5476  -13.8867 C   0  0  2  0  0  0  0  0  0  0  0  0
   25.6392  -19.8069  -14.6405 N   0  0  0  0  0  0  0  0  0  0  0  0
   23.3026  -20.0044  -14.2216 C   0  0  0  0  0  0  0  0  0  0  0  0
   23.2083  -18.8165  -14.6113 O   0  0  0  0  0  0  0  0  0  0  0  0
   22.1053  -20.7621  -14.1243 N   0  0  0  0  0  0  0  0  0  0  0  0
   20.8731  -20.2080  -14.6059 C   0  0  1  0  0  0  0  0  0  0  0  0
   20.9019  -19.7740  -16.0343 C   0  0  0  0  0  0  0  0  0  0  0  0
   19.6211  -19.1851  -16.5030 C   0  0  0  0  0  0  0  0  0  0  0  0
   19.1052  -17.9619  -16.0835 C   0  0  0  0  0  0  0  0  0  0  0  0
   17.9259  -17.7343  -16.7096 N   0  0  0  0  0  0  0  0  0  0  0  0
   17.6475  -18.7653  -17.5268 C   0  0  0  0  0  0  0  0  0  0  0  0
   16.5903  -19.0477  -18.3880 C   0  0  0  0  0  0  0  0  0  0  0  0
   16.5821  -20.2193  -19.1160 C   0  0  0  0  0  0  0  0  0  0  0  0
   17.6444  -21.1048  -18.9720 C   0  0  0  0  0  0  0  0  0  0  0  0
   18.6933  -20.8402  -18.1271 C   0  0  0  0  0  0  0  0  0  0  0  0
   18.6988  -19.6675  -17.4001 C   0  0  0  0  0  0  0  0  0  0  0  0
   19.7510  -21.2092  -14.4767 C   0  0  0  0  0  0  0  0  0  0  0  0
   20.0437  -22.4033  -14.7398 O   0  0  0  0  0  0  0  0  0  0  0  0
   18.4895  -20.7956  -14.0886 O   0  0  0  0  0  0  0  0  0  0  0  0
  2  1  1  6
  2  3  1  0
  4  3  1  0
  4  5  1  0
  5  6  1  0
  6  7  1  0
  8  9  2  0
  8  2  1  0
 10 11  1  0
 11 13  1  0
 12 11  2  0
 13 14  1  0
 15 14  1  1
 15 16  1  0
 16  8  1  0
 17 15  1  0
 17 19  1  0
 18 17  2  0
 20 19  1  0
 20 31  1  0
 20 21  1  6
 22 21  1  0
 22 30  1  0
 23 24  1  0
 23 22  2  0
 24 25  1  0
 25 26  1  0
 25 30  2  0
 26 27  2  0
 27 28  1  0
 29 28  2  0
 30 29  1  0
 31 32  2  0
 31 33  1  0
M  END
$$$$
