KQW.pdb
     RDKit          3D

 33 34  0  0  1  0  0  0  0  0999 V2000
   27.7258  -22.5283  -16.2072 N   0  0  0  0  0  0  0  0  0  0  0  0
   27.5357  -21.3906  -15.3858 C   0  0  1  0  0  0  0  0  0  0  0  0
   27.1595  -20.1107  -16.0498 C   0  0  0  0  0  0  0  0  0  0  0  0
   27.9010  -19.7116  -17.2583 C   0  0  0  0  0  0  0  0  0  0  0  0
   27.5488  -18.4348  -17.9230 C   0  0  0  0  0  0  0  0  0  0  0  0
   28.3072  -18.1013  -19.1625 C   0  0  0  0  0  0  0  0  0  0  0  0
   27.8812  -16.8735  -19.7679 N   0  0  0  0  0  0  0  0  0  0  0  0
   26.6660  -21.6575  -14.2080 C   0  0  0  0  0  0  0  0  0  0  0  0
   25.7011  -22.4427  -14.3957 O   0  0  0  0  0  0  0  0  0  0  0  0
   29.9601  -21.2536   -8.9457 N   0  0  0  0  0  0  0  0  0  0  0  0
   28.6411  -20.8244   -9.2446 C   0  0  0  0  0  0  0  0  0  0  0  0
   28.0246  -20.1847   -8.3659 O   0  0  0  0  0  0  0  0  0  0  0  0
   28.0230  -21.1280  -10.5515 C   0  0  0  0  0  0  0  0  0  0  0  0
   26.5261  -21.1432  -10.5505 C   0  0  0  0  0  0  0  0  0  0  0  0
   25.8926  -21.3461  -11.8830 C   0  0  2  0  0  0  0  0  0  0  0  0
   26.8508  -21.1044  -12.9463 N   0  0  0  0  0  0  0  0  0  0  0  0
   24.7033  -20.4882  -12.1200 C   0  0  0  0  0  0  0  0  0  0  0  0
   24.8738  -19.3018  -12.4877 O   0  0  0  0  0  0  0  0  0  0  0  0
   23.3672  -20.9396  -11.9517 N   0  0  0  0  0  0  0  0  0  0  0  0
   22.3293  -20.4143  -12.7907 C   0  0  1  0  0  0  0  0  0  0  0  0
   22.5287  -20.6528  -14.2511 C   0  0  0  0  0  0  0  0  0  0  0  0
   21.4534  -20.0781  -15.1000 C   0  0  0  0  0  0  0  0  0  0  0  0
   21.0417  -18.7484  -15.0736 C   0  0  0  0  0  0  0  0  0  0  0  0
   20.0449  -18.5699  -15.9732 N   0  0  0  0  0  0  0  0  0  0  0  0
   19.7863  -19.7359  -16.5909 C   0  0  0  0  0  0  0  0  0  0  0  0
   18.8822  -20.1176  -17.5789 C   0  0  0  0  0  0  0  0  0  0  0  0
   18.8499  -21.4231  -18.0233 C   0  0  0  0  0  0  0  0  0  0  0  0
   19.7331  -22.3419  -17.4673 C   0  0  0  0  0  0  0  0  0  0  0  0
   20.6297  -21.9805  -16.4929 C   0  0  0  0  0  0  0  0  0  0  0  0
   20.6597  -20.6740  -16.0503 C   0  0  0  0  0  0  0  0  0  0  0  0
   20.9938  -21.0173  -12.4286 C   0  0  0  0  0  0  0  0  0  0  0  0
   20.9932  -22.2505  -12.1838 O   0  0  0  0  0  0  0  0  0  0  0  0
   19.8615  -20.2245  -12.3802 O   0  0  0  0  0  0  0  0  0  0  0  0
  2  1  1  6
  2  3  1  0
  4  3  1  0
  4  5  1  0
  5  6  1  0
  6  7  1  0
  8  9  2  0
  8  2  1  0
 10 11  1  0
 11 13  1  0
 12 11  2  0
 13 14  1  0
 15 14  1  1
 15 16  1  0
 16  8  1  0
 17 15  1  0
 17 19  1  0
 18 17  2  0
 20 19  1  0
 20 31  1  0
 20 21  1  6
 22 21  1  0
 22 30  1  0
 23 24  1  0
 23 22  2  0
 24 25  1  0
 25 26  1  0
 25 30  2  0
 26 27  2  0
 27 28  1  0
 29 28  2  0
 30 29  1  0
 31 32  2  0
 31 33  1  0
M  END
$$$$
