KQW.pdb
     RDKit          3D

 33 34  0  0  1  0  0  0  0  0999 V2000
   28.3651  -23.0701  -18.2540 N   0  0  0  0  0  0  0  0  0  0  0  0
   29.1570  -22.8171  -17.1076 C   0  0  1  0  0  0  0  0  0  0  0  0
   30.5959  -22.4908  -17.3169 C   0  0  0  0  0  0  0  0  0  0  0  0
   31.1896  -22.7829  -18.6328 C   0  0  0  0  0  0  0  0  0  0  0  0
   31.7801  -24.1216  -18.8685 C   0  0  0  0  0  0  0  0  0  0  0  0
   33.2448  -24.1611  -19.1435 C   0  0  0  0  0  0  0  0  0  0  0  0
   33.5755  -23.7675  -20.4818 N   0  0  0  0  0  0  0  0  0  0  0  0
   28.5247  -21.8610  -16.1586 C   0  0  0  0  0  0  0  0  0  0  0  0
   29.3076  -21.2181  -15.4126 O   0  0  0  0  0  0  0  0  0  0  0  0
   23.5168  -18.2700  -16.9133 N   0  0  0  0  0  0  0  0  0  0  0  0
   23.8379  -18.0577  -15.5476 C   0  0  0  0  0  0  0  0  0  0  0  0
   23.1974  -17.1810  -14.9292 O   0  0  0  0  0  0  0  0  0  0  0  0
   24.8954  -18.8488  -14.8857 C   0  0  0  0  0  0  0  0  0  0  0  0
   25.6606  -19.7598  -15.7942 C   0  0  0  0  0  0  0  0  0  0  0  0
   26.6342  -20.6605  -15.1167 C   0  0  2  0  0  0  0  0  0  0  0  0
   27.1564  -21.6425  -16.0495 N   0  0  0  0  0  0  0  0  0  0  0  0
   26.0725  -21.3798  -13.9447 C   0  0  0  0  0  0  0  0  0  0  0  0
   25.5145  -22.4884  -14.1227 O   0  0  0  0  0  0  0  0  0  0  0  0
   26.1312  -20.8781  -12.6173 N   0  0  0  0  0  0  0  0  0  0  0  0
   25.5602  -21.6399  -11.5444 C   0  0  1  0  0  0  0  0  0  0  0  0
   26.4743  -21.8652  -10.3855 C   0  0  0  0  0  0  0  0  0  0  0  0
   26.4959  -20.7388   -9.4171 C   0  0  0  0  0  0  0  0  0  0  0  0
   25.5241  -19.7459   -9.3272 C   0  0  0  0  0  0  0  0  0  0  0  0
   25.8569  -18.8811   -8.3394 N   0  0  0  0  0  0  0  0  0  0  0  0
   27.0141  -19.2701   -7.7758 C   0  0  0  0  0  0  0  0  0  0  0  0
   27.7960  -18.7607   -6.7422 C   0  0  0  0  0  0  0  0  0  0  0  0
   28.9650  -19.3963   -6.3783 C   0  0  0  0  0  0  0  0  0  0  0  0
   29.3420  -20.5475   -7.0608 C   0  0  0  0  0  0  0  0  0  0  0  0
   28.5816  -21.0614   -8.0816 C   0  0  0  0  0  0  0  0  0  0  0  0
   27.4128  -20.4236   -8.4434 C   0  0  0  0  0  0  0  0  0  0  0  0
   24.3281  -20.9573  -11.0019 C   0  0  0  0  0  0  0  0  0  0  0  0
   23.6256  -21.6349  -10.2093 O   0  0  0  0  0  0  0  0  0  0  0  0
   24.0259  -19.6616  -11.3799 O   0  0  0  0  0  0  0  0  0  0  0  0
  2  1  1  6
  2  3  1  0
  4  3  1  0
  4  5  1  0
  5  6  1  0
  6  7  1  0
  8  9  2  0
  8  2  1  0
 10 11  1  0
 11 13  1  0
 12 11  2  0
 13 14  1  0
 15 14  1  6
 15 16  1  0
 16  8  1  0
 17 15  1  0
 17 19  1  0
 18 17  2  0
 20 19  1  0
 20 31  1  0
 20 21  1  1
 22 21  1  0
 22 30  1  0
 23 24  1  0
 23 22  2  0
 24 25  1  0
 25 26  1  0
 25 30  2  0
 26 27  2  0
 27 28  1  0
 29 28  2  0
 30 29  1  0
 31 32  2  0
 31 33  1  0
M  END
$$$$
