KQW.pdb
     RDKit          3D

 33 34  0  0  1  0  0  0  0  0999 V2000
   28.0761  -22.6326  -17.5405 N   0  0  0  0  0  0  0  0  0  0  0  0
   28.5074  -22.5145  -16.1969 C   0  0  1  0  0  0  0  0  0  0  0  0
   29.9750  -22.4827  -15.9398 C   0  0  0  0  0  0  0  0  0  0  0  0
   30.7612  -23.6874  -16.2557 C   0  0  0  0  0  0  0  0  0  0  0  0
   31.5663  -23.7089  -17.4998 C   0  0  0  0  0  0  0  0  0  0  0  0
   32.3705  -24.9394  -17.7479 C   0  0  0  0  0  0  0  0  0  0  0  0
   33.1007  -24.8935  -18.9809 N   0  0  0  0  0  0  0  0  0  0  0  0
   27.8106  -21.4313  -15.4513 C   0  0  0  0  0  0  0  0  0  0  0  0
   27.8546  -20.2844  -15.9663 O   0  0  0  0  0  0  0  0  0  0  0  0
   21.7392  -20.4646  -13.8114 N   0  0  0  0  0  0  0  0  0  0  0  0
   22.6807  -19.9081  -14.7153 C   0  0  0  0  0  0  0  0  0  0  0  0
   22.3414  -19.7967  -15.9127 O   0  0  0  0  0  0  0  0  0  0  0  0
   24.0155  -19.4783  -14.2505 C   0  0  0  0  0  0  0  0  0  0  0  0
   25.1539  -20.3108  -14.7524 C   0  0  0  0  0  0  0  0  0  0  0  0
   26.2252  -20.5877  -13.7556 C   0  0  2  0  0  0  0  0  0  0  0  0
   27.1327  -21.6067  -14.2506 N   0  0  0  0  0  0  0  0  0  0  0  0
   25.7149  -21.0192  -12.4289 C   0  0  0  0  0  0  0  0  0  0  0  0
   25.2553  -22.1789  -12.3029 O   0  0  0  0  0  0  0  0  0  0  0  0
   25.7170  -20.1835  -11.2805 N   0  0  0  0  0  0  0  0  0  0  0  0
   25.1468  -20.6609  -10.0540 C   0  0  1  0  0  0  0  0  0  0  0  0
   25.7465  -20.0743   -8.8188 C   0  0  0  0  0  0  0  0  0  0  0  0
   27.1185  -20.5666   -8.5320 C   0  0  0  0  0  0  0  0  0  0  0  0
   27.8386  -21.4387   -9.3439 C   0  0  0  0  0  0  0  0  0  0  0  0
   29.0487  -21.6766   -8.7838 N   0  0  0  0  0  0  0  0  0  0  0  0
   29.1502  -20.9914   -7.6313 C   0  0  0  0  0  0  0  0  0  0  0  0
   30.1522  -20.8724   -6.6717 C   0  0  0  0  0  0  0  0  0  0  0  0
   29.9613  -20.0723   -5.5643 C   0  0  0  0  0  0  0  0  0  0  0  0
   28.7557  -19.3929   -5.4287 C   0  0  0  0  0  0  0  0  0  0  0  0
   27.7589  -19.5004   -6.3661 C   0  0  0  0  0  0  0  0  0  0  0  0
   27.9527  -20.3013   -7.4728 C   0  0  0  0  0  0  0  0  0  0  0  0
   23.6673  -20.3665  -10.0030 C   0  0  0  0  0  0  0  0  0  0  0  0
   23.2279  -19.5911  -10.8898 O   0  0  0  0  0  0  0  0  0  0  0  0
   22.8768  -20.9369   -9.0217 O   0  0  0  0  0  0  0  0  0  0  0  0
  2  1  1  6
  2  3  1  0
  4  3  1  0
  4  5  1  0
  5  6  1  0
  6  7  1  0
  8  9  2  0
  8  2  1  0
 10 11  1  0
 11 13  1  0
 12 11  2  0
 13 14  1  0
 15 14  1  6
 15 16  1  0
 16  8  1  0
 17 15  1  0
 17 19  1  0
 18 17  2  0
 20 19  1  0
 20 31  1  0
 20 21  1  1
 22 21  1  0
 22 30  1  0
 23 24  1  0
 23 22  2  0
 24 25  1  0
 25 26  1  0
 25 30  2  0
 26 27  2  0
 27 28  1  0
 29 28  2  0
 30 29  1  0
 31 32  2  0
 31 33  1  0
M  END
$$$$
