KQW.pdb
     RDKit          3D

 33 34  0  0  1  0  0  0  0  0999 V2000
   27.0374  -20.0826  -15.6745 N   0  0  0  0  0  0  0  0  0  0  0  0
   27.2022  -18.8307  -15.0334 C   0  0  1  0  0  0  0  0  0  0  0  0
   27.7875  -17.7154  -15.8298 C   0  0  0  0  0  0  0  0  0  0  0  0
   28.2267  -18.0014  -17.2063 C   0  0  0  0  0  0  0  0  0  0  0  0
   29.0662  -19.1973  -17.4541 C   0  0  0  0  0  0  0  0  0  0  0  0
   29.4576  -19.4508  -18.8701 C   0  0  0  0  0  0  0  0  0  0  0  0
   30.2686  -20.6226  -19.0271 N   0  0  0  0  0  0  0  0  0  0  0  0
   25.9866  -18.3836  -14.3006 C   0  0  0  0  0  0  0  0  0  0  0  0
   25.3079  -17.4778  -14.8498 O   0  0  0  0  0  0  0  0  0  0  0  0
   24.9373  -23.8570  -13.7776 N   0  0  0  0  0  0  0  0  0  0  0  0
   24.1731  -23.1359  -14.7311 C   0  0  0  0  0  0  0  0  0  0  0  0
   23.3065  -23.7634  -15.3765 O   0  0  0  0  0  0  0  0  0  0  0  0
   24.4001  -21.6926  -14.9496 C   0  0  0  0  0  0  0  0  0  0  0  0
   25.4652  -21.0867  -14.0897 C   0  0  0  0  0  0  0  0  0  0  0  0
   24.9716  -20.2137  -12.9886 C   0  0  2  0  0  0  0  0  0  0  0  0
   25.5679  -18.8933  -13.0771 N   0  0  0  0  0  0  0  0  0  0  0  0
   25.2314  -20.7551  -11.6300 C   0  0  0  0  0  0  0  0  0  0  0  0
   24.7456  -21.8676  -11.3163 O   0  0  0  0  0  0  0  0  0  0  0  0
   26.0079  -20.0770  -10.6530 N   0  0  0  0  0  0  0  0  0  0  0  0
   26.2109  -20.6765   -9.3659 C   0  0  1  0  0  0  0  0  0  0  0  0
   27.2186  -19.9844   -8.5087 C   0  0  0  0  0  0  0  0  0  0  0  0
   27.3347  -20.5603   -7.1441 C   0  0  0  0  0  0  0  0  0  0  0  0
   26.9427  -21.8473   -6.7859 C   0  0  0  0  0  0  0  0  0  0  0  0
   27.1900  -22.0408   -5.4684 N   0  0  0  0  0  0  0  0  0  0  0  0
   27.7313  -20.9259   -4.9467 C   0  0  0  0  0  0  0  0  0  0  0  0
   28.1692  -20.5790   -3.6712 C   0  0  0  0  0  0  0  0  0  0  0  0
   28.6930  -19.3250   -3.4344 C   0  0  0  0  0  0  0  0  0  0  0  0
   28.7731  -18.4224   -4.4891 C   0  0  0  0  0  0  0  0  0  0  0  0
   28.3454  -18.7500   -5.7516 C   0  0  0  0  0  0  0  0  0  0  0  0
   27.8220  -20.0051   -5.9856 C   0  0  0  0  0  0  0  0  0  0  0  0
   24.9209  -20.7093   -8.5830 C   0  0  0  0  0  0  0  0  0  0  0  0
   24.1442  -19.7361   -8.7578 O   0  0  0  0  0  0  0  0  0  0  0  0
   24.6478  -21.7665   -7.7339 O   0  0  0  0  0  0  0  0  0  0  0  0
  2  1  1  6
  2  3  1  0
  4  3  1  0
  4  5  1  0
  5  6  1  0
  6  7  1  0
  8  9  2  0
  8  2  1  0
 10 11  1  0
 11 13  1  0
 12 11  2  0
 13 14  1  0
 15 14  1  6
 15 16  1  0
 16  8  1  0
 17 15  1  0
 17 19  1  0
 18 17  2  0
 20 19  1  0
 20 31  1  0
 20 21  1  1
 22 21  1  0
 22 30  1  0
 23 24  1  0
 23 22  2  0
 24 25  1  0
 25 26  1  0
 25 30  2  0
 26 27  2  0
 27 28  1  0
 29 28  2  0
 30 29  1  0
 31 32  2  0
 31 33  1  0
M  END
$$$$
