KQW.pdb
     RDKit          3D

 33 34  0  0  1  0  0  0  0  0999 V2000
   27.0710  -21.9317  -17.5441 N   0  0  0  0  0  0  0  0  0  0  0  0
   27.7224  -22.1369  -16.3036 C   0  0  1  0  0  0  0  0  0  0  0  0
   29.0617  -21.5122  -16.1118 C   0  0  0  0  0  0  0  0  0  0  0  0
   30.0373  -21.6108  -17.2108 C   0  0  0  0  0  0  0  0  0  0  0  0
   30.4618  -22.9543  -17.6704 C   0  0  0  0  0  0  0  0  0  0  0  0
   31.4405  -22.9919  -18.7945 C   0  0  0  0  0  0  0  0  0  0  0  0
   32.8010  -22.8724  -18.3583 N   0  0  0  0  0  0  0  0  0  0  0  0
   26.8418  -21.8839  -15.1309 C   0  0  0  0  0  0  0  0  0  0  0  0
   26.3809  -20.7183  -15.0227 O   0  0  0  0  0  0  0  0  0  0  0  0
   22.6864  -25.9318  -13.5799 N   0  0  0  0  0  0  0  0  0  0  0  0
   22.5397  -24.8349  -14.4680 C   0  0  0  0  0  0  0  0  0  0  0  0
   21.6251  -24.8928  -15.3174 O   0  0  0  0  0  0  0  0  0  0  0  0
   23.4416  -23.6678  -14.3866 C   0  0  0  0  0  0  0  0  0  0  0  0
   24.4459  -23.7256  -13.2781 C   0  0  0  0  0  0  0  0  0  0  0  0
   25.4181  -22.5979  -13.2430 C   0  0  2  0  0  0  0  0  0  0  0  0
   26.5078  -22.8336  -14.1726 N   0  0  0  0  0  0  0  0  0  0  0  0
   25.9959  -22.3440  -11.8983 C   0  0  0  0  0  0  0  0  0  0  0  0
   26.6279  -23.2630  -11.3255 O   0  0  0  0  0  0  0  0  0  0  0  0
   25.8721  -21.1052  -11.2149 N   0  0  0  0  0  0  0  0  0  0  0  0
   26.2189  -21.0229   -9.8256 C   0  0  1  0  0  0  0  0  0  0  0  0
   27.4436  -20.2194   -9.5361 C   0  0  0  0  0  0  0  0  0  0  0  0
   27.5531  -19.7920   -8.1175 C   0  0  0  0  0  0  0  0  0  0  0  0
   26.7246  -18.8592   -7.4997 C   0  0  0  0  0  0  0  0  0  0  0  0
   27.1038  -18.7087   -6.2081 N   0  0  0  0  0  0  0  0  0  0  0  0
   28.1533  -19.5102   -5.9542 C   0  0  0  0  0  0  0  0  0  0  0  0
   28.9237  -19.7504   -4.8193 C   0  0  0  0  0  0  0  0  0  0  0  0
   29.9646  -20.6544   -4.8657 C   0  0  0  0  0  0  0  0  0  0  0  0
   30.2253  -21.3150   -6.0611 C   0  0  0  0  0  0  0  0  0  0  0  0
   29.4746  -21.0886   -7.1878 C   0  0  0  0  0  0  0  0  0  0  0  0
   28.4341  -20.1839   -7.1385 C   0  0  0  0  0  0  0  0  0  0  0  0
   25.0942  -20.4057   -9.0304 C   0  0  0  0  0  0  0  0  0  0  0  0
   25.0343  -20.7286   -7.8167 O   0  0  0  0  0  0  0  0  0  0  0  0
   24.2033  -19.5404   -9.6394 O   0  0  0  0  0  0  0  0  0  0  0  0
  2  1  1  6
  2  3  1  0
  4  3  1  0
  4  5  1  0
  5  6  1  0
  6  7  1  0
  8  9  2  0
  8  2  1  0
 10 11  1  0
 11 13  1  0
 12 11  2  0
 13 14  1  0
 15 14  1  1
 15 16  1  0
 16  8  1  0
 17 15  1  0
 17 19  1  0
 18 17  2  0
 20 19  1  0
 20 31  1  0
 20 21  1  6
 22 21  1  0
 22 30  1  0
 23 24  1  0
 23 22  2  0
 24 25  1  0
 25 26  1  0
 25 30  2  0
 26 27  2  0
 27 28  1  0
 29 28  2  0
 30 29  1  0
 31 32  2  0
 31 33  1  0
M  END
$$$$
