SKC.pdb
     RDKit          3D

 22 21  0  0  1  0  0  0  0  0999 V2000
   24.5057  -12.4304  -15.1220 O   0  0  0  0  0  0  0  0  0  0  0  0
   23.6918  -11.2871  -15.2617 C   0  0  0  0  0  0  0  0  0  0  0  0
   22.6039  -11.6378  -16.2849 C   0  0  2  0  0  0  0  0  0  0  0  0
   23.1492  -11.8075  -17.5956 N   0  0  0  0  0  0  0  0  0  0  0  0
   21.6131  -10.5369  -16.2283 C   0  0  0  0  0  0  0  0  0  0  0  0
   21.7933   -9.5427  -16.9758 O   0  0  0  0  0  0  0  0  0  0  0  0
   20.4825  -10.5466  -15.3822 N   0  0  0  0  0  0  0  0  0  0  0  0
   19.5016   -9.4840  -15.3228 C   0  0  1  0  0  0  0  0  0  0  0  0
   18.1765   -9.9598  -14.7892 C   0  0  0  0  0  0  0  0  0  0  0  0
   17.4821  -10.9007  -15.7483 C   0  0  0  0  0  0  0  0  0  0  0  0
   16.1164  -11.3038  -15.2438 C   0  0  0  0  0  0  0  0  0  0  0  0
   15.4765  -12.2117  -16.2719 C   0  0  0  0  0  0  0  0  0  0  0  0
   14.1209  -12.4894  -15.8959 N   0  0  0  0  0  0  0  0  0  0  0  0
   20.0628   -8.3687  -14.5335 C   0  0  0  0  0  0  0  0  0  0  0  0
   20.6863   -8.6238  -13.4784 O   0  0  0  0  0  0  0  0  0  0  0  0
   19.9324   -7.0044  -14.9108 N   0  0  0  0  0  0  0  0  0  0  0  0
   20.6431   -5.9409  -14.2043 C   0  0  1  0  0  0  0  0  0  0  0  0
   22.1073   -6.0596  -14.4800 C   0  0  0  0  0  0  0  0  0  0  0  0
   22.9245   -4.6430  -13.6490 S   0  0  0  0  0  0  0  0  0  0  0  0
   20.1505   -4.6050  -14.6289 C   0  0  0  0  0  0  0  0  0  0  0  0
   20.0016   -3.5468  -13.7468 O   0  0  0  0  0  0  0  0  0  0  0  0
   19.8480   -4.3960  -15.8327 O   0  0  0  0  0  0  0  0  0  0  0  0
  1  2  1  0
  2  3  1  0
  3  5  1  0
  3  4  1  6
  5  6  2  0
  7  8  1  0
  7  5  1  0
  9 10  1  0
  8  9  1  1
 11 10  1  0
 12 11  1  0
 13 12  1  0
 14  8  1  0
 14 15  2  0
 16 14  1  0
 17 16  1  0
 17 20  1  0
 17 18  1  6
 19 18  1  0
 20 21  1  0
 22 20  2  0
M  END
$$$$
