SKC.pdb
     RDKit          3D

 22 21  0  0  1  0  0  0  0  0999 V2000
   35.9285   -9.5598  -16.3139 O   0  0  0  0  0  0  0  0  0  0  0  0
   34.6538   -9.5459  -16.9172 C   0  0  0  0  0  0  0  0  0  0  0  0
   34.3792  -10.9726  -17.4097 C   0  0  2  0  0  0  0  0  0  0  0  0
   35.2832  -11.3536  -18.4498 N   0  0  0  0  0  0  0  0  0  0  0  0
   32.9672  -10.9896  -17.8603 C   0  0  0  0  0  0  0  0  0  0  0  0
   32.7294  -10.7184  -19.0643 O   0  0  0  0  0  0  0  0  0  0  0  0
   31.8802  -11.2931  -17.0114 N   0  0  0  0  0  0  0  0  0  0  0  0
   30.4995  -11.3407  -17.4429 C   0  0  1  0  0  0  0  0  0  0  0  0
   29.6818  -12.3115  -16.6332 C   0  0  0  0  0  0  0  0  0  0  0  0
   28.2806  -12.4695  -17.1802 C   0  0  0  0  0  0  0  0  0  0  0  0
   27.4684  -13.4448  -16.3609 C   0  0  0  0  0  0  0  0  0  0  0  0
   26.1045  -13.5868  -17.0016 C   0  0  0  0  0  0  0  0  0  0  0  0
   25.3008  -14.4926  -16.2337 N   0  0  0  0  0  0  0  0  0  0  0  0
   29.9485   -9.9706  -17.4104 C   0  0  0  0  0  0  0  0  0  0  0  0
   30.1627   -9.2527  -16.4075 O   0  0  0  0  0  0  0  0  0  0  0  0
   29.1786   -9.4153  -18.4685 N   0  0  0  0  0  0  0  0  0  0  0  0
   28.6384   -8.0595  -18.3956 C   0  0  1  0  0  0  0  0  0  0  0  0
   29.4760   -7.1499  -19.2351 C   0  0  0  0  0  0  0  0  0  0  0  0
   28.7700   -5.4652  -19.0662 S   0  0  0  0  0  0  0  0  0  0  0  0
   27.2276   -8.0283  -18.8609 C   0  0  0  0  0  0  0  0  0  0  0  0
   26.2682   -7.2091  -18.2878 O   0  0  0  0  0  0  0  0  0  0  0  0
   26.8594   -8.7651  -19.8127 O   0  0  0  0  0  0  0  0  0  0  0  0
  1  2  1  0
  2  3  1  0
  3  5  1  0
  3  4  1  6
  5  6  2  0
  7  8  1  0
  7  5  1  0
  9 10  1  0
  8  9  1  1
 11 10  1  0
 12 11  1  0
 13 12  1  0
 14  8  1  0
 14 15  2  0
 16 14  1  0
 17 16  1  0
 17 20  1  0
 17 18  1  6
 19 18  1  0
 20 21  1  0
 22 20  2  0
M  END
$$$$
