SKC.pdb
     RDKit          3D

 22 21  0  0  1  0  0  0  0  0999 V2000
   15.9819   -8.5915   -9.7115 O   0  0  0  0  0  0  0  0  0  0  0  0
   15.0932   -8.5779  -10.8065 C   0  0  0  0  0  0  0  0  0  0  0  0
   15.3773   -9.8435  -11.6258 C   0  0  2  0  0  0  0  0  0  0  0  0
   15.6472  -10.9664  -10.7831 N   0  0  0  0  0  0  0  0  0  0  0  0
   16.5229   -9.5163  -12.5076 C   0  0  0  0  0  0  0  0  0  0  0  0
   17.6058  -10.1253  -12.3175 O   0  0  0  0  0  0  0  0  0  0  0  0
   16.4614   -8.5606  -13.5455 N   0  0  0  0  0  0  0  0  0  0  0  0
   17.5173   -8.3380  -14.5101 C   0  0  1  0  0  0  0  0  0  0  0  0
   16.9817   -8.0908  -15.8954 C   0  0  0  0  0  0  0  0  0  0  0  0
   16.5664   -9.3730  -16.5816 C   0  0  0  0  0  0  0  0  0  0  0  0
   16.0491   -9.1165  -17.9776 C   0  0  0  0  0  0  0  0  0  0  0  0
   15.5666  -10.4290  -18.5567 C   0  0  0  0  0  0  0  0  0  0  0  0
   15.1007  -10.2246  -19.8973 N   0  0  0  0  0  0  0  0  0  0  0  0
   18.3711   -7.2336  -14.0272 C   0  0  0  0  0  0  0  0  0  0  0  0
   17.8386   -6.2673  -13.4358 O   0  0  0  0  0  0  0  0  0  0  0  0
   19.7819   -7.2073  -14.1992 N   0  0  0  0  0  0  0  0  0  0  0  0
   20.5861   -6.0635  -13.7745 C   0  0  1  0  0  0  0  0  0  0  0  0
   21.8598   -6.5557  -13.1667 C   0  0  0  0  0  0  0  0  0  0  0  0
   22.8253   -5.0751  -12.6761 S   0  0  0  0  0  0  0  0  0  0  0  0
   20.8812   -5.1703  -14.9246 C   0  0  0  0  0  0  0  0  0  0  0  0
   20.8512   -3.7884  -14.8263 O   0  0  0  0  0  0  0  0  0  0  0  0
   21.1734   -5.6599  -16.0467 O   0  0  0  0  0  0  0  0  0  0  0  0
  1  2  1  0
  2  3  1  0
  3  5  1  0
  3  4  1  1
  5  6  2  0
  7  8  1  0
  7  5  1  0
  9 10  1  0
  8  9  1  6
 11 10  1  0
 12 11  1  0
 13 12  1  0
 14  8  1  0
 14 15  2  0
 16 14  1  0
 17 16  1  0
 17 20  1  0
 17 18  1  6
 19 18  1  0
 20 21  1  0
 22 20  2  0
M  END
$$$$
