SKC.pdb
     RDKit          3D

 22 21  0  0  1  0  0  0  0  0999 V2000
   19.2208  -13.1192  -15.2257 O   0  0  0  0  0  0  0  0  0  0  0  0
   18.3802  -11.9885  -15.2887 C   0  0  0  0  0  0  0  0  0  0  0  0
   16.9383  -12.5088  -15.3471 C   0  0  2  0  0  0  0  0  0  0  0  0
   16.6629  -13.1580  -16.5908 N   0  0  0  0  0  0  0  0  0  0  0  0
   16.0650  -11.3321  -15.1237 C   0  0  0  0  0  0  0  0  0  0  0  0
   15.8413  -10.5707  -16.0983 O   0  0  0  0  0  0  0  0  0  0  0  0
   15.4741  -11.0233  -13.8789 N   0  0  0  0  0  0  0  0  0  0  0  0
   14.5877   -9.9012  -13.6550 C   0  0  1  0  0  0  0  0  0  0  0  0
   13.7353  -10.0835  -12.4274 C   0  0  0  0  0  0  0  0  0  0  0  0
   12.5727  -11.0184  -12.6760 C   0  0  0  0  0  0  0  0  0  0  0  0
   11.6513  -11.0931  -11.4812 C   0  0  0  0  0  0  0  0  0  0  0  0
   10.5032  -12.0190  -11.8208 C   0  0  0  0  0  0  0  0  0  0  0  0
    9.5883  -12.0804  -10.7183 N   0  0  0  0  0  0  0  0  0  0  0  0
   15.3955   -8.6656  -13.6057 C   0  0  0  0  0  0  0  0  0  0  0  0
   16.6057   -8.7423  -13.2950 O   0  0  0  0  0  0  0  0  0  0  0  0
   14.8677   -7.3779  -13.8953 N   0  0  0  0  0  0  0  0  0  0  0  0
   15.7145   -6.1871  -13.9129 C   0  0  1  0  0  0  0  0  0  0  0  0
   16.7135   -6.3095  -15.0179 C   0  0  0  0  0  0  0  0  0  0  0  0
   17.6972   -4.7611  -15.0234 S   0  0  0  0  0  0  0  0  0  0  0  0
   14.8962   -4.9608  -14.0981 C   0  0  0  0  0  0  0  0  0  0  0  0
   15.2743   -3.7255  -13.5968 O   0  0  0  0  0  0  0  0  0  0  0  0
   13.8102   -5.0153  -14.7321 O   0  0  0  0  0  0  0  0  0  0  0  0
  1  2  1  0
  2  3  1  0
  3  5  1  0
  3  4  1  6
  5  6  2  0
  7  8  1  0
  7  5  1  0
  9 10  1  0
  8  9  1  1
 11 10  1  0
 12 11  1  0
 13 12  1  0
 14  8  1  0
 14 15  2  0
 16 14  1  0
 17 16  1  0
 17 20  1  0
 17 18  1  6
 19 18  1  0
 20 21  1  0
 22 20  2  0
M  END
$$$$
