SKC.pdb
     RDKit          3D

 22 21  0  0  1  0  0  0  0  0999 V2000
   21.4809  -13.1867  -14.9208 O   0  0  0  0  0  0  0  0  0  0  0  0
   21.4661  -11.8131  -15.2404 C   0  0  0  0  0  0  0  0  0  0  0  0
   20.5562  -11.6510  -16.4649 C   0  0  2  0  0  0  0  0  0  0  0  0
   21.2143  -12.0577  -17.6672 N   0  0  0  0  0  0  0  0  0  0  0  0
   20.1592  -10.2234  -16.4986 C   0  0  0  0  0  0  0  0  0  0  0  0
   20.9388   -9.4077  -17.0523 O   0  0  0  0  0  0  0  0  0  0  0  0
   18.9563   -9.7340  -15.9436 N   0  0  0  0  0  0  0  0  0  0  0  0
   18.5224   -8.3559  -16.0289 C   0  0  1  0  0  0  0  0  0  0  0  0
   17.0363   -8.2125  -15.8346 C   0  0  0  0  0  0  0  0  0  0  0  0
   16.2554   -8.7221  -17.0254 C   0  0  0  0  0  0  0  0  0  0  0  0
   14.7700   -8.5099  -16.8508 C   0  0  0  0  0  0  0  0  0  0  0  0
   14.0599   -9.0906  -18.0547 C   0  0  0  0  0  0  0  0  0  0  0  0
   12.6514   -8.8420  -17.9527 N   0  0  0  0  0  0  0  0  0  0  0  0
   19.3003   -7.5565  -15.0605 C   0  0  0  0  0  0  0  0  0  0  0  0
   19.5319   -8.0326  -13.9261 O   0  0  0  0  0  0  0  0  0  0  0  0
   19.8067   -6.2601  -15.3493 N   0  0  0  0  0  0  0  0  0  0  0  0
   20.5802   -5.5017  -14.3685 C   0  0  1  0  0  0  0  0  0  0  0  0
   22.0207   -5.8860  -14.4738 C   0  0  0  0  0  0  0  0  0  0  0  0
   22.9416   -4.8408  -13.2802 S   0  0  0  0  0  0  0  0  0  0  0  0
   20.4242   -4.0407  -14.5896 C   0  0  0  0  0  0  0  0  0  0  0  0
   20.4652   -3.1185  -13.5561 O   0  0  0  0  0  0  0  0  0  0  0  0
   20.2463   -3.5927  -15.7523 O   0  0  0  0  0  0  0  0  0  0  0  0
  1  2  1  0
  2  3  1  0
  3  5  1  0
  3  4  1  6
  5  6  2  0
  7  8  1  0
  7  5  1  0
  9 10  1  0
  8  9  1  1
 11 10  1  0
 12 11  1  0
 13 12  1  0
 14  8  1  0
 14 15  2  0
 16 14  1  0
 17 16  1  0
 17 20  1  0
 17 18  1  6
 19 18  1  0
 20 21  1  0
 22 20  2  0
M  END
$$$$
