SKC.pdb
     RDKit          3D

 22 21  0  0  1  0  0  0  0  0999 V2000
   19.0472  -19.5120    1.5838 O   0  0  0  0  0  0  0  0  0  0  0  0
   18.7500  -18.4667    2.4826 C   0  0  0  0  0  0  0  0  0  0  0  0
   17.2263  -18.2883    2.4694 C   0  0  2  0  0  0  0  0  0  0  0  0
   16.7385  -18.0259    1.1514 N   0  0  0  0  0  0  0  0  0  0  0  0
   16.9321  -17.1788    3.4072 C   0  0  0  0  0  0  0  0  0  0  0  0
   16.6451  -16.0561    2.9205 O   0  0  0  0  0  0  0  0  0  0  0  0
   16.9571  -17.3167    4.8124 N   0  0  0  0  0  0  0  0  0  0  0  0
   16.4806  -16.3105    5.7373 C   0  0  1  0  0  0  0  0  0  0  0  0
   15.9211  -16.9137    6.9982 C   0  0  0  0  0  0  0  0  0  0  0  0
   14.5777  -17.5690    6.7675 C   0  0  0  0  0  0  0  0  0  0  0  0
   14.4455  -18.8588    7.5427 C   0  0  0  0  0  0  0  0  0  0  0  0
   13.0766  -19.4430    7.2679 C   0  0  0  0  0  0  0  0  0  0  0  0
   12.9292  -20.6835    7.9719 N   0  0  0  0  0  0  0  0  0  0  0  0
   17.5779  -15.3580    6.0031 C   0  0  0  0  0  0  0  0  0  0  0  0
   18.7517  -15.7872    6.0747 O   0  0  0  0  0  0  0  0  0  0  0  0
   17.3718  -13.9633    6.1845 N   0  0  0  0  0  0  0  0  0  0  0  0
   18.4895  -13.0377    6.3557 C   0  0  1  0  0  0  0  0  0  0  0  0
   18.3200  -11.8829    5.4221 C   0  0  0  0  0  0  0  0  0  0  0  0
   19.0426  -12.3857    3.8127 S   0  0  0  0  0  0  0  0  0  0  0  0
   18.5631  -12.5534    7.7584 C   0  0  0  0  0  0  0  0  0  0  0  0
   19.5989  -11.7587    8.2228 O   0  0  0  0  0  0  0  0  0  0  0  0
   17.6621  -12.8613    8.5816 O   0  0  0  0  0  0  0  0  0  0  0  0
  1  2  1  0
  2  3  1  0
  3  5  1  0
  3  4  1  6
  5  6  2  0
  7  8  1  0
  7  5  1  0
  9 10  1  0
  8  9  1  1
 11 10  1  0
 12 11  1  0
 13 12  1  0
 14  8  1  0
 14 15  2  0
 16 14  1  0
 17 16  1  0
 17 20  1  0
 17 18  1  6
 19 18  1  0
 20 21  1  0
 22 20  2  0
M  END
$$$$
