SKC.pdb
     RDKit          3D

 22 21  0  0  1  0  0  0  0  0999 V2000
   27.0669   -6.2557  -19.0518 O   0  0  0  0  0  0  0  0  0  0  0  0
   25.7135   -6.1087  -18.6832 C   0  0  0  0  0  0  0  0  0  0  0  0
   24.9311   -7.2061  -19.4159 C   0  0  2  0  0  0  0  0  0  0  0  0
   24.7626   -6.8967  -20.8015 N   0  0  0  0  0  0  0  0  0  0  0  0
   23.6348   -7.3320  -18.7081 C   0  0  0  0  0  0  0  0  0  0  0  0
   22.8024   -6.3987  -18.8324 O   0  0  0  0  0  0  0  0  0  0  0  0
   23.2880   -8.4408  -17.9052 N   0  0  0  0  0  0  0  0  0  0  0  0
   22.0260   -8.5789  -17.2101 C   0  0  1  0  0  0  0  0  0  0  0  0
   21.4819   -9.9806  -17.2884 C   0  0  0  0  0  0  0  0  0  0  0  0
   20.1694  -10.1231  -16.5505 C   0  0  0  0  0  0  0  0  0  0  0  0
   19.5967  -11.5137  -16.6940 C   0  0  0  0  0  0  0  0  0  0  0  0
   18.2709  -11.5615  -15.9656 C   0  0  0  0  0  0  0  0  0  0  0  0
   17.7007  -12.8719  -16.0834 N   0  0  0  0  0  0  0  0  0  0  0  0
   22.2019   -8.1162  -15.8184 C   0  0  0  0  0  0  0  0  0  0  0  0
   23.0474   -8.6846  -15.0909 O   0  0  0  0  0  0  0  0  0  0  0  0
   21.4545   -7.0477  -15.2524 N   0  0  0  0  0  0  0  0  0  0  0  0
   21.5646   -6.6983  -13.8378 C   0  0  1  0  0  0  0  0  0  0  0  0
   21.6401   -5.2118  -13.7021 C   0  0  0  0  0  0  0  0  0  0  0  0
   23.2123   -4.6825  -14.4850 S   0  0  0  0  0  0  0  0  0  0  0  0
   20.4033   -7.2223  -13.0733 C   0  0  0  0  0  0  0  0  0  0  0  0
   20.4339   -7.4108  -11.7008 O   0  0  0  0  0  0  0  0  0  0  0  0
   19.3343   -7.5156  -13.6695 O   0  0  0  0  0  0  0  0  0  0  0  0
  1  2  1  0
  2  3  1  0
  3  5  1  0
  3  4  1  6
  5  6  2  0
  7  8  1  0
  7  5  1  0
  9 10  1  0
  8  9  1  1
 11 10  1  0
 12 11  1  0
 13 12  1  0
 14  8  1  0
 14 15  2  0
 16 14  1  0
 17 16  1  0
 17 20  1  0
 17 18  1  6
 19 18  1  0
 20 21  1  0
 22 20  2  0
M  END
$$$$
