SKC.pdb
     RDKit          3D

 22 21  0  0  1  0  0  0  0  0999 V2000
   16.8632  -11.3414  -11.2256 O   0  0  0  0  0  0  0  0  0  0  0  0
   16.4260  -11.1566   -9.8976 C   0  0  0  0  0  0  0  0  0  0  0  0
   15.0819  -10.4208   -9.9700 C   0  0  2  0  0  0  0  0  0  0  0  0
   14.2418  -10.9588  -10.9941 N   0  0  0  0  0  0  0  0  0  0  0  0
   15.4045   -8.9929  -10.2024 C   0  0  0  0  0  0  0  0  0  0  0  0
   15.2916   -8.5458  -11.3716 O   0  0  0  0  0  0  0  0  0  0  0  0
   15.8302   -8.1126   -9.1834 N   0  0  0  0  0  0  0  0  0  0  0  0
   16.0400   -6.6927   -9.3701 C   0  0  1  0  0  0  0  0  0  0  0  0
   15.5933   -5.8884   -8.1782 C   0  0  0  0  0  0  0  0  0  0  0  0
   15.8046   -4.4047   -8.3819 C   0  0  0  0  0  0  0  0  0  0  0  0
   14.4989   -3.6456   -8.3502 C   0  0  0  0  0  0  0  0  0  0  0  0
   14.8048   -2.1658   -8.4366 C   0  0  0  0  0  0  0  0  0  0  0  0
   13.5813   -1.4225   -8.5193 N   0  0  0  0  0  0  0  0  0  0  0  0
   17.4605   -6.4668   -9.7060 C   0  0  0  0  0  0  0  0  0  0  0  0
   18.3291   -6.6362   -8.8206 O   0  0  0  0  0  0  0  0  0  0  0  0
   17.9012   -6.0627  -10.9956 N   0  0  0  0  0  0  0  0  0  0  0  0
   19.3197   -5.8976  -11.3057 C   0  0  1  0  0  0  0  0  0  0  0  0
   19.8929   -7.2182  -11.7072 C   0  0  0  0  0  0  0  0  0  0  0  0
   21.6480   -6.9258  -12.1534 S   0  0  0  0  0  0  0  0  0  0  0  0
   19.5092   -4.9062  -12.3960 C   0  0  0  0  0  0  0  0  0  0  0  0
   20.6524   -4.1320  -12.5137 O   0  0  0  0  0  0  0  0  0  0  0  0
   18.6118   -4.7406  -13.2629 O   0  0  0  0  0  0  0  0  0  0  0  0
  1  2  1  0
  2  3  1  0
  3  5  1  0
  3  4  1  6
  5  6  2  0
  7  8  1  0
  7  5  1  0
  9 10  1  0
  8  9  1  1
 11 10  1  0
 12 11  1  0
 13 12  1  0
 14  8  1  0
 14 15  2  0
 16 14  1  0
 17 16  1  0
 17 20  1  0
 17 18  1  6
 19 18  1  0
 20 21  1  0
 22 20  2  0
M  END
$$$$
