SKC.pdb
     RDKit          3D

 22 21  0  0  1  0  0  0  0  0999 V2000
   15.2300  -10.0385  -16.1664 O   0  0  0  0  0  0  0  0  0  0  0  0
   16.3999   -9.3894  -15.7204 C   0  0  0  0  0  0  0  0  0  0  0  0
   17.5225  -10.4348  -15.7369 C   0  0  2  0  0  0  0  0  0  0  0  0
   17.3060  -11.4552  -14.7592 N   0  0  0  0  0  0  0  0  0  0  0  0
   18.7830   -9.6914  -15.5014 C   0  0  0  0  0  0  0  0  0  0  0  0
   19.0251   -9.2969  -14.3328 O   0  0  0  0  0  0  0  0  0  0  0  0
   19.7217   -9.4044  -16.5166 N   0  0  0  0  0  0  0  0  0  0  0  0
   21.0153   -8.7993  -16.2813 C   0  0  1  0  0  0  0  0  0  0  0  0
   21.9842   -9.0701  -17.4014 C   0  0  0  0  0  0  0  0  0  0  0  0
   22.4625  -10.5049  -17.4050 C   0  0  0  0  0  0  0  0  0  0  0  0
   23.2953  -10.8124  -18.6273 C   0  0  0  0  0  0  0  0  0  0  0  0
   23.4891  -12.3113  -18.7084 C   0  0  0  0  0  0  0  0  0  0  0  0
   24.1973  -12.6437  -19.9101 N   0  0  0  0  0  0  0  0  0  0  0  0
   20.8221   -7.3556  -16.0357 C   0  0  0  0  0  0  0  0  0  0  0  0
   20.0303   -6.7155  -16.7641 O   0  0  0  0  0  0  0  0  0  0  0  0
   21.4942   -6.6440  -15.0050 N   0  0  0  0  0  0  0  0  0  0  0  0
   21.3273   -5.2026  -14.8321 C   0  0  1  0  0  0  0  0  0  0  0  0
   20.3585   -4.9486  -13.7227 C   0  0  0  0  0  0  0  0  0  0  0  0
   20.3589   -3.1400  -13.4160 S   0  0  0  0  0  0  0  0  0  0  0  0
   22.6294   -4.5533  -14.5313 C   0  0  0  0  0  0  0  0  0  0  0  0
   22.8392   -3.1916  -14.6801 O   0  0  0  0  0  0  0  0  0  0  0  0
   23.6002   -5.2425  -14.1229 O   0  0  0  0  0  0  0  0  0  0  0  0
  1  2  1  0
  2  3  1  0
  3  5  1  0
  3  4  1  1
  5  6  2  0
  7  8  1  0
  7  5  1  0
  9 10  1  0
  8  9  1  6
 11 10  1  0
 12 11  1  0
 13 12  1  0
 14  8  1  0
 14 15  2  0
 16 14  1  0
 17 16  1  0
 17 20  1  0
 17 18  1  1
 19 18  1  0
 20 21  1  0
 22 20  2  0
M  END
$$$$
