SKC.pdb
     RDKit          3D

 22 21  0  0  1  0  0  0  0  0999 V2000
   16.3923   -8.4289  -14.6461 O   0  0  0  0  0  0  0  0  0  0  0  0
   16.5414   -9.0883  -15.8838 C   0  0  0  0  0  0  0  0  0  0  0  0
   17.4694  -10.2856  -15.6412 C   0  0  2  0  0  0  0  0  0  0  0  0
   17.0718  -11.0349  -14.4903 N   0  0  0  0  0  0  0  0  0  0  0  0
   18.8357   -9.7279  -15.5023 C   0  0  0  0  0  0  0  0  0  0  0  0
   19.2574   -9.4831  -14.3439 O   0  0  0  0  0  0  0  0  0  0  0  0
   19.6843   -9.4584  -16.5985 N   0  0  0  0  0  0  0  0  0  0  0  0
   21.0202   -8.9146  -16.4787 C   0  0  1  0  0  0  0  0  0  0  0  0
   21.8388   -9.1328  -17.7234 C   0  0  0  0  0  0  0  0  0  0  0  0
   22.2328  -10.5825  -17.8979 C   0  0  0  0  0  0  0  0  0  0  0  0
   23.1504  -10.7726  -19.0828 C   0  0  0  0  0  0  0  0  0  0  0  0
   23.4776  -12.2455  -19.2019 C   0  0  0  0  0  0  0  0  0  0  0  0
   24.2586  -12.4741  -20.3825 N   0  0  0  0  0  0  0  0  0  0  0  0
   20.9165   -7.4876  -16.1116 C   0  0  0  0  0  0  0  0  0  0  0  0
   19.9732   -6.8075  -16.5751 O   0  0  0  0  0  0  0  0  0  0  0  0
   21.8404   -6.8358  -15.2501 N   0  0  0  0  0  0  0  0  0  0  0  0
   21.7798   -5.3961  -15.0072 C   0  0  1  0  0  0  0  0  0  0  0  0
   21.2015   -5.1494  -13.6513 C   0  0  0  0  0  0  0  0  0  0  0  0
   21.3268   -3.3466  -13.3363 S   0  0  0  0  0  0  0  0  0  0  0  0
   23.1318   -4.7876  -15.1038 C   0  0  0  0  0  0  0  0  0  0  0  0
   23.3404   -3.4946  -15.5565 O   0  0  0  0  0  0  0  0  0  0  0  0
   24.1484   -5.4493  -14.7678 O   0  0  0  0  0  0  0  0  0  0  0  0
  1  2  1  0
  2  3  1  0
  3  5  1  0
  3  4  1  1
  5  6  2  0
  7  8  1  0
  7  5  1  0
  9 10  1  0
  8  9  1  6
 11 10  1  0
 12 11  1  0
 13 12  1  0
 14  8  1  0
 14 15  2  0
 16 14  1  0
 17 16  1  0
 17 20  1  0
 17 18  1  1
 19 18  1  0
 20 21  1  0
 22 20  2  0
M  END
$$$$
