SKC.pdb
     RDKit          3D

 22 21  0  0  1  0  0  0  0  0999 V2000
   25.4406  -12.5367  -14.8890 O   0  0  0  0  0  0  0  0  0  0  0  0
   24.7933  -13.5337  -15.6481 C   0  0  0  0  0  0  0  0  0  0  0  0
   25.8413  -14.6120  -15.9521 C   0  0  2  0  0  0  0  0  0  0  0  0
   26.5064  -14.3647  -17.1932 N   0  0  0  0  0  0  0  0  0  0  0  0
   25.1159  -15.9046  -15.9527 C   0  0  0  0  0  0  0  0  0  0  0  0
   24.3004  -16.1223  -16.8840 O   0  0  0  0  0  0  0  0  0  0  0  0
   25.2924  -16.8996  -14.9663 N   0  0  0  0  0  0  0  0  0  0  0  0
   24.5650  -18.1505  -14.9332 C   0  0  1  0  0  0  0  0  0  0  0  0
   25.2690  -19.1983  -14.1125 C   0  0  0  0  0  0  0  0  0  0  0  0
   24.5246  -20.5149  -14.1117 C   0  0  0  0  0  0  0  0  0  0  0  0
   25.2544  -21.5680  -13.3114 C   0  0  0  0  0  0  0  0  0  0  0  0
   24.5850  -22.9031  -13.5566 C   0  0  0  0  0  0  0  0  0  0  0  0
   25.2755  -23.9310  -12.8335 N   0  0  0  0  0  0  0  0  0  0  0  0
   23.1926  -17.8847  -14.4562 C   0  0  0  0  0  0  0  0  0  0  0  0
   22.9950  -16.9257  -13.6763 O   0  0  0  0  0  0  0  0  0  0  0  0
   22.0696  -18.6677  -14.8389 N   0  0  0  0  0  0  0  0  0  0  0  0
   20.7162  -18.3360  -14.3988 C   0  0  1  0  0  0  0  0  0  0  0  0
   20.3573  -16.9726  -14.8950 C   0  0  0  0  0  0  0  0  0  0  0  0
   19.1604  -16.2659  -13.6980 S   0  0  0  0  0  0  0  0  0  0  0  0
   19.7385  -19.3357  -14.9011 C   0  0  0  0  0  0  0  0  0  0  0  0
   18.5308  -19.5850  -14.2690 O   0  0  0  0  0  0  0  0  0  0  0  0
   19.9899  -19.9986  -15.9411 O   0  0  0  0  0  0  0  0  0  0  0  0
  1  2  1  0
  2  3  1  0
  3  5  1  0
  3  4  1  6
  5  6  2  0
  7  8  1  0
  7  5  1  0
  9 10  1  0
  8  9  1  1
 11 10  1  0
 12 11  1  0
 13 12  1  0
 14  8  1  0
 14 15  2  0
 16 14  1  0
 17 16  1  0
 17 20  1  0
 17 18  1  6
 19 18  1  0
 20 21  1  0
 22 20  2  0
M  END
$$$$
