SKC.pdb
     RDKit          3D

 22 21  0  0  1  0  0  0  0  0999 V2000
   24.8181  -11.0967  -15.6174 O   0  0  0  0  0  0  0  0  0  0  0  0
   23.6228  -11.7482  -15.2488 C   0  0  0  0  0  0  0  0  0  0  0  0
   22.7002  -11.7117  -16.4739 C   0  0  2  0  0  0  0  0  0  0  0  0
   23.4368  -11.8465  -17.6918 N   0  0  0  0  0  0  0  0  0  0  0  0
   21.9677  -10.4251  -16.4014 C   0  0  0  0  0  0  0  0  0  0  0  0
   22.3840   -9.4695  -17.1037 O   0  0  0  0  0  0  0  0  0  0  0  0
   20.8319  -10.2179  -15.5882 N   0  0  0  0  0  0  0  0  0  0  0  0
   20.0292   -9.0136  -15.6034 C   0  0  1  0  0  0  0  0  0  0  0  0
   18.6526   -9.2383  -15.0365 C   0  0  0  0  0  0  0  0  0  0  0  0
   17.7955  -10.0905  -15.9456 C   0  0  0  0  0  0  0  0  0  0  0  0
   16.4034  -10.2747  -15.3887 C   0  0  0  0  0  0  0  0  0  0  0  0
   15.5866  -11.0577  -16.3941 C   0  0  0  0  0  0  0  0  0  0  0  0
   15.5079  -12.4311  -15.9895 N   0  0  0  0  0  0  0  0  0  0  0  0
   20.7666   -7.9474  -14.8953 C   0  0  0  0  0  0  0  0  0  0  0  0
   21.4582   -8.2470  -13.8958 O   0  0  0  0  0  0  0  0  0  0  0  0
   20.7336   -6.5826  -15.2912 N   0  0  0  0  0  0  0  0  0  0  0  0
   21.4950   -5.5580  -14.5800 C   0  0  1  0  0  0  0  0  0  0  0  0
   22.5506   -5.0112  -15.4860 C   0  0  0  0  0  0  0  0  0  0  0  0
   23.3605   -3.6299  -14.5910 S   0  0  0  0  0  0  0  0  0  0  0  0
   20.6027   -4.4638  -14.1174 C   0  0  0  0  0  0  0  0  0  0  0  0
   20.9144   -3.6475  -13.0419 O   0  0  0  0  0  0  0  0  0  0  0  0
   19.5122   -4.2454  -14.7069 O   0  0  0  0  0  0  0  0  0  0  0  0
  1  2  1  0
  2  3  1  0
  3  5  1  0
  3  4  1  6
  5  6  2  0
  7  8  1  0
  7  5  1  0
  9 10  1  0
  8  9  1  1
 11 10  1  0
 12 11  1  0
 13 12  1  0
 14  8  1  0
 14 15  2  0
 16 14  1  0
 17 16  1  0
 17 20  1  0
 17 18  1  6
 19 18  1  0
 20 21  1  0
 22 20  2  0
M  END
$$$$
