PWI.pdb
     RDKit          3D

 30 32  0  0  1  0  0  0  0  0999 V2000
    9.5800  -17.9137   19.5851 N   0  0  0  0  0  0  0  0  0  0  0  0
    9.2112  -18.1288   18.1879 C   0  0  0  0  0  0  0  0  0  0  0  0
    9.5611  -16.8229   17.4559 C   0  0  0  0  0  0  0  0  0  0  0  0
    9.3589  -15.8063   18.5779 C   0  0  0  0  0  0  0  0  0  0  0  0
   10.0608  -16.5725   19.7125 C   0  0  1  0  0  0  0  0  0  0  0  0
    9.8468  -15.9311   21.0253 C   0  0  0  0  0  0  0  0  0  0  0  0
   10.2843  -14.7404   21.1307 O   0  0  0  0  0  0  0  0  0  0  0  0
    9.1977  -16.5963   22.1061 N   0  0  0  0  0  0  0  0  0  0  0  0
    8.9279  -15.8776   23.3630 C   0  0  1  0  0  0  0  0  0  0  0  0
    7.5508  -16.2585   23.7590 C   0  0  0  0  0  0  0  0  0  0  0  0
    6.8172  -15.3483   24.6474 C   0  0  0  0  0  0  0  0  0  0  0  0
    5.6524  -15.6896   25.3806 C   0  0  0  0  0  0  0  0  0  0  0  0
    5.2185  -14.6179   26.0345 N   0  0  0  0  0  0  0  0  0  0  0  0
    6.0092  -13.5436   25.8050 C   0  0  0  0  0  0  0  0  0  0  0  0
    5.9577  -12.2447   26.2615 C   0  0  0  0  0  0  0  0  0  0  0  0
    6.9028  -11.3427   25.8778 C   0  0  0  0  0  0  0  0  0  0  0  0
    7.9205  -11.7917   25.0097 C   0  0  0  0  0  0  0  0  0  0  0  0
    7.9455  -13.0767   24.5760 C   0  0  0  0  0  0  0  0  0  0  0  0
    7.0026  -14.0167   24.9412 C   0  0  0  0  0  0  0  0  0  0  0  0
    9.9883  -16.3798   24.3438 C   0  0  0  0  0  0  0  0  0  0  0  0
   10.6181  -17.3750   23.9952 O   0  0  0  0  0  0  0  0  0  0  0  0
    9.6522  -13.2648   28.9308 C   0  0  0  0  0  0  0  0  0  0  0  0
    9.8878  -14.0223   27.6297 C   0  0  0  0  0  0  0  0  0  0  0  0
   10.4951  -15.3619   27.9913 C   0  0  2  0  0  0  0  0  0  0  0  0
   11.7465  -15.1248   28.7944 C   0  0  0  0  0  0  0  0  0  0  0  0
   10.7554  -16.2124   26.7629 C   0  0  2  0  0  0  0  0  0  0  0  0
   10.2159  -15.7360   25.5529 N   0  0  0  0  0  0  0  0  0  0  0  0
   10.7222  -17.6423   27.1056 C   0  0  0  0  0  0  0  0  0  0  0  0
   11.9875  -18.2059   27.4463 O   0  0  0  0  0  0  0  0  0  0  0  0
    9.7430  -18.4083   27.1351 O   0  0  0  0  0  0  0  0  0  0  0  0
  1  2  1  0
  3  2  1  0
  4  3  1  0
  5  4  1  0
  5  1  1  0
  5  6  1  1
  7  6  2  0
  8  6  1  0
  9  8  1  0
 10 11  1  0
  9 10  1  1
 11 12  2  0
 13 12  1  0
 14 13  1  0
 15 14  2  0
 16 15  1  0
 17 18  1  0
 17 16  2  0
 18 19  2  0
 19 14  1  0
 19 11  1  0
 20  9  1  0
 20 27  1  0
 21 20  2  0
 23 22  1  0
 24 23  1  0
 24 26  1  0
 24 25  1  6
 26 28  1  0
 26 27  1  6
 28 29  1  0
 30 28  2  0
M  END
$$$$
