PWI.pdb
     RDKit          3D

 30 32  0  0  1  0  0  0  0  0999 V2000
   10.3242  -18.1051   19.7645 N   0  0  0  0  0  0  0  0  0  0  0  0
    9.9991  -18.4937   18.3941 C   0  0  0  0  0  0  0  0  0  0  0  0
   10.1466  -17.2173   17.5500 C   0  0  0  0  0  0  0  0  0  0  0  0
    9.7853  -16.1513   18.5826 C   0  0  0  0  0  0  0  0  0  0  0  0
   10.5920  -16.6999   19.7723 C   0  0  1  0  0  0  0  0  0  0  0  0
   10.2760  -15.9887   21.0272 C   0  0  0  0  0  0  0  0  0  0  0  0
   10.8453  -14.8598   21.1749 O   0  0  0  0  0  0  0  0  0  0  0  0
    9.3964  -16.5261   22.0117 N   0  0  0  0  0  0  0  0  0  0  0  0
    9.0495  -15.7361   23.2052 C   0  0  1  0  0  0  0  0  0  0  0  0
    7.5685  -15.7361   23.2740 C   0  0  0  0  0  0  0  0  0  0  0  0
    6.9367  -15.1006   24.4371 C   0  0  0  0  0  0  0  0  0  0  0  0
    6.1395  -15.7719   25.3985 C   0  0  0  0  0  0  0  0  0  0  0  0
    5.6833  -14.8894   26.2803 N   0  0  0  0  0  0  0  0  0  0  0  0
    6.1128  -13.6377   25.9962 C   0  0  0  0  0  0  0  0  0  0  0  0
    5.9050  -12.4265   26.6191 C   0  0  0  0  0  0  0  0  0  0  0  0
    6.4725  -11.2921   26.1240 C   0  0  0  0  0  0  0  0  0  0  0  0
    7.2712  -11.4121   24.9670 C   0  0  0  0  0  0  0  0  0  0  0  0
    7.4578  -12.6180   24.3748 C   0  0  0  0  0  0  0  0  0  0  0  0
    6.8954  -13.7873   24.8465 C   0  0  0  0  0  0  0  0  0  0  0  0
    9.6983  -16.4772   24.3750 C   0  0  0  0  0  0  0  0  0  0  0  0
    9.7803  -17.6975   24.2623 O   0  0  0  0  0  0  0  0  0  0  0  0
    9.9282  -13.8783   29.6052 C   0  0  0  0  0  0  0  0  0  0  0  0
    9.6247  -14.9971   28.6161 C   0  0  0  0  0  0  0  0  0  0  0  0
   10.8797  -15.2311   27.8010 C   0  0  2  0  0  0  0  0  0  0  0  0
   11.3435  -13.9140   27.2380 C   0  0  0  0  0  0  0  0  0  0  0  0
   10.6629  -16.2719   26.7194 C   0  0  2  0  0  0  0  0  0  0  0  0
   10.1650  -15.7960   25.4915 N   0  0  0  0  0  0  0  0  0  0  0  0
   10.1831  -17.5340   27.3028 C   0  0  0  0  0  0  0  0  0  0  0  0
   11.1226  -18.1998   28.1445 O   0  0  0  0  0  0  0  0  0  0  0  0
    9.0771  -18.0831   27.1557 O   0  0  0  0  0  0  0  0  0  0  0  0
  1  2  1  0
  3  2  1  0
  4  3  1  0
  5  4  1  0
  5  1  1  0
  5  6  1  1
  7  6  2  0
  8  6  1  0
  9  8  1  0
 10 11  1  0
  9 10  1  1
 11 12  2  0
 13 12  1  0
 14 13  1  0
 15 14  2  0
 16 15  1  0
 17 18  1  0
 17 16  2  0
 18 19  2  0
 19 14  1  0
 19 11  1  0
 20  9  1  0
 20 27  1  0
 21 20  2  0
 23 22  1  0
 24 23  1  0
 24 26  1  0
 24 25  1  6
 26 28  1  0
 26 27  1  6
 28 29  1  0
 30 28  2  0
M  END
$$$$
