PWI.pdb
     RDKit          3D

 30 32  0  0  1  0  0  0  0  0999 V2000
    8.5987  -17.3296   19.8162 N   0  0  0  0  0  0  0  0  0  0  0  0
    7.8043  -17.4239   18.5936 C   0  0  0  0  0  0  0  0  0  0  0  0
    7.8067  -16.0134   17.9820 C   0  0  0  0  0  0  0  0  0  0  0  0
    7.9202  -15.1582   19.2425 C   0  0  0  0  0  0  0  0  0  0  0  0
    9.0057  -15.9673   19.9732 C   0  0  1  0  0  0  0  0  0  0  0  0
    9.1955  -15.5055   21.3629 C   0  0  0  0  0  0  0  0  0  0  0  0
    9.5167  -14.2807   21.4938 O   0  0  0  0  0  0  0  0  0  0  0  0
    9.0345  -16.3687   22.4857 N   0  0  0  0  0  0  0  0  0  0  0  0
    9.0852  -15.8230   23.8527 C   0  0  1  0  0  0  0  0  0  0  0  0
    7.8431  -16.2836   24.5184 C   0  0  0  0  0  0  0  0  0  0  0  0
    6.9668  -15.2664   25.1128 C   0  0  0  0  0  0  0  0  0  0  0  0
    5.7199  -15.5290   25.7349 C   0  0  0  0  0  0  0  0  0  0  0  0
    5.1690  -14.3803   26.1107 N   0  0  0  0  0  0  0  0  0  0  0  0
    5.9547  -13.3257   25.7903 C   0  0  0  0  0  0  0  0  0  0  0  0
    5.8039  -11.9698   25.9823 C   0  0  0  0  0  0  0  0  0  0  0  0
    6.7688  -11.1044   25.5649 C   0  0  0  0  0  0  0  0  0  0  0  0
    7.9107  -11.6502   24.9411 C   0  0  0  0  0  0  0  0  0  0  0  0
    8.0317  -12.9896   24.7652 C   0  0  0  0  0  0  0  0  0  0  0  0
    7.0726  -13.8956   25.1719 C   0  0  0  0  0  0  0  0  0  0  0  0
   10.3484  -16.4211   24.4732 C   0  0  0  0  0  0  0  0  0  0  0  0
   10.8069  -17.4138   23.9135 O   0  0  0  0  0  0  0  0  0  0  0  0
    9.8591  -14.6827   29.8502 C   0  0  0  0  0  0  0  0  0  0  0  0
    9.8503  -15.5913   28.6269 C   0  0  0  0  0  0  0  0  0  0  0  0
   11.2500  -15.5821   28.0483 C   0  0  2  0  0  0  0  0  0  0  0  0
   11.6525  -14.1566   27.7781 C   0  0  0  0  0  0  0  0  0  0  0  0
   11.3531  -16.4510   26.8095 C   0  0  2  0  0  0  0  0  0  0  0  0
   10.9328  -15.8619   25.6018 N   0  0  0  0  0  0  0  0  0  0  0  0
   11.0350  -17.8509   27.1299 C   0  0  0  0  0  0  0  0  0  0  0  0
   12.0261  -18.5289   27.8996 O   0  0  0  0  0  0  0  0  0  0  0  0
   10.0248  -18.5055   26.8182 O   0  0  0  0  0  0  0  0  0  0  0  0
  1  2  1  0
  3  2  1  0
  4  3  1  0
  5  4  1  0
  5  1  1  0
  5  6  1  1
  7  6  2  0
  8  6  1  0
  9  8  1  0
 10 11  1  0
  9 10  1  1
 11 12  2  0
 13 12  1  0
 14 13  1  0
 15 14  2  0
 16 15  1  0
 17 18  1  0
 17 16  2  0
 18 19  2  0
 19 14  1  0
 19 11  1  0
 20  9  1  0
 20 27  1  0
 21 20  2  0
 23 22  1  0
 24 23  1  0
 24 26  1  0
 24 25  1  6
 26 28  1  0
 26 27  1  6
 28 29  1  0
 30 28  2  0
M  END
$$$$
