PWI.pdb
     RDKit          3D

 30 32  0  0  1  0  0  0  0  0999 V2000
   10.4962  -18.8747   20.3521 N   0  0  0  0  0  0  0  0  0  0  0  0
   10.2947  -19.2828   18.9638 C   0  0  0  0  0  0  0  0  0  0  0  0
   10.8071  -18.1152   18.1048 C   0  0  0  0  0  0  0  0  0  0  0  0
   10.5230  -16.9352   19.0322 C   0  0  0  0  0  0  0  0  0  0  0  0
   11.0320  -17.5483   20.3482 C   0  0  1  0  0  0  0  0  0  0  0  0
   10.6909  -16.7101   21.5150 C   0  0  0  0  0  0  0  0  0  0  0  0
   11.2718  -15.5785   21.5646 O   0  0  0  0  0  0  0  0  0  0  0  0
    9.7764  -17.1350   22.5225 N   0  0  0  0  0  0  0  0  0  0  0  0
    9.3363  -16.1949   23.5672 C   0  0  1  0  0  0  0  0  0  0  0  0
    7.8542  -16.2271   23.5421 C   0  0  0  0  0  0  0  0  0  0  0  0
    7.1746  -15.5958   22.4039 C   0  0  0  0  0  0  0  0  0  0  0  0
    6.1092  -16.1748   21.6688 C   0  0  0  0  0  0  0  0  0  0  0  0
    5.7702  -15.3599   20.6762 N   0  0  0  0  0  0  0  0  0  0  0  0
    6.5336  -14.2422   20.6700 C   0  0  0  0  0  0  0  0  0  0  0  0
    6.5438  -13.1354   19.8496 C   0  0  0  0  0  0  0  0  0  0  0  0
    7.4270  -12.1230   20.0712 C   0  0  0  0  0  0  0  0  0  0  0  0
    8.3128  -12.2554   21.1615 C   0  0  0  0  0  0  0  0  0  0  0  0
    8.2801  -13.3570   21.9522 C   0  0  0  0  0  0  0  0  0  0  0  0
    7.4015  -14.4036   21.7551 C   0  0  0  0  0  0  0  0  0  0  0  0
    9.9203  -16.7452   24.8690 C   0  0  0  0  0  0  0  0  0  0  0  0
   10.1485  -17.9519   24.8908 O   0  0  0  0  0  0  0  0  0  0  0  0
    9.1916  -13.4401   29.6064 C   0  0  0  0  0  0  0  0  0  0  0  0
    9.0580  -14.6019   28.6293 C   0  0  0  0  0  0  0  0  0  0  0  0
   10.4588  -15.0446   28.2608 C   0  0  2  0  0  0  0  0  0  0  0  0
   11.2082  -13.8640   27.7027 C   0  0  0  0  0  0  0  0  0  0  0  0
   10.4443  -16.2193   27.3016 C   0  0  2  0  0  0  0  0  0  0  0  0
   10.1746  -15.9160   25.9535 N   0  0  0  0  0  0  0  0  0  0  0  0
    9.8712  -17.4097   27.9481 C   0  0  0  0  0  0  0  0  0  0  0  0
   10.6126  -17.9006   29.0634 O   0  0  0  0  0  0  0  0  0  0  0  0
    8.8366  -18.0307   27.6477 O   0  0  0  0  0  0  0  0  0  0  0  0
  1  2  1  0
  3  2  1  0
  4  3  1  0
  5  4  1  0
  5  1  1  0
  5  6  1  1
  7  6  2  0
  8  6  1  0
  9  8  1  0
 10 11  1  0
  9 10  1  1
 11 12  2  0
 13 12  1  0
 14 13  1  0
 15 14  2  0
 16 15  1  0
 17 18  1  0
 17 16  2  0
 18 19  2  0
 19 14  1  0
 19 11  1  0
 20  9  1  0
 20 27  1  0
 21 20  2  0
 23 22  1  0
 24 23  1  0
 24 26  1  0
 24 25  1  6
 26 28  1  0
 26 27  1  6
 28 29  1  0
 30 28  2  0
M  END
$$$$
