PWI.pdb
     RDKit          3D

 30 32  0  0  1  0  0  0  0  0999 V2000
    9.7460  -17.9496   19.6784 N   0  0  0  0  0  0  0  0  0  0  0  0
    9.4039  -18.2744   18.2957 C   0  0  0  0  0  0  0  0  0  0  0  0
    9.5529  -16.9629   17.5074 C   0  0  0  0  0  0  0  0  0  0  0  0
    9.2105  -15.9413   18.5900 C   0  0  0  0  0  0  0  0  0  0  0  0
   10.0248  -16.5481   19.7457 C   0  0  1  0  0  0  0  0  0  0  0  0
    9.7271  -15.8910   21.0342 C   0  0  0  0  0  0  0  0  0  0  0  0
   10.0335  -14.6575   21.1033 O   0  0  0  0  0  0  0  0  0  0  0  0
    9.1394  -16.5864   22.1309 N   0  0  0  0  0  0  0  0  0  0  0  0
    8.8384  -15.8736   23.3841 C   0  0  1  0  0  0  0  0  0  0  0  0
    7.4725  -16.2990   23.7733 C   0  0  0  0  0  0  0  0  0  0  0  0
    6.7673  -15.4986   24.7823 C   0  0  0  0  0  0  0  0  0  0  0  0
    5.7061  -15.9678   25.5974 C   0  0  0  0  0  0  0  0  0  0  0  0
    5.2645  -14.9708   26.3558 N   0  0  0  0  0  0  0  0  0  0  0  0
    5.9524  -13.8286   26.1227 C   0  0  0  0  0  0  0  0  0  0  0  0
    5.8553  -12.5653   26.6639 C   0  0  0  0  0  0  0  0  0  0  0  0
    6.6935  -11.5744   26.2522 C   0  0  0  0  0  0  0  0  0  0  0  0
    7.6505  -11.8954   25.2663 C   0  0  0  0  0  0  0  0  0  0  0  0
    7.7226  -13.1480   24.7512 C   0  0  0  0  0  0  0  0  0  0  0  0
    6.8874  -14.1756   25.1418 C   0  0  0  0  0  0  0  0  0  0  0  0
    9.9091  -16.3374   24.3725 C   0  0  0  0  0  0  0  0  0  0  0  0
   10.5936  -17.2937   24.0177 O   0  0  0  0  0  0  0  0  0  0  0  0
   10.0531  -13.0502   28.9247 C   0  0  0  0  0  0  0  0  0  0  0  0
   10.3814  -13.8107   27.6457 C   0  0  0  0  0  0  0  0  0  0  0  0
   10.4874  -15.2776   28.0078 C   0  0  2  0  0  0  0  0  0  0  0  0
   11.5874  -15.4473   29.0217 C   0  0  0  0  0  0  0  0  0  0  0  0
   10.6985  -16.1464   26.7827 C   0  0  2  0  0  0  0  0  0  0  0  0
   10.0869  -15.7027   25.5947 N   0  0  0  0  0  0  0  0  0  0  0  0
   10.7106  -17.5700   27.1523 C   0  0  0  0  0  0  0  0  0  0  0  0
   12.0058  -18.1656   27.1979 O   0  0  0  0  0  0  0  0  0  0  0  0
    9.7467  -18.3064   27.4261 O   0  0  0  0  0  0  0  0  0  0  0  0
  1  2  1  0
  3  2  1  0
  4  3  1  0
  5  4  1  0
  5  1  1  0
  5  6  1  1
  7  6  2  0
  8  6  1  0
  9  8  1  0
 10 11  1  0
  9 10  1  1
 11 12  2  0
 13 12  1  0
 14 13  1  0
 15 14  2  0
 16 15  1  0
 17 18  1  0
 17 16  2  0
 18 19  2  0
 19 14  1  0
 19 11  1  0
 20  9  1  0
 20 27  1  0
 21 20  2  0
 23 22  1  0
 24 23  1  0
 24 26  1  0
 24 25  1  1
 26 28  1  0
 26 27  1  6
 28 29  1  0
 30 28  2  0
M  END
$$$$
