PWI.pdb
     RDKit          3D

 30 32  0  0  1  0  0  0  0  0999 V2000
    8.7368  -16.0185   19.2955 N   0  0  0  0  0  0  0  0  0  0  0  0
    8.1905  -15.8268   17.9541 C   0  0  0  0  0  0  0  0  0  0  0  0
    8.4996  -14.3681   17.5798 C   0  0  0  0  0  0  0  0  0  0  0  0
    8.4781  -13.7111   18.9586 C   0  0  0  0  0  0  0  0  0  0  0  0
    9.2830  -14.7703   19.7314 C   0  0  1  0  0  0  0  0  0  0  0  0
    9.2582  -14.5273   21.1877 C   0  0  0  0  0  0  0  0  0  0  0  0
    9.6885  -13.3886   21.5601 O   0  0  0  0  0  0  0  0  0  0  0  0
    8.7883  -15.4990   22.1186 N   0  0  0  0  0  0  0  0  0  0  0  0
    8.6686  -15.1594   23.5466 C   0  0  1  0  0  0  0  0  0  0  0  0
    7.3194  -15.6153   23.9591 C   0  0  0  0  0  0  0  0  0  0  0  0
    6.5687  -14.7720   24.8977 C   0  0  0  0  0  0  0  0  0  0  0  0
    5.4020  -15.1720   25.5975 C   0  0  0  0  0  0  0  0  0  0  0  0
    4.9511  -14.1492   26.3150 N   0  0  0  0  0  0  0  0  0  0  0  0
    5.7315  -13.0541   26.1617 C   0  0  0  0  0  0  0  0  0  0  0  0
    5.6619  -11.7878   26.7001 C   0  0  0  0  0  0  0  0  0  0  0  0
    6.5999  -10.8530   26.3831 C   0  0  0  0  0  0  0  0  0  0  0  0
    7.6293  -11.2345   25.4967 C   0  0  0  0  0  0  0  0  0  0  0  0
    7.6721  -12.4886   24.9819 C   0  0  0  0  0  0  0  0  0  0  0  0
    6.7369  -13.4601   25.2778 C   0  0  0  0  0  0  0  0  0  0  0  0
    9.7933  -15.9336   24.2352 C   0  0  0  0  0  0  0  0  0  0  0  0
   10.2553  -16.8847   23.6103 O   0  0  0  0  0  0  0  0  0  0  0  0
   10.0798  -14.3158   29.5750 C   0  0  0  0  0  0  0  0  0  0  0  0
    9.9264  -14.7892   28.1347 C   0  0  0  0  0  0  0  0  0  0  0  0
   11.1220  -15.6634   27.8175 C   0  0  2  0  0  0  0  0  0  0  0  0
   12.3757  -14.8451   27.9779 C   0  0  0  0  0  0  0  0  0  0  0  0
   11.0157  -16.2842   26.4379 C   0  0  2  0  0  0  0  0  0  0  0  0
   10.2562  -15.5688   25.4925 N   0  0  0  0  0  0  0  0  0  0  0  0
   10.9356  -17.7497   26.5334 C   0  0  0  0  0  0  0  0  0  0  0  0
   12.0571  -18.3711   27.1586 O   0  0  0  0  0  0  0  0  0  0  0  0
   10.0255  -18.5019   26.1432 O   0  0  0  0  0  0  0  0  0  0  0  0
  1  2  1  0
  3  2  1  0
  4  3  1  0
  5  4  1  0
  5  1  1  0
  5  6  1  1
  7  6  2  0
  8  6  1  0
  9  8  1  0
 10 11  1  0
  9 10  1  1
 11 12  2  0
 13 12  1  0
 14 13  1  0
 15 14  2  0
 16 15  1  0
 17 18  1  0
 17 16  2  0
 18 19  2  0
 19 14  1  0
 19 11  1  0
 20  9  1  0
 20 27  1  0
 21 20  2  0
 23 22  1  0
 24 23  1  0
 24 26  1  0
 24 25  1  6
 26 28  1  0
 26 27  1  1
 28 29  1  0
 30 28  2  0
M  END
$$$$
