PWI.pdb
     RDKit          3D

 30 32  0  0  1  0  0  0  0  0999 V2000
    8.7419  -17.2312   19.6119 N   0  0  0  0  0  0  0  0  0  0  0  0
    8.1678  -17.2097   18.2687 C   0  0  0  0  0  0  0  0  0  0  0  0
    8.5667  -15.8538   17.6636 C   0  0  0  0  0  0  0  0  0  0  0  0
    8.6356  -14.9912   18.9223 C   0  0  0  0  0  0  0  0  0  0  0  0
    9.3883  -15.9747   19.8351 C   0  0  1  0  0  0  0  0  0  0  0  0
    9.4272  -15.5075   21.2353 C   0  0  0  0  0  0  0  0  0  0  0  0
   10.0549  -14.4176   21.4316 O   0  0  0  0  0  0  0  0  0  0  0  0
    8.8085  -16.2256   22.2999 N   0  0  0  0  0  0  0  0  0  0  0  0
    8.7598  -15.6470   23.6534 C   0  0  1  0  0  0  0  0  0  0  0  0
    7.4638  -16.0773   24.2309 C   0  0  0  0  0  0  0  0  0  0  0  0
    6.6635  -15.0725   24.9419 C   0  0  0  0  0  0  0  0  0  0  0  0
    5.4378  -15.3298   25.6070 C   0  0  0  0  0  0  0  0  0  0  0  0
    4.9574  -14.1909   26.0931 N   0  0  0  0  0  0  0  0  0  0  0  0
    5.7726  -13.1481   25.8097 C   0  0  0  0  0  0  0  0  0  0  0  0
    5.6915  -11.8053   26.1070 C   0  0  0  0  0  0  0  0  0  0  0  0
    6.6725  -10.9512   25.7040 C   0  0  0  0  0  0  0  0  0  0  0  0
    7.7574  -11.4949   24.9841 C   0  0  0  0  0  0  0  0  0  0  0  0
    7.8102  -12.8213   24.7056 C   0  0  0  0  0  0  0  0  0  0  0  0
    6.8327  -13.7153   25.0947 C   0  0  0  0  0  0  0  0  0  0  0  0
    9.9631  -16.2438   24.3846 C   0  0  0  0  0  0  0  0  0  0  0  0
   10.4765  -17.2306   23.8635 O   0  0  0  0  0  0  0  0  0  0  0  0
    9.8207  -14.2256   29.6078 C   0  0  0  0  0  0  0  0  0  0  0  0
    9.7428  -14.8902   28.2387 C   0  0  0  0  0  0  0  0  0  0  0  0
   11.1044  -15.4869   27.9490 C   0  0  2  0  0  0  0  0  0  0  0  0
   12.1261  -14.3809   27.9431 C   0  0  0  0  0  0  0  0  0  0  0  0
   11.1090  -16.2778   26.6549 C   0  0  2  0  0  0  0  0  0  0  0  0
   10.4375  -15.6897   25.5661 N   0  0  0  0  0  0  0  0  0  0  0  0
   11.0091  -17.7196   26.9278 C   0  0  0  0  0  0  0  0  0  0  0  0
   12.1476  -18.2871   27.5730 O   0  0  0  0  0  0  0  0  0  0  0  0
   10.0695  -18.4924   26.6704 O   0  0  0  0  0  0  0  0  0  0  0  0
  1  2  1  0
  3  2  1  0
  4  3  1  0
  5  4  1  0
  5  1  1  0
  5  6  1  1
  7  6  2  0
  8  6  1  0
  9  8  1  0
 10 11  1  0
  9 10  1  1
 11 12  2  0
 13 12  1  0
 14 13  1  0
 15 14  2  0
 16 15  1  0
 17 18  1  0
 17 16  2  0
 18 19  2  0
 19 14  1  0
 19 11  1  0
 20  9  1  0
 20 27  1  0
 21 20  2  0
 23 22  1  0
 24 23  1  0
 24 26  1  0
 24 25  1  6
 26 28  1  0
 26 27  1  6
 28 29  1  0
 30 28  2  0
M  END
$$$$
