PWI.pdb
     RDKit          3D

 30 32  0  0  1  0  0  0  0  0999 V2000
    7.3920  -15.6258   20.5728 N   0  0  0  0  0  0  0  0  0  0  0  0
    6.4797  -14.9186   19.6771 C   0  0  0  0  0  0  0  0  0  0  0  0
    7.1944  -13.6117   19.2968 C   0  0  0  0  0  0  0  0  0  0  0  0
    8.0256  -13.3669   20.5547 C   0  0  0  0  0  0  0  0  0  0  0  0
    8.5426  -14.7995   20.7721 C   0  0  1  0  0  0  0  0  0  0  0  0
    9.2270  -14.9471   22.0721 C   0  0  0  0  0  0  0  0  0  0  0  0
   10.2438  -14.2007   22.2434 O   0  0  0  0  0  0  0  0  0  0  0  0
    8.7857  -15.8639   23.0704 N   0  0  0  0  0  0  0  0  0  0  0  0
    9.4937  -15.9533   24.3587 C   0  0  1  0  0  0  0  0  0  0  0  0
    8.4523  -16.2435   25.3733 C   0  0  0  0  0  0  0  0  0  0  0  0
    7.4234  -15.2231   25.6100 C   0  0  0  0  0  0  0  0  0  0  0  0
    6.0407  -15.3830   25.3389 C   0  0  0  0  0  0  0  0  0  0  0  0
    5.4072  -14.2494   25.6178 N   0  0  0  0  0  0  0  0  0  0  0  0
    6.2621  -13.3021   26.0693 C   0  0  0  0  0  0  0  0  0  0  0  0
    6.0665  -12.0012   26.4786 C   0  0  0  0  0  0  0  0  0  0  0  0
    7.1181  -11.2490   26.9059 C   0  0  0  0  0  0  0  0  0  0  0  0
    8.3934  -11.8529   26.9132 C   0  0  0  0  0  0  0  0  0  0  0  0
    8.5558  -13.1358   26.5042 C   0  0  0  0  0  0  0  0  0  0  0  0
    7.5140  -13.9262   26.0614 C   0  0  0  0  0  0  0  0  0  0  0  0
   10.4905  -17.1001   24.1861 C   0  0  0  0  0  0  0  0  0  0  0  0
   10.0972  -18.0638   23.5339 O   0  0  0  0  0  0  0  0  0  0  0  0
   15.6146  -16.2763   22.9364 C   0  0  0  0  0  0  0  0  0  0  0  0
   14.1701  -16.6717   23.2182 C   0  0  0  0  0  0  0  0  0  0  0  0
   14.1756  -17.5516   24.4509 C   0  0  2  0  0  0  0  0  0  0  0  0
   15.1112  -18.7077   24.2160 C   0  0  0  0  0  0  0  0  0  0  0  0
   12.7785  -18.0115   24.8209 C   0  0  2  0  0  0  0  0  0  0  0  0
   11.7633  -17.0396   24.7381 N   0  0  0  0  0  0  0  0  0  0  0  0
   12.8268  -18.9757   25.9305 C   0  0  0  0  0  0  0  0  0  0  0  0
   12.3355  -18.4813   27.1750 O   0  0  0  0  0  0  0  0  0  0  0  0
   13.2358  -20.1500   25.9179 O   0  0  0  0  0  0  0  0  0  0  0  0
  1  2  1  0
  3  2  1  0
  4  3  1  0
  5  4  1  0
  5  1  1  0
  5  6  1  1
  7  6  2  0
  8  6  1  0
  9  8  1  0
 10 11  1  0
  9 10  1  1
 11 12  2  0
 13 12  1  0
 14 13  1  0
 15 14  2  0
 16 15  1  0
 17 18  1  0
 17 16  2  0
 18 19  2  0
 19 14  1  0
 19 11  1  0
 20  9  1  0
 20 27  1  0
 21 20  2  0
 23 22  1  0
 24 23  1  0
 24 26  1  0
 24 25  1  6
 26 28  1  0
 26 27  1  1
 28 29  1  0
 30 28  2  0
M  END
$$$$
