PWI.pdb
     RDKit          3D

 30 32  0  0  1  0  0  0  0  0999 V2000
    9.2620  -16.8928   19.1017 N   0  0  0  0  0  0  0  0  0  0  0  0
    8.7880  -17.0512   17.7288 C   0  0  0  0  0  0  0  0  0  0  0  0
    8.8838  -15.6568   17.0884 C   0  0  0  0  0  0  0  0  0  0  0  0
    8.6596  -14.7679   18.3101 C   0  0  0  0  0  0  0  0  0  0  0  0
    9.5680  -15.5102   19.3054 C   0  0  1  0  0  0  0  0  0  0  0  0
    9.4016  -15.0078   20.6839 C   0  0  0  0  0  0  0  0  0  0  0  0
    9.6221  -13.7643   20.8438 O   0  0  0  0  0  0  0  0  0  0  0  0
    9.0230  -15.8536   21.7671 N   0  0  0  0  0  0  0  0  0  0  0  0
    8.7477  -15.2784   23.0946 C   0  0  1  0  0  0  0  0  0  0  0  0
    7.2875  -15.4262   23.3046 C   0  0  0  0  0  0  0  0  0  0  0  0
    6.7152  -14.8835   24.5431 C   0  0  0  0  0  0  0  0  0  0  0  0
    5.9773  -15.6318   25.4951 C   0  0  0  0  0  0  0  0  0  0  0  0
    5.5628  -14.8206   26.4617 N   0  0  0  0  0  0  0  0  0  0  0  0
    5.9658  -13.5465   26.2462 C   0  0  0  0  0  0  0  0  0  0  0  0
    5.7824  -12.3858   26.9654 C   0  0  0  0  0  0  0  0  0  0  0  0
    6.3126  -11.2119   26.5238 C   0  0  0  0  0  0  0  0  0  0  0  0
    7.0477  -11.2388   25.3197 C   0  0  0  0  0  0  0  0  0  0  0  0
    7.2116  -12.3967   24.6326 C   0  0  0  0  0  0  0  0  0  0  0  0
    6.6855  -13.6037   25.0480 C   0  0  0  0  0  0  0  0  0  0  0  0
    9.5758  -16.1156   24.0703 C   0  0  0  0  0  0  0  0  0  0  0  0
    9.9623  -17.2046   23.6540 O   0  0  0  0  0  0  0  0  0  0  0  0
    9.7786  -13.6157   29.0642 C   0  0  0  0  0  0  0  0  0  0  0  0
   10.0413  -14.1523   27.6623 C   0  0  0  0  0  0  0  0  0  0  0  0
   10.3104  -15.6373   27.7909 C   0  0  2  0  0  0  0  0  0  0  0  0
   11.5064  -15.8368   28.6835 C   0  0  0  0  0  0  0  0  0  0  0  0
   10.4898  -16.2965   26.4369 C   0  0  2  0  0  0  0  0  0  0  0  0
    9.8674  -15.6567   25.3480 N   0  0  0  0  0  0  0  0  0  0  0  0
   10.4856  -17.7614   26.5685 C   0  0  0  0  0  0  0  0  0  0  0  0
   11.6178  -18.3050   27.2446 O   0  0  0  0  0  0  0  0  0  0  0  0
    9.6303  -18.5715   26.1703 O   0  0  0  0  0  0  0  0  0  0  0  0
  1  2  1  0
  3  2  1  0
  4  3  1  0
  5  4  1  0
  5  1  1  0
  5  6  1  1
  7  6  2  0
  8  6  1  0
  9  8  1  0
 10 11  1  0
  9 10  1  1
 11 12  2  0
 13 12  1  0
 14 13  1  0
 15 14  2  0
 16 15  1  0
 17 18  1  0
 17 16  2  0
 18 19  2  0
 19 14  1  0
 19 11  1  0
 20  9  1  0
 20 27  1  0
 21 20  2  0
 23 22  1  0
 24 23  1  0
 24 26  1  0
 24 25  1  1
 26 28  1  0
 26 27  1  6
 28 29  1  0
 30 28  2  0
M  END
$$$$
