PWI.pdb
     RDKit          3D

 30 32  0  0  1  0  0  0  0  0999 V2000
    8.4296  -16.5307   19.4607 N   0  0  0  0  0  0  0  0  0  0  0  0
    7.7916  -16.3910   18.1538 C   0  0  0  0  0  0  0  0  0  0  0  0
    8.1464  -14.9781   17.6627 C   0  0  0  0  0  0  0  0  0  0  0  0
    8.2662  -14.2374   18.9932 C   0  0  0  0  0  0  0  0  0  0  0  0
    9.0723  -15.2912   19.7721 C   0  0  1  0  0  0  0  0  0  0  0  0
    9.1732  -14.9580   21.2071 C   0  0  0  0  0  0  0  0  0  0  0  0
    9.7167  -13.8378   21.4721 O   0  0  0  0  0  0  0  0  0  0  0  0
    8.6989  -15.8290   22.2309 N   0  0  0  0  0  0  0  0  0  0  0  0
    8.6185  -15.3591   23.6244 C   0  0  1  0  0  0  0  0  0  0  0  0
    7.3191  -15.8503   24.1425 C   0  0  0  0  0  0  0  0  0  0  0  0
    6.5397  -14.9498   25.0014 C   0  0  0  0  0  0  0  0  0  0  0  0
    5.2766  -15.2564   25.5683 C   0  0  0  0  0  0  0  0  0  0  0  0
    4.8322  -14.2008   26.2411 N   0  0  0  0  0  0  0  0  0  0  0  0
    5.7080  -13.1705   26.1813 C   0  0  0  0  0  0  0  0  0  0  0  0
    5.6800  -11.9024   26.7190 C   0  0  0  0  0  0  0  0  0  0  0  0
    6.7170  -11.0445   26.5122 C   0  0  0  0  0  0  0  0  0  0  0  0
    7.8031  -11.5063   25.7389 C   0  0  0  0  0  0  0  0  0  0  0  0
    7.8029  -12.7602   25.2218 C   0  0  0  0  0  0  0  0  0  0  0  0
    6.7681  -13.6550   25.4077 C   0  0  0  0  0  0  0  0  0  0  0  0
    9.8174  -15.9957   24.3285 C   0  0  0  0  0  0  0  0  0  0  0  0
   10.4308  -16.8457   23.6883 O   0  0  0  0  0  0  0  0  0  0  0  0
   10.4434  -13.8600   29.4656 C   0  0  0  0  0  0  0  0  0  0  0  0
   10.6983  -14.2205   28.0071 C   0  0  0  0  0  0  0  0  0  0  0  0
   11.0056  -15.7027   27.9560 C   0  0  2  0  0  0  0  0  0  0  0  0
   12.2824  -15.9585   28.7120 C   0  0  0  0  0  0  0  0  0  0  0  0
   11.0717  -16.2154   26.5302 C   0  0  2  0  0  0  0  0  0  0  0  0
   10.1806  -15.6222   25.6157 N   0  0  0  0  0  0  0  0  0  0  0  0
   11.3384  -17.6618   26.5109 C   0  0  0  0  0  0  0  0  0  0  0  0
   10.1761  -18.4858   26.5790 O   0  0  0  0  0  0  0  0  0  0  0  0
   12.4343  -18.2456   26.4431 O   0  0  0  0  0  0  0  0  0  0  0  0
  1  2  1  0
  3  2  1  0
  4  3  1  0
  5  4  1  0
  5  1  1  0
  5  6  1  1
  7  6  2  0
  8  6  1  0
  9  8  1  0
 10 11  1  0
  9 10  1  1
 11 12  2  0
 13 12  1  0
 14 13  1  0
 15 14  2  0
 16 15  1  0
 17 18  1  0
 17 16  2  0
 18 19  2  0
 19 14  1  0
 19 11  1  0
 20  9  1  0
 20 27  1  0
 21 20  2  0
 23 22  1  0
 24 23  1  0
 24 26  1  0
 24 25  1  6
 26 28  1  0
 26 27  1  1
 28 29  1  0
 30 28  2  0
M  END
$$$$
