PWI.pdb
     RDKit          3D

 30 32  0  0  1  0  0  0  0  0999 V2000
    8.7819  -17.1741   19.6053 N   0  0  0  0  0  0  0  0  0  0  0  0
    8.2373  -17.1965   18.2497 C   0  0  0  0  0  0  0  0  0  0  0  0
    8.5418  -15.8130   17.6524 C   0  0  0  0  0  0  0  0  0  0  0  0
    8.5153  -14.9487   18.9116 C   0  0  0  0  0  0  0  0  0  0  0  0
    9.3227  -15.8709   19.8414 C   0  0  1  0  0  0  0  0  0  0  0  0
    9.2943  -15.4034   21.2418 C   0  0  0  0  0  0  0  0  0  0  0  0
    9.7961  -14.2512   21.4446 O   0  0  0  0  0  0  0  0  0  0  0  0
    8.7463  -16.1859   22.2997 N   0  0  0  0  0  0  0  0  0  0  0  0
    8.6228  -15.6186   23.6532 C   0  0  1  0  0  0  0  0  0  0  0  0
    7.3226  -16.1014   24.1771 C   0  0  0  0  0  0  0  0  0  0  0  0
    6.5197  -15.1709   24.9805 C   0  0  0  0  0  0  0  0  0  0  0  0
    5.3005  -15.4967   25.6270 C   0  0  0  0  0  0  0  0  0  0  0  0
    4.8149  -14.4098   26.2164 N   0  0  0  0  0  0  0  0  0  0  0  0
    5.6206  -13.3395   26.0231 C   0  0  0  0  0  0  0  0  0  0  0  0
    5.5318  -12.0295   26.4405 C   0  0  0  0  0  0  0  0  0  0  0  0
    6.5038  -11.1350   26.1102 C   0  0  0  0  0  0  0  0  0  0  0  0
    7.5878  -11.6031   25.3378 C   0  0  0  0  0  0  0  0  0  0  0  0
    7.6484  -12.8987   24.9408 C   0  0  0  0  0  0  0  0  0  0  0  0
    6.6801  -13.8317   25.2537 C   0  0  0  0  0  0  0  0  0  0  0  0
    9.8185  -16.1742   24.4279 C   0  0  0  0  0  0  0  0  0  0  0  0
   10.4523  -17.0687   23.8740 O   0  0  0  0  0  0  0  0  0  0  0  0
   10.3804  -14.4517   29.9940 C   0  0  0  0  0  0  0  0  0  0  0  0
   10.0872  -15.3848   28.8254 C   0  0  0  0  0  0  0  0  0  0  0  0
   11.2607  -15.2961   27.8720 C   0  0  2  0  0  0  0  0  0  0  0  0
   11.4820  -13.8513   27.5102 C   0  0  0  0  0  0  0  0  0  0  0  0
   11.0593  -16.1687   26.6480 C   0  0  2  0  0  0  0  0  0  0  0  0
   10.1570  -15.6838   25.6822 N   0  0  0  0  0  0  0  0  0  0  0  0
   11.0965  -17.5927   27.0145 C   0  0  0  0  0  0  0  0  0  0  0  0
    9.8935  -18.3111   26.7479 O   0  0  0  0  0  0  0  0  0  0  0  0
   12.0324  -18.2374   27.5193 O   0  0  0  0  0  0  0  0  0  0  0  0
  1  2  1  0
  3  2  1  0
  4  3  1  0
  5  4  1  0
  5  1  1  0
  5  6  1  1
  7  6  2  0
  8  6  1  0
  9  8  1  0
 10 11  1  0
  9 10  1  1
 11 12  2  0
 13 12  1  0
 14 13  1  0
 15 14  2  0
 16 15  1  0
 17 18  1  0
 17 16  2  0
 18 19  2  0
 19 14  1  0
 19 11  1  0
 20  9  1  0
 20 27  1  0
 21 20  2  0
 23 22  1  0
 24 23  1  0
 24 26  1  0
 24 25  1  6
 26 28  1  0
 26 27  1  1
 28 29  1  0
 30 28  2  0
M  END
$$$$
