PWI.pdb
     RDKit          3D

 30 32  0  0  1  0  0  0  0  0999 V2000
    8.6519  -16.4527   19.2105 N   0  0  0  0  0  0  0  0  0  0  0  0
    8.0899  -16.3445   17.8663 C   0  0  0  0  0  0  0  0  0  0  0  0
    8.3974  -14.9132   17.3969 C   0  0  0  0  0  0  0  0  0  0  0  0
    8.3937  -14.1704   18.7316 C   0  0  0  0  0  0  0  0  0  0  0  0
    9.2057  -15.1809   19.5602 C   0  0  1  0  0  0  0  0  0  0  0  0
    9.1988  -14.8463   20.9984 C   0  0  0  0  0  0  0  0  0  0  0  0
    9.7002  -13.7158   21.2999 O   0  0  0  0  0  0  0  0  0  0  0  0
    8.6708  -15.7268   21.9872 N   0  0  0  0  0  0  0  0  0  0  0  0
    8.5429  -15.2796   23.3846 C   0  0  1  0  0  0  0  0  0  0  0  0
    7.2482  -15.8191   23.8651 C   0  0  0  0  0  0  0  0  0  0  0  0
    6.4882  -15.0167   24.8318 C   0  0  0  0  0  0  0  0  0  0  0  0
    5.3022  -15.4376   25.4852 C   0  0  0  0  0  0  0  0  0  0  0  0
    4.8489  -14.4483   26.2469 N   0  0  0  0  0  0  0  0  0  0  0  0
    5.6459  -13.3572   26.1682 C   0  0  0  0  0  0  0  0  0  0  0  0
    5.5805  -12.1204   26.7719 C   0  0  0  0  0  0  0  0  0  0  0  0
    6.5364  -11.1828   26.5244 C   0  0  0  0  0  0  0  0  0  0  0  0
    7.5796  -11.5305   25.6401 C   0  0  0  0  0  0  0  0  0  0  0  0
    7.6177  -12.7560   25.0601 C   0  0  0  0  0  0  0  0  0  0  0  0
    6.6646  -13.7292   25.2847 C   0  0  0  0  0  0  0  0  0  0  0  0
    9.7449  -15.8878   24.1084 C   0  0  0  0  0  0  0  0  0  0  0  0
   10.3484  -16.7711   23.5047 O   0  0  0  0  0  0  0  0  0  0  0  0
   10.6928  -13.3942   29.0760 C   0  0  0  0  0  0  0  0  0  0  0  0
   10.7895  -13.9122   27.6461 C   0  0  0  0  0  0  0  0  0  0  0  0
   10.9279  -15.4187   27.7206 C   0  0  2  0  0  0  0  0  0  0  0  0
   12.1600  -15.7524   28.5190 C   0  0  0  0  0  0  0  0  0  0  0  0
   10.9498  -16.0511   26.3423 C   0  0  2  0  0  0  0  0  0  0  0  0
   10.1214  -15.4545   25.3728 N   0  0  0  0  0  0  0  0  0  0  0  0
   11.0790  -17.5127   26.4443 C   0  0  0  0  0  0  0  0  0  0  0  0
   12.3783  -18.0210   26.1480 O   0  0  0  0  0  0  0  0  0  0  0  0
   10.2095  -18.3466   26.7527 O   0  0  0  0  0  0  0  0  0  0  0  0
  1  2  1  0
  3  2  1  0
  4  3  1  0
  5  4  1  0
  5  1  1  0
  5  6  1  1
  7  6  2  0
  8  6  1  0
  9  8  1  0
 10 11  1  0
  9 10  1  1
 11 12  2  0
 13 12  1  0
 14 13  1  0
 15 14  2  0
 16 15  1  0
 17 18  1  0
 17 16  2  0
 18 19  2  0
 19 14  1  0
 19 11  1  0
 20  9  1  0
 20 27  1  0
 21 20  2  0
 23 22  1  0
 24 23  1  0
 24 26  1  0
 24 25  1  6
 26 28  1  0
 26 27  1  1
 28 29  1  0
 30 28  2  0
M  END
$$$$
