PWI.pdb
     RDKit          3D

 30 32  0  0  1  0  0  0  0  0999 V2000
   10.4477  -19.0719   20.8604 N   0  0  0  0  0  0  0  0  0  0  0  0
   10.1196  -19.8082   19.6419 C   0  0  0  0  0  0  0  0  0  0  0  0
   10.3679  -18.8308   18.4815 C   0  0  0  0  0  0  0  0  0  0  0  0
   10.0631  -17.4984   19.1632 C   0  0  0  0  0  0  0  0  0  0  0  0
   10.8106  -17.7398   20.4861 C   0  0  1  0  0  0  0  0  0  0  0  0
   10.5230  -16.6877   21.4815 C   0  0  0  0  0  0  0  0  0  0  0  0
   11.2660  -15.6560   21.4179 O   0  0  0  0  0  0  0  0  0  0  0  0
    9.4872  -16.8143   22.4525 N   0  0  0  0  0  0  0  0  0  0  0  0
    9.0827  -15.6509   23.2599 C   0  0  1  0  0  0  0  0  0  0  0  0
    7.6666  -15.8878   23.6297 C   0  0  0  0  0  0  0  0  0  0  0  0
    7.0674  -15.0105   24.6431 C   0  0  0  0  0  0  0  0  0  0  0  0
    6.3600  -15.4549   25.7889 C   0  0  0  0  0  0  0  0  0  0  0  0
    5.9075  -14.4009   26.4587 N   0  0  0  0  0  0  0  0  0  0  0  0
    6.2550  -13.2418   25.8521 C   0  0  0  0  0  0  0  0  0  0  0  0
    6.0188  -11.9235   26.1753 C   0  0  0  0  0  0  0  0  0  0  0  0
    6.4986  -10.9247   25.3838 C   0  0  0  0  0  0  0  0  0  0  0  0
    7.2378  -11.2948   24.2403 C   0  0  0  0  0  0  0  0  0  0  0  0
    7.4542  -12.6013   23.9470 C   0  0  0  0  0  0  0  0  0  0  0  0
    6.9802  -13.6394   24.7239 C   0  0  0  0  0  0  0  0  0  0  0  0
   10.0211  -15.6591   24.4673 C   0  0  0  0  0  0  0  0  0  0  0  0
   10.8486  -14.7525   24.5142 O   0  0  0  0  0  0  0  0  0  0  0  0
    9.4386  -13.3686   28.2766 C   0  0  0  0  0  0  0  0  0  0  0  0
   10.0048  -14.2865   27.2001 C   0  0  0  0  0  0  0  0  0  0  0  0
    9.9630  -15.6993   27.7443 C   0  0  2  0  0  0  0  0  0  0  0  0
   10.7277  -15.7413   29.0407 C   0  0  0  0  0  0  0  0  0  0  0  0
   10.4859  -16.7064   26.7380 C   0  0  2  0  0  0  0  0  0  0  0  0
    9.9291  -16.6392   25.4466 N   0  0  0  0  0  0  0  0  0  0  0  0
   10.7568  -17.9972   27.3889 C   0  0  0  0  0  0  0  0  0  0  0  0
   12.0536  -18.1135   27.9714 O   0  0  0  0  0  0  0  0  0  0  0  0
   10.0069  -18.9837   27.4929 O   0  0  0  0  0  0  0  0  0  0  0  0
  1  2  1  0
  3  2  1  0
  4  3  1  0
  5  4  1  0
  5  1  1  0
  5  6  1  1
  7  6  2  0
  8  6  1  0
  9  8  1  0
 10 11  1  0
  9 10  1  1
 11 12  2  0
 13 12  1  0
 14 13  1  0
 15 14  2  0
 16 15  1  0
 17 18  1  0
 17 16  2  0
 18 19  2  0
 19 14  1  0
 19 11  1  0
 20  9  1  0
 20 27  1  0
 21 20  2  0
 23 22  1  0
 24 23  1  0
 24 26  1  0
 24 25  1  1
 26 28  1  0
 26 27  1  6
 28 29  1  0
 30 28  2  0
M  END
$$$$
