HMI.pdb
     RDKit          3D

 27 27  0  0  1  0  0  0  0  0999 V2000
   10.1809  -16.4961   19.7718 N   0  0  0  0  0  0  0  0  0  0  0  0
    9.2633  -17.1659   20.7415 C   0  0  1  0  0  0  0  0  0  0  0  0
    9.8702  -18.5231   20.9304 C   0  0  0  0  0  0  0  0  0  0  0  0
    9.5459  -19.4120   19.8206 C   0  0  0  0  0  0  0  0  0  0  0  0
   10.3596  -19.8931   18.8301 C   0  0  0  0  0  0  0  0  0  0  0  0
    9.5968  -20.6475   18.0347 N   0  0  0  0  0  0  0  0  0  0  0  0
    8.3272  -20.6764   18.4653 C   0  0  0  0  0  0  0  0  0  0  0  0
    8.3073  -19.9106   19.5680 N   0  0  0  0  0  0  0  0  0  0  0  0
    9.3011  -16.3910   22.0029 C   0  0  0  0  0  0  0  0  0  0  0  0
   10.4176  -15.9191   22.4295 O   0  0  0  0  0  0  0  0  0  0  0  0
    5.8370  -11.4888   25.4312 C   0  0  0  0  0  0  0  0  0  0  0  0
    5.5755  -13.1055   26.1691 S   0  0  0  0  0  0  0  0  0  0  0  0
    7.0165  -14.1455   25.8419 C   0  0  0  0  0  0  0  0  0  0  0  0
    7.0019  -14.8394   24.5366 C   0  0  0  0  0  0  0  0  0  0  0  0
    8.3252  -15.4095   24.0706 C   0  0  2  0  0  0  0  0  0  0  0  0
    8.1916  -16.0936   22.8274 N   0  0  0  0  0  0  0  0  0  0  0  0
    8.9925  -16.1738   25.1454 C   0  0  0  0  0  0  0  0  0  0  0  0
    8.9435  -17.4301   25.2733 O   0  0  0  0  0  0  0  0  0  0  0  0
   10.3619  -13.9158   30.1658 C   0  0  0  0  0  0  0  0  0  0  0  0
    9.8649  -14.8634   29.0754 C   0  0  0  0  0  0  0  0  0  0  0  0
   11.0052  -15.4029   28.2606 C   0  0  2  0  0  0  0  0  0  0  0  0
   11.9811  -14.3350   27.8262 C   0  0  0  0  0  0  0  0  0  0  0  0
   10.5128  -16.2888   27.1739 C   0  0  2  0  0  0  0  0  0  0  0  0
    9.7737  -15.5269   26.1604 N   0  0  0  0  0  0  0  0  0  0  0  0
    9.6032  -17.3085   27.6918 C   0  0  0  0  0  0  0  0  0  0  0  0
   10.1068  -18.3713   28.4110 O   0  0  0  0  0  0  0  0  0  0  0  0
    8.3785  -17.2401   27.4980 O   0  0  0  0  0  0  0  0  0  0  0  0
  2  3  1  0
  2  1  1  6
  3  4  1  0
  4  8  1  0
  5  4  2  0
  5  6  1  0
  6  7  1  0
  8  7  2  0
  9 10  2  0
  9  2  1  0
 12 11  1  0
 13 14  1  0
 13 12  1  0
 15 14  1  1
 15 16  1  0
 16  9  1  0
 17 15  1  0
 17 24  1  0
 18 17  2  0
 20 19  1  0
 21 20  1  0
 21 22  1  6
 23 24  1  6
 23 21  1  0
 25 23  1  0
 26 25  1  0
 27 25  2  0
M  END
$$$$
