HMI.pdb
     RDKit          3D

 27 27  0  0  1  0  0  0  0  0999 V2000
   10.9628  -16.7404   19.9294 N   0  0  0  0  0  0  0  0  0  0  0  0
    9.9025  -17.4051   20.7447 C   0  0  1  0  0  0  0  0  0  0  0  0
   10.4441  -18.7819   20.9833 C   0  0  0  0  0  0  0  0  0  0  0  0
    9.6507  -19.7942   20.2957 C   0  0  0  0  0  0  0  0  0  0  0  0
    9.8890  -20.4162   19.0995 C   0  0  0  0  0  0  0  0  0  0  0  0
    8.8639  -21.2445   18.8829 N   0  0  0  0  0  0  0  0  0  0  0  0
    7.9738  -21.1867   19.8841 C   0  0  0  0  0  0  0  0  0  0  0  0
    8.4694  -20.2886   20.7504 N   0  0  0  0  0  0  0  0  0  0  0  0
    9.7815  -16.6580   22.0176 C   0  0  0  0  0  0  0  0  0  0  0  0
   10.8209  -16.1101   22.5381 O   0  0  0  0  0  0  0  0  0  0  0  0
    6.3890  -11.8685   26.8150 C   0  0  0  0  0  0  0  0  0  0  0  0
    6.4522  -12.7134   25.2311 S   0  0  0  0  0  0  0  0  0  0  0  0
    6.9778  -14.4223   25.4924 C   0  0  0  0  0  0  0  0  0  0  0  0
    7.1419  -15.2204   24.2589 C   0  0  0  0  0  0  0  0  0  0  0  0
    8.5497  -15.6831   23.9472 C   0  0  2  0  0  0  0  0  0  0  0  0
    8.5918  -16.4666   22.7574 N   0  0  0  0  0  0  0  0  0  0  0  0
    9.1919  -16.2935   25.1303 C   0  0  0  0  0  0  0  0  0  0  0  0
    9.1265  -17.5185   25.4340 O   0  0  0  0  0  0  0  0  0  0  0  0
   10.0646  -12.9114   29.2626 C   0  0  0  0  0  0  0  0  0  0  0  0
   10.3108  -13.8019   28.0459 C   0  0  0  0  0  0  0  0  0  0  0  0
   10.4054  -15.2481   28.4390 C   0  0  2  0  0  0  0  0  0  0  0  0
   11.3840  -15.4945   29.5629 C   0  0  0  0  0  0  0  0  0  0  0  0
   10.5827  -16.1155   27.2454 C   0  0  2  0  0  0  0  0  0  0  0  0
    9.9651  -15.5166   26.0563 N   0  0  0  0  0  0  0  0  0  0  0  0
    9.9578  -17.4218   27.4413 C   0  0  0  0  0  0  0  0  0  0  0  0
   10.7315  -18.5000   27.8146 O   0  0  0  0  0  0  0  0  0  0  0  0
    8.7376  -17.5852   27.2782 O   0  0  0  0  0  0  0  0  0  0  0  0
  2  3  1  0
  2  1  1  6
  3  4  1  0
  4  8  1  0
  5  4  2  0
  5  6  1  0
  6  7  1  0
  8  7  2  0
  9 10  2  0
  9  2  1  0
 12 11  1  0
 13 14  1  0
 13 12  1  0
 15 14  1  1
 15 16  1  0
 16  9  1  0
 17 15  1  0
 17 24  1  0
 18 17  2  0
 20 19  1  0
 21 20  1  0
 21 22  1  1
 23 24  1  6
 23 21  1  0
 25 23  1  0
 26 25  1  0
 27 25  2  0
M  END
$$$$
