HMI.pdb
     RDKit          3D

 27 27  0  0  1  0  0  0  0  0999 V2000
   11.1462  -16.4300   20.2495 N   0  0  0  0  0  0  0  0  0  0  0  0
    9.9579  -16.9821   20.9663 C   0  0  1  0  0  0  0  0  0  0  0  0
   10.3449  -18.3990   21.2635 C   0  0  0  0  0  0  0  0  0  0  0  0
    9.7675  -19.3243   20.2952 C   0  0  0  0  0  0  0  0  0  0  0  0
    9.0125  -19.0564   19.1850 C   0  0  0  0  0  0  0  0  0  0  0  0
    8.6997  -20.2332   18.6363 N   0  0  0  0  0  0  0  0  0  0  0  0
    9.2178  -21.2498   19.3407 C   0  0  0  0  0  0  0  0  0  0  0  0
    9.8747  -20.6773   20.3623 N   0  0  0  0  0  0  0  0  0  0  0  0
    9.7895  -16.2079   22.2174 C   0  0  0  0  0  0  0  0  0  0  0  0
   10.8094  -15.6512   22.7664 O   0  0  0  0  0  0  0  0  0  0  0  0
    6.0010  -12.0655   24.4513 C   0  0  0  0  0  0  0  0  0  0  0  0
    6.6460  -12.6536   26.0213 S   0  0  0  0  0  0  0  0  0  0  0  0
    6.9184  -14.4369   25.9186 C   0  0  0  0  0  0  0  0  0  0  0  0
    7.1127  -14.9609   24.5500 C   0  0  0  0  0  0  0  0  0  0  0  0
    8.5189  -15.3990   24.1980 C   0  0  2  0  0  0  0  0  0  0  0  0
    8.5724  -15.9982   22.9059 N   0  0  0  0  0  0  0  0  0  0  0  0
    9.1271  -16.1899   25.2885 C   0  0  0  0  0  0  0  0  0  0  0  0
    9.0355  -17.4449   25.4059 O   0  0  0  0  0  0  0  0  0  0  0  0
   10.7136  -13.1792   29.5374 C   0  0  0  0  0  0  0  0  0  0  0  0
   10.5863  -14.0492   28.2881 C   0  0  0  0  0  0  0  0  0  0  0  0
   10.7319  -15.5062   28.6212 C   0  0  2  0  0  0  0  0  0  0  0  0
   12.0017  -15.8177   29.3777 C   0  0  0  0  0  0  0  0  0  0  0  0
   10.4839  -16.3545   27.4266 C   0  0  2  0  0  0  0  0  0  0  0  0
    9.8941  -15.5736   26.3328 N   0  0  0  0  0  0  0  0  0  0  0  0
    9.5526  -17.4389   27.7299 C   0  0  0  0  0  0  0  0  0  0  0  0
   10.0163  -18.5894   28.3315 O   0  0  0  0  0  0  0  0  0  0  0  0
    8.3446  -17.3483   27.4567 O   0  0  0  0  0  0  0  0  0  0  0  0
  2  3  1  0
  2  1  1  6
  3  4  1  0
  4  8  1  0
  5  4  2  0
  5  6  1  0
  6  7  1  0
  8  7  2  0
  9 10  2  0
  9  2  1  0
 12 11  1  0
 13 14  1  0
 13 12  1  0
 15 14  1  1
 15 16  1  0
 16  9  1  0
 17 15  1  0
 17 24  1  0
 18 17  2  0
 20 19  1  0
 21 20  1  0
 21 22  1  6
 23 24  1  6
 23 21  1  0
 25 23  1  0
 26 25  1  0
 27 25  2  0
M  END
$$$$
