HMI.pdb
     RDKit          3D

 27 27  0  0  1  0  0  0  0  0999 V2000
   10.1796  -16.2905   19.4820 N   0  0  0  0  0  0  0  0  0  0  0  0
    9.3252  -16.9392   20.5212 C   0  0  1  0  0  0  0  0  0  0  0  0
    9.9882  -18.2627   20.7553 C   0  0  0  0  0  0  0  0  0  0  0  0
    9.5730  -19.2501   19.7655 C   0  0  0  0  0  0  0  0  0  0  0  0
    8.6733  -19.1242   18.7413 C   0  0  0  0  0  0  0  0  0  0  0  0
    8.6160  -20.3096   18.1285 N   0  0  0  0  0  0  0  0  0  0  0  0
    9.4374  -21.1961   18.7094 C   0  0  0  0  0  0  0  0  0  0  0  0
   10.0229  -20.5315   19.7185 N   0  0  0  0  0  0  0  0  0  0  0  0
    9.3832  -16.0976   21.7384 C   0  0  0  0  0  0  0  0  0  0  0  0
   10.4493  -15.4311   22.0040 O   0  0  0  0  0  0  0  0  0  0  0  0
    5.5212  -11.4227   24.9010 C   0  0  0  0  0  0  0  0  0  0  0  0
    5.6781  -12.8786   25.9414 S   0  0  0  0  0  0  0  0  0  0  0  0
    7.2189  -13.7316   25.5374 C   0  0  0  0  0  0  0  0  0  0  0  0
    7.1897  -14.5117   24.2820 C   0  0  0  0  0  0  0  0  0  0  0  0
    8.4998  -15.1429   23.8595 C   0  0  2  0  0  0  0  0  0  0  0  0
    8.3448  -15.9335   22.6838 N   0  0  0  0  0  0  0  0  0  0  0  0
    9.1643  -15.8186   24.9938 C   0  0  0  0  0  0  0  0  0  0  0  0
    9.0479  -17.0464   25.2696 O   0  0  0  0  0  0  0  0  0  0  0  0
   11.0422  -14.6365   30.7050 C   0  0  0  0  0  0  0  0  0  0  0  0
   11.2047  -15.5027   29.4571 C   0  0  0  0  0  0  0  0  0  0  0  0
   10.6083  -14.8373   28.2502 C   0  0  2  0  0  0  0  0  0  0  0  0
    9.2891  -14.1599   28.5375 C   0  0  0  0  0  0  0  0  0  0  0  0
   10.6061  -15.7546   27.0811 C   0  0  2  0  0  0  0  0  0  0  0  0
   10.0216  -15.1091   25.8997 N   0  0  0  0  0  0  0  0  0  0  0  0
    9.8158  -16.9541   27.3493 C   0  0  0  0  0  0  0  0  0  0  0  0
   10.4465  -18.1110   27.7550 O   0  0  0  0  0  0  0  0  0  0  0  0
    8.5809  -16.9565   27.2195 O   0  0  0  0  0  0  0  0  0  0  0  0
  2  3  1  0
  2  1  1  6
  3  4  1  0
  4  8  1  0
  5  4  2  0
  5  6  1  0
  6  7  1  0
  8  7  2  0
  9 10  2  0
  9  2  1  0
 12 11  1  0
 13 14  1  0
 13 12  1  0
 15 14  1  1
 15 16  1  0
 16  9  1  0
 17 15  1  0
 17 24  1  0
 18 17  2  0
 20 19  1  0
 21 20  1  0
 21 22  1  1
 23 24  1  6
 23 21  1  0
 25 23  1  0
 26 25  1  0
 27 25  2  0
M  END
$$$$
