HMI.pdb
     RDKit          3D

 27 27  0  0  1  0  0  0  0  0999 V2000
    9.2532  -16.2246   19.5251 N   0  0  0  0  0  0  0  0  0  0  0  0
    8.8187  -17.0630   20.6823 C   0  0  1  0  0  0  0  0  0  0  0  0
    9.6790  -18.2860   20.5819 C   0  0  0  0  0  0  0  0  0  0  0  0
    9.0266  -19.3354   19.8073 C   0  0  0  0  0  0  0  0  0  0  0  0
    7.8032  -19.9196   19.9985 C   0  0  0  0  0  0  0  0  0  0  0  0
    7.6628  -20.8447   19.0455 N   0  0  0  0  0  0  0  0  0  0  0  0
    8.7392  -20.8857   18.2469 C   0  0  0  0  0  0  0  0  0  0  0  0
    9.5745  -19.9501   18.7262 N   0  0  0  0  0  0  0  0  0  0  0  0
    9.1181  -16.3077   21.9204 C   0  0  0  0  0  0  0  0  0  0  0  0
   10.2546  -15.7227   22.0528 O   0  0  0  0  0  0  0  0  0  0  0  0
    6.2341  -12.2454   26.7961 C   0  0  0  0  0  0  0  0  0  0  0  0
    5.7859  -12.5180   25.0781 S   0  0  0  0  0  0  0  0  0  0  0  0
    7.1283  -13.3985   24.2488 C   0  0  0  0  0  0  0  0  0  0  0  0
    7.4593  -14.7185   24.8263 C   0  0  0  0  0  0  0  0  0  0  0  0
    8.6339  -15.4427   24.2027 C   0  0  2  0  0  0  0  0  0  0  0  0
    8.2494  -16.1461   23.0242 N   0  0  0  0  0  0  0  0  0  0  0  0
    9.3699  -16.2416   25.2050 C   0  0  0  0  0  0  0  0  0  0  0  0
    9.3051  -17.4991   25.3130 O   0  0  0  0  0  0  0  0  0  0  0  0
   10.7706  -14.1264   30.2528 C   0  0  0  0  0  0  0  0  0  0  0  0
   10.2779  -15.0412   29.1329 C   0  0  0  0  0  0  0  0  0  0  0  0
   11.4201  -15.5459   28.2988 C   0  0  2  0  0  0  0  0  0  0  0  0
   12.3770  -14.4544   27.8810 C   0  0  0  0  0  0  0  0  0  0  0  0
   10.9331  -16.4154   27.1965 C   0  0  2  0  0  0  0  0  0  0  0  0
   10.2442  -15.6308   26.1651 N   0  0  0  0  0  0  0  0  0  0  0  0
    9.9809  -17.4098   27.6863 C   0  0  0  0  0  0  0  0  0  0  0  0
   10.4370  -18.5026   28.3921 O   0  0  0  0  0  0  0  0  0  0  0  0
    8.7619  -17.2932   27.4803 O   0  0  0  0  0  0  0  0  0  0  0  0
  2  3  1  0
  2  1  1  6
  3  4  1  0
  4  8  1  0
  5  4  2  0
  5  6  1  0
  6  7  1  0
  8  7  2  0
  9 10  2  0
  9  2  1  0
 12 11  1  0
 13 14  1  0
 13 12  1  0
 15 14  1  1
 15 16  1  0
 16  9  1  0
 17 15  1  0
 17 24  1  0
 18 17  2  0
 20 19  1  0
 21 20  1  0
 21 22  1  6
 23 24  1  6
 23 21  1  0
 25 23  1  0
 26 25  1  0
 27 25  2  0
M  END
$$$$
