HMI.pdb
     RDKit          3D

 27 27  0  0  1  0  0  0  0  0999 V2000
    8.9998  -17.9244   20.3312 N   0  0  0  0  0  0  0  0  0  0  0  0
   10.0534  -16.8667   20.3758 C   0  0  1  0  0  0  0  0  0  0  0  0
    9.7633  -16.0209   19.1731 C   0  0  0  0  0  0  0  0  0  0  0  0
   10.0742  -16.7277   17.9359 C   0  0  0  0  0  0  0  0  0  0  0  0
    9.6371  -17.9513   17.5042 C   0  0  0  0  0  0  0  0  0  0  0  0
   10.2188  -18.1756   16.3230 N   0  0  0  0  0  0  0  0  0  0  0  0
   11.0119  -17.1532   15.9711 C   0  0  0  0  0  0  0  0  0  0  0  0
   10.9151  -16.2654   16.9737 N   0  0  0  0  0  0  0  0  0  0  0  0
    9.8595  -16.0932   21.6237 C   0  0  0  0  0  0  0  0  0  0  0  0
   10.6117  -15.0811   21.8713 O   0  0  0  0  0  0  0  0  0  0  0  0
    5.8245  -11.9865   25.5352 C   0  0  0  0  0  0  0  0  0  0  0  0
    5.7424  -13.7544   25.8427 S   0  0  0  0  0  0  0  0  0  0  0  0
    7.3637  -14.4863   25.5255 C   0  0  0  0  0  0  0  0  0  0  0  0
    7.4987  -15.1609   24.2170 C   0  0  0  0  0  0  0  0  0  0  0  0
    8.8804  -15.6763   23.8728 C   0  0  2  0  0  0  0  0  0  0  0  0
    8.8891  -16.3532   22.6187 N   0  0  0  0  0  0  0  0  0  0  0  0
    9.4740  -16.4250   25.0006 C   0  0  0  0  0  0  0  0  0  0  0  0
    9.8150  -17.6411   24.9581 O   0  0  0  0  0  0  0  0  0  0  0  0
   10.5207  -13.3647   29.5416 C   0  0  0  0  0  0  0  0  0  0  0  0
   10.7576  -14.2069   28.2892 C   0  0  0  0  0  0  0  0  0  0  0  0
   10.5380  -15.6668   28.5643 C   0  0  2  0  0  0  0  0  0  0  0  0
   11.4300  -16.2049   29.6581 C   0  0  0  0  0  0  0  0  0  0  0  0
   10.5388  -16.4538   27.3038 C   0  0  2  0  0  0  0  0  0  0  0  0
    9.7172  -15.8083   26.2732 N   0  0  0  0  0  0  0  0  0  0  0  0
    9.9905  -17.7920   27.5135 C   0  0  0  0  0  0  0  0  0  0  0  0
   10.8374  -18.8383   27.8108 O   0  0  0  0  0  0  0  0  0  0  0  0
    8.7710  -18.0108   27.4295 O   0  0  0  0  0  0  0  0  0  0  0  0
  2  3  1  0
  2  1  1  1
  3  4  1  0
  4  8  1  0
  5  4  2  0
  5  6  1  0
  6  7  1  0
  8  7  2  0
  9 10  2  0
  9  2  1  0
 12 11  1  0
 13 14  1  0
 13 12  1  0
 15 14  1  1
 15 16  1  0
 16  9  1  0
 17 15  1  0
 17 24  1  0
 18 17  2  0
 20 19  1  0
 21 20  1  0
 21 22  1  1
 23 24  1  6
 23 21  1  0
 25 23  1  0
 26 25  1  0
 27 25  2  0
M  END
$$$$
