HMI.pdb
     RDKit          3D

 27 27  0  0  1  0  0  0  0  0999 V2000
   11.4734  -16.9012   19.6988 N   0  0  0  0  0  0  0  0  0  0  0  0
   10.2665  -17.3508   20.4550 C   0  0  1  0  0  0  0  0  0  0  0  0
   10.5930  -18.7601   20.8463 C   0  0  0  0  0  0  0  0  0  0  0  0
   10.1401  -19.7124   19.8388 C   0  0  0  0  0  0  0  0  0  0  0  0
    8.8652  -20.1006   19.5253 C   0  0  0  0  0  0  0  0  0  0  0  0
    8.9657  -21.0110   18.5532 N   0  0  0  0  0  0  0  0  0  0  0  0
   10.2470  -21.2292   18.2237 C   0  0  0  0  0  0  0  0  0  0  0  0
   10.9631  -20.4225   19.0233 N   0  0  0  0  0  0  0  0  0  0  0  0
   10.1397  -16.4872   21.6513 C   0  0  0  0  0  0  0  0  0  0  0  0
   11.1951  -16.0258   22.2210 O   0  0  0  0  0  0  0  0  0  0  0  0
    6.1386  -12.6561   27.1012 C   0  0  0  0  0  0  0  0  0  0  0  0
    6.0210  -13.7179   25.6571 S   0  0  0  0  0  0  0  0  0  0  0  0
    7.5228  -13.5406   24.6681 C   0  0  0  0  0  0  0  0  0  0  0  0
    7.6272  -14.4664   23.5203 C   0  0  0  0  0  0  0  0  0  0  0  0
    8.8945  -15.2918   23.4435 C   0  0  2  0  0  0  0  0  0  0  0  0
    8.9284  -16.0901   22.2633 N   0  0  0  0  0  0  0  0  0  0  0  0
    9.1435  -16.0180   24.7066 C   0  0  0  0  0  0  0  0  0  0  0  0
    8.7582  -17.1972   24.9477 O   0  0  0  0  0  0  0  0  0  0  0  0
    9.8805  -13.9465   29.9639 C   0  0  0  0  0  0  0  0  0  0  0  0
    9.5070  -14.8325   28.7767 C   0  0  0  0  0  0  0  0  0  0  0  0
   10.7303  -15.3427   28.0709 C   0  0  2  0  0  0  0  0  0  0  0  0
   11.7302  -14.2552   27.7561 C   0  0  0  0  0  0  0  0  0  0  0  0
   10.3614  -16.2130   26.9243 C   0  0  2  0  0  0  0  0  0  0  0  0
    9.8660  -15.4204   25.7928 N   0  0  0  0  0  0  0  0  0  0  0  0
    9.3005  -17.1495   27.2889 C   0  0  0  0  0  0  0  0  0  0  0  0
    9.6011  -18.2601   28.0483 O   0  0  0  0  0  0  0  0  0  0  0  0
    8.1262  -16.9676   26.9283 O   0  0  0  0  0  0  0  0  0  0  0  0
  2  3  1  0
  2  1  1  6
  3  4  1  0
  4  8  1  0
  5  4  2  0
  5  6  1  0
  6  7  1  0
  8  7  2  0
  9 10  2  0
  9  2  1  0
 12 11  1  0
 13 14  1  0
 13 12  1  0
 15 14  1  1
 15 16  1  0
 16  9  1  0
 17 15  1  0
 17 24  1  0
 18 17  2  0
 20 19  1  0
 21 20  1  0
 21 22  1  6
 23 24  1  6
 23 21  1  0
 25 23  1  0
 26 25  1  0
 27 25  2  0
M  END
$$$$
