HMI.pdb
     RDKit          3D

 27 27  0  0  1  0  0  0  0  0999 V2000
   10.9415  -16.8686   19.6847 N   0  0  0  0  0  0  0  0  0  0  0  0
   10.1453  -17.6066   20.7105 C   0  0  1  0  0  0  0  0  0  0  0  0
   11.0233  -18.7630   21.0819 C   0  0  0  0  0  0  0  0  0  0  0  0
   10.8579  -19.8776   20.1559 C   0  0  0  0  0  0  0  0  0  0  0  0
   10.0856  -21.0011   20.2822 C   0  0  0  0  0  0  0  0  0  0  0  0
   10.2886  -21.7357   19.1854 N   0  0  0  0  0  0  0  0  0  0  0  0
   11.1568  -21.1389   18.3558 C   0  0  0  0  0  0  0  0  0  0  0  0
   11.5016  -19.9930   18.9647 N   0  0  0  0  0  0  0  0  0  0  0  0
    9.9513  -16.6997   21.8650 C   0  0  0  0  0  0  0  0  0  0  0  0
   10.9367  -15.9982   22.2990 O   0  0  0  0  0  0  0  0  0  0  0  0
    6.1005  -11.7287   26.2002 C   0  0  0  0  0  0  0  0  0  0  0  0
    6.1845  -12.7123   24.6995 S   0  0  0  0  0  0  0  0  0  0  0  0
    6.9755  -14.2937   25.0719 C   0  0  0  0  0  0  0  0  0  0  0  0
    7.2100  -15.1652   23.9010 C   0  0  0  0  0  0  0  0  0  0  0  0
    8.6403  -15.6094   23.6772 C   0  0  2  0  0  0  0  0  0  0  0  0
    8.7435  -16.5060   22.5742 N   0  0  0  0  0  0  0  0  0  0  0  0
    9.2637  -16.0765   24.9333 C   0  0  0  0  0  0  0  0  0  0  0  0
    9.4329  -17.2892   25.2462 O   0  0  0  0  0  0  0  0  0  0  0  0
   11.0476  -13.9170   30.5061 C   0  0  0  0  0  0  0  0  0  0  0  0
   11.1697  -14.9751   29.4109 C   0  0  0  0  0  0  0  0  0  0  0  0
   10.5796  -14.4917   28.1174 C   0  0  2  0  0  0  0  0  0  0  0  0
    9.3921  -13.5785   28.3119 C   0  0  0  0  0  0  0  0  0  0  0  0
   10.3614  -15.6199   27.1752 C   0  0  2  0  0  0  0  0  0  0  0  0
    9.7408  -15.1587   25.9278 N   0  0  0  0  0  0  0  0  0  0  0  0
    9.4718  -16.6267   27.7500 C   0  0  0  0  0  0  0  0  0  0  0  0
    8.1183  -16.5678   27.4948 O   0  0  0  0  0  0  0  0  0  0  0  0
    9.9090  -17.5406   28.4681 O   0  0  0  0  0  0  0  0  0  0  0  0
  2  3  1  0
  2  1  1  6
  3  4  1  0
  4  8  1  0
  5  4  2  0
  5  6  1  0
  6  7  1  0
  8  7  2  0
  9 10  2  0
  9  2  1  0
 12 11  1  0
 13 14  1  0
 13 12  1  0
 15 14  1  1
 15 16  1  0
 16  9  1  0
 17 15  1  0
 17 24  1  0
 18 17  2  0
 20 19  1  0
 21 20  1  0
 21 22  1  1
 23 24  1  6
 23 21  1  0
 25 23  1  0
 26 25  1  0
 27 25  2  0
M  END
$$$$
