HMI.pdb
     RDKit          3D

 27 27  0  0  1  0  0  0  0  0999 V2000
   11.0197  -16.9026   19.7944 N   0  0  0  0  0  0  0  0  0  0  0  0
    9.9983  -17.4687   20.7255 C   0  0  1  0  0  0  0  0  0  0  0  0
   10.5476  -18.8163   21.0837 C   0  0  0  0  0  0  0  0  0  0  0  0
   10.1334  -19.8337   20.1243 C   0  0  0  0  0  0  0  0  0  0  0  0
    8.9651  -19.9329   19.4174 C   0  0  0  0  0  0  0  0  0  0  0  0
    9.0463  -21.0503   18.6903 N   0  0  0  0  0  0  0  0  0  0  0  0
   10.2134  -21.6781   18.8945 C   0  0  0  0  0  0  0  0  0  0  0  0
   10.8764  -20.9186   19.7812 N   0  0  0  0  0  0  0  0  0  0  0  0
    9.9405  -16.5895   21.9157 C   0  0  0  0  0  0  0  0  0  0  0  0
   11.0206  -16.0696   22.3790 O   0  0  0  0  0  0  0  0  0  0  0  0
    5.9507  -12.0307   26.9852 C   0  0  0  0  0  0  0  0  0  0  0  0
    5.8011  -13.1918   25.6228 S   0  0  0  0  0  0  0  0  0  0  0  0
    7.4131  -13.9446   25.3070 C   0  0  0  0  0  0  0  0  0  0  0  0
    7.4776  -14.7991   24.1024 C   0  0  0  0  0  0  0  0  0  0  0  0
    8.8132  -15.4557   23.8223 C   0  0  2  0  0  0  0  0  0  0  0  0
    8.7728  -16.2367   22.6308 N   0  0  0  0  0  0  0  0  0  0  0  0
    9.3345  -16.1510   25.0179 C   0  0  0  0  0  0  0  0  0  0  0  0
    9.1455  -17.3727   25.2805 O   0  0  0  0  0  0  0  0  0  0  0  0
    9.9768  -13.7789   30.0700 C   0  0  0  0  0  0  0  0  0  0  0  0
    9.6993  -14.8176   28.9846 C   0  0  0  0  0  0  0  0  0  0  0  0
   10.9627  -15.2209   28.2802 C   0  0  2  0  0  0  0  0  0  0  0  0
   11.8374  -14.0459   27.9118 C   0  0  0  0  0  0  0  0  0  0  0  0
   10.6768  -16.1680   27.1713 C   0  0  2  0  0  0  0  0  0  0  0  0
   10.1217  -15.4702   26.0056 N   0  0  0  0  0  0  0  0  0  0  0  0
    9.6985  -17.1762   27.5736 C   0  0  0  0  0  0  0  0  0  0  0  0
   10.0865  -18.2167   28.3905 O   0  0  0  0  0  0  0  0  0  0  0  0
    8.5175  -17.1178   27.1943 O   0  0  0  0  0  0  0  0  0  0  0  0
  2  3  1  0
  2  1  1  6
  3  4  1  0
  4  8  1  0
  5  4  2  0
  5  6  1  0
  6  7  1  0
  8  7  2  0
  9 10  2  0
  9  2  1  0
 12 11  1  0
 13 14  1  0
 13 12  1  0
 15 14  1  1
 15 16  1  0
 16  9  1  0
 17 15  1  0
 17 24  1  0
 18 17  2  0
 20 19  1  0
 21 20  1  0
 21 22  1  6
 23 24  1  6
 23 21  1  0
 25 23  1  0
 26 25  1  0
 27 25  2  0
M  END
$$$$
