HMI.pdb
     RDKit          3D

 27 27  0  0  1  0  0  0  0  0999 V2000
   11.1356  -16.6707   19.7971 N   0  0  0  0  0  0  0  0  0  0  0  0
   10.0953  -17.2809   20.6783 C   0  0  1  0  0  0  0  0  0  0  0  0
   10.6615  -18.6248   21.0236 C   0  0  0  0  0  0  0  0  0  0  0  0
   10.3857  -19.6046   19.9792 C   0  0  0  0  0  0  0  0  0  0  0  0
    9.2439  -19.7922   19.2474 C   0  0  0  0  0  0  0  0  0  0  0  0
    9.4707  -20.8274   18.4345 N   0  0  0  0  0  0  0  0  0  0  0  0
   10.7067  -21.3178   18.6071 C   0  0  0  0  0  0  0  0  0  0  0  0
   11.2624  -20.5556   19.5626 N   0  0  0  0  0  0  0  0  0  0  0  0
    9.9771  -16.4322   21.8861 C   0  0  0  0  0  0  0  0  0  0  0  0
   11.0301  -15.9096   22.4052 O   0  0  0  0  0  0  0  0  0  0  0  0
    5.7364  -12.1764   26.9934 C   0  0  0  0  0  0  0  0  0  0  0  0
    5.6214  -13.3673   25.6536 S   0  0  0  0  0  0  0  0  0  0  0  0
    7.2518  -14.0897   25.3622 C   0  0  0  0  0  0  0  0  0  0  0  0
    7.3945  -14.8117   24.0801 C   0  0  0  0  0  0  0  0  0  0  0  0
    8.7605  -15.3999   23.7954 C   0  0  2  0  0  0  0  0  0  0  0  0
    8.7766  -16.1128   22.5614 N   0  0  0  0  0  0  0  0  0  0  0  0
    9.2829  -16.1419   24.9622 C   0  0  0  0  0  0  0  0  0  0  0  0
    9.2996  -17.4012   25.0667 O   0  0  0  0  0  0  0  0  0  0  0  0
   10.1672  -13.1086   29.3789 C   0  0  0  0  0  0  0  0  0  0  0  0
   10.7364  -13.9935   28.2713 C   0  0  0  0  0  0  0  0  0  0  0  0
   10.3690  -15.4344   28.4817 C   0  0  2  0  0  0  0  0  0  0  0  0
   11.0773  -16.0612   29.6593 C   0  0  0  0  0  0  0  0  0  0  0  0
   10.4579  -16.1992   27.2107 C   0  0  2  0  0  0  0  0  0  0  0  0
    9.8297  -15.4673   26.1045 N   0  0  0  0  0  0  0  0  0  0  0  0
    9.7735  -17.4859   27.3168 C   0  0  0  0  0  0  0  0  0  0  0  0
    8.3956  -17.5279   27.3270 O   0  0  0  0  0  0  0  0  0  0  0  0
   10.4080  -18.5502   27.3987 O   0  0  0  0  0  0  0  0  0  0  0  0
  2  3  1  0
  2  1  1  6
  3  4  1  0
  4  8  1  0
  5  4  2  0
  5  6  1  0
  6  7  1  0
  8  7  2  0
  9 10  2  0
  9  2  1  0
 12 11  1  0
 13 14  1  0
 13 12  1  0
 15 14  1  1
 15 16  1  0
 16  9  1  0
 17 15  1  0
 17 24  1  0
 18 17  2  0
 20 19  1  0
 21 20  1  0
 21 22  1  1
 23 24  1  6
 23 21  1  0
 25 23  1  0
 26 25  1  0
 27 25  2  0
M  END
$$$$
