HMI.pdb
     RDKit          3D

 27 27  0  0  1  0  0  0  0  0999 V2000
    7.1002  -17.5568   19.1757 N   0  0  0  0  0  0  0  0  0  0  0  0
    8.0208  -16.5499   19.7835 C   0  0  1  0  0  0  0  0  0  0  0  0
    7.3857  -15.2347   19.4475 C   0  0  0  0  0  0  0  0  0  0  0  0
    7.8479  -14.7325   18.1586 C   0  0  0  0  0  0  0  0  0  0  0  0
    8.7029  -15.3116   17.2597 C   0  0  0  0  0  0  0  0  0  0  0  0
    8.8359  -14.4542   16.2443 N   0  0  0  0  0  0  0  0  0  0  0  0
    8.1063  -13.3474   16.4454 C   0  0  0  0  0  0  0  0  0  0  0  0
    7.5007  -13.5299   17.6298 N   0  0  0  0  0  0  0  0  0  0  0  0
    8.0267  -16.7741   21.2473 C   0  0  0  0  0  0  0  0  0  0  0  0
    6.9179  -16.9609   21.8695 O   0  0  0  0  0  0  0  0  0  0  0  0
   12.9112  -18.7351   25.6572 C   0  0  0  0  0  0  0  0  0  0  0  0
   11.2792  -19.3412   26.0996 S   0  0  0  0  0  0  0  0  0  0  0  0
   10.0325  -18.1852   25.4878 C   0  0  0  0  0  0  0  0  0  0  0  0
   10.0237  -17.9950   24.0218 C   0  0  0  0  0  0  0  0  0  0  0  0
    9.0850  -16.9306   23.4938 C   0  0  2  0  0  0  0  0  0  0  0  0
    9.1716  -16.8126   22.0762 N   0  0  0  0  0  0  0  0  0  0  0  0
    9.2266  -15.6651   24.2443 C   0  0  0  0  0  0  0  0  0  0  0  0
   10.1497  -14.8207   24.0654 O   0  0  0  0  0  0  0  0  0  0  0  0
    6.2063  -10.9917   26.5054 C   0  0  0  0  0  0  0  0  0  0  0  0
    7.4353  -11.8877   26.6493 C   0  0  0  0  0  0  0  0  0  0  0  0
    7.2210  -13.2178   25.9859 C   0  0  2  0  0  0  0  0  0  0  0  0
    5.9605  -13.9128   26.4439 C   0  0  0  0  0  0  0  0  0  0  0  0
    8.4539  -14.0457   26.0388 C   0  0  2  0  0  0  0  0  0  0  0  0
    8.2960  -15.2847   25.2681 N   0  0  0  0  0  0  0  0  0  0  0  0
    8.7750  -14.4322   27.4109 C   0  0  0  0  0  0  0  0  0  0  0  0
    8.7813  -15.7655   27.7613 O   0  0  0  0  0  0  0  0  0  0  0  0
    9.0442  -13.5823   28.2753 O   0  0  0  0  0  0  0  0  0  0  0  0
  2  3  1  0
  2  1  1  6
  3  4  1  0
  4  8  1  0
  5  4  2  0
  5  6  1  0
  6  7  1  0
  8  7  2  0
  9 10  2  0
  9  2  1  0
 12 11  1  0
 13 14  1  0
 13 12  1  0
 15 14  1  1
 15 16  1  0
 16  9  1  0
 17 15  1  0
 17 24  1  0
 18 17  2  0
 20 19  1  0
 21 20  1  0
 21 22  1  1
 23 24  1  6
 23 21  1  0
 25 23  1  0
 26 25  1  0
 27 25  2  0
M  END
$$$$
