SMH.pdb
     RDKit          3D

 25 25  0  0  1  0  0  0  0  0999 V2000
    7.6520  -15.8274   18.9359 O   0  0  0  0  0  0  0  0  0  0  0  0
    8.0754  -16.9042   19.6872 C   0  0  0  0  0  0  0  0  0  0  0  0
    7.3676  -16.9438   21.0241 C   0  0  2  0  0  0  0  0  0  0  0  0
    5.9604  -16.6585   20.9107 N   0  0  0  0  0  0  0  0  0  0  0  0
    7.9949  -16.0236   21.9974 C   0  0  0  0  0  0  0  0  0  0  0  0
    9.2083  -15.7496   21.9565 O   0  0  0  0  0  0  0  0  0  0  0  0
    6.6605  -10.1378   25.7523 C   0  0  0  0  0  0  0  0  0  0  0  0
    6.3037  -11.7588   26.4674 S   0  0  0  0  0  0  0  0  0  0  0  0
    7.5465  -12.9499   25.8663 C   0  0  0  0  0  0  0  0  0  0  0  0
    6.9062  -13.7111   24.7367 C   0  0  0  0  0  0  0  0  0  0  0  0
    7.8157  -14.6947   24.0740 C   0  0  2  0  0  0  0  0  0  0  0  0
    7.1832  -15.4297   23.0190 N   0  0  0  0  0  0  0  0  0  0  0  0
    8.3677  -15.7082   25.0489 C   0  0  0  0  0  0  0  0  0  0  0  0
    7.6603  -16.3416   25.8466 O   0  0  0  0  0  0  0  0  0  0  0  0
    9.7825  -15.9568   25.0637 N   0  0  0  0  0  0  0  0  0  0  0  0
   10.3694  -17.0931   25.7548 C   0  0  1  0  0  0  0  0  0  0  0  0
    9.8707  -18.3947   25.1684 C   0  0  0  0  0  0  0  0  0  0  0  0
    8.8138  -19.0275   26.0119 C   0  0  0  0  0  0  0  0  0  0  0  0
    8.2948  -18.6547   27.2096 C   0  0  0  0  0  0  0  0  0  0  0  0
    7.3596  -19.5388   27.6249 N   0  0  0  0  0  0  0  0  0  0  0  0
    7.2928  -20.4713   26.6834 C   0  0  0  0  0  0  0  0  0  0  0  0
    8.1745  -20.1939   25.6660 N   0  0  0  0  0  0  0  0  0  0  0  0
   11.8506  -17.0334   25.6940 C   0  0  0  0  0  0  0  0  0  0  0  0
   12.5008  -17.0621   26.7635 O   0  0  0  0  0  0  0  0  0  0  0  0
   12.5467  -16.9455   24.5113 O   0  0  0  0  0  0  0  0  0  0  0  0
  2  1  1  0
  2  3  1  0
  3  4  1  6
  5  3  1  0
  5  6  2  0
  7  8  1  0
  8  9  1  0
  9 10  1  0
 11 10  1  1
 11 12  1  0
 11 13  1  0
 12  5  1  0
 13 15  1  0
 13 14  2  0
 15 16  1  0
 16 23  1  0
 17 18  1  0
 16 17  1  6
 18 19  2  0
 19 20  1  0
 21 20  1  0
 22 18  1  0
 22 21  2  0
 23 24  2  0
 23 25  1  0
M  END
$$$$
