SMH.pdb
     RDKit          3D

 25 25  0  0  1  0  0  0  0  0999 V2000
    8.0005  -17.8408   20.8986 O   0  0  0  0  0  0  0  0  0  0  0  0
    7.3316  -16.6887   20.5399 C   0  0  0  0  0  0  0  0  0  0  0  0
    8.2620  -15.4954   20.5539 C   0  0  2  0  0  0  0  0  0  0  0  0
    9.3756  -15.6550   19.6546 N   0  0  0  0  0  0  0  0  0  0  0  0
    8.7504  -15.2045   21.9193 C   0  0  0  0  0  0  0  0  0  0  0  0
    9.9020  -15.5041   22.2841 O   0  0  0  0  0  0  0  0  0  0  0  0
    5.3818  -11.6773   26.3698 C   0  0  0  0  0  0  0  0  0  0  0  0
    7.0991  -11.5619   26.9210 S   0  0  0  0  0  0  0  0  0  0  0  0
    8.0073  -13.0225   26.3157 C   0  0  0  0  0  0  0  0  0  0  0  0
    7.6115  -13.2128   24.8761 C   0  0  0  0  0  0  0  0  0  0  0  0
    8.3213  -14.3374   24.1940 C   0  0  2  0  0  0  0  0  0  0  0  0
    7.8727  -14.5593   22.8514 N   0  0  0  0  0  0  0  0  0  0  0  0
    8.1625  -15.6448   24.9344 C   0  0  0  0  0  0  0  0  0  0  0  0
    7.1200  -16.3162   24.9152 O   0  0  0  0  0  0  0  0  0  0  0  0
    9.2673  -16.1437   25.7051 N   0  0  0  0  0  0  0  0  0  0  0  0
    9.2082  -17.4002   26.4338 C   0  0  1  0  0  0  0  0  0  0  0  0
    8.8763  -18.5454   25.5039 C   0  0  0  0  0  0  0  0  0  0  0  0
    9.9549  -18.7917   24.5015 C   0  0  0  0  0  0  0  0  0  0  0  0
   11.1533  -18.1799   24.3211 C   0  0  0  0  0  0  0  0  0  0  0  0
   11.8140  -18.7164   23.2702 N   0  0  0  0  0  0  0  0  0  0  0  0
   11.0253  -19.6685   22.7885 C   0  0  0  0  0  0  0  0  0  0  0  0
    9.8651  -19.7505   23.5210 N   0  0  0  0  0  0  0  0  0  0  0  0
   10.4904  -17.6587   27.1342 C   0  0  0  0  0  0  0  0  0  0  0  0
   10.5989  -18.6910   27.8342 O   0  0  0  0  0  0  0  0  0  0  0  0
   11.5707  -16.8118   27.0516 O   0  0  0  0  0  0  0  0  0  0  0  0
  2  1  1  0
  2  3  1  0
  3  4  1  6
  5  3  1  0
  5  6  2  0
  7  8  1  0
  8  9  1  0
  9 10  1  0
 11 10  1  1
 11 12  1  0
 11 13  1  0
 12  5  1  0
 13 15  1  0
 13 14  2  0
 15 16  1  0
 16 23  1  0
 17 18  1  0
 16 17  1  6
 18 19  2  0
 19 20  1  0
 21 20  1  0
 22 18  1  0
 22 21  2  0
 23 24  2  0
 23 25  1  0
M  END
$$$$
