SMH.pdb
     RDKit          3D

 25 25  0  0  1  0  0  0  0  0999 V2000
    7.7600  -17.2758   20.8409 O   0  0  0  0  0  0  0  0  0  0  0  0
    6.7263  -16.3915   20.6110 C   0  0  0  0  0  0  0  0  0  0  0  0
    7.2115  -14.9601   20.6843 C   0  0  2  0  0  0  0  0  0  0  0  0
    7.9487  -14.5679   19.5108 N   0  0  0  0  0  0  0  0  0  0  0  0
    8.0252  -14.7246   21.8967 C   0  0  0  0  0  0  0  0  0  0  0  0
    9.2651  -14.6280   21.8486 O   0  0  0  0  0  0  0  0  0  0  0  0
    5.6806  -12.1863   27.5320 C   0  0  0  0  0  0  0  0  0  0  0  0
    6.9440  -11.2889   26.6021 S   0  0  0  0  0  0  0  0  0  0  0  0
    7.2654  -12.1784   25.0432 C   0  0  0  0  0  0  0  0  0  0  0  0
    7.4679  -13.6255   25.4039 C   0  0  0  0  0  0  0  0  0  0  0  0
    8.1588  -14.4247   24.3467 C   0  0  2  0  0  0  0  0  0  0  0  0
    7.3683  -14.6050   23.1653 N   0  0  0  0  0  0  0  0  0  0  0  0
    8.5455  -15.8016   24.8336 C   0  0  0  0  0  0  0  0  0  0  0  0
    7.7532  -16.7544   24.8821 O   0  0  0  0  0  0  0  0  0  0  0  0
    9.8957  -16.0296   25.2677 N   0  0  0  0  0  0  0  0  0  0  0  0
   10.3326  -17.2967   25.8307 C   0  0  1  0  0  0  0  0  0  0  0  0
   11.7520  -17.6090   25.4134 C   0  0  0  0  0  0  0  0  0  0  0  0
   11.8770  -17.8140   23.9399 C   0  0  0  0  0  0  0  0  0  0  0  0
   10.9364  -18.0907   23.0010 C   0  0  0  0  0  0  0  0  0  0  0  0
   11.4995  -18.2145   21.7777 N   0  0  0  0  0  0  0  0  0  0  0  0
   12.7998  -18.0155   21.9508 C   0  0  0  0  0  0  0  0  0  0  0  0
   13.0776  -17.7629   23.2731 N   0  0  0  0  0  0  0  0  0  0  0  0
   10.2217  -17.2769   27.3101 C   0  0  0  0  0  0  0  0  0  0  0  0
    9.8558  -16.2209   27.8744 O   0  0  0  0  0  0  0  0  0  0  0  0
   10.5053  -18.3698   28.0951 O   0  0  0  0  0  0  0  0  0  0  0  0
  2  1  1  0
  2  3  1  0
  3  4  1  6
  5  3  1  0
  5  6  2  0
  7  8  1  0
  8  9  1  0
  9 10  1  0
 11 10  1  1
 11 12  1  0
 11 13  1  0
 12  5  1  0
 13 15  1  0
 13 14  2  0
 15 16  1  0
 16 23  1  0
 17 18  1  0
 16 17  1  1
 18 19  2  0
 19 20  1  0
 21 20  1  0
 22 18  1  0
 22 21  2  0
 23 24  2  0
 23 25  1  0
M  END
$$$$
