SMH.pdb
     RDKit          3D

 25 25  0  0  1  0  0  0  0  0999 V2000
    7.9121  -18.1871   21.5119 O   0  0  0  0  0  0  0  0  0  0  0  0
    8.6161  -17.5989   20.4815 C   0  0  0  0  0  0  0  0  0  0  0  0
    8.5226  -16.0903   20.5535 C   0  0  2  0  0  0  0  0  0  0  0  0
    9.2449  -15.4425   19.4890 N   0  0  0  0  0  0  0  0  0  0  0  0
    8.9837  -15.5802   21.8630 C   0  0  0  0  0  0  0  0  0  0  0  0
   10.1800  -15.3160   22.0822 O   0  0  0  0  0  0  0  0  0  0  0  0
    6.5028  -11.0854   25.7530 C   0  0  0  0  0  0  0  0  0  0  0  0
    6.6813  -12.4747   26.8950 S   0  0  0  0  0  0  0  0  0  0  0  0
    7.9698  -13.5955   26.2560 C   0  0  0  0  0  0  0  0  0  0  0  0
    7.5274  -14.0262   24.8833 C   0  0  0  0  0  0  0  0  0  0  0  0
    8.4804  -14.9531   24.2005 C   0  0  2  0  0  0  0  0  0  0  0  0
    8.0261  -15.3846   22.9118 N   0  0  0  0  0  0  0  0  0  0  0  0
    8.7474  -16.1978   25.0140 C   0  0  0  0  0  0  0  0  0  0  0  0
    7.8802  -17.0494   25.2608 O   0  0  0  0  0  0  0  0  0  0  0  0
   10.0681  -16.4151   25.5357 N   0  0  0  0  0  0  0  0  0  0  0  0
   10.4132  -17.5839   26.3282 C   0  0  1  0  0  0  0  0  0  0  0  0
   11.8585  -17.9721   26.1117 C   0  0  0  0  0  0  0  0  0  0  0  0
   12.1117  -18.4606   24.7239 C   0  0  0  0  0  0  0  0  0  0  0  0
   11.2932  -19.0912   23.8434 C   0  0  0  0  0  0  0  0  0  0  0  0
   11.9479  -19.3716   22.6938 N   0  0  0  0  0  0  0  0  0  0  0  0
   13.1834  -18.9157   22.8548 C   0  0  0  0  0  0  0  0  0  0  0  0
   13.3285  -18.3430   24.0959 N   0  0  0  0  0  0  0  0  0  0  0  0
   10.1559  -17.3334   27.7678 C   0  0  0  0  0  0  0  0  0  0  0  0
   10.3848  -18.2489   28.5906 O   0  0  0  0  0  0  0  0  0  0  0  0
    9.6733  -16.1367   28.2433 O   0  0  0  0  0  0  0  0  0  0  0  0
  2  1  1  0
  2  3  1  0
  3  4  1  6
  5  3  1  0
  5  6  2  0
  7  8  1  0
  8  9  1  0
  9 10  1  0
 11 10  1  1
 11 12  1  0
 11 13  1  0
 12  5  1  0
 13 15  1  0
 13 14  2  0
 15 16  1  0
 16 23  1  0
 17 18  1  0
 16 17  1  1
 18 19  2  0
 19 20  1  0
 21 20  1  0
 22 18  1  0
 22 21  2  0
 23 24  2  0
 23 25  1  0
M  END
$$$$
