SMH.pdb
     RDKit          3D

 25 25  0  0  1  0  0  0  0  0999 V2000
    9.1043  -18.1753   20.1958 O   0  0  0  0  0  0  0  0  0  0  0  0
    8.1996  -17.1546   19.9880 C   0  0  0  0  0  0  0  0  0  0  0  0
    8.8747  -15.8040   20.0865 C   0  0  2  0  0  0  0  0  0  0  0  0
   10.0720  -15.7275   19.2896 N   0  0  0  0  0  0  0  0  0  0  0  0
    9.1763  -15.4494   21.4903 C   0  0  0  0  0  0  0  0  0  0  0  0
   10.3252  -15.5413   21.9601 O   0  0  0  0  0  0  0  0  0  0  0  0
    6.6267  -11.9087   28.0467 C   0  0  0  0  0  0  0  0  0  0  0  0
    6.2071  -12.5953   26.4285 S   0  0  0  0  0  0  0  0  0  0  0  0
    7.6319  -13.5509   25.8110 C   0  0  0  0  0  0  0  0  0  0  0  0
    7.3002  -13.9610   24.4013 C   0  0  0  0  0  0  0  0  0  0  0  0
    8.3882  -14.7251   23.7185 C   0  0  2  0  0  0  0  0  0  0  0  0
    8.1153  -14.9870   22.3364 N   0  0  0  0  0  0  0  0  0  0  0  0
    8.6486  -16.0593   24.3777 C   0  0  0  0  0  0  0  0  0  0  0  0
    8.4660  -17.1467   23.8102 O   0  0  0  0  0  0  0  0  0  0  0  0
    9.1295  -16.0817   25.7312 N   0  0  0  0  0  0  0  0  0  0  0  0
   10.0003  -17.1314   26.2342 C   0  0  1  0  0  0  0  0  0  0  0  0
   11.2712  -17.2118   25.4188 C   0  0  0  0  0  0  0  0  0  0  0  0
   11.1690  -18.2032   24.3073 C   0  0  0  0  0  0  0  0  0  0  0  0
   10.1412  -19.0037   23.9257 C   0  0  0  0  0  0  0  0  0  0  0  0
   10.4933  -19.7667   22.8662 N   0  0  0  0  0  0  0  0  0  0  0  0
   11.7486  -19.4438   22.5828 C   0  0  0  0  0  0  0  0  0  0  0  0
   12.2060  -18.4792   23.4486 N   0  0  0  0  0  0  0  0  0  0  0  0
   10.3185  -16.9049   27.6656 C   0  0  0  0  0  0  0  0  0  0  0  0
   10.5992  -15.7456   28.0459 O   0  0  0  0  0  0  0  0  0  0  0  0
   10.3215  -17.9147   28.5991 O   0  0  0  0  0  0  0  0  0  0  0  0
  2  1  1  0
  2  3  1  0
  3  4  1  6
  5  3  1  0
  5  6  2  0
  7  8  1  0
  8  9  1  0
  9 10  1  0
 11 10  1  1
 11 12  1  0
 11 13  1  0
 12  5  1  0
 13 15  1  0
 13 14  2  0
 15 16  1  0
 16 23  1  0
 17 18  1  0
 16 17  1  6
 18 19  2  0
 19 20  1  0
 21 20  1  0
 22 18  1  0
 22 21  2  0
 23 24  2  0
 23 25  1  0
M  END
$$$$
