SMH.pdb
     RDKit          3D

 25 25  0  0  1  0  0  0  0  0999 V2000
    7.4472  -17.9016   20.2917 O   0  0  0  0  0  0  0  0  0  0  0  0
    6.7233  -16.8080   19.8634 C   0  0  0  0  0  0  0  0  0  0  0  0
    7.5947  -15.5726   19.7998 C   0  0  2  0  0  0  0  0  0  0  0  0
    8.5988  -15.6596   18.7709 N   0  0  0  0  0  0  0  0  0  0  0  0
    8.2294  -15.2887   21.1052 C   0  0  0  0  0  0  0  0  0  0  0  0
    9.4084  -15.6061   21.3466 O   0  0  0  0  0  0  0  0  0  0  0  0
    7.6564  -11.4253   27.9493 C   0  0  0  0  0  0  0  0  0  0  0  0
    6.8099  -12.0431   26.4769 S   0  0  0  0  0  0  0  0  0  0  0  0
    7.9316  -13.1727   25.5878 C   0  0  0  0  0  0  0  0  0  0  0  0
    7.2370  -13.5544   24.3082 C   0  0  0  0  0  0  0  0  0  0  0  0
    8.0429  -14.4487   23.4225 C   0  0  2  0  0  0  0  0  0  0  0  0
    7.4655  -14.6297   22.1237 N   0  0  0  0  0  0  0  0  0  0  0  0
    8.2294  -15.8243   24.0184 C   0  0  0  0  0  0  0  0  0  0  0  0
    7.9045  -16.8693   23.4350 O   0  0  0  0  0  0  0  0  0  0  0  0
    8.8088  -15.9399   25.3278 N   0  0  0  0  0  0  0  0  0  0  0  0
    9.8476  -16.9076   25.6405 C   0  0  1  0  0  0  0  0  0  0  0  0
   11.1066  -16.6169   24.8551 C   0  0  0  0  0  0  0  0  0  0  0  0
   11.1996  -17.4367   23.6108 C   0  0  0  0  0  0  0  0  0  0  0  0
   10.3696  -18.3884   23.1126 C   0  0  0  0  0  0  0  0  0  0  0  0
   10.8546  -18.8917   21.9550 N   0  0  0  0  0  0  0  0  0  0  0  0
   11.9951  -18.2533   21.7269 C   0  0  0  0  0  0  0  0  0  0  0  0
   12.2467  -17.3430   22.7256 N   0  0  0  0  0  0  0  0  0  0  0  0
   10.1364  -16.9121   27.0958 C   0  0  0  0  0  0  0  0  0  0  0  0
   10.2435  -15.8175   27.6939 O   0  0  0  0  0  0  0  0  0  0  0  0
   10.2946  -18.0689   27.8225 O   0  0  0  0  0  0  0  0  0  0  0  0
  2  1  1  0
  2  3  1  0
  3  4  1  6
  5  3  1  0
  5  6  2  0
  7  8  1  0
  8  9  1  0
  9 10  1  0
 11 10  1  1
 11 12  1  0
 11 13  1  0
 12  5  1  0
 13 15  1  0
 13 14  2  0
 15 16  1  0
 16 23  1  0
 17 18  1  0
 16 17  1  6
 18 19  2  0
 19 20  1  0
 21 20  1  0
 22 18  1  0
 22 21  2  0
 23 24  2  0
 23 25  1  0
M  END
$$$$
