SMH.pdb
     RDKit          3D

 25 25  0  0  1  0  0  0  0  0999 V2000
    8.1969  -18.3246   20.8955 O   0  0  0  0  0  0  0  0  0  0  0  0
    7.3743  -17.4426   20.2257 C   0  0  0  0  0  0  0  0  0  0  0  0
    8.0512  -16.1014   20.0446 C   0  0  2  0  0  0  0  0  0  0  0  0
    9.0770  -16.1345   19.0342 N   0  0  0  0  0  0  0  0  0  0  0  0
    8.6103  -15.5996   21.3187 C   0  0  0  0  0  0  0  0  0  0  0  0
    9.8352  -15.5830   21.5386 O   0  0  0  0  0  0  0  0  0  0  0  0
    7.1770  -11.6740   28.0160 C   0  0  0  0  0  0  0  0  0  0  0  0
    6.5356  -12.3698   26.4764 S   0  0  0  0  0  0  0  0  0  0  0  0
    7.8508  -13.3556   25.6871 C   0  0  0  0  0  0  0  0  0  0  0  0
    7.3158  -13.8028   24.3532 C   0  0  0  0  0  0  0  0  0  0  0  0
    8.2540  -14.6750   23.5833 C   0  0  2  0  0  0  0  0  0  0  0  0
    7.7166  -15.1188   22.3313 N   0  0  0  0  0  0  0  0  0  0  0  0
    8.6488  -15.9110   24.3573 C   0  0  0  0  0  0  0  0  0  0  0  0
    7.9228  -16.9112   24.4602 O   0  0  0  0  0  0  0  0  0  0  0  0
    9.9262  -15.9392   25.0137 N   0  0  0  0  0  0  0  0  0  0  0  0
   10.3748  -17.0747   25.8029 C   0  0  1  0  0  0  0  0  0  0  0  0
   11.8179  -17.4057   25.4960 C   0  0  0  0  0  0  0  0  0  0  0  0
   11.9867  -17.9934   24.1341 C   0  0  0  0  0  0  0  0  0  0  0  0
   11.1098  -18.6629   23.3431 C   0  0  0  0  0  0  0  0  0  0  0  0
   11.6963  -19.0364   22.1832 N   0  0  0  0  0  0  0  0  0  0  0  0
   12.9476  -18.5999   22.2479 C   0  0  0  0  0  0  0  0  0  0  0  0
   13.1703  -17.9477   23.4371 N   0  0  0  0  0  0  0  0  0  0  0  0
   10.2039  -16.8040   27.2517 C   0  0  0  0  0  0  0  0  0  0  0  0
   10.5650  -17.6747   28.0756 O   0  0  0  0  0  0  0  0  0  0  0  0
    9.6626  -15.6357   27.7346 O   0  0  0  0  0  0  0  0  0  0  0  0
  2  1  1  0
  2  3  1  0
  3  4  1  6
  5  3  1  0
  5  6  2  0
  7  8  1  0
  8  9  1  0
  9 10  1  0
 11 10  1  1
 11 12  1  0
 11 13  1  0
 12  5  1  0
 13 15  1  0
 13 14  2  0
 15 16  1  0
 16 23  1  0
 17 18  1  0
 16 17  1  1
 18 19  2  0
 19 20  1  0
 21 20  1  0
 22 18  1  0
 22 21  2  0
 23 24  2  0
 23 25  1  0
M  END
$$$$
