SMH.pdb
     RDKit          3D

 25 25  0  0  1  0  0  0  0  0999 V2000
    7.8765  -20.3378   19.2446 O   0  0  0  0  0  0  0  0  0  0  0  0
    6.9777  -20.1159   18.2217 C   0  0  0  0  0  0  0  0  0  0  0  0
    7.3931  -18.9262   17.3841 C   0  0  2  0  0  0  0  0  0  0  0  0
    7.9796  -19.3154   16.1276 N   0  0  0  0  0  0  0  0  0  0  0  0
    8.3183  -18.0395   18.1226 C   0  0  0  0  0  0  0  0  0  0  0  0
    9.5537  -18.1751   18.0558 O   0  0  0  0  0  0  0  0  0  0  0  0
    6.3953  -12.4602   20.6755 C   0  0  0  0  0  0  0  0  0  0  0  0
    8.1570  -12.1242   20.4530 S   0  0  0  0  0  0  0  0  0  0  0  0
    9.0480  -13.7122   20.3573 C   0  0  0  0  0  0  0  0  0  0  0  0
    8.1002  -14.7041   19.7381 C   0  0  0  0  0  0  0  0  0  0  0  0
    8.6726  -16.0758   19.5817 C   0  0  2  0  0  0  0  0  0  0  0  0
    7.7780  -16.9933   18.9405 N   0  0  0  0  0  0  0  0  0  0  0  0
    9.0571  -16.6882   20.9082 C   0  0  0  0  0  0  0  0  0  0  0  0
    8.2318  -17.1517   21.7094 O   0  0  0  0  0  0  0  0  0  0  0  0
   10.4460  -16.7389   21.2717 N   0  0  0  0  0  0  0  0  0  0  0  0
   10.9020  -17.2724   22.5448 C   0  0  1  0  0  0  0  0  0  0  0  0
   11.8840  -18.4026   22.3329 C   0  0  0  0  0  0  0  0  0  0  0  0
   11.2105  -19.6659   21.9096 C   0  0  0  0  0  0  0  0  0  0  0  0
    9.8941  -19.9596   21.7557 C   0  0  0  0  0  0  0  0  0  0  0  0
    9.7299  -21.2452   21.3697 N   0  0  0  0  0  0  0  0  0  0  0  0
   10.9494  -21.7605   21.2824 C   0  0  0  0  0  0  0  0  0  0  0  0
   11.8959  -20.8179   21.6064 N   0  0  0  0  0  0  0  0  0  0  0  0
   11.5158  -16.2027   23.3697 C   0  0  0  0  0  0  0  0  0  0  0  0
   11.8791  -15.1428   22.8113 O   0  0  0  0  0  0  0  0  0  0  0  0
   11.7071  -16.3224   24.7262 O   0  0  0  0  0  0  0  0  0  0  0  0
  2  1  1  0
  2  3  1  0
  3  4  1  6
  5  3  1  0
  5  6  2  0
  7  8  1  0
  8  9  1  0
  9 10  1  0
 11 10  1  1
 11 12  1  0
 11 13  1  0
 12  5  1  0
 13 15  1  0
 13 14  2  0
 15 16  1  0
 16 23  1  0
 17 18  1  0
 16 17  1  6
 18 19  2  0
 19 20  1  0
 21 20  1  0
 22 18  1  0
 22 21  2  0
 23 24  2  0
 23 25  1  0
M  END
$$$$
