SMH.pdb
     RDKit          3D

 25 25  0  0  1  0  0  0  0  0999 V2000
    7.9466  -18.2166   21.1105 O   0  0  0  0  0  0  0  0  0  0  0  0
    7.2795  -17.2795   20.3488 C   0  0  0  0  0  0  0  0  0  0  0  0
    8.0649  -15.9887   20.2679 C   0  0  2  0  0  0  0  0  0  0  0  0
    9.1714  -16.0741   19.3500 N   0  0  0  0  0  0  0  0  0  0  0  0
    8.5431  -15.5603   21.6003 C   0  0  0  0  0  0  0  0  0  0  0  0
    9.7254  -15.7163   21.9567 O   0  0  0  0  0  0  0  0  0  0  0  0
    6.9647  -11.2412   28.0148 C   0  0  0  0  0  0  0  0  0  0  0  0
    6.4607  -11.8073   26.3742 S   0  0  0  0  0  0  0  0  0  0  0  0
    7.6115  -13.1111   25.8260 C   0  0  0  0  0  0  0  0  0  0  0  0
    7.2069  -13.4851   24.4254 C   0  0  0  0  0  0  0  0  0  0  0  0
    8.0855  -14.5159   23.7936 C   0  0  2  0  0  0  0  0  0  0  0  0
    7.6190  -14.9481   22.5095 N   0  0  0  0  0  0  0  0  0  0  0  0
    8.2237  -15.7514   24.6520 C   0  0  0  0  0  0  0  0  0  0  0  0
    7.3118  -16.5769   24.8096 O   0  0  0  0  0  0  0  0  0  0  0  0
    9.4691  -15.9910   25.3268 N   0  0  0  0  0  0  0  0  0  0  0  0
    9.7070  -17.1788   26.1305 C   0  0  1  0  0  0  0  0  0  0  0  0
    9.5014  -18.4323   25.3103 C   0  0  0  0  0  0  0  0  0  0  0  0
   10.4615  -18.5274   24.1710 C   0  0  0  0  0  0  0  0  0  0  0  0
   11.4790  -17.7093   23.7992 C   0  0  0  0  0  0  0  0  0  0  0  0
   12.0844  -18.1717   22.6819 N   0  0  0  0  0  0  0  0  0  0  0  0
   11.4425  -19.2847   22.3508 C   0  0  0  0  0  0  0  0  0  0  0  0
   10.4317  -19.5432   23.2458 N   0  0  0  0  0  0  0  0  0  0  0  0
   11.0750  -17.1558   26.7044 C   0  0  0  0  0  0  0  0  0  0  0  0
   11.8233  -16.1866   26.4435 O   0  0  0  0  0  0  0  0  0  0  0  0
   11.5630  -18.1557   27.5125 O   0  0  0  0  0  0  0  0  0  0  0  0
  2  1  1  0
  2  3  1  0
  3  4  1  6
  5  3  1  0
  5  6  2  0
  7  8  1  0
  8  9  1  0
  9 10  1  0
 11 10  1  1
 11 12  1  0
 11 13  1  0
 12  5  1  0
 13 15  1  0
 13 14  2  0
 15 16  1  0
 16 23  1  0
 17 18  1  0
 16 17  1  6
 18 19  2  0
 19 20  1  0
 21 20  1  0
 22 18  1  0
 22 21  2  0
 23 24  2  0
 23 25  1  0
M  END
$$$$
