SMH.pdb
     RDKit          3D

 25 25  0  0  1  0  0  0  0  0999 V2000
    8.1193  -18.1647   20.8710 O   0  0  0  0  0  0  0  0  0  0  0  0
    7.4421  -17.0684   20.3782 C   0  0  0  0  0  0  0  0  0  0  0  0
    8.2963  -15.8220   20.4606 C   0  0  2  0  0  0  0  0  0  0  0  0
    9.4857  -15.9154   19.6538 N   0  0  0  0  0  0  0  0  0  0  0  0
    8.6559  -15.5025   21.8592 C   0  0  0  0  0  0  0  0  0  0  0  0
    9.7906  -15.7327   22.3160 O   0  0  0  0  0  0  0  0  0  0  0  0
    8.5230  -11.3397   27.8126 C   0  0  0  0  0  0  0  0  0  0  0  0
    7.5470  -11.6988   26.3346 S   0  0  0  0  0  0  0  0  0  0  0  0
    7.3035  -13.5021   26.2180 C   0  0  0  0  0  0  0  0  0  0  0  0
    6.9726  -13.8025   24.7807 C   0  0  0  0  0  0  0  0  0  0  0  0
    8.0169  -14.6021   24.0708 C   0  0  2  0  0  0  0  0  0  0  0  0
    7.6698  -14.9111   22.7154 N   0  0  0  0  0  0  0  0  0  0  0  0
    8.3002  -15.9141   24.7642 C   0  0  0  0  0  0  0  0  0  0  0  0
    7.5159  -16.8746   24.7514 O   0  0  0  0  0  0  0  0  0  0  0  0
    9.5362  -16.0671   25.4802 N   0  0  0  0  0  0  0  0  0  0  0  0
    9.9237  -17.3173   26.1127 C   0  0  1  0  0  0  0  0  0  0  0  0
   11.3362  -17.6978   25.7298 C   0  0  0  0  0  0  0  0  0  0  0  0
   11.4062  -18.3280   24.3783 C   0  0  0  0  0  0  0  0  0  0  0  0
   10.4231  -18.6558   23.5015 C   0  0  0  0  0  0  0  0  0  0  0  0
   10.9399  -19.2305   22.3918 N   0  0  0  0  0  0  0  0  0  0  0  0
   12.2537  -19.2642   22.5743 C   0  0  0  0  0  0  0  0  0  0  0  0
   12.5863  -18.7149   23.7896 N   0  0  0  0  0  0  0  0  0  0  0  0
    9.7975  -17.2176   27.5876 C   0  0  0  0  0  0  0  0  0  0  0  0
    9.7246  -16.0833   28.1124 O   0  0  0  0  0  0  0  0  0  0  0  0
    9.7586  -18.3189   28.4102 O   0  0  0  0  0  0  0  0  0  0  0  0
  2  1  1  0
  2  3  1  0
  3  4  1  6
  5  3  1  0
  5  6  2  0
  7  8  1  0
  8  9  1  0
  9 10  1  0
 11 10  1  1
 11 12  1  0
 11 13  1  0
 12  5  1  0
 13 15  1  0
 13 14  2  0
 15 16  1  0
 16 23  1  0
 17 18  1  0
 16 17  1  1
 18 19  2  0
 19 20  1  0
 21 20  1  0
 22 18  1  0
 22 21  2  0
 23 24  2  0
 23 25  1  0
M  END
$$$$
