SMH.pdb
     RDKit          3D

 25 25  0  0  1  0  0  0  0  0999 V2000
    8.6857  -18.6159   22.5564 O   0  0  0  0  0  0  0  0  0  0  0  0
    7.8947  -18.4145   21.4442 C   0  0  0  0  0  0  0  0  0  0  0  0
    7.9372  -16.9674   21.0040 C   0  0  2  0  0  0  0  0  0  0  0  0
    8.6069  -16.7957   19.7405 N   0  0  0  0  0  0  0  0  0  0  0  0
    8.5630  -16.1063   22.0308 C   0  0  0  0  0  0  0  0  0  0  0  0
    9.6965  -15.6158   21.8766 O   0  0  0  0  0  0  0  0  0  0  0  0
    6.6823  -10.8631   27.5358 C   0  0  0  0  0  0  0  0  0  0  0  0
    6.1727  -12.1903   26.4201 S   0  0  0  0  0  0  0  0  0  0  0  0
    7.6531  -12.8601   25.5928 C   0  0  0  0  0  0  0  0  0  0  0  0
    7.1928  -14.0238   24.7565 C   0  0  0  0  0  0  0  0  0  0  0  0
    8.3037  -14.7765   24.0983 C   0  0  2  0  0  0  0  0  0  0  0  0
    7.8449  -15.8282   23.2400 N   0  0  0  0  0  0  0  0  0  0  0  0
    9.2413  -15.4039   25.1031 C   0  0  0  0  0  0  0  0  0  0  0  0
    9.6794  -14.8016   26.0947 O   0  0  0  0  0  0  0  0  0  0  0  0
    9.6554  -16.7656   24.9087 N   0  0  0  0  0  0  0  0  0  0  0  0
   10.5592  -17.4459   25.8217 C   0  0  1  0  0  0  0  0  0  0  0  0
   10.2598  -18.9273   25.8698 C   0  0  0  0  0  0  0  0  0  0  0  0
    8.9209  -19.2153   26.4642 C   0  0  0  0  0  0  0  0  0  0  0  0
    8.4255  -18.9533   27.7007 C   0  0  0  0  0  0  0  0  0  0  0  0
    7.1578  -19.4091   27.8176 N   0  0  0  0  0  0  0  0  0  0  0  0
    6.8572  -19.9608   26.6490 C   0  0  0  0  0  0  0  0  0  0  0  0
    7.9187  -19.8620   25.7815 N   0  0  0  0  0  0  0  0  0  0  0  0
   11.9709  -17.2170   25.4266 C   0  0  0  0  0  0  0  0  0  0  0  0
   12.2085  -16.5581   24.3889 O   0  0  0  0  0  0  0  0  0  0  0  0
   13.0366  -17.6990   26.1498 O   0  0  0  0  0  0  0  0  0  0  0  0
  2  1  1  0
  2  3  1  0
  3  4  1  6
  5  3  1  0
  5  6  2  0
  7  8  1  0
  8  9  1  0
  9 10  1  0
 11 10  1  1
 11 12  1  0
 11 13  1  0
 12  5  1  0
 13 15  1  0
 13 14  2  0
 15 16  1  0
 16 23  1  0
 17 18  1  0
 16 17  1  6
 18 19  2  0
 19 20  1  0
 21 20  1  0
 22 18  1  0
 22 21  2  0
 23 24  2  0
 23 25  1  0
M  END
$$$$
