SMH.pdb
     RDKit          3D

 25 25  0  0  1  0  0  0  0  0999 V2000
    8.6108  -19.2230   21.5673 O   0  0  0  0  0  0  0  0  0  0  0  0
    7.5072  -18.4019   21.4614 C   0  0  0  0  0  0  0  0  0  0  0  0
    7.9199  -16.9491   21.3676 C   0  0  2  0  0  0  0  0  0  0  0  0
    8.7768  -16.6920   20.2390 N   0  0  0  0  0  0  0  0  0  0  0  0
    8.5702  -16.4884   22.6135 C   0  0  0  0  0  0  0  0  0  0  0  0
    9.7993  -16.3063   22.6859 O   0  0  0  0  0  0  0  0  0  0  0  0
    6.3252  -10.9273   26.1129 C   0  0  0  0  0  0  0  0  0  0  0  0
    6.4576  -12.6561   26.6227 S   0  0  0  0  0  0  0  0  0  0  0  0
    7.4170  -13.5648   25.3664 C   0  0  0  0  0  0  0  0  0  0  0  0
    7.5378  -14.9830   25.8557 C   0  0  0  0  0  0  0  0  0  0  0  0
    8.3979  -15.8516   24.9958 C   0  0  2  0  0  0  0  0  0  0  0  0
    7.7629  -16.2449   23.7730 N   0  0  0  0  0  0  0  0  0  0  0  0
    8.8166  -17.1191   25.7034 C   0  0  0  0  0  0  0  0  0  0  0  0
    8.0450  -18.0658   25.9188 O   0  0  0  0  0  0  0  0  0  0  0  0
   10.1740  -17.2441   26.1566 N   0  0  0  0  0  0  0  0  0  0  0  0
   10.6323  -18.3717   26.9515 C   0  0  1  0  0  0  0  0  0  0  0  0
   12.0346  -18.7744   26.5542 C   0  0  0  0  0  0  0  0  0  0  0  0
   12.1046  -19.2686   25.1472 C   0  0  0  0  0  0  0  0  0  0  0  0
   11.1355  -19.7521   24.3287 C   0  0  0  0  0  0  0  0  0  0  0  0
   11.6508  -20.1055   23.1294 N   0  0  0  0  0  0  0  0  0  0  0  0
   12.9497  -19.8434   23.1967 C   0  0  0  0  0  0  0  0  0  0  0  0
   13.2738  -19.3230   24.4270 N   0  0  0  0  0  0  0  0  0  0  0  0
   10.5785  -18.0471   28.3982 C   0  0  0  0  0  0  0  0  0  0  0  0
   10.2527  -16.8894   28.7459 O   0  0  0  0  0  0  0  0  0  0  0  0
   10.8730  -18.9631   29.3807 O   0  0  0  0  0  0  0  0  0  0  0  0
  2  1  1  0
  2  3  1  0
  3  4  1  6
  5  3  1  0
  5  6  2  0
  7  8  1  0
  8  9  1  0
  9 10  1  0
 11 10  1  1
 11 12  1  0
 11 13  1  0
 12  5  1  0
 13 15  1  0
 13 14  2  0
 15 16  1  0
 16 23  1  0
 17 18  1  0
 16 17  1  6
 18 19  2  0
 19 20  1  0
 21 20  1  0
 22 18  1  0
 22 21  2  0
 23 24  2  0
 23 25  1  0
M  END
$$$$
