SMH.pdb
     RDKit          3D

 25 25  0  0  1  0  0  0  0  0999 V2000
    8.1442  -17.6609   20.8127 O   0  0  0  0  0  0  0  0  0  0  0  0
    7.1042  -16.8178   20.4796 C   0  0  0  0  0  0  0  0  0  0  0  0
    7.5717  -15.3801   20.4154 C   0  0  2  0  0  0  0  0  0  0  0  0
    8.5108  -15.1537   19.3471 N   0  0  0  0  0  0  0  0  0  0  0  0
    8.1523  -14.9405   21.7027 C   0  0  0  0  0  0  0  0  0  0  0  0
    9.3817  -14.8470   21.8725 O   0  0  0  0  0  0  0  0  0  0  0  0
    6.8311  -11.4779   28.6591 C   0  0  0  0  0  0  0  0  0  0  0  0
    6.1674  -12.0823   27.0906 S   0  0  0  0  0  0  0  0  0  0  0  0
    7.4808  -12.9908   26.2107 C   0  0  0  0  0  0  0  0  0  0  0  0
    6.8964  -13.4314   24.8955 C   0  0  0  0  0  0  0  0  0  0  0  0
    7.8369  -14.2255   24.0479 C   0  0  2  0  0  0  0  0  0  0  0  0
    7.2748  -14.6131   22.7881 N   0  0  0  0  0  0  0  0  0  0  0  0
    8.2945  -15.4907   24.7351 C   0  0  0  0  0  0  0  0  0  0  0  0
    7.5541  -16.4665   24.9294 O   0  0  0  0  0  0  0  0  0  0  0  0
    9.6531  -15.5781   25.1936 N   0  0  0  0  0  0  0  0  0  0  0  0
   10.1672  -16.7411   25.8981 C   0  0  1  0  0  0  0  0  0  0  0  0
   11.5731  -17.0653   25.4455 C   0  0  0  0  0  0  0  0  0  0  0  0
   11.6377  -17.3959   23.9911 C   0  0  0  0  0  0  0  0  0  0  0  0
   10.6708  -17.8099   23.1328 C   0  0  0  0  0  0  0  0  0  0  0  0
   11.1795  -18.0120   21.8963 N   0  0  0  0  0  0  0  0  0  0  0  0
   12.4721  -17.7245   21.9800 C   0  0  0  0  0  0  0  0  0  0  0  0
   12.7986  -17.3375   23.2579 N   0  0  0  0  0  0  0  0  0  0  0  0
   10.1350  -16.5198   27.3648 C   0  0  0  0  0  0  0  0  0  0  0  0
   10.5256  -17.4365   28.1228 O   0  0  0  0  0  0  0  0  0  0  0  0
    9.6920  -15.3490   27.9341 O   0  0  0  0  0  0  0  0  0  0  0  0
  2  1  1  0
  2  3  1  0
  3  4  1  6
  5  3  1  0
  5  6  2  0
  7  8  1  0
  8  9  1  0
  9 10  1  0
 11 10  1  1
 11 12  1  0
 11 13  1  0
 12  5  1  0
 13 15  1  0
 13 14  2  0
 15 16  1  0
 16 23  1  0
 17 18  1  0
 16 17  1  6
 18 19  2  0
 19 20  1  0
 21 20  1  0
 22 18  1  0
 22 21  2  0
 23 24  2  0
 23 25  1  0
M  END
$$$$
