SMH.pdb
     RDKit          3D

 25 25  0  0  1  0  0  0  0  0999 V2000
    7.8157  -17.9781   20.7454 O   0  0  0  0  0  0  0  0  0  0  0  0
    6.8813  -17.0044   20.4588 C   0  0  0  0  0  0  0  0  0  0  0  0
    7.5434  -15.6569   20.2702 C   0  0  2  0  0  0  0  0  0  0  0  0
    8.5155  -15.6650   19.2075 N   0  0  0  0  0  0  0  0  0  0  0  0
    8.1662  -15.1784   21.5235 C   0  0  0  0  0  0  0  0  0  0  0  0
    9.4013  -15.1424   21.6727 O   0  0  0  0  0  0  0  0  0  0  0  0
    7.1688  -11.4272   28.3838 C   0  0  0  0  0  0  0  0  0  0  0  0
    6.4533  -12.0056   26.8283 S   0  0  0  0  0  0  0  0  0  0  0  0
    7.6598  -13.0910   25.9970 C   0  0  0  0  0  0  0  0  0  0  0  0
    7.0453  -13.4962   24.6841 C   0  0  0  0  0  0  0  0  0  0  0  0
    7.9219  -14.3707   23.8469 C   0  0  2  0  0  0  0  0  0  0  0  0
    7.3241  -14.7438   22.5993 N   0  0  0  0  0  0  0  0  0  0  0  0
    8.2965  -15.6503   24.5573 C   0  0  0  0  0  0  0  0  0  0  0  0
    7.5146  -16.6016   24.7048 O   0  0  0  0  0  0  0  0  0  0  0  0
    9.6218  -15.7819   25.0956 N   0  0  0  0  0  0  0  0  0  0  0  0
   10.0624  -16.9710   25.8064 C   0  0  1  0  0  0  0  0  0  0  0  0
   11.4423  -17.3889   25.3506 C   0  0  0  0  0  0  0  0  0  0  0  0
   11.4494  -17.8751   23.9391 C   0  0  0  0  0  0  0  0  0  0  0  0
   10.8622  -17.3689   22.8247 C   0  0  0  0  0  0  0  0  0  0  0  0
   11.1172  -18.1489   21.7499 N   0  0  0  0  0  0  0  0  0  0  0  0
   11.8671  -19.1499   22.1929 C   0  0  0  0  0  0  0  0  0  0  0  0
   12.0981  -19.0195   23.5416 N   0  0  0  0  0  0  0  0  0  0  0  0
   10.0510  -16.7381   27.2716 C   0  0  0  0  0  0  0  0  0  0  0  0
   10.0201  -15.5606   27.6959 O   0  0  0  0  0  0  0  0  0  0  0  0
   10.0749  -17.7606   28.1908 O   0  0  0  0  0  0  0  0  0  0  0  0
  2  1  1  0
  2  3  1  0
  3  4  1  6
  5  3  1  0
  5  6  2  0
  7  8  1  0
  8  9  1  0
  9 10  1  0
 11 10  1  1
 11 12  1  0
 11 13  1  0
 12  5  1  0
 13 15  1  0
 13 14  2  0
 15 16  1  0
 16 23  1  0
 17 18  1  0
 16 17  1  6
 18 19  2  0
 19 20  1  0
 21 20  1  0
 22 18  1  0
 22 21  2  0
 23 24  2  0
 23 25  1  0
M  END
$$$$
