VEL.pdb
     RDKit          3D

 25 24  0  0  1  0  0  0  0  0999 V2000
   24.5951  -32.4373   -8.4089 C   0  0  0  0  0  0  0  0  0  0  0  0
   25.9988  -32.7764   -8.7812 C   0  0  2  0  0  0  0  0  0  0  0  0
   26.2662  -32.1429  -10.1459 C   0  0  0  0  0  0  0  0  0  0  0  0
   26.2861  -34.2299   -8.9011 C   0  0  2  0  0  0  0  0  0  0  0  0
   25.5337  -34.7924   -9.9811 N   0  0  0  0  0  0  0  0  0  0  0  0
   25.9924  -34.9893   -7.6585 C   0  0  0  0  0  0  0  0  0  0  0  0
   24.9223  -35.6080   -7.4755 O   0  0  0  0  0  0  0  0  0  0  0  0
   26.9671  -35.0063   -6.6502 N   0  0  0  0  0  0  0  0  0  0  0  0
   26.8034  -35.7010   -5.3578 C   0  0  1  0  0  0  0  0  0  0  0  0
   28.1674  -36.0907   -4.8663 C   0  0  0  0  0  0  0  0  0  0  0  0
   28.1347  -36.9118   -3.6138 C   0  0  0  0  0  0  0  0  0  0  0  0
   29.5032  -37.2090   -3.1205 C   0  0  0  0  0  0  0  0  0  0  0  0
   30.2107  -36.2798   -2.6970 O   0  0  0  0  0  0  0  0  0  0  0  0
   26.0397  -34.8683   -4.4170 C   0  0  0  0  0  0  0  0  0  0  0  0
   26.4318  -33.6660   -4.2709 O   0  0  0  0  0  0  0  0  0  0  0  0
   29.9698  -38.4976   -3.1369 O   0  0  0  0  0  0  0  0  0  0  0  0
   21.8548  -32.3389   -2.5719 C   0  0  0  0  0  0  0  0  0  0  0  0
   22.0664  -33.6477   -1.8056 C   0  0  1  0  0  0  0  0  0  0  0  0
   20.6928  -34.1993   -1.4044 C   0  0  0  0  0  0  0  0  0  0  0  0
   22.7933  -34.6195   -2.6808 C   0  0  0  0  0  0  0  0  0  0  0  0
   24.2504  -34.3173   -2.7672 C   0  0  2  0  0  0  0  0  0  0  0  0
   24.9149  -35.2622   -3.6665 N   0  0  0  0  0  0  0  0  0  0  0  0
   24.8811  -34.3798   -1.4503 C   0  0  0  0  0  0  0  0  0  0  0  0
   25.1145  -33.2591   -0.6649 O   0  0  0  0  0  0  0  0  0  0  0  0
   25.2359  -35.5328   -1.0074 O   0  0  0  0  0  0  0  0  0  0  0  0
  2  1  1  6
  2  3  1  0
  4  2  1  0
  4  5  1  6
  6  4  1  0
  6  7  2  0
  8  6  1  0
  9  8  1  0
  9 10  1  1
 11 10  1  0
 12 11  1  0
 13 12  2  0
 14  9  1  0
 15 14  2  0
 16 12  1  0
 18 17  1  6
 18 20  1  0
 19 18  1  0
 21 20  1  1
 21 23  1  0
 21 22  1  0
 22 14  1  0
 23 24  1  0
 25 23  2  0
M  END
$$$$
