VEL.pdb
     RDKit          3D

 25 24  0  0  1  0  0  0  0  0999 V2000
   34.4902  -34.2726   -5.7994 C   0  0  0  0  0  0  0  0  0  0  0  0
   33.0850  -34.7351   -5.6113 C   0  0  2  0  0  0  0  0  0  0  0  0
   32.5954  -34.1541   -4.2854 C   0  0  0  0  0  0  0  0  0  0  0  0
   32.9099  -36.2096   -5.5429 C   0  0  2  0  0  0  0  0  0  0  0  0
   33.0968  -36.7876   -6.8389 N   0  0  0  0  0  0  0  0  0  0  0  0
   31.5818  -36.6178   -5.0170 C   0  0  0  0  0  0  0  0  0  0  0  0
   30.5583  -36.6850   -5.7305 O   0  0  0  0  0  0  0  0  0  0  0  0
   31.4824  -36.9403   -3.6557 N   0  0  0  0  0  0  0  0  0  0  0  0
   30.2288  -37.3586   -2.9975 C   0  0  1  0  0  0  0  0  0  0  0  0
   30.5903  -38.1698   -1.7871 C   0  0  0  0  0  0  0  0  0  0  0  0
   29.3983  -38.6658   -1.0274 C   0  0  0  0  0  0  0  0  0  0  0  0
   29.1360  -40.1014   -1.3007 C   0  0  0  0  0  0  0  0  0  0  0  0
   27.9666  -40.4817   -1.4771 O   0  0  0  0  0  0  0  0  0  0  0  0
   29.3825  -36.1913   -2.7091 C   0  0  0  0  0  0  0  0  0  0  0  0
   29.9568  -35.1875   -2.1770 O   0  0  0  0  0  0  0  0  0  0  0  0
   30.1799  -40.9877   -1.3553 O   0  0  0  0  0  0  0  0  0  0  0  0
   26.4810  -32.1014   -3.5371 C   0  0  0  0  0  0  0  0  0  0  0  0
   25.5108  -33.2799   -3.4164 C   0  0  1  0  0  0  0  0  0  0  0  0
   24.3811  -33.0810   -4.4344 C   0  0  0  0  0  0  0  0  0  0  0  0
   26.2474  -34.5545   -3.6839 C   0  0  0  0  0  0  0  0  0  0  0  0
   27.2960  -34.8235   -2.6592 C   0  0  2  0  0  0  0  0  0  0  0  0
   28.0036  -36.0674   -2.9677 N   0  0  0  0  0  0  0  0  0  0  0  0
   26.7146  -34.9181   -1.3217 C   0  0  0  0  0  0  0  0  0  0  0  0
   26.6858  -33.8561   -0.4281 O   0  0  0  0  0  0  0  0  0  0  0  0
   26.2101  -36.0445   -0.9635 O   0  0  0  0  0  0  0  0  0  0  0  0
  2  1  1  1
  2  3  1  0
  4  2  1  0
  4  5  1  6
  6  4  1  0
  6  7  2  0
  8  6  1  0
  9  8  1  0
  9 10  1  1
 11 10  1  0
 12 11  1  0
 13 12  2  0
 14  9  1  0
 15 14  2  0
 16 12  1  0
 18 17  1  6
 18 20  1  0
 19 18  1  0
 21 20  1  6
 21 23  1  0
 21 22  1  0
 22 14  1  0
 23 24  1  0
 25 23  2  0
M  END
$$$$
