VEL.pdb
     RDKit          3D

 25 24  0  0  1  0  0  0  0  0999 V2000
   21.2166  -21.9580  -12.8349 C   0  0  0  0  0  0  0  0  0  0  0  0
   20.7838  -20.8000  -12.0008 C   0  0  2  0  0  0  0  0  0  0  0  0
   19.9082  -19.9130  -12.8850 C   0  0  0  0  0  0  0  0  0  0  0  0
   21.8871  -19.9539  -11.4751 C   0  0  2  0  0  0  0  0  0  0  0  0
   22.5775  -19.3187  -12.5561 N   0  0  0  0  0  0  0  0  0  0  0  0
   22.8658  -20.7117  -10.6535 C   0  0  0  0  0  0  0  0  0  0  0  0
   22.5260  -21.5370   -9.7790 O   0  0  0  0  0  0  0  0  0  0  0  0
   24.2313  -20.4830  -10.8768 N   0  0  0  0  0  0  0  0  0  0  0  0
   25.3127  -21.2121  -10.1849 C   0  0  1  0  0  0  0  0  0  0  0  0
   26.2884  -21.6862  -11.2227 C   0  0  0  0  0  0  0  0  0  0  0  0
   26.5043  -20.6996  -12.3291 C   0  0  0  0  0  0  0  0  0  0  0  0
   27.7883  -20.9426  -13.0338 C   0  0  0  0  0  0  0  0  0  0  0  0
   28.5290  -21.8615  -12.6460 O   0  0  0  0  0  0  0  0  0  0  0  0
   25.9104  -20.3747   -9.1346 C   0  0  0  0  0  0  0  0  0  0  0  0
   25.7622  -19.1160   -9.2548 O   0  0  0  0  0  0  0  0  0  0  0  0
   28.1419  -20.1557  -14.0988 O   0  0  0  0  0  0  0  0  0  0  0  0
   28.2274  -20.1014   -3.4991 C   0  0  0  0  0  0  0  0  0  0  0  0
   27.7790  -19.3327   -4.7452 C   0  0  1  0  0  0  0  0  0  0  0  0
   29.0169  -18.7014   -5.3941 C   0  0  0  0  0  0  0  0  0  0  0  0
   27.1072  -20.2767   -5.6918 C   0  0  0  0  0  0  0  0  0  0  0  0
   27.2844  -19.8676   -7.1142 C   0  0  2  0  0  0  0  0  0  0  0  0
   26.6238  -20.8225   -8.0058 N   0  0  0  0  0  0  0  0  0  0  0  0
   28.7003  -19.7796   -7.4653 C   0  0  0  0  0  0  0  0  0  0  0  0
   29.4279  -18.5990   -7.4010 O   0  0  0  0  0  0  0  0  0  0  0  0
   29.2914  -20.8525   -7.8540 O   0  0  0  0  0  0  0  0  0  0  0  0
  2  1  1  6
  2  3  1  0
  4  2  1  0
  4  5  1  6
  6  4  1  0
  6  7  2  0
  8  6  1  0
  9  8  1  0
  9 10  1  6
 11 10  1  0
 12 11  1  0
 13 12  2  0
 14  9  1  0
 15 14  2  0
 16 12  1  0
 18 17  1  1
 18 20  1  0
 19 18  1  0
 21 20  1  1
 21 23  1  0
 21 22  1  0
 22 14  1  0
 23 24  1  0
 25 23  2  0
M  END
$$$$
