VEL.pdb
     RDKit          3D

 25 24  0  0  1  0  0  0  0  0999 V2000
   20.7960  -20.5247  -17.2076 C   0  0  0  0  0  0  0  0  0  0  0  0
   20.2393  -19.7764  -16.0439 C   0  0  2  0  0  0  0  0  0  0  0  0
   19.2994  -18.7100  -16.6048 C   0  0  0  0  0  0  0  0  0  0  0  0
   21.2469  -19.0823  -15.1998 C   0  0  2  0  0  0  0  0  0  0  0  0
   21.7505  -17.9296  -15.8827 N   0  0  0  0  0  0  0  0  0  0  0  0
   22.3867  -19.9532  -14.8131 C   0  0  0  0  0  0  0  0  0  0  0  0
   22.2535  -20.9753  -14.1067 O   0  0  0  0  0  0  0  0  0  0  0  0
   23.6671  -19.6035  -15.2661 N   0  0  0  0  0  0  0  0  0  0  0  0
   24.8904  -20.3663  -14.9480 C   0  0  1  0  0  0  0  0  0  0  0  0
   25.8709  -20.1547  -16.0650 C   0  0  0  0  0  0  0  0  0  0  0  0
   27.1949  -20.8132  -15.8252 C   0  0  0  0  0  0  0  0  0  0  0  0
   27.2716  -22.1406  -16.4859 C   0  0  0  0  0  0  0  0  0  0  0  0
   26.3790  -22.4742  -17.2829 O   0  0  0  0  0  0  0  0  0  0  0  0
   25.4007  -19.9939  -13.6204 C   0  0  0  0  0  0  0  0  0  0  0  0
   25.3760  -18.7555  -13.3262 O   0  0  0  0  0  0  0  0  0  0  0  0
   28.3198  -22.9800  -16.2118 O   0  0  0  0  0  0  0  0  0  0  0  0
   25.8465  -21.0514   -7.7718 C   0  0  0  0  0  0  0  0  0  0  0  0
   26.1353  -20.1266   -8.9577 C   0  0  1  0  0  0  0  0  0  0  0  0
   27.6414  -19.8386   -8.9893 C   0  0  0  0  0  0  0  0  0  0  0  0
   25.6965  -20.7948  -10.2224 C   0  0  0  0  0  0  0  0  0  0  0  0
   26.4881  -20.3419  -11.4015 C   0  0  2  0  0  0  0  0  0  0  0  0
   25.9072  -20.8672  -12.6383 N   0  0  0  0  0  0  0  0  0  0  0  0
   27.8802  -20.7752  -11.3002 C   0  0  0  0  0  0  0  0  0  0  0  0
   28.9464  -19.8918  -11.2002 O   0  0  0  0  0  0  0  0  0  0  0  0
   28.1191  -22.0380  -11.3075 O   0  0  0  0  0  0  0  0  0  0  0  0
  2  1  1  6
  2  3  1  0
  4  2  1  0
  4  5  1  6
  6  4  1  0
  6  7  2  0
  8  6  1  0
  9  8  1  0
  9 10  1  6
 11 10  1  0
 12 11  1  0
 13 12  2  0
 14  9  1  0
 15 14  2  0
 16 12  1  0
 18 17  1  1
 18 20  1  0
 19 18  1  0
 21 20  1  1
 21 23  1  0
 21 22  1  0
 22 14  1  0
 23 24  1  0
 25 23  2  0
M  END
$$$$
