VEL.pdb
     RDKit          3D

 25 24  0  0  1  0  0  0  0  0999 V2000
   29.5376  -21.1307  -13.0488 C   0  0  0  0  0  0  0  0  0  0  0  0
   28.9629  -20.3705  -14.1959 C   0  0  2  0  0  0  0  0  0  0  0  0
   29.3510  -18.9052  -14.0021 C   0  0  0  0  0  0  0  0  0  0  0  0
   27.4820  -20.4273  -14.3118 C   0  0  2  0  0  0  0  0  0  0  0  0
   27.0570  -19.7701  -15.5102 N   0  0  0  0  0  0  0  0  0  0  0  0
   26.7802  -19.8209  -13.1512 C   0  0  0  0  0  0  0  0  0  0  0  0
   26.7670  -18.5911  -12.9303 O   0  0  0  0  0  0  0  0  0  0  0  0
   26.1048  -20.6763  -12.2687 N   0  0  0  0  0  0  0  0  0  0  0  0
   25.2975  -20.2089  -11.1243 C   0  0  1  0  0  0  0  0  0  0  0  0
   23.8825  -20.6612  -11.3411 C   0  0  0  0  0  0  0  0  0  0  0  0
   22.9614  -20.2866  -10.2207 C   0  0  0  0  0  0  0  0  0  0  0  0
   21.5729  -20.7440  -10.4800 C   0  0  0  0  0  0  0  0  0  0  0  0
   20.6855  -20.4914   -9.6481 O   0  0  0  0  0  0  0  0  0  0  0  0
   25.8872  -20.6635   -9.8564 C   0  0  0  0  0  0  0  0  0  0  0  0
   26.1362  -21.9079   -9.7565 O   0  0  0  0  0  0  0  0  0  0  0  0
   21.2853  -21.4361  -11.6274 O   0  0  0  0  0  0  0  0  0  0  0  0
   29.1891  -20.9106   -5.7307 C   0  0  0  0  0  0  0  0  0  0  0  0
   28.0124  -19.9749   -5.4396 C   0  0  1  0  0  0  0  0  0  0  0  0
   28.5082  -18.8456   -4.5281 C   0  0  0  0  0  0  0  0  0  0  0  0
   27.4891  -19.4249   -6.7288 C   0  0  0  0  0  0  0  0  0  0  0  0
   26.7828  -20.4599   -7.5362 C   0  0  2  0  0  0  0  0  0  0  0  0
   26.2114  -19.8624   -8.7443 N   0  0  0  0  0  0  0  0  0  0  0  0
   25.7184  -21.0964   -6.7630 C   0  0  0  0  0  0  0  0  0  0  0  0
   24.3763  -21.0195   -7.1096 O   0  0  0  0  0  0  0  0  0  0  0  0
   26.0508  -21.7551   -5.7107 O   0  0  0  0  0  0  0  0  0  0  0  0
  2  1  1  1
  2  3  1  0
  4  2  1  0
  4  5  1  6
  6  4  1  0
  6  7  2  0
  8  6  1  0
  9  8  1  0
  9 10  1  6
 11 10  1  0
 12 11  1  0
 13 12  2  0
 14  9  1  0
 15 14  2  0
 16 12  1  0
 18 17  1  6
 18 20  1  0
 19 18  1  0
 21 20  1  1
 21 23  1  0
 21 22  1  0
 22 14  1  0
 23 24  1  0
 25 23  2  0
M  END
$$$$
