VEL.pdb
     RDKit          3D

 25 24  0  0  1  0  0  0  0  0999 V2000
   18.6604  -16.2471  -18.3526 C   0  0  0  0  0  0  0  0  0  0  0  0
   19.4156  -15.0004  -18.6678 C   0  0  2  0  0  0  0  0  0  0  0  0
   20.8977  -15.3093  -18.4598 C   0  0  0  0  0  0  0  0  0  0  0  0
   19.0815  -13.8283  -17.8168 C   0  0  2  0  0  0  0  0  0  0  0  0
   17.7019  -13.4820  -17.9764 N   0  0  0  0  0  0  0  0  0  0  0  0
   19.9176  -12.6355  -18.1086 C   0  0  0  0  0  0  0  0  0  0  0  0
   21.1657  -12.6477  -18.0485 O   0  0  0  0  0  0  0  0  0  0  0  0
   19.2670  -11.4458  -18.4667 N   0  0  0  0  0  0  0  0  0  0  0  0
   19.9617  -10.1628  -18.6930 C   0  0  1  0  0  0  0  0  0  0  0  0
   19.1880   -9.3936  -19.7242 C   0  0  0  0  0  0  0  0  0  0  0  0
   19.5353   -9.7721  -21.1313 C   0  0  0  0  0  0  0  0  0  0  0  0
   18.7757   -8.9627  -22.1173 C   0  0  0  0  0  0  0  0  0  0  0  0
   18.2873   -9.5215  -23.1136 O   0  0  0  0  0  0  0  0  0  0  0  0
   20.1495   -9.4462  -17.4230 C   0  0  0  0  0  0  0  0  0  0  0  0
   19.1639   -9.4449  -16.6172 O   0  0  0  0  0  0  0  0  0  0  0  0
   18.6215   -7.6152  -21.9202 O   0  0  0  0  0  0  0  0  0  0  0  0
   23.5856  -10.3617  -13.4862 C   0  0  0  0  0  0  0  0  0  0  0  0
   22.3160   -9.9284  -14.2247 C   0  0  1  0  0  0  0  0  0  0  0  0
   21.1917   -9.7627  -13.1949 C   0  0  0  0  0  0  0  0  0  0  0  0
   22.5762   -8.6391  -14.9379 C   0  0  0  0  0  0  0  0  0  0  0  0
   21.3759   -8.1530  -15.6764 C   0  0  2  0  0  0  0  0  0  0  0  0
   21.3101   -8.7674  -17.0035 N   0  0  0  0  0  0  0  0  0  0  0  0
   21.3972   -6.6987  -15.8185 C   0  0  0  0  0  0  0  0  0  0  0  0
   21.1383   -5.8280  -14.7687 O   0  0  0  0  0  0  0  0  0  0  0  0
   21.6672   -6.2114  -16.9767 O   0  0  0  0  0  0  0  0  0  0  0  0
  2  1  1  1
  2  3  1  0
  4  2  1  0
  4  5  1  6
  6  4  1  0
  6  7  2  0
  8  6  1  0
  9  8  1  0
  9 10  1  6
 11 10  1  0
 12 11  1  0
 13 12  2  0
 14  9  1  0
 15 14  2  0
 16 12  1  0
 18 17  1  1
 18 20  1  0
 19 18  1  0
 21 20  1  6
 21 23  1  0
 21 22  1  0
 22 14  1  0
 23 24  1  0
 25 23  2  0
M  END
$$$$
