VEL.pdb
     RDKit          3D

 25 24  0  0  1  0  0  0  0  0999 V2000
   15.2482  -12.1876  -19.1868 C   0  0  0  0  0  0  0  0  0  0  0  0
   15.9424  -13.1030  -18.2361 C   0  0  2  0  0  0  0  0  0  0  0  0
   14.9437  -14.1951  -17.8550 C   0  0  0  0  0  0  0  0  0  0  0  0
   16.4097  -12.4678  -16.9760 C   0  0  2  0  0  0  0  0  0  0  0  0
   15.2932  -12.1738  -16.1301 N   0  0  0  0  0  0  0  0  0  0  0  0
   17.1881  -11.2227  -17.2016 C   0  0  0  0  0  0  0  0  0  0  0  0
   18.2434  -11.1912  -17.8700 O   0  0  0  0  0  0  0  0  0  0  0  0
   16.7086  -10.0333  -16.6339 N   0  0  0  0  0  0  0  0  0  0  0  0
   17.4175   -8.7404  -16.7087 C   0  0  1  0  0  0  0  0  0  0  0  0
   16.4219   -7.6505  -16.4352 C   0  0  0  0  0  0  0  0  0  0  0  0
   17.0303   -6.2818  -16.4163 C   0  0  0  0  0  0  0  0  0  0  0  0
   16.0024   -5.2307  -16.2091 C   0  0  0  0  0  0  0  0  0  0  0  0
   15.4242   -4.7445  -17.1953 O   0  0  0  0  0  0  0  0  0  0  0  0
   18.5786   -8.7351  -15.8068 C   0  0  0  0  0  0  0  0  0  0  0  0
   18.4314   -9.3155  -14.6833 O   0  0  0  0  0  0  0  0  0  0  0  0
   15.7031   -4.8095  -14.9397 O   0  0  0  0  0  0  0  0  0  0  0  0
   22.3264  -10.1103  -13.0628 C   0  0  0  0  0  0  0  0  0  0  0  0
   22.8241   -9.8280  -14.4832 C   0  0  1  0  0  0  0  0  0  0  0  0
   23.6688  -11.0221  -14.9446 C   0  0  0  0  0  0  0  0  0  0  0  0
   21.6487   -9.6290  -15.3872 C   0  0  0  0  0  0  0  0  0  0  0  0
   20.9452   -8.3423  -15.1197 C   0  0  2  0  0  0  0  0  0  0  0  0
   19.8390   -8.1604  -16.0612 N   0  0  0  0  0  0  0  0  0  0  0  0
   21.8610   -7.2084  -15.2263 C   0  0  0  0  0  0  0  0  0  0  0  0
   21.7372   -6.2190  -16.1923 O   0  0  0  0  0  0  0  0  0  0  0  0
   22.8266   -7.1336  -14.3815 O   0  0  0  0  0  0  0  0  0  0  0  0
  2  1  1  6
  2  3  1  0
  4  2  1  0
  4  5  1  1
  6  4  1  0
  6  7  2  0
  8  6  1  0
  9  8  1  0
  9 10  1  1
 11 10  1  0
 12 11  1  0
 13 12  2  0
 14  9  1  0
 15 14  2  0
 16 12  1  0
 18 17  1  1
 18 20  1  0
 19 18  1  0
 21 20  1  6
 21 23  1  0
 21 22  1  0
 22 14  1  0
 23 24  1  0
 25 23  2  0
M  END
$$$$
