VEL.pdb
     RDKit          3D

 25 24  0  0  1  0  0  0  0  0999 V2000
   20.2369  -11.7484  -22.5233 C   0  0  0  0  0  0  0  0  0  0  0  0
   19.7629  -10.9345  -21.3670 C   0  0  2  0  0  0  0  0  0  0  0  0
   19.1988   -9.6332  -21.9360 C   0  0  0  0  0  0  0  0  0  0  0  0
   20.8125  -10.5705  -20.3793 C   0  0  2  0  0  0  0  0  0  0  0  0
   21.3873  -11.7533  -19.8142 N   0  0  0  0  0  0  0  0  0  0  0  0
   20.3090   -9.7044  -19.2823 C   0  0  0  0  0  0  0  0  0  0  0  0
   19.7757   -8.5923  -19.4831 O   0  0  0  0  0  0  0  0  0  0  0  0
   20.4434  -10.1645  -17.9643 N   0  0  0  0  0  0  0  0  0  0  0  0
   19.9178   -9.4495  -16.7845 C   0  0  1  0  0  0  0  0  0  0  0  0
   19.4360  -10.4745  -15.7991 C   0  0  0  0  0  0  0  0  0  0  0  0
   18.0831  -11.0260  -16.1300 C   0  0  0  0  0  0  0  0  0  0  0  0
   17.0357  -10.4768  -15.2325 C   0  0  0  0  0  0  0  0  0  0  0  0
   17.3402  -10.1501  -14.0732 O   0  0  0  0  0  0  0  0  0  0  0  0
   20.9285   -8.5266  -16.2473 C   0  0  0  0  0  0  0  0  0  0  0  0
   22.1279   -8.9520  -16.2110 O   0  0  0  0  0  0  0  0  0  0  0  0
   15.7509  -10.3362  -15.6886 O   0  0  0  0  0  0  0  0  0  0  0  0
   23.0072   -3.3961  -15.4595 C   0  0  0  0  0  0  0  0  0  0  0  0
   23.4424   -4.6654  -16.1973 C   0  0  1  0  0  0  0  0  0  0  0  0
   24.4028   -5.4451  -15.2908 C   0  0  0  0  0  0  0  0  0  0  0  0
   22.2342   -5.4865  -16.5209 C   0  0  0  0  0  0  0  0  0  0  0  0
   21.8317   -6.3656  -15.3863 C   0  0  2  0  0  0  0  0  0  0  0  0
   20.7071   -7.2181  -15.7756 N   0  0  0  0  0  0  0  0  0  0  0  0
   21.4561   -5.5765  -14.2150 C   0  0  0  0  0  0  0  0  0  0  0  0
   22.3694   -5.1502  -13.2604 O   0  0  0  0  0  0  0  0  0  0  0  0
   20.2167   -5.2694  -14.0689 O   0  0  0  0  0  0  0  0  0  0  0  0
  2  1  1  6
  2  3  1  0
  4  2  1  0
  4  5  1  1
  6  4  1  0
  6  7  2  0
  8  6  1  0
  9  8  1  0
  9 10  1  1
 11 10  1  0
 12 11  1  0
 13 12  2  0
 14  9  1  0
 15 14  2  0
 16 12  1  0
 18 17  1  1
 18 20  1  0
 19 18  1  0
 21 20  1  6
 21 23  1  0
 21 22  1  0
 22 14  1  0
 23 24  1  0
 25 23  2  0
M  END
$$$$
