VEL.pdb
     RDKit          3D

 25 24  0  0  1  0  0  0  0  0999 V2000
   21.7940  -21.9924  -13.6195 C   0  0  0  0  0  0  0  0  0  0  0  0
   21.1504  -21.0440  -12.6654 C   0  0  2  0  0  0  0  0  0  0  0  0
   20.1670  -20.1960  -13.4710 C   0  0  0  0  0  0  0  0  0  0  0  0
   22.0820  -20.1122  -11.9773 C   0  0  2  0  0  0  0  0  0  0  0  0
   22.6651  -19.2113  -12.9244 N   0  0  0  0  0  0  0  0  0  0  0  0
   23.1670  -20.8083  -11.2387 C   0  0  0  0  0  0  0  0  0  0  0  0
   22.9513  -21.7185  -10.4103 O   0  0  0  0  0  0  0  0  0  0  0  0
   24.4906  -20.4184  -11.4894 N   0  0  0  0  0  0  0  0  0  0  0  0
   25.6671  -21.0336  -10.8435 C   0  0  1  0  0  0  0  0  0  0  0  0
   26.7908  -21.0396  -11.8389 C   0  0  0  0  0  0  0  0  0  0  0  0
   26.5086  -21.8781  -13.0477 C   0  0  0  0  0  0  0  0  0  0  0  0
   27.6520  -21.8724  -13.9947 C   0  0  0  0  0  0  0  0  0  0  0  0
   27.5619  -22.5073  -15.0588 O   0  0  0  0  0  0  0  0  0  0  0  0
   25.9830  -20.3455   -9.5832 C   0  0  0  0  0  0  0  0  0  0  0  0
   25.6383  -19.1229   -9.4984 O   0  0  0  0  0  0  0  0  0  0  0  0
   28.7889  -21.1711  -13.6879 O   0  0  0  0  0  0  0  0  0  0  0  0
   27.9905  -21.0519   -3.7622 C   0  0  0  0  0  0  0  0  0  0  0  0
   27.6930  -20.1134   -4.9350 C   0  0  1  0  0  0  0  0  0  0  0  0
   28.9605  -19.3054   -5.2397 C   0  0  0  0  0  0  0  0  0  0  0  0
   27.2824  -20.9242   -6.1236 C   0  0  0  0  0  0  0  0  0  0  0  0
   26.9484  -20.0699   -7.2986 C   0  0  2  0  0  0  0  0  0  0  0  0
   26.6212  -20.9021   -8.4577 N   0  0  0  0  0  0  0  0  0  0  0  0
   28.0593  -19.1835   -7.6392 C   0  0  0  0  0  0  0  0  0  0  0  0
   28.1504  -17.8722   -7.1928 O   0  0  0  0  0  0  0  0  0  0  0  0
   28.9913  -19.6491   -8.3916 O   0  0  0  0  0  0  0  0  0  0  0  0
  2  1  1  6
  2  3  1  0
  4  2  1  0
  4  5  1  6
  6  4  1  0
  6  7  2  0
  8  6  1  0
  9  8  1  0
  9 10  1  6
 11 10  1  0
 12 11  1  0
 13 12  2  0
 14  9  1  0
 15 14  2  0
 16 12  1  0
 18 17  1  1
 18 20  1  0
 19 18  1  0
 21 20  1  1
 21 23  1  0
 21 22  1  0
 22 14  1  0
 23 24  1  0
 25 23  2  0
M  END
$$$$
