VEL.pdb
     RDKit          3D

 25 24  0  0  1  0  0  0  0  0999 V2000
   15.7250  -13.7093  -18.6766 C   0  0  0  0  0  0  0  0  0  0  0  0
   16.5231  -12.7552  -17.8541 C   0  0  2  0  0  0  0  0  0  0  0  0
   16.4531  -11.3963  -18.5497 C   0  0  0  0  0  0  0  0  0  0  0  0
   17.9601  -13.1033  -17.7008 C   0  0  2  0  0  0  0  0  0  0  0  0
   18.0936  -14.3407  -16.9939 N   0  0  0  0  0  0  0  0  0  0  0  0
   18.7445  -12.0560  -16.9973 C   0  0  0  0  0  0  0  0  0  0  0  0
   18.6289  -11.8248  -15.7748 O   0  0  0  0  0  0  0  0  0  0  0  0
   19.6536  -11.2970  -17.7485 N   0  0  0  0  0  0  0  0  0  0  0  0
   20.5231  -10.2499  -17.1764 C   0  0  1  0  0  0  0  0  0  0  0  0
   21.8193  -10.2603  -17.9337 C   0  0  0  0  0  0  0  0  0  0  0  0
   22.7545   -9.1640  -17.5247 C   0  0  0  0  0  0  0  0  0  0  0  0
   24.0983   -9.3387  -18.1313 C   0  0  0  0  0  0  0  0  0  0  0  0
   24.3025  -10.3038  -18.8864 O   0  0  0  0  0  0  0  0  0  0  0  0
   19.8356   -8.9502  -17.1776 C   0  0  0  0  0  0  0  0  0  0  0  0
   19.1440   -8.6713  -18.2093 O   0  0  0  0  0  0  0  0  0  0  0  0
   25.0945   -8.4391  -17.8543 O   0  0  0  0  0  0  0  0  0  0  0  0
   17.4750   -4.6122  -14.7775 C   0  0  0  0  0  0  0  0  0  0  0  0
   17.0294   -5.5092  -15.9358 C   0  0  1  0  0  0  0  0  0  0  0  0
   17.3500   -4.7915  -17.2527 C   0  0  0  0  0  0  0  0  0  0  0  0
   17.7533   -6.8161  -15.8542 C   0  0  0  0  0  0  0  0  0  0  0  0
   19.1663   -6.7059  -16.3161 C   0  0  2  0  0  0  0  0  0  0  0  0
   19.8580   -7.9856  -16.1516 N   0  0  0  0  0  0  0  0  0  0  0  0
   19.8842   -5.6707  -15.5754 C   0  0  0  0  0  0  0  0  0  0  0  0
   19.9407   -4.3447  -15.9827 O   0  0  0  0  0  0  0  0  0  0  0  0
   20.4921   -6.0150  -14.4967 O   0  0  0  0  0  0  0  0  0  0  0  0
  2  1  1  6
  2  3  1  0
  4  2  1  0
  4  5  1  1
  6  4  1  0
  6  7  2  0
  8  6  1  0
  9  8  1  0
  9 10  1  6
 11 10  1  0
 12 11  1  0
 13 12  2  0
 14  9  1  0
 15 14  2  0
 16 12  1  0
 18 17  1  1
 18 20  1  0
 19 18  1  0
 21 20  1  1
 21 23  1  0
 21 22  1  0
 22 14  1  0
 23 24  1  0
 25 23  2  0
M  END
$$$$
