VEL.pdb
     RDKit          3D

 25 24  0  0  1  0  0  0  0  0999 V2000
   16.7435  -13.1203  -17.2303 C   0  0  0  0  0  0  0  0  0  0  0  0
   18.1532  -13.3596  -17.6539 C   0  0  2  0  0  0  0  0  0  0  0  0
   18.4884  -14.8076  -17.2990 C   0  0  0  0  0  0  0  0  0  0  0  0
   19.1657  -12.4938  -16.9944 C   0  0  2  0  0  0  0  0  0  0  0  0
   19.1576  -12.7170  -15.5806 N   0  0  0  0  0  0  0  0  0  0  0  0
   18.9594  -11.0464  -17.2579 C   0  0  0  0  0  0  0  0  0  0  0  0
   19.0302  -10.5454  -18.4004 O   0  0  0  0  0  0  0  0  0  0  0  0
   18.6728  -10.2120  -16.1676 N   0  0  0  0  0  0  0  0  0  0  0  0
   18.5499   -8.7439  -16.2637 C   0  0  1  0  0  0  0  0  0  0  0  0
   17.3019   -8.3356  -15.5360 C   0  0  0  0  0  0  0  0  0  0  0  0
   17.0596   -6.8575  -15.5563 C   0  0  0  0  0  0  0  0  0  0  0  0
   15.7902   -6.5034  -14.8725 C   0  0  0  0  0  0  0  0  0  0  0  0
   15.6692   -5.3769  -14.3629 O   0  0  0  0  0  0  0  0  0  0  0  0
   19.7729   -8.0902  -15.7749 C   0  0  0  0  0  0  0  0  0  0  0  0
   20.2991   -8.5774  -14.7230 O   0  0  0  0  0  0  0  0  0  0  0  0
   14.7705   -7.4170  -14.8103 O   0  0  0  0  0  0  0  0  0  0  0  0
   24.7799   -6.4156  -16.2882 C   0  0  0  0  0  0  0  0  0  0  0  0
   23.7744   -5.2616  -16.3339 C   0  0  1  0  0  0  0  0  0  0  0  0
   24.3354   -4.1689  -17.2523 C   0  0  0  0  0  0  0  0  0  0  0  0
   22.4651   -5.7685  -16.8512 C   0  0  0  0  0  0  0  0  0  0  0  0
   21.6891   -6.4921  -15.8041 C   0  0  2  0  0  0  0  0  0  0  0  0
   20.4256   -6.9852  -16.3550 N   0  0  0  0  0  0  0  0  0  0  0  0
   21.4114   -5.6258  -14.6603 C   0  0  0  0  0  0  0  0  0  0  0  0
   22.1672   -5.6377  -13.4959 O   0  0  0  0  0  0  0  0  0  0  0  0
   20.4149   -4.8186  -14.7451 O   0  0  0  0  0  0  0  0  0  0  0  0
  2  1  1  1
  2  3  1  0
  4  2  1  0
  4  5  1  1
  6  4  1  0
  6  7  2  0
  8  6  1  0
  9  8  1  0
  9 10  1  1
 11 10  1  0
 12 11  1  0
 13 12  2  0
 14  9  1  0
 15 14  2  0
 16 12  1  0
 18 17  1  6
 18 20  1  0
 19 18  1  0
 21 20  1  6
 21 23  1  0
 21 22  1  0
 22 14  1  0
 23 24  1  0
 25 23  2  0
M  END
$$$$
