VEL.pdb
     RDKit          3D

 25 24  0  0  1  0  0  0  0  0999 V2000
   13.3807  -14.4563  -14.8170 C   0  0  0  0  0  0  0  0  0  0  0  0
   14.1724  -13.5194  -13.9688 C   0  0  2  0  0  0  0  0  0  0  0  0
   13.4395  -12.1784  -13.9777 C   0  0  0  0  0  0  0  0  0  0  0  0
   15.5625  -13.2700  -14.4327 C   0  0  2  0  0  0  0  0  0  0  0  0
   16.3221  -14.4822  -14.3836 N   0  0  0  0  0  0  0  0  0  0  0  0
   16.2647  -12.2255  -13.6433 C   0  0  0  0  0  0  0  0  0  0  0  0
   16.6954  -12.4208  -12.4867 O   0  0  0  0  0  0  0  0  0  0  0  0
   16.4472  -10.9657  -14.2318 N   0  0  0  0  0  0  0  0  0  0  0  0
   17.1154   -9.8324  -13.5617 C   0  0  1  0  0  0  0  0  0  0  0  0
   17.8067   -9.0151  -14.6143 C   0  0  0  0  0  0  0  0  0  0  0  0
   18.5340   -7.8280  -14.0614 C   0  0  0  0  0  0  0  0  0  0  0  0
   19.3323   -7.1413  -15.1081 C   0  0  0  0  0  0  0  0  0  0  0  0
   19.4423   -7.6655  -16.2290 O   0  0  0  0  0  0  0  0  0  0  0  0
   16.1544   -9.0752  -12.7463 C   0  0  0  0  0  0  0  0  0  0  0  0
   15.0791   -8.7113  -13.3224 O   0  0  0  0  0  0  0  0  0  0  0  0
   19.9365   -5.9431  -14.8294 O   0  0  0  0  0  0  0  0  0  0  0  0
   13.0879   -7.6145   -8.6390 C   0  0  0  0  0  0  0  0  0  0  0  0
   14.4893   -7.0015   -8.5690 C   0  0  1  0  0  0  0  0  0  0  0  0
   14.8691   -6.8333   -7.0926 C   0  0  0  0  0  0  0  0  0  0  0  0
   15.4578   -7.9039   -9.2663 C   0  0  0  0  0  0  0  0  0  0  0  0
   15.3321   -7.8248  -10.7495 C   0  0  2  0  0  0  0  0  0  0  0  0
   16.2984   -8.7175  -11.3917 N   0  0  0  0  0  0  0  0  0  0  0  0
   15.5464   -6.4596  -11.2250 C   0  0  0  0  0  0  0  0  0  0  0  0
   16.8066   -5.9169  -11.4365 O   0  0  0  0  0  0  0  0  0  0  0  0
   14.5114   -5.7327  -11.4532 O   0  0  0  0  0  0  0  0  0  0  0  0
  2  1  1  6
  2  3  1  0
  4  2  1  0
  4  5  1  1
  6  4  1  0
  6  7  2  0
  8  6  1  0
  9  8  1  0
  9 10  1  6
 11 10  1  0
 12 11  1  0
 13 12  2  0
 14  9  1  0
 15 14  2  0
 16 12  1  0
 18 17  1  1
 18 20  1  0
 19 18  1  0
 21 20  1  1
 21 23  1  0
 21 22  1  0
 22 14  1  0
 23 24  1  0
 25 23  2  0
M  END
$$$$
