FHN.pdb
     RDKit          3D

 30 31  0  0  1  0  0  0  0  0999 V2000
   25.6593  -23.2586  -18.1793 N   0  0  0  0  0  0  0  0  0  0  0  0
   25.8136  -22.0254  -17.4714 C   0  0  1  0  0  0  0  0  0  0  0  0
   25.1104  -20.9115  -18.2604 C   0  0  0  0  0  0  0  0  0  0  0  0
   25.9636  -20.5417  -19.3992 C   0  0  0  0  0  0  0  0  0  0  0  0
   25.6987  -21.0157  -20.6616 C   0  0  0  0  0  0  0  0  0  0  0  0
   26.5020  -20.6705  -21.7448 C   0  0  0  0  0  0  0  0  0  0  0  0
   27.5815  -19.8411  -21.5554 C   0  0  0  0  0  0  0  0  0  0  0  0
   27.8638  -19.3602  -20.3177 C   0  0  0  0  0  0  0  0  0  0  0  0
   27.0666  -19.7042  -19.2496 C   0  0  0  0  0  0  0  0  0  0  0  0
   25.1249  -22.1005  -16.1647 C   0  0  0  0  0  0  0  0  0  0  0  0
   24.0729  -22.7688  -16.0850 O   0  0  0  0  0  0  0  0  0  0  0  0
   25.6835  -21.4151  -15.0667 N   0  0  0  0  0  0  0  0  0  0  0  0
   25.0256  -21.4936  -13.7390 C   0  0  1  0  0  0  0  0  0  0  0  0
   25.9890  -21.0953  -12.6918 C   0  0  0  0  0  0  0  0  0  0  0  0
   25.4041  -20.9792  -11.3477 C   0  0  0  0  0  0  0  0  0  0  0  0
   24.0532  -21.1637  -11.0099 C   0  0  0  0  0  0  0  0  0  0  0  0
   23.8677  -20.9808   -9.6987 N   0  0  0  0  0  0  0  0  0  0  0  0
   25.0713  -20.6819   -9.1842 C   0  0  0  0  0  0  0  0  0  0  0  0
   25.9825  -20.6821  -10.1690 N   0  0  0  0  0  0  0  0  0  0  0  0
   23.7607  -20.7873  -13.8222 C   0  0  0  0  0  0  0  0  0  0  0  0
   23.8153  -19.5494  -14.1970 O   0  0  0  0  0  0  0  0  0  0  0  0
   21.6062  -19.0397  -16.1680 N   0  0  0  0  0  0  0  0  0  0  0  0
   20.7446  -20.1653  -16.1261 C   0  0  0  0  0  0  0  0  0  0  0  0
   20.2058  -20.5424  -17.1825 O   0  0  0  0  0  0  0  0  0  0  0  0
   20.5030  -20.8596  -14.8592 C   0  0  0  0  0  0  0  0  0  0  0  0
   21.2852  -20.3795  -13.6800 C   0  0  2  0  0  0  0  0  0  0  0  0
   22.4616  -21.2427  -13.5639 N   0  0  0  0  0  0  0  0  0  0  0  0
   20.5688  -20.3744  -12.3992 C   0  0  0  0  0  0  0  0  0  0  0  0
   20.5731  -21.4068  -11.4741 O   0  0  0  0  0  0  0  0  0  0  0  0
   19.8859  -19.3707  -12.0818 O   0  0  0  0  0  0  0  0  0  0  0  0
  2  1  1  6
  2 10  1  0
  3  2  1  0
  3  4  1  0
  4  5  2  0
  4  9  1  0
  5  6  1  0
  6  7  2  0
  8  7  1  0
  9  8  2  0
 10 11  2  0
 12 10  1  0
 12 13  1  0
 13 20  1  0
 13 14  1  1
 14 15  1  0
 15 16  2  0
 15 19  1  0
 16 17  1  0
 17 18  1  0
 19 18  2  0
 20 21  2  0
 22 23  1  0
 23 24  2  0
 25 23  1  0
 26 25  1  6
 26 28  1  0
 27 26  1  0
 27 20  1  0
 28 29  1  0
 30 28  2  0
M  END
$$$$
