FHN.pdb
     RDKit          3D

 30 31  0  0  1  0  0  0  0  0999 V2000
   39.7159  -29.9927  -16.5989 N   0  0  0  0  0  0  0  0  0  0  0  0
   38.9270  -31.1852  -16.5666 C   0  0  1  0  0  0  0  0  0  0  0  0
   38.9015  -31.7219  -15.1282 C   0  0  0  0  0  0  0  0  0  0  0  0
   40.1959  -32.3609  -14.8496 C   0  0  0  0  0  0  0  0  0  0  0  0
   40.3764  -33.7074  -15.0563 C   0  0  0  0  0  0  0  0  0  0  0  0
   41.5988  -34.3197  -14.7945 C   0  0  0  0  0  0  0  0  0  0  0  0
   42.6486  -33.5700  -14.3204 C   0  0  0  0  0  0  0  0  0  0  0  0
   42.4949  -32.2380  -14.1079 C   0  0  0  0  0  0  0  0  0  0  0  0
   41.2843  -31.6369  -14.3682 C   0  0  0  0  0  0  0  0  0  0  0  0
   37.5233  -30.8751  -16.9141 C   0  0  0  0  0  0  0  0  0  0  0  0
   37.1021  -29.7175  -16.7083 O   0  0  0  0  0  0  0  0  0  0  0  0
   36.7215  -31.8974  -17.4612 N   0  0  0  0  0  0  0  0  0  0  0  0
   35.3568  -31.5796  -17.9494 C   0  0  1  0  0  0  0  0  0  0  0  0
   35.4040  -31.3308  -19.4051 C   0  0  0  0  0  0  0  0  0  0  0  0
   34.3077  -30.4900  -19.9086 C   0  0  0  0  0  0  0  0  0  0  0  0
   33.5862  -29.5358  -19.1725 C   0  0  0  0  0  0  0  0  0  0  0  0
   32.6586  -28.9541  -19.9396 N   0  0  0  0  0  0  0  0  0  0  0  0
   32.7672  -29.5139  -21.1551 C   0  0  0  0  0  0  0  0  0  0  0  0
   33.7497  -30.4273  -21.1321 N   0  0  0  0  0  0  0  0  0  0  0  0
   34.4524  -32.5981  -17.4490 C   0  0  0  0  0  0  0  0  0  0  0  0
   34.8702  -33.8217  -17.5130 O   0  0  0  0  0  0  0  0  0  0  0  0
   30.4239  -35.4455  -15.5046 N   0  0  0  0  0  0  0  0  0  0  0  0
   30.2414  -34.0691  -15.2158 C   0  0  0  0  0  0  0  0  0  0  0  0
   29.2535  -33.7284  -14.5401 O   0  0  0  0  0  0  0  0  0  0  0  0
   31.2031  -33.0806  -15.7088 C   0  0  0  0  0  0  0  0  0  0  0  0
   32.3787  -33.6160  -16.4599 C   0  0  2  0  0  0  0  0  0  0  0  0
   33.1755  -32.4656  -16.8888 N   0  0  0  0  0  0  0  0  0  0  0  0
   32.0642  -34.4421  -17.6314 C   0  0  0  0  0  0  0  0  0  0  0  0
   32.1637  -35.8236  -17.6882 O   0  0  0  0  0  0  0  0  0  0  0  0
   31.6705  -33.8874  -18.6858 O   0  0  0  0  0  0  0  0  0  0  0  0
  2  1  1  1
  2 10  1  0
  3  2  1  0
  3  4  1  0
  4  5  2  0
  4  9  1  0
  5  6  1  0
  6  7  2  0
  8  7  1  0
  9  8  2  0
 10 11  2  0
 12 10  1  0
 12 13  1  0
 13 20  1  0
 13 14  1  6
 14 15  1  0
 15 16  2  0
 15 19  1  0
 16 17  1  0
 17 18  1  0
 19 18  2  0
 20 21  2  0
 22 23  1  0
 23 24  2  0
 25 23  1  0
 26 25  1  6
 26 28  1  0
 27 26  1  0
 27 20  1  0
 28 29  1  0
 30 28  2  0
M  END
$$$$
