FHN.pdb
     RDKit          3D

 30 31  0  0  1  0  0  0  0  0999 V2000
   26.1033  -12.6298  -18.1964 N   0  0  0  0  0  0  0  0  0  0  0  0
   25.6064  -11.8180  -17.1288 C   0  0  1  0  0  0  0  0  0  0  0  0
   26.4863  -10.5653  -17.0100 C   0  0  0  0  0  0  0  0  0  0  0  0
   27.8800  -10.9946  -16.8234 C   0  0  0  0  0  0  0  0  0  0  0  0
   28.7846  -10.9208  -17.8552 C   0  0  0  0  0  0  0  0  0  0  0  0
   30.1056  -11.3258  -17.6864 C   0  0  0  0  0  0  0  0  0  0  0  0
   30.5196  -11.8095  -16.4684 C   0  0  0  0  0  0  0  0  0  0  0  0
   29.6446  -11.8924  -15.4338 C   0  0  0  0  0  0  0  0  0  0  0  0
   28.3392  -11.4907  -15.6053 C   0  0  0  0  0  0  0  0  0  0  0  0
   24.2457  -11.3351  -17.4492 C   0  0  0  0  0  0  0  0  0  0  0  0
   23.6038  -11.9196  -18.3469 O   0  0  0  0  0  0  0  0  0  0  0  0
   23.7321  -10.2371  -16.7295 N   0  0  0  0  0  0  0  0  0  0  0  0
   22.2639  -10.0526  -16.6185 C   0  0  1  0  0  0  0  0  0  0  0  0
   21.6505  -11.3018  -16.1222 C   0  0  0  0  0  0  0  0  0  0  0  0
   20.1931  -11.2269  -15.9414 C   0  0  0  0  0  0  0  0  0  0  0  0
   19.3769  -10.1174  -16.2165 C   0  0  0  0  0  0  0  0  0  0  0  0
   18.0992  -10.3931  -15.9363 N   0  0  0  0  0  0  0  0  0  0  0  0
   18.0749  -11.6577  -15.4859 C   0  0  0  0  0  0  0  0  0  0  0  0
   19.3230  -12.1500  -15.4906 N   0  0  0  0  0  0  0  0  0  0  0  0
   22.0199   -8.8226  -15.8882 C   0  0  0  0  0  0  0  0  0  0  0  0
   22.3398   -8.8238  -14.6338 O   0  0  0  0  0  0  0  0  0  0  0  0
   22.8733   -4.2452  -16.3289 N   0  0  0  0  0  0  0  0  0  0  0  0
   21.5226   -4.3152  -16.7554 C   0  0  0  0  0  0  0  0  0  0  0  0
   21.1050   -3.4566  -17.5534 O   0  0  0  0  0  0  0  0  0  0  0  0
   20.6491   -5.3810  -16.2591 C   0  0  0  0  0  0  0  0  0  0  0  0
   21.3046   -6.4536  -15.4511 C   0  0  2  0  0  0  0  0  0  0  0  0
   21.4895   -7.6057  -16.3349 N   0  0  0  0  0  0  0  0  0  0  0  0
   20.5757   -6.8840  -14.2523 C   0  0  0  0  0  0  0  0  0  0  0  0
   20.9991   -6.6953  -12.9458 O   0  0  0  0  0  0  0  0  0  0  0  0
   19.4761   -7.4745  -14.3813 O   0  0  0  0  0  0  0  0  0  0  0  0
  2  1  1  6
  2 10  1  0
  3  2  1  0
  3  4  1  0
  4  5  2  0
  4  9  1  0
  5  6  1  0
  6  7  2  0
  8  7  1  0
  9  8  2  0
 10 11  2  0
 12 10  1  0
 12 13  1  0
 13 20  1  0
 13 14  1  1
 14 15  1  0
 15 16  2  0
 15 19  1  0
 16 17  1  0
 17 18  1  0
 19 18  2  0
 20 21  2  0
 22 23  1  0
 23 24  2  0
 25 23  1  0
 26 25  1  6
 26 28  1  0
 27 26  1  0
 27 20  1  0
 28 29  1  0
 30 28  2  0
M  END
$$$$
