FHN.pdb
     RDKit          3D

 30 31  0  0  1  0  0  0  0  0999 V2000
   26.6057  -15.2524  -18.5673 N   0  0  0  0  0  0  0  0  0  0  0  0
   26.4765  -15.8494  -17.2741 C   0  0  1  0  0  0  0  0  0  0  0  0
   25.6024  -14.9422  -16.3962 C   0  0  0  0  0  0  0  0  0  0  0  0
   26.3508  -13.7079  -16.1173 C   0  0  0  0  0  0  0  0  0  0  0  0
   27.3918  -13.7021  -15.2201 C   0  0  0  0  0  0  0  0  0  0  0  0
   28.1048  -12.5374  -14.9504 C   0  0  0  0  0  0  0  0  0  0  0  0
   27.7670  -11.3684  -15.5893 C   0  0  0  0  0  0  0  0  0  0  0  0
   26.7424  -11.3486  -16.4796 C   0  0  0  0  0  0  0  0  0  0  0  0
   26.0401  -12.5028  -16.7431 C   0  0  0  0  0  0  0  0  0  0  0  0
   25.7561  -17.1368  -17.3790 C   0  0  0  0  0  0  0  0  0  0  0  0
   24.9109  -17.2724  -18.2884 O   0  0  0  0  0  0  0  0  0  0  0  0
   26.0528  -18.1542  -16.4493 N   0  0  0  0  0  0  0  0  0  0  0  0
   25.3654  -19.4654  -16.5499 C   0  0  1  0  0  0  0  0  0  0  0  0
   26.3360  -20.5476  -16.2857 C   0  0  0  0  0  0  0  0  0  0  0  0
   25.7388  -21.8898  -16.2202 C   0  0  0  0  0  0  0  0  0  0  0  0
   24.3755  -22.2007  -16.3524 C   0  0  0  0  0  0  0  0  0  0  0  0
   24.1812  -23.5185  -16.2396 N   0  0  0  0  0  0  0  0  0  0  0  0
   25.3913  -24.0636  -16.0371 C   0  0  0  0  0  0  0  0  0  0  0  0
   26.3153  -23.0908  -16.0262 N   0  0  0  0  0  0  0  0  0  0  0  0
   24.1599  -19.4033  -15.7445 C   0  0  0  0  0  0  0  0  0  0  0  0
   24.2788  -18.8744  -14.5689 O   0  0  0  0  0  0  0  0  0  0  0  0
   19.2668  -19.2812  -13.7794 N   0  0  0  0  0  0  0  0  0  0  0  0
   19.5203  -18.5429  -14.9633 C   0  0  0  0  0  0  0  0  0  0  0  0
   18.6536  -17.7453  -15.3647 O   0  0  0  0  0  0  0  0  0  0  0  0
   20.7799  -18.7255  -15.6882 C   0  0  0  0  0  0  0  0  0  0  0  0
   21.7493  -19.6981  -15.0990 C   0  0  2  0  0  0  0  0  0  0  0  0
   22.8589  -19.8261  -16.0450 N   0  0  0  0  0  0  0  0  0  0  0  0
   21.2147  -21.0333  -14.8069 C   0  0  0  0  0  0  0  0  0  0  0  0
   20.9173  -21.5189  -13.5431 O   0  0  0  0  0  0  0  0  0  0  0  0
   20.9968  -21.8278  -15.7533 O   0  0  0  0  0  0  0  0  0  0  0  0
  2  1  1  6
  2 10  1  0
  3  2  1  0
  3  4  1  0
  4  5  2  0
  4  9  1  0
  5  6  1  0
  6  7  2  0
  8  7  1  0
  9  8  2  0
 10 11  2  0
 12 10  1  0
 12 13  1  0
 13 20  1  0
 13 14  1  1
 14 15  1  0
 15 16  2  0
 15 19  1  0
 16 17  1  0
 17 18  1  0
 19 18  2  0
 20 21  2  0
 22 23  1  0
 23 24  2  0
 25 23  1  0
 26 25  1  6
 26 28  1  0
 27 26  1  0
 27 20  1  0
 28 29  1  0
 30 28  2  0
M  END
$$$$
