FHN.pdb
     RDKit          3D

 30 31  0  0  1  0  0  0  0  0999 V2000
   26.4392  -21.9637  -12.1719 N   0  0  0  0  0  0  0  0  0  0  0  0
   25.7834  -20.9545  -11.3992 C   0  0  1  0  0  0  0  0  0  0  0  0
   26.7738  -19.8104  -11.1385 C   0  0  0  0  0  0  0  0  0  0  0  0
   27.8540  -20.3197  -10.2811 C   0  0  0  0  0  0  0  0  0  0  0  0
   29.0135  -20.8154  -10.8273 C   0  0  0  0  0  0  0  0  0  0  0  0
   30.0404  -21.2998  -10.0222 C   0  0  0  0  0  0  0  0  0  0  0  0
   29.8989  -21.2852   -8.6551 C   0  0  0  0  0  0  0  0  0  0  0  0
   28.7628  -20.8008   -8.0917 C   0  0  0  0  0  0  0  0  0  0  0  0
   27.7499  -20.3228   -8.8919 C   0  0  0  0  0  0  0  0  0  0  0  0
   24.6700  -20.3652  -12.1739 C   0  0  0  0  0  0  0  0  0  0  0  0
   24.0220  -19.4274  -11.6636 O   0  0  0  0  0  0  0  0  0  0  0  0
   24.3872  -20.8864  -13.4529 N   0  0  0  0  0  0  0  0  0  0  0  0
   23.2816  -20.3068  -14.2551 C   0  0  1  0  0  0  0  0  0  0  0  0
   23.7496  -20.0756  -15.6373 C   0  0  0  0  0  0  0  0  0  0  0  0
   22.6990  -19.6235  -16.5615 C   0  0  0  0  0  0  0  0  0  0  0  0
   21.7554  -20.4372  -17.2098 C   0  0  0  0  0  0  0  0  0  0  0  0
   20.9487  -19.6994  -17.9793 N   0  0  0  0  0  0  0  0  0  0  0  0
   21.3532  -18.4267  -17.8405 C   0  0  0  0  0  0  0  0  0  0  0  0
   22.3950  -18.3862  -16.9960 N   0  0  0  0  0  0  0  0  0  0  0  0
   22.1013  -21.1259  -14.0506 C   0  0  0  0  0  0  0  0  0  0  0  0
   22.2985  -22.3986  -13.9196 O   0  0  0  0  0  0  0  0  0  0  0  0
   18.6415  -19.2066  -12.9885 N   0  0  0  0  0  0  0  0  0  0  0  0
   18.5920  -20.2795  -12.0625 C   0  0  0  0  0  0  0  0  0  0  0  0
   18.0711  -20.0821  -10.9497 O   0  0  0  0  0  0  0  0  0  0  0  0
   19.1463  -21.5869  -12.4216 C   0  0  0  0  0  0  0  0  0  0  0  0
   19.6724  -21.7247  -13.8134 C   0  0  2  0  0  0  0  0  0  0  0  0
   20.7547  -20.7507  -13.9626 N   0  0  0  0  0  0  0  0  0  0  0  0
   18.6940  -21.5193  -14.8878 C   0  0  0  0  0  0  0  0  0  0  0  0
   17.6144  -22.3459  -15.1578 O   0  0  0  0  0  0  0  0  0  0  0  0
   18.8126  -20.5252  -15.6442 O   0  0  0  0  0  0  0  0  0  0  0  0
  2  1  1  6
  2 10  1  0
  3  2  1  0
  3  4  1  0
  4  5  2  0
  4  9  1  0
  5  6  1  0
  6  7  2  0
  8  7  1  0
  9  8  2  0
 10 11  2  0
 12 10  1  0
 12 13  1  0
 13 20  1  0
 13 14  1  6
 14 15  1  0
 15 16  2  0
 15 19  1  0
 16 17  1  0
 17 18  1  0
 19 18  2  0
 20 21  2  0
 22 23  1  0
 23 24  2  0
 25 23  1  0
 26 25  1  1
 26 28  1  0
 27 26  1  0
 27 20  1  0
 28 29  1  0
 30 28  2  0
M  END
$$$$
