FHN.pdb
     RDKit          3D

 30 31  0  0  1  0  0  0  0  0999 V2000
   22.4883   -5.3706  -17.9355 N   0  0  0  0  0  0  0  0  0  0  0  0
   22.1578   -6.2548  -16.8609 C   0  0  1  0  0  0  0  0  0  0  0  0
   20.8859   -5.7405  -16.1713 C   0  0  0  0  0  0  0  0  0  0  0  0
   21.2194   -4.5056  -15.4467 C   0  0  0  0  0  0  0  0  0  0  0  0
   21.8543   -4.5524  -14.2288 C   0  0  0  0  0  0  0  0  0  0  0  0
   22.1729   -3.3876  -13.5364 C   0  0  0  0  0  0  0  0  0  0  0  0
   21.8495   -2.1650  -14.0747 C   0  0  0  0  0  0  0  0  0  0  0  0
   21.2220   -2.0928  -15.2763 C   0  0  0  0  0  0  0  0  0  0  0  0
   20.9089   -3.2473  -15.9573 C   0  0  0  0  0  0  0  0  0  0  0  0
   21.8246   -7.5950  -17.3902 C   0  0  0  0  0  0  0  0  0  0  0  0
   21.5281   -7.6996  -18.5989 O   0  0  0  0  0  0  0  0  0  0  0  0
   21.8551   -8.6954  -16.5096 N   0  0  0  0  0  0  0  0  0  0  0  0
   21.5473  -10.0543  -17.0201 C   0  0  1  0  0  0  0  0  0  0  0  0
   22.5763  -11.0007  -16.5420 C   0  0  0  0  0  0  0  0  0  0  0  0
   22.3792  -12.3852  -16.9965 C   0  0  0  0  0  0  0  0  0  0  0  0
   22.4161  -12.8373  -18.3258 C   0  0  0  0  0  0  0  0  0  0  0  0
   22.1950  -14.1546  -18.3803 N   0  0  0  0  0  0  0  0  0  0  0  0
   22.0160  -14.5610  -17.1133 C   0  0  0  0  0  0  0  0  0  0  0  0
   22.1265  -13.5049  -16.2932 N   0  0  0  0  0  0  0  0  0  0  0  0
   20.1545  -10.3387  -16.7283 C   0  0  0  0  0  0  0  0  0  0  0  0
   19.7423  -10.0401  -15.5380 O   0  0  0  0  0  0  0  0  0  0  0  0
   15.4013  -11.9652  -15.7903 N   0  0  0  0  0  0  0  0  0  0  0  0
   16.6350  -12.4072  -15.2483 C   0  0  0  0  0  0  0  0  0  0  0  0
   16.6177  -13.0921  -14.2095 O   0  0  0  0  0  0  0  0  0  0  0  0
   17.8952  -12.0575  -15.9078 C   0  0  0  0  0  0  0  0  0  0  0  0
   17.7972  -11.1351  -17.0793 C   0  0  2  0  0  0  0  0  0  0  0  0
   19.1616  -10.8892  -17.5486 N   0  0  0  0  0  0  0  0  0  0  0  0
   17.1412   -9.8474  -16.8235 C   0  0  0  0  0  0  0  0  0  0  0  0
   16.0858   -9.3261  -17.5556 O   0  0  0  0  0  0  0  0  0  0  0  0
   17.5417   -9.1325  -15.8734 O   0  0  0  0  0  0  0  0  0  0  0  0
  2  1  1  6
  2 10  1  0
  3  2  1  0
  3  4  1  0
  4  5  2  0
  4  9  1  0
  5  6  1  0
  6  7  2  0
  8  7  1  0
  9  8  2  0
 10 11  2  0
 12 10  1  0
 12 13  1  0
 13 20  1  0
 13 14  1  1
 14 15  1  0
 15 16  2  0
 15 19  1  0
 16 17  1  0
 17 18  1  0
 19 18  2  0
 20 21  2  0
 22 23  1  0
 23 24  2  0
 25 23  1  0
 26 25  1  1
 26 28  1  0
 27 26  1  0
 27 20  1  0
 28 29  1  0
 30 28  2  0
M  END
$$$$
