FHN.pdb
     RDKit          3D

 30 31  0  0  1  0  0  0  0  0999 V2000
   26.4247  -20.1557  -18.4938 N   0  0  0  0  0  0  0  0  0  0  0  0
   25.6637  -19.2516  -17.6881 C   0  0  1  0  0  0  0  0  0  0  0  0
   24.5018  -18.7004  -18.5270 C   0  0  0  0  0  0  0  0  0  0  0  0
   25.0514  -17.7705  -19.5243 C   0  0  0  0  0  0  0  0  0  0  0  0
   25.0848  -18.1048  -20.8568 C   0  0  0  0  0  0  0  0  0  0  0  0
   25.6040  -17.2301  -21.8070 C   0  0  0  0  0  0  0  0  0  0  0  0
   26.0940  -16.0082  -21.4123 C   0  0  0  0  0  0  0  0  0  0  0  0
   26.0723  -15.6551  -20.1017 C   0  0  0  0  0  0  0  0  0  0  0  0
   25.5579  -16.5234  -19.1657 C   0  0  0  0  0  0  0  0  0  0  0  0
   25.0456  -19.9766  -16.5569 C   0  0  0  0  0  0  0  0  0  0  0  0
   24.5831  -21.1180  -16.7643 O   0  0  0  0  0  0  0  0  0  0  0  0
   25.0041  -19.3497  -15.2949 N   0  0  0  0  0  0  0  0  0  0  0  0
   24.3585  -20.0407  -14.1514 C   0  0  1  0  0  0  0  0  0  0  0  0
   25.0451  -19.6603  -12.8996 C   0  0  0  0  0  0  0  0  0  0  0  0
   24.3918  -20.1568  -11.6793 C   0  0  0  0  0  0  0  0  0  0  0  0
   23.2232  -20.9336  -11.6190 C   0  0  0  0  0  0  0  0  0  0  0  0
   22.9068  -21.2082  -10.3494 N   0  0  0  0  0  0  0  0  0  0  0  0
   23.8474  -20.6240   -9.5901 C   0  0  0  0  0  0  0  0  0  0  0  0
   24.7290  -19.9995  -10.3856 N   0  0  0  0  0  0  0  0  0  0  0  0
   22.9264  -19.8282  -14.2490 C   0  0  0  0  0  0  0  0  0  0  0  0
   22.5442  -18.6907  -14.7348 O   0  0  0  0  0  0  0  0  0  0  0  0
   18.5224  -19.0027  -16.7439 N   0  0  0  0  0  0  0  0  0  0  0  0
   18.9262  -20.2302  -16.1598 C   0  0  0  0  0  0  0  0  0  0  0  0
   18.0966  -21.1545  -16.0828 O   0  0  0  0  0  0  0  0  0  0  0  0
   20.2941  -20.3927  -15.6619 C   0  0  0  0  0  0  0  0  0  0  0  0
   20.4694  -20.3505  -14.1785 C   0  0  2  0  0  0  0  0  0  0  0  0
   21.8688  -20.6781  -13.9013 N   0  0  0  0  0  0  0  0  0  0  0  0
   19.6062  -21.2541  -13.4088 C   0  0  0  0  0  0  0  0  0  0  0  0
   19.9681  -22.5112  -12.9503 O   0  0  0  0  0  0  0  0  0  0  0  0
   18.4387  -20.8933  -13.1241 O   0  0  0  0  0  0  0  0  0  0  0  0
  2  1  1  6
  2 10  1  0
  3  2  1  0
  3  4  1  0
  4  5  2  0
  4  9  1  0
  5  6  1  0
  6  7  2  0
  8  7  1  0
  9  8  2  0
 10 11  2  0
 12 10  1  0
 12 13  1  0
 13 20  1  0
 13 14  1  1
 14 15  1  0
 15 16  2  0
 15 19  1  0
 16 17  1  0
 17 18  1  0
 19 18  2  0
 20 21  2  0
 22 23  1  0
 23 24  2  0
 25 23  1  0
 26 25  1  6
 26 28  1  0
 27 26  1  0
 27 20  1  0
 28 29  1  0
 30 28  2  0
M  END
$$$$
