FHN.pdb
     RDKit          3D

 30 31  0  0  1  0  0  0  0  0999 V2000
   22.3092   -9.5782  -16.3126 N   0  0  0  0  0  0  0  0  0  0  0  0
   22.1081   -9.1168  -14.9738 C   0  0  1  0  0  0  0  0  0  0  0  0
   23.2691   -8.1872  -14.5919 C   0  0  0  0  0  0  0  0  0  0  0  0
   24.5322   -8.8756  -14.8955 C   0  0  0  0  0  0  0  0  0  0  0  0
   24.9801   -9.9075  -14.1063 C   0  0  0  0  0  0  0  0  0  0  0  0
   26.1751  -10.5638  -14.3869 C   0  0  0  0  0  0  0  0  0  0  0  0
   26.9258  -10.1779  -15.4716 C   0  0  0  0  0  0  0  0  0  0  0  0
   26.5046   -9.1610  -16.2662 C   0  0  0  0  0  0  0  0  0  0  0  0
   25.3222   -8.5149  -15.9847 C   0  0  0  0  0  0  0  0  0  0  0  0
   20.8816   -8.2938  -14.8992 C   0  0  0  0  0  0  0  0  0  0  0  0
   20.4776   -7.7339  -15.9399 O   0  0  0  0  0  0  0  0  0  0  0  0
   20.2221   -8.1758  -13.6589 N   0  0  0  0  0  0  0  0  0  0  0  0
   18.9975   -7.3443  -13.5535 C   0  0  1  0  0  0  0  0  0  0  0  0
   18.0646   -7.7081  -14.6400 C   0  0  0  0  0  0  0  0  0  0  0  0
   17.7104   -9.1348  -14.6775 C   0  0  0  0  0  0  0  0  0  0  0  0
   18.2308  -10.1429  -13.8494 C   0  0  0  0  0  0  0  0  0  0  0  0
   17.6909  -11.3271  -14.1550 N   0  0  0  0  0  0  0  0  0  0  0  0
   16.8333  -11.1031  -15.1634 C   0  0  0  0  0  0  0  0  0  0  0  0
   16.8481   -9.7973  -15.4711 N   0  0  0  0  0  0  0  0  0  0  0  0
   18.5257   -7.4118  -12.1828 C   0  0  0  0  0  0  0  0  0  0  0  0
   19.3198   -7.9707  -11.3267 O   0  0  0  0  0  0  0  0  0  0  0  0
   17.5600   -3.9606   -8.5643 N   0  0  0  0  0  0  0  0  0  0  0  0
   18.3749   -3.9084   -9.7238 C   0  0  0  0  0  0  0  0  0  0  0  0
   19.1586   -2.9512   -9.8582 O   0  0  0  0  0  0  0  0  0  0  0  0
   18.2854   -4.9656  -10.7335 C   0  0  0  0  0  0  0  0  0  0  0  0
   17.2866   -6.0466  -10.4754 C   0  0  2  0  0  0  0  0  0  0  0  0
   17.3261   -6.9522  -11.6246 N   0  0  0  0  0  0  0  0  0  0  0  0
   15.9041   -5.6005  -10.2666 C   0  0  0  0  0  0  0  0  0  0  0  0
   15.2411   -5.5876   -9.0493 O   0  0  0  0  0  0  0  0  0  0  0  0
   15.2366   -5.1910  -11.2470 O   0  0  0  0  0  0  0  0  0  0  0  0
  2  1  1  6
  2 10  1  0
  3  2  1  0
  3  4  1  0
  4  5  2  0
  4  9  1  0
  5  6  1  0
  6  7  2  0
  8  7  1  0
  9  8  2  0
 10 11  2  0
 12 10  1  0
 12 13  1  0
 13 20  1  0
 13 14  1  6
 14 15  1  0
 15 16  2  0
 15 19  1  0
 16 17  1  0
 17 18  1  0
 19 18  2  0
 20 21  2  0
 22 23  1  0
 23 24  2  0
 25 23  1  0
 26 25  1  6
 26 28  1  0
 27 26  1  0
 27 20  1  0
 28 29  1  0
 30 28  2  0
M  END
$$$$
