FHN.pdb
     RDKit          3D

 30 31  0  0  1  0  0  0  0  0999 V2000
   25.6386  -22.7224  -17.7226 N   0  0  0  0  0  0  0  0  0  0  0  0
   26.3084  -23.4025  -16.6575 C   0  0  1  0  0  0  0  0  0  0  0  0
   25.4909  -24.6441  -16.2728 C   0  0  0  0  0  0  0  0  0  0  0  0
   24.1979  -24.1981  -15.7337 C   0  0  0  0  0  0  0  0  0  0  0  0
   24.1289  -23.5090  -14.5467 C   0  0  0  0  0  0  0  0  0  0  0  0
   22.9085  -23.0839  -14.0296 C   0  0  0  0  0  0  0  0  0  0  0  0
   21.7474  -23.3547  -14.7133 C   0  0  0  0  0  0  0  0  0  0  0  0
   21.7896  -24.0340  -15.8879 C   0  0  0  0  0  0  0  0  0  0  0  0
   22.9988  -24.4525  -16.3954 C   0  0  0  0  0  0  0  0  0  0  0  0
   27.6211  -23.9025  -17.1203 C   0  0  0  0  0  0  0  0  0  0  0  0
   27.7693  -24.1452  -18.3364 O   0  0  0  0  0  0  0  0  0  0  0  0
   28.6473  -24.0841  -16.1711 N   0  0  0  0  0  0  0  0  0  0  0  0
   29.9386  -24.6834  -16.5898 C   0  0  1  0  0  0  0  0  0  0  0  0
   31.0285  -24.1208  -15.7661 C   0  0  0  0  0  0  0  0  0  0  0  0
   32.3394  -24.7478  -15.9916 C   0  0  0  0  0  0  0  0  0  0  0  0
   33.0214  -25.5926  -15.1005 C   0  0  0  0  0  0  0  0  0  0  0  0
   34.1880  -25.9834  -15.6234 N   0  0  0  0  0  0  0  0  0  0  0  0
   34.2722  -25.4075  -16.8333 C   0  0  0  0  0  0  0  0  0  0  0  0
   33.1701  -24.6732  -17.0483 N   0  0  0  0  0  0  0  0  0  0  0  0
   29.7728  -26.1245  -16.6298 C   0  0  0  0  0  0  0  0  0  0  0  0
   29.3924  -26.6917  -15.5300 O   0  0  0  0  0  0  0  0  0  0  0  0
   26.2650  -28.3572  -16.8093 N   0  0  0  0  0  0  0  0  0  0  0  0
   27.6049  -28.7720  -16.6001 C   0  0  0  0  0  0  0  0  0  0  0  0
   27.9800  -29.0098  -15.4377 O   0  0  0  0  0  0  0  0  0  0  0  0
   28.5169  -28.9133  -17.7375 C   0  0  0  0  0  0  0  0  0  0  0  0
   29.9270  -28.4709  -17.5160 C   0  0  2  0  0  0  0  0  0  0  0  0
   29.9548  -27.0182  -17.6929 N   0  0  0  0  0  0  0  0  0  0  0  0
   30.9313  -29.0782  -18.3971 C   0  0  0  0  0  0  0  0  0  0  0  0
   31.7327  -28.3889  -19.2939 O   0  0  0  0  0  0  0  0  0  0  0  0
   31.1065  -30.3202  -18.3638 O   0  0  0  0  0  0  0  0  0  0  0  0
  2  1  1  6
  2 10  1  0
  3  2  1  0
  3  4  1  0
  4  5  2  0
  4  9  1  0
  5  6  1  0
  6  7  2  0
  8  7  1  0
  9  8  2  0
 10 11  2  0
 12 10  1  0
 12 13  1  0
 13 20  1  0
 13 14  1  1
 14 15  1  0
 15 16  2  0
 15 19  1  0
 16 17  1  0
 17 18  1  0
 19 18  2  0
 20 21  2  0
 22 23  1  0
 23 24  2  0
 25 23  1  0
 26 25  1  6
 26 28  1  0
 27 26  1  0
 27 20  1  0
 28 29  1  0
 30 28  2  0
M  END
$$$$
