FHN.pdb
     RDKit          3D

 30 31  0  0  1  0  0  0  0  0999 V2000
   24.1749  -14.3879  -17.3085 N   0  0  0  0  0  0  0  0  0  0  0  0
   24.7317  -15.1686  -16.2474 C   0  0  1  0  0  0  0  0  0  0  0  0
   24.2430  -14.6006  -14.9071 C   0  0  0  0  0  0  0  0  0  0  0  0
   24.9103  -13.3103  -14.6805 C   0  0  0  0  0  0  0  0  0  0  0  0
   24.1792  -12.1671  -14.4633 C   0  0  0  0  0  0  0  0  0  0  0  0
   24.8036  -10.9418  -14.2485 C   0  0  0  0  0  0  0  0  0  0  0  0
   26.1760  -10.8665  -14.2524 C   0  0  0  0  0  0  0  0  0  0  0  0
   26.9201  -11.9819  -14.4648 C   0  0  0  0  0  0  0  0  0  0  0  0
   26.2982  -13.1914  -14.6769 C   0  0  0  0  0  0  0  0  0  0  0  0
   24.2221  -16.5553  -16.3159 C   0  0  0  0  0  0  0  0  0  0  0  0
   23.0804  -16.7463  -16.7846 O   0  0  0  0  0  0  0  0  0  0  0  0
   25.0447  -17.6008  -15.8495 N   0  0  0  0  0  0  0  0  0  0  0  0
   24.5664  -19.0033  -15.9272 C   0  0  1  0  0  0  0  0  0  0  0  0
   25.7273  -19.9171  -15.9142 C   0  0  0  0  0  0  0  0  0  0  0  0
   25.3722  -21.3412  -15.8246 C   0  0  0  0  0  0  0  0  0  0  0  0
   24.0923  -21.8652  -15.5792 C   0  0  0  0  0  0  0  0  0  0  0  0
   24.1272  -23.2015  -15.5620 N   0  0  0  0  0  0  0  0  0  0  0  0
   25.4035  -23.5498  -15.7911 C   0  0  0  0  0  0  0  0  0  0  0  0
   26.1408  -22.4397  -15.9468 N   0  0  0  0  0  0  0  0  0  0  0  0
   23.5326  -19.1813  -14.9244 C   0  0  0  0  0  0  0  0  0  0  0  0
   23.7804  -18.6983  -13.7492 O   0  0  0  0  0  0  0  0  0  0  0  0
   19.3697  -18.7110  -11.8200 N   0  0  0  0  0  0  0  0  0  0  0  0
   19.1694  -18.7966  -13.2213 C   0  0  0  0  0  0  0  0  0  0  0  0
   18.0047  -18.8716  -13.6528 O   0  0  0  0  0  0  0  0  0  0  0  0
   20.3184  -18.7958  -14.1297 C   0  0  0  0  0  0  0  0  0  0  0  0
   21.3377  -19.8664  -13.9110 C   0  0  2  0  0  0  0  0  0  0  0  0
   22.2796  -19.7984  -15.0292 N   0  0  0  0  0  0  0  0  0  0  0  0
   20.8142  -21.2338  -13.8104 C   0  0  0  0  0  0  0  0  0  0  0  0
   20.6254  -21.9350  -12.6295 O   0  0  0  0  0  0  0  0  0  0  0  0
   20.5018  -21.8501  -14.8577 O   0  0  0  0  0  0  0  0  0  0  0  0
  2  1  1  6
  2 10  1  0
  3  2  1  0
  3  4  1  0
  4  5  2  0
  4  9  1  0
  5  6  1  0
  6  7  2  0
  8  7  1  0
  9  8  2  0
 10 11  2  0
 12 10  1  0
 12 13  1  0
 13 20  1  0
 13 14  1  1
 14 15  1  0
 15 16  2  0
 15 19  1  0
 16 17  1  0
 17 18  1  0
 19 18  2  0
 20 21  2  0
 22 23  1  0
 23 24  2  0
 25 23  1  0
 26 25  1  6
 26 28  1  0
 27 26  1  0
 27 20  1  0
 28 29  1  0
 30 28  2  0
M  END
$$$$
