FHN.pdb
     RDKit          3D

 30 31  0  0  1  0  0  0  0  0999 V2000
   27.3465  -15.6436  -18.3785 N   0  0  0  0  0  0  0  0  0  0  0  0
   27.0032  -15.8297  -17.0027 C   0  0  1  0  0  0  0  0  0  0  0  0
   25.9449  -14.7879  -16.6122 C   0  0  0  0  0  0  0  0  0  0  0  0
   26.6146  -13.4907  -16.4387 C   0  0  0  0  0  0  0  0  0  0  0  0
   27.4685  -13.2736  -15.3840 C   0  0  0  0  0  0  0  0  0  0  0  0
   28.1059  -12.0480  -15.2126 C   0  0  0  0  0  0  0  0  0  0  0  0
   27.8818  -11.0321  -16.1108 C   0  0  0  0  0  0  0  0  0  0  0  0
   27.0425  -11.2221  -17.1607 C   0  0  0  0  0  0  0  0  0  0  0  0
   26.4144  -12.4357  -17.3261 C   0  0  0  0  0  0  0  0  0  0  0  0
   26.3677  -17.1516  -16.8122 C   0  0  0  0  0  0  0  0  0  0  0  0
   25.9964  -17.7836  -17.8233 O   0  0  0  0  0  0  0  0  0  0  0  0
   26.2078  -17.6410  -15.4999 N   0  0  0  0  0  0  0  0  0  0  0  0
   25.6661  -19.0057  -15.2850 C   0  0  1  0  0  0  0  0  0  0  0  0
   26.4686  -19.6931  -14.2523 C   0  0  0  0  0  0  0  0  0  0  0  0
   25.9803  -21.0358  -13.9045 C   0  0  0  0  0  0  0  0  0  0  0  0
   24.7882  -21.6288  -14.3519 C   0  0  0  0  0  0  0  0  0  0  0  0
   24.6535  -22.8566  -13.8404 N   0  0  0  0  0  0  0  0  0  0  0  0
   25.7342  -23.0672  -13.0721 C   0  0  0  0  0  0  0  0  0  0  0  0
   26.5210  -21.9811  -13.1131 N   0  0  0  0  0  0  0  0  0  0  0  0
   24.2327  -18.8941  -15.0888 C   0  0  0  0  0  0  0  0  0  0  0  0
   23.7846  -17.7232  -14.7660 O   0  0  0  0  0  0  0  0  0  0  0  0
   19.3048  -18.9401  -13.8551 N   0  0  0  0  0  0  0  0  0  0  0  0
   20.3958  -18.0716  -13.5969 C   0  0  0  0  0  0  0  0  0  0  0  0
   20.2021  -17.0663  -12.8897 O   0  0  0  0  0  0  0  0  0  0  0  0
   21.7171  -18.3641  -14.1573 C   0  0  0  0  0  0  0  0  0  0  0  0
   21.8116  -19.5652  -15.0414 C   0  0  2  0  0  0  0  0  0  0  0  0
   23.2341  -19.8696  -15.2028 N   0  0  0  0  0  0  0  0  0  0  0  0
   21.1989  -19.4298  -16.3681 C   0  0  0  0  0  0  0  0  0  0  0  0
   21.7610  -18.7642  -17.4464 O   0  0  0  0  0  0  0  0  0  0  0  0
   20.0748  -19.9452  -16.5807 O   0  0  0  0  0  0  0  0  0  0  0  0
  2  1  1  6
  2 10  1  0
  3  2  1  0
  3  4  1  0
  4  5  2  0
  4  9  1  0
  5  6  1  0
  6  7  2  0
  8  7  1  0
  9  8  2  0
 10 11  2  0
 12 10  1  0
 12 13  1  0
 13 20  1  0
 13 14  1  1
 14 15  1  0
 15 16  2  0
 15 19  1  0
 16 17  1  0
 17 18  1  0
 19 18  2  0
 20 21  2  0
 22 23  1  0
 23 24  2  0
 25 23  1  0
 26 25  1  1
 26 28  1  0
 27 26  1  0
 27 20  1  0
 28 29  1  0
 30 28  2  0
M  END
$$$$
