FHN.pdb
     RDKit          3D

 30 31  0  0  1  0  0  0  0  0999 V2000
   27.7195  -32.2068  -14.3870 N   0  0  0  0  0  0  0  0  0  0  0  0
   26.8102  -33.1402  -14.9766 C   0  0  1  0  0  0  0  0  0  0  0  0
   27.6178  -34.2679  -15.6352 C   0  0  0  0  0  0  0  0  0  0  0  0
   28.2469  -33.7364  -16.8530 C   0  0  0  0  0  0  0  0  0  0  0  0
   27.5030  -33.4951  -17.9830 C   0  0  0  0  0  0  0  0  0  0  0  0
   28.0914  -32.9924  -19.1400 C   0  0  0  0  0  0  0  0  0  0  0  0
   29.4405  -32.7303  -19.1596 C   0  0  0  0  0  0  0  0  0  0  0  0
   30.1966  -32.9605  -18.0560 C   0  0  0  0  0  0  0  0  0  0  0  0
   29.6104  -33.4577  -16.9142 C   0  0  0  0  0  0  0  0  0  0  0  0
   25.9896  -33.7820  -13.9268 C   0  0  0  0  0  0  0  0  0  0  0  0
   25.2635  -34.7463  -14.2469 O   0  0  0  0  0  0  0  0  0  0  0  0
   26.0611  -33.2785  -12.6120 N   0  0  0  0  0  0  0  0  0  0  0  0
   25.1901  -33.8524  -11.5565 C   0  0  1  0  0  0  0  0  0  0  0  0
   26.0302  -34.3613  -10.4527 C   0  0  0  0  0  0  0  0  0  0  0  0
   26.6072  -35.6913  -10.6985 C   0  0  0  0  0  0  0  0  0  0  0  0
   26.3420  -36.5223  -11.7994 C   0  0  0  0  0  0  0  0  0  0  0  0
   27.0354  -37.6614  -11.7059 N   0  0  0  0  0  0  0  0  0  0  0  0
   27.7420  -37.5820  -10.5670 C   0  0  0  0  0  0  0  0  0  0  0  0
   27.4841  -36.4080   -9.9708 N   0  0  0  0  0  0  0  0  0  0  0  0
   24.1564  -32.8811  -11.2502 C   0  0  0  0  0  0  0  0  0  0  0  0
   24.5486  -31.6615  -11.0636 O   0  0  0  0  0  0  0  0  0  0  0  0
   20.1406  -29.6922  -10.8335 N   0  0  0  0  0  0  0  0  0  0  0  0
   21.2345  -29.7036  -11.7359 C   0  0  0  0  0  0  0  0  0  0  0  0
   21.4062  -28.7181  -12.4760 O   0  0  0  0  0  0  0  0  0  0  0  0
   22.1351  -30.8576  -11.7851 C   0  0  0  0  0  0  0  0  0  0  0  0
   21.8642  -31.9527  -10.8050 C   0  0  2  0  0  0  0  0  0  0  0  0
   22.7718  -33.0543  -11.1292 N   0  0  0  0  0  0  0  0  0  0  0  0
   20.4873  -32.4601  -10.7808 C   0  0  0  0  0  0  0  0  0  0  0  0
   20.0082  -33.5147  -11.5423 O   0  0  0  0  0  0  0  0  0  0  0  0
   19.6473  -31.9198  -10.0214 O   0  0  0  0  0  0  0  0  0  0  0  0
  2  1  1  1
  2 10  1  0
  3  2  1  0
  3  4  1  0
  4  5  2  0
  4  9  1  0
  5  6  1  0
  6  7  2  0
  8  7  1  0
  9  8  2  0
 10 11  2  0
 12 10  1  0
 12 13  1  0
 13 20  1  0
 13 14  1  1
 14 15  1  0
 15 16  2  0
 15 19  1  0
 16 17  1  0
 17 18  1  0
 19 18  2  0
 20 21  2  0
 22 23  1  0
 23 24  2  0
 25 23  1  0
 26 25  1  6
 26 28  1  0
 27 26  1  0
 27 20  1  0
 28 29  1  0
 30 28  2  0
M  END
$$$$
