FHN.pdb
     RDKit          3D

 30 31  0  0  1  0  0  0  0  0999 V2000
   26.5271  -26.8669  -18.4137 N   0  0  0  0  0  0  0  0  0  0  0  0
   26.4509  -27.0643  -16.9992 C   0  0  1  0  0  0  0  0  0  0  0  0
   27.6810  -27.8631  -16.5449 C   0  0  0  0  0  0  0  0  0  0  0  0
   27.5855  -29.2188  -17.1058 C   0  0  0  0  0  0  0  0  0  0  0  0
   28.5213  -29.6789  -18.0008 C   0  0  0  0  0  0  0  0  0  0  0  0
   28.4374  -30.9609  -18.5366 C   0  0  0  0  0  0  0  0  0  0  0  0
   27.4025  -31.7868  -18.1682 C   0  0  0  0  0  0  0  0  0  0  0  0
   26.4656  -31.3551  -17.2858 C   0  0  0  0  0  0  0  0  0  0  0  0
   26.5526  -30.0865  -16.7586 C   0  0  0  0  0  0  0  0  0  0  0  0
   26.5252  -25.7631  -16.3001 C   0  0  0  0  0  0  0  0  0  0  0  0
   26.6003  -25.7619  -15.0535 O   0  0  0  0  0  0  0  0  0  0  0  0
   26.5074  -24.5816  -17.0689 N   0  0  0  0  0  0  0  0  0  0  0  0
   26.5553  -23.2625  -16.3910 C   0  0  1  0  0  0  0  0  0  0  0  0
   27.5241  -22.3904  -17.0867 C   0  0  0  0  0  0  0  0  0  0  0  0
   28.9086  -22.8850  -17.0585 C   0  0  0  0  0  0  0  0  0  0  0  0
   29.6024  -23.3506  -15.9294 C   0  0  0  0  0  0  0  0  0  0  0  0
   30.8429  -23.7228  -16.2609 N   0  0  0  0  0  0  0  0  0  0  0  0
   30.9631  -23.5065  -17.5805 C   0  0  0  0  0  0  0  0  0  0  0  0
   29.8097  -23.0079  -18.0510 N   0  0  0  0  0  0  0  0  0  0  0  0
   25.1923  -22.7923  -16.2269 C   0  0  0  0  0  0  0  0  0  0  0  0
   24.4875  -22.6796  -17.3069 O   0  0  0  0  0  0  0  0  0  0  0  0
   20.4023  -21.2448  -14.6806 N   0  0  0  0  0  0  0  0  0  0  0  0
   20.9174  -22.3738  -13.9942 C   0  0  0  0  0  0  0  0  0  0  0  0
   20.1532  -23.0214  -13.2559 O   0  0  0  0  0  0  0  0  0  0  0  0
   22.3210  -22.7578  -14.1600 C   0  0  0  0  0  0  0  0  0  0  0  0
   23.1359  -21.9109  -15.0829 C   0  0  2  0  0  0  0  0  0  0  0  0
   24.5001  -22.4407  -15.0611 N   0  0  0  0  0  0  0  0  0  0  0  0
   23.1751  -20.4785  -14.7659 C   0  0  0  0  0  0  0  0  0  0  0  0
   22.1371  -19.5831  -14.9722 O   0  0  0  0  0  0  0  0  0  0  0  0
   24.2167  -19.9886  -14.2664 O   0  0  0  0  0  0  0  0  0  0  0  0
  2  1  1  6
  2 10  1  0
  3  2  1  0
  3  4  1  0
  4  5  2  0
  4  9  1  0
  5  6  1  0
  6  7  2  0
  8  7  1  0
  9  8  2  0
 10 11  2  0
 12 10  1  0
 12 13  1  0
 13 20  1  0
 13 14  1  6
 14 15  1  0
 15 16  2  0
 15 19  1  0
 16 17  1  0
 17 18  1  0
 19 18  2  0
 20 21  2  0
 22 23  1  0
 23 24  2  0
 25 23  1  0
 26 25  1  1
 26 28  1  0
 27 26  1  0
 27 20  1  0
 28 29  1  0
 30 28  2  0
M  END
$$$$
