FHN.pdb
     RDKit          3D

 30 31  0  0  1  0  0  0  0  0999 V2000
   25.7070  -17.4842  -18.1776 N   0  0  0  0  0  0  0  0  0  0  0  0
   25.8787  -17.8030  -16.7940 C   0  0  1  0  0  0  0  0  0  0  0  0
   25.1350  -16.7578  -15.9501 C   0  0  0  0  0  0  0  0  0  0  0  0
   25.8808  -15.4927  -16.0177 C   0  0  0  0  0  0  0  0  0  0  0  0
   27.2383  -15.4851  -16.2316 C   0  0  0  0  0  0  0  0  0  0  0  0
   27.9515  -14.2915  -16.2963 C   0  0  0  0  0  0  0  0  0  0  0  0
   27.2925  -13.0950  -16.1443 C   0  0  0  0  0  0  0  0  0  0  0  0
   25.9519  -13.0764  -15.9318 C   0  0  0  0  0  0  0  0  0  0  0  0
   25.2507  -14.2593  -15.8685 C   0  0  0  0  0  0  0  0  0  0  0  0
   25.2436  -19.1036  -16.4899 C   0  0  0  0  0  0  0  0  0  0  0  0
   24.3803  -19.5420  -17.2787 O   0  0  0  0  0  0  0  0  0  0  0  0
   25.6382  -19.7916  -15.3245 N   0  0  0  0  0  0  0  0  0  0  0  0
   25.0028  -21.0892  -14.9860 C   0  0  1  0  0  0  0  0  0  0  0  0
   26.0138  -21.9884  -14.3924 C   0  0  0  0  0  0  0  0  0  0  0  0
   27.0337  -22.4584  -15.3417 C   0  0  0  0  0  0  0  0  0  0  0  0
   27.1157  -22.1290  -16.7047 C   0  0  0  0  0  0  0  0  0  0  0  0
   28.1659  -22.7318  -17.2711 N   0  0  0  0  0  0  0  0  0  0  0  0
   28.7626  -23.4432  -16.3013 C   0  0  0  0  0  0  0  0  0  0  0  0
   28.0855  -23.2776  -15.1549 N   0  0  0  0  0  0  0  0  0  0  0  0
   23.7927  -20.8138  -14.2338 C   0  0  0  0  0  0  0  0  0  0  0  0
   23.9259  -20.0786  -13.1767 O   0  0  0  0  0  0  0  0  0  0  0  0
   21.2687  -17.7647  -15.4741 N   0  0  0  0  0  0  0  0  0  0  0  0
   21.0550  -18.4705  -14.2628 C   0  0  0  0  0  0  0  0  0  0  0  0
   21.3119  -17.8993  -13.1875 O   0  0  0  0  0  0  0  0  0  0  0  0
   20.5425  -19.8422  -14.2917 C   0  0  0  0  0  0  0  0  0  0  0  0
   21.3649  -20.8727  -13.5883 C   0  0  2  0  0  0  0  0  0  0  0  0
   22.4743  -21.2186  -14.4782 N   0  0  0  0  0  0  0  0  0  0  0  0
   20.6579  -22.1010  -13.2072 C   0  0  0  0  0  0  0  0  0  0  0  0
   19.7702  -22.2196  -12.1491 O   0  0  0  0  0  0  0  0  0  0  0  0
   20.8479  -23.1494  -13.8700 O   0  0  0  0  0  0  0  0  0  0  0  0
  2  1  1  6
  2 10  1  0
  3  2  1  0
  3  4  1  0
  4  5  2  0
  4  9  1  0
  5  6  1  0
  6  7  2  0
  8  7  1  0
  9  8  2  0
 10 11  2  0
 12 10  1  0
 12 13  1  0
 13 20  1  0
 13 14  1  1
 14 15  1  0
 15 16  2  0
 15 19  1  0
 16 17  1  0
 17 18  1  0
 19 18  2  0
 20 21  2  0
 22 23  1  0
 23 24  2  0
 25 23  1  0
 26 25  1  6
 26 28  1  0
 27 26  1  0
 27 20  1  0
 28 29  1  0
 30 28  2  0
M  END
$$$$
