FHN.pdb
     RDKit          3D

 30 31  0  0  1  0  0  0  0  0999 V2000
   25.8596  -18.3645  -19.4437 N   0  0  0  0  0  0  0  0  0  0  0  0
   25.3602  -18.0014  -18.1536 C   0  0  1  0  0  0  0  0  0  0  0  0
   24.1063  -17.1340  -18.3354 C   0  0  0  0  0  0  0  0  0  0  0  0
   24.5118  -15.8544  -18.9351 C   0  0  0  0  0  0  0  0  0  0  0  0
   24.3979  -15.6423  -20.2881 C   0  0  0  0  0  0  0  0  0  0  0  0
   24.7801  -14.4338  -20.8633 C   0  0  0  0  0  0  0  0  0  0  0  0
   25.2813  -13.4299  -20.0696 C   0  0  0  0  0  0  0  0  0  0  0  0
   25.4037  -13.6153  -18.7304 C   0  0  0  0  0  0  0  0  0  0  0  0
   25.0245  -14.8122  -18.1660 C   0  0  0  0  0  0  0  0  0  0  0  0
   24.9215  -19.2088  -17.4207 C   0  0  0  0  0  0  0  0  0  0  0  0
   24.4810  -20.1753  -18.0776 O   0  0  0  0  0  0  0  0  0  0  0  0
   25.0182  -19.2172  -16.0143 N   0  0  0  0  0  0  0  0  0  0  0  0
   24.5396  -20.3966  -15.2515 C   0  0  1  0  0  0  0  0  0  0  0  0
   25.6581  -20.9572  -14.4656 C   0  0  0  0  0  0  0  0  0  0  0  0
   26.7301  -21.5485  -15.2802 C   0  0  0  0  0  0  0  0  0  0  0  0
   26.7600  -21.6308  -16.6820 C   0  0  0  0  0  0  0  0  0  0  0  0
   27.8820  -22.2300  -17.0935 N   0  0  0  0  0  0  0  0  0  0  0  0
   28.5759  -22.5359  -15.9856 C   0  0  0  0  0  0  0  0  0  0  0  0
   27.8867  -22.1286  -14.9089 N   0  0  0  0  0  0  0  0  0  0  0  0
   23.3241  -20.0178  -14.5551 C   0  0  0  0  0  0  0  0  0  0  0  0
   23.3789  -18.9352  -13.8473 O   0  0  0  0  0  0  0  0  0  0  0  0
   19.7642  -17.8574  -12.4817 N   0  0  0  0  0  0  0  0  0  0  0  0
   20.1410  -17.6161  -13.8274 C   0  0  0  0  0  0  0  0  0  0  0  0
   19.9747  -16.4759  -14.2970 O   0  0  0  0  0  0  0  0  0  0  0  0
   20.7126  -18.6956  -14.6357 C   0  0  0  0  0  0  0  0  0  0  0  0
   20.8840  -20.0147  -13.9548 C   0  0  2  0  0  0  0  0  0  0  0  0
   22.0722  -20.6454  -14.5318 N   0  0  0  0  0  0  0  0  0  0  0  0
   19.7509  -20.9409  -14.0651 C   0  0  0  0  0  0  0  0  0  0  0  0
   18.7916  -21.1538  -13.0874 O   0  0  0  0  0  0  0  0  0  0  0  0
   19.6067  -21.6121  -15.1154 O   0  0  0  0  0  0  0  0  0  0  0  0
  2  1  1  6
  2 10  1  0
  3  2  1  0
  3  4  1  0
  4  5  2  0
  4  9  1  0
  5  6  1  0
  6  7  2  0
  8  7  1  0
  9  8  2  0
 10 11  2  0
 12 10  1  0
 12 13  1  0
 13 20  1  0
 13 14  1  1
 14 15  1  0
 15 16  2  0
 15 19  1  0
 16 17  1  0
 17 18  1  0
 19 18  2  0
 20 21  2  0
 22 23  1  0
 23 24  2  0
 25 23  1  0
 26 25  1  6
 26 28  1  0
 27 26  1  0
 27 20  1  0
 28 29  1  0
 30 28  2  0
M  END
$$$$
