GPD.pdb
     RDKit          3D

 20 20  0  0  1  0  0  0  0  0999 V2000
    4.8561  -17.3930   22.8240 N   0  0  0  0  0  0  0  0  0  0  0  0
    5.6075  -16.1573   22.6865 C   0  0  0  0  0  0  0  0  0  0  0  0
    6.5827  -16.2245   21.5814 C   0  0  0  0  0  0  0  0  0  0  0  0
    6.6740  -17.2651   20.9073 O   0  0  0  0  0  0  0  0  0  0  0  0
    7.3953  -15.1134   21.3045 N   0  0  0  0  0  0  0  0  0  0  0  0
    7.3893  -13.8818   22.0670 C   0  0  0  0  0  0  0  0  0  0  0  0
    8.3681  -12.9501   21.4021 C   0  0  0  0  0  0  0  0  0  0  0  0
    8.4380  -13.5043   19.9956 C   0  0  0  0  0  0  0  0  0  0  0  0
    8.3744  -14.9890   20.2261 C   0  0  1  0  0  0  0  0  0  0  0  0
    9.6827  -15.5537   20.6246 C   0  0  0  0  0  0  0  0  0  0  0  0
   10.6045  -15.5697   19.7829 O   0  0  0  0  0  0  0  0  0  0  0  0
    9.8689  -16.0595   21.9323 N   0  0  0  0  0  0  0  0  0  0  0  0
   11.1564  -16.6346   22.3632 C   0  0  1  0  0  0  0  0  0  0  0  0
   12.1597  -15.5370   22.2887 C   0  0  0  0  0  0  0  0  0  0  0  0
   13.5612  -15.9061   22.4089 C   0  0  0  0  0  0  0  0  0  0  0  0
   13.9644  -17.0857   22.4738 O   0  0  0  0  0  0  0  0  0  0  0  0
   11.0099  -17.2546   23.6922 C   0  0  0  0  0  0  0  0  0  0  0  0
   10.3561  -16.8084   24.6539 O   0  0  0  0  0  0  0  0  0  0  0  0
   14.5017  -14.8874   22.4537 O   0  0  0  0  0  0  0  0  0  0  0  0
   11.6647  -18.4794   23.9316 O   0  0  0  0  0  0  0  0  0  0  0  0
  2  1  1  0
  3  2  1  0
  4  3  2  0
  5  9  1  0
  5  3  1  0
  6  5  1  0
  7  6  1  0
  7  8  1  0
  8  9  1  0
  9 10  1  1
 10 12  1  0
 11 10  2  0
 13 12  1  0
 13 14  1  1
 14 15  1  0
 15 19  1  0
 16 15  2  0
 17 13  1  0
 18 17  2  0
 20 17  1  0
M  END
$$$$
