GPD.pdb
     RDKit          3D

 20 20  0  0  1  0  0  0  0  0999 V2000
    8.3578  -16.5249   15.7761 N   0  0  0  0  0  0  0  0  0  0  0  0
    7.7960  -15.7249   16.8508 C   0  0  0  0  0  0  0  0  0  0  0  0
    8.7973  -15.4137   17.8886 C   0  0  0  0  0  0  0  0  0  0  0  0
    9.9025  -15.9825   17.8638 O   0  0  0  0  0  0  0  0  0  0  0  0
    8.4905  -14.4795   18.8910 N   0  0  0  0  0  0  0  0  0  0  0  0
    7.2684  -13.7035   18.9434 C   0  0  0  0  0  0  0  0  0  0  0  0
    7.3737  -12.8011   20.1445 C   0  0  0  0  0  0  0  0  0  0  0  0
    8.8696  -12.7220   20.3596 C   0  0  0  0  0  0  0  0  0  0  0  0
    9.3199  -14.1208   20.0401 C   0  0  1  0  0  0  0  0  0  0  0  0
    9.1027  -15.0539   21.1677 C   0  0  0  0  0  0  0  0  0  0  0  0
    8.0298  -15.6907   21.2141 O   0  0  0  0  0  0  0  0  0  0  0  0
   10.0967  -15.2098   22.1617 N   0  0  0  0  0  0  0  0  0  0  0  0
   10.4584  -16.5370   22.6926 C   0  0  1  0  0  0  0  0  0  0  0  0
   10.8862  -17.3598   21.5277 C   0  0  0  0  0  0  0  0  0  0  0  0
   11.4248  -18.6813   21.8074 C   0  0  0  0  0  0  0  0  0  0  0  0
   10.8436  -19.5321   22.5120 O   0  0  0  0  0  0  0  0  0  0  0  0
   11.4671  -16.3941   23.7576 C   0  0  0  0  0  0  0  0  0  0  0  0
   11.5021  -17.0134   24.8377 O   0  0  0  0  0  0  0  0  0  0  0  0
   12.6551  -19.0130   21.2588 O   0  0  0  0  0  0  0  0  0  0  0  0
   12.5132  -15.4697   23.5645 O   0  0  0  0  0  0  0  0  0  0  0  0
  2  1  1  0
  3  2  1  0
  4  3  2  0
  5  9  1  0
  5  3  1  0
  6  5  1  0
  7  6  1  0
  7  8  1  0
  8  9  1  0
  9 10  1  1
 10 12  1  0
 11 10  2  0
 13 12  1  0
 13 14  1  6
 14 15  1  0
 15 19  1  0
 16 15  2  0
 17 13  1  0
 18 17  2  0
 20 17  1  0
M  END
$$$$
