GPD.pdb
     RDKit          3D

 20 20  0  0  1  0  0  0  0  0999 V2000
    7.9555  -16.7691   15.9062 N   0  0  0  0  0  0  0  0  0  0  0  0
    7.6300  -15.7663   16.9057 C   0  0  0  0  0  0  0  0  0  0  0  0
    8.8060  -15.3897   17.7130 C   0  0  0  0  0  0  0  0  0  0  0  0
    9.8686  -16.0213   17.5794 O   0  0  0  0  0  0  0  0  0  0  0  0
    8.7114  -14.3235   18.6216 N   0  0  0  0  0  0  0  0  0  0  0  0
    7.5479  -13.4735   18.7713 C   0  0  0  0  0  0  0  0  0  0  0  0
    7.8916  -12.4397   19.8112 C   0  0  0  0  0  0  0  0  0  0  0  0
    9.4042  -12.4266   19.7669 C   0  0  0  0  0  0  0  0  0  0  0  0
    9.7375  -13.8788   19.5632 C   0  0  1  0  0  0  0  0  0  0  0  0
    9.6778  -14.6526   20.8229 C   0  0  0  0  0  0  0  0  0  0  0  0
    8.5832  -15.1447   21.1670 O   0  0  0  0  0  0  0  0  0  0  0  0
   10.8422  -14.8219   21.6079 N   0  0  0  0  0  0  0  0  0  0  0  0
   11.0732  -16.0474   22.3947 C   0  0  1  0  0  0  0  0  0  0  0  0
   11.0078  -17.1866   21.4382 C   0  0  0  0  0  0  0  0  0  0  0  0
   11.3499  -18.5049   21.9479 C   0  0  0  0  0  0  0  0  0  0  0  0
   11.0878  -18.8900   23.1060 O   0  0  0  0  0  0  0  0  0  0  0  0
   12.3386  -15.9337   23.1415 C   0  0  0  0  0  0  0  0  0  0  0  0
   12.5212  -16.2067   24.3430 O   0  0  0  0  0  0  0  0  0  0  0  0
   12.0047  -19.3829   21.0966 O   0  0  0  0  0  0  0  0  0  0  0  0
   13.4787  -15.4713   22.4539 O   0  0  0  0  0  0  0  0  0  0  0  0
  2  1  1  0
  3  2  1  0
  4  3  2  0
  5  9  1  0
  5  3  1  0
  6  5  1  0
  7  6  1  0
  7  8  1  0
  8  9  1  0
  9 10  1  1
 10 12  1  0
 11 10  2  0
 13 12  1  0
 13 14  1  6
 14 15  1  0
 15 19  1  0
 16 15  2  0
 17 13  1  0
 18 17  2  0
 20 17  1  0
M  END
$$$$
