GPD.pdb
     RDKit          3D

 20 20  0  0  1  0  0  0  0  0999 V2000
    8.4602  -15.3202   14.5323 N   0  0  0  0  0  0  0  0  0  0  0  0
    7.9709  -15.0429   15.8718 C   0  0  0  0  0  0  0  0  0  0  0  0
    9.0432  -14.5580   16.7616 C   0  0  0  0  0  0  0  0  0  0  0  0
   10.2279  -14.6380   16.3934 O   0  0  0  0  0  0  0  0  0  0  0  0
    8.7131  -14.0123   18.0125 N   0  0  0  0  0  0  0  0  0  0  0  0
    7.3605  -13.8407   18.5020 C   0  0  0  0  0  0  0  0  0  0  0  0
    7.4637  -13.1820   19.8525 C   0  0  0  0  0  0  0  0  0  0  0  0
    8.8215  -12.5172   19.7853 C   0  0  0  0  0  0  0  0  0  0  0  0
    9.6424  -13.5267   19.0312 C   0  0  1  0  0  0  0  0  0  0  0  0
   10.1110  -14.6314   19.8968 C   0  0  0  0  0  0  0  0  0  0  0  0
    9.3421  -15.5935   20.1014 O   0  0  0  0  0  0  0  0  0  0  0  0
   11.4025  -14.5840   20.4716 N   0  0  0  0  0  0  0  0  0  0  0  0
   11.9313  -15.6989   21.2788 C   0  0  1  0  0  0  0  0  0  0  0  0
   13.4129  -15.5524   21.2892 C   0  0  0  0  0  0  0  0  0  0  0  0
   14.0839  -15.4759   20.0013 C   0  0  0  0  0  0  0  0  0  0  0  0
   14.1217  -16.4170   19.1822 O   0  0  0  0  0  0  0  0  0  0  0  0
   11.2969  -15.7010   22.6090 C   0  0  0  0  0  0  0  0  0  0  0  0
   10.6123  -14.7882   23.1089 O   0  0  0  0  0  0  0  0  0  0  0  0
   14.7175  -14.2881   19.6662 O   0  0  0  0  0  0  0  0  0  0  0  0
   11.4628  -16.8385   23.4244 O   0  0  0  0  0  0  0  0  0  0  0  0
  2  1  1  0
  3  2  1  0
  4  3  2  0
  5  9  1  0
  5  3  1  0
  6  5  1  0
  7  6  1  0
  7  8  1  0
  8  9  1  0
  9 10  1  1
 10 12  1  0
 11 10  2  0
 13 12  1  0
 13 14  1  1
 14 15  1  0
 15 19  1  0
 16 15  2  0
 17 13  1  0
 18 17  2  0
 20 17  1  0
M  END
$$$$
