GPD.pdb
     RDKit          3D

 20 20  0  0  1  0  0  0  0  0999 V2000
    6.6093  -13.9214   21.2797 N   0  0  0  0  0  0  0  0  0  0  0  0
    6.3056  -13.7123   22.6849 C   0  0  0  0  0  0  0  0  0  0  0  0
    7.5182  -13.7573   23.5241 C   0  0  0  0  0  0  0  0  0  0  0  0
    8.6075  -14.0666   23.0108 O   0  0  0  0  0  0  0  0  0  0  0  0
    7.4277  -13.4504   24.8913 N   0  0  0  0  0  0  0  0  0  0  0  0
    6.2036  -13.0751   25.5689 C   0  0  0  0  0  0  0  0  0  0  0  0
    6.5664  -12.7889   27.0023 C   0  0  0  0  0  0  0  0  0  0  0  0
    8.0435  -12.4739   26.9055 C   0  0  0  0  0  0  0  0  0  0  0  0
    8.5181  -13.4505   25.8650 C   0  0  1  0  0  0  0  0  0  0  0  0
    8.7375  -14.8039   26.4212 C   0  0  0  0  0  0  0  0  0  0  0  0
    7.7420  -15.5237   26.6438 O   0  0  0  0  0  0  0  0  0  0  0  0
   10.0503  -15.2572   26.6891 N   0  0  0  0  0  0  0  0  0  0  0  0
   10.3187  -16.6444   27.1106 C   0  0  1  0  0  0  0  0  0  0  0  0
   11.6072  -17.0403   26.4782 C   0  0  0  0  0  0  0  0  0  0  0  0
   11.7222  -16.8719   25.0383 C   0  0  0  0  0  0  0  0  0  0  0  0
   10.8708  -17.2808   24.2222 O   0  0  0  0  0  0  0  0  0  0  0  0
   10.2933  -16.7363   28.5813 C   0  0  0  0  0  0  0  0  0  0  0  0
   10.2644  -17.7792   29.2617 O   0  0  0  0  0  0  0  0  0  0  0  0
   12.8430  -16.2192   24.5461 O   0  0  0  0  0  0  0  0  0  0  0  0
   10.3018  -15.5384   29.3238 O   0  0  0  0  0  0  0  0  0  0  0  0
  2  1  1  0
  3  2  1  0
  4  3  2  0
  5  9  1  0
  5  3  1  0
  6  5  1  0
  7  6  1  0
  7  8  1  0
  8  9  1  0
  9 10  1  1
 10 12  1  0
 11 10  2  0
 13 12  1  0
 13 14  1  1
 14 15  1  0
 15 19  1  0
 16 15  2  0
 17 13  1  0
 18 17  2  0
 20 17  1  0
M  END
$$$$
