GPD.pdb
     RDKit          3D

 20 20  0  0  1  0  0  0  0  0999 V2000
   10.2449  -15.5247   29.4619 N   0  0  0  0  0  0  0  0  0  0  0  0
    9.5856  -14.3852   28.8474 C   0  0  0  0  0  0  0  0  0  0  0  0
    8.6974  -14.7918   27.7418 C   0  0  0  0  0  0  0  0  0  0  0  0
    8.6628  -15.9839   27.3904 O   0  0  0  0  0  0  0  0  0  0  0  0
    7.9024  -13.8285   27.1003 N   0  0  0  0  0  0  0  0  0  0  0  0
    7.8680  -12.4244   27.4549 C   0  0  0  0  0  0  0  0  0  0  0  0
    6.8552  -11.7695   26.5530 C   0  0  0  0  0  0  0  0  0  0  0  0
    5.9847  -12.9373   26.1423 C   0  0  0  0  0  0  0  0  0  0  0  0
    6.9840  -14.0500   25.9847 C   0  0  1  0  0  0  0  0  0  0  0  0
    7.6943  -13.9897   24.6880 C   0  0  0  0  0  0  0  0  0  0  0  0
    8.3383  -12.9568   24.4105 O   0  0  0  0  0  0  0  0  0  0  0  0
    7.6354  -15.0848   23.7948 N   0  0  0  0  0  0  0  0  0  0  0  0
    8.7694  -15.4291   22.9174 C   0  0  1  0  0  0  0  0  0  0  0  0
    9.9671  -15.5448   23.7944 C   0  0  0  0  0  0  0  0  0  0  0  0
   11.1824  -16.0735   23.1960 C   0  0  0  0  0  0  0  0  0  0  0  0
   11.8997  -15.4320   22.4010 O   0  0  0  0  0  0  0  0  0  0  0  0
    8.4511  -16.6376   22.1362 C   0  0  0  0  0  0  0  0  0  0  0  0
    8.8342  -16.8991   20.9802 O   0  0  0  0  0  0  0  0  0  0  0  0
   11.5644  -17.3648   23.5293 O   0  0  0  0  0  0  0  0  0  0  0  0
    7.6308  -17.6177   22.7300 O   0  0  0  0  0  0  0  0  0  0  0  0
  2  1  1  0
  3  2  1  0
  4  3  2  0
  5  9  1  0
  5  3  1  0
  6  5  1  0
  7  6  1  0
  7  8  1  0
  8  9  1  0
  9 10  1  6
 10 12  1  0
 11 10  2  0
 13 12  1  0
 13 14  1  1
 14 15  1  0
 15 19  1  0
 16 15  2  0
 17 13  1  0
 18 17  2  0
 20 17  1  0
M  END
$$$$
