GPD.pdb
     RDKit          3D

 20 20  0  0  1  0  0  0  0  0999 V2000
    5.9862  -18.2172   18.5031 N   0  0  0  0  0  0  0  0  0  0  0  0
    6.0247  -16.9889   19.2779 C   0  0  0  0  0  0  0  0  0  0  0  0
    7.4070  -16.5445   19.5392 C   0  0  0  0  0  0  0  0  0  0  0  0
    8.3576  -17.2800   19.2210 O   0  0  0  0  0  0  0  0  0  0  0  0
    7.6324  -15.2973   20.1436 N   0  0  0  0  0  0  0  0  0  0  0  0
    6.5918  -14.3450   20.4732 C   0  0  0  0  0  0  0  0  0  0  0  0
    7.2738  -13.1350   21.0554 C   0  0  0  0  0  0  0  0  0  0  0  0
    8.6753  -13.2535   20.4970 C   0  0  0  0  0  0  0  0  0  0  0  0
    8.9215  -14.7363   20.5445 C   0  0  1  0  0  0  0  0  0  0  0  0
    9.3090  -15.2000   21.8951 C   0  0  0  0  0  0  0  0  0  0  0  0
    8.4088  -15.3933   22.7383 O   0  0  0  0  0  0  0  0  0  0  0  0
   10.6715  -15.4147   22.2082 N   0  0  0  0  0  0  0  0  0  0  0  0
   11.0919  -16.4672   23.1514 C   0  0  1  0  0  0  0  0  0  0  0  0
   10.9420  -17.7648   22.4367 C   0  0  0  0  0  0  0  0  0  0  0  0
   11.4033  -18.9608   23.1233 C   0  0  0  0  0  0  0  0  0  0  0  0
   11.9113  -18.9533   24.2635 O   0  0  0  0  0  0  0  0  0  0  0  0
   12.4502  -16.1835   23.6478 C   0  0  0  0  0  0  0  0  0  0  0  0
   12.8708  -16.3582   24.8072 O   0  0  0  0  0  0  0  0  0  0  0  0
   11.2703  -20.1783   22.4719 O   0  0  0  0  0  0  0  0  0  0  0  0
   13.3945  -15.6597   22.7422 O   0  0  0  0  0  0  0  0  0  0  0  0
  2  1  1  0
  3  2  1  0
  4  3  2  0
  5  9  1  0
  5  3  1  0
  6  5  1  0
  7  6  1  0
  7  8  1  0
  8  9  1  0
  9 10  1  1
 10 12  1  0
 11 10  2  0
 13 12  1  0
 13 14  1  6
 14 15  1  0
 15 19  1  0
 16 15  2  0
 17 13  1  0
 18 17  2  0
 20 17  1  0
M  END
$$$$
