GPD.pdb
     RDKit          3D

 20 20  0  0  1  0  0  0  0  0999 V2000
    7.6824  -17.7965   28.4034 N   0  0  0  0  0  0  0  0  0  0  0  0
    7.5536  -16.3521   28.3170 C   0  0  0  0  0  0  0  0  0  0  0  0
    7.1698  -15.9123   26.9621 C   0  0  0  0  0  0  0  0  0  0  0  0
    6.9228  -16.7622   26.0890 O   0  0  0  0  0  0  0  0  0  0  0  0
    7.0881  -14.5403   26.6750 N   0  0  0  0  0  0  0  0  0  0  0  0
    7.2403  -13.4859   27.6566 C   0  0  0  0  0  0  0  0  0  0  0  0
    7.0321  -12.1811   26.9338 C   0  0  0  0  0  0  0  0  0  0  0  0
    6.2244  -12.6054   25.7264 C   0  0  0  0  0  0  0  0  0  0  0  0
    6.8411  -13.9298   25.3698 C   0  0  1  0  0  0  0  0  0  0  0  0
    8.0984  -13.7779   24.6047 C   0  0  0  0  0  0  0  0  0  0  0  0
    9.0810  -13.2580   25.1729 O   0  0  0  0  0  0  0  0  0  0  0  0
    8.1696  -14.2164   23.2618 N   0  0  0  0  0  0  0  0  0  0  0  0
    9.3377  -14.9570   22.7509 C   0  0  1  0  0  0  0  0  0  0  0  0
    9.6274  -16.0314   23.7403 C   0  0  0  0  0  0  0  0  0  0  0  0
   11.0045  -16.1736   24.1854 C   0  0  0  0  0  0  0  0  0  0  0  0
   11.9691  -15.5858   23.6542 O   0  0  0  0  0  0  0  0  0  0  0  0
    9.0731  -15.4286   21.3799 C   0  0  0  0  0  0  0  0  0  0  0  0
    8.1171  -16.1347   21.0070 O   0  0  0  0  0  0  0  0  0  0  0  0
   11.2581  -17.0108   25.2620 O   0  0  0  0  0  0  0  0  0  0  0  0
    9.9761  -15.0598   20.3627 O   0  0  0  0  0  0  0  0  0  0  0  0
  2  1  1  0
  3  2  1  0
  4  3  2  0
  5  9  1  0
  5  3  1  0
  6  5  1  0
  7  6  1  0
  7  8  1  0
  8  9  1  0
  9 10  1  1
 10 12  1  0
 11 10  2  0
 13 12  1  0
 13 14  1  1
 14 15  1  0
 15 19  1  0
 16 15  2  0
 17 13  1  0
 18 17  2  0
 20 17  1  0
M  END
$$$$
