GPD.pdb
     RDKit          3D

 20 20  0  0  1  0  0  0  0  0999 V2000
    8.7214  -15.7583   14.7881 N   0  0  0  0  0  0  0  0  0  0  0  0
    8.1150  -15.2188   15.9929 C   0  0  0  0  0  0  0  0  0  0  0  0
    9.1271  -14.8304   16.9937 C   0  0  0  0  0  0  0  0  0  0  0  0
   10.3241  -15.0975   16.7901 O   0  0  0  0  0  0  0  0  0  0  0  0
    8.7267  -14.1642   18.1630 N   0  0  0  0  0  0  0  0  0  0  0  0
    7.3521  -13.8616   18.5055 C   0  0  0  0  0  0  0  0  0  0  0  0
    7.3813  -13.1046   19.8071 C   0  0  0  0  0  0  0  0  0  0  0  0
    8.7861  -12.5418   19.8226 C   0  0  0  0  0  0  0  0  0  0  0  0
    9.5935  -13.6627   19.2281 C   0  0  1  0  0  0  0  0  0  0  0  0
    9.8963  -14.7234   20.2143 C   0  0  0  0  0  0  0  0  0  0  0  0
    9.0709  -15.6479   20.3653 O   0  0  0  0  0  0  0  0  0  0  0  0
   11.0969  -14.6771   20.9606 N   0  0  0  0  0  0  0  0  0  0  0  0
   11.5804  -15.8440   21.7212 C   0  0  1  0  0  0  0  0  0  0  0  0
   13.0679  -15.7877   21.6883 C   0  0  0  0  0  0  0  0  0  0  0  0
   13.7900  -16.8211   22.4132 C   0  0  0  0  0  0  0  0  0  0  0  0
   13.4047  -18.0052   22.4998 O   0  0  0  0  0  0  0  0  0  0  0  0
   10.9874  -15.8450   23.0703 C   0  0  0  0  0  0  0  0  0  0  0  0
   11.0488  -16.7631   23.9099 O   0  0  0  0  0  0  0  0  0  0  0  0
   14.9743  -16.4683   23.0435 O   0  0  0  0  0  0  0  0  0  0  0  0
   10.2704  -14.7042   23.4836 O   0  0  0  0  0  0  0  0  0  0  0  0
  2  1  1  0
  3  2  1  0
  4  3  2  0
  5  9  1  0
  5  3  1  0
  6  5  1  0
  7  6  1  0
  7  8  1  0
  8  9  1  0
  9 10  1  1
 10 12  1  0
 11 10  2  0
 13 12  1  0
 13 14  1  1
 14 15  1  0
 15 19  1  0
 16 15  2  0
 17 13  1  0
 18 17  2  0
 20 17  1  0
M  END
$$$$
