GPD.pdb
     RDKit          3D

 20 20  0  0  1  0  0  0  0  0999 V2000
    6.8700  -15.4704   24.1153 N   0  0  0  0  0  0  0  0  0  0  0  0
    7.3697  -14.3891   23.2836 C   0  0  0  0  0  0  0  0  0  0  0  0
    7.6110  -14.8269   21.8955 C   0  0  0  0  0  0  0  0  0  0  0  0
    7.3414  -15.9949   21.5658 O   0  0  0  0  0  0  0  0  0  0  0  0
    8.1416  -13.9199   20.9642 N   0  0  0  0  0  0  0  0  0  0  0  0
    8.6112  -12.5889   21.2905 C   0  0  0  0  0  0  0  0  0  0  0  0
    9.0476  -11.9495   19.9986 C   0  0  0  0  0  0  0  0  0  0  0  0
    8.2747  -12.7429   18.9675 C   0  0  0  0  0  0  0  0  0  0  0  0
    8.3173  -14.1373   19.5292 C   0  0  1  0  0  0  0  0  0  0  0  0
    9.5990  -14.8200   19.2454 C   0  0  0  0  0  0  0  0  0  0  0  0
    9.8357  -15.1765   18.0725 O   0  0  0  0  0  0  0  0  0  0  0  0
   10.5240  -15.0559   20.2891 N   0  0  0  0  0  0  0  0  0  0  0  0
   11.8954  -15.5239   20.0161 C   0  0  1  0  0  0  0  0  0  0  0  0
   12.5573  -14.4590   19.2130 C   0  0  0  0  0  0  0  0  0  0  0  0
   13.8872  -14.7427   18.6978 C   0  0  0  0  0  0  0  0  0  0  0  0
   14.1568  -15.7266   17.9784 O   0  0  0  0  0  0  0  0  0  0  0  0
   12.5723  -15.8607   21.2812 C   0  0  0  0  0  0  0  0  0  0  0  0
   12.3577  -15.3534   22.3984 O   0  0  0  0  0  0  0  0  0  0  0  0
   14.9132  -13.8685   19.0258 O   0  0  0  0  0  0  0  0  0  0  0  0
   13.5703  -16.8554   21.2583 O   0  0  0  0  0  0  0  0  0  0  0  0
  2  1  1  0
  3  2  1  0
  4  3  2  0
  5  9  1  0
  5  3  1  0
  6  5  1  0
  7  6  1  0
  7  8  1  0
  8  9  1  0
  9 10  1  1
 10 12  1  0
 11 10  2  0
 13 12  1  0
 13 14  1  1
 14 15  1  0
 15 19  1  0
 16 15  2  0
 17 13  1  0
 18 17  2  0
 20 17  1  0
M  END
$$$$
