GPD.pdb
     RDKit          3D

 20 20  0  0  1  0  0  0  0  0999 V2000
    8.4244  -15.5148   14.7388 N   0  0  0  0  0  0  0  0  0  0  0  0
    7.9393  -15.3121   16.0931 C   0  0  0  0  0  0  0  0  0  0  0  0
    8.9876  -14.7721   16.9798 C   0  0  0  0  0  0  0  0  0  0  0  0
   10.1723  -14.7793   16.6029 O   0  0  0  0  0  0  0  0  0  0  0  0
    8.6350  -14.2570   18.2375 N   0  0  0  0  0  0  0  0  0  0  0  0
    7.2955  -14.2818   18.7885 C   0  0  0  0  0  0  0  0  0  0  0  0
    7.3580  -13.5873   20.1234 C   0  0  0  0  0  0  0  0  0  0  0  0
    8.5947  -12.7266   19.9828 C   0  0  0  0  0  0  0  0  0  0  0  0
    9.5247  -13.6157   19.2042 C   0  0  1  0  0  0  0  0  0  0  0  0
   10.1941  -14.6189   20.0613 C   0  0  0  0  0  0  0  0  0  0  0  0
    9.6267  -15.7154   20.2474 O   0  0  0  0  0  0  0  0  0  0  0  0
   11.4473  -14.3277   20.6490 N   0  0  0  0  0  0  0  0  0  0  0  0
   12.2573  -15.3728   21.3013 C   0  0  1  0  0  0  0  0  0  0  0  0
   13.6348  -14.8235   21.4343 C   0  0  0  0  0  0  0  0  0  0  0  0
   14.6406  -15.6851   22.0350 C   0  0  0  0  0  0  0  0  0  0  0  0
   14.5125  -16.2255   23.1529 O   0  0  0  0  0  0  0  0  0  0  0  0
   11.6250  -15.7806   22.5686 C   0  0  0  0  0  0  0  0  0  0  0  0
   11.7193  -16.8915   23.1240 O   0  0  0  0  0  0  0  0  0  0  0  0
   15.8082  -15.9182   21.3230 O   0  0  0  0  0  0  0  0  0  0  0  0
   10.8247  -14.8394   23.2467 O   0  0  0  0  0  0  0  0  0  0  0  0
  2  1  1  0
  3  2  1  0
  4  3  2  0
  5  9  1  0
  5  3  1  0
  6  5  1  0
  7  6  1  0
  7  8  1  0
  8  9  1  0
  9 10  1  1
 10 12  1  0
 11 10  2  0
 13 12  1  0
 13 14  1  1
 14 15  1  0
 15 19  1  0
 16 15  2  0
 17 13  1  0
 18 17  2  0
 20 17  1  0
M  END
$$$$
