GPD.pdb
     RDKit          3D

 20 20  0  0  1  0  0  0  0  0999 V2000
    8.1020  -16.2253   15.3108 N   0  0  0  0  0  0  0  0  0  0  0  0
    7.6683  -15.5038   16.4948 C   0  0  0  0  0  0  0  0  0  0  0  0
    8.7994  -15.1630   17.3786 C   0  0  0  0  0  0  0  0  0  0  0  0
    9.9360  -15.5899   17.1112 O   0  0  0  0  0  0  0  0  0  0  0  0
    8.5789  -14.3613   18.5100 N   0  0  0  0  0  0  0  0  0  0  0  0
    7.2859  -13.8461   18.9115 C   0  0  0  0  0  0  0  0  0  0  0  0
    7.5119  -13.0043   20.1397 C   0  0  0  0  0  0  0  0  0  0  0  0
    8.9763  -12.6421   20.0188 C   0  0  0  0  0  0  0  0  0  0  0  0
    9.5811  -13.9058   19.4719 C   0  0  1  0  0  0  0  0  0  0  0  0
    9.8122  -14.9206   20.5235 C   0  0  0  0  0  0  0  0  0  0  0  0
    8.8607  -15.6558   20.8596 O   0  0  0  0  0  0  0  0  0  0  0  0
   11.0868  -15.0428   21.1243 N   0  0  0  0  0  0  0  0  0  0  0  0
   11.4347  -16.1976   21.9725 C   0  0  1  0  0  0  0  0  0  0  0  0
   12.9149  -16.3450   21.9057 C   0  0  0  0  0  0  0  0  0  0  0  0
   13.5162  -17.3995   22.7065 C   0  0  0  0  0  0  0  0  0  0  0  0
   13.4816  -17.4280   23.9539 O   0  0  0  0  0  0  0  0  0  0  0  0
   10.8889  -16.0076   23.3282 C   0  0  0  0  0  0  0  0  0  0  0  0
   10.6106  -16.9008   24.1507 O   0  0  0  0  0  0  0  0  0  0  0  0
   14.1648  -18.4313   22.0439 O   0  0  0  0  0  0  0  0  0  0  0  0
   10.6453  -14.6916   23.7699 O   0  0  0  0  0  0  0  0  0  0  0  0
  2  1  1  0
  3  2  1  0
  4  3  2  0
  5  9  1  0
  5  3  1  0
  6  5  1  0
  7  6  1  0
  7  8  1  0
  8  9  1  0
  9 10  1  1
 10 12  1  0
 11 10  2  0
 13 12  1  0
 13 14  1  1
 14 15  1  0
 15 19  1  0
 16 15  2  0
 17 13  1  0
 18 17  2  0
 20 17  1  0
M  END
$$$$
