GPD.pdb
     RDKit          3D

 20 20  0  0  1  0  0  0  0  0999 V2000
    5.0004  -18.6422   20.6450 N   0  0  0  0  0  0  0  0  0  0  0  0
    5.4991  -17.6910   21.6234 C   0  0  0  0  0  0  0  0  0  0  0  0
    6.8756  -17.2564   21.3186 C   0  0  0  0  0  0  0  0  0  0  0  0
    7.5786  -17.9393   20.5537 O   0  0  0  0  0  0  0  0  0  0  0  0
    7.3749  -16.0777   21.8956 N   0  0  0  0  0  0  0  0  0  0  0  0
    6.6285  -15.2259   22.7988 C   0  0  0  0  0  0  0  0  0  0  0  0
    7.5177  -14.0576   23.1344 C   0  0  0  0  0  0  0  0  0  0  0  0
    8.4794  -14.0369   21.9662 C   0  0  0  0  0  0  0  0  0  0  0  0
    8.7039  -15.5003   21.7020 C   0  0  1  0  0  0  0  0  0  0  0  0
    9.6863  -16.0967   22.6340 C   0  0  0  0  0  0  0  0  0  0  0  0
    9.2677  -16.5996   23.6972 O   0  0  0  0  0  0  0  0  0  0  0  0
   11.0640  -16.0894   22.3135 N   0  0  0  0  0  0  0  0  0  0  0  0
   11.9960  -17.0795   22.8836 C   0  0  1  0  0  0  0  0  0  0  0  0
   13.2238  -17.0432   22.0420 C   0  0  0  0  0  0  0  0  0  0  0  0
   14.3685  -17.8144   22.4999 C   0  0  0  0  0  0  0  0  0  0  0  0
   14.3005  -19.0063   22.8643 O   0  0  0  0  0  0  0  0  0  0  0  0
   12.2135  -16.7992   24.3140 C   0  0  0  0  0  0  0  0  0  0  0  0
   12.2249  -15.6796   24.8599 O   0  0  0  0  0  0  0  0  0  0  0  0
   15.6054  -17.1873   22.5328 O   0  0  0  0  0  0  0  0  0  0  0  0
   12.4342  -17.8887   25.1803 O   0  0  0  0  0  0  0  0  0  0  0  0
  2  1  1  0
  3  2  1  0
  4  3  2  0
  5  9  1  0
  5  3  1  0
  6  5  1  0
  7  6  1  0
  7  8  1  0
  8  9  1  0
  9 10  1  1
 10 12  1  0
 11 10  2  0
 13 12  1  0
 13 14  1  6
 14 15  1  0
 15 19  1  0
 16 15  2  0
 17 13  1  0
 18 17  2  0
 20 17  1  0
M  END
$$$$
