KIE.pdb
     RDKit          3D

 27 26  0  0  1  0  0  0  0  0999 V2000
    7.4253  -15.4122   19.9945 N   0  0  0  0  0  0  0  0  0  0  0  0
    7.1635  -16.0281   21.2910 C   0  0  1  0  0  0  0  0  0  0  0  0
    7.7055  -17.4338   21.1938 C   0  0  0  0  0  0  0  0  0  0  0  0
    6.6686  -18.4913   21.0064 C   0  0  0  0  0  0  0  0  0  0  0  0
    7.0037  -19.7560   21.7631 C   0  0  0  0  0  0  0  0  0  0  0  0
    6.0564  -20.8798   21.4360 C   0  0  0  0  0  0  0  0  0  0  0  0
    6.2759  -22.0170   22.2812 N   0  0  0  0  0  0  0  0  0  0  0  0
    7.9220  -15.3040   22.3589 C   0  0  0  0  0  0  0  0  0  0  0  0
    9.1425  -15.0568   22.1839 O   0  0  0  0  0  0  0  0  0  0  0  0
    6.9195  -11.5896   27.1053 C   0  0  0  0  0  0  0  0  0  0  0  0
    7.9320  -12.4506   26.3859 C   0  0  0  0  0  0  0  0  0  0  0  0
    7.1678  -13.2211   25.3055 C   0  0  2  0  0  0  0  0  0  0  0  0
    6.1890  -14.1110   26.0407 C   0  0  0  0  0  0  0  0  0  0  0  0
    8.1314  -14.0993   24.5261 C   0  0  2  0  0  0  0  0  0  0  0  0
    7.3415  -14.8812   23.5561 N   0  0  0  0  0  0  0  0  0  0  0  0
    8.7879  -15.0259   25.4671 C   0  0  0  0  0  0  0  0  0  0  0  0
    8.0630  -15.9988   25.9075 O   0  0  0  0  0  0  0  0  0  0  0  0
   10.1105  -14.9783   25.9358 N   0  0  0  0  0  0  0  0  0  0  0  0
   10.7087  -16.1476   26.6377 C   0  0  1  0  0  0  0  0  0  0  0  0
   12.1520  -16.2219   26.2674 C   0  0  0  0  0  0  0  0  0  0  0  0
   12.4866  -16.4113   24.8413 C   0  0  0  0  0  0  0  0  0  0  0  0
   13.9009  -16.2882   24.5258 C   0  0  0  0  0  0  0  0  0  0  0  0
   14.3623  -16.0420   23.3790 O   0  0  0  0  0  0  0  0  0  0  0  0
   10.3384  -16.0419   28.0340 C   0  0  0  0  0  0  0  0  0  0  0  0
    9.9146  -14.9920   28.5786 O   0  0  0  0  0  0  0  0  0  0  0  0
   14.8307  -16.4483   25.5666 O   0  0  0  0  0  0  0  0  0  0  0  0
   10.4245  -17.1384   28.9192 O   0  0  0  0  0  0  0  0  0  0  0  0
  2  1  1  6
  3  2  1  0
  4  3  1  0
  5  4  1  0
  5  6  1  0
  7  6  1  0
  8  9  2  0
  8  2  1  0
 11 10  1  0
 12 14  1  0
 12 11  1  0
 12 13  1  1
 14 15  1  6
 15  8  1  0
 16 14  1  0
 17 16  2  0
 18 16  1  0
 19 24  1  0
 19 18  1  0
 19 20  1  1
 21 20  1  0
 22 21  1  0
 23 22  2  0
 24 27  1  0
 25 24  2  0
 26 22  1  0
M  END
$$$$
