KIE.pdb
     RDKit          3D

 27 26  0  0  1  0  0  0  0  0999 V2000
    6.5006  -15.2436   21.2963 N   0  0  0  0  0  0  0  0  0  0  0  0
    7.9157  -14.9172   21.1563 C   0  0  1  0  0  0  0  0  0  0  0  0
    7.9626  -13.6207   20.3840 C   0  0  0  0  0  0  0  0  0  0  0  0
    7.2527  -13.6498   19.0711 C   0  0  0  0  0  0  0  0  0  0  0  0
    7.9737  -12.8411   18.0173 C   0  0  0  0  0  0  0  0  0  0  0  0
    8.8540  -13.6995   17.1482 C   0  0  0  0  0  0  0  0  0  0  0  0
    8.1248  -14.2563   16.0464 N   0  0  0  0  0  0  0  0  0  0  0  0
    8.5182  -14.6831   22.5061 C   0  0  0  0  0  0  0  0  0  0  0  0
    9.7620  -14.5258   22.6035 O   0  0  0  0  0  0  0  0  0  0  0  0
    5.7750  -11.9467   26.0556 C   0  0  0  0  0  0  0  0  0  0  0  0
    7.0247  -12.3768   25.3225 C   0  0  0  0  0  0  0  0  0  0  0  0
    7.4311  -13.7347   25.9020 C   0  0  2  0  0  0  0  0  0  0  0  0
    8.1132  -13.4387   27.2202 C   0  0  0  0  0  0  0  0  0  0  0  0
    8.4320  -14.4058   24.9775 C   0  0  2  0  0  0  0  0  0  0  0  0
    7.7653  -14.6288   23.6805 N   0  0  0  0  0  0  0  0  0  0  0  0
    8.8037  -15.7105   25.5557 C   0  0  0  0  0  0  0  0  0  0  0  0
    7.8924  -16.6243   25.5323 O   0  0  0  0  0  0  0  0  0  0  0  0
   10.0340  -16.0782   26.1234 N   0  0  0  0  0  0  0  0  0  0  0  0
   10.2904  -17.4876   26.5304 C   0  0  1  0  0  0  0  0  0  0  0  0
   11.2234  -18.0946   25.5371 C   0  0  0  0  0  0  0  0  0  0  0  0
   11.7477  -19.4455   25.8231 C   0  0  0  0  0  0  0  0  0  0  0  0
   12.6322  -19.9844   24.8023 C   0  0  0  0  0  0  0  0  0  0  0  0
   12.9531  -19.3854   23.7407 O   0  0  0  0  0  0  0  0  0  0  0  0
   10.6596  -17.4665   27.9308 C   0  0  0  0  0  0  0  0  0  0  0  0
   11.0638  -16.4466   28.5432 O   0  0  0  0  0  0  0  0  0  0  0  0
   13.1796  -21.2623   25.0040 O   0  0  0  0  0  0  0  0  0  0  0  0
   10.5926  -18.6194   28.7430 O   0  0  0  0  0  0  0  0  0  0  0  0
  2  1  1  1
  3  2  1  0
  4  3  1  0
  5  4  1  0
  5  6  1  0
  7  6  1  0
  8  9  2  0
  8  2  1  0
 11 10  1  0
 12 14  1  0
 12 11  1  0
 12 13  1  1
 14 15  1  6
 15  8  1  0
 16 14  1  0
 17 16  2  0
 18 16  1  0
 19 24  1  0
 19 18  1  0
 19 20  1  6
 21 20  1  0
 22 21  1  0
 23 22  2  0
 24 27  1  0
 25 24  2  0
 26 22  1  0
M  END
$$$$
