KIE.pdb
     RDKit          3D

 27 26  0  0  1  0  0  0  0  0999 V2000
   10.2212  -18.3063   16.9576 N   0  0  0  0  0  0  0  0  0  0  0  0
    9.1490  -18.2106   17.9424 C   0  0  1  0  0  0  0  0  0  0  0  0
    9.0415  -19.5816   18.5655 C   0  0  0  0  0  0  0  0  0  0  0  0
   10.1880  -20.4920   18.2732 C   0  0  0  0  0  0  0  0  0  0  0  0
    9.9489  -21.8913   18.7920 C   0  0  0  0  0  0  0  0  0  0  0  0
   11.0575  -22.8351   18.4079 C   0  0  0  0  0  0  0  0  0  0  0  0
   10.9006  -24.1152   19.0343 N   0  0  0  0  0  0  0  0  0  0  0  0
    9.5288  -17.2357   19.0126 C   0  0  0  0  0  0  0  0  0  0  0  0
   10.7431  -17.0862   19.3031 O   0  0  0  0  0  0  0  0  0  0  0  0
    6.4787  -12.7349   20.1623 C   0  0  0  0  0  0  0  0  0  0  0  0
    7.7021  -13.5625   19.8420 C   0  0  0  0  0  0  0  0  0  0  0  0
    7.8822  -14.5498   20.9986 C   0  0  2  0  0  0  0  0  0  0  0  0
    8.2217  -13.7128   22.2129 C   0  0  0  0  0  0  0  0  0  0  0  0
    9.0510  -15.4741   20.7039 C   0  0  2  0  0  0  0  0  0  0  0  0
    8.5963  -16.4715   19.7167 N   0  0  0  0  0  0  0  0  0  0  0  0
    9.4255  -16.1690   21.9495 C   0  0  0  0  0  0  0  0  0  0  0  0
    8.6707  -17.1555   22.3004 O   0  0  0  0  0  0  0  0  0  0  0  0
   10.5100  -15.8883   22.7958 N   0  0  0  0  0  0  0  0  0  0  0  0
   11.0104  -16.9138   23.7527 C   0  0  1  0  0  0  0  0  0  0  0  0
   12.4206  -17.2378   23.3895 C   0  0  0  0  0  0  0  0  0  0  0  0
   13.1585  -18.1712   24.2646 C   0  0  0  0  0  0  0  0  0  0  0  0
   14.5279  -18.4377   23.8540 C   0  0  0  0  0  0  0  0  0  0  0  0
   15.5161  -17.7060   24.1310 O   0  0  0  0  0  0  0  0  0  0  0  0
   10.7131  -16.4334   25.0864 C   0  0  0  0  0  0  0  0  0  0  0  0
   10.9262  -17.0846   26.1395 O   0  0  0  0  0  0  0  0  0  0  0  0
   14.7823  -19.5937   23.0976 O   0  0  0  0  0  0  0  0  0  0  0  0
   10.1461  -15.1613   25.3179 O   0  0  0  0  0  0  0  0  0  0  0  0
  2  1  1  6
  3  2  1  0
  4  3  1  0
  5  4  1  0
  5  6  1  0
  7  6  1  0
  8  9  2  0
  8  2  1  0
 11 10  1  0
 12 14  1  0
 12 11  1  0
 12 13  1  1
 14 15  1  6
 15  8  1  0
 16 14  1  0
 17 16  2  0
 18 16  1  0
 19 24  1  0
 19 18  1  0
 19 20  1  1
 21 20  1  0
 22 21  1  0
 23 22  2  0
 24 27  1  0
 25 24  2  0
 26 22  1  0
M  END
$$$$
