KIE.pdb
     RDKit          3D

 27 26  0  0  1  0  0  0  0  0999 V2000
    6.8247  -16.7110   22.3744 N   0  0  0  0  0  0  0  0  0  0  0  0
    8.2623  -16.5480   22.1858 C   0  0  1  0  0  0  0  0  0  0  0  0
    8.4254  -15.8677   20.8479 C   0  0  0  0  0  0  0  0  0  0  0  0
    7.6439  -16.4833   19.7349 C   0  0  0  0  0  0  0  0  0  0  0  0
    8.5347  -16.9584   18.6101 C   0  0  0  0  0  0  0  0  0  0  0  0
    7.7481  -17.5909   17.4929 C   0  0  0  0  0  0  0  0  0  0  0  0
    8.5901  -17.9360   16.3850 N   0  0  0  0  0  0  0  0  0  0  0  0
    8.8134  -15.6443   23.2438 C   0  0  0  0  0  0  0  0  0  0  0  0
   10.0240  -15.3080   23.1934 O   0  0  0  0  0  0  0  0  0  0  0  0
    5.9375  -11.8962   25.9802 C   0  0  0  0  0  0  0  0  0  0  0  0
    7.0651  -12.5651   25.2285 C   0  0  0  0  0  0  0  0  0  0  0  0
    7.6286  -13.6494   26.1514 C   0  0  2  0  0  0  0  0  0  0  0  0
    8.2746  -12.9184   27.3085 C   0  0  0  0  0  0  0  0  0  0  0  0
    8.6989  -14.4391   25.4178 C   0  0  2  0  0  0  0  0  0  0  0  0
    8.0471  -15.1463   24.2992 N   0  0  0  0  0  0  0  0  0  0  0  0
    9.2681  -15.4332   26.3465 C   0  0  0  0  0  0  0  0  0  0  0  0
    8.4509  -16.3249   26.7973 O   0  0  0  0  0  0  0  0  0  0  0  0
   10.5955  -15.5282   26.7937 N   0  0  0  0  0  0  0  0  0  0  0  0
   11.0304  -16.6734   27.6404 C   0  0  1  0  0  0  0  0  0  0  0  0
   12.3907  -17.0911   27.1922 C   0  0  0  0  0  0  0  0  0  0  0  0
   12.4866  -17.9402   25.9874 C   0  0  0  0  0  0  0  0  0  0  0  0
   13.8426  -18.2885   25.5940 C   0  0  0  0  0  0  0  0  0  0  0  0
   14.8787  -17.6752   25.9668 O   0  0  0  0  0  0  0  0  0  0  0  0
   10.8257  -16.2850   29.0207 C   0  0  0  0  0  0  0  0  0  0  0  0
   11.0450  -17.0305   30.0080 O   0  0  0  0  0  0  0  0  0  0  0  0
   14.0253  -19.3894   24.7407 O   0  0  0  0  0  0  0  0  0  0  0  0
   10.3520  -15.0040   29.3784 O   0  0  0  0  0  0  0  0  0  0  0  0
  2  1  1  1
  3  2  1  0
  4  3  1  0
  5  4  1  0
  5  6  1  0
  7  6  1  0
  8  9  2  0
  8  2  1  0
 11 10  1  0
 12 14  1  0
 12 11  1  0
 12 13  1  1
 14 15  1  6
 15  8  1  0
 16 14  1  0
 17 16  2  0
 18 16  1  0
 19 24  1  0
 19 18  1  0
 19 20  1  1
 21 20  1  0
 22 21  1  0
 23 22  2  0
 24 27  1  0
 25 24  2  0
 26 22  1  0
M  END
$$$$
