KIE.pdb
     RDKit          3D

 27 26  0  0  1  0  0  0  0  0999 V2000
    8.8758  -18.2602   17.8466 N   0  0  0  0  0  0  0  0  0  0  0  0
   10.2295  -18.1628   18.3820 C   0  0  1  0  0  0  0  0  0  0  0  0
   11.1109  -17.8158   17.2064 C   0  0  0  0  0  0  0  0  0  0  0  0
   12.1194  -18.8582   16.8528 C   0  0  0  0  0  0  0  0  0  0  0  0
   12.9196  -18.4819   15.6271 C   0  0  0  0  0  0  0  0  0  0  0  0
   13.8193  -19.6004   15.1724 C   0  0  0  0  0  0  0  0  0  0  0  0
   14.3783  -19.3347   13.8792 N   0  0  0  0  0  0  0  0  0  0  0  0
   10.3039  -17.0436   19.3727 C   0  0  0  0  0  0  0  0  0  0  0  0
   11.4298  -16.5948   19.7075 O   0  0  0  0  0  0  0  0  0  0  0  0
    6.7464  -12.9082   19.8934 C   0  0  0  0  0  0  0  0  0  0  0  0
    8.0630  -13.6492   19.8521 C   0  0  0  0  0  0  0  0  0  0  0  0
    8.0662  -14.6102   21.0443 C   0  0  2  0  0  0  0  0  0  0  0  0
    8.0891  -13.7397   22.2821 C   0  0  0  0  0  0  0  0  0  0  0  0
    9.3306  -15.4515   21.0189 C   0  0  2  0  0  0  0  0  0  0  0  0
    9.1763  -16.4613   19.9547 N   0  0  0  0  0  0  0  0  0  0  0  0
    9.4628  -16.1394   22.3166 C   0  0  0  0  0  0  0  0  0  0  0  0
    8.5458  -17.0026   22.5997 O   0  0  0  0  0  0  0  0  0  0  0  0
   10.4718  -15.9709   23.2782 N   0  0  0  0  0  0  0  0  0  0  0  0
   10.5143  -16.8327   24.4919 C   0  0  1  0  0  0  0  0  0  0  0  0
   11.9135  -17.3204   24.6655 C   0  0  0  0  0  0  0  0  0  0  0  0
   12.5176  -18.0842   23.5550 C   0  0  0  0  0  0  0  0  0  0  0  0
   13.8851  -18.5205   23.7888 C   0  0  0  0  0  0  0  0  0  0  0  0
   14.8321  -18.3864   22.9679 O   0  0  0  0  0  0  0  0  0  0  0  0
    9.8827  -16.0910   25.5638 C   0  0  0  0  0  0  0  0  0  0  0  0
    9.5667  -14.8768   25.4968 O   0  0  0  0  0  0  0  0  0  0  0  0
   14.1870  -19.1329   25.0165 O   0  0  0  0  0  0  0  0  0  0  0  0
    9.5614  -16.6873   26.8025 O   0  0  0  0  0  0  0  0  0  0  0  0
  2  1  1  6
  3  2  1  0
  4  3  1  0
  5  4  1  0
  5  6  1  0
  7  6  1  0
  8  9  2  0
  8  2  1  0
 11 10  1  0
 12 14  1  0
 12 11  1  0
 12 13  1  1
 14 15  1  6
 15  8  1  0
 16 14  1  0
 17 16  2  0
 18 16  1  0
 19 24  1  0
 19 18  1  0
 19 20  1  1
 21 20  1  0
 22 21  1  0
 23 22  2  0
 24 27  1  0
 25 24  2  0
 26 22  1  0
M  END
$$$$
