KIE.pdb
     RDKit          3D

 27 26  0  0  1  0  0  0  0  0999 V2000
    8.2937  -15.3580   20.5817 N   0  0  0  0  0  0  0  0  0  0  0  0
    7.8518  -15.9819   21.8244 C   0  0  1  0  0  0  0  0  0  0  0  0
    8.3436  -17.4080   21.7643 C   0  0  0  0  0  0  0  0  0  0  0  0
    7.7680  -18.2208   20.6522 C   0  0  0  0  0  0  0  0  0  0  0  0
    8.1769  -19.6732   20.7394 C   0  0  0  0  0  0  0  0  0  0  0  0
    7.5606  -20.5020   19.6437 C   0  0  0  0  0  0  0  0  0  0  0  0
    7.9021  -21.8882   19.7759 N   0  0  0  0  0  0  0  0  0  0  0  0
    8.5043  -15.3077   22.9904 C   0  0  0  0  0  0  0  0  0  0  0  0
    9.7146  -14.9765   22.9088 O   0  0  0  0  0  0  0  0  0  0  0  0
    5.7748  -11.9855   26.3332 C   0  0  0  0  0  0  0  0  0  0  0  0
    6.8430  -12.5457   25.4226 C   0  0  0  0  0  0  0  0  0  0  0  0
    7.5071  -13.6996   26.1792 C   0  0  2  0  0  0  0  0  0  0  0  0
    8.2108  -13.0722   27.3632 C   0  0  0  0  0  0  0  0  0  0  0  0
    8.5469  -14.3613   25.2914 C   0  0  2  0  0  0  0  0  0  0  0  0
    7.8342  -15.0216   24.1813 N   0  0  0  0  0  0  0  0  0  0  0  0
    9.2561  -15.3847   26.0816 C   0  0  0  0  0  0  0  0  0  0  0  0
    8.5230  -16.3088   26.6058 O   0  0  0  0  0  0  0  0  0  0  0  0
   10.6356  -15.4763   26.3261 N   0  0  0  0  0  0  0  0  0  0  0  0
   11.2003  -16.6447   27.0567 C   0  0  1  0  0  0  0  0  0  0  0  0
   12.6386  -16.7743   26.6825 C   0  0  0  0  0  0  0  0  0  0  0  0
   13.0063  -16.5327   25.2726 C   0  0  0  0  0  0  0  0  0  0  0  0
   14.4345  -16.5684   25.0007 C   0  0  0  0  0  0  0  0  0  0  0  0
   15.2951  -15.8576   25.5861 O   0  0  0  0  0  0  0  0  0  0  0  0
   10.8404  -16.4900   28.4512 C   0  0  0  0  0  0  0  0  0  0  0  0
   10.4269  -15.4198   28.9632 O   0  0  0  0  0  0  0  0  0  0  0  0
   14.9026  -17.4588   24.0203 O   0  0  0  0  0  0  0  0  0  0  0  0
   10.9261  -17.5568   29.3720 O   0  0  0  0  0  0  0  0  0  0  0  0
  2  1  1  6
  3  2  1  0
  4  3  1  0
  5  4  1  0
  5  6  1  0
  7  6  1  0
  8  9  2  0
  8  2  1  0
 11 10  1  0
 12 14  1  0
 12 11  1  0
 12 13  1  1
 14 15  1  6
 15  8  1  0
 16 14  1  0
 17 16  2  0
 18 16  1  0
 19 24  1  0
 19 18  1  0
 19 20  1  1
 21 20  1  0
 22 21  1  0
 23 22  2  0
 24 27  1  0
 25 24  2  0
 26 22  1  0
M  END
$$$$
