KIE.pdb
     RDKit          3D

 27 26  0  0  1  0  0  0  0  0999 V2000
    7.5345  -14.9202   20.3445 N   0  0  0  0  0  0  0  0  0  0  0  0
    6.9135  -15.4125   21.5695 C   0  0  1  0  0  0  0  0  0  0  0  0
    6.9177  -16.9179   21.4547 C   0  0  0  0  0  0  0  0  0  0  0  0
    6.1582  -17.4574   20.2882 C   0  0  0  0  0  0  0  0  0  0  0  0
    6.1514  -18.9685   20.2645 C   0  0  0  0  0  0  0  0  0  0  0  0
    5.4432  -19.5129   19.0523 C   0  0  0  0  0  0  0  0  0  0  0  0
    5.5647  -20.9389   18.9670 N   0  0  0  0  0  0  0  0  0  0  0  0
    7.7479  -15.0282   22.7510 C   0  0  0  0  0  0  0  0  0  0  0  0
    9.0010  -15.0779   22.6590 O   0  0  0  0  0  0  0  0  0  0  0  0
    5.8130  -11.4125   26.3630 C   0  0  0  0  0  0  0  0  0  0  0  0
    6.7404  -12.0811   25.3745 C   0  0  0  0  0  0  0  0  0  0  0  0
    7.2425  -13.3657   26.0397 C   0  0  2  0  0  0  0  0  0  0  0  0
    8.1219  -12.9241   27.1896 C   0  0  0  0  0  0  0  0  0  0  0  0
    8.0898  -14.1533   25.0553 C   0  0  2  0  0  0  0  0  0  0  0  0
    7.2046  -14.6112   23.9676 N   0  0  0  0  0  0  0  0  0  0  0  0
    8.6440  -15.3303   25.7497 C   0  0  0  0  0  0  0  0  0  0  0  0
    7.7895  -16.2131   26.1450 O   0  0  0  0  0  0  0  0  0  0  0  0
    9.9924  -15.6072   26.0262 N   0  0  0  0  0  0  0  0  0  0  0  0
   10.4195  -16.9780   26.4212 C   0  0  1  0  0  0  0  0  0  0  0  0
   11.4774  -17.4262   25.4695 C   0  0  0  0  0  0  0  0  0  0  0  0
   12.6218  -18.1807   26.0198 C   0  0  0  0  0  0  0  0  0  0  0  0
   13.7958  -18.2181   25.1623 C   0  0  0  0  0  0  0  0  0  0  0  0
   13.9224  -17.5693   24.0892 O   0  0  0  0  0  0  0  0  0  0  0  0
   10.7094  -16.9421   27.8398 C   0  0  0  0  0  0  0  0  0  0  0  0
   10.9910  -17.9517   28.5327 O   0  0  0  0  0  0  0  0  0  0  0  0
   14.8762  -19.0282   25.5492 O   0  0  0  0  0  0  0  0  0  0  0  0
   10.7001  -15.7389   28.5784 O   0  0  0  0  0  0  0  0  0  0  0  0
  2  1  1  6
  3  2  1  0
  4  3  1  0
  5  4  1  0
  5  6  1  0
  7  6  1  0
  8  9  2  0
  8  2  1  0
 11 10  1  0
 12 14  1  0
 12 11  1  0
 12 13  1  1
 14 15  1  6
 15  8  1  0
 16 14  1  0
 17 16  2  0
 18 16  1  0
 19 24  1  0
 19 18  1  0
 19 20  1  6
 21 20  1  0
 22 21  1  0
 23 22  2  0
 24 27  1  0
 25 24  2  0
 26 22  1  0
M  END
$$$$
