KIE.pdb
     RDKit          3D

 27 26  0  0  1  0  0  0  0  0999 V2000
    7.3311  -14.5631   20.1721 N   0  0  0  0  0  0  0  0  0  0  0  0
    6.7919  -15.2136   21.3616 C   0  0  1  0  0  0  0  0  0  0  0  0
    6.8519  -16.6957   21.0808 C   0  0  0  0  0  0  0  0  0  0  0  0
    5.8818  -17.1764   20.0528 C   0  0  0  0  0  0  0  0  0  0  0  0
    6.5595  -17.9689   18.9588 C   0  0  0  0  0  0  0  0  0  0  0  0
    5.5930  -18.3936   17.8851 C   0  0  0  0  0  0  0  0  0  0  0  0
    6.2329  -19.2041   16.8905 N   0  0  0  0  0  0  0  0  0  0  0  0
    7.6672  -14.9219   22.5400 C   0  0  0  0  0  0  0  0  0  0  0  0
    8.9162  -14.9405   22.3958 O   0  0  0  0  0  0  0  0  0  0  0  0
    5.8797  -11.5790   26.4560 C   0  0  0  0  0  0  0  0  0  0  0  0
    6.7516  -12.1976   25.3876 C   0  0  0  0  0  0  0  0  0  0  0  0
    7.2758  -13.5192   25.9564 C   0  0  2  0  0  0  0  0  0  0  0  0
    8.1952  -13.1464   27.0993 C   0  0  0  0  0  0  0  0  0  0  0  0
    8.0875  -14.2450   24.8974 C   0  0  2  0  0  0  0  0  0  0  0  0
    7.1669  -14.6258   23.8094 N   0  0  0  0  0  0  0  0  0  0  0  0
    8.6535  -15.4680   25.4962 C   0  0  0  0  0  0  0  0  0  0  0  0
    7.8033  -16.3205   25.9616 O   0  0  0  0  0  0  0  0  0  0  0  0
   10.0081  -15.8178   25.6143 N   0  0  0  0  0  0  0  0  0  0  0  0
   10.4048  -17.1264   26.2041 C   0  0  1  0  0  0  0  0  0  0  0  0
   11.5215  -17.6838   25.3870 C   0  0  0  0  0  0  0  0  0  0  0  0
   11.2957  -17.8493   23.9367 C   0  0  0  0  0  0  0  0  0  0  0  0
   12.4468  -18.3350   23.1924 C   0  0  0  0  0  0  0  0  0  0  0  0
   13.5908  -18.5287   23.6846 O   0  0  0  0  0  0  0  0  0  0  0  0
   10.6012  -16.9124   27.6231 C   0  0  0  0  0  0  0  0  0  0  0  0
   10.6642  -15.7824   28.1686 O   0  0  0  0  0  0  0  0  0  0  0  0
   12.2841  -18.6175   21.8260 O   0  0  0  0  0  0  0  0  0  0  0  0
   10.7404  -17.9835   28.5323 O   0  0  0  0  0  0  0  0  0  0  0  0
  2  1  1  6
  3  2  1  0
  4  3  1  0
  5  4  1  0
  5  6  1  0
  7  6  1  0
  8  9  2  0
  8  2  1  0
 11 10  1  0
 12 14  1  0
 12 11  1  0
 12 13  1  1
 14 15  1  6
 15  8  1  0
 16 14  1  0
 17 16  2  0
 18 16  1  0
 19 24  1  0
 19 18  1  0
 19 20  1  6
 21 20  1  0
 22 21  1  0
 23 22  2  0
 24 27  1  0
 25 24  2  0
 26 22  1  0
M  END
$$$$
