KIE.pdb
     RDKit          3D

 27 26  0  0  1  0  0  0  0  0999 V2000
    8.6970  -18.0228   16.5862 N   0  0  0  0  0  0  0  0  0  0  0  0
    8.0534  -18.0396   17.8955 C   0  0  1  0  0  0  0  0  0  0  0  0
    8.1401  -19.4681   18.3763 C   0  0  0  0  0  0  0  0  0  0  0  0
    7.9830  -20.4977   17.3067 C   0  0  0  0  0  0  0  0  0  0  0  0
    7.0139  -21.5870   17.7046 C   0  0  0  0  0  0  0  0  0  0  0  0
    6.7774  -22.5702   16.5890 C   0  0  0  0  0  0  0  0  0  0  0  0
    5.8387  -23.5845   16.9704 N   0  0  0  0  0  0  0  0  0  0  0  0
    8.8185  -17.1751   18.8479 C   0  0  0  0  0  0  0  0  0  0  0  0
   10.0657  -17.0772   18.7208 O   0  0  0  0  0  0  0  0  0  0  0  0
    6.9091  -12.4055   20.6766 C   0  0  0  0  0  0  0  0  0  0  0  0
    7.7745  -13.4976   20.0912 C   0  0  0  0  0  0  0  0  0  0  0  0
    8.1073  -14.4584   21.2362 C   0  0  2  0  0  0  0  0  0  0  0  0
    8.8585  -13.6394   22.2635 C   0  0  0  0  0  0  0  0  0  0  0  0
    9.0227  -15.5595   20.7294 C   0  0  2  0  0  0  0  0  0  0  0  0
    8.2159  -16.4606   19.8850 N   0  0  0  0  0  0  0  0  0  0  0  0
    9.5321  -16.3167   21.8879 C   0  0  0  0  0  0  0  0  0  0  0  0
    8.6784  -17.0701   22.4958 O   0  0  0  0  0  0  0  0  0  0  0  0
   10.8378  -16.3197   22.4040 N   0  0  0  0  0  0  0  0  0  0  0  0
   11.2162  -17.2495   23.5040 C   0  0  1  0  0  0  0  0  0  0  0  0
   12.6859  -17.4917   23.4213 C   0  0  0  0  0  0  0  0  0  0  0  0
   13.2022  -18.1814   22.2216 C   0  0  0  0  0  0  0  0  0  0  0  0
   14.6521  -18.2572   22.1390 C   0  0  0  0  0  0  0  0  0  0  0  0
   15.2991  -18.5201   21.0897 O   0  0  0  0  0  0  0  0  0  0  0  0
   10.6522  -16.7154   24.7266 C   0  0  0  0  0  0  0  0  0  0  0  0
   10.2008  -15.5494   24.8501 O   0  0  0  0  0  0  0  0  0  0  0  0
   15.3979  -18.0174   23.3050 O   0  0  0  0  0  0  0  0  0  0  0  0
   10.5604  -17.4814   25.9091 O   0  0  0  0  0  0  0  0  0  0  0  0
  2  1  1  6
  3  2  1  0
  4  3  1  0
  5  4  1  0
  5  6  1  0
  7  6  1  0
  8  9  2  0
  8  2  1  0
 11 10  1  0
 12 14  1  0
 12 11  1  0
 12 13  1  1
 14 15  1  6
 15  8  1  0
 16 14  1  0
 17 16  2  0
 18 16  1  0
 19 24  1  0
 19 18  1  0
 19 20  1  1
 21 20  1  0
 22 21  1  0
 23 22  2  0
 24 27  1  0
 25 24  2  0
 26 22  1  0
M  END
$$$$
