IPM.pdb
     RDKit          3D

 24 24  0  0  1  0  0  0  0  0999 V2000
    8.4913  -20.3907   20.7625 C   0  0  0  0  0  0  0  0  0  0  0  0
    9.6035  -19.3884   20.4597 C   0  0  0  0  0  0  0  0  0  0  0  0
    9.0649  -18.4688   19.3904 C   0  0  2  0  0  0  0  0  0  0  0  0
    9.0315  -19.2780   18.0954 C   0  0  0  0  0  0  0  0  0  0  0  0
    9.9590  -17.2753   19.1360 C   0  0  2  0  0  0  0  0  0  0  0  0
   11.2898  -17.6717   18.8262 N   0  0  0  0  0  0  0  0  0  0  0  0
    9.8594  -16.2607   20.1992 C   0  0  0  0  0  0  0  0  0  0  0  0
   10.7233  -16.2042   21.1204 O   0  0  0  0  0  0  0  0  0  0  0  0
    8.7775  -15.2927   20.2358 N   0  0  0  0  0  0  0  0  0  0  0  0
    7.9400  -15.0166   19.0935 C   0  0  0  0  0  0  0  0  0  0  0  0
    7.0366  -13.8472   19.5005 C   0  0  0  0  0  0  0  0  0  0  0  0
    7.0115  -13.9678   21.0031 C   0  0  0  0  0  0  0  0  0  0  0  0
    8.3767  -14.4905   21.3293 C   0  0  1  0  0  0  0  0  0  0  0  0
    8.2435  -15.2819   22.6062 C   0  0  0  0  0  0  0  0  0  0  0  0
    8.0759  -16.5177   22.6478 O   0  0  0  0  0  0  0  0  0  0  0  0
    5.7944  -11.0727   27.5264 C   0  0  0  0  0  0  0  0  0  0  0  0
    6.7021  -12.6144   27.8253 S   0  0  0  0  0  0  0  0  0  0  0  0
    7.4190  -13.1676   26.2874 C   0  0  0  0  0  0  0  0  0  0  0  0
    8.1772  -14.4593   26.3529 C   0  0  0  0  0  0  0  0  0  0  0  0
    8.1744  -15.2931   25.1212 C   0  0  2  0  0  0  0  0  0  0  0  0
    8.3082  -14.6084   23.8771 N   0  0  0  0  0  0  0  0  0  0  0  0
    6.8797  -16.0379   25.0911 C   0  0  0  0  0  0  0  0  0  0  0  0
    5.9100  -15.7799   24.1376 O   0  0  0  0  0  0  0  0  0  0  0  0
    6.6373  -16.9291   25.9435 O   0  0  0  0  0  0  0  0  0  0  0  0
  2  3  1  0
  2  1  1  0
  3  5  1  0
  3  4  1  6
  5  6  1  1
  7  5  1  0
  8  7  2  0
  9  7  1  0
  9 10  1  0
 10 11  1  0
 12 11  1  0
 13 12  1  0
 13  9  1  0
 13 14  1  1
 15 14  2  0
 17 16  1  0
 17 18  1  0
 18 19  1  0
 20 19  1  1
 20 21  1  0
 21 14  1  0
 22 20  1  0
 22 23  1  0
 24 22  2  0
M  END
$$$$
