IPM.pdb
     RDKit          3D

 24 24  0  0  1  0  0  0  0  0999 V2000
    6.3479  -11.3106   26.9250 C   0  0  0  0  0  0  0  0  0  0  0  0
    5.7275  -12.5677   26.3182 C   0  0  0  0  0  0  0  0  0  0  0  0
    6.8772  -13.4042   25.8104 C   0  0  2  0  0  0  0  0  0  0  0  0
    7.5519  -12.5934   24.7057 C   0  0  0  0  0  0  0  0  0  0  0  0
    6.4262  -14.7049   25.1832 C   0  0  2  0  0  0  0  0  0  0  0  0
    5.5589  -15.4317   26.0457 N   0  0  0  0  0  0  0  0  0  0  0  0
    7.5510  -15.4918   24.6492 C   0  0  0  0  0  0  0  0  0  0  0  0
    8.2559  -16.2111   25.4134 O   0  0  0  0  0  0  0  0  0  0  0  0
    7.8958  -15.4761   23.2386 N   0  0  0  0  0  0  0  0  0  0  0  0
    7.0910  -14.8042   22.2472 C   0  0  0  0  0  0  0  0  0  0  0  0
    7.7115  -15.1502   20.8891 C   0  0  0  0  0  0  0  0  0  0  0  0
    9.1380  -15.4685   21.2588 C   0  0  0  0  0  0  0  0  0  0  0  0
    9.0120  -16.0840   22.6184 C   0  0  1  0  0  0  0  0  0  0  0  0
   10.3021  -15.7968   23.3448 C   0  0  0  0  0  0  0  0  0  0  0  0
   10.8826  -14.6923   23.3272 O   0  0  0  0  0  0  0  0  0  0  0  0
    9.7247  -13.8094   28.3720 C   0  0  0  0  0  0  0  0  0  0  0  0
   10.6357  -15.3437   28.6973 S   0  0  0  0  0  0  0  0  0  0  0  0
   10.7749  -16.2642   27.1746 C   0  0  0  0  0  0  0  0  0  0  0  0
   11.7661  -15.7321   26.1835 C   0  0  0  0  0  0  0  0  0  0  0  0
   12.0341  -16.5817   24.9923 C   0  0  2  0  0  0  0  0  0  0  0  0
   10.9358  -16.8331   24.1176 N   0  0  0  0  0  0  0  0  0  0  0  0
   12.5284  -17.9011   25.4890 C   0  0  0  0  0  0  0  0  0  0  0  0
   13.6820  -18.0115   26.2459 O   0  0  0  0  0  0  0  0  0  0  0  0
   11.8990  -18.9569   25.2272 O   0  0  0  0  0  0  0  0  0  0  0  0
  2  3  1  0
  2  1  1  0
  3  5  1  0
  3  4  1  6
  5  6  1  1
  7  5  1  0
  8  7  2  0
  9  7  1  0
  9 10  1  0
 10 11  1  0
 12 11  1  0
 13 12  1  0
 13  9  1  0
 13 14  1  1
 15 14  2  0
 17 16  1  0
 17 18  1  0
 18 19  1  0
 20 19  1  1
 20 21  1  0
 21 14  1  0
 22 20  1  0
 22 23  1  0
 24 22  2  0
M  END
$$$$
