IPM.pdb
     RDKit          3D

 24 24  0  0  1  0  0  0  0  0999 V2000
    5.9901  -11.4918   26.9021 C   0  0  0  0  0  0  0  0  0  0  0  0
    5.4388  -12.7565   26.2465 C   0  0  0  0  0  0  0  0  0  0  0  0
    6.6364  -13.5421   25.7690 C   0  0  2  0  0  0  0  0  0  0  0  0
    7.3324  -12.6802   24.7175 C   0  0  0  0  0  0  0  0  0  0  0  0
    6.2561  -14.8385   25.0882 C   0  0  2  0  0  0  0  0  0  0  0  0
    5.4113  -15.6358   25.9096 N   0  0  0  0  0  0  0  0  0  0  0  0
    7.4244  -15.5524   24.5448 C   0  0  0  0  0  0  0  0  0  0  0  0
    8.1400  -16.2806   25.2903 O   0  0  0  0  0  0  0  0  0  0  0  0
    7.8011  -15.4522   23.1459 N   0  0  0  0  0  0  0  0  0  0  0  0
    7.0015  -14.7492   22.1720 C   0  0  0  0  0  0  0  0  0  0  0  0
    7.6623  -15.0058   20.8131 C   0  0  0  0  0  0  0  0  0  0  0  0
    9.0880  -15.3064   21.2003 C   0  0  0  0  0  0  0  0  0  0  0  0
    8.9474  -15.9969   22.5220 C   0  0  1  0  0  0  0  0  0  0  0  0
   10.2121  -15.7157   23.2940 C   0  0  0  0  0  0  0  0  0  0  0  0
   10.7236  -14.5832   23.4080 O   0  0  0  0  0  0  0  0  0  0  0  0
   10.3354  -13.6193   28.1637 C   0  0  0  0  0  0  0  0  0  0  0  0
   11.4892  -14.8568   28.8174 S   0  0  0  0  0  0  0  0  0  0  0  0
   12.1078  -15.8395   27.4622 C   0  0  0  0  0  0  0  0  0  0  0  0
   11.2181  -15.9164   26.2578 C   0  0  0  0  0  0  0  0  0  0  0  0
   11.7861  -16.5822   25.0552 C   0  0  2  0  0  0  0  0  0  0  0  0
   10.9029  -16.7921   23.9549 N   0  0  0  0  0  0  0  0  0  0  0  0
   12.2977  -17.9180   25.4861 C   0  0  0  0  0  0  0  0  0  0  0  0
   13.4578  -18.0514   26.2293 O   0  0  0  0  0  0  0  0  0  0  0  0
   11.6774  -18.9672   25.1794 O   0  0  0  0  0  0  0  0  0  0  0  0
  2  3  1  0
  2  1  1  0
  3  5  1  0
  3  4  1  6
  5  6  1  1
  7  5  1  0
  8  7  2  0
  9  7  1  0
  9 10  1  0
 10 11  1  0
 12 11  1  0
 13 12  1  0
 13  9  1  0
 13 14  1  1
 15 14  2  0
 17 16  1  0
 17 18  1  0
 18 19  1  0
 20 19  1  1
 20 21  1  0
 21 14  1  0
 22 20  1  0
 22 23  1  0
 24 22  2  0
M  END
$$$$
