IPM.pdb
     RDKit          3D

 24 24  0  0  1  0  0  0  0  0999 V2000
    6.2160  -11.3619   26.8723 C   0  0  0  0  0  0  0  0  0  0  0  0
    5.6203  -12.6032   26.2108 C   0  0  0  0  0  0  0  0  0  0  0  0
    6.7890  -13.4688   25.8054 C   0  0  2  0  0  0  0  0  0  0  0  0
    7.5835  -12.6727   24.7720 C   0  0  0  0  0  0  0  0  0  0  0  0
    6.3628  -14.7546   25.1318 C   0  0  2  0  0  0  0  0  0  0  0  0
    5.5057  -15.5259   25.9653 N   0  0  0  0  0  0  0  0  0  0  0  0
    7.5029  -15.5028   24.5750 C   0  0  0  0  0  0  0  0  0  0  0  0
    8.2052  -16.2519   25.3123 O   0  0  0  0  0  0  0  0  0  0  0  0
    7.8661  -15.4137   23.1717 N   0  0  0  0  0  0  0  0  0  0  0  0
    7.0421  -14.7440   22.1946 C   0  0  0  0  0  0  0  0  0  0  0  0
    7.6983  -15.0043   20.8341 C   0  0  0  0  0  0  0  0  0  0  0  0
    9.1337  -15.2651   21.2138 C   0  0  0  0  0  0  0  0  0  0  0  0
    9.0202  -15.9397   22.5462 C   0  0  1  0  0  0  0  0  0  0  0  0
   10.2838  -15.6174   23.3037 C   0  0  0  0  0  0  0  0  0  0  0  0
   10.6811  -14.4579   23.5382 O   0  0  0  0  0  0  0  0  0  0  0  0
   10.0394  -13.4340   28.7241 C   0  0  0  0  0  0  0  0  0  0  0  0
   10.8161  -15.0355   28.3749 S   0  0  0  0  0  0  0  0  0  0  0  0
   11.3032  -15.0768   26.6584 C   0  0  0  0  0  0  0  0  0  0  0  0
   11.8278  -16.3917   26.1646 C   0  0  0  0  0  0  0  0  0  0  0  0
   12.1815  -16.4648   24.7218 C   0  0  2  0  0  0  0  0  0  0  0  0
   11.1115  -16.6837   23.8044 N   0  0  0  0  0  0  0  0  0  0  0  0
   13.1544  -17.5867   24.5585 C   0  0  0  0  0  0  0  0  0  0  0  0
   12.7756  -18.8133   24.0409 O   0  0  0  0  0  0  0  0  0  0  0  0
   14.3572  -17.4407   24.8924 O   0  0  0  0  0  0  0  0  0  0  0  0
  2  3  1  0
  2  1  1  0
  3  5  1  0
  3  4  1  6
  5  6  1  1
  7  5  1  0
  8  7  2  0
  9  7  1  0
  9 10  1  0
 10 11  1  0
 12 11  1  0
 13 12  1  0
 13  9  1  0
 13 14  1  1
 15 14  2  0
 17 16  1  0
 17 18  1  0
 18 19  1  0
 20 19  1  1
 20 21  1  0
 21 14  1  0
 22 20  1  0
 22 23  1  0
 24 22  2  0
M  END
$$$$
