IPM.pdb
     RDKit          3D

 24 24  0  0  1  0  0  0  0  0999 V2000
    7.8970  -11.9244   26.9146 C   0  0  0  0  0  0  0  0  0  0  0  0
    7.4751  -13.3892   26.8169 C   0  0  0  0  0  0  0  0  0  0  0  0
    6.6924  -13.5194   25.5325 C   0  0  2  0  0  0  0  0  0  0  0  0
    5.3512  -12.8271   25.7669 C   0  0  0  0  0  0  0  0  0  0  0  0
    6.3847  -14.9567   25.1743 C   0  0  2  0  0  0  0  0  0  0  0  0
    5.8699  -15.6775   26.2877 N   0  0  0  0  0  0  0  0  0  0  0  0
    7.5080  -15.6186   24.4889 C   0  0  0  0  0  0  0  0  0  0  0  0
    8.1870  -16.5094   25.0751 O   0  0  0  0  0  0  0  0  0  0  0  0
    7.8805  -15.2811   23.1265 N   0  0  0  0  0  0  0  0  0  0  0  0
    7.0952  -14.3960   22.3005 C   0  0  0  0  0  0  0  0  0  0  0  0
    7.7424  -14.4238   20.9114 C   0  0  0  0  0  0  0  0  0  0  0  0
    9.1614  -14.8247   21.2255 C   0  0  0  0  0  0  0  0  0  0  0  0
    9.0087  -15.7352   22.4049 C   0  0  1  0  0  0  0  0  0  0  0  0
   10.2842  -15.6281   23.2025 C   0  0  0  0  0  0  0  0  0  0  0  0
   11.0202  -14.6205   23.2108 O   0  0  0  0  0  0  0  0  0  0  0  0
   10.7528  -13.1839   28.3718 C   0  0  0  0  0  0  0  0  0  0  0  0
   11.2196  -14.8520   28.9096 S   0  0  0  0  0  0  0  0  0  0  0  0
   11.9074  -15.7337   27.5186 C   0  0  0  0  0  0  0  0  0  0  0  0
   11.0172  -15.8457   26.3174 C   0  0  0  0  0  0  0  0  0  0  0  0
   11.5735  -16.5731   25.1453 C   0  0  2  0  0  0  0  0  0  0  0  0
   10.7152  -16.7339   24.0175 N   0  0  0  0  0  0  0  0  0  0  0  0
   11.9662  -17.9365   25.6133 C   0  0  0  0  0  0  0  0  0  0  0  0
   13.0737  -18.1424   26.4176 O   0  0  0  0  0  0  0  0  0  0  0  0
   11.2900  -18.9430   25.2825 O   0  0  0  0  0  0  0  0  0  0  0  0
  2  3  1  0
  2  1  1  0
  3  5  1  0
  3  4  1  1
  5  6  1  1
  7  5  1  0
  8  7  2  0
  9  7  1  0
  9 10  1  0
 10 11  1  0
 12 11  1  0
 13 12  1  0
 13  9  1  0
 13 14  1  1
 15 14  2  0
 17 16  1  0
 17 18  1  0
 18 19  1  0
 20 19  1  1
 20 21  1  0
 21 14  1  0
 22 20  1  0
 22 23  1  0
 24 22  2  0
M  END
$$$$
