IPM.pdb
     RDKit          3D

 24 24  0  0  1  0  0  0  0  0999 V2000
    7.9702  -11.7095   27.0607 C   0  0  0  0  0  0  0  0  0  0  0  0
    7.3246  -13.0923   26.9948 C   0  0  0  0  0  0  0  0  0  0  0  0
    6.8329  -13.2625   25.5775 C   0  0  2  0  0  0  0  0  0  0  0  0
    5.6067  -12.3638   25.4303 C   0  0  0  0  0  0  0  0  0  0  0  0
    6.3777  -14.6739   25.2784 C   0  0  2  0  0  0  0  0  0  0  0  0
    5.7448  -15.2720   26.4035 N   0  0  0  0  0  0  0  0  0  0  0  0
    7.4429  -15.4925   24.6744 C   0  0  0  0  0  0  0  0  0  0  0  0
    8.1492  -16.2611   25.3876 O   0  0  0  0  0  0  0  0  0  0  0  0
    7.7254  -15.4533   23.2504 N   0  0  0  0  0  0  0  0  0  0  0  0
    6.8310  -14.8454   22.2951 C   0  0  0  0  0  0  0  0  0  0  0  0
    7.4177  -15.1459   20.9114 C   0  0  0  0  0  0  0  0  0  0  0  0
    8.8784  -15.3554   21.2198 C   0  0  0  0  0  0  0  0  0  0  0  0
    8.8569  -15.9764   22.5826 C   0  0  1  0  0  0  0  0  0  0  0  0
   10.1514  -15.5917   23.2540 C   0  0  0  0  0  0  0  0  0  0  0  0
   10.5962  -14.4267   23.2978 O   0  0  0  0  0  0  0  0  0  0  0  0
    9.6966  -15.1830   29.3935 C   0  0  0  0  0  0  0  0  0  0  0  0
   10.9491  -14.5787   28.2291 S   0  0  0  0  0  0  0  0  0  0  0  0
   11.1120  -15.7554   26.8972 C   0  0  0  0  0  0  0  0  0  0  0  0
   11.9926  -15.3305   25.7605 C   0  0  0  0  0  0  0  0  0  0  0  0
   12.1338  -16.2930   24.6354 C   0  0  2  0  0  0  0  0  0  0  0  0
   10.9535  -16.6004   23.8959 N   0  0  0  0  0  0  0  0  0  0  0  0
   12.6560  -17.5711   25.2062 C   0  0  0  0  0  0  0  0  0  0  0  0
   13.8951  -17.6458   25.8184 O   0  0  0  0  0  0  0  0  0  0  0  0
   11.9720  -18.6236   25.1428 O   0  0  0  0  0  0  0  0  0  0  0  0
  2  3  1  0
  2  1  1  0
  3  5  1  0
  3  4  1  1
  5  6  1  1
  7  5  1  0
  8  7  2  0
  9  7  1  0
  9 10  1  0
 10 11  1  0
 12 11  1  0
 13 12  1  0
 13  9  1  0
 13 14  1  1
 15 14  2  0
 17 16  1  0
 17 18  1  0
 18 19  1  0
 20 19  1  1
 20 21  1  0
 21 14  1  0
 22 20  1  0
 22 23  1  0
 24 22  2  0
M  END
$$$$
