IPM.pdb
     RDKit          3D

 24 24  0  0  1  0  0  0  0  0999 V2000
    7.7562  -11.8367   26.5687 C   0  0  0  0  0  0  0  0  0  0  0  0
    7.3690  -13.3142   26.5877 C   0  0  0  0  0  0  0  0  0  0  0  0
    6.5355  -13.5492   25.3510 C   0  0  2  0  0  0  0  0  0  0  0  0
    5.1808  -12.8916   25.6065 C   0  0  0  0  0  0  0  0  0  0  0  0
    6.2668  -15.0154   25.0926 C   0  0  2  0  0  0  0  0  0  0  0  0
    5.8072  -15.6802   26.2634 N   0  0  0  0  0  0  0  0  0  0  0  0
    7.3927  -15.6832   24.4173 C   0  0  0  0  0  0  0  0  0  0  0  0
    8.1565  -16.4635   25.0545 O   0  0  0  0  0  0  0  0  0  0  0  0
    7.6717  -15.4771   23.0071 N   0  0  0  0  0  0  0  0  0  0  0  0
    6.7493  -14.8113   22.1194 C   0  0  0  0  0  0  0  0  0  0  0  0
    7.3478  -14.9331   20.7137 C   0  0  0  0  0  0  0  0  0  0  0  0
    8.8170  -15.1072   21.0036 C   0  0  0  0  0  0  0  0  0  0  0  0
    8.8255  -15.8723   22.2911 C   0  0  1  0  0  0  0  0  0  0  0  0
   10.1015  -15.5033   23.0055 C   0  0  0  0  0  0  0  0  0  0  0  0
   10.5864  -14.3537   23.0202 O   0  0  0  0  0  0  0  0  0  0  0  0
   11.8684  -14.3615   30.0204 C   0  0  0  0  0  0  0  0  0  0  0  0
   10.7025  -14.8789   28.7308 S   0  0  0  0  0  0  0  0  0  0  0  0
   11.6260  -15.5030   27.3369 C   0  0  0  0  0  0  0  0  0  0  0  0
   10.8420  -15.6958   26.0735 C   0  0  0  0  0  0  0  0  0  0  0  0
   11.5922  -16.2204   24.9012 C   0  0  2  0  0  0  0  0  0  0  0  0
   10.8361  -16.5097   23.7269 N   0  0  0  0  0  0  0  0  0  0  0  0
   12.2620  -17.4847   25.3311 C   0  0  0  0  0  0  0  0  0  0  0  0
   13.4827  -17.4798   25.9836 O   0  0  0  0  0  0  0  0  0  0  0  0
   11.7247  -18.5986   25.1070 O   0  0  0  0  0  0  0  0  0  0  0  0
  2  3  1  0
  2  1  1  0
  3  5  1  0
  3  4  1  1
  5  6  1  1
  7  5  1  0
  8  7  2  0
  9  7  1  0
  9 10  1  0
 10 11  1  0
 12 11  1  0
 13 12  1  0
 13  9  1  0
 13 14  1  1
 15 14  2  0
 17 16  1  0
 17 18  1  0
 18 19  1  0
 20 19  1  1
 20 21  1  0
 21 14  1  0
 22 20  1  0
 22 23  1  0
 24 22  2  0
M  END
$$$$
