IPM.pdb
     RDKit          3D

 24 24  0  0  1  0  0  0  0  0999 V2000
    6.0361  -11.6485   27.3493 C   0  0  0  0  0  0  0  0  0  0  0  0
    5.4951  -12.8312   26.5482 C   0  0  0  0  0  0  0  0  0  0  0  0
    6.7002  -13.5686   26.0159 C   0  0  2  0  0  0  0  0  0  0  0  0
    7.4046  -12.6152   25.0527 C   0  0  0  0  0  0  0  0  0  0  0  0
    6.3314  -14.8003   25.2186 C   0  0  2  0  0  0  0  0  0  0  0  0
    5.4198  -15.6318   25.9269 N   0  0  0  0  0  0  0  0  0  0  0  0
    7.5133  -15.5047   24.6926 C   0  0  0  0  0  0  0  0  0  0  0  0
    8.1770  -16.2900   25.4281 O   0  0  0  0  0  0  0  0  0  0  0  0
    7.9627  -15.3302   23.3228 N   0  0  0  0  0  0  0  0  0  0  0  0
    7.2557  -14.5097   22.3693 C   0  0  0  0  0  0  0  0  0  0  0  0
    7.9647  -14.7114   21.0255 C   0  0  0  0  0  0  0  0  0  0  0  0
    9.3489  -15.1301   21.4516 C   0  0  0  0  0  0  0  0  0  0  0  0
    9.1024  -15.9021   22.7113 C   0  0  1  0  0  0  0  0  0  0  0  0
   10.3431  -15.7585   23.5567 C   0  0  0  0  0  0  0  0  0  0  0  0
   10.8307  -14.6628   23.9011 O   0  0  0  0  0  0  0  0  0  0  0  0
   10.4728  -13.0817   27.9895 C   0  0  0  0  0  0  0  0  0  0  0  0
   11.5259  -14.5236   28.3087 S   0  0  0  0  0  0  0  0  0  0  0  0
   12.1994  -15.0988   26.7593 C   0  0  0  0  0  0  0  0  0  0  0  0
   11.7799  -16.4763   26.3414 C   0  0  0  0  0  0  0  0  0  0  0  0
   12.1150  -16.8776   24.9489 C   0  0  2  0  0  0  0  0  0  0  0  0
   11.0379  -16.9331   24.0154 N   0  0  0  0  0  0  0  0  0  0  0  0
   12.7286  -18.2382   25.0135 C   0  0  0  0  0  0  0  0  0  0  0  0
   14.0479  -18.4280   25.3863 O   0  0  0  0  0  0  0  0  0  0  0  0
   12.0509  -19.2570   24.7264 O   0  0  0  0  0  0  0  0  0  0  0  0
  2  3  1  0
  2  1  1  0
  3  5  1  0
  3  4  1  6
  5  6  1  1
  7  5  1  0
  8  7  2  0
  9  7  1  0
  9 10  1  0
 10 11  1  0
 12 11  1  0
 13 12  1  0
 13  9  1  0
 13 14  1  1
 15 14  2  0
 17 16  1  0
 17 18  1  0
 18 19  1  0
 20 19  1  1
 20 21  1  0
 21 14  1  0
 22 20  1  0
 22 23  1  0
 24 22  2  0
M  END
$$$$
