IPM.pdb
     RDKit          3D

 24 24  0  0  1  0  0  0  0  0999 V2000
    7.2653  -11.9293   19.8389 C   0  0  0  0  0  0  0  0  0  0  0  0
    7.2463  -13.4549   19.7645 C   0  0  0  0  0  0  0  0  0  0  0  0
    7.7531  -13.9499   21.0978 C   0  0  2  0  0  0  0  0  0  0  0  0
    9.2422  -13.6140   21.1503 C   0  0  0  0  0  0  0  0  0  0  0  0
    7.6389  -15.4507   21.2501 C   0  0  2  0  0  0  0  0  0  0  0  0
    6.3806  -15.9315   20.7922 N   0  0  0  0  0  0  0  0  0  0  0  0
    8.0096  -15.9090   22.6000 C   0  0  0  0  0  0  0  0  0  0  0  0
    7.4070  -15.4674   23.6197 O   0  0  0  0  0  0  0  0  0  0  0  0
    9.0709  -16.8765   22.8163 N   0  0  0  0  0  0  0  0  0  0  0  0
    9.6932  -17.6047   21.7371 C   0  0  0  0  0  0  0  0  0  0  0  0
   10.6412  -18.6135   22.3951 C   0  0  0  0  0  0  0  0  0  0  0  0
   10.9293  -17.9643   23.7248 C   0  0  0  0  0  0  0  0  0  0  0  0
    9.6476  -17.2603   24.0491 C   0  0  1  0  0  0  0  0  0  0  0  0
   10.0100  -16.0758   24.9094 C   0  0  0  0  0  0  0  0  0  0  0  0
   10.5191  -15.0241   24.4714 O   0  0  0  0  0  0  0  0  0  0  0  0
    5.7420  -12.2119   26.6595 C   0  0  0  0  0  0  0  0  0  0  0  0
    7.5027  -12.1001   27.0807 S   0  0  0  0  0  0  0  0  0  0  0  0
    8.2293  -13.7252   26.9529 C   0  0  0  0  0  0  0  0  0  0  0  0
    9.7054  -13.7973   27.2055 C   0  0  0  0  0  0  0  0  0  0  0  0
   10.3079  -15.1570   27.2326 C   0  0  2  0  0  0  0  0  0  0  0  0
    9.7702  -16.1202   26.3283 N   0  0  0  0  0  0  0  0  0  0  0  0
   10.1376  -15.6915   28.6172 C   0  0  0  0  0  0  0  0  0  0  0  0
   10.6789  -15.0522   29.7191 O   0  0  0  0  0  0  0  0  0  0  0  0
    9.4894  -16.7496   28.8165 O   0  0  0  0  0  0  0  0  0  0  0  0
  2  3  1  0
  2  1  1  0
  3  5  1  0
  3  4  1  6
  5  6  1  1
  7  5  1  0
  8  7  2  0
  9  7  1  0
  9 10  1  0
 10 11  1  0
 12 11  1  0
 13 12  1  0
 13  9  1  0
 13 14  1  1
 15 14  2  0
 17 16  1  0
 17 18  1  0
 18 19  1  0
 20 19  1  1
 20 21  1  0
 21 14  1  0
 22 20  1  0
 22 23  1  0
 24 22  2  0
M  END
$$$$
