IPM.pdb
     RDKit          3D

 24 24  0  0  1  0  0  0  0  0999 V2000
    6.0734  -11.3533   26.7290 C   0  0  0  0  0  0  0  0  0  0  0  0
    5.5372  -12.6779   26.1895 C   0  0  0  0  0  0  0  0  0  0  0  0
    6.7442  -13.4894   25.7844 C   0  0  2  0  0  0  0  0  0  0  0  0
    7.4743  -12.6806   24.7139 C   0  0  0  0  0  0  0  0  0  0  0  0
    6.3772  -14.8152   25.1547 C   0  0  2  0  0  0  0  0  0  0  0  0
    5.5545  -15.5956   26.0138 N   0  0  0  0  0  0  0  0  0  0  0  0
    7.5507  -15.5297   24.6235 C   0  0  0  0  0  0  0  0  0  0  0  0
    8.2601  -16.2555   25.3772 O   0  0  0  0  0  0  0  0  0  0  0  0
    7.9397  -15.4329   23.2277 N   0  0  0  0  0  0  0  0  0  0  0  0
    7.1225  -14.7786   22.2346 C   0  0  0  0  0  0  0  0  0  0  0  0
    7.8102  -15.0253   20.8872 C   0  0  0  0  0  0  0  0  0  0  0  0
    9.2427  -15.2587   21.2952 C   0  0  0  0  0  0  0  0  0  0  0  0
    9.1159  -15.9361   22.6250 C   0  0  1  0  0  0  0  0  0  0  0  0
   10.3579  -15.5899   23.4074 C   0  0  0  0  0  0  0  0  0  0  0  0
   10.6144  -14.4484   23.8413 O   0  0  0  0  0  0  0  0  0  0  0  0
    9.9754  -13.5160   28.6397 C   0  0  0  0  0  0  0  0  0  0  0  0
   10.8930  -15.0491   28.3275 S   0  0  0  0  0  0  0  0  0  0  0  0
   11.3669  -15.0961   26.6075 C   0  0  0  0  0  0  0  0  0  0  0  0
   11.8719  -16.4172   26.1098 C   0  0  0  0  0  0  0  0  0  0  0  0
   12.3349  -16.4606   24.6970 C   0  0  2  0  0  0  0  0  0  0  0  0
   11.3330  -16.6099   23.6929 N   0  0  0  0  0  0  0  0  0  0  0  0
   13.2760  -17.6141   24.5725 C   0  0  0  0  0  0  0  0  0  0  0  0
   12.8389  -18.8794   24.2206 O   0  0  0  0  0  0  0  0  0  0  0  0
   14.5047  -17.4601   24.7876 O   0  0  0  0  0  0  0  0  0  0  0  0
  2  3  1  0
  2  1  1  0
  3  5  1  0
  3  4  1  6
  5  6  1  1
  7  5  1  0
  8  7  2  0
  9  7  1  0
  9 10  1  0
 10 11  1  0
 12 11  1  0
 13 12  1  0
 13  9  1  0
 13 14  1  1
 15 14  2  0
 17 16  1  0
 17 18  1  0
 18 19  1  0
 20 19  1  1
 20 21  1  0
 21 14  1  0
 22 20  1  0
 22 23  1  0
 24 22  2  0
M  END
$$$$
