IPM.pdb
     RDKit          3D

 24 24  0  0  1  0  0  0  0  0999 V2000
    5.9617  -11.5152   27.0071 C   0  0  0  0  0  0  0  0  0  0  0  0
    5.3851  -12.6996   26.2337 C   0  0  0  0  0  0  0  0  0  0  0  0
    6.5637  -13.5433   25.8114 C   0  0  2  0  0  0  0  0  0  0  0  0
    7.3796  -12.6963   24.8368 C   0  0  0  0  0  0  0  0  0  0  0  0
    6.1544  -14.7941   25.0652 C   0  0  2  0  0  0  0  0  0  0  0  0
    5.2697  -15.5998   25.8348 N   0  0  0  0  0  0  0  0  0  0  0  0
    7.3088  -15.5205   24.5090 C   0  0  0  0  0  0  0  0  0  0  0  0
    8.0059  -16.2810   25.2396 O   0  0  0  0  0  0  0  0  0  0  0  0
    7.6925  -15.3965   23.1138 N   0  0  0  0  0  0  0  0  0  0  0  0
    6.8889  -14.6916   22.1445 C   0  0  0  0  0  0  0  0  0  0  0  0
    7.5614  -14.9208   20.7864 C   0  0  0  0  0  0  0  0  0  0  0  0
    8.9887  -15.2069   21.1783 C   0  0  0  0  0  0  0  0  0  0  0  0
    8.8499  -15.9168   22.4898 C   0  0  1  0  0  0  0  0  0  0  0  0
   10.1060  -15.6286   23.2732 C   0  0  0  0  0  0  0  0  0  0  0  0
   10.6952  -14.5286   23.2684 O   0  0  0  0  0  0  0  0  0  0  0  0
   11.0879  -13.3133   28.6604 C   0  0  0  0  0  0  0  0  0  0  0  0
   10.7636  -15.0875   28.4680 S   0  0  0  0  0  0  0  0  0  0  0  0
   10.7298  -15.4809   26.7276 C   0  0  0  0  0  0  0  0  0  0  0  0
   11.9159  -16.2387   26.2109 C   0  0  0  0  0  0  0  0  0  0  0  0
   11.9499  -16.4994   24.7469 C   0  0  2  0  0  0  0  0  0  0  0  0
   10.6940  -16.6584   24.0895 N   0  0  0  0  0  0  0  0  0  0  0  0
   12.7330  -17.7541   24.5365 C   0  0  0  0  0  0  0  0  0  0  0  0
   14.0881  -17.8245   24.8096 O   0  0  0  0  0  0  0  0  0  0  0  0
   12.1711  -18.7903   24.1002 O   0  0  0  0  0  0  0  0  0  0  0  0
  2  3  1  0
  2  1  1  0
  3  5  1  0
  3  4  1  6
  5  6  1  1
  7  5  1  0
  8  7  2  0
  9  7  1  0
  9 10  1  0
 10 11  1  0
 12 11  1  0
 13 12  1  0
 13  9  1  0
 13 14  1  1
 15 14  2  0
 17 16  1  0
 17 18  1  0
 18 19  1  0
 20 19  1  1
 20 21  1  0
 21 14  1  0
 22 20  1  0
 22 23  1  0
 24 22  2  0
M  END
$$$$
