IPM.pdb
     RDKit          3D

 24 24  0  0  1  0  0  0  0  0999 V2000
    5.6398  -11.3505   26.7623 C   0  0  0  0  0  0  0  0  0  0  0  0
    5.2108  -12.7014   26.1930 C   0  0  0  0  0  0  0  0  0  0  0  0
    6.4695  -13.3694   25.6941 C   0  0  2  0  0  0  0  0  0  0  0  0
    7.0206  -12.4836   24.5785 C   0  0  0  0  0  0  0  0  0  0  0  0
    6.2114  -14.7295   25.0839 C   0  0  2  0  0  0  0  0  0  0  0  0
    5.4215  -15.5480   25.9384 N   0  0  0  0  0  0  0  0  0  0  0  0
    7.4449  -15.3713   24.5980 C   0  0  0  0  0  0  0  0  0  0  0  0
    8.1934  -16.0130   25.3892 O   0  0  0  0  0  0  0  0  0  0  0  0
    7.8507  -15.2961   23.2056 N   0  0  0  0  0  0  0  0  0  0  0  0
    7.0675  -14.6176   22.2013 C   0  0  0  0  0  0  0  0  0  0  0  0
    7.7588  -14.8963   20.8621 C   0  0  0  0  0  0  0  0  0  0  0  0
    9.1777  -15.1797   21.2852 C   0  0  0  0  0  0  0  0  0  0  0  0
    9.0134  -15.8451   22.6169 C   0  0  1  0  0  0  0  0  0  0  0  0
   10.2596  -15.5403   23.4098 C   0  0  0  0  0  0  0  0  0  0  0  0
   10.6925  -14.3882   23.6151 O   0  0  0  0  0  0  0  0  0  0  0  0
   10.4198  -13.3626   28.7811 C   0  0  0  0  0  0  0  0  0  0  0  0
   11.3730  -14.8547   28.3874 S   0  0  0  0  0  0  0  0  0  0  0  0
   11.4454  -15.0400   26.6139 C   0  0  0  0  0  0  0  0  0  0  0  0
   12.2323  -16.2152   26.1162 C   0  0  0  0  0  0  0  0  0  0  0  0
   12.2737  -16.4093   24.6421 C   0  0  2  0  0  0  0  0  0  0  0  0
   11.0262  -16.6162   23.9823 N   0  0  0  0  0  0  0  0  0  0  0  0
   13.1308  -17.6032   24.3745 C   0  0  0  0  0  0  0  0  0  0  0  0
   14.4781  -17.6216   24.6913 O   0  0  0  0  0  0  0  0  0  0  0  0
   12.6411  -18.6339   23.8477 O   0  0  0  0  0  0  0  0  0  0  0  0
  2  3  1  0
  2  1  1  0
  3  5  1  0
  3  4  1  6
  5  6  1  1
  7  5  1  0
  8  7  2  0
  9  7  1  0
  9 10  1  0
 10 11  1  0
 12 11  1  0
 13 12  1  0
 13  9  1  0
 13 14  1  1
 15 14  2  0
 17 16  1  0
 17 18  1  0
 18 19  1  0
 20 19  1  1
 20 21  1  0
 21 14  1  0
 22 20  1  0
 22 23  1  0
 24 22  2  0
M  END
$$$$
