EDR.pdb
     RDKit          3D

 29 28  0  0  1  0  0  0  0  0999 V2000
   18.3907  -21.8853  -19.9807 N   0  0  0  0  0  0  0  0  0  0  0  0
   19.7508  -22.4393  -19.7637 C   0  0  1  0  0  0  0  0  0  0  0  0
   20.4728  -22.4467  -21.0836 C   0  0  0  0  0  0  0  0  0  0  0  0
   20.0297  -23.5976  -21.9264 C   0  0  0  0  0  0  0  0  0  0  0  0
   20.8178  -24.8431  -21.5909 C   0  0  0  0  0  0  0  0  0  0  0  0
   20.5063  -25.6244  -20.6671 O   0  0  0  0  0  0  0  0  0  0  0  0
   20.3977  -21.4967  -18.8313 C   0  0  0  0  0  0  0  0  0  0  0  0
   21.4001  -21.8925  -18.1803 O   0  0  0  0  0  0  0  0  0  0  0  0
   21.9368  -25.1203  -22.3514 O   0  0  0  0  0  0  0  0  0  0  0  0
   19.9305  -20.1461  -18.6356 N   0  0  0  0  0  0  0  0  0  0  0  0
   20.6582  -19.3101  -17.7228 C   0  0  1  0  0  0  0  0  0  0  0  0
   20.2657  -17.8690  -17.8648 C   0  0  0  0  0  0  0  0  0  0  0  0
   21.1509  -17.0309  -17.0530 C   0  0  0  0  0  0  0  0  0  0  0  0
   22.3782  -17.3173  -16.8629 O   0  0  0  0  0  0  0  0  0  0  0  0
   20.3668  -19.6939  -16.3040 C   0  0  0  0  0  0  0  0  0  0  0  0
   19.2615  -20.0693  -15.8935 O   0  0  0  0  0  0  0  0  0  0  0  0
   20.6724  -15.8847  -16.4577 O   0  0  0  0  0  0  0  0  0  0  0  0
   26.0972  -20.7588   -9.6574 N   0  0  0  0  0  0  0  0  0  0  0  0
   24.8459  -20.9825   -9.0270 C   0  0  0  0  0  0  0  0  0  0  0  0
   24.8057  -21.2591   -7.7675 N   0  0  0  0  0  0  0  0  0  0  0  0
   23.6723  -20.8903   -9.8273 N   0  0  0  0  0  0  0  0  0  0  0  0
   23.8379  -20.5123  -11.2285 C   0  0  0  0  0  0  0  0  0  0  0  0
   22.4643  -20.3299  -11.8572 C   0  0  0  0  0  0  0  0  0  0  0  0
   22.6237  -19.9843  -13.3166 C   0  0  0  0  0  0  0  0  0  0  0  0
   21.2741  -19.9403  -13.9727 C   0  0  2  0  0  0  0  0  0  0  0  0
   21.4427  -19.6178  -15.3754 N   0  0  0  0  0  0  0  0  0  0  0  0
   20.4034  -18.9138  -13.3465 C   0  0  0  0  0  0  0  0  0  0  0  0
   20.4198  -17.6996  -13.6873 O   0  0  0  0  0  0  0  0  0  0  0  0
   19.5103  -19.2599  -12.3313 O   0  0  0  0  0  0  0  0  0  0  0  0
  2  1  1  6
  2  7  1  0
  3  2  1  0
  3  4  1  0
  4  5  1  0
  5  6  2  0
  7  8  2  0
  9  5  1  0
 10  7  1  0
 10 11  1  0
 11 15  1  0
 12 13  1  0
 11 12  1  1
 13 17  1  0
 14 13  2  0
 15 26  1  0
 15 16  2  0
 19 18  1  0
 19 21  1  0
 20 19  2  0
 22 21  1  0
 23 22  1  0
 23 24  1  0
 25 24  1  1
 25 27  1  0
 26 25  1  0
 27 29  1  0
 28 27  2  0
M  END
$$$$
