EDR.pdb
     RDKit          3D

 29 28  0  0  1  0  0  0  0  0999 V2000
   22.2773  -17.9968  -19.6058 N   0  0  0  0  0  0  0  0  0  0  0  0
   23.1576  -17.6939  -18.4494 C   0  0  1  0  0  0  0  0  0  0  0  0
   23.5983  -16.2593  -18.5555 C   0  0  0  0  0  0  0  0  0  0  0  0
   22.4731  -15.3892  -19.0116 C   0  0  0  0  0  0  0  0  0  0  0  0
   22.9084  -13.9434  -19.0846 C   0  0  0  0  0  0  0  0  0  0  0  0
   23.3555  -13.4129  -20.1236 O   0  0  0  0  0  0  0  0  0  0  0  0
   22.2999  -17.8798  -17.2636 C   0  0  0  0  0  0  0  0  0  0  0  0
   22.8086  -17.7083  -16.1246 O   0  0  0  0  0  0  0  0  0  0  0  0
   22.8016  -13.1810  -17.9380 O   0  0  0  0  0  0  0  0  0  0  0  0
   20.9084  -18.2488  -17.3552 N   0  0  0  0  0  0  0  0  0  0  0  0
   20.1995  -18.5015  -16.1324 C   0  0  1  0  0  0  0  0  0  0  0  0
   18.7208  -18.6039  -16.3653 C   0  0  0  0  0  0  0  0  0  0  0  0
   18.0031  -18.3715  -15.1100 C   0  0  0  0  0  0  0  0  0  0  0  0
   18.6040  -18.0944  -14.0206 O   0  0  0  0  0  0  0  0  0  0  0  0
   20.6278  -19.8049  -15.5301 C   0  0  0  0  0  0  0  0  0  0  0  0
   20.7893  -20.8518  -16.1697 O   0  0  0  0  0  0  0  0  0  0  0  0
   16.6285  -18.4484  -15.0687 O   0  0  0  0  0  0  0  0  0  0  0  0
   27.2183  -20.8088  -10.7616 N   0  0  0  0  0  0  0  0  0  0  0  0
   26.9261  -21.0711  -12.1251 C   0  0  0  0  0  0  0  0  0  0  0  0
   27.8690  -21.0105  -13.0034 N   0  0  0  0  0  0  0  0  0  0  0  0
   25.5825  -21.3942  -12.4668 N   0  0  0  0  0  0  0  0  0  0  0  0
   24.5829  -21.3395  -11.4032 C   0  0  0  0  0  0  0  0  0  0  0  0
   23.2312  -21.7432  -11.9736 C   0  0  0  0  0  0  0  0  0  0  0  0
   22.5703  -20.5384  -12.5954 C   0  0  0  0  0  0  0  0  0  0  0  0
   21.4245  -20.9831  -13.4574 C   0  0  2  0  0  0  0  0  0  0  0  0
   20.8623  -19.8271  -14.1265 N   0  0  0  0  0  0  0  0  0  0  0  0
   20.3620  -21.6325  -12.6491 C   0  0  0  0  0  0  0  0  0  0  0  0
   20.4833  -22.7875  -12.1574 O   0  0  0  0  0  0  0  0  0  0  0  0
   19.1575  -20.9747  -12.3948 O   0  0  0  0  0  0  0  0  0  0  0  0
  2  1  1  6
  2  7  1  0
  3  2  1  0
  3  4  1  0
  4  5  1  0
  5  6  2  0
  7  8  2  0
  9  5  1  0
 10  7  1  0
 10 11  1  0
 11 15  1  0
 12 13  1  0
 11 12  1  6
 13 17  1  0
 14 13  2  0
 15 26  1  0
 15 16  2  0
 19 18  1  0
 19 21  1  0
 20 19  2  0
 22 21  1  0
 23 22  1  0
 23 24  1  0
 25 24  1  1
 25 27  1  0
 26 25  1  0
 27 29  1  0
 28 27  2  0
M  END
$$$$
