EDR.pdb
     RDKit          3D

 29 28  0  0  1  0  0  0  0  0999 V2000
   26.7266  -22.4500  -15.5796 N   0  0  0  0  0  0  0  0  0  0  0  0
   25.3963  -22.5733  -16.2267 C   0  0  1  0  0  0  0  0  0  0  0  0
   25.1681  -24.0218  -16.5631 C   0  0  0  0  0  0  0  0  0  0  0  0
   26.2166  -24.8845  -15.9402 C   0  0  0  0  0  0  0  0  0  0  0  0
   26.4675  -26.1155  -16.7807 C   0  0  0  0  0  0  0  0  0  0  0  0
   25.9671  -26.2876  -17.9124 O   0  0  0  0  0  0  0  0  0  0  0  0
   24.4347  -22.1283  -15.2001 C   0  0  0  0  0  0  0  0  0  0  0  0
   24.7978  -22.1418  -13.9946 O   0  0  0  0  0  0  0  0  0  0  0  0
   27.2936  -27.0921  -16.2602 O   0  0  0  0  0  0  0  0  0  0  0  0
   23.1011  -21.6809  -15.5197 N   0  0  0  0  0  0  0  0  0  0  0  0
   22.2854  -21.1837  -14.4478 C   0  0  1  0  0  0  0  0  0  0  0  0
   21.7040  -19.8403  -14.7769 C   0  0  0  0  0  0  0  0  0  0  0  0
   20.9317  -19.3407  -13.6371 C   0  0  0  0  0  0  0  0  0  0  0  0
   21.2854  -19.5453  -12.4298 O   0  0  0  0  0  0  0  0  0  0  0  0
   21.1269  -22.0994  -14.1937 C   0  0  0  0  0  0  0  0  0  0  0  0
   20.4715  -22.6613  -15.0802 O   0  0  0  0  0  0  0  0  0  0  0  0
   19.7753  -18.6208  -13.8409 O   0  0  0  0  0  0  0  0  0  0  0  0
   18.1057  -25.0764   -6.4217 N   0  0  0  0  0  0  0  0  0  0  0  0
   17.4321  -25.8926   -7.3669 C   0  0  0  0  0  0  0  0  0  0  0  0
   16.6746  -26.8528   -6.9565 N   0  0  0  0  0  0  0  0  0  0  0  0
   17.6271  -25.6095   -8.7482 N   0  0  0  0  0  0  0  0  0  0  0  0
   18.6053  -24.5821   -9.0960 C   0  0  0  0  0  0  0  0  0  0  0  0
   18.5819  -24.3664  -10.6021 C   0  0  0  0  0  0  0  0  0  0  0  0
   19.6513  -23.3730  -10.9821 C   0  0  0  0  0  0  0  0  0  0  0  0
   19.6455  -23.1735  -12.4701 C   0  0  2  0  0  0  0  0  0  0  0  0
   20.7661  -22.3309  -12.8365 N   0  0  0  0  0  0  0  0  0  0  0  0
   18.3896  -22.5237  -12.9221 C   0  0  0  0  0  0  0  0  0  0  0  0
   18.1174  -21.3156  -12.6826 O   0  0  0  0  0  0  0  0  0  0  0  0
   17.4372  -23.2409  -13.6477 O   0  0  0  0  0  0  0  0  0  0  0  0
  2  1  1  1
  2  7  1  0
  3  2  1  0
  3  4  1  0
  4  5  1  0
  5  6  2  0
  7  8  2  0
  9  5  1  0
 10  7  1  0
 10 11  1  0
 11 15  1  0
 12 13  1  0
 11 12  1  6
 13 17  1  0
 14 13  2  0
 15 26  1  0
 15 16  2  0
 19 18  1  0
 19 21  1  0
 20 19  2  0
 22 21  1  0
 23 22  1  0
 23 24  1  0
 25 24  1  1
 25 27  1  0
 26 25  1  0
 27 29  1  0
 28 27  2  0
M  END
$$$$
