EDR.pdb
     RDKit          3D

 29 28  0  0  1  0  0  0  0  0999 V2000
   25.7800  -16.0568  -17.5215 N   0  0  0  0  0  0  0  0  0  0  0  0
   24.6205  -16.9195  -17.8610 C   0  0  1  0  0  0  0  0  0  0  0  0
   24.5144  -16.9981  -19.3597 C   0  0  0  0  0  0  0  0  0  0  0  0
   25.8472  -16.7847  -19.9996 C   0  0  0  0  0  0  0  0  0  0  0  0
   25.7314  -16.8232  -21.5062 C   0  0  0  0  0  0  0  0  0  0  0  0
   25.2798  -15.8759  -22.1843 O   0  0  0  0  0  0  0  0  0  0  0  0
   24.9577  -18.2421  -17.3013 C   0  0  0  0  0  0  0  0  0  0  0  0
   24.1062  -19.1651  -17.3930 O   0  0  0  0  0  0  0  0  0  0  0  0
   26.1491  -17.9689  -22.1543 O   0  0  0  0  0  0  0  0  0  0  0  0
   26.2175  -18.5199  -16.6558 N   0  0  0  0  0  0  0  0  0  0  0  0
   26.3400  -19.7495  -15.9248 C   0  0  1  0  0  0  0  0  0  0  0  0
   27.7520  -20.2567  -15.9348 C   0  0  0  0  0  0  0  0  0  0  0  0
   27.7716  -21.6782  -15.5824 C   0  0  0  0  0  0  0  0  0  0  0  0
   26.7150  -22.3198  -15.2719 O   0  0  0  0  0  0  0  0  0  0  0  0
   25.9679  -19.5516  -14.4869 C   0  0  0  0  0  0  0  0  0  0  0  0
   25.6646  -18.4614  -13.9863 O   0  0  0  0  0  0  0  0  0  0  0  0
   28.9580  -22.3779  -15.5748 O   0  0  0  0  0  0  0  0  0  0  0  0
   18.8957  -20.2177  -11.2509 N   0  0  0  0  0  0  0  0  0  0  0  0
   19.6142  -20.1490  -10.0292 C   0  0  0  0  0  0  0  0  0  0  0  0
   18.9864  -19.8870   -8.9331 N   0  0  0  0  0  0  0  0  0  0  0  0
   21.0188  -20.3757  -10.0705 N   0  0  0  0  0  0  0  0  0  0  0  0
   21.6682  -20.3572  -11.3787 C   0  0  0  0  0  0  0  0  0  0  0  0
   23.1715  -20.4938  -11.1867 C   0  0  0  0  0  0  0  0  0  0  0  0
   23.8475  -20.5244  -12.5346 C   0  0  0  0  0  0  0  0  0  0  0  0
   25.3258  -20.7111  -12.3510 C   0  0  2  0  0  0  0  0  0  0  0  0
   25.9664  -20.7033  -13.6508 N   0  0  0  0  0  0  0  0  0  0  0  0
   25.6270  -21.9986  -11.6761 C   0  0  0  0  0  0  0  0  0  0  0  0
   25.6760  -23.0997  -12.2892 O   0  0  0  0  0  0  0  0  0  0  0  0
   25.8741  -22.0429  -10.3031 O   0  0  0  0  0  0  0  0  0  0  0  0
  2  1  1  6
  2  7  1  0
  3  2  1  0
  3  4  1  0
  4  5  1  0
  5  6  2  0
  7  8  2  0
  9  5  1  0
 10  7  1  0
 10 11  1  0
 11 15  1  0
 12 13  1  0
 11 12  1  1
 13 17  1  0
 14 13  2  0
 15 26  1  0
 15 16  2  0
 19 18  1  0
 19 21  1  0
 20 19  2  0
 22 21  1  0
 23 22  1  0
 23 24  1  0
 25 24  1  6
 25 27  1  0
 26 25  1  0
 27 29  1  0
 28 27  2  0
M  END
$$$$
