EDR.pdb
     RDKit          3D

 29 28  0  0  1  0  0  0  0  0999 V2000
   22.3773  -10.2101  -14.5951 N   0  0  0  0  0  0  0  0  0  0  0  0
   21.7494   -9.1988  -15.4822 C   0  0  1  0  0  0  0  0  0  0  0  0
   20.5996   -9.8510  -16.2007 C   0  0  0  0  0  0  0  0  0  0  0  0
   19.9063  -10.8333  -15.3142 C   0  0  0  0  0  0  0  0  0  0  0  0
   18.7026  -11.4270  -16.0094 C   0  0  0  0  0  0  0  0  0  0  0  0
   18.5901  -11.4913  -17.2520 O   0  0  0  0  0  0  0  0  0  0  0  0
   21.2546   -8.1512  -14.5690 C   0  0  0  0  0  0  0  0  0  0  0  0
   21.0677   -8.4507  -13.3604 O   0  0  0  0  0  0  0  0  0  0  0  0
   17.6823  -11.9200  -15.2200 O   0  0  0  0  0  0  0  0  0  0  0  0
   20.9770   -6.8036  -15.0024 N   0  0  0  0  0  0  0  0  0  0  0  0
   20.4934   -5.8705  -14.0242 C   0  0  1  0  0  0  0  0  0  0  0  0
   20.7717   -4.4535  -14.4312 C   0  0  0  0  0  0  0  0  0  0  0  0
   22.1135   -4.0648  -13.9911 C   0  0  0  0  0  0  0  0  0  0  0  0
   22.6736   -4.5810  -12.9691 O   0  0  0  0  0  0  0  0  0  0  0  0
   19.0075   -5.9860  -13.8695 C   0  0  0  0  0  0  0  0  0  0  0  0
   18.2345   -6.3300  -14.7725 O   0  0  0  0  0  0  0  0  0  0  0  0
   22.8239   -3.1088  -14.6827 O   0  0  0  0  0  0  0  0  0  0  0  0
   14.1327   -8.5485   -7.2280 N   0  0  0  0  0  0  0  0  0  0  0  0
   13.1519   -8.0952   -8.1477 C   0  0  0  0  0  0  0  0  0  0  0  0
   11.9043   -8.3294   -7.9179 N   0  0  0  0  0  0  0  0  0  0  0  0
   13.5978   -7.3912   -9.3018 N   0  0  0  0  0  0  0  0  0  0  0  0
   15.0341   -7.3686   -9.5666 C   0  0  0  0  0  0  0  0  0  0  0  0
   15.2924   -6.5507  -10.8235 C   0  0  0  0  0  0  0  0  0  0  0  0
   16.7744   -6.5148  -11.1014 C   0  0  0  0  0  0  0  0  0  0  0  0
   17.0340   -5.7043  -12.3382 C   0  0  2  0  0  0  0  0  0  0  0  0
   18.4604   -5.6769  -12.5924 N   0  0  0  0  0  0  0  0  0  0  0  0
   16.5486   -4.3102  -12.1809 C   0  0  0  0  0  0  0  0  0  0  0  0
   17.2831   -3.3698  -11.7722 O   0  0  0  0  0  0  0  0  0  0  0  0
   15.2282   -3.9764  -12.4866 O   0  0  0  0  0  0  0  0  0  0  0  0
  2  1  1  1
  2  7  1  0
  3  2  1  0
  3  4  1  0
  4  5  1  0
  5  6  2  0
  7  8  2  0
  9  5  1  0
 10  7  1  0
 10 11  1  0
 11 15  1  0
 12 13  1  0
 11 12  1  6
 13 17  1  0
 14 13  2  0
 15 26  1  0
 15 16  2  0
 19 18  1  0
 19 21  1  0
 20 19  2  0
 22 21  1  0
 23 22  1  0
 23 24  1  0
 25 24  1  1
 25 27  1  0
 26 25  1  0
 27 29  1  0
 28 27  2  0
M  END
$$$$
