EDR.pdb
     RDKit          3D

 29 28  0  0  1  0  0  0  0  0999 V2000
   24.0979  -22.3083  -13.9807 N   0  0  0  0  0  0  0  0  0  0  0  0
   25.1997  -21.3252  -13.8281 C   0  0  1  0  0  0  0  0  0  0  0  0
   26.3237  -21.7314  -14.7419 C   0  0  0  0  0  0  0  0  0  0  0  0
   27.4697  -20.7795  -14.6318 C   0  0  0  0  0  0  0  0  0  0  0  0
   28.0715  -20.5048  -15.9909 C   0  0  0  0  0  0  0  0  0  0  0  0
   29.0377  -19.7334  -16.1704 O   0  0  0  0  0  0  0  0  0  0  0  0
   24.6222  -20.0403  -14.2664 C   0  0  0  0  0  0  0  0  0  0  0  0
   25.2622  -18.9834  -14.0242 O   0  0  0  0  0  0  0  0  0  0  0  0
   27.5163  -21.1449  -17.0814 O   0  0  0  0  0  0  0  0  0  0  0  0
   23.3597  -19.9458  -14.9576 N   0  0  0  0  0  0  0  0  0  0  0  0
   23.1546  -18.8238  -15.8296 C   0  0  1  0  0  0  0  0  0  0  0  0
   24.1481  -18.8123  -16.9538 C   0  0  0  0  0  0  0  0  0  0  0  0
   23.9342  -17.6316  -17.7936 C   0  0  0  0  0  0  0  0  0  0  0  0
   23.0844  -16.7285  -17.4990 O   0  0  0  0  0  0  0  0  0  0  0  0
   21.7969  -18.8832  -16.4607 C   0  0  0  0  0  0  0  0  0  0  0  0
   21.5921  -19.1044  -17.6608 O   0  0  0  0  0  0  0  0  0  0  0  0
   24.6598  -17.4595  -18.9516 O   0  0  0  0  0  0  0  0  0  0  0  0
   18.3694  -23.8186  -11.8670 N   0  0  0  0  0  0  0  0  0  0  0  0
   17.9048  -22.5432  -11.4536 C   0  0  0  0  0  0  0  0  0  0  0  0
   17.5039  -22.3724  -10.2394 N   0  0  0  0  0  0  0  0  0  0  0  0
   17.9020  -21.4931  -12.4147 N   0  0  0  0  0  0  0  0  0  0  0  0
   18.3431  -21.8156  -13.7693 C   0  0  0  0  0  0  0  0  0  0  0  0
   19.7842  -21.3587  -13.9421 C   0  0  0  0  0  0  0  0  0  0  0  0
   20.0162  -20.9675  -15.3802 C   0  0  0  0  0  0  0  0  0  0  0  0
   19.5341  -19.5632  -15.6026 C   0  0  2  0  0  0  0  0  0  0  0  0
   20.6748  -18.6696  -15.6116 N   0  0  0  0  0  0  0  0  0  0  0  0
   18.6003  -19.1374  -14.5299 C   0  0  0  0  0  0  0  0  0  0  0  0
   18.9527  -18.4083  -13.5630 O   0  0  0  0  0  0  0  0  0  0  0  0
   17.2630  -19.5364  -14.5493 O   0  0  0  0  0  0  0  0  0  0  0  0
  2  1  1  6
  2  7  1  0
  3  2  1  0
  3  4  1  0
  4  5  1  0
  5  6  2  0
  7  8  2  0
  9  5  1  0
 10  7  1  0
 10 11  1  0
 11 15  1  0
 12 13  1  0
 11 12  1  6
 13 17  1  0
 14 13  2  0
 15 26  1  0
 15 16  2  0
 19 18  1  0
 19 21  1  0
 20 19  2  0
 22 21  1  0
 23 22  1  0
 23 24  1  0
 25 24  1  1
 25 27  1  0
 26 25  1  0
 27 29  1  0
 28 27  2  0
M  END
$$$$
