EDR.pdb
     RDKit          3D

 29 28  0  0  1  0  0  0  0  0999 V2000
   28.2300  -23.2845  -17.5403 N   0  0  0  0  0  0  0  0  0  0  0  0
   26.9956  -23.5897  -18.3065 C   0  0  1  0  0  0  0  0  0  0  0  0
   26.4908  -24.9379  -17.8693 C   0  0  0  0  0  0  0  0  0  0  0  0
   26.0353  -24.9003  -16.4472 C   0  0  0  0  0  0  0  0  0  0  0  0
   25.4304  -26.2251  -16.0423 C   0  0  0  0  0  0  0  0  0  0  0  0
   24.3505  -26.3256  -15.4222 O   0  0  0  0  0  0  0  0  0  0  0  0
   26.0402  -22.5347  -17.9185 C   0  0  0  0  0  0  0  0  0  0  0  0
   26.3211  -21.8074  -16.9299 O   0  0  0  0  0  0  0  0  0  0  0  0
   26.1159  -27.3753  -16.3808 O   0  0  0  0  0  0  0  0  0  0  0  0
   24.8023  -22.3037  -18.6223 N   0  0  0  0  0  0  0  0  0  0  0  0
   24.0251  -21.1543  -18.2531 C   0  0  1  0  0  0  0  0  0  0  0  0
   23.0127  -20.8137  -19.3066 C   0  0  0  0  0  0  0  0  0  0  0  0
   22.3443  -19.5561  -18.9650 C   0  0  0  0  0  0  0  0  0  0  0  0
   21.0909  -19.3844  -19.1197 O   0  0  0  0  0  0  0  0  0  0  0  0
   23.2581  -21.4149  -16.9925 C   0  0  0  0  0  0  0  0  0  0  0  0
   22.6158  -22.4478  -16.7651 O   0  0  0  0  0  0  0  0  0  0  0  0
   23.0664  -18.4990  -18.4566 O   0  0  0  0  0  0  0  0  0  0  0  0
   24.8772  -20.6886   -9.0674 N   0  0  0  0  0  0  0  0  0  0  0  0
   23.4681  -20.8476   -9.0181 C   0  0  0  0  0  0  0  0  0  0  0  0
   22.8990  -21.1571   -7.9024 N   0  0  0  0  0  0  0  0  0  0  0  0
   22.7348  -20.6556  -10.2229 N   0  0  0  0  0  0  0  0  0  0  0  0
   23.3993  -19.9451  -11.3125 C   0  0  0  0  0  0  0  0  0  0  0  0
   22.3985  -19.7137  -12.4351 C   0  0  0  0  0  0  0  0  0  0  0  0
   23.1365  -19.5793  -13.7437 C   0  0  0  0  0  0  0  0  0  0  0  0
   22.5496  -20.5256  -14.7506 C   0  0  2  0  0  0  0  0  0  0  0  0
   23.2779  -20.3980  -15.9969 N   0  0  0  0  0  0  0  0  0  0  0  0
   21.1169  -20.2270  -15.0002 C   0  0  0  0  0  0  0  0  0  0  0  0
   20.7300  -19.3975  -15.8680 O   0  0  0  0  0  0  0  0  0  0  0  0
   20.1171  -20.8678  -14.2669 O   0  0  0  0  0  0  0  0  0  0  0  0
  2  1  1  1
  2  7  1  0
  3  2  1  0
  3  4  1  0
  4  5  1  0
  5  6  2  0
  7  8  2  0
  9  5  1  0
 10  7  1  0
 10 11  1  0
 11 15  1  0
 12 13  1  0
 11 12  1  6
 13 17  1  0
 14 13  2  0
 15 26  1  0
 15 16  2  0
 19 18  1  0
 19 21  1  0
 20 19  2  0
 22 21  1  0
 23 22  1  0
 23 24  1  0
 25 24  1  1
 25 27  1  0
 26 25  1  0
 27 29  1  0
 28 27  2  0
M  END
$$$$
