EDR.pdb
     RDKit          3D

 29 28  0  0  1  0  0  0  0  0999 V2000
   19.7068  -12.9701  -16.2041 N   0  0  0  0  0  0  0  0  0  0  0  0
   19.9063  -11.6874  -16.9243 C   0  0  1  0  0  0  0  0  0  0  0  0
   18.6998  -11.4393  -17.7882 C   0  0  0  0  0  0  0  0  0  0  0  0
   17.5232  -12.2164  -17.2951 C   0  0  0  0  0  0  0  0  0  0  0  0
   16.3260  -12.0052  -18.1935 C   0  0  0  0  0  0  0  0  0  0  0  0
   16.3383  -12.2415  -19.4202 O   0  0  0  0  0  0  0  0  0  0  0  0
   19.9939  -10.6677  -15.8618 C   0  0  0  0  0  0  0  0  0  0  0  0
   19.4523  -10.9125  -14.7518 O   0  0  0  0  0  0  0  0  0  0  0  0
   15.1660  -11.5265  -17.6170 O   0  0  0  0  0  0  0  0  0  0  0  0
   20.6713   -9.4070  -16.0420 N   0  0  0  0  0  0  0  0  0  0  0  0
   20.7266   -8.5092  -14.9229 C   0  0  1  0  0  0  0  0  0  0  0  0
   21.7213   -7.4090  -15.1494 C   0  0  0  0  0  0  0  0  0  0  0  0
   21.8685   -6.6136  -13.9285 C   0  0  0  0  0  0  0  0  0  0  0  0
   21.9426   -5.3413  -13.9467 O   0  0  0  0  0  0  0  0  0  0  0  0
   19.3998   -7.8472  -14.7074 C   0  0  0  0  0  0  0  0  0  0  0  0
   18.7097   -7.3533  -15.6080 O   0  0  0  0  0  0  0  0  0  0  0  0
   21.9338   -7.2304  -12.6987 O   0  0  0  0  0  0  0  0  0  0  0  0
   14.6830   -7.2835   -7.2056 N   0  0  0  0  0  0  0  0  0  0  0  0
   13.7657   -6.9092   -8.2214 C   0  0  0  0  0  0  0  0  0  0  0  0
   12.5157   -6.7709   -7.9336 N   0  0  0  0  0  0  0  0  0  0  0  0
   14.2758   -6.7005   -9.5338 N   0  0  0  0  0  0  0  0  0  0  0  0
   15.5571   -7.3175   -9.8669 C   0  0  0  0  0  0  0  0  0  0  0  0
   15.9134   -6.9721  -11.3054 C   0  0  0  0  0  0  0  0  0  0  0  0
   17.2653   -7.5516  -11.6391 C   0  0  0  0  0  0  0  0  0  0  0  0
   17.6415   -7.1731  -13.0423 C   0  0  2  0  0  0  0  0  0  0  0  0
   18.9108   -7.7894  -13.3720 N   0  0  0  0  0  0  0  0  0  0  0  0
   17.7715   -5.7013  -13.1873 C   0  0  0  0  0  0  0  0  0  0  0  0
   18.8273   -5.0742  -12.8998 O   0  0  0  0  0  0  0  0  0  0  0  0
   16.7049   -4.9346  -13.6590 O   0  0  0  0  0  0  0  0  0  0  0  0
  2  1  1  1
  2  7  1  0
  3  2  1  0
  3  4  1  0
  4  5  1  0
  5  6  2  0
  7  8  2  0
  9  5  1  0
 10  7  1  0
 10 11  1  0
 11 15  1  0
 12 13  1  0
 11 12  1  6
 13 17  1  0
 14 13  2  0
 15 26  1  0
 15 16  2  0
 19 18  1  0
 19 21  1  0
 20 19  2  0
 22 21  1  0
 23 22  1  0
 23 24  1  0
 25 24  1  1
 25 27  1  0
 26 25  1  0
 27 29  1  0
 28 27  2  0
M  END
$$$$
