FGN.pdb
     RDKit          3D

 24 24  0  0  1  0  0  0  0  0999 V2000
    7.1613  -15.8425   25.9080 N   0  0  0  0  0  0  0  0  0  0  0  0
    6.6721  -15.4527   24.6001 C   0  0  1  0  0  0  0  0  0  0  0  0
    7.1983  -14.0537   24.3013 C   0  0  0  0  0  0  0  0  0  0  0  0
    6.9271  -13.1223   25.4092 C   0  0  0  0  0  0  0  0  0  0  0  0
    7.8973  -12.7565   26.3483 C   0  0  0  0  0  0  0  0  0  0  0  0
    7.5742  -11.8867   27.3536 C   0  0  0  0  0  0  0  0  0  0  0  0
    6.3074  -11.3796   27.4361 C   0  0  0  0  0  0  0  0  0  0  0  0
    5.3300  -11.7266   26.5185 C   0  0  0  0  0  0  0  0  0  0  0  0
    5.6477  -12.6023   25.5030 C   0  0  0  0  0  0  0  0  0  0  0  0
    7.1827  -16.3723   23.5406 C   0  0  0  0  0  0  0  0  0  0  0  0
    6.7630  -16.2699   22.3607 O   0  0  0  0  0  0  0  0  0  0  0  0
    8.1501  -17.3817   23.8307 N   0  0  0  0  0  0  0  0  0  0  0  0
    8.3944  -18.3738   22.8393 C   0  0  0  0  0  0  0  0  0  0  0  0
    9.3636  -19.4100   23.1765 C   0  0  0  0  0  0  0  0  0  0  0  0
    9.7829  -20.1916   22.2524 O   0  0  0  0  0  0  0  0  0  0  0  0
   13.6573  -17.5775   23.9145 N   0  0  0  0  0  0  0  0  0  0  0  0
   12.3034  -17.3951   23.4799 C   0  0  0  0  0  0  0  0  0  0  0  0
   12.1453  -17.0489   22.2921 O   0  0  0  0  0  0  0  0  0  0  0  0
   11.2358  -17.6316   24.4691 C   0  0  0  0  0  0  0  0  0  0  0  0
   11.2030  -19.0678   24.8695 C   0  0  2  0  0  0  0  0  0  0  0  0
    9.9090  -19.6533   24.4573 N   0  0  0  0  0  0  0  0  0  0  0  0
   11.3485  -19.2261   26.3245 C   0  0  0  0  0  0  0  0  0  0  0  0
   10.5511  -18.4921   27.1763 O   0  0  0  0  0  0  0  0  0  0  0  0
   12.1841  -20.0160   26.8048 O   0  0  0  0  0  0  0  0  0  0  0  0
  2  1  1  1
  3  2  1  0
  4  9  2  0
  4  3  1  0
  5  4  1  0
  6  7  1  0
  6  5  2  0
  7  8  2  0
  8  9  1  0
 10  2  1  0
 10 12  1  0
 11 10  2  0
 13 12  1  0
 14 13  1  0
 15 14  2  0
 17 16  1  0
 17 18  2  0
 20 19  1  1
 19 17  1  0
 20 21  1  0
 21 14  1  0
 22 23  1  0
 22 20  1  0
 24 22  2  0
M  END
$$$$
