FGN.pdb
     RDKit          3D

 24 24  0  0  1  0  0  0  0  0999 V2000
    8.8322  -15.1377   25.8929 N   0  0  0  0  0  0  0  0  0  0  0  0
    8.4014  -15.0248   24.5132 C   0  0  1  0  0  0  0  0  0  0  0  0
    8.1400  -13.5514   24.2234 C   0  0  0  0  0  0  0  0  0  0  0  0
    7.3103  -12.9301   25.2694 C   0  0  0  0  0  0  0  0  0  0  0  0
    7.7312  -11.8239   26.0151 C   0  0  0  0  0  0  0  0  0  0  0  0
    6.9080  -11.2990   26.9735 C   0  0  0  0  0  0  0  0  0  0  0  0
    5.6801  -11.8564   27.1979 C   0  0  0  0  0  0  0  0  0  0  0  0
    5.2412  -12.9515   26.4727 C   0  0  0  0  0  0  0  0  0  0  0  0
    6.0647  -13.4859   25.5056 C   0  0  0  0  0  0  0  0  0  0  0  0
    9.4663  -15.4956   23.5787 C   0  0  0  0  0  0  0  0  0  0  0  0
   10.6086  -14.9732   23.6097 O   0  0  0  0  0  0  0  0  0  0  0  0
    9.2235  -16.5392   22.6348 N   0  0  0  0  0  0  0  0  0  0  0  0
   10.2607  -16.8570   21.7128 C   0  0  0  0  0  0  0  0  0  0  0  0
   11.4747  -17.4415   22.2707 C   0  0  0  0  0  0  0  0  0  0  0  0
   12.2560  -18.1020   21.5000 O   0  0  0  0  0  0  0  0  0  0  0  0
   15.5103  -16.7989   22.7087 N   0  0  0  0  0  0  0  0  0  0  0  0
   14.6112  -16.1994   23.6509 C   0  0  0  0  0  0  0  0  0  0  0  0
   14.3864  -14.9814   23.5036 O   0  0  0  0  0  0  0  0  0  0  0  0
   14.0426  -17.0715   24.6951 C   0  0  0  0  0  0  0  0  0  0  0  0
   13.1041  -18.0627   24.0944 C   0  0  2  0  0  0  0  0  0  0  0  0
   11.8968  -17.3548   23.6166 N   0  0  0  0  0  0  0  0  0  0  0  0
   12.6953  -19.0813   25.0736 C   0  0  0  0  0  0  0  0  0  0  0  0
   13.3935  -20.2666   25.1607 O   0  0  0  0  0  0  0  0  0  0  0  0
   11.7238  -18.8917   25.8305 O   0  0  0  0  0  0  0  0  0  0  0  0
  2  1  1  1
  3  2  1  0
  4  9  2  0
  4  3  1  0
  5  4  1  0
  6  7  1  0
  6  5  2  0
  7  8  2  0
  8  9  1  0
 10  2  1  0
 10 12  1  0
 11 10  2  0
 13 12  1  0
 14 13  1  0
 15 14  2  0
 17 16  1  0
 17 18  2  0
 20 19  1  1
 19 17  1  0
 20 21  1  0
 21 14  1  0
 22 23  1  0
 22 20  1  0
 24 22  2  0
M  END
$$$$
