FGN.pdb
     RDKit          3D

 24 24  0  0  1  0  0  0  0  0999 V2000
    9.1887  -14.5990   24.5055 N   0  0  0  0  0  0  0  0  0  0  0  0
    8.0356  -15.4683   24.3772 C   0  0  1  0  0  0  0  0  0  0  0  0
    6.7891  -14.5916   24.3490 C   0  0  0  0  0  0  0  0  0  0  0  0
    6.8415  -13.5383   25.3766 C   0  0  0  0  0  0  0  0  0  0  0  0
    6.3900  -13.7323   26.6864 C   0  0  0  0  0  0  0  0  0  0  0  0
    6.4675  -12.7075   27.5893 C   0  0  0  0  0  0  0  0  0  0  0  0
    6.9847  -11.5006   27.2088 C   0  0  0  0  0  0  0  0  0  0  0  0
    7.4380  -11.2843   25.9182 C   0  0  0  0  0  0  0  0  0  0  0  0
    7.3632  -12.3118   25.0030 C   0  0  0  0  0  0  0  0  0  0  0  0
    8.0849  -16.2393   23.0996 C   0  0  0  0  0  0  0  0  0  0  0  0
    7.3313  -17.2306   22.9316 O   0  0  0  0  0  0  0  0  0  0  0  0
    8.9766  -15.8791   22.0441 N   0  0  0  0  0  0  0  0  0  0  0  0
    9.0761  -16.7577   20.9282 C   0  0  0  0  0  0  0  0  0  0  0  0
   10.3121  -17.5221   20.8063 C   0  0  0  0  0  0  0  0  0  0  0  0
   10.4864  -18.2589   19.7732 O   0  0  0  0  0  0  0  0  0  0  0  0
   14.5338  -14.3113   21.2768 N   0  0  0  0  0  0  0  0  0  0  0  0
   13.8086  -15.0927   20.3182 C   0  0  0  0  0  0  0  0  0  0  0  0
   14.3439  -15.2342   19.2006 O   0  0  0  0  0  0  0  0  0  0  0  0
   12.5103  -15.6499   20.7404 C   0  0  0  0  0  0  0  0  0  0  0  0
   12.7001  -16.9707   21.4065 C   0  0  2  0  0  0  0  0  0  0  0  0
   11.3751  -17.5381   21.7375 N   0  0  0  0  0  0  0  0  0  0  0  0
   13.4798  -16.8426   22.6470 C   0  0  0  0  0  0  0  0  0  0  0  0
   12.9534  -16.1538   23.7187 O   0  0  0  0  0  0  0  0  0  0  0  0
   14.6143  -17.3480   22.7482 O   0  0  0  0  0  0  0  0  0  0  0  0
  2  1  1  6
  3  2  1  0
  4  9  2  0
  4  3  1  0
  5  4  1  0
  6  7  1  0
  6  5  2  0
  7  8  2  0
  8  9  1  0
 10  2  1  0
 10 12  1  0
 11 10  2  0
 13 12  1  0
 14 13  1  0
 15 14  2  0
 17 16  1  0
 17 18  2  0
 20 19  1  1
 19 17  1  0
 20 21  1  0
 21 14  1  0
 22 23  1  0
 22 20  1  0
 24 22  2  0
M  END
$$$$
