FGN.pdb
     RDKit          3D

 24 24  0  0  1  0  0  0  0  0999 V2000
    7.2551  -15.2312   23.3580 N   0  0  0  0  0  0  0  0  0  0  0  0
    8.2894  -15.4528   24.3495 C   0  0  1  0  0  0  0  0  0  0  0  0
    7.6688  -15.2500   25.7269 C   0  0  0  0  0  0  0  0  0  0  0  0
    7.1369  -13.8865   25.8885 C   0  0  0  0  0  0  0  0  0  0  0  0
    5.8183  -13.6270   26.2768 C   0  0  0  0  0  0  0  0  0  0  0  0
    5.3911  -12.3337   26.4054 C   0  0  0  0  0  0  0  0  0  0  0  0
    6.2528  -11.3025   26.1545 C   0  0  0  0  0  0  0  0  0  0  0  0
    7.5625  -11.5340   25.7689 C   0  0  0  0  0  0  0  0  0  0  0  0
    8.0002  -12.8341   25.6372 C   0  0  0  0  0  0  0  0  0  0  0  0
    8.8082  -16.8510   24.2800 C   0  0  0  0  0  0  0  0  0  0  0  0
    9.0371  -17.4921   25.3362 O   0  0  0  0  0  0  0  0  0  0  0  0
    9.0562  -17.4941   23.0295 N   0  0  0  0  0  0  0  0  0  0  0  0
   10.2719  -17.1893   22.3540 C   0  0  0  0  0  0  0  0  0  0  0  0
   11.4965  -17.7218   22.9401 C   0  0  0  0  0  0  0  0  0  0  0  0
   11.8574  -18.9149   22.6454 O   0  0  0  0  0  0  0  0  0  0  0  0
   14.2151  -16.5868   21.8931 N   0  0  0  0  0  0  0  0  0  0  0  0
   14.8917  -15.9767   23.0000 C   0  0  0  0  0  0  0  0  0  0  0  0
   15.6120  -14.9936   22.7347 O   0  0  0  0  0  0  0  0  0  0  0  0
   14.6741  -16.5638   24.3350 C   0  0  0  0  0  0  0  0  0  0  0  0
   13.6373  -17.6340   24.2727 C   0  0  2  0  0  0  0  0  0  0  0  0
   12.3578  -17.0398   23.8291 N   0  0  0  0  0  0  0  0  0  0  0  0
   13.4327  -18.2645   25.5857 C   0  0  0  0  0  0  0  0  0  0  0  0
   13.5690  -17.5145   26.7342 O   0  0  0  0  0  0  0  0  0  0  0  0
   13.1366  -19.4712   25.6801 O   0  0  0  0  0  0  0  0  0  0  0  0
  2  1  1  6
  3  2  1  0
  4  9  2  0
  4  3  1  0
  5  4  1  0
  6  7  1  0
  6  5  2  0
  7  8  2  0
  8  9  1  0
 10  2  1  0
 10 12  1  0
 11 10  2  0
 13 12  1  0
 14 13  1  0
 15 14  2  0
 17 16  1  0
 17 18  2  0
 20 19  1  1
 19 17  1  0
 20 21  1  0
 21 14  1  0
 22 23  1  0
 22 20  1  0
 24 22  2  0
M  END
$$$$
