FGN.pdb
     RDKit          3D

 24 24  0  0  1  0  0  0  0  0999 V2000
    5.7910  -17.3157   26.0984 N   0  0  0  0  0  0  0  0  0  0  0  0
    6.3958  -16.4715   25.0867 C   0  0  1  0  0  0  0  0  0  0  0  0
    7.5809  -15.7542   25.7227 C   0  0  0  0  0  0  0  0  0  0  0  0
    7.3529  -14.3023   25.8137 C   0  0  0  0  0  0  0  0  0  0  0  0
    6.6139  -13.7130   26.8450 C   0  0  0  0  0  0  0  0  0  0  0  0
    6.4406  -12.3561   26.8655 C   0  0  0  0  0  0  0  0  0  0  0  0
    6.9892  -11.5833   25.8803 C   0  0  0  0  0  0  0  0  0  0  0  0
    7.7247  -12.1434   24.8492 C   0  0  0  0  0  0  0  0  0  0  0  0
    7.9036  -13.5095   24.8216 C   0  0  0  0  0  0  0  0  0  0  0  0
    6.9094  -17.2860   23.9457 C   0  0  0  0  0  0  0  0  0  0  0  0
    6.1532  -18.1034   23.3636 O   0  0  0  0  0  0  0  0  0  0  0  0
    8.2559  -17.1629   23.4868 N   0  0  0  0  0  0  0  0  0  0  0  0
    8.4650  -16.8462   22.1146 C   0  0  0  0  0  0  0  0  0  0  0  0
    9.8486  -16.8118   21.6553 C   0  0  0  0  0  0  0  0  0  0  0  0
   10.2031  -15.9066   20.8214 O   0  0  0  0  0  0  0  0  0  0  0  0
   13.2796  -15.2023   23.9177 N   0  0  0  0  0  0  0  0  0  0  0  0
   12.0454  -15.4530   24.6026 C   0  0  0  0  0  0  0  0  0  0  0  0
   11.7417  -14.6502   25.5076 O   0  0  0  0  0  0  0  0  0  0  0  0
   11.2592  -16.6254   24.1764 C   0  0  0  0  0  0  0  0  0  0  0  0
   11.9141  -17.3014   23.0196 C   0  0  2  0  0  0  0  0  0  0  0  0
   10.8763  -17.7005   22.0444 N   0  0  0  0  0  0  0  0  0  0  0  0
   12.6493  -18.5031   23.4420 C   0  0  0  0  0  0  0  0  0  0  0  0
   11.9659  -19.6774   23.6750 O   0  0  0  0  0  0  0  0  0  0  0  0
   13.8858  -18.4798   23.5943 O   0  0  0  0  0  0  0  0  0  0  0  0
  2  1  1  1
  3  2  1  0
  4  9  2  0
  4  3  1  0
  5  4  1  0
  6  7  1  0
  6  5  2  0
  7  8  2  0
  8  9  1  0
 10  2  1  0
 10 12  1  0
 11 10  2  0
 13 12  1  0
 14 13  1  0
 15 14  2  0
 17 16  1  0
 17 18  2  0
 20 19  1  1
 19 17  1  0
 20 21  1  0
 21 14  1  0
 22 23  1  0
 22 20  1  0
 24 22  2  0
M  END
$$$$
