FGN.pdb
     RDKit          3D

 24 24  0  0  1  0  0  0  0  0999 V2000
    8.8712  -15.2434   24.8796 N   0  0  0  0  0  0  0  0  0  0  0  0
    7.6441  -15.2531   24.1075 C   0  0  1  0  0  0  0  0  0  0  0  0
    7.2570  -13.8061   23.8253 C   0  0  0  0  0  0  0  0  0  0  0  0
    6.8715  -13.0961   25.0564 C   0  0  0  0  0  0  0  0  0  0  0  0
    5.6403  -13.2909   25.6913 C   0  0  0  0  0  0  0  0  0  0  0  0
    5.3479  -12.5950   26.8323 C   0  0  0  0  0  0  0  0  0  0  0  0
    6.2582  -11.7141   27.3463 C   0  0  0  0  0  0  0  0  0  0  0  0
    7.4834  -11.5042   26.7360 C   0  0  0  0  0  0  0  0  0  0  0  0
    7.7852  -12.2015   25.5863 C   0  0  0  0  0  0  0  0  0  0  0  0
    7.8406  -15.9407   22.7970 C   0  0  0  0  0  0  0  0  0  0  0  0
    6.8801  -16.5348   22.2461 O   0  0  0  0  0  0  0  0  0  0  0  0
    9.1074  -15.9443   22.1382 N   0  0  0  0  0  0  0  0  0  0  0  0
    9.7186  -17.2036   21.8782 C   0  0  0  0  0  0  0  0  0  0  0  0
   10.8175  -17.5903   22.7555 C   0  0  0  0  0  0  0  0  0  0  0  0
   11.7001  -18.4100   22.3199 O   0  0  0  0  0  0  0  0  0  0  0  0
   13.9796  -15.2090   22.9287 N   0  0  0  0  0  0  0  0  0  0  0  0
   13.8456  -16.5094   23.5170 C   0  0  0  0  0  0  0  0  0  0  0  0
   14.2555  -17.4702   22.8353 O   0  0  0  0  0  0  0  0  0  0  0  0
   13.2416  -16.5873   24.8599 C   0  0  0  0  0  0  0  0  0  0  0  0
   12.1640  -17.6180   24.8893 C   0  0  2  0  0  0  0  0  0  0  0  0
   11.0207  -17.1427   24.0805 N   0  0  0  0  0  0  0  0  0  0  0  0
   11.6966  -17.8713   26.2607 C   0  0  0  0  0  0  0  0  0  0  0  0
   12.4091  -18.7193   27.0813 O   0  0  0  0  0  0  0  0  0  0  0  0
   10.6624  -17.3306   26.6974 O   0  0  0  0  0  0  0  0  0  0  0  0
  2  1  1  1
  3  2  1  0
  4  9  2  0
  4  3  1  0
  5  4  1  0
  6  7  1  0
  6  5  2  0
  7  8  2  0
  8  9  1  0
 10  2  1  0
 10 12  1  0
 11 10  2  0
 13 12  1  0
 14 13  1  0
 15 14  2  0
 17 16  1  0
 17 18  2  0
 20 19  1  1
 19 17  1  0
 20 21  1  0
 21 14  1  0
 22 23  1  0
 22 20  1  0
 24 22  2  0
M  END
$$$$
