FGN.pdb
     RDKit          3D

 24 24  0  0  1  0  0  0  0  0999 V2000
    7.2638  -16.4635   25.9412 N   0  0  0  0  0  0  0  0  0  0  0  0
    6.7322  -15.7434   24.8007 C   0  0  1  0  0  0  0  0  0  0  0  0
    7.5096  -14.4391   24.6666 C   0  0  0  0  0  0  0  0  0  0  0  0
    7.2084  -13.5105   25.7690 C   0  0  0  0  0  0  0  0  0  0  0  0
    5.9155  -13.0528   26.0444 C   0  0  0  0  0  0  0  0  0  0  0  0
    5.7091  -12.1886   27.0847 C   0  0  0  0  0  0  0  0  0  0  0  0
    6.7650  -11.7768   27.8491 C   0  0  0  0  0  0  0  0  0  0  0  0
    8.0537  -12.2159   27.5962 C   0  0  0  0  0  0  0  0  0  0  0  0
    8.2696  -13.0865   26.5501 C   0  0  0  0  0  0  0  0  0  0  0  0
    6.9189  -16.5219   23.5405 C   0  0  0  0  0  0  0  0  0  0  0  0
    7.7180  -17.4911   23.5104 O   0  0  0  0  0  0  0  0  0  0  0  0
    6.2053  -16.1944   22.3478 N   0  0  0  0  0  0  0  0  0  0  0  0
    6.5107  -16.9286   21.1668 C   0  0  0  0  0  0  0  0  0  0  0  0
    7.7214  -16.5420   20.4517 C   0  0  0  0  0  0  0  0  0  0  0  0
    8.0023  -17.1258   19.3467 O   0  0  0  0  0  0  0  0  0  0  0  0
    7.7847  -12.6587   19.3293 N   0  0  0  0  0  0  0  0  0  0  0  0
    8.8177  -13.5107   18.8172 C   0  0  0  0  0  0  0  0  0  0  0  0
    8.6844  -13.8948   17.6380 O   0  0  0  0  0  0  0  0  0  0  0  0
    9.9295  -13.8493   19.7246 C   0  0  0  0  0  0  0  0  0  0  0  0
    9.8847  -15.2946   20.0896 C   0  0  2  0  0  0  0  0  0  0  0  0
    8.6505  -15.5587   20.8605 N   0  0  0  0  0  0  0  0  0  0  0  0
   11.0429  -15.6804   20.9100 C   0  0  0  0  0  0  0  0  0  0  0  0
   12.3135  -15.6003   20.3815 O   0  0  0  0  0  0  0  0  0  0  0  0
   10.8964  -16.0807   22.0809 O   0  0  0  0  0  0  0  0  0  0  0  0
  2  1  1  1
  3  2  1  0
  4  9  2  0
  4  3  1  0
  5  4  1  0
  6  7  1  0
  6  5  2  0
  7  8  2  0
  8  9  1  0
 10  2  1  0
 10 12  1  0
 11 10  2  0
 13 12  1  0
 14 13  1  0
 15 14  2  0
 17 16  1  0
 17 18  2  0
 20 19  1  1
 19 17  1  0
 20 21  1  0
 21 14  1  0
 22 23  1  0
 22 20  1  0
 24 22  2  0
M  END
$$$$
