FGN.pdb
     RDKit          3D

 24 24  0  0  1  0  0  0  0  0999 V2000
    6.7742  -16.1441   25.5738 N   0  0  0  0  0  0  0  0  0  0  0  0
    7.4292  -15.4191   24.5027 C   0  0  1  0  0  0  0  0  0  0  0  0
    8.3115  -14.3481   25.1334 C   0  0  0  0  0  0  0  0  0  0  0  0
    7.5107  -13.2937   25.7779 C   0  0  0  0  0  0  0  0  0  0  0  0
    7.3588  -13.1968   27.1652 C   0  0  0  0  0  0  0  0  0  0  0  0
    6.5977  -12.1914   27.6956 C   0  0  0  0  0  0  0  0  0  0  0  0
    5.9901  -11.2873   26.8694 C   0  0  0  0  0  0  0  0  0  0  0  0
    6.1257  -11.3624   25.4933 C   0  0  0  0  0  0  0  0  0  0  0  0
    6.8907  -12.3725   24.9516 C   0  0  0  0  0  0  0  0  0  0  0  0
    8.3055  -16.3234   23.7006 C   0  0  0  0  0  0  0  0  0  0  0  0
    8.5864  -17.4713   24.1276 O   0  0  0  0  0  0  0  0  0  0  0  0
    8.8435  -15.9182   22.4415 N   0  0  0  0  0  0  0  0  0  0  0  0
    9.7013  -16.8279   21.7606 C   0  0  0  0  0  0  0  0  0  0  0  0
   10.9822  -17.1177   22.3948 C   0  0  0  0  0  0  0  0  0  0  0  0
   11.7027  -18.0696   21.9309 O   0  0  0  0  0  0  0  0  0  0  0  0
   15.1833  -16.5615   22.3597 N   0  0  0  0  0  0  0  0  0  0  0  0
   14.3202  -15.5613   22.9163 C   0  0  0  0  0  0  0  0  0  0  0  0
   14.1251  -14.5471   22.2169 O   0  0  0  0  0  0  0  0  0  0  0  0
   13.7500  -15.8237   24.2506 C   0  0  0  0  0  0  0  0  0  0  0  0
   12.7514  -16.9294   24.1840 C   0  0  2  0  0  0  0  0  0  0  0  0
   11.5332  -16.4379   23.5046 N   0  0  0  0  0  0  0  0  0  0  0  0
   12.3819  -17.4046   25.5260 C   0  0  0  0  0  0  0  0  0  0  0  0
   11.0706  -17.3256   25.9435 O   0  0  0  0  0  0  0  0  0  0  0  0
   13.2371  -17.8802   26.2975 O   0  0  0  0  0  0  0  0  0  0  0  0
  2  1  1  1
  3  2  1  0
  4  9  2  0
  4  3  1  0
  5  4  1  0
  6  7  1  0
  6  5  2  0
  7  8  2  0
  8  9  1  0
 10  2  1  0
 10 12  1  0
 11 10  2  0
 13 12  1  0
 14 13  1  0
 15 14  2  0
 17 16  1  0
 17 18  2  0
 20 19  1  1
 19 17  1  0
 20 21  1  0
 21 14  1  0
 22 23  1  0
 22 20  1  0
 24 22  2  0
M  END
$$$$
