FGN.pdb
     RDKit          3D

 24 24  0  0  1  0  0  0  0  0999 V2000
    6.1141  -15.8035   25.5637 N   0  0  0  0  0  0  0  0  0  0  0  0
    6.8665  -15.2111   24.4751 C   0  0  1  0  0  0  0  0  0  0  0  0
    7.9078  -14.2766   25.0797 C   0  0  0  0  0  0  0  0  0  0  0  0
    7.2832  -13.2178   25.8904 C   0  0  0  0  0  0  0  0  0  0  0  0
    7.5147  -13.0761   27.2627 C   0  0  0  0  0  0  0  0  0  0  0  0
    6.8984  -12.0692   27.9541 C   0  0  0  0  0  0  0  0  0  0  0  0
    6.0608  -11.2075   27.3024 C   0  0  0  0  0  0  0  0  0  0  0  0
    5.8160  -11.3273   25.9446 C   0  0  0  0  0  0  0  0  0  0  0  0
    6.4331  -12.3391   25.2414 C   0  0  0  0  0  0  0  0  0  0  0  0
    7.5872  -16.2567   23.6901 C   0  0  0  0  0  0  0  0  0  0  0  0
    8.3085  -15.9281   22.7150 O   0  0  0  0  0  0  0  0  0  0  0  0
    7.4812  -17.6424   24.0183 N   0  0  0  0  0  0  0  0  0  0  0  0
    8.1414  -18.5788   23.1731 C   0  0  0  0  0  0  0  0  0  0  0  0
    9.5972  -18.6155   23.2501 C   0  0  0  0  0  0  0  0  0  0  0  0
   10.2307  -19.5131   22.5916 O   0  0  0  0  0  0  0  0  0  0  0  0
   11.6192  -15.6270   21.6896 N   0  0  0  0  0  0  0  0  0  0  0  0
   12.4968  -16.6369   22.2046 C   0  0  0  0  0  0  0  0  0  0  0  0
   13.1010  -17.3281   21.3603 O   0  0  0  0  0  0  0  0  0  0  0  0
   12.6010  -16.7617   23.6702 C   0  0  0  0  0  0  0  0  0  0  0  0
   11.8660  -17.9692   24.1455 C   0  0  2  0  0  0  0  0  0  0  0  0
   10.4128  -17.7372   23.9988 N   0  0  0  0  0  0  0  0  0  0  0  0
   12.1560  -18.2562   25.5586 C   0  0  0  0  0  0  0  0  0  0  0  0
   13.4400  -18.5792   25.9423 O   0  0  0  0  0  0  0  0  0  0  0  0
   11.2574  -18.2126   26.4208 O   0  0  0  0  0  0  0  0  0  0  0  0
  2  1  1  1
  3  2  1  0
  4  9  2  0
  4  3  1  0
  5  4  1  0
  6  7  1  0
  6  5  2  0
  7  8  2  0
  8  9  1  0
 10  2  1  0
 10 12  1  0
 11 10  2  0
 13 12  1  0
 14 13  1  0
 15 14  2  0
 17 16  1  0
 17 18  2  0
 20 19  1  1
 19 17  1  0
 20 21  1  0
 21 14  1  0
 22 23  1  0
 22 20  1  0
 24 22  2  0
M  END
$$$$
