FGN.pdb
     RDKit          3D

 24 24  0  0  1  0  0  0  0  0999 V2000
    6.1298  -14.3658   22.9490 N   0  0  0  0  0  0  0  0  0  0  0  0
    7.5109  -14.6992   23.2378 C   0  0  1  0  0  0  0  0  0  0  0  0
    7.6293  -14.9461   24.7373 C   0  0  0  0  0  0  0  0  0  0  0  0
    7.1959  -13.7747   25.5173 C   0  0  0  0  0  0  0  0  0  0  0  0
    5.8626  -13.5538   25.8781 C   0  0  0  0  0  0  0  0  0  0  0  0
    5.5313  -12.4417   26.6028 C   0  0  0  0  0  0  0  0  0  0  0  0
    6.5026  -11.5529   26.9706 C   0  0  0  0  0  0  0  0  0  0  0  0
    7.8292  -11.7498   26.6255 C   0  0  0  0  0  0  0  0  0  0  0  0
    8.1707  -12.8676   25.8956 C   0  0  0  0  0  0  0  0  0  0  0  0
    7.9194  -15.9498   22.5320 C   0  0  0  0  0  0  0  0  0  0  0  0
    7.1500  -16.4799   21.6919 O   0  0  0  0  0  0  0  0  0  0  0  0
    9.1789  -16.5729   22.7855 N   0  0  0  0  0  0  0  0  0  0  0  0
    9.9348  -17.0250   21.6669 C   0  0  0  0  0  0  0  0  0  0  0  0
   11.1394  -17.7932   21.9596 C   0  0  0  0  0  0  0  0  0  0  0  0
   11.8914  -18.1608   20.9901 O   0  0  0  0  0  0  0  0  0  0  0  0
   15.4845  -17.3119   23.4510 N   0  0  0  0  0  0  0  0  0  0  0  0
   14.6497  -16.1904   23.1335 C   0  0  0  0  0  0  0  0  0  0  0  0
   15.2358  -15.1391   22.8064 O   0  0  0  0  0  0  0  0  0  0  0  0
   13.1907  -16.3842   23.2228 C   0  0  0  0  0  0  0  0  0  0  0  0
   12.8755  -17.7272   23.7895 C   0  0  2  0  0  0  0  0  0  0  0  0
   11.5818  -18.1895   23.2420 N   0  0  0  0  0  0  0  0  0  0  0  0
   12.7768  -17.6846   25.2564 C   0  0  0  0  0  0  0  0  0  0  0  0
   12.2431  -16.5743   25.8749 O   0  0  0  0  0  0  0  0  0  0  0  0
   13.1691  -18.6391   25.9549 O   0  0  0  0  0  0  0  0  0  0  0  0
  2  1  1  1
  3  2  1  0
  4  9  2  0
  4  3  1  0
  5  4  1  0
  6  7  1  0
  6  5  2  0
  7  8  2  0
  8  9  1  0
 10  2  1  0
 10 12  1  0
 11 10  2  0
 13 12  1  0
 14 13  1  0
 15 14  2  0
 17 16  1  0
 17 18  2  0
 20 19  1  6
 19 17  1  0
 20 21  1  0
 21 14  1  0
 22 23  1  0
 22 20  1  0
 24 22  2  0
M  END
$$$$
