FGN.pdb
     RDKit          3D

 24 24  0  0  1  0  0  0  0  0999 V2000
    7.0072  -17.4621   21.1074 N   0  0  0  0  0  0  0  0  0  0  0  0
    6.3030  -17.3879   19.8423 C   0  0  1  0  0  0  0  0  0  0  0  0
    5.6123  -16.0310   19.7698 C   0  0  0  0  0  0  0  0  0  0  0  0
    6.4925  -14.9469   20.2374 C   0  0  0  0  0  0  0  0  0  0  0  0
    7.2602  -14.1643   19.3685 C   0  0  0  0  0  0  0  0  0  0  0  0
    8.0580  -13.1742   19.8734 C   0  0  0  0  0  0  0  0  0  0  0  0
    8.1016  -12.9542   21.2219 C   0  0  0  0  0  0  0  0  0  0  0  0
    7.3508  -13.7156   22.1019 C   0  0  0  0  0  0  0  0  0  0  0  0
    6.5448  -14.7148   21.6010 C   0  0  0  0  0  0  0  0  0  0  0  0
    7.2521  -17.4830   18.6938 C   0  0  0  0  0  0  0  0  0  0  0  0
    6.9308  -17.0215   17.5702 O   0  0  0  0  0  0  0  0  0  0  0  0
    8.5360  -18.0919   18.8346 N   0  0  0  0  0  0  0  0  0  0  0  0
    9.6830  -17.3029   18.5363 C   0  0  0  0  0  0  0  0  0  0  0  0
   10.5870  -17.0187   19.6448 C   0  0  0  0  0  0  0  0  0  0  0  0
   11.5986  -16.2599   19.4413 O   0  0  0  0  0  0  0  0  0  0  0  0
   10.2434  -14.4425   24.3840 N   0  0  0  0  0  0  0  0  0  0  0  0
   10.1612  -15.8710   24.2955 C   0  0  0  0  0  0  0  0  0  0  0  0
   10.4679  -16.5078   25.3232 O   0  0  0  0  0  0  0  0  0  0  0  0
    9.7260  -16.4469   23.0097 C   0  0  0  0  0  0  0  0  0  0  0  0
   10.9011  -16.7068   22.1289 C   0  0  2  0  0  0  0  0  0  0  0  0
   10.4631  -17.5073   20.9651 N   0  0  0  0  0  0  0  0  0  0  0  0
   11.9548  -17.4474   22.8392 C   0  0  0  0  0  0  0  0  0  0  0  0
   12.3746  -18.6698   22.3599 O   0  0  0  0  0  0  0  0  0  0  0  0
   12.4785  -16.9879   23.8723 O   0  0  0  0  0  0  0  0  0  0  0  0
  2  1  1  1
  3  2  1  0
  4  9  2  0
  4  3  1  0
  5  4  1  0
  6  7  1  0
  6  5  2  0
  7  8  2  0
  8  9  1  0
 10  2  1  0
 10 12  1  0
 11 10  2  0
 13 12  1  0
 14 13  1  0
 15 14  2  0
 17 16  1  0
 17 18  2  0
 20 19  1  1
 19 17  1  0
 20 21  1  0
 21 14  1  0
 22 23  1  0
 22 20  1  0
 24 22  2  0
M  END
$$$$
