IHS.pdb
     RDKit          3D

 25 25  0  0  1  0  0  0  0  0999 V2000
    6.6184  -12.3172   19.7836 C   0  0  0  0  0  0  0  0  0  0  0  0
    7.4697  -13.0670   18.8129 C   0  0  0  0  0  0  0  0  0  0  0  0
    8.7470  -13.5919   19.4319 C   0  0  2  0  0  0  0  0  0  0  0  0
    9.4633  -12.4467   20.0774 C   0  0  0  0  0  0  0  0  0  0  0  0
    9.5910  -14.3327   18.4217 C   0  0  2  0  0  0  0  0  0  0  0  0
    8.7438  -15.3111   17.7648 N   0  0  0  0  0  0  0  0  0  0  0  0
   10.7171  -15.0313   19.0594 C   0  0  0  0  0  0  0  0  0  0  0  0
   10.4867  -16.1416   19.6399 O   0  0  0  0  0  0  0  0  0  0  0  0
   12.0535  -14.5720   19.0851 N   0  0  0  0  0  0  0  0  0  0  0  0
   13.1278  -15.2993   19.6999 C   0  0  1  0  0  0  0  0  0  0  0  0
   14.4692  -14.8855   19.1700 C   0  0  0  0  0  0  0  0  0  0  0  0
   14.7292  -15.3216   17.7859 C   0  0  0  0  0  0  0  0  0  0  0  0
   14.3291  -16.5068   17.2129 C   0  0  0  0  0  0  0  0  0  0  0  0
   14.7456  -16.5715   15.9148 N   0  0  0  0  0  0  0  0  0  0  0  0
   15.4015  -15.4288   15.6863 C   0  0  0  0  0  0  0  0  0  0  0  0
   15.4008  -14.6763   16.7864 N   0  0  0  0  0  0  0  0  0  0  0  0
   13.0212  -15.3395   21.1737 C   0  0  0  0  0  0  0  0  0  0  0  0
   13.2513  -14.2690   21.7965 O   0  0  0  0  0  0  0  0  0  0  0  0
   10.8323  -18.1972   23.7315 O   0  0  0  0  0  0  0  0  0  0  0  0
   11.1076  -16.8525   23.7687 C   0  0  0  0  0  0  0  0  0  0  0  0
   12.5251  -16.5225   23.3452 C   0  0  2  0  0  0  0  0  0  0  0  0
   12.6792  -16.4913   21.9218 N   0  0  0  0  0  0  0  0  0  0  0  0
   13.4312  -17.4809   24.0159 C   0  0  0  0  0  0  0  0  0  0  0  0
   13.5988  -17.5370   25.3869 O   0  0  0  0  0  0  0  0  0  0  0  0
   14.0802  -18.2830   23.3055 O   0  0  0  0  0  0  0  0  0  0  0  0
  2  3  1  0
  2  1  1  0
  3  5  1  0
  3  4  1  6
  5  7  1  0
  5  6  1  1
  7  8  2  0
  9 10  1  0
  9  7  1  0
 10 11  1  1
 12 11  1  0
 13 12  2  0
 14 13  1  0
 15 14  1  0
 15 16  2  0
 16 12  1  0
 17 22  1  0
 17 10  1  0
 18 17  2  0
 20 19  1  0
 21 20  1  6
 21 22  1  0
 23 24  1  0
 23 21  1  0
 25 23  2  0
M  END
$$$$
