IHS.pdb
     RDKit          3D

 25 25  0  0  1  0  0  0  0  0999 V2000
    7.9056  -12.8010   22.1771 C   0  0  0  0  0  0  0  0  0  0  0  0
    8.2134  -13.8191   21.1292 C   0  0  0  0  0  0  0  0  0  0  0  0
    8.3614  -13.2176   19.7484 C   0  0  2  0  0  0  0  0  0  0  0  0
    7.0858  -12.5151   19.4010 C   0  0  0  0  0  0  0  0  0  0  0  0
    8.7690  -14.2562   18.7302 C   0  0  2  0  0  0  0  0  0  0  0  0
    7.8019  -15.3371   18.7845 N   0  0  0  0  0  0  0  0  0  0  0  0
   10.1060  -14.8005   19.0116 C   0  0  0  0  0  0  0  0  0  0  0  0
   10.1864  -15.9374   19.5806 O   0  0  0  0  0  0  0  0  0  0  0  0
   11.3286  -14.1629   18.7014 N   0  0  0  0  0  0  0  0  0  0  0  0
   12.6133  -14.7577   18.9402 C   0  0  1  0  0  0  0  0  0  0  0  0
   13.6900  -14.1392   18.0979 C   0  0  0  0  0  0  0  0  0  0  0  0
   14.9879  -14.8342   18.1760 C   0  0  0  0  0  0  0  0  0  0  0  0
   15.2626  -15.9757   18.8934 C   0  0  0  0  0  0  0  0  0  0  0  0
   16.5690  -16.3359   18.7313 N   0  0  0  0  0  0  0  0  0  0  0  0
   17.1002  -15.4189   17.9157 C   0  0  0  0  0  0  0  0  0  0  0  0
   16.1752  -14.5210   17.5772 N   0  0  0  0  0  0  0  0  0  0  0  0
   12.9314  -14.8729   20.3792 C   0  0  0  0  0  0  0  0  0  0  0  0
   12.7748  -13.8428   21.0872 O   0  0  0  0  0  0  0  0  0  0  0  0
   11.3769  -17.2120   22.6558 O   0  0  0  0  0  0  0  0  0  0  0  0
   12.7054  -17.3337   22.9808 C   0  0  0  0  0  0  0  0  0  0  0  0
   13.5611  -16.2156   22.4191 C   0  0  2  0  0  0  0  0  0  0  0  0
   13.3945  -16.0543   21.0060 N   0  0  0  0  0  0  0  0  0  0  0  0
   14.9613  -16.4726   22.8227 C   0  0  0  0  0  0  0  0  0  0  0  0
   15.8332  -15.4762   23.2200 O   0  0  0  0  0  0  0  0  0  0  0  0
   15.3787  -17.6535   22.8036 O   0  0  0  0  0  0  0  0  0  0  0  0
  2  3  1  0
  2  1  1  0
  3  5  1  0
  3  4  1  6
  5  7  1  0
  5  6  1  1
  7  8  2  0
  9 10  1  0
  9  7  1  0
 10 11  1  6
 12 11  1  0
 13 12  2  0
 14 13  1  0
 15 14  1  0
 15 16  2  0
 16 12  1  0
 17 22  1  0
 17 10  1  0
 18 17  2  0
 20 19  1  0
 21 20  1  6
 21 22  1  0
 23 24  1  0
 23 21  1  0
 25 23  2  0
M  END
$$$$
