IHS.pdb
     RDKit          3D

 25 25  0  0  1  0  0  0  0  0999 V2000
    7.0409  -12.1947   28.5065 C   0  0  0  0  0  0  0  0  0  0  0  0
    6.2600  -13.1039   27.6161 C   0  0  0  0  0  0  0  0  0  0  0  0
    7.0490  -13.5702   26.4118 C   0  0  2  0  0  0  0  0  0  0  0  0
    7.5469  -12.3636   25.6786 C   0  0  0  0  0  0  0  0  0  0  0  0
    6.2395  -14.5054   25.5448 C   0  0  2  0  0  0  0  0  0  0  0  0
    5.9835  -15.7123   26.3092 N   0  0  0  0  0  0  0  0  0  0  0  0
    6.9579  -14.8665   24.3134 C   0  0  0  0  0  0  0  0  0  0  0  0
    7.6399  -15.9424   24.3070 O   0  0  0  0  0  0  0  0  0  0  0  0
    6.9582  -14.1129   23.1178 N   0  0  0  0  0  0  0  0  0  0  0  0
    7.6688  -14.5078   21.9344 C   0  0  1  0  0  0  0  0  0  0  0  0
    7.3777  -13.6064   20.7707 C   0  0  0  0  0  0  0  0  0  0  0  0
    8.0303  -14.0174   19.5142 C   0  0  0  0  0  0  0  0  0  0  0  0
    8.8720  -13.2513   18.7410 C   0  0  0  0  0  0  0  0  0  0  0  0
    9.2894  -13.9574   17.6502 N   0  0  0  0  0  0  0  0  0  0  0  0
    8.7068  -15.1570   17.7492 C   0  0  0  0  0  0  0  0  0  0  0  0
    7.9566  -15.2087   18.8497 N   0  0  0  0  0  0  0  0  0  0  0  0
    9.1029  -14.7624   22.1869 C   0  0  0  0  0  0  0  0  0  0  0  0
    9.7390  -13.8837   22.8273 O   0  0  0  0  0  0  0  0  0  0  0  0
   10.6201  -17.8026   23.6456 O   0  0  0  0  0  0  0  0  0  0  0  0
   11.4625  -17.5121   22.6009 C   0  0  0  0  0  0  0  0  0  0  0  0
   11.1944  -16.1561   21.9786 C   0  0  2  0  0  0  0  0  0  0  0  0
    9.7992  -15.9186   21.7609 N   0  0  0  0  0  0  0  0  0  0  0  0
   12.0093  -16.0554   20.7477 C   0  0  0  0  0  0  0  0  0  0  0  0
   11.4670  -15.8703   19.4897 O   0  0  0  0  0  0  0  0  0  0  0  0
   13.2548  -16.1422   20.8500 O   0  0  0  0  0  0  0  0  0  0  0  0
  2  3  1  0
  2  1  1  0
  3  5  1  0
  3  4  1  6
  5  7  1  0
  5  6  1  1
  7  8  2  0
  9 10  1  0
  9  7  1  0
 10 11  1  6
 12 11  1  0
 13 12  2  0
 14 13  1  0
 15 14  1  0
 15 16  2  0
 16 12  1  0
 17 22  1  0
 17 10  1  0
 18 17  2  0
 20 19  1  0
 21 20  1  6
 21 22  1  0
 23 24  1  0
 23 21  1  0
 25 23  2  0
M  END
$$$$
