IHS.pdb
     RDKit          3D

 25 25  0  0  1  0  0  0  0  0999 V2000
    7.2121  -11.9725   28.1401 C   0  0  0  0  0  0  0  0  0  0  0  0
    6.4126  -12.9955   27.4029 C   0  0  0  0  0  0  0  0  0  0  0  0
    7.1051  -13.4971   26.1542 C   0  0  2  0  0  0  0  0  0  0  0  0
    7.5211  -12.3131   25.3380 C   0  0  0  0  0  0  0  0  0  0  0  0
    6.2405  -14.4744   25.3934 C   0  0  2  0  0  0  0  0  0  0  0  0
    6.0081  -15.6237   26.2488 N   0  0  0  0  0  0  0  0  0  0  0  0
    6.8907  -14.9281   24.1547 C   0  0  0  0  0  0  0  0  0  0  0  0
    7.5610  -16.0109   24.1874 O   0  0  0  0  0  0  0  0  0  0  0  0
    6.8362  -14.2578   22.9116 N   0  0  0  0  0  0  0  0  0  0  0  0
    7.5109  -14.7224   21.7325 C   0  0  1  0  0  0  0  0  0  0  0  0
    7.2362  -13.8520   20.5417 C   0  0  0  0  0  0  0  0  0  0  0  0
    7.9118  -14.2917   19.3072 C   0  0  0  0  0  0  0  0  0  0  0  0
    8.8095  -15.3279   19.1907 C   0  0  0  0  0  0  0  0  0  0  0  0
    9.2306  -15.4486   17.8981 N   0  0  0  0  0  0  0  0  0  0  0  0
    8.5944  -14.4892   17.2176 C   0  0  0  0  0  0  0  0  0  0  0  0
    7.8082  -13.7940   18.0392 N   0  0  0  0  0  0  0  0  0  0  0  0
    8.9379  -15.0248   21.9722 C   0  0  0  0  0  0  0  0  0  0  0  0
    9.6734  -14.0720   22.3438 O   0  0  0  0  0  0  0  0  0  0  0  0
   10.3376  -18.9367   22.3459 O   0  0  0  0  0  0  0  0  0  0  0  0
   11.0735  -17.8943   22.8532 C   0  0  0  0  0  0  0  0  0  0  0  0
   10.8996  -16.6067   22.0724 C   0  0  2  0  0  0  0  0  0  0  0  0
    9.5242  -16.3033   21.8140 N   0  0  0  0  0  0  0  0  0  0  0  0
   11.7221  -16.7078   20.8464 C   0  0  0  0  0  0  0  0  0  0  0  0
   11.1963  -16.6363   19.5700 O   0  0  0  0  0  0  0  0  0  0  0  0
   12.9584  -16.8662   20.9709 O   0  0  0  0  0  0  0  0  0  0  0  0
  2  3  1  0
  2  1  1  0
  3  5  1  0
  3  4  1  6
  5  7  1  0
  5  6  1  1
  7  8  2  0
  9 10  1  0
  9  7  1  0
 10 11  1  6
 12 11  1  0
 13 12  2  0
 14 13  1  0
 15 14  1  0
 15 16  2  0
 16 12  1  0
 17 22  1  0
 17 10  1  0
 18 17  2  0
 20 19  1  0
 21 20  1  6
 21 22  1  0
 23 24  1  0
 23 21  1  0
 25 23  2  0
M  END
$$$$
