IHS.pdb
     RDKit          3D

 25 25  0  0  1  0  0  0  0  0999 V2000
    6.4809  -12.3205   28.1375 C   0  0  0  0  0  0  0  0  0  0  0  0
    5.9927  -13.0792   26.9478 C   0  0  0  0  0  0  0  0  0  0  0  0
    7.1071  -13.7677   26.1899 C   0  0  2  0  0  0  0  0  0  0  0  0
    8.1368  -12.7419   25.8309 C   0  0  0  0  0  0  0  0  0  0  0  0
    6.5801  -14.5295   24.9968 C   0  0  2  0  0  0  0  0  0  0  0  0
    5.5825  -15.4698   25.4736 N   0  0  0  0  0  0  0  0  0  0  0  0
    7.6465  -15.2752   24.3114 C   0  0  0  0  0  0  0  0  0  0  0  0
    7.8896  -16.4663   24.6923 O   0  0  0  0  0  0  0  0  0  0  0  0
    8.4376  -14.7786   23.2508 N   0  0  0  0  0  0  0  0  0  0  0  0
    9.4490  -15.5534   22.5889 C   0  0  1  0  0  0  0  0  0  0  0  0
    9.9093  -14.9130   21.3124 C   0  0  0  0  0  0  0  0  0  0  0  0
    8.8206  -14.6097   20.3657 C   0  0  0  0  0  0  0  0  0  0  0  0
    7.5121  -15.0234   20.4640 C   0  0  0  0  0  0  0  0  0  0  0  0
    6.7846  -14.5535   19.4092 N   0  0  0  0  0  0  0  0  0  0  0  0
    7.6418  -13.8509   18.6609 C   0  0  0  0  0  0  0  0  0  0  0  0
    8.8539  -13.8745   19.2147 N   0  0  0  0  0  0  0  0  0  0  0  0
   10.5306  -15.9805   23.5017 C   0  0  0  0  0  0  0  0  0  0  0  0
   11.1966  -15.0738   24.0684 O   0  0  0  0  0  0  0  0  0  0  0  0
   10.9790  -19.9789   24.6975 O   0  0  0  0  0  0  0  0  0  0  0  0
   11.5071  -18.9770   25.4739 C   0  0  0  0  0  0  0  0  0  0  0  0
   11.8940  -17.7469   24.6772 C   0  0  2  0  0  0  0  0  0  0  0  0
   10.8613  -17.3287   23.7776 N   0  0  0  0  0  0  0  0  0  0  0  0
   13.1820  -18.0303   24.0062 C   0  0  0  0  0  0  0  0  0  0  0  0
   14.3492  -18.3149   24.6899 O   0  0  0  0  0  0  0  0  0  0  0  0
   13.2172  -18.0116   22.7541 O   0  0  0  0  0  0  0  0  0  0  0  0
  2  3  1  0
  2  1  1  0
  3  5  1  0
  3  4  1  6
  5  7  1  0
  5  6  1  1
  7  8  2  0
  9 10  1  0
  9  7  1  0
 10 11  1  6
 12 11  1  0
 13 12  2  0
 14 13  1  0
 15 14  1  0
 15 16  2  0
 16 12  1  0
 17 22  1  0
 17 10  1  0
 18 17  2  0
 20 19  1  0
 21 20  1  6
 21 22  1  0
 23 24  1  0
 23 21  1  0
 25 23  2  0
M  END
$$$$
