IHS.pdb
     RDKit          3D

 25 25  0  0  1  0  0  0  0  0999 V2000
    5.8957  -11.3252   26.5306 C   0  0  0  0  0  0  0  0  0  0  0  0
    6.1673  -12.5707   27.3079 C   0  0  0  0  0  0  0  0  0  0  0  0
    7.1897  -13.4681   26.6449 C   0  0  2  0  0  0  0  0  0  0  0  0
    8.3943  -12.6442   26.3112 C   0  0  0  0  0  0  0  0  0  0  0  0
    6.6073  -14.1874   25.4512 C   0  0  2  0  0  0  0  0  0  0  0  0
    5.4925  -14.9922   25.9160 N   0  0  0  0  0  0  0  0  0  0  0  0
    7.5949  -15.0689   24.8105 C   0  0  0  0  0  0  0  0  0  0  0  0
    7.7807  -16.2272   25.3070 O   0  0  0  0  0  0  0  0  0  0  0  0
    8.3681  -14.7386   23.6745 N   0  0  0  0  0  0  0  0  0  0  0  0
    9.2241  -15.6743   23.0013 C   0  0  1  0  0  0  0  0  0  0  0  0
    9.6863  -15.1630   21.6686 C   0  0  0  0  0  0  0  0  0  0  0  0
    8.6002  -14.6571   20.8094 C   0  0  0  0  0  0  0  0  0  0  0  0
    7.4147  -15.2963   20.5280 C   0  0  0  0  0  0  0  0  0  0  0  0
    6.6477  -14.5311   19.6980 N   0  0  0  0  0  0  0  0  0  0  0  0
    7.3578  -13.4217   19.4672 C   0  0  0  0  0  0  0  0  0  0  0  0
    8.5186  -13.4809   20.1194 N   0  0  0  0  0  0  0  0  0  0  0  0
   10.2930  -16.2024   23.8753 C   0  0  0  0  0  0  0  0  0  0  0  0
   11.0461  -15.3619   24.4350 O   0  0  0  0  0  0  0  0  0  0  0  0
   10.3657  -20.2094   25.0221 O   0  0  0  0  0  0  0  0  0  0  0  0
   11.0359  -19.2938   25.7953 C   0  0  0  0  0  0  0  0  0  0  0  0
   11.5201  -18.0912   25.0097 C   0  0  2  0  0  0  0  0  0  0  0  0
   10.5210  -17.5773   24.1219 N   0  0  0  0  0  0  0  0  0  0  0  0
   12.7757  -18.4741   24.3267 C   0  0  0  0  0  0  0  0  0  0  0  0
   13.9182  -18.8658   24.9992 O   0  0  0  0  0  0  0  0  0  0  0  0
   12.8056  -18.4419   23.0748 O   0  0  0  0  0  0  0  0  0  0  0  0
  2  3  1  0
  2  1  1  0
  3  5  1  0
  3  4  1  6
  5  7  1  0
  5  6  1  1
  7  8  2  0
  9 10  1  0
  9  7  1  0
 10 11  1  6
 12 11  1  0
 13 12  2  0
 14 13  1  0
 15 14  1  0
 15 16  2  0
 16 12  1  0
 17 22  1  0
 17 10  1  0
 18 17  2  0
 20 19  1  0
 21 20  1  6
 21 22  1  0
 23 24  1  0
 23 21  1  0
 25 23  2  0
M  END
$$$$
