IHS.pdb
     RDKit          3D

 25 25  0  0  1  0  0  0  0  0999 V2000
    7.3783  -12.5275   28.4558 C   0  0  0  0  0  0  0  0  0  0  0  0
    6.5735  -13.4707   27.6240 C   0  0  0  0  0  0  0  0  0  0  0  0
    7.2111  -13.7658   26.2836 C   0  0  2  0  0  0  0  0  0  0  0  0
    7.4258  -12.4685   25.5680 C   0  0  0  0  0  0  0  0  0  0  0  0
    6.3988  -14.7605   25.4885 C   0  0  2  0  0  0  0  0  0  0  0  0
    6.3186  -15.9879   26.2591 N   0  0  0  0  0  0  0  0  0  0  0  0
    7.0192  -15.0558   24.1882 C   0  0  0  0  0  0  0  0  0  0  0  0
    7.7644  -16.0849   24.0957 O   0  0  0  0  0  0  0  0  0  0  0  0
    6.8589  -14.2861   23.0138 N   0  0  0  0  0  0  0  0  0  0  0  0
    7.4688  -14.6226   21.7584 C   0  0  1  0  0  0  0  0  0  0  0  0
    7.0684  -13.6795   20.6623 C   0  0  0  0  0  0  0  0  0  0  0  0
    7.6820  -13.9808   19.3561 C   0  0  0  0  0  0  0  0  0  0  0  0
    8.6202  -13.2193   18.6979 C   0  0  0  0  0  0  0  0  0  0  0  0
    8.9624  -13.8057   17.5139 N   0  0  0  0  0  0  0  0  0  0  0  0
    8.2373  -14.9270   17.4409 C   0  0  0  0  0  0  0  0  0  0  0  0
    7.4726  -15.0454   18.5260 N   0  0  0  0  0  0  0  0  0  0  0  0
    8.9221  -14.8662   21.8760 C   0  0  0  0  0  0  0  0  0  0  0  0
    9.5999  -14.0102   22.5044 O   0  0  0  0  0  0  0  0  0  0  0  0
   10.5967  -18.5895   21.6282 O   0  0  0  0  0  0  0  0  0  0  0  0
   11.3306  -17.5346   22.1118 C   0  0  0  0  0  0  0  0  0  0  0  0
   11.0033  -16.2198   21.4320 C   0  0  2  0  0  0  0  0  0  0  0  0
    9.5935  -15.9885   21.3347 N   0  0  0  0  0  0  0  0  0  0  0  0
   11.6956  -16.2033   20.1243 C   0  0  0  0  0  0  0  0  0  0  0  0
   13.0689  -16.2851   19.9899 O   0  0  0  0  0  0  0  0  0  0  0  0
   11.0021  -16.1104   19.0853 O   0  0  0  0  0  0  0  0  0  0  0  0
  2  3  1  0
  2  1  1  0
  3  5  1  0
  3  4  1  6
  5  7  1  0
  5  6  1  1
  7  8  2  0
  9 10  1  0
  9  7  1  0
 10 11  1  6
 12 11  1  0
 13 12  2  0
 14 13  1  0
 15 14  1  0
 15 16  2  0
 16 12  1  0
 17 22  1  0
 17 10  1  0
 18 17  2  0
 20 19  1  0
 21 20  1  6
 21 22  1  0
 23 24  1  0
 23 21  1  0
 25 23  2  0
M  END
$$$$
