IHS.pdb
     RDKit          3D

 25 25  0  0  1  0  0  0  0  0999 V2000
    6.3320  -11.4686   27.6582 C   0  0  0  0  0  0  0  0  0  0  0  0
    5.8750  -12.4712   26.6507 C   0  0  0  0  0  0  0  0  0  0  0  0
    7.0085  -13.3029   26.0908 C   0  0  2  0  0  0  0  0  0  0  0  0
    8.0732  -12.3751   25.5938 C   0  0  0  0  0  0  0  0  0  0  0  0
    6.5207  -14.2717   25.0395 C   0  0  2  0  0  0  0  0  0  0  0  0
    5.4878  -15.0968   25.6388 N   0  0  0  0  0  0  0  0  0  0  0  0
    7.6029  -15.1422   24.5560 C   0  0  0  0  0  0  0  0  0  0  0  0
    7.8969  -16.1754   25.2407 O   0  0  0  0  0  0  0  0  0  0  0  0
    8.3573  -14.9299   23.3798 N   0  0  0  0  0  0  0  0  0  0  0  0
    9.3681  -15.8369   22.9143 C   0  0  1  0  0  0  0  0  0  0  0  0
    9.7052  -15.6172   21.4688 C   0  0  0  0  0  0  0  0  0  0  0  0
    8.6395  -14.9514   20.6977 C   0  0  0  0  0  0  0  0  0  0  0  0
    7.3406  -15.3829   20.5563 C   0  0  0  0  0  0  0  0  0  0  0  0
    6.6345  -14.5161   19.7734 N   0  0  0  0  0  0  0  0  0  0  0  0
    7.4952  -13.5513   19.4320 C   0  0  0  0  0  0  0  0  0  0  0  0
    8.6890  -13.7948   19.9723 N   0  0  0  0  0  0  0  0  0  0  0  0
   10.5304  -15.9137   23.8244 C   0  0  0  0  0  0  0  0  0  0  0  0
   10.4971  -15.1993   24.8614 O   0  0  0  0  0  0  0  0  0  0  0  0
   10.8488  -18.6379   26.3211 O   0  0  0  0  0  0  0  0  0  0  0  0
   11.1340  -18.6929   24.9791 C   0  0  0  0  0  0  0  0  0  0  0  0
   12.1774  -17.6806   24.5498 C   0  0  2  0  0  0  0  0  0  0  0  0
   11.6657  -16.7308   23.6082 N   0  0  0  0  0  0  0  0  0  0  0  0
   13.3542  -18.4280   24.0537 C   0  0  0  0  0  0  0  0  0  0  0  0
   13.7641  -18.4120   22.7336 O   0  0  0  0  0  0  0  0  0  0  0  0
   14.0133  -19.1107   24.8714 O   0  0  0  0  0  0  0  0  0  0  0  0
  2  3  1  0
  2  1  1  0
  3  5  1  0
  3  4  1  6
  5  7  1  0
  5  6  1  1
  7  8  2  0
  9 10  1  0
  9  7  1  0
 10 11  1  6
 12 11  1  0
 13 12  2  0
 14 13  1  0
 15 14  1  0
 15 16  2  0
 16 12  1  0
 17 22  1  0
 17 10  1  0
 18 17  2  0
 20 19  1  0
 21 20  1  6
 21 22  1  0
 23 24  1  0
 23 21  1  0
 25 23  2  0
M  END
$$$$
