IHS.pdb
     RDKit          3D

 25 25  0  0  1  0  0  0  0  0999 V2000
    6.3104  -11.5885   27.5400 C   0  0  0  0  0  0  0  0  0  0  0  0
    5.8282  -12.6075   26.5610 C   0  0  0  0  0  0  0  0  0  0  0  0
    6.9513  -13.4229   25.9576 C   0  0  2  0  0  0  0  0  0  0  0  0
    7.9910  -12.4801   25.4366 C   0  0  0  0  0  0  0  0  0  0  0  0
    6.4397  -14.3863   24.9128 C   0  0  2  0  0  0  0  0  0  0  0  0
    5.5400  -15.3179   25.5680 N   0  0  0  0  0  0  0  0  0  0  0  0
    7.5341  -15.1435   24.2868 C   0  0  0  0  0  0  0  0  0  0  0  0
    7.7721  -16.3209   24.7109 O   0  0  0  0  0  0  0  0  0  0  0  0
    8.3579  -14.6723   23.2395 N   0  0  0  0  0  0  0  0  0  0  0  0
    9.3023  -15.4996   22.5431 C   0  0  1  0  0  0  0  0  0  0  0  0
    9.7370  -14.8922   21.2418 C   0  0  0  0  0  0  0  0  0  0  0  0
    8.6282  -14.5982   20.3156 C   0  0  0  0  0  0  0  0  0  0  0  0
    8.1884  -13.3510   19.9359 C   0  0  0  0  0  0  0  0  0  0  0  0
    7.1430  -13.4605   19.0653 N   0  0  0  0  0  0  0  0  0  0  0  0
    6.9375  -14.7724   18.9075 C   0  0  0  0  0  0  0  0  0  0  0  0
    7.8104  -15.4611   19.6426 N   0  0  0  0  0  0  0  0  0  0  0  0
   10.4007  -15.9702   23.4133 C   0  0  0  0  0  0  0  0  0  0  0  0
   10.9883  -15.1057   24.1163 O   0  0  0  0  0  0  0  0  0  0  0  0
   10.6326  -19.7855   24.8525 O   0  0  0  0  0  0  0  0  0  0  0  0
   11.3906  -18.7769   25.3943 C   0  0  0  0  0  0  0  0  0  0  0  0
   11.8793  -17.7791   24.3632 C   0  0  2  0  0  0  0  0  0  0  0  0
   10.8290  -17.3159   23.5071 N   0  0  0  0  0  0  0  0  0  0  0  0
   13.0056  -18.4007   23.6320 C   0  0  0  0  0  0  0  0  0  0  0  0
   14.1730  -18.8162   24.2446 O   0  0  0  0  0  0  0  0  0  0  0  0
   12.8963  -18.5587   22.3941 O   0  0  0  0  0  0  0  0  0  0  0  0
  2  3  1  0
  2  1  1  0
  3  5  1  0
  3  4  1  6
  5  7  1  0
  5  6  1  1
  7  8  2  0
  9 10  1  0
  9  7  1  0
 10 11  1  6
 12 11  1  0
 13 12  2  0
 14 13  1  0
 15 14  1  0
 15 16  2  0
 16 12  1  0
 17 22  1  0
 17 10  1  0
 18 17  2  0
 20 19  1  0
 21 20  1  1
 21 22  1  0
 23 24  1  0
 23 21  1  0
 25 23  2  0
M  END
$$$$
