IHS.pdb
     RDKit          3D

 25 25  0  0  1  0  0  0  0  0999 V2000
    7.4477  -11.9218   19.8085 C   0  0  0  0  0  0  0  0  0  0  0  0
    8.1870  -13.1523   19.3979 C   0  0  0  0  0  0  0  0  0  0  0  0
    8.2360  -14.2017   20.4872 C   0  0  2  0  0  0  0  0  0  0  0  0
    8.8133  -13.5761   21.7187 C   0  0  0  0  0  0  0  0  0  0  0  0
    8.9815  -15.4359   20.0373 C   0  0  2  0  0  0  0  0  0  0  0  0
    8.3065  -15.9617   18.8648 N   0  0  0  0  0  0  0  0  0  0  0  0
    8.9991  -16.4728   21.0801 C   0  0  0  0  0  0  0  0  0  0  0  0
    7.9219  -17.1117   21.3130 O   0  0  0  0  0  0  0  0  0  0  0  0
   10.1238  -16.8283   21.8587 N   0  0  0  0  0  0  0  0  0  0  0  0
   10.1259  -17.9182   22.7932 C   0  0  1  0  0  0  0  0  0  0  0  0
   11.2638  -18.8669   22.5556 C   0  0  0  0  0  0  0  0  0  0  0  0
   11.1636  -19.6213   21.2929 C   0  0  0  0  0  0  0  0  0  0  0  0
   10.0205  -19.8390   20.5586 C   0  0  0  0  0  0  0  0  0  0  0  0
   10.3036  -20.5777   19.4465 N   0  0  0  0  0  0  0  0  0  0  0  0
   11.6187  -20.8158   19.4936 C   0  0  0  0  0  0  0  0  0  0  0  0
   12.1436  -20.2552   20.5829 N   0  0  0  0  0  0  0  0  0  0  0  0
    9.9641  -17.4712   24.1930 C   0  0  0  0  0  0  0  0  0  0  0  0
   10.6181  -16.4562   24.5520 O   0  0  0  0  0  0  0  0  0  0  0  0
    6.9914  -19.0400   26.5980 O   0  0  0  0  0  0  0  0  0  0  0  0
    7.5750  -17.8738   27.0276 C   0  0  0  0  0  0  0  0  0  0  0  0
    8.9867  -17.6872   26.5079 C   0  0  2  0  0  0  0  0  0  0  0  0
    9.1291  -18.1033   25.1451 N   0  0  0  0  0  0  0  0  0  0  0  0
    9.9051  -18.3830   27.4364 C   0  0  0  0  0  0  0  0  0  0  0  0
    9.9915  -18.0879   28.7840 O   0  0  0  0  0  0  0  0  0  0  0  0
   10.6425  -19.2861   26.9782 O   0  0  0  0  0  0  0  0  0  0  0  0
  2  3  1  0
  2  1  1  0
  3  5  1  0
  3  4  1  1
  5  7  1  0
  5  6  1  6
  7  8  2  0
  9 10  1  0
  9  7  1  0
 10 11  1  1
 12 11  1  0
 13 12  2  0
 14 13  1  0
 15 14  1  0
 15 16  2  0
 16 12  1  0
 17 22  1  0
 17 10  1  0
 18 17  2  0
 20 19  1  0
 21 20  1  1
 21 22  1  0
 23 24  1  0
 23 21  1  0
 25 23  2  0
M  END
$$$$
