IHS.pdb
     RDKit          3D

 25 25  0  0  1  0  0  0  0  0999 V2000
    6.5883  -11.5200   27.9158 C   0  0  0  0  0  0  0  0  0  0  0  0
    6.0432  -12.3553   26.8048 C   0  0  0  0  0  0  0  0  0  0  0  0
    7.0855  -13.2563   26.1786 C   0  0  2  0  0  0  0  0  0  0  0  0
    8.2425  -12.4097   25.7472 C   0  0  0  0  0  0  0  0  0  0  0  0
    6.5025  -14.0876   25.0603 C   0  0  2  0  0  0  0  0  0  0  0  0
    5.4382  -14.9016   25.6183 N   0  0  0  0  0  0  0  0  0  0  0  0
    7.5101  -14.9722   24.4560 C   0  0  0  0  0  0  0  0  0  0  0  0
    7.7173  -16.1072   24.9961 O   0  0  0  0  0  0  0  0  0  0  0  0
    8.2808  -14.6690   23.3108 N   0  0  0  0  0  0  0  0  0  0  0  0
    9.2543  -15.5647   22.7530 C   0  0  1  0  0  0  0  0  0  0  0  0
    9.7312  -15.1150   21.4034 C   0  0  0  0  0  0  0  0  0  0  0  0
    8.6497  -14.7009   20.4910 C   0  0  0  0  0  0  0  0  0  0  0  0
    8.4261  -13.4310   20.0107 C   0  0  0  0  0  0  0  0  0  0  0  0
    7.3361  -13.4187   19.1894 N   0  0  0  0  0  0  0  0  0  0  0  0
    6.8873  -14.6782   19.1625 C   0  0  0  0  0  0  0  0  0  0  0  0
    7.6557  -15.4512   19.9296 N   0  0  0  0  0  0  0  0  0  0  0  0
   10.3239  -15.9152   23.7113 C   0  0  0  0  0  0  0  0  0  0  0  0
   10.8941  -14.9647   24.3099 O   0  0  0  0  0  0  0  0  0  0  0  0
   11.2769  -18.5524   27.3808 O   0  0  0  0  0  0  0  0  0  0  0  0
   10.5856  -18.1845   26.2529 C   0  0  0  0  0  0  0  0  0  0  0  0
   11.4781  -17.6239   25.1634 C   0  0  2  0  0  0  0  0  0  0  0  0
   10.7431  -17.2365   23.9972 N   0  0  0  0  0  0  0  0  0  0  0  0
   12.5366  -18.6210   24.8896 C   0  0  0  0  0  0  0  0  0  0  0  0
   13.4796  -19.0052   25.8244 O   0  0  0  0  0  0  0  0  0  0  0  0
   12.5810  -19.1443   23.7523 O   0  0  0  0  0  0  0  0  0  0  0  0
  2  3  1  0
  2  1  1  0
  3  5  1  0
  3  4  1  6
  5  7  1  0
  5  6  1  1
  7  8  2  0
  9 10  1  0
  9  7  1  0
 10 11  1  6
 12 11  1  0
 13 12  2  0
 14 13  1  0
 15 14  1  0
 15 16  2  0
 16 12  1  0
 17 22  1  0
 17 10  1  0
 18 17  2  0
 20 19  1  0
 21 20  1  1
 21 22  1  0
 23 24  1  0
 23 21  1  0
 25 23  2  0
M  END
$$$$
