IHS.pdb
     RDKit          3D

 25 25  0  0  1  0  0  0  0  0999 V2000
    6.7428  -12.4056   20.1044 C   0  0  0  0  0  0  0  0  0  0  0  0
    7.5592  -12.8890   18.9516 C   0  0  0  0  0  0  0  0  0  0  0  0
    8.8446  -13.5626   19.3810 C   0  0  2  0  0  0  0  0  0  0  0  0
    9.6113  -12.6088   20.2434 C   0  0  0  0  0  0  0  0  0  0  0  0
    9.6336  -14.0630   18.1941 C   0  0  2  0  0  0  0  0  0  0  0  0
    8.7665  -14.9276   17.4149 N   0  0  0  0  0  0  0  0  0  0  0  0
   10.8182  -14.8287   18.6103 C   0  0  0  0  0  0  0  0  0  0  0  0
   10.6617  -16.0493   18.9396 O   0  0  0  0  0  0  0  0  0  0  0  0
   12.1356  -14.3214   18.6782 N   0  0  0  0  0  0  0  0  0  0  0  0
   13.2592  -15.0962   19.1236 C   0  0  1  0  0  0  0  0  0  0  0  0
   14.5441  -14.6466   18.4925 C   0  0  0  0  0  0  0  0  0  0  0  0
   14.7090  -15.0778   17.0923 C   0  0  0  0  0  0  0  0  0  0  0  0
   13.9358  -15.9986   16.4235 C   0  0  0  0  0  0  0  0  0  0  0  0
   14.3776  -16.1480   15.1408 N   0  0  0  0  0  0  0  0  0  0  0  0
   15.4214  -15.3213   15.0175 C   0  0  0  0  0  0  0  0  0  0  0  0
   15.6310  -14.6790   16.1664 N   0  0  0  0  0  0  0  0  0  0  0  0
   13.3022  -15.2482   20.5934 C   0  0  0  0  0  0  0  0  0  0  0  0
   13.4923  -14.2056   21.2742 O   0  0  0  0  0  0  0  0  0  0  0  0
   10.8227  -17.3031   22.7135 O   0  0  0  0  0  0  0  0  0  0  0  0
   12.0797  -17.5967   23.1816 C   0  0  0  0  0  0  0  0  0  0  0  0
   13.1368  -16.6219   22.7020 C   0  0  2  0  0  0  0  0  0  0  0  0
   13.1437  -16.4772   21.2773 N   0  0  0  0  0  0  0  0  0  0  0  0
   14.4375  -17.0575   23.2571 C   0  0  0  0  0  0  0  0  0  0  0  0
   14.6915  -17.1549   24.6124 O   0  0  0  0  0  0  0  0  0  0  0  0
   15.3561  -17.3533   22.4584 O   0  0  0  0  0  0  0  0  0  0  0  0
  2  3  1  0
  2  1  1  0
  3  5  1  0
  3  4  1  6
  5  7  1  0
  5  6  1  6
  7  8  2  0
  9 10  1  0
  9  7  1  0
 10 11  1  1
 12 11  1  0
 13 12  2  0
 14 13  1  0
 15 14  1  0
 15 16  2  0
 16 12  1  0
 17 22  1  0
 17 10  1  0
 18 17  2  0
 20 19  1  0
 21 20  1  6
 21 22  1  0
 23 24  1  0
 23 21  1  0
 25 23  2  0
M  END
$$$$
