PTP.pdb
     RDKit          3D

 22 23  0  0  1  0  0  0  0  0999 V2000
    7.9760  -14.9465   18.7916 N   0  0  0  0  0  0  0  0  0  0  0  0
    7.5174  -13.9080   17.9074 C   0  0  0  0  0  0  0  0  0  0  0  0
    8.5168  -12.7844   18.1134 C   0  0  0  0  0  0  0  0  0  0  0  0
    8.6997  -12.8400   19.6260 C   0  0  0  0  0  0  0  0  0  0  0  0
    8.6781  -14.3332   19.8739 C   0  0  1  0  0  0  0  0  0  0  0  0
    7.9640  -14.5492   21.1522 C   0  0  0  0  0  0  0  0  0  0  0  0
    6.7092  -14.6642   21.1277 O   0  0  0  0  0  0  0  0  0  0  0  0
    6.4323  -16.3414   22.3674 C   0  0  0  0  0  0  0  0  0  0  0  0
    7.4500  -16.3423   23.4746 C   0  0  1  0  0  0  0  0  0  0  0  0
    8.5156  -17.1580   23.0485 O   0  0  0  0  0  0  0  0  0  0  0  0
    7.9738  -14.9116   23.6263 C   0  0  2  0  0  0  0  0  0  0  0  0
    8.6819  -14.6254   22.3839 N   0  0  0  0  0  0  0  0  0  0  0  0
    8.8926  -14.7986   24.7873 C   0  0  0  0  0  0  0  0  0  0  0  0
   10.0890  -15.1577   24.6396 O   0  0  0  0  0  0  0  0  0  0  0  0
    8.4274  -14.3039   26.0056 N   0  0  0  0  0  0  0  0  0  0  0  0
    7.0930  -13.9947   26.4549 C   0  0  0  0  0  0  0  0  0  0  0  0
    7.2393  -12.8157   27.4038 C   0  0  0  0  0  0  0  0  0  0  0  0
    8.7111  -12.6611   27.5683 C   0  0  0  0  0  0  0  0  0  0  0  0
    9.2810  -13.9740   27.1579 C   0  0  1  0  0  0  0  0  0  0  0  0
    9.1425  -15.0324   28.1711 C   0  0  0  0  0  0  0  0  0  0  0  0
    8.2929  -15.9516   28.1033 O   0  0  0  0  0  0  0  0  0  0  0  0
    9.9922  -15.0271   29.2693 O   0  0  0  0  0  0  0  0  0  0  0  0
  1  2  1  0
  3  4  1  0
  3  2  1  0
  4  5  1  0
  5  1  1  0
  5  6  1  1
  7  6  2  0
  9  8  1  6
  9 11  1  0
 10  9  1  0
 11 12  1  6
 11 13  1  0
 12  6  1  0
 13 15  1  0
 14 13  2  0
 15 16  1  0
 15 19  1  0
 16 17  1  0
 17 18  1  0
 19 20  1  1
 19 18  1  0
 20 22  1  0
 21 20  2  0
M  END
$$$$
