PTP.pdb
     RDKit          3D

 22 23  0  0  1  0  0  0  0  0999 V2000
    9.4092  -14.9539   19.3201 N   0  0  0  0  0  0  0  0  0  0  0  0
    8.7236  -15.0459   18.0583 C   0  0  0  0  0  0  0  0  0  0  0  0
    8.7847  -13.6340   17.5050 C   0  0  0  0  0  0  0  0  0  0  0  0
    8.5117  -12.8220   18.7662 C   0  0  0  0  0  0  0  0  0  0  0  0
    9.2771  -13.6161   19.8030 C   0  0  1  0  0  0  0  0  0  0  0  0
    8.4783  -13.5843   21.0487 C   0  0  0  0  0  0  0  0  0  0  0  0
    8.1330  -12.4647   21.5129 O   0  0  0  0  0  0  0  0  0  0  0  0
    5.6537  -16.0516   21.8483 C   0  0  0  0  0  0  0  0  0  0  0  0
    6.5782  -16.0421   23.0344 C   0  0  1  0  0  0  0  0  0  0  0  0
    7.4620  -17.1259   22.8714 O   0  0  0  0  0  0  0  0  0  0  0  0
    7.3935  -14.7473   22.9783 C   0  0  2  0  0  0  0  0  0  0  0  0
    8.1084  -14.7954   21.7080 N   0  0  0  0  0  0  0  0  0  0  0  0
    8.3499  -14.6680   24.1113 C   0  0  0  0  0  0  0  0  0  0  0  0
    9.5340  -15.0476   23.9216 O   0  0  0  0  0  0  0  0  0  0  0  0
    7.9324  -14.1817   25.3502 N   0  0  0  0  0  0  0  0  0  0  0  0
    6.6556  -13.6748   25.7873 C   0  0  0  0  0  0  0  0  0  0  0  0
    6.9679  -12.6051   26.8217 C   0  0  0  0  0  0  0  0  0  0  0  0
    8.4373  -12.7208   27.0332 C   0  0  0  0  0  0  0  0  0  0  0  0
    8.7871  -14.0829   26.5439 C   0  0  1  0  0  0  0  0  0  0  0  0
    8.4311  -15.1657   27.4748 C   0  0  0  0  0  0  0  0  0  0  0  0
    7.4310  -15.9070   27.3279 O   0  0  0  0  0  0  0  0  0  0  0  0
    9.2372  -15.3921   28.5826 O   0  0  0  0  0  0  0  0  0  0  0  0
  1  2  1  0
  3  4  1  0
  3  2  1  0
  4  5  1  0
  5  1  1  0
  5  6  1  1
  7  6  2  0
  9  8  1  6
  9 11  1  0
 10  9  1  0
 11 12  1  6
 11 13  1  0
 12  6  1  0
 13 15  1  0
 14 13  2  0
 15 16  1  0
 15 19  1  0
 16 17  1  0
 17 18  1  0
 19 20  1  1
 19 18  1  0
 20 22  1  0
 21 20  2  0
M  END
$$$$
