PTP.pdb
     RDKit          3D

 22 23  0  0  1  0  0  0  0  0999 V2000
    9.3752  -14.9086   19.1429 N   0  0  0  0  0  0  0  0  0  0  0  0
    8.5955  -15.0387   17.9406 C   0  0  0  0  0  0  0  0  0  0  0  0
    8.6234  -13.6478   17.3340 C   0  0  0  0  0  0  0  0  0  0  0  0
    8.4520  -12.7894   18.5824 C   0  0  0  0  0  0  0  0  0  0  0  0
    9.2887  -13.5534   19.5862 C   0  0  1  0  0  0  0  0  0  0  0  0
    8.5868  -13.4704   20.8867 C   0  0  0  0  0  0  0  0  0  0  0  0
    8.2739  -12.3327   21.3293 O   0  0  0  0  0  0  0  0  0  0  0  0
    5.6536  -15.6232   21.7756 C   0  0  0  0  0  0  0  0  0  0  0  0
    6.6198  -15.7673   22.9189 C   0  0  1  0  0  0  0  0  0  0  0  0
    7.3829  -16.9229   22.6650 O   0  0  0  0  0  0  0  0  0  0  0  0
    7.5586  -14.5582   22.8899 C   0  0  2  0  0  0  0  0  0  0  0  0
    8.2724  -14.6534   21.6216 N   0  0  0  0  0  0  0  0  0  0  0  0
    8.5118  -14.5936   24.0278 C   0  0  0  0  0  0  0  0  0  0  0  0
    9.6802  -15.0086   23.8159 O   0  0  0  0  0  0  0  0  0  0  0  0
    8.1086  -14.1732   25.2951 N   0  0  0  0  0  0  0  0  0  0  0  0
    6.8392  -13.6832   25.7711 C   0  0  0  0  0  0  0  0  0  0  0  0
    7.1677  -12.6736   26.8594 C   0  0  0  0  0  0  0  0  0  0  0  0
    8.6381  -12.8096   27.0507 C   0  0  0  0  0  0  0  0  0  0  0  0
    8.9746  -14.1451   26.4845 C   0  0  1  0  0  0  0  0  0  0  0  0
    8.6198  -15.2749   27.3582 C   0  0  0  0  0  0  0  0  0  0  0  0
    7.6128  -16.0001   27.1810 O   0  0  0  0  0  0  0  0  0  0  0  0
    9.4350  -15.5674   28.4435 O   0  0  0  0  0  0  0  0  0  0  0  0
  1  2  1  0
  3  4  1  0
  3  2  1  0
  4  5  1  0
  5  1  1  0
  5  6  1  1
  7  6  2  0
  9  8  1  6
  9 11  1  0
 10  9  1  0
 11 12  1  6
 11 13  1  0
 12  6  1  0
 13 15  1  0
 14 13  2  0
 15 16  1  0
 15 19  1  0
 16 17  1  0
 17 18  1  0
 19 20  1  1
 19 18  1  0
 20 22  1  0
 21 20  2  0
M  END
$$$$
