PTP.pdb
     RDKit          3D

 22 23  0  0  1  0  0  0  0  0999 V2000
    9.2823  -14.7850   19.9270 N   0  0  0  0  0  0  0  0  0  0  0  0
    8.4459  -15.0076   18.7775 C   0  0  0  0  0  0  0  0  0  0  0  0
    8.0181  -13.6124   18.3607 C   0  0  0  0  0  0  0  0  0  0  0  0
    7.7481  -12.9791   19.7211 C   0  0  0  0  0  0  0  0  0  0  0  0
    8.8680  -13.5690   20.5515 C   0  0  1  0  0  0  0  0  0  0  0  0
    8.3147  -13.8330   21.8988 C   0  0  0  0  0  0  0  0  0  0  0  0
    7.6396  -12.9282   22.4591 O   0  0  0  0  0  0  0  0  0  0  0  0
    6.2706  -16.5961   22.9532 C   0  0  0  0  0  0  0  0  0  0  0  0
    7.4112  -16.6531   23.9315 C   0  0  1  0  0  0  0  0  0  0  0  0
    8.3220  -17.6082   23.4412 O   0  0  0  0  0  0  0  0  0  0  0  0
    8.1006  -15.2859   23.9226 C   0  0  2  0  0  0  0  0  0  0  0  0
    8.5417  -15.0845   22.5471 N   0  0  0  0  0  0  0  0  0  0  0  0
    9.2602  -15.2655   24.8496 C   0  0  0  0  0  0  0  0  0  0  0  0
   10.3865  -15.6068   24.4054 O   0  0  0  0  0  0  0  0  0  0  0  0
    9.0909  -14.8745   26.1778 N   0  0  0  0  0  0  0  0  0  0  0  0
    7.9130  -14.4683   26.9027 C   0  0  0  0  0  0  0  0  0  0  0  0
    8.3870  -13.4418   27.9193 C   0  0  0  0  0  0  0  0  0  0  0  0
    9.8717  -13.4834   27.8138 C   0  0  0  0  0  0  0  0  0  0  0  0
   10.1722  -14.7932   27.1726 C   0  0  1  0  0  0  0  0  0  0  0  0
   10.0692  -15.9453   28.0824 C   0  0  0  0  0  0  0  0  0  0  0  0
   10.8917  -16.1826   28.9982 O   0  0  0  0  0  0  0  0  0  0  0  0
    9.0083  -16.8284   27.9316 O   0  0  0  0  0  0  0  0  0  0  0  0
  1  2  1  0
  3  4  1  0
  3  2  1  0
  4  5  1  0
  5  1  1  0
  5  6  1  1
  7  6  2  0
  9  8  1  6
  9 11  1  0
 10  9  1  0
 11 12  1  6
 11 13  1  0
 12  6  1  0
 13 15  1  0
 14 13  2  0
 15 16  1  0
 15 19  1  0
 16 17  1  0
 17 18  1  0
 19 20  1  1
 19 18  1  0
 20 22  1  0
 21 20  2  0
M  END
$$$$
