PTP.pdb
     RDKit          3D

 22 23  0  0  1  0  0  0  0  0999 V2000
    8.9677  -15.0366   19.9147 N   0  0  0  0  0  0  0  0  0  0  0  0
    8.2062  -14.8020   18.7166 C   0  0  0  0  0  0  0  0  0  0  0  0
    8.1708  -13.2895   18.5960 C   0  0  0  0  0  0  0  0  0  0  0  0
    7.9459  -12.8931   20.0510 C   0  0  0  0  0  0  0  0  0  0  0  0
    8.8103  -13.9050   20.7722 C   0  0  1  0  0  0  0  0  0  0  0  0
    8.0936  -14.2813   22.0114 C   0  0  0  0  0  0  0  0  0  0  0  0
    7.0543  -13.6400   22.3228 O   0  0  0  0  0  0  0  0  0  0  0  0
    6.2970  -16.8113   23.4270 C   0  0  0  0  0  0  0  0  0  0  0  0
    7.4712  -16.7950   24.3664 C   0  0  1  0  0  0  0  0  0  0  0  0
    8.3660  -17.7854   23.9182 O   0  0  0  0  0  0  0  0  0  0  0  0
    8.1575  -15.4331   24.2299 C   0  0  2  0  0  0  0  0  0  0  0  0
    8.5702  -15.3465   22.8338 N   0  0  0  0  0  0  0  0  0  0  0  0
    9.3356  -15.3354   25.1283 C   0  0  0  0  0  0  0  0  0  0  0  0
   10.4677  -15.6252   24.6629 O   0  0  0  0  0  0  0  0  0  0  0  0
    9.1768  -14.9299   26.4534 N   0  0  0  0  0  0  0  0  0  0  0  0
    7.9940  -14.5928   27.2054 C   0  0  0  0  0  0  0  0  0  0  0  0
    8.4226  -13.5146   28.1881 C   0  0  0  0  0  0  0  0  0  0  0  0
    9.9029  -13.4536   28.0392 C   0  0  0  0  0  0  0  0  0  0  0  0
   10.2773  -14.7520   27.4138 C   0  0  1  0  0  0  0  0  0  0  0  0
   10.2824  -15.8895   28.3476 C   0  0  0  0  0  0  0  0  0  0  0  0
   11.1499  -16.0534   29.2376 O   0  0  0  0  0  0  0  0  0  0  0  0
    9.2778  -16.8431   28.2510 O   0  0  0  0  0  0  0  0  0  0  0  0
  1  2  1  0
  3  4  1  0
  3  2  1  0
  4  5  1  0
  5  1  1  0
  5  6  1  1
  7  6  2  0
  9  8  1  6
  9 11  1  0
 10  9  1  0
 11 12  1  6
 11 13  1  0
 12  6  1  0
 13 15  1  0
 14 13  2  0
 15 16  1  0
 15 19  1  0
 16 17  1  0
 17 18  1  0
 19 20  1  1
 19 18  1  0
 20 22  1  0
 21 20  2  0
M  END
$$$$
