PTP.pdb
     RDKit          3D

 22 23  0  0  1  0  0  0  0  0999 V2000
    8.9873  -14.9756   19.4641 N   0  0  0  0  0  0  0  0  0  0  0  0
    8.0976  -14.9603   18.3333 C   0  0  0  0  0  0  0  0  0  0  0  0
    7.7106  -13.4995   18.1920 C   0  0  0  0  0  0  0  0  0  0  0  0
    7.5208  -13.1127   19.6546 C   0  0  0  0  0  0  0  0  0  0  0  0
    8.6478  -13.8787   20.3138 C   0  0  1  0  0  0  0  0  0  0  0  0
    8.1381  -14.3623   21.6166 C   0  0  0  0  0  0  0  0  0  0  0  0
    6.9113  -14.6318   21.7194 O   0  0  0  0  0  0  0  0  0  0  0  0
    6.4203  -15.5204   22.9837 C   0  0  0  0  0  0  0  0  0  0  0  0
    7.5191  -15.9249   23.9273 C   0  0  1  0  0  0  0  0  0  0  0  0
    8.2175  -16.9810   23.3115 O   0  0  0  0  0  0  0  0  0  0  0  0
    8.4743  -14.7363   24.0660 C   0  0  2  0  0  0  0  0  0  0  0  0
    9.0177  -14.5192   22.7301 N   0  0  0  0  0  0  0  0  0  0  0  0
    9.5641  -15.0354   25.0292 C   0  0  0  0  0  0  0  0  0  0  0  0
   10.6604  -15.4570   24.5791 O   0  0  0  0  0  0  0  0  0  0  0  0
    9.3638  -14.8482   26.3968 N   0  0  0  0  0  0  0  0  0  0  0  0
    8.1776  -14.5094   27.1426 C   0  0  0  0  0  0  0  0  0  0  0  0
    8.6545  -13.6741   28.3202 C   0  0  0  0  0  0  0  0  0  0  0  0
   10.1393  -13.7620   28.2516 C   0  0  0  0  0  0  0  0  0  0  0  0
   10.4122  -14.9683   27.4223 C   0  0  1  0  0  0  0  0  0  0  0  0
   10.2345  -16.2421   28.1375 C   0  0  0  0  0  0  0  0  0  0  0  0
    9.2540  -17.0039   27.9658 O   0  0  0  0  0  0  0  0  0  0  0  0
   11.1972  -16.6368   29.0571 O   0  0  0  0  0  0  0  0  0  0  0  0
  1  2  1  0
  3  4  1  0
  3  2  1  0
  4  5  1  0
  5  1  1  0
  5  6  1  1
  7  6  2  0
  9  8  1  6
  9 11  1  0
 10  9  1  0
 11 12  1  6
 11 13  1  0
 12  6  1  0
 13 15  1  0
 14 13  2  0
 15 16  1  0
 15 19  1  0
 16 17  1  0
 17 18  1  0
 19 20  1  1
 19 18  1  0
 20 22  1  0
 21 20  2  0
M  END
$$$$
