PTP.pdb
     RDKit          3D

 22 23  0  0  1  0  0  0  0  0999 V2000
    9.1425  -14.8523   19.4937 N   0  0  0  0  0  0  0  0  0  0  0  0
    8.3875  -14.8567   18.2688 C   0  0  0  0  0  0  0  0  0  0  0  0
    8.4187  -13.4089   17.8146 C   0  0  0  0  0  0  0  0  0  0  0  0
    8.2172  -12.6893   19.1436 C   0  0  0  0  0  0  0  0  0  0  0  0
    9.0387  -13.5526   20.0771 C   0  0  1  0  0  0  0  0  0  0  0  0
    8.3107  -13.6118   21.3645 C   0  0  0  0  0  0  0  0  0  0  0  0
    7.9936  -12.5290   21.9260 O   0  0  0  0  0  0  0  0  0  0  0  0
    5.8054  -16.5481   22.1767 C   0  0  0  0  0  0  0  0  0  0  0  0
    6.7215  -16.3299   23.3491 C   0  0  1  0  0  0  0  0  0  0  0  0
    7.7866  -17.2400   23.2096 O   0  0  0  0  0  0  0  0  0  0  0  0
    7.2872  -14.9112   23.2398 C   0  0  2  0  0  0  0  0  0  0  0  0
    7.9762  -14.8678   21.9551 N   0  0  0  0  0  0  0  0  0  0  0  0
    8.2331  -14.6257   24.3480 C   0  0  0  0  0  0  0  0  0  0  0  0
    9.4594  -14.8275   24.1540 O   0  0  0  0  0  0  0  0  0  0  0  0
    7.7601  -14.1449   25.5689 N   0  0  0  0  0  0  0  0  0  0  0  0
    6.4169  -13.9267   26.0447 C   0  0  0  0  0  0  0  0  0  0  0  0
    6.4968  -12.7234   26.9706 C   0  0  0  0  0  0  0  0  0  0  0  0
    7.9564  -12.4578   27.0977 C   0  0  0  0  0  0  0  0  0  0  0  0
    8.6127  -13.7324   26.6952 C   0  0  1  0  0  0  0  0  0  0  0  0
    8.5757  -14.7798   27.7283 C   0  0  0  0  0  0  0  0  0  0  0  0
    7.7821  -15.7498   27.7056 O   0  0  0  0  0  0  0  0  0  0  0  0
    9.4623  -14.7042   28.7943 O   0  0  0  0  0  0  0  0  0  0  0  0
  1  2  1  0
  3  4  1  0
  3  2  1  0
  4  5  1  0
  5  1  1  0
  5  6  1  1
  7  6  2  0
  9  8  1  6
  9 11  1  0
 10  9  1  0
 11 12  1  6
 11 13  1  0
 12  6  1  0
 13 15  1  0
 14 13  2  0
 15 16  1  0
 15 19  1  0
 16 17  1  0
 17 18  1  0
 19 20  1  1
 19 18  1  0
 20 22  1  0
 21 20  2  0
M  END
$$$$
