PTP.pdb
     RDKit          3D

 22 23  0  0  1  0  0  0  0  0999 V2000
    8.0769  -15.1332   19.6691 N   0  0  0  0  0  0  0  0  0  0  0  0
    7.3154  -14.3130   18.7648 C   0  0  0  0  0  0  0  0  0  0  0  0
    8.0421  -12.9806   18.7793 C   0  0  0  0  0  0  0  0  0  0  0  0
    8.3641  -12.8482   20.2637 C   0  0  0  0  0  0  0  0  0  0  0  0
    8.7099  -14.2777   20.6220 C   0  0  1  0  0  0  0  0  0  0  0  0
    8.1792  -14.5234   21.9817 C   0  0  0  0  0  0  0  0  0  0  0  0
    6.9316  -14.4866   22.1557 O   0  0  0  0  0  0  0  0  0  0  0  0
    6.5320  -15.9052   23.2523 C   0  0  0  0  0  0  0  0  0  0  0  0
    7.6087  -16.2734   24.2355 C   0  0  1  0  0  0  0  0  0  0  0  0
    8.3578  -17.3119   23.6502 O   0  0  0  0  0  0  0  0  0  0  0  0
    8.5241  -15.0572   24.4002 C   0  0  2  0  0  0  0  0  0  0  0  0
    9.0622  -14.7956   23.0701 N   0  0  0  0  0  0  0  0  0  0  0  0
    9.6216  -15.3398   25.3595 C   0  0  0  0  0  0  0  0  0  0  0  0
   10.7054  -15.7938   24.9109 O   0  0  0  0  0  0  0  0  0  0  0  0
    9.4419  -15.1021   26.7221 N   0  0  0  0  0  0  0  0  0  0  0  0
    8.2706  -14.7200   27.4706 C   0  0  0  0  0  0  0  0  0  0  0  0
    8.7747  -13.8513   28.6120 C   0  0  0  0  0  0  0  0  0  0  0  0
   10.2571  -13.9635   28.5279 C   0  0  0  0  0  0  0  0  0  0  0  0
   10.5019  -15.2018   27.7380 C   0  0  1  0  0  0  0  0  0  0  0  0
   10.3153  -16.4471   28.4996 C   0  0  0  0  0  0  0  0  0  0  0  0
   11.0588  -16.8011   29.4447 O   0  0  0  0  0  0  0  0  0  0  0  0
    9.2621  -17.2882   28.1655 O   0  0  0  0  0  0  0  0  0  0  0  0
  1  2  1  0
  3  4  1  0
  3  2  1  0
  4  5  1  0
  5  1  1  0
  5  6  1  1
  7  6  2  0
  9  8  1  6
  9 11  1  0
 10  9  1  0
 11 12  1  6
 11 13  1  0
 12  6  1  0
 13 15  1  0
 14 13  2  0
 15 16  1  0
 15 19  1  0
 16 17  1  0
 17 18  1  0
 19 20  1  1
 19 18  1  0
 20 22  1  0
 21 20  2  0
M  END
$$$$
