PTP.pdb
     RDKit          3D

 22 23  0  0  1  0  0  0  0  0999 V2000
    8.2500  -15.0443   19.3487 N   0  0  0  0  0  0  0  0  0  0  0  0
    7.4172  -14.3543   18.3996 C   0  0  0  0  0  0  0  0  0  0  0  0
    7.9204  -12.9231   18.4439 C   0  0  0  0  0  0  0  0  0  0  0  0
    8.1371  -12.7439   19.9424 C   0  0  0  0  0  0  0  0  0  0  0  0
    8.6865  -14.1006   20.3282 C   0  0  1  0  0  0  0  0  0  0  0  0
    8.1296  -14.4304   21.6593 C   0  0  0  0  0  0  0  0  0  0  0  0
    6.8820  -14.5691   21.7713 O   0  0  0  0  0  0  0  0  0  0  0  0
    6.5210  -15.9195   22.9027 C   0  0  0  0  0  0  0  0  0  0  0  0
    7.6413  -16.2320   23.8559 C   0  0  1  0  0  0  0  0  0  0  0  0
    8.4872  -17.1499   23.2045 O   0  0  0  0  0  0  0  0  0  0  0  0
    8.4278  -14.9391   24.0894 C   0  0  2  0  0  0  0  0  0  0  0  0
    8.9877  -14.5873   22.7895 N   0  0  0  0  0  0  0  0  0  0  0  0
    9.5105  -15.1440   25.0846 C   0  0  0  0  0  0  0  0  0  0  0  0
   10.6250  -15.5617   24.6777 O   0  0  0  0  0  0  0  0  0  0  0  0
    9.2839  -14.8749   26.4343 N   0  0  0  0  0  0  0  0  0  0  0  0
    8.0788  -14.5161   27.1393 C   0  0  0  0  0  0  0  0  0  0  0  0
    8.5185  -13.5974   28.2682 C   0  0  0  0  0  0  0  0  0  0  0  0
   10.0057  -13.6564   28.2276 C   0  0  0  0  0  0  0  0  0  0  0  0
   10.3178  -14.9063   27.4810 C   0  0  1  0  0  0  0  0  0  0  0  0
   10.1556  -16.1359   28.2732 C   0  0  0  0  0  0  0  0  0  0  0  0
    9.1788  -16.9129   28.1571 O   0  0  0  0  0  0  0  0  0  0  0  0
   11.1295  -16.4684   29.2055 O   0  0  0  0  0  0  0  0  0  0  0  0
  1  2  1  0
  3  4  1  0
  3  2  1  0
  4  5  1  0
  5  1  1  0
  5  6  1  1
  7  6  2  0
  9  8  1  6
  9 11  1  0
 10  9  1  0
 11 12  1  6
 11 13  1  0
 12  6  1  0
 13 15  1  0
 14 13  2  0
 15 16  1  0
 15 19  1  0
 16 17  1  0
 17 18  1  0
 19 20  1  1
 19 18  1  0
 20 22  1  0
 21 20  2  0
M  END
$$$$
