PTP.pdb
     RDKit          3D

 22 23  0  0  1  0  0  0  0  0999 V2000
    8.2646  -15.0121   18.9963 N   0  0  0  0  0  0  0  0  0  0  0  0
    7.5883  -14.2421   17.9863 C   0  0  0  0  0  0  0  0  0  0  0  0
    8.1164  -12.8333   18.1855 C   0  0  0  0  0  0  0  0  0  0  0  0
    8.1288  -12.7465   19.7077 C   0  0  0  0  0  0  0  0  0  0  0  0
    8.5854  -14.1405   20.0816 C   0  0  1  0  0  0  0  0  0  0  0  0
    7.8421  -14.5264   21.3020 C   0  0  0  0  0  0  0  0  0  0  0  0
    6.5870  -14.4126   21.3025 O   0  0  0  0  0  0  0  0  0  0  0  0
    6.2710  -16.6225   22.8583 C   0  0  0  0  0  0  0  0  0  0  0  0
    7.3042  -16.4147   23.9310 C   0  0  1  0  0  0  0  0  0  0  0  0
    8.3339  -17.3445   23.6911 O   0  0  0  0  0  0  0  0  0  0  0  0
    7.8803  -15.0070   23.7556 C   0  0  2  0  0  0  0  0  0  0  0  0
    8.5329  -15.0161   22.4514 N   0  0  0  0  0  0  0  0  0  0  0  0
    8.8602  -14.6929   24.8261 C   0  0  0  0  0  0  0  0  0  0  0  0
   10.0848  -14.8314   24.5746 O   0  0  0  0  0  0  0  0  0  0  0  0
    8.4198  -14.2550   26.0750 N   0  0  0  0  0  0  0  0  0  0  0  0
    7.0898  -14.0471   26.5909 C   0  0  0  0  0  0  0  0  0  0  0  0
    7.1999  -12.8794   27.5585 C   0  0  0  0  0  0  0  0  0  0  0  0
    8.6638  -12.6270   27.6598 C   0  0  0  0  0  0  0  0  0  0  0  0
    9.3019  -13.8895   27.1947 C   0  0  1  0  0  0  0  0  0  0  0  0
    9.2829  -14.9742   28.1890 C   0  0  0  0  0  0  0  0  0  0  0  0
   10.0081  -14.9918   29.2114 O   0  0  0  0  0  0  0  0  0  0  0  0
    8.4196  -16.0451   27.9994 O   0  0  0  0  0  0  0  0  0  0  0  0
  1  2  1  0
  3  4  1  0
  3  2  1  0
  4  5  1  0
  5  1  1  0
  5  6  1  1
  7  6  2  0
  9  8  1  6
  9 11  1  0
 10  9  1  0
 11 12  1  6
 11 13  1  0
 12  6  1  0
 13 15  1  0
 14 13  2  0
 15 16  1  0
 15 19  1  0
 16 17  1  0
 17 18  1  0
 19 20  1  1
 19 18  1  0
 20 22  1  0
 21 20  2  0
M  END
$$$$
