PTP.pdb
     RDKit          3D

 22 23  0  0  1  0  0  0  0  0999 V2000
    8.0728  -15.0667   19.7308 N   0  0  0  0  0  0  0  0  0  0  0  0
    7.4002  -14.1701   18.8285 C   0  0  0  0  0  0  0  0  0  0  0  0
    8.1651  -12.8668   18.9700 C   0  0  0  0  0  0  0  0  0  0  0  0
    8.3895  -12.8307   20.4776 C   0  0  0  0  0  0  0  0  0  0  0  0
    8.6658  -14.2896   20.7725 C   0  0  1  0  0  0  0  0  0  0  0  0
    8.0367  -14.5939   22.0773 C   0  0  0  0  0  0  0  0  0  0  0  0
    6.8831  -14.1421   22.3082 O   0  0  0  0  0  0  0  0  0  0  0  0
    6.2525  -16.5258   23.7169 C   0  0  0  0  0  0  0  0  0  0  0  0
    7.4507  -16.6377   24.6187 C   0  0  1  0  0  0  0  0  0  0  0  0
    8.2088  -17.7302   24.1562 O   0  0  0  0  0  0  0  0  0  0  0  0
    8.2862  -15.3668   24.4423 C   0  0  2  0  0  0  0  0  0  0  0  0
    8.7227  -15.3813   23.0508 N   0  0  0  0  0  0  0  0  0  0  0  0
    9.4571  -15.3653   25.3553 C   0  0  0  0  0  0  0  0  0  0  0  0
   10.5859  -15.6515   24.8800 O   0  0  0  0  0  0  0  0  0  0  0  0
    9.2951  -15.0514   26.7047 N   0  0  0  0  0  0  0  0  0  0  0  0
    8.1085  -14.7910   27.4808 C   0  0  0  0  0  0  0  0  0  0  0  0
    8.5173  -13.7705   28.5310 C   0  0  0  0  0  0  0  0  0  0  0  0
    9.9952  -13.6665   28.3821 C   0  0  0  0  0  0  0  0  0  0  0  0
   10.3957  -14.9123   27.6715 C   0  0  1  0  0  0  0  0  0  0  0  0
   10.4301  -16.1083   28.5284 C   0  0  0  0  0  0  0  0  0  0  0  0
   11.2943  -16.3021   29.4156 O   0  0  0  0  0  0  0  0  0  0  0  0
    9.4589  -17.0859   28.3578 O   0  0  0  0  0  0  0  0  0  0  0  0
  1  2  1  0
  3  4  1  0
  3  2  1  0
  4  5  1  0
  5  1  1  0
  5  6  1  1
  7  6  2  0
  9  8  1  6
  9 11  1  0
 10  9  1  0
 11 12  1  6
 11 13  1  0
 12  6  1  0
 13 15  1  0
 14 13  2  0
 15 16  1  0
 15 19  1  0
 16 17  1  0
 17 18  1  0
 19 20  1  1
 19 18  1  0
 20 22  1  0
 21 20  2  0
M  END
$$$$
