PTP.pdb
     RDKit          3D

 22 23  0  0  1  0  0  0  0  0999 V2000
    9.0190  -14.9713   20.2853 N   0  0  0  0  0  0  0  0  0  0  0  0
    8.1465  -15.1520   19.1554 C   0  0  0  0  0  0  0  0  0  0  0  0
    7.7079  -13.7425   18.8027 C   0  0  0  0  0  0  0  0  0  0  0  0
    7.4818  -13.1586   20.1929 C   0  0  0  0  0  0  0  0  0  0  0  0
    8.6263  -13.7784   20.9659 C   0  0  1  0  0  0  0  0  0  0  0  0
    8.1153  -14.0905   22.3195 C   0  0  0  0  0  0  0  0  0  0  0  0
    7.3146  -13.2817   22.8608 O   0  0  0  0  0  0  0  0  0  0  0  0
    6.1886  -16.6189   23.6878 C   0  0  0  0  0  0  0  0  0  0  0  0
    7.4441  -16.7729   24.5012 C   0  0  1  0  0  0  0  0  0  0  0  0
    8.2102  -17.7791   23.8825 O   0  0  0  0  0  0  0  0  0  0  0  0
    8.2211  -15.4566   24.4112 C   0  0  2  0  0  0  0  0  0  0  0  0
    8.5212  -15.2810   22.9949 N   0  0  0  0  0  0  0  0  0  0  0  0
    9.4742  -15.5198   25.2052 C   0  0  0  0  0  0  0  0  0  0  0  0
   10.5246  -15.9100   24.6338 O   0  0  0  0  0  0  0  0  0  0  0  0
    9.4726  -15.1518   26.5506 N   0  0  0  0  0  0  0  0  0  0  0  0
    8.4282  -14.6087   27.3827 C   0  0  0  0  0  0  0  0  0  0  0  0
    9.1254  -13.6914   28.3748 C   0  0  0  0  0  0  0  0  0  0  0  0
   10.5753  -13.9361   28.1405 C   0  0  0  0  0  0  0  0  0  0  0  0
   10.6331  -15.2539   27.4495 C   0  0  1  0  0  0  0  0  0  0  0  0
   10.4437  -16.4090   28.3415 C   0  0  0  0  0  0  0  0  0  0  0  0
    9.3866  -17.0807   28.3928 O   0  0  0  0  0  0  0  0  0  0  0  0
   11.4837  -16.7891   29.1793 O   0  0  0  0  0  0  0  0  0  0  0  0
  1  2  1  0
  3  4  1  0
  3  2  1  0
  4  5  1  0
  5  1  1  0
  5  6  1  1
  7  6  2  0
  9  8  1  6
  9 11  1  0
 10  9  1  0
 11 12  1  6
 11 13  1  0
 12  6  1  0
 13 15  1  0
 14 13  2  0
 15 16  1  0
 15 19  1  0
 16 17  1  0
 17 18  1  0
 19 20  1  1
 19 18  1  0
 20 22  1  0
 21 20  2  0
M  END
$$$$
