PTP.pdb
     RDKit          3D

 22 23  0  0  1  0  0  0  0  0999 V2000
    8.6907  -15.2876   18.9444 N   0  0  0  0  0  0  0  0  0  0  0  0
    7.9591  -14.8949   17.7692 C   0  0  0  0  0  0  0  0  0  0  0  0
    8.2812  -13.4199   17.6136 C   0  0  0  0  0  0  0  0  0  0  0  0
    8.2170  -12.9598   19.0658 C   0  0  0  0  0  0  0  0  0  0  0  0
    8.8433  -14.1388   19.7795 C   0  0  1  0  0  0  0  0  0  0  0  0
    8.1085  -14.3140   21.0524 C   0  0  0  0  0  0  0  0  0  0  0  0
    6.8495  -14.2623   21.0316 O   0  0  0  0  0  0  0  0  0  0  0  0
    6.4328  -15.8789   22.0821 C   0  0  0  0  0  0  0  0  0  0  0  0
    7.2975  -16.0570   23.2995 C   0  0  1  0  0  0  0  0  0  0  0  0
    8.2219  -17.0752   22.9979 O   0  0  0  0  0  0  0  0  0  0  0  0
    8.0735  -14.7545   23.5136 C   0  0  2  0  0  0  0  0  0  0  0  0
    8.8117  -14.5363   22.2748 N   0  0  0  0  0  0  0  0  0  0  0  0
    9.0070  -14.8707   24.6624 C   0  0  0  0  0  0  0  0  0  0  0  0
   10.1758  -15.2809   24.4436 O   0  0  0  0  0  0  0  0  0  0  0  0
    8.5853  -14.5292   25.9474 N   0  0  0  0  0  0  0  0  0  0  0  0
    7.2689  -14.2698   26.4746 C   0  0  0  0  0  0  0  0  0  0  0  0
    7.4572  -13.2197   27.5579 C   0  0  0  0  0  0  0  0  0  0  0  0
    8.9350  -13.0964   27.6928 C   0  0  0  0  0  0  0  0  0  0  0  0
    9.4780  -14.3515   27.1036 C   0  0  1  0  0  0  0  0  0  0  0  0
    9.3601  -15.5272   27.9808 C   0  0  0  0  0  0  0  0  0  0  0  0
    8.5171  -16.4391   27.8102 O   0  0  0  0  0  0  0  0  0  0  0  0
   10.2228  -15.6485   29.0621 O   0  0  0  0  0  0  0  0  0  0  0  0
  1  2  1  0
  3  4  1  0
  3  2  1  0
  4  5  1  0
  5  1  1  0
  5  6  1  1
  7  6  2  0
  9  8  1  6
  9 11  1  0
 10  9  1  0
 11 12  1  6
 11 13  1  0
 12  6  1  0
 13 15  1  0
 14 13  2  0
 15 16  1  0
 15 19  1  0
 16 17  1  0
 17 18  1  0
 19 20  1  1
 19 18  1  0
 20 22  1  0
 21 20  2  0
M  END
$$$$
