PTP.pdb
     RDKit          3D

 22 23  0  0  1  0  0  0  0  0999 V2000
    8.0470  -15.2530   18.7509 N   0  0  0  0  0  0  0  0  0  0  0  0
    7.6589  -14.2626   17.7819 C   0  0  0  0  0  0  0  0  0  0  0  0
    8.6362  -13.1242   18.0106 C   0  0  0  0  0  0  0  0  0  0  0  0
    8.6972  -13.1032   19.5339 C   0  0  0  0  0  0  0  0  0  0  0  0
    8.6587  -14.5822   19.8538 C   0  0  1  0  0  0  0  0  0  0  0  0
    7.8446  -14.7386   21.0801 C   0  0  0  0  0  0  0  0  0  0  0  0
    6.6096  -14.9575   20.9577 O   0  0  0  0  0  0  0  0  0  0  0  0
    6.5062  -16.6511   22.2609 C   0  0  0  0  0  0  0  0  0  0  0  0
    7.3389  -16.4240   23.4923 C   0  0  1  0  0  0  0  0  0  0  0  0
    8.5450  -17.1255   23.3042 O   0  0  0  0  0  0  0  0  0  0  0  0
    7.6616  -14.9291   23.5666 C   0  0  2  0  0  0  0  0  0  0  0  0
    8.4465  -14.6432   22.3712 N   0  0  0  0  0  0  0  0  0  0  0  0
    8.4407  -14.6102   24.7897 C   0  0  0  0  0  0  0  0  0  0  0  0
    9.6841  -14.7993   24.7725 O   0  0  0  0  0  0  0  0  0  0  0  0
    7.7969  -14.1129   25.9228 N   0  0  0  0  0  0  0  0  0  0  0  0
    6.3974  -14.0352   26.2595 C   0  0  0  0  0  0  0  0  0  0  0  0
    6.2422  -12.7725   27.0921 C   0  0  0  0  0  0  0  0  0  0  0  0
    7.6402  -12.3166   27.3265 C   0  0  0  0  0  0  0  0  0  0  0  0
    8.4803  -13.5219   27.0843 C   0  0  1  0  0  0  0  0  0  0  0  0
    8.4686  -14.4944   28.1887 C   0  0  0  0  0  0  0  0  0  0  0  0
    9.0494  -14.3084   29.2839 O   0  0  0  0  0  0  0  0  0  0  0  0
    7.7807  -15.6894   28.0250 O   0  0  0  0  0  0  0  0  0  0  0  0
  1  2  1  0
  3  4  1  0
  3  2  1  0
  4  5  1  0
  5  1  1  0
  5  6  1  1
  7  6  2  0
  9  8  1  6
  9 11  1  0
 10  9  1  0
 11 12  1  6
 11 13  1  0
 12  6  1  0
 13 15  1  0
 14 13  2  0
 15 16  1  0
 15 19  1  0
 16 17  1  0
 17 18  1  0
 19 20  1  1
 19 18  1  0
 20 22  1  0
 21 20  2  0
M  END
$$$$
