MYF.pdb
     RDKit          3D

 32 33  0  0  1  0  0  0  0  0999 V2000
    8.9392  -12.2441   19.9642 C   0  0  0  0  0  0  0  0  0  0  0  0
    7.5399  -12.9689   19.0926 S   0  0  0  0  0  0  0  0  0  0  0  0
    7.7075  -14.7645   19.0057 C   0  0  0  0  0  0  0  0  0  0  0  0
    9.1899  -15.0859   18.8091 C   0  0  0  0  0  0  0  0  0  0  0  0
    9.3425  -16.5893   18.8377 C   0  0  2  0  0  0  0  0  0  0  0  0
    8.2613  -17.1907   18.0698 N   0  0  0  0  0  0  0  0  0  0  0  0
    9.3316  -17.0463   20.2379 C   0  0  0  0  0  0  0  0  0  0  0  0
    8.2542  -17.5000   20.6948 O   0  0  0  0  0  0  0  0  0  0  0  0
   11.7394  -23.6127   20.5663 O   0  0  0  0  0  0  0  0  0  0  0  0
   11.7243  -22.3200   21.0975 C   0  0  0  0  0  0  0  0  0  0  0  0
   11.1640  -22.0405   22.3243 C   0  0  0  0  0  0  0  0  0  0  0  0
   11.1615  -20.7586   22.8260 C   0  0  0  0  0  0  0  0  0  0  0  0
   11.7202  -19.6799   22.1289 C   0  0  0  0  0  0  0  0  0  0  0  0
   11.6875  -18.3167   22.6488 C   0  0  0  0  0  0  0  0  0  0  0  0
   10.4557  -17.5227   22.4503 C   0  0  2  0  0  0  0  0  0  0  0  0
   10.4659  -16.9908   21.0598 N   0  0  0  0  0  0  0  0  0  0  0  0
   10.2319  -16.3604   23.2939 C   0  0  0  0  0  0  0  0  0  0  0  0
   10.9596  -15.3220   23.2774 O   0  0  0  0  0  0  0  0  0  0  0  0
   12.2734  -19.9909   20.9045 C   0  0  0  0  0  0  0  0  0  0  0  0
   12.2785  -21.2734   20.3970 C   0  0  0  0  0  0  0  0  0  0  0  0
    9.1472  -16.3212   24.2079 N   0  0  0  0  0  0  0  0  0  0  0  0
    8.9175  -15.1432   25.0410 C   0  0  1  0  0  0  0  0  0  0  0  0
    7.4701  -14.7500   24.8278 C   0  0  0  0  0  0  0  0  0  0  0  0
    7.0210  -13.6513   25.7142 C   0  0  0  0  0  0  0  0  0  0  0  0
    6.7789  -12.3676   25.2221 C   0  0  0  0  0  0  0  0  0  0  0  0
    6.3531  -11.3384   26.0349 C   0  0  0  0  0  0  0  0  0  0  0  0
    6.1491  -11.5471   27.3830 C   0  0  0  0  0  0  0  0  0  0  0  0
    6.3836  -12.8056   27.8805 C   0  0  0  0  0  0  0  0  0  0  0  0
    6.8084  -13.8291   27.0649 C   0  0  0  0  0  0  0  0  0  0  0  0
    9.3036  -15.3043   26.4365 C   0  0  0  0  0  0  0  0  0  0  0  0
    9.1985  -16.4386   27.2036 O   0  0  0  0  0  0  0  0  0  0  0  0
    9.7986  -14.2818   27.0304 O   0  0  0  0  0  0  0  0  0  0  0  0
  1  2  1  0
  3  2  1  0
  4  3  1  0
  5  6  1  6
  5  4  1  0
  7  5  1  0
  7  8  2  0
  9 10  1  0
 10 20  2  0
 10 11  1  0
 11 12  2  0
 12 13  1  0
 13 14  1  0
 15 14  1  1
 15 17  1  0
 15 16  1  0
 16  7  1  0
 17 18  2  0
 19 13  2  0
 20 19  1  0
 21 22  1  0
 21 17  1  0
 22 30  1  0
 22 23  1  1
 24 29  1  0
 24 23  1  0
 25 24  2  0
 26 27  2  0
 26 25  1  0
 27 28  1  0
 28 29  2  0
 30 32  2  0
 30 31  1  0
M  END
$$$$
