MYF.pdb
     RDKit          3D

 32 33  0  0  1  0  0  0  0  0999 V2000
    7.7359  -19.9473   28.2063 C   0  0  0  0  0  0  0  0  0  0  0  0
    6.6855  -19.0699   27.0359 S   0  0  0  0  0  0  0  0  0  0  0  0
    6.8548  -19.7723   25.3813 C   0  0  0  0  0  0  0  0  0  0  0  0
    5.8301  -19.0866   24.4761 C   0  0  0  0  0  0  0  0  0  0  0  0
    6.4344  -18.9809   23.0947 C   0  0  2  0  0  0  0  0  0  0  0  0
    7.0997  -20.2350   22.7705 N   0  0  0  0  0  0  0  0  0  0  0  0
    7.3737  -17.8466   23.0673 C   0  0  0  0  0  0  0  0  0  0  0  0
    8.5897  -18.1007   22.8871 O   0  0  0  0  0  0  0  0  0  0  0  0
    8.2870  -13.7844   16.7117 O   0  0  0  0  0  0  0  0  0  0  0  0
    8.0089  -13.8969   18.0768 C   0  0  0  0  0  0  0  0  0  0  0  0
    8.4216  -12.9493   18.9871 C   0  0  0  0  0  0  0  0  0  0  0  0
    8.1352  -13.0826   20.3270 C   0  0  0  0  0  0  0  0  0  0  0  0
    7.4182  -14.1733   20.8351 C   0  0  0  0  0  0  0  0  0  0  0  0
    7.1440  -14.3284   22.2601 C   0  0  0  0  0  0  0  0  0  0  0  0
    7.8817  -15.3721   23.0040 C   0  0  2  0  0  0  0  0  0  0  0  0
    6.9590  -16.5178   23.2332 N   0  0  0  0  0  0  0  0  0  0  0  0
    8.4109  -15.0490   24.3185 C   0  0  0  0  0  0  0  0  0  0  0  0
    8.2622  -13.9246   24.8857 O   0  0  0  0  0  0  0  0  0  0  0  0
    7.0188  -15.1048   19.8999 C   0  0  0  0  0  0  0  0  0  0  0  0
    7.3030  -14.9762   18.5565 C   0  0  0  0  0  0  0  0  0  0  0  0
    9.1420  -16.0085   25.0659 N   0  0  0  0  0  0  0  0  0  0  0  0
    9.6096  -15.7021   26.4157 C   0  0  1  0  0  0  0  0  0  0  0  0
    8.3721  -15.3858   27.2304 C   0  0  0  0  0  0  0  0  0  0  0  0
    7.7643  -14.0771   26.8952 C   0  0  0  0  0  0  0  0  0  0  0  0
    8.4263  -12.8757   27.1542 C   0  0  0  0  0  0  0  0  0  0  0  0
    7.8752  -11.6516   26.8397 C   0  0  0  0  0  0  0  0  0  0  0  0
    6.6311  -11.5728   26.2492 C   0  0  0  0  0  0  0  0  0  0  0  0
    5.9686  -12.7473   25.9888 C   0  0  0  0  0  0  0  0  0  0  0  0
    6.5232  -13.9663   26.3046 C   0  0  0  0  0  0  0  0  0  0  0  0
   10.4782  -16.7154   26.9998 C   0  0  0  0  0  0  0  0  0  0  0  0
   11.0632  -16.6945   28.2422 O   0  0  0  0  0  0  0  0  0  0  0  0
   10.7360  -17.7493   26.2871 O   0  0  0  0  0  0  0  0  0  0  0  0
  1  2  1  0
  3  2  1  0
  4  3  1  0
  5  6  1  1
  5  4  1  0
  7  5  1  0
  7  8  2  0
  9 10  1  0
 10 20  2  0
 10 11  1  0
 11 12  2  0
 12 13  1  0
 13 14  1  0
 15 14  1  1
 15 17  1  0
 15 16  1  0
 16  7  1  0
 17 18  2  0
 19 13  2  0
 20 19  1  0
 21 22  1  0
 21 17  1  0
 22 30  1  0
 22 23  1  1
 24 29  1  0
 24 23  1  0
 25 24  2  0
 26 27  2  0
 26 25  1  0
 27 28  1  0
 28 29  2  0
 30 32  2  0
 30 31  1  0
M  END
$$$$
