MYF.pdb
     RDKit          3D

 32 33  0  0  1  0  0  0  0  0999 V2000
    7.3461  -22.2507   19.2594 C   0  0  0  0  0  0  0  0  0  0  0  0
    8.2489  -20.7597   19.7120 S   0  0  0  0  0  0  0  0  0  0  0  0
    9.3382  -21.0791   21.1160 C   0  0  0  0  0  0  0  0  0  0  0  0
   10.0080  -19.7580   21.4971 C   0  0  0  0  0  0  0  0  0  0  0  0
    9.3121  -18.6529   20.7361 C   0  0  2  0  0  0  0  0  0  0  0  0
    9.8349  -18.6101   19.3777 N   0  0  0  0  0  0  0  0  0  0  0  0
    9.5270  -17.3768   21.4395 C   0  0  0  0  0  0  0  0  0  0  0  0
   10.6595  -16.8434   21.3470 O   0  0  0  0  0  0  0  0  0  0  0  0
    8.2379  -12.4611   17.1469 O   0  0  0  0  0  0  0  0  0  0  0  0
    8.1339  -12.9491   18.4525 C   0  0  0  0  0  0  0  0  0  0  0  0
    9.2157  -12.9953   19.3037 C   0  0  0  0  0  0  0  0  0  0  0  0
    9.0878  -13.4807   20.5855 C   0  0  0  0  0  0  0  0  0  0  0  0
    7.8684  -13.9489   21.0914 C   0  0  0  0  0  0  0  0  0  0  0  0
    7.7428  -14.4928   22.4398 C   0  0  0  0  0  0  0  0  0  0  0  0
    8.7606  -15.4621   22.8997 C   0  0  2  0  0  0  0  0  0  0  0  0
    8.5247  -16.7519   22.1946 N   0  0  0  0  0  0  0  0  0  0  0  0
    8.8053  -15.8095   24.3104 C   0  0  0  0  0  0  0  0  0  0  0  0
    8.0426  -16.6642   24.8544 O   0  0  0  0  0  0  0  0  0  0  0  0
    6.8043  -13.8899   20.2161 C   0  0  0  0  0  0  0  0  0  0  0  0
    6.9269  -13.4047   18.9310 C   0  0  0  0  0  0  0  0  0  0  0  0
    9.7402  -15.1948   25.1831 N   0  0  0  0  0  0  0  0  0  0  0  0
    9.7402  -15.5031   26.6112 C   0  0  1  0  0  0  0  0  0  0  0  0
    8.3028  -15.3729   27.0720 C   0  0  0  0  0  0  0  0  0  0  0  0
    7.7347  -14.0220   26.8559 C   0  0  0  0  0  0  0  0  0  0  0  0
    8.4596  -12.8675   27.1562 C   0  0  0  0  0  0  0  0  0  0  0  0
    7.9454  -11.6044   26.9523 C   0  0  0  0  0  0  0  0  0  0  0  0
    6.6770  -11.4377   26.4365 C   0  0  0  0  0  0  0  0  0  0  0  0
    5.9527  -12.5655   26.1366 C   0  0  0  0  0  0  0  0  0  0  0  0
    6.4706  -13.8235   26.3420 C   0  0  0  0  0  0  0  0  0  0  0  0
   10.3764  -16.7672   26.9574 C   0  0  0  0  0  0  0  0  0  0  0  0
   10.9829  -17.6552   26.1031 O   0  0  0  0  0  0  0  0  0  0  0  0
   10.3791  -17.1036   28.1944 O   0  0  0  0  0  0  0  0  0  0  0  0
  1  2  1  0
  3  2  1  0
  4  3  1  0
  5  6  1  6
  5  4  1  0
  7  5  1  0
  7  8  2  0
  9 10  1  0
 10 20  2  0
 10 11  1  0
 11 12  2  0
 12 13  1  0
 13 14  1  0
 15 14  1  1
 15 17  1  0
 15 16  1  0
 16  7  1  0
 17 18  2  0
 19 13  2  0
 20 19  1  0
 21 22  1  0
 21 17  1  0
 22 30  1  0
 22 23  1  6
 24 29  1  0
 24 23  1  0
 25 24  2  0
 26 27  2  0
 26 25  1  0
 27 28  1  0
 28 29  2  0
 30 32  2  0
 30 31  1  0
M  END
$$$$
