MYF.pdb
     RDKit          3D

 32 33  0  0  1  0  0  0  0  0999 V2000
    7.0760  -19.8762   26.2700 C   0  0  0  0  0  0  0  0  0  0  0  0
    5.8081  -20.7783   25.3635 S   0  0  0  0  0  0  0  0  0  0  0  0
    5.6774  -20.1611   23.6718 C   0  0  0  0  0  0  0  0  0  0  0  0
    6.7431  -19.0798   23.4858 C   0  0  0  0  0  0  0  0  0  0  0  0
    6.6015  -18.5305   22.0848 C   0  0  2  0  0  0  0  0  0  0  0  0
    6.8314  -19.6043   21.1286 N   0  0  0  0  0  0  0  0  0  0  0  0
    7.5613  -17.4282   21.9024 C   0  0  0  0  0  0  0  0  0  0  0  0
    8.6443  -17.6877   21.3233 O   0  0  0  0  0  0  0  0  0  0  0  0
    7.1801  -13.6134   15.8816 O   0  0  0  0  0  0  0  0  0  0  0  0
    7.2705  -13.6946   17.2740 C   0  0  0  0  0  0  0  0  0  0  0  0
    6.3059  -14.3185   18.0338 C   0  0  0  0  0  0  0  0  0  0  0  0
    6.4176  -14.3853   19.4042 C   0  0  0  0  0  0  0  0  0  0  0  0
    7.5024  -13.8312   20.0956 C   0  0  0  0  0  0  0  0  0  0  0  0
    7.6021  -13.8753   21.5509 C   0  0  0  0  0  0  0  0  0  0  0  0
    8.2965  -15.0253   22.1690 C   0  0  2  0  0  0  0  0  0  0  0  0
    7.3070  -16.1233   22.3473 N   0  0  0  0  0  0  0  0  0  0  0  0
    8.9030  -14.8518   23.4785 C   0  0  0  0  0  0  0  0  0  0  0  0
    8.5841  -13.9318   24.2910 O   0  0  0  0  0  0  0  0  0  0  0  0
    8.4513  -13.2137   19.3081 C   0  0  0  0  0  0  0  0  0  0  0  0
    8.3444  -13.1438   17.9349 C   0  0  0  0  0  0  0  0  0  0  0  0
    9.9144  -15.7355   23.9363 N   0  0  0  0  0  0  0  0  0  0  0  0
   10.4720  -15.5973   25.2796 C   0  0  1  0  0  0  0  0  0  0  0  0
    9.2986  -15.6750   26.2347 C   0  0  0  0  0  0  0  0  0  0  0  0
    9.6134  -15.1838   27.5963 C   0  0  0  0  0  0  0  0  0  0  0  0
    9.3416  -13.8696   27.9804 C   0  0  0  0  0  0  0  0  0  0  0  0
    9.6224  -13.4022   29.2469 C   0  0  0  0  0  0  0  0  0  0  0  0
   10.1903  -14.2318   30.1913 C   0  0  0  0  0  0  0  0  0  0  0  0
   10.4630  -15.5276   29.8266 C   0  0  0  0  0  0  0  0  0  0  0  0
   10.1808  -15.9888   28.5614 C   0  0  0  0  0  0  0  0  0  0  0  0
   11.5613  -16.5168   25.5802 C   0  0  0  0  0  0  0  0  0  0  0  0
   12.7100  -16.2453   26.2824 O   0  0  0  0  0  0  0  0  0  0  0  0
   11.4513  -17.7186   25.1478 O   0  0  0  0  0  0  0  0  0  0  0  0
  1  2  1  0
  3  2  1  0
  4  3  1  0
  5  6  1  6
  5  4  1  0
  7  5  1  0
  7  8  2  0
  9 10  1  0
 10 20  2  0
 10 11  1  0
 11 12  2  0
 12 13  1  0
 13 14  1  0
 15 14  1  1
 15 17  1  0
 15 16  1  0
 16  7  1  0
 17 18  2  0
 19 13  2  0
 20 19  1  0
 21 22  1  0
 21 17  1  0
 22 30  1  0
 22 23  1  1
 24 29  1  0
 24 23  1  0
 25 24  2  0
 26 27  2  0
 26 25  1  0
 27 28  1  0
 28 29  2  0
 30 32  2  0
 30 31  1  0
M  END
$$$$
