MYF.pdb
     RDKit          3D

 32 33  0  0  1  0  0  0  0  0999 V2000
    6.8442  -18.8394   28.5622 C   0  0  0  0  0  0  0  0  0  0  0  0
    6.6169  -20.5777   28.1500 S   0  0  0  0  0  0  0  0  0  0  0  0
    6.1887  -20.7655   26.4062 C   0  0  0  0  0  0  0  0  0  0  0  0
    6.8492  -19.6201   25.6374 C   0  0  0  0  0  0  0  0  0  0  0  0
    6.3294  -19.6583   24.2186 C   0  0  2  0  0  0  0  0  0  0  0  0
    6.5900  -20.9745   23.6530 N   0  0  0  0  0  0  0  0  0  0  0  0
    6.9845  -18.5942   23.4387 C   0  0  0  0  0  0  0  0  0  0  0  0
    7.9670  -18.9143   22.7261 O   0  0  0  0  0  0  0  0  0  0  0  0
    8.6329  -12.1111   17.9253 O   0  0  0  0  0  0  0  0  0  0  0  0
    8.0795  -12.8774   18.9548 C   0  0  0  0  0  0  0  0  0  0  0  0
    7.7435  -12.3304   20.1734 C   0  0  0  0  0  0  0  0  0  0  0  0
    7.1996  -13.1063   21.1720 C   0  0  0  0  0  0  0  0  0  0  0  0
    6.9597  -14.4767   21.0096 C   0  0  0  0  0  0  0  0  0  0  0  0
    6.4130  -15.3032   22.0809 C   0  0  0  0  0  0  0  0  0  0  0  0
    7.3428  -16.1650   22.8422 C   0  0  2  0  0  0  0  0  0  0  0  0
    6.5526  -17.2609   23.4676 N   0  0  0  0  0  0  0  0  0  0  0  0
    8.0999  -15.5786   23.9356 C   0  0  0  0  0  0  0  0  0  0  0  0
    7.7837  -14.4965   24.5165 O   0  0  0  0  0  0  0  0  0  0  0  0
    7.3062  -14.9952   19.7795 C   0  0  0  0  0  0  0  0  0  0  0  0
    7.8514  -14.2225   18.7757 C   0  0  0  0  0  0  0  0  0  0  0  0
    9.2698  -16.2093   24.4329 N   0  0  0  0  0  0  0  0  0  0  0  0
   10.0148  -15.6255   25.5458 C   0  0  1  0  0  0  0  0  0  0  0  0
    9.0603  -15.5906   26.7218 C   0  0  0  0  0  0  0  0  0  0  0  0
    8.1053  -14.4593   26.6724 C   0  0  0  0  0  0  0  0  0  0  0  0
    8.5119  -13.1479   26.9247 C   0  0  0  0  0  0  0  0  0  0  0  0
    7.6347  -12.0852   26.8741 C   0  0  0  0  0  0  0  0  0  0  0  0
    6.3051  -12.2865   26.5676 C   0  0  0  0  0  0  0  0  0  0  0  0
    5.8915  -13.5720   26.3171 C   0  0  0  0  0  0  0  0  0  0  0  0
    6.7710  -14.6289   26.3689 C   0  0  0  0  0  0  0  0  0  0  0  0
   11.2936  -16.2671   25.8207 C   0  0  0  0  0  0  0  0  0  0  0  0
   11.8240  -17.3683   25.1945 O   0  0  0  0  0  0  0  0  0  0  0  0
   12.0176  -15.7594   26.7488 O   0  0  0  0  0  0  0  0  0  0  0  0
  1  2  1  0
  3  2  1  0
  4  3  1  0
  5  6  1  6
  5  4  1  0
  7  5  1  0
  7  8  2  0
  9 10  1  0
 10 20  2  0
 10 11  1  0
 11 12  2  0
 12 13  1  0
 13 14  1  0
 15 14  1  1
 15 17  1  0
 15 16  1  0
 16  7  1  0
 17 18  2  0
 19 13  2  0
 20 19  1  0
 21 22  1  0
 21 17  1  0
 22 30  1  0
 22 23  1  1
 24 29  1  0
 24 23  1  0
 25 24  2  0
 26 27  2  0
 26 25  1  0
 27 28  1  0
 28 29  2  0
 30 32  2  0
 30 31  1  0
M  END
$$$$
