MYF.pdb
     RDKit          3D

 32 33  0  0  1  0  0  0  0  0999 V2000
    1.1556  -18.9412   20.9796 C   0  0  0  0  0  0  0  0  0  0  0  0
    1.5030  -20.6224   21.5238 S   0  0  0  0  0  0  0  0  0  0  0  0
    3.0628  -20.6861   22.4308 C   0  0  0  0  0  0  0  0  0  0  0  0
    4.0413  -19.7319   21.7442 C   0  0  0  0  0  0  0  0  0  0  0  0
    5.3018  -19.6876   22.5771 C   0  0  2  0  0  0  0  0  0  0  0  0
    4.9403  -19.5017   23.9754 N   0  0  0  0  0  0  0  0  0  0  0  0
    6.1608  -18.5947   22.0899 C   0  0  0  0  0  0  0  0  0  0  0  0
    6.9295  -18.8415   21.1288 O   0  0  0  0  0  0  0  0  0  0  0  0
    9.4846  -12.0396   17.8521 O   0  0  0  0  0  0  0  0  0  0  0  0
    8.7039  -12.8552   18.6761 C   0  0  0  0  0  0  0  0  0  0  0  0
    8.1058  -12.3780   19.8214 C   0  0  0  0  0  0  0  0  0  0  0  0
    7.3415  -13.2014   20.6168 C   0  0  0  0  0  0  0  0  0  0  0  0
    7.1305  -14.5522   20.3125 C   0  0  0  0  0  0  0  0  0  0  0  0
    6.3463  -15.4307   21.1746 C   0  0  0  0  0  0  0  0  0  0  0  0
    7.0620  -16.2360   22.1876 C   0  0  2  0  0  0  0  0  0  0  0  0
    6.1462  -17.3123   22.6560 N   0  0  0  0  0  0  0  0  0  0  0  0
    7.5215  -15.5812   23.4012 C   0  0  0  0  0  0  0  0  0  0  0  0
    7.2954  -14.3648   23.6795 O   0  0  0  0  0  0  0  0  0  0  0  0
    7.7417  -15.0005   19.1604 C   0  0  0  0  0  0  0  0  0  0  0  0
    8.5085  -14.1800   18.3600 C   0  0  0  0  0  0  0  0  0  0  0  0
    8.2679  -16.2932   24.3757 N   0  0  0  0  0  0  0  0  0  0  0  0
    9.6440  -15.9121   24.6846 C   0  0  1  0  0  0  0  0  0  0  0  0
    9.6639  -14.3978   24.7279 C   0  0  0  0  0  0  0  0  0  0  0  0
    8.8106  -13.8274   25.7960 C   0  0  0  0  0  0  0  0  0  0  0  0
    7.6399  -13.1268   25.5005 C   0  0  0  0  0  0  0  0  0  0  0  0
    6.8328  -12.5979   26.4854 C   0  0  0  0  0  0  0  0  0  0  0  0
    7.1612  -12.7463   27.8169 C   0  0  0  0  0  0  0  0  0  0  0  0
    8.3106  -13.4336   28.1218 C   0  0  0  0  0  0  0  0  0  0  0  0
    9.1124  -13.9593   27.1350 C   0  0  0  0  0  0  0  0  0  0  0  0
   10.2013  -16.5604   25.8642 C   0  0  0  0  0  0  0  0  0  0  0  0
    9.5660  -17.4342   26.7122 O   0  0  0  0  0  0  0  0  0  0  0  0
   11.4209  -16.2964   26.1581 O   0  0  0  0  0  0  0  0  0  0  0  0
  1  2  1  0
  3  2  1  0
  4  3  1  0
  5  6  1  1
  5  4  1  0
  7  5  1  0
  7  8  2  0
  9 10  1  0
 10 20  2  0
 10 11  1  0
 11 12  2  0
 12 13  1  0
 13 14  1  0
 15 14  1  6
 15 17  1  0
 15 16  1  0
 16  7  1  0
 17 18  2  0
 19 13  2  0
 20 19  1  0
 21 22  1  0
 21 17  1  0
 22 30  1  0
 22 23  1  1
 24 29  1  0
 24 23  1  0
 25 24  2  0
 26 27  2  0
 26 25  1  0
 27 28  1  0
 28 29  2  0
 30 32  2  0
 30 31  1  0
M  END
$$$$
