MYF.pdb
     RDKit          3D

 32 33  0  0  1  0  0  0  0  0999 V2000
    6.7564  -18.8780   26.9444 C   0  0  0  0  0  0  0  0  0  0  0  0
    6.5200  -19.8923   25.4753 S   0  0  0  0  0  0  0  0  0  0  0  0
    7.8643  -19.6286   24.2993 C   0  0  0  0  0  0  0  0  0  0  0  0
    7.4031  -20.1520   22.9381 C   0  0  0  0  0  0  0  0  0  0  0  0
    7.0081  -18.9602   22.0966 C   0  0  2  0  0  0  0  0  0  0  0  0
    6.6800  -19.4157   20.7531 N   0  0  0  0  0  0  0  0  0  0  0  0
    8.1184  -17.9924   22.0843 C   0  0  0  0  0  0  0  0  0  0  0  0
    9.1760  -18.3257   21.4962 O   0  0  0  0  0  0  0  0  0  0  0  0
    7.3345  -13.3894   16.6790 O   0  0  0  0  0  0  0  0  0  0  0  0
    7.6180  -13.6356   18.0253 C   0  0  0  0  0  0  0  0  0  0  0  0
    8.9054  -13.8182   18.4795 C   0  0  0  0  0  0  0  0  0  0  0  0
    9.1590  -14.0595   19.8108 C   0  0  0  0  0  0  0  0  0  0  0  0
    8.1380  -14.1322   20.7670 C   0  0  0  0  0  0  0  0  0  0  0  0
    8.4071  -14.4202   22.1721 C   0  0  0  0  0  0  0  0  0  0  0  0
    9.0790  -15.6940   22.5081 C   0  0  2  0  0  0  0  0  0  0  0  0
    8.0316  -16.7348   22.6977 N   0  0  0  0  0  0  0  0  0  0  0  0
    9.8917  -15.7573   23.7114 C   0  0  0  0  0  0  0  0  0  0  0  0
   11.1096  -15.4076   23.7634 O   0  0  0  0  0  0  0  0  0  0  0  0
    6.8606  -13.9453   20.2822 C   0  0  0  0  0  0  0  0  0  0  0  0
    6.6009  -13.7034   18.9495 C   0  0  0  0  0  0  0  0  0  0  0  0
    9.3464  -16.2239   24.9356 N   0  0  0  0  0  0  0  0  0  0  0  0
   10.0313  -15.9698   26.2008 C   0  0  1  0  0  0  0  0  0  0  0  0
   10.1547  -14.4646   26.3202 C   0  0  0  0  0  0  0  0  0  0  0  0
    8.8585  -13.7827   26.5420 C   0  0  0  0  0  0  0  0  0  0  0  0
    8.0464  -13.3917   25.4760 C   0  0  0  0  0  0  0  0  0  0  0  0
    6.8341  -12.7636   25.6691 C   0  0  0  0  0  0  0  0  0  0  0  0
    6.3769  -12.4966   26.9428 C   0  0  0  0  0  0  0  0  0  0  0  0
    7.1662  -12.8759   28.0008 C   0  0  0  0  0  0  0  0  0  0  0  0
    8.3750  -13.5025   27.8026 C   0  0  0  0  0  0  0  0  0  0  0  0
    9.4306  -16.6232   27.3561 C   0  0  0  0  0  0  0  0  0  0  0  0
    8.3118  -17.4196   27.3735 O   0  0  0  0  0  0  0  0  0  0  0  0
    9.9974  -16.4449   28.4920 O   0  0  0  0  0  0  0  0  0  0  0  0
  1  2  1  0
  3  2  1  0
  4  3  1  0
  5  6  1  6
  5  4  1  0
  7  5  1  0
  7  8  2  0
  9 10  1  0
 10 20  2  0
 10 11  1  0
 11 12  2  0
 12 13  1  0
 13 14  1  0
 15 14  1  1
 15 17  1  0
 15 16  1  0
 16  7  1  0
 17 18  2  0
 19 13  2  0
 20 19  1  0
 21 22  1  0
 21 17  1  0
 22 30  1  0
 22 23  1  1
 24 29  1  0
 24 23  1  0
 25 24  2  0
 26 27  2  0
 26 25  1  0
 27 28  1  0
 28 29  2  0
 30 32  2  0
 30 31  1  0
M  END
$$$$
