MYF.pdb
     RDKit          3D

 32 33  0  0  1  0  0  0  0  0999 V2000
    7.4111  -16.7104   29.5827 C   0  0  0  0  0  0  0  0  0  0  0  0
    7.6906  -18.3037   28.7912 S   0  0  0  0  0  0  0  0  0  0  0  0
    6.9643  -18.3271   27.1385 C   0  0  0  0  0  0  0  0  0  0  0  0
    7.2110  -19.7128   26.5398 C   0  0  0  0  0  0  0  0  0  0  0  0
    6.5569  -19.7486   25.1777 C   0  0  2  0  0  0  0  0  0  0  0  0
    6.4910  -21.1291   24.7191 N   0  0  0  0  0  0  0  0  0  0  0  0
    7.3321  -18.9064   24.2508 C   0  0  0  0  0  0  0  0  0  0  0  0
    8.3255  -19.4241   23.6845 O   0  0  0  0  0  0  0  0  0  0  0  0
    8.1150  -12.4525   18.0306 O   0  0  0  0  0  0  0  0  0  0  0  0
    7.7851  -13.2655   19.1186 C   0  0  0  0  0  0  0  0  0  0  0  0
    7.3789  -14.5717   18.9582 C   0  0  0  0  0  0  0  0  0  0  0  0
    7.0592  -15.3524   20.0460 C   0  0  0  0  0  0  0  0  0  0  0  0
    7.1273  -14.8713   21.3596 C   0  0  0  0  0  0  0  0  0  0  0  0
    6.7568  -15.6912   22.5087 C   0  0  0  0  0  0  0  0  0  0  0  0
    7.6578  -16.7978   22.8969 C   0  0  2  0  0  0  0  0  0  0  0  0
    7.0007  -17.5700   23.9870 N   0  0  0  0  0  0  0  0  0  0  0  0
    8.9782  -16.4741   23.4110 C   0  0  0  0  0  0  0  0  0  0  0  0
   10.0591  -16.7264   22.7975 O   0  0  0  0  0  0  0  0  0  0  0  0
    7.5370  -13.5608   21.4881 C   0  0  0  0  0  0  0  0  0  0  0  0
    7.8584  -12.7742   20.4018 C   0  0  0  0  0  0  0  0  0  0  0  0
    9.1343  -15.8315   24.6665 N   0  0  0  0  0  0  0  0  0  0  0  0
   10.4552  -15.4137   25.1302 C   0  0  1  0  0  0  0  0  0  0  0  0
   10.3888  -13.9094   25.2967 C   0  0  0  0  0  0  0  0  0  0  0  0
    9.1477  -13.4437   25.9580 C   0  0  0  0  0  0  0  0  0  0  0  0
    7.9049  -13.5378   25.3293 C   0  0  0  0  0  0  0  0  0  0  0  0
    6.7414  -13.1155   25.9369 C   0  0  0  0  0  0  0  0  0  0  0  0
    6.7679  -12.5774   27.2066 C   0  0  0  0  0  0  0  0  0  0  0  0
    7.9843  -12.4790   27.8368 C   0  0  0  0  0  0  0  0  0  0  0  0
    9.1423  -12.9020   27.2260 C   0  0  0  0  0  0  0  0  0  0  0  0
   10.9414  -16.1331   26.3000 C   0  0  0  0  0  0  0  0  0  0  0  0
   12.1496  -15.9729   26.9330 O   0  0  0  0  0  0  0  0  0  0  0  0
   10.1667  -17.0191   26.8082 O   0  0  0  0  0  0  0  0  0  0  0  0
  1  2  1  0
  3  2  1  0
  4  3  1  0
  5  6  1  6
  5  4  1  0
  7  5  1  0
  7  8  2  0
  9 10  1  0
 10 20  2  0
 10 11  1  0
 11 12  2  0
 12 13  1  0
 13 14  1  0
 15 14  1  1
 15 17  1  0
 15 16  1  0
 16  7  1  0
 17 18  2  0
 19 13  2  0
 20 19  1  0
 21 22  1  0
 21 17  1  0
 22 30  1  0
 22 23  1  1
 24 29  1  0
 24 23  1  0
 25 24  2  0
 26 27  2  0
 26 25  1  0
 27 28  1  0
 28 29  2  0
 30 32  2  0
 30 31  1  0
M  END
$$$$
