MYF.pdb
     RDKit          3D

 32 33  0  0  1  0  0  0  0  0999 V2000
    5.8452  -13.7070   26.4722 C   0  0  0  0  0  0  0  0  0  0  0  0
    6.4877  -15.2729   27.0873 S   0  0  0  0  0  0  0  0  0  0  0  0
    6.6040  -16.4801   25.7499 C   0  0  0  0  0  0  0  0  0  0  0  0
    5.8596  -15.9109   24.5412 C   0  0  0  0  0  0  0  0  0  0  0  0
    6.1083  -16.8344   23.3708 C   0  0  2  0  0  0  0  0  0  0  0  0
    5.7992  -18.2002   23.7700 N   0  0  0  0  0  0  0  0  0  0  0  0
    7.5113  -16.6996   22.9429 C   0  0  0  0  0  0  0  0  0  0  0  0
    8.1924  -17.7488   22.8382 O   0  0  0  0  0  0  0  0  0  0  0  0
    7.4938  -14.0416   16.2216 O   0  0  0  0  0  0  0  0  0  0  0  0
    8.0479  -14.0700   17.5044 C   0  0  0  0  0  0  0  0  0  0  0  0
    8.8321  -15.1157   17.9387 C   0  0  0  0  0  0  0  0  0  0  0  0
    9.3666  -15.1206   19.2073 C   0  0  0  0  0  0  0  0  0  0  0  0
    9.1476  -14.0782   20.1168 C   0  0  0  0  0  0  0  0  0  0  0  0
    9.6888  -14.1013   21.4719 C   0  0  0  0  0  0  0  0  0  0  0  0
    9.5299  -15.3383   22.2667 C   0  0  2  0  0  0  0  0  0  0  0  0
    8.0976  -15.4593   22.6546 N   0  0  0  0  0  0  0  0  0  0  0  0
   10.2672  -15.4659   23.5127 C   0  0  0  0  0  0  0  0  0  0  0  0
   10.5190  -14.4959   24.2898 O   0  0  0  0  0  0  0  0  0  0  0  0
    8.3591  -13.0460   19.6534 C   0  0  0  0  0  0  0  0  0  0  0  0
    7.8210  -13.0361   18.3835 C   0  0  0  0  0  0  0  0  0  0  0  0
   10.7564  -16.7261   23.9444 N   0  0  0  0  0  0  0  0  0  0  0  0
   11.0306  -16.9740   25.3579 C   0  0  1  0  0  0  0  0  0  0  0  0
    9.7325  -16.7104   26.0932 C   0  0  0  0  0  0  0  0  0  0  0  0
    9.7601  -15.4780   26.9147 C   0  0  0  0  0  0  0  0  0  0  0  0
   10.5411  -15.3855   28.0679 C   0  0  0  0  0  0  0  0  0  0  0  0
   10.5819  -14.2416   28.8368 C   0  0  0  0  0  0  0  0  0  0  0  0
    9.8400  -13.1331   28.4856 C   0  0  0  0  0  0  0  0  0  0  0  0
    9.0669  -13.2105   27.3530 C   0  0  0  0  0  0  0  0  0  0  0  0
    9.0299  -14.3544   26.5894 C   0  0  0  0  0  0  0  0  0  0  0  0
   11.6352  -18.2693   25.6389 C   0  0  0  0  0  0  0  0  0  0  0  0
   12.2252  -18.6759   26.8106 O   0  0  0  0  0  0  0  0  0  0  0  0
   11.6241  -19.1391   24.6972 O   0  0  0  0  0  0  0  0  0  0  0  0
  1  2  1  0
  3  2  1  0
  4  3  1  0
  5  6  1  1
  5  4  1  0
  7  5  1  0
  7  8  2  0
  9 10  1  0
 10 20  2  0
 10 11  1  0
 11 12  2  0
 12 13  1  0
 13 14  1  0
 15 14  1  1
 15 17  1  0
 15 16  1  0
 16  7  1  0
 17 18  2  0
 19 13  2  0
 20 19  1  0
 21 22  1  0
 21 17  1  0
 22 30  1  0
 22 23  1  1
 24 29  1  0
 24 23  1  0
 25 24  2  0
 26 27  2  0
 26 25  1  0
 27 28  1  0
 28 29  2  0
 30 32  2  0
 30 31  1  0
M  END
$$$$
