MYF.pdb
     RDKit          3D

 32 33  0  0  1  0  0  0  0  0999 V2000
    9.8466  -12.9882   19.7076 C   0  0  0  0  0  0  0  0  0  0  0  0
    8.0843  -12.8368   19.3690 S   0  0  0  0  0  0  0  0  0  0  0  0
    7.2561  -14.4250   19.5954 C   0  0  0  0  0  0  0  0  0  0  0  0
    8.3079  -15.5254   19.4461 C   0  0  0  0  0  0  0  0  0  0  0  0
    7.6465  -16.8425   19.7813 C   0  0  2  0  0  0  0  0  0  0  0  0
    6.3705  -16.9237   19.0845 N   0  0  0  0  0  0  0  0  0  0  0  0
    7.4733  -16.9346   21.2411 C   0  0  0  0  0  0  0  0  0  0  0  0
    6.4497  -16.4077   21.7413 O   0  0  0  0  0  0  0  0  0  0  0  0
    8.3150  -20.7887   29.2844 O   0  0  0  0  0  0  0  0  0  0  0  0
    8.3007  -20.4112   27.9387 C   0  0  0  0  0  0  0  0  0  0  0  0
    9.4606  -20.2226   27.2203 C   0  0  0  0  0  0  0  0  0  0  0  0
    9.4203  -19.8506   25.8956 C   0  0  0  0  0  0  0  0  0  0  0  0
    8.2156  -19.6453   25.2112 C   0  0  0  0  0  0  0  0  0  0  0  0
    8.1763  -19.2196   23.8158 C   0  0  0  0  0  0  0  0  0  0  0  0
    8.1497  -17.7692   23.5283 C   0  0  2  0  0  0  0  0  0  0  0  0
    8.3989  -17.5803   22.0727 N   0  0  0  0  0  0  0  0  0  0  0  0
    9.1183  -16.9097   24.1884 C   0  0  0  0  0  0  0  0  0  0  0  0
   10.1157  -16.3872   23.6052 O   0  0  0  0  0  0  0  0  0  0  0  0
    7.0721  -19.8417   25.9565 C   0  0  0  0  0  0  0  0  0  0  0  0
    7.1067  -20.2143   27.2839 C   0  0  0  0  0  0  0  0  0  0  0  0
    8.9926  -16.5935   25.5660 N   0  0  0  0  0  0  0  0  0  0  0  0
    9.9744  -15.7362   26.2259 C   0  0  1  0  0  0  0  0  0  0  0  0
    9.8393  -14.3690   25.5873 C   0  0  0  0  0  0  0  0  0  0  0  0
    8.6584  -13.6109   26.0620 C   0  0  0  0  0  0  0  0  0  0  0  0
    8.6756  -12.9120   27.2702 C   0  0  0  0  0  0  0  0  0  0  0  0
    7.5861  -12.1961   27.7193 C   0  0  0  0  0  0  0  0  0  0  0  0
    6.4245  -12.1464   26.9773 C   0  0  0  0  0  0  0  0  0  0  0  0
    6.3938  -12.8297   25.7863 C   0  0  0  0  0  0  0  0  0  0  0  0
    7.4839  -13.5426   25.3427 C   0  0  0  0  0  0  0  0  0  0  0  0
    9.8978  -15.7369   27.6808 C   0  0  0  0  0  0  0  0  0  0  0  0
   10.8191  -15.2280   28.5630 O   0  0  0  0  0  0  0  0  0  0  0  0
    8.8603  -16.2688   28.2137 O   0  0  0  0  0  0  0  0  0  0  0  0
  1  2  1  0
  3  2  1  0
  4  3  1  0
  5  6  1  6
  5  4  1  0
  7  5  1  0
  7  8  2  0
  9 10  1  0
 10 20  2  0
 10 11  1  0
 11 12  2  0
 12 13  1  0
 13 14  1  0
 15 14  1  1
 15 17  1  0
 15 16  1  0
 16  7  1  0
 17 18  2  0
 19 13  2  0
 20 19  1  0
 21 22  1  0
 21 17  1  0
 22 30  1  0
 22 23  1  6
 24 29  1  0
 24 23  1  0
 25 24  2  0
 26 27  2  0
 26 25  1  0
 27 28  1  0
 28 29  2  0
 30 32  2  0
 30 31  1  0
M  END
$$$$
