MYF.pdb
     RDKit          3D

 32 33  0  0  1  0  0  0  0  0999 V2000
    6.8788  -13.2396   26.6787 C   0  0  0  0  0  0  0  0  0  0  0  0
    6.4715  -12.2400   25.2372 S   0  0  0  0  0  0  0  0  0  0  0  0
    6.5421  -13.2368   23.7335 C   0  0  0  0  0  0  0  0  0  0  0  0
    7.4762  -14.4182   24.0000 C   0  0  0  0  0  0  0  0  0  0  0  0
    7.6396  -15.1772   22.7032 C   0  0  2  0  0  0  0  0  0  0  0  0
    6.3485  -15.7204   22.3054 N   0  0  0  0  0  0  0  0  0  0  0  0
    8.6399  -16.2416   22.8929 C   0  0  0  0  0  0  0  0  0  0  0  0
    8.2285  -17.3703   23.2567 O   0  0  0  0  0  0  0  0  0  0  0  0
    9.6308  -19.6027   16.9775 O   0  0  0  0  0  0  0  0  0  0  0  0
   10.1641  -18.9960   18.1182 C   0  0  0  0  0  0  0  0  0  0  0  0
   10.4206  -17.6440   18.1746 C   0  0  0  0  0  0  0  0  0  0  0  0
   10.9464  -17.0699   19.3099 C   0  0  0  0  0  0  0  0  0  0  0  0
   11.2466  -17.8158   20.4567 C   0  0  0  0  0  0  0  0  0  0  0  0
   11.8340  -17.2099   21.6474 C   0  0  0  0  0  0  0  0  0  0  0  0
   11.0062  -17.1276   22.8701 C   0  0  2  0  0  0  0  0  0  0  0  0
   10.0107  -16.0364   22.6836 N   0  0  0  0  0  0  0  0  0  0  0  0
   11.6579  -16.8277   24.1343 C   0  0  0  0  0  0  0  0  0  0  0  0
   12.0613  -15.6725   24.4672 O   0  0  0  0  0  0  0  0  0  0  0  0
   10.9790  -19.1659   20.3699 C   0  0  0  0  0  0  0  0  0  0  0  0
   10.4524  -19.7463   19.2350 C   0  0  0  0  0  0  0  0  0  0  0  0
   11.8799  -17.8443   25.0990 N   0  0  0  0  0  0  0  0  0  0  0  0
   11.6305  -17.5931   26.5165 C   0  0  1  0  0  0  0  0  0  0  0  0
   10.3045  -16.8641   26.5899 C   0  0  0  0  0  0  0  0  0  0  0  0
   10.3575  -15.6243   27.3990 C   0  0  0  0  0  0  0  0  0  0  0  0
    9.6258  -14.4891   27.0460 C   0  0  0  0  0  0  0  0  0  0  0  0
    9.6602  -13.3318   27.7948 C   0  0  0  0  0  0  0  0  0  0  0  0
   10.4314  -13.2567   28.9359 C   0  0  0  0  0  0  0  0  0  0  0  0
   11.1564  -14.3666   29.2948 C   0  0  0  0  0  0  0  0  0  0  0  0
   11.1185  -15.5190   28.5440 C   0  0  0  0  0  0  0  0  0  0  0  0
   11.7221  -18.7734   27.3655 C   0  0  0  0  0  0  0  0  0  0  0  0
   11.2133  -18.9296   28.6316 O   0  0  0  0  0  0  0  0  0  0  0  0
   12.3447  -19.7896   26.8931 O   0  0  0  0  0  0  0  0  0  0  0  0
  1  2  1  0
  3  2  1  0
  4  3  1  0
  5  6  1  1
  5  4  1  0
  7  5  1  0
  7  8  2  0
  9 10  1  0
 10 20  2  0
 10 11  1  0
 11 12  2  0
 12 13  1  0
 13 14  1  0
 15 14  1  6
 15 17  1  0
 15 16  1  0
 16  7  1  0
 17 18  2  0
 19 13  2  0
 20 19  1  0
 21 22  1  0
 21 17  1  0
 22 30  1  0
 22 23  1  6
 24 29  1  0
 24 23  1  0
 25 24  2  0
 26 27  2  0
 26 25  1  0
 27 28  1  0
 28 29  2  0
 30 32  2  0
 30 31  1  0
M  END
$$$$
