MYF.pdb
     RDKit          3D

 32 33  0  0  1  0  0  0  0  0999 V2000
    6.8902  -12.5129   26.6323 C   0  0  0  0  0  0  0  0  0  0  0  0
    5.2472  -13.2456   26.7142 S   0  0  0  0  0  0  0  0  0  0  0  0
    5.1690  -14.7421   25.7073 C   0  0  0  0  0  0  0  0  0  0  0  0
    6.5909  -15.0723   25.2506 C   0  0  0  0  0  0  0  0  0  0  0  0
    6.4882  -15.9600   24.0316 C   0  0  2  0  0  0  0  0  0  0  0  0
    5.8223  -17.2006   24.4027 N   0  0  0  0  0  0  0  0  0  0  0  0
    7.8406  -16.2081   23.5033 C   0  0  0  0  0  0  0  0  0  0  0  0
    8.2570  -17.3922   23.4999 O   0  0  0  0  0  0  0  0  0  0  0  0
    6.6984  -13.9777   16.8718 O   0  0  0  0  0  0  0  0  0  0  0  0
    7.5463  -14.0678   17.9793 C   0  0  0  0  0  0  0  0  0  0  0  0
    7.6429  -13.0570   18.9098 C   0  0  0  0  0  0  0  0  0  0  0  0
    8.4856  -13.1695   19.9924 C   0  0  0  0  0  0  0  0  0  0  0  0
    9.2821  -14.3013   20.2078 C   0  0  0  0  0  0  0  0  0  0  0  0
   10.1984  -14.4042   21.3389 C   0  0  0  0  0  0  0  0  0  0  0  0
    9.9571  -15.4663   22.3392 C   0  0  2  0  0  0  0  0  0  0  0  0
    8.6608  -15.1820   23.0139 N   0  0  0  0  0  0  0  0  0  0  0  0
   10.9129  -15.6353   23.4211 C   0  0  0  0  0  0  0  0  0  0  0  0
   11.4346  -14.6738   24.0626 O   0  0  0  0  0  0  0  0  0  0  0  0
    9.1635  -15.2959   19.2598 C   0  0  0  0  0  0  0  0  0  0  0  0
    8.3209  -15.1884   18.1732 C   0  0  0  0  0  0  0  0  0  0  0  0
   11.3233  -16.9289   23.8358 N   0  0  0  0  0  0  0  0  0  0  0  0
   11.5062  -17.2334   25.2529 C   0  0  1  0  0  0  0  0  0  0  0  0
   10.2778  -16.7009   25.9620 C   0  0  0  0  0  0  0  0  0  0  0  0
   10.5944  -15.7775   27.0763 C   0  0  0  0  0  0  0  0  0  0  0  0
   10.6926  -14.3992   26.8781 C   0  0  0  0  0  0  0  0  0  0  0  0
   10.9787  -13.5283   27.9081 C   0  0  0  0  0  0  0  0  0  0  0  0
   11.1806  -13.9984   29.1891 C   0  0  0  0  0  0  0  0  0  0  0  0
   11.0869  -15.3526   29.3982 C   0  0  0  0  0  0  0  0  0  0  0  0
   10.8011  -16.2172   28.3667 C   0  0  0  0  0  0  0  0  0  0  0  0
   11.8140  -18.6287   25.5372 C   0  0  0  0  0  0  0  0  0  0  0  0
   12.5593  -19.1208   26.5806 O   0  0  0  0  0  0  0  0  0  0  0  0
   11.3442  -19.5092   24.7326 O   0  0  0  0  0  0  0  0  0  0  0  0
  1  2  1  0
  3  2  1  0
  4  3  1  0
  5  6  1  1
  5  4  1  0
  7  5  1  0
  7  8  2  0
  9 10  1  0
 10 20  2  0
 10 11  1  0
 11 12  2  0
 12 13  1  0
 13 14  1  0
 15 14  1  6
 15 17  1  0
 15 16  1  0
 16  7  1  0
 17 18  2  0
 19 13  2  0
 20 19  1  0
 21 22  1  0
 21 17  1  0
 22 30  1  0
 22 23  1  1
 24 29  1  0
 24 23  1  0
 25 24  2  0
 26 27  2  0
 26 25  1  0
 27 28  1  0
 28 29  2  0
 30 32  2  0
 30 31  1  0
M  END
$$$$
