MYF.pdb
     RDKit          3D

 32 33  0  0  1  0  0  0  0  0999 V2000
    8.6489  -11.3194   20.8459 C   0  0  0  0  0  0  0  0  0  0  0  0
    7.2731  -12.1085   19.9929 S   0  0  0  0  0  0  0  0  0  0  0  0
    7.5879  -13.8733   19.7783 C   0  0  0  0  0  0  0  0  0  0  0  0
    7.9324  -14.4562   21.1499 C   0  0  0  0  0  0  0  0  0  0  0  0
    8.2663  -15.9177   20.9580 C   0  0  2  0  0  0  0  0  0  0  0  0
    7.1118  -16.5974   20.3876 N   0  0  0  0  0  0  0  0  0  0  0  0
    8.6487  -16.4971   22.2570 C   0  0  0  0  0  0  0  0  0  0  0  0
    7.7562  -17.0773   22.9222 O   0  0  0  0  0  0  0  0  0  0  0  0
   10.7594  -22.7392   20.6901 O   0  0  0  0  0  0  0  0  0  0  0  0
   10.9575  -21.5772   21.4411 C   0  0  0  0  0  0  0  0  0  0  0  0
   10.7115  -21.5316   22.7955 C   0  0  0  0  0  0  0  0  0  0  0  0
   10.9144  -20.3746   23.5134 C   0  0  0  0  0  0  0  0  0  0  0  0
   11.3759  -19.1941   22.9174 C   0  0  0  0  0  0  0  0  0  0  0  0
   11.5592  -17.9602   23.6749 C   0  0  0  0  0  0  0  0  0  0  0  0
   10.3625  -17.1523   23.9945 C   0  0  2  0  0  0  0  0  0  0  0  0
    9.9538  -16.4218   22.7634 N   0  0  0  0  0  0  0  0  0  0  0  0
   10.4666  -16.1279   25.0204 C   0  0  0  0  0  0  0  0  0  0  0  0
   11.2390  -15.1249   24.9447 O   0  0  0  0  0  0  0  0  0  0  0  0
   11.6131  -19.2709   21.5611 C   0  0  0  0  0  0  0  0  0  0  0  0
   11.4115  -20.4273   20.8370 C   0  0  0  0  0  0  0  0  0  0  0  0
    9.6788  -16.1937   26.1988 N   0  0  0  0  0  0  0  0  0  0  0  0
   10.0171  -15.3841   27.3669 C   0  0  1  0  0  0  0  0  0  0  0  0
    8.7046  -14.8609   27.9135 C   0  0  0  0  0  0  0  0  0  0  0  0
    7.9870  -13.9705   26.9718 C   0  0  0  0  0  0  0  0  0  0  0  0
    8.1950  -12.5901   26.9685 C   0  0  0  0  0  0  0  0  0  0  0  0
    7.5396  -11.7514   26.0920 C   0  0  0  0  0  0  0  0  0  0  0  0
    6.6422  -12.2573   25.1747 C   0  0  0  0  0  0  0  0  0  0  0  0
    6.4281  -13.6139   25.1671 C   0  0  0  0  0  0  0  0  0  0  0  0
    7.0848  -14.4464   26.0440 C   0  0  0  0  0  0  0  0  0  0  0  0
   10.8575  -16.0582   28.3476 C   0  0  0  0  0  0  0  0  0  0  0  0
   11.2919  -17.3606   28.3166 O   0  0  0  0  0  0  0  0  0  0  0  0
   11.2435  -15.3728   29.3599 O   0  0  0  0  0  0  0  0  0  0  0  0
  1  2  1  0
  3  2  1  0
  4  3  1  0
  5  6  1  1
  5  4  1  0
  7  5  1  0
  7  8  2  0
  9 10  1  0
 10 20  2  0
 10 11  1  0
 11 12  2  0
 12 13  1  0
 13 14  1  0
 15 14  1  6
 15 17  1  0
 15 16  1  0
 16  7  1  0
 17 18  2  0
 19 13  2  0
 20 19  1  0
 21 22  1  0
 21 17  1  0
 22 30  1  0
 22 23  1  1
 24 29  1  0
 24 23  1  0
 25 24  2  0
 26 27  2  0
 26 25  1  0
 27 28  1  0
 28 29  2  0
 30 32  2  0
 30 31  1  0
M  END
$$$$
