MYF.pdb
     RDKit          3D

 32 33  0  0  1  0  0  0  0  0999 V2000
    2.3517  -17.9219   19.3577 C   0  0  0  0  0  0  0  0  0  0  0  0
    3.3265  -19.4245   19.5449 S   0  0  0  0  0  0  0  0  0  0  0  0
    4.2772  -19.3769   21.0790 C   0  0  0  0  0  0  0  0  0  0  0  0
    5.4300  -18.3910   20.8834 C   0  0  0  0  0  0  0  0  0  0  0  0
    6.2533  -18.3883   22.1509 C   0  0  2  0  0  0  0  0  0  0  0  0
    5.3781  -18.1256   23.2847 N   0  0  0  0  0  0  0  0  0  0  0  0
    7.3099  -17.3687   22.0347 C   0  0  0  0  0  0  0  0  0  0  0  0
    8.1831  -17.5323   21.1480 O   0  0  0  0  0  0  0  0  0  0  0  0
    7.7633  -13.4820   16.6392 O   0  0  0  0  0  0  0  0  0  0  0  0
    7.8563  -13.6111   18.0278 C   0  0  0  0  0  0  0  0  0  0  0  0
    9.0000  -14.0681   18.6442 C   0  0  0  0  0  0  0  0  0  0  0  0
    9.0670  -14.1867   20.0141 C   0  0  0  0  0  0  0  0  0  0  0  0
    7.9921  -13.8544   20.8484 C   0  0  0  0  0  0  0  0  0  0  0  0
    8.0548  -14.0116   22.2980 C   0  0  0  0  0  0  0  0  0  0  0  0
    8.5244  -15.3046   22.8408 C   0  0  2  0  0  0  0  0  0  0  0  0
    7.3689  -16.2430   22.8681 N   0  0  0  0  0  0  0  0  0  0  0  0
    9.0665  -15.3391   24.1890 C   0  0  0  0  0  0  0  0  0  0  0  0
    9.8573  -14.4655   24.6575 O   0  0  0  0  0  0  0  0  0  0  0  0
    6.8616  -13.4001   20.2025 C   0  0  0  0  0  0  0  0  0  0  0  0
    6.7890  -13.2795   18.8305 C   0  0  0  0  0  0  0  0  0  0  0  0
    8.7240  -16.3841   25.0858 N   0  0  0  0  0  0  0  0  0  0  0  0
    9.2679  -16.4102   26.4415 C   0  0  1  0  0  0  0  0  0  0  0  0
    8.1811  -15.8626   27.3439 C   0  0  0  0  0  0  0  0  0  0  0  0
    7.8657  -14.4378   27.0890 C   0  0  0  0  0  0  0  0  0  0  0  0
    6.6370  -14.0452   26.5555 C   0  0  0  0  0  0  0  0  0  0  0  0
    6.3280  -12.7220   26.3210 C   0  0  0  0  0  0  0  0  0  0  0  0
    7.2380  -11.7267   26.6108 C   0  0  0  0  0  0  0  0  0  0  0  0
    8.4510  -12.0991   27.1364 C   0  0  0  0  0  0  0  0  0  0  0  0
    8.7542  -13.4210   27.3684 C   0  0  0  0  0  0  0  0  0  0  0  0
    9.8059  -17.7000   26.8530 C   0  0  0  0  0  0  0  0  0  0  0  0
    9.8361  -18.8613   26.1204 O   0  0  0  0  0  0  0  0  0  0  0  0
   10.3116  -17.7771   28.0285 O   0  0  0  0  0  0  0  0  0  0  0  0
  1  2  1  0
  3  2  1  0
  4  3  1  0
  5  6  1  1
  5  4  1  0
  7  5  1  0
  7  8  2  0
  9 10  1  0
 10 20  2  0
 10 11  1  0
 11 12  2  0
 12 13  1  0
 13 14  1  0
 15 14  1  1
 15 17  1  0
 15 16  1  0
 16  7  1  0
 17 18  2  0
 19 13  2  0
 20 19  1  0
 21 22  1  0
 21 17  1  0
 22 30  1  0
 22 23  1  1
 24 29  1  0
 24 23  1  0
 25 24  2  0
 26 27  2  0
 26 25  1  0
 27 28  1  0
 28 29  2  0
 30 32  2  0
 30 31  1  0
M  END
$$$$
