MYF.pdb
     RDKit          3D

 32 33  0  0  1  0  0  0  0  0999 V2000
    6.9813  -13.4621   27.7820 C   0  0  0  0  0  0  0  0  0  0  0  0
    6.6043  -12.6999   26.1946 S   0  0  0  0  0  0  0  0  0  0  0  0
    6.9427  -13.8483   24.8431 C   0  0  0  0  0  0  0  0  0  0  0  0
    6.2563  -15.1744   25.1745 C   0  0  0  0  0  0  0  0  0  0  0  0
    6.3575  -16.0621   23.9554 C   0  0  2  0  0  0  0  0  0  0  0  0
    5.7165  -17.3376   24.2426 N   0  0  0  0  0  0  0  0  0  0  0  0
    7.7775  -16.2362   23.6050 C   0  0  0  0  0  0  0  0  0  0  0  0
    8.3162  -17.3353   23.8833 O   0  0  0  0  0  0  0  0  0  0  0  0
    6.9979  -13.9581   16.7946 O   0  0  0  0  0  0  0  0  0  0  0  0
    7.7764  -14.0589   17.9510 C   0  0  0  0  0  0  0  0  0  0  0  0
    7.8751  -13.0270   18.8578 C   0  0  0  0  0  0  0  0  0  0  0  0
    8.6487  -13.1507   19.9897 C   0  0  0  0  0  0  0  0  0  0  0  0
    9.3698  -14.3156   20.2810 C   0  0  0  0  0  0  0  0  0  0  0  0
   10.2146  -14.4321   21.4653 C   0  0  0  0  0  0  0  0  0  0  0  0
    9.8967  -15.4896   22.4489 C   0  0  2  0  0  0  0  0  0  0  0  0
    8.5310  -15.2314   22.9824 N   0  0  0  0  0  0  0  0  0  0  0  0
   10.7392  -15.6231   23.6258 C   0  0  0  0  0  0  0  0  0  0  0  0
   11.1664  -14.6422   24.3066 O   0  0  0  0  0  0  0  0  0  0  0  0
    9.2510  -15.3307   19.3550 C   0  0  0  0  0  0  0  0  0  0  0  0
    8.4775  -15.2121   18.2194 C   0  0  0  0  0  0  0  0  0  0  0  0
   11.1377  -16.9014   24.0958 N   0  0  0  0  0  0  0  0  0  0  0  0
   11.3997  -17.1243   25.5157 C   0  0  1  0  0  0  0  0  0  0  0  0
   10.1632  -16.6526   26.2532 C   0  0  0  0  0  0  0  0  0  0  0  0
   10.4128  -15.4933   27.1410 C   0  0  0  0  0  0  0  0  0  0  0  0
   10.2369  -14.1815   26.6973 C   0  0  0  0  0  0  0  0  0  0  0  0
   10.4580  -13.0942   27.5159 C   0  0  0  0  0  0  0  0  0  0  0  0
   10.8670  -13.2701   28.8214 C   0  0  0  0  0  0  0  0  0  0  0  0
   11.0439  -14.5557   29.2710 C   0  0  0  0  0  0  0  0  0  0  0  0
   10.8218  -15.6372   28.4499 C   0  0  0  0  0  0  0  0  0  0  0  0
   11.8250  -18.4776   25.8474 C   0  0  0  0  0  0  0  0  0  0  0  0
   12.6112  -18.8677   26.9038 O   0  0  0  0  0  0  0  0  0  0  0  0
   11.4300  -19.4227   25.0766 O   0  0  0  0  0  0  0  0  0  0  0  0
  1  2  1  0
  3  2  1  0
  4  3  1  0
  5  6  1  1
  5  4  1  0
  7  5  1  0
  7  8  2  0
  9 10  1  0
 10 20  2  0
 10 11  1  0
 11 12  2  0
 12 13  1  0
 13 14  1  0
 15 14  1  6
 15 17  1  0
 15 16  1  0
 16  7  1  0
 17 18  2  0
 19 13  2  0
 20 19  1  0
 21 22  1  0
 21 17  1  0
 22 30  1  0
 22 23  1  1
 24 29  1  0
 24 23  1  0
 25 24  2  0
 26 27  2  0
 26 25  1  0
 27 28  1  0
 28 29  2  0
 30 32  2  0
 30 31  1  0
M  END
$$$$
