KVM.pdb
     RDKit          3D

 25 24  0  0  1  0  0  0  0  0999 V2000
    9.2782  -18.8438   20.7277 N   0  0  0  0  0  0  0  0  0  0  0  0
   10.5208  -18.1489   20.4763 C   0  0  1  0  0  0  0  0  0  0  0  0
   10.9479  -18.2908   19.0136 C   0  0  0  0  0  0  0  0  0  0  0  0
   10.4248  -19.5742   18.4578 C   0  0  0  0  0  0  0  0  0  0  0  0
   10.8744  -19.8039   17.0551 C   0  0  0  0  0  0  0  0  0  0  0  0
   10.2128  -21.0242   16.4612 C   0  0  0  0  0  0  0  0  0  0  0  0
   10.8071  -21.2413   15.1334 N   0  0  0  0  0  0  0  0  0  0  0  0
   10.3656  -16.7122   20.8044 C   0  0  0  0  0  0  0  0  0  0  0  0
   11.3144  -15.8874   20.6004 O   0  0  0  0  0  0  0  0  0  0  0  0
    6.9892  -13.2039   21.0531 C   0  0  0  0  0  0  0  0  0  0  0  0
    7.5042  -14.5977   21.0010 C   0  0  2  0  0  0  0  0  0  0  0  0
    6.5084  -15.5376   21.6470 C   0  0  0  0  0  0  0  0  0  0  0  0
    8.8955  -14.7998   21.5189 C   0  0  2  0  0  0  0  0  0  0  0  0
    9.1590  -16.2422   21.3490 N   0  0  0  0  0  0  0  0  0  0  0  0
    9.0816  -14.4760   22.9440 C   0  0  0  0  0  0  0  0  0  0  0  0
    8.8023  -13.3318   23.3851 O   0  0  0  0  0  0  0  0  0  0  0  0
    5.9795  -11.1955   25.8263 C   0  0  0  0  0  0  0  0  0  0  0  0
    6.4668  -12.6678   26.7212 S   0  0  0  0  0  0  0  0  0  0  0  0
    7.9808  -13.4030   26.1285 C   0  0  0  0  0  0  0  0  0  0  0  0
    7.7419  -14.6830   25.3242 C   0  0  0  0  0  0  0  0  0  0  0  0
    9.1190  -15.3538   25.2442 C   0  0  2  0  0  0  0  0  0  0  0  0
    9.5763  -15.4224   23.8774 N   0  0  0  0  0  0  0  0  0  0  0  0
    9.0938  -16.7014   25.8326 C   0  0  0  0  0  0  0  0  0  0  0  0
    9.4454  -16.9448   27.1488 O   0  0  0  0  0  0  0  0  0  0  0  0
    8.7424  -17.6722   25.1250 O   0  0  0  0  0  0  0  0  0  0  0  0
  2  1  1  6
  3  2  1  0
  3  4  1  0
  4  5  1  0
  5  6  1  0
  7  6  1  0
  8  9  2  0
  8  2  1  0
 11 10  1  1
 11 13  1  0
 11 12  1  0
 13 14  1  1
 14  8  1  0
 15 22  1  0
 15 13  1  0
 16 15  2  0
 17 18  1  0
 18 19  1  0
 19 20  1  0
 21 20  1  6
 21 23  1  0
 21 22  1  0
 23 24  1  0
 25 23  2  0
M  END
$$$$
