KVM.pdb
     RDKit          3D

 25 24  0  0  1  0  0  0  0  0999 V2000
   11.0096  -17.1961   19.3803 N   0  0  0  0  0  0  0  0  0  0  0  0
   10.1424  -17.6716   20.4349 C   0  0  1  0  0  0  0  0  0  0  0  0
   10.5559  -19.0685   20.9035 C   0  0  0  0  0  0  0  0  0  0  0  0
   10.4838  -20.0258   19.7598 C   0  0  0  0  0  0  0  0  0  0  0  0
   10.8712  -21.4089   20.1593 C   0  0  0  0  0  0  0  0  0  0  0  0
   10.8027  -22.3569   18.9863 C   0  0  0  0  0  0  0  0  0  0  0  0
   11.2144  -23.6831   19.4711 N   0  0  0  0  0  0  0  0  0  0  0  0
   10.1909  -16.7353   21.5825 C   0  0  0  0  0  0  0  0  0  0  0  0
   11.2800  -16.1673   21.9190 O   0  0  0  0  0  0  0  0  0  0  0  0
    7.4573  -13.9840   22.4283 C   0  0  0  0  0  0  0  0  0  0  0  0
    7.7170  -14.9311   23.5445 C   0  0  2  0  0  0  0  0  0  0  0  0
    7.4392  -14.2523   24.8691 C   0  0  0  0  0  0  0  0  0  0  0  0
    9.0500  -15.6148   23.5246 C   0  0  2  0  0  0  0  0  0  0  0  0
    9.0247  -16.4631   22.3169 N   0  0  0  0  0  0  0  0  0  0  0  0
    9.3175  -16.4893   24.6797 C   0  0  0  0  0  0  0  0  0  0  0  0
    8.8824  -17.6690   24.7073 O   0  0  0  0  0  0  0  0  0  0  0  0
   10.5882  -14.0173   29.8391 C   0  0  0  0  0  0  0  0  0  0  0  0
   10.6557  -13.7934   28.0640 S   0  0  0  0  0  0  0  0  0  0  0  0
   11.7256  -14.9539   27.2318 C   0  0  0  0  0  0  0  0  0  0  0  0
   11.5427  -16.3895   27.7296 C   0  0  0  0  0  0  0  0  0  0  0  0
   10.6173  -17.0438   26.6960 C   0  0  2  0  0  0  0  0  0  0  0  0
   10.0680  -16.0538   25.8016 N   0  0  0  0  0  0  0  0  0  0  0  0
    9.5298  -17.7899   27.3467 C   0  0  0  0  0  0  0  0  0  0  0  0
    9.7521  -18.9483   28.0706 O   0  0  0  0  0  0  0  0  0  0  0  0
    8.3547  -17.3702   27.2485 O   0  0  0  0  0  0  0  0  0  0  0  0
  2  1  1  6
  3  2  1  0
  3  4  1  0
  4  5  1  0
  5  6  1  0
  7  6  1  0
  8  9  2  0
  8  2  1  0
 11 10  1  6
 11 13  1  0
 11 12  1  0
 13 14  1  6
 14  8  1  0
 15 22  1  0
 15 13  1  0
 16 15  2  0
 17 18  1  0
 18 19  1  0
 19 20  1  0
 21 20  1  1
 21 23  1  0
 21 22  1  0
 23 24  1  0
 25 23  2  0
M  END
$$$$
