KVM.pdb
     RDKit          3D

 25 24  0  0  1  0  0  0  0  0999 V2000
   11.2970  -17.0423   19.2029 N   0  0  0  0  0  0  0  0  0  0  0  0
   10.2367  -17.4493   20.0976 C   0  0  1  0  0  0  0  0  0  0  0  0
   10.4082  -18.9067   20.5319 C   0  0  0  0  0  0  0  0  0  0  0  0
   10.1739  -19.8109   19.3670 C   0  0  0  0  0  0  0  0  0  0  0  0
   10.2830  -21.2498   19.7415 C   0  0  0  0  0  0  0  0  0  0  0  0
   10.1313  -22.1428   18.5337 C   0  0  0  0  0  0  0  0  0  0  0  0
   10.3094  -23.5296   18.9899 N   0  0  0  0  0  0  0  0  0  0  0  0
   10.2317  -16.5779   21.2961 C   0  0  0  0  0  0  0  0  0  0  0  0
   11.3031  -16.0284   21.7111 O   0  0  0  0  0  0  0  0  0  0  0  0
    7.3534  -13.9732   22.0052 C   0  0  0  0  0  0  0  0  0  0  0  0
    7.6313  -14.8585   23.1669 C   0  0  2  0  0  0  0  0  0  0  0  0
    7.3105  -14.1308   24.4554 C   0  0  0  0  0  0  0  0  0  0  0  0
    8.9882  -15.4931   23.1950 C   0  0  2  0  0  0  0  0  0  0  0  0
    9.0335  -16.3479   21.9925 N   0  0  0  0  0  0  0  0  0  0  0  0
    9.2491  -16.3512   24.3638 C   0  0  0  0  0  0  0  0  0  0  0  0
    8.9106  -17.5624   24.3605 O   0  0  0  0  0  0  0  0  0  0  0  0
    9.7443  -12.8027   28.4557 C   0  0  0  0  0  0  0  0  0  0  0  0
   10.6465  -14.1189   29.2679 S   0  0  0  0  0  0  0  0  0  0  0  0
   10.3895  -15.7261   28.5366 C   0  0  0  0  0  0  0  0  0  0  0  0
   11.4107  -16.0490   27.4432 C   0  0  0  0  0  0  0  0  0  0  0  0
   10.6072  -16.7934   26.3694 C   0  0  2  0  0  0  0  0  0  0  0  0
    9.8860  -15.8643   25.5338 N   0  0  0  0  0  0  0  0  0  0  0  0
    9.6724  -17.7564   26.9709 C   0  0  0  0  0  0  0  0  0  0  0  0
    8.2987  -17.6123   26.8848 O   0  0  0  0  0  0  0  0  0  0  0  0
   10.1257  -18.7475   27.5863 O   0  0  0  0  0  0  0  0  0  0  0  0
  2  1  1  6
  3  2  1  0
  3  4  1  0
  4  5  1  0
  5  6  1  0
  7  6  1  0
  8  9  2  0
  8  2  1  0
 11 10  1  6
 11 13  1  0
 11 12  1  0
 13 14  1  6
 14  8  1  0
 15 22  1  0
 15 13  1  0
 16 15  2  0
 17 18  1  0
 18 19  1  0
 19 20  1  0
 21 20  1  1
 21 23  1  0
 21 22  1  0
 23 24  1  0
 25 23  2  0
M  END
$$$$
