KVM.pdb
     RDKit          3D

 25 24  0  0  1  0  0  0  0  0999 V2000
   11.8547  -17.2830   19.2766 N   0  0  0  0  0  0  0  0  0  0  0  0
   10.9247  -17.7967   20.2572 C   0  0  1  0  0  0  0  0  0  0  0  0
   11.4549  -19.0781   20.9044 C   0  0  0  0  0  0  0  0  0  0  0  0
   10.6059  -20.2371   20.4974 C   0  0  0  0  0  0  0  0  0  0  0  0
   11.0824  -21.5188   21.0912 C   0  0  0  0  0  0  0  0  0  0  0  0
    9.9415  -22.2971   21.7010 C   0  0  0  0  0  0  0  0  0  0  0  0
   10.4992  -23.5540   22.2229 N   0  0  0  0  0  0  0  0  0  0  0  0
   10.6914  -16.7774   21.3072 C   0  0  0  0  0  0  0  0  0  0  0  0
   11.6308  -16.0103   21.6958 O   0  0  0  0  0  0  0  0  0  0  0  0
    7.6458  -14.4189   21.3394 C   0  0  0  0  0  0  0  0  0  0  0  0
    7.7873  -15.1198   22.6429 C   0  0  2  0  0  0  0  0  0  0  0  0
    7.2485  -14.2469   23.7565 C   0  0  0  0  0  0  0  0  0  0  0  0
    9.1514  -15.6572   22.9511 C   0  0  2  0  0  0  0  0  0  0  0  0
    9.4195  -16.6468   21.8893 N   0  0  0  0  0  0  0  0  0  0  0  0
    9.2692  -16.3485   24.2468 C   0  0  0  0  0  0  0  0  0  0  0  0
    9.1533  -17.5986   24.3214 O   0  0  0  0  0  0  0  0  0  0  0  0
    9.3369  -12.2620   28.4095 C   0  0  0  0  0  0  0  0  0  0  0  0
   10.4169  -12.8538   27.1099 S   0  0  0  0  0  0  0  0  0  0  0  0
   11.0695  -14.4883   27.4042 C   0  0  0  0  0  0  0  0  0  0  0  0
    9.9960  -15.4820   27.8543 C   0  0  0  0  0  0  0  0  0  0  0  0
    9.7990  -16.4120   26.6505 C   0  0  2  0  0  0  0  0  0  0  0  0
    9.5162  -15.6518   25.4573 N   0  0  0  0  0  0  0  0  0  0  0  0
    8.7210  -17.3824   26.8938 C   0  0  0  0  0  0  0  0  0  0  0  0
    8.9329  -18.5786   27.5566 O   0  0  0  0  0  0  0  0  0  0  0  0
    7.5640  -17.1266   26.4905 O   0  0  0  0  0  0  0  0  0  0  0  0
  2  1  1  6
  3  2  1  0
  3  4  1  0
  4  5  1  0
  5  6  1  0
  7  6  1  0
  8  9  2  0
  8  2  1  0
 11 10  1  6
 11 13  1  0
 11 12  1  0
 13 14  1  6
 14  8  1  0
 15 22  1  0
 15 13  1  0
 16 15  2  0
 17 18  1  0
 18 19  1  0
 19 20  1  0
 21 20  1  1
 21 23  1  0
 21 22  1  0
 23 24  1  0
 25 23  2  0
M  END
$$$$
