KVM.pdb
     RDKit          3D

 25 24  0  0  1  0  0  0  0  0999 V2000
    7.2318  -18.6721   19.0100 N   0  0  0  0  0  0  0  0  0  0  0  0
    7.5792  -18.5702   20.4097 C   0  0  1  0  0  0  0  0  0  0  0  0
    8.3993  -19.7791   20.8657 C   0  0  0  0  0  0  0  0  0  0  0  0
    7.9969  -20.1682   22.2500 C   0  0  0  0  0  0  0  0  0  0  0  0
    8.8701  -21.2395   22.8089 C   0  0  0  0  0  0  0  0  0  0  0  0
    8.4212  -21.6454   24.1920 C   0  0  0  0  0  0  0  0  0  0  0  0
    7.2342  -22.4994   24.0336 N   0  0  0  0  0  0  0  0  0  0  0  0
    8.3598  -17.3323   20.6424 C   0  0  0  0  0  0  0  0  0  0  0  0
    9.5570  -17.2239   20.2214 O   0  0  0  0  0  0  0  0  0  0  0  0
    7.2482  -13.9332   19.5546 C   0  0  0  0  0  0  0  0  0  0  0  0
    7.5197  -13.9343   21.0164 C   0  0  2  0  0  0  0  0  0  0  0  0
    7.8971  -12.5399   21.4697 C   0  0  0  0  0  0  0  0  0  0  0  0
    8.4871  -14.9709   21.5004 C   0  0  2  0  0  0  0  0  0  0  0  0
    7.7810  -16.2567   21.3363 N   0  0  0  0  0  0  0  0  0  0  0  0
    8.8710  -14.8493   22.9176 C   0  0  0  0  0  0  0  0  0  0  0  0
    9.4693  -13.8253   23.3361 O   0  0  0  0  0  0  0  0  0  0  0  0
    5.6617  -11.2805   26.2824 C   0  0  0  0  0  0  0  0  0  0  0  0
    6.8514  -12.3375   27.1028 S   0  0  0  0  0  0  0  0  0  0  0  0
    7.9345  -13.2077   25.9830 C   0  0  0  0  0  0  0  0  0  0  0  0
    7.2492  -14.3919   25.2972 C   0  0  0  0  0  0  0  0  0  0  0  0
    8.3274  -15.4811   25.2345 C   0  0  2  0  0  0  0  0  0  0  0  0
    8.5897  -15.8636   23.8682 N   0  0  0  0  0  0  0  0  0  0  0  0
    7.9419  -16.6627   26.0207 C   0  0  0  0  0  0  0  0  0  0  0  0
    8.5343  -16.9758   27.2316 O   0  0  0  0  0  0  0  0  0  0  0  0
    7.0450  -17.4207   25.5875 O   0  0  0  0  0  0  0  0  0  0  0  0
  2  1  1  6
  3  2  1  0
  3  4  1  0
  4  5  1  0
  5  6  1  0
  7  6  1  0
  8  9  2  0
  8  2  1  0
 11 10  1  6
 11 13  1  0
 11 12  1  0
 13 14  1  1
 14  8  1  0
 15 22  1  0
 15 13  1  0
 16 15  2  0
 17 18  1  0
 18 19  1  0
 19 20  1  0
 21 20  1  6
 21 23  1  0
 21 22  1  0
 23 24  1  0
 25 23  2  0
M  END
$$$$
