KVM.pdb
     RDKit          3D

 25 24  0  0  1  0  0  0  0  0999 V2000
    9.0495  -18.5113   18.2022 N   0  0  0  0  0  0  0  0  0  0  0  0
    8.1170  -18.0365   19.1999 C   0  0  1  0  0  0  0  0  0  0  0  0
    7.7875  -19.1328   20.2154 C   0  0  0  0  0  0  0  0  0  0  0  0
    7.1899  -20.3074   19.5134 C   0  0  0  0  0  0  0  0  0  0  0  0
    6.9404  -21.4486   20.4396 C   0  0  0  0  0  0  0  0  0  0  0  0
    6.2625  -22.5940   19.7268 C   0  0  0  0  0  0  0  0  0  0  0  0
    7.2849  -23.2695   18.9135 N   0  0  0  0  0  0  0  0  0  0  0  0
    8.6935  -16.8695   19.9081 C   0  0  0  0  0  0  0  0  0  0  0  0
    9.9457  -16.7883   20.1257 O   0  0  0  0  0  0  0  0  0  0  0  0
    7.7494  -13.2590   19.1080 C   0  0  0  0  0  0  0  0  0  0  0  0
    7.6355  -13.4940   20.5717 C   0  0  2  0  0  0  0  0  0  0  0  0
    7.9640  -12.2213   21.3232 C   0  0  0  0  0  0  0  0  0  0  0  0
    8.3840  -14.6777   21.1036 C   0  0  2  0  0  0  0  0  0  0  0  0
    7.8559  -15.8320   20.3503 N   0  0  0  0  0  0  0  0  0  0  0  0
    8.1809  -14.9487   22.5374 C   0  0  0  0  0  0  0  0  0  0  0  0
    7.0557  -15.3059   22.9711 O   0  0  0  0  0  0  0  0  0  0  0  0
    6.6714  -11.2368   27.5539 C   0  0  0  0  0  0  0  0  0  0  0  0
    6.0310  -12.8341   27.0593 S   0  0  0  0  0  0  0  0  0  0  0  0
    7.2937  -13.9962   26.5703 C   0  0  0  0  0  0  0  0  0  0  0  0
    7.5303  -14.0117   25.0583 C   0  0  0  0  0  0  0  0  0  0  0  0
    8.8852  -14.7094   24.8846 C   0  0  2  0  0  0  0  0  0  0  0  0
    9.2266  -14.8239   23.4874 N   0  0  0  0  0  0  0  0  0  0  0  0
    8.8872  -16.0397   25.5117 C   0  0  0  0  0  0  0  0  0  0  0  0
    9.3027  -16.2465   26.8155 O   0  0  0  0  0  0  0  0  0  0  0  0
    8.5002  -17.0293   24.8503 O   0  0  0  0  0  0  0  0  0  0  0  0
  2  1  1  6
  3  2  1  0
  3  4  1  0
  4  5  1  0
  5  6  1  0
  7  6  1  0
  8  9  2  0
  8  2  1  0
 11 10  1  6
 11 13  1  0
 11 12  1  0
 13 14  1  6
 14  8  1  0
 15 22  1  0
 15 13  1  0
 16 15  2  0
 17 18  1  0
 18 19  1  0
 19 20  1  0
 21 20  1  6
 21 23  1  0
 21 22  1  0
 23 24  1  0
 25 23  2  0
M  END
$$$$
