KVM.pdb
     RDKit          3D

 25 24  0  0  1  0  0  0  0  0999 V2000
    7.4198  -19.3257   19.8507 N   0  0  0  0  0  0  0  0  0  0  0  0
    6.8407  -18.2853   20.6707 C   0  0  1  0  0  0  0  0  0  0  0  0
    6.5158  -18.8031   22.0737 C   0  0  0  0  0  0  0  0  0  0  0  0
    5.9973  -20.2007   21.9878 C   0  0  0  0  0  0  0  0  0  0  0  0
    5.6873  -20.7687   23.3309 C   0  0  0  0  0  0  0  0  0  0  0  0
    5.0980  -22.1540   23.2165 C   0  0  0  0  0  0  0  0  0  0  0  0
    6.0748  -23.0934   23.7881 N   0  0  0  0  0  0  0  0  0  0  0  0
    7.7840  -17.1471   20.7745 C   0  0  0  0  0  0  0  0  0  0  0  0
    9.0299  -17.3077   20.5651 O   0  0  0  0  0  0  0  0  0  0  0  0
    7.0474  -13.6308   19.2193 C   0  0  0  0  0  0  0  0  0  0  0  0
    7.4100  -13.5549   20.6591 C   0  0  2  0  0  0  0  0  0  0  0  0
    8.0549  -12.2177   20.9565 C   0  0  0  0  0  0  0  0  0  0  0  0
    8.2104  -14.7034   21.1928 C   0  0  2  0  0  0  0  0  0  0  0  0
    7.3079  -15.8683   21.1082 N   0  0  0  0  0  0  0  0  0  0  0  0
    8.6338  -14.5667   22.5973 C   0  0  0  0  0  0  0  0  0  0  0  0
    9.5287  -13.7448   22.9220 O   0  0  0  0  0  0  0  0  0  0  0  0
    5.4962  -11.6175   26.9642 C   0  0  0  0  0  0  0  0  0  0  0  0
    7.1116  -11.7480   26.2031 S   0  0  0  0  0  0  0  0  0  0  0  0
    7.9454  -13.2887   26.5425 C   0  0  0  0  0  0  0  0  0  0  0  0
    7.3184  -14.4755   25.8073 C   0  0  0  0  0  0  0  0  0  0  0  0
    8.4712  -15.0842   24.9990 C   0  0  2  0  0  0  0  0  0  0  0  0
    8.0630  -15.3414   23.6392 N   0  0  0  0  0  0  0  0  0  0  0  0
    8.9632  -16.3244   25.6177 C   0  0  0  0  0  0  0  0  0  0  0  0
    9.0666  -17.5141   24.9183 O   0  0  0  0  0  0  0  0  0  0  0  0
    9.3044  -16.3147   26.8219 O   0  0  0  0  0  0  0  0  0  0  0  0
  2  1  1  6
  3  2  1  0
  3  4  1  0
  4  5  1  0
  5  6  1  0
  7  6  1  0
  8  9  2  0
  8  2  1  0
 11 10  1  6
 11 13  1  0
 11 12  1  0
 13 14  1  1
 14  8  1  0
 15 22  1  0
 15 13  1  0
 16 15  2  0
 17 18  1  0
 18 19  1  0
 19 20  1  0
 21 20  1  1
 21 23  1  0
 21 22  1  0
 23 24  1  0
 25 23  2  0
M  END
$$$$
