KVM.pdb
     RDKit          3D

 25 24  0  0  1  0  0  0  0  0999 V2000
    6.2808  -18.3642   20.0670 N   0  0  0  0  0  0  0  0  0  0  0  0
    7.3380  -18.4343   21.0507 C   0  0  1  0  0  0  0  0  0  0  0  0
    8.2317  -19.6542   20.8164 C   0  0  0  0  0  0  0  0  0  0  0  0
    7.4238  -20.9034   20.9455 C   0  0  0  0  0  0  0  0  0  0  0  0
    7.1133  -21.2275   22.3671 C   0  0  0  0  0  0  0  0  0  0  0  0
    6.3940  -22.5499   22.4825 C   0  0  0  0  0  0  0  0  0  0  0  0
    7.2238  -23.4273   23.3222 N   0  0  0  0  0  0  0  0  0  0  0  0
    8.1616  -17.2040   20.9881 C   0  0  0  0  0  0  0  0  0  0  0  0
    9.4098  -17.2630   20.7417 O   0  0  0  0  0  0  0  0  0  0  0  0
    7.1241  -13.9499   19.0311 C   0  0  0  0  0  0  0  0  0  0  0  0
    7.4226  -13.7122   20.4680 C   0  0  2  0  0  0  0  0  0  0  0  0
    7.8772  -12.2819   20.6683 C   0  0  0  0  0  0  0  0  0  0  0  0
    8.3464  -14.6983   21.1153 C   0  0  2  0  0  0  0  0  0  0  0  0
    7.5675  -15.9491   21.2023 N   0  0  0  0  0  0  0  0  0  0  0  0
    8.7773  -14.3441   22.4789 C   0  0  0  0  0  0  0  0  0  0  0  0
    9.0948  -13.1615   22.7660 O   0  0  0  0  0  0  0  0  0  0  0  0
    8.0471  -10.7467   26.8670 C   0  0  0  0  0  0  0  0  0  0  0  0
    6.7202  -11.9211   26.6101 S   0  0  0  0  0  0  0  0  0  0  0  0
    7.2741  -13.6094   26.4465 C   0  0  0  0  0  0  0  0  0  0  0  0
    7.3214  -14.0784   24.9904 C   0  0  0  0  0  0  0  0  0  0  0  0
    8.6308  -14.8696   24.8799 C   0  0  2  0  0  0  0  0  0  0  0  0
    8.8543  -15.3023   23.5218 N   0  0  0  0  0  0  0  0  0  0  0  0
    8.6332  -16.0306   25.7827 C   0  0  0  0  0  0  0  0  0  0  0  0
    8.8083  -15.9089   27.1501 O   0  0  0  0  0  0  0  0  0  0  0  0
    8.4715  -17.1769   25.3068 O   0  0  0  0  0  0  0  0  0  0  0  0
  2  1  1  6
  3  2  1  0
  3  4  1  0
  4  5  1  0
  5  6  1  0
  7  6  1  0
  8  9  2  0
  8  2  1  0
 11 10  1  6
 11 13  1  0
 11 12  1  0
 13 14  1  1
 14  8  1  0
 15 22  1  0
 15 13  1  0
 16 15  2  0
 17 18  1  0
 18 19  1  0
 19 20  1  0
 21 20  1  6
 21 23  1  0
 21 22  1  0
 23 24  1  0
 25 23  2  0
M  END
$$$$
