KVM.pdb
     RDKit          3D

 25 24  0  0  1  0  0  0  0  0999 V2000
   11.2854  -18.3563   18.7079 N   0  0  0  0  0  0  0  0  0  0  0  0
   10.2812  -18.3505   19.7481 C   0  0  1  0  0  0  0  0  0  0  0  0
   10.6476  -19.3175   20.8761 C   0  0  0  0  0  0  0  0  0  0  0  0
   10.5863  -20.7229   20.3753 C   0  0  0  0  0  0  0  0  0  0  0  0
   11.9419  -21.3229   20.2175 C   0  0  0  0  0  0  0  0  0  0  0  0
   12.2775  -22.2296   21.3770 C   0  0  0  0  0  0  0  0  0  0  0  0
   13.6325  -22.7527   21.1453 N   0  0  0  0  0  0  0  0  0  0  0  0
   10.1418  -16.9827   20.3009 C   0  0  0  0  0  0  0  0  0  0  0  0
   11.1328  -16.1831   20.3286 O   0  0  0  0  0  0  0  0  0  0  0  0
    7.6000  -14.5498   19.1718 C   0  0  0  0  0  0  0  0  0  0  0  0
    7.5042  -14.6585   20.6515 C   0  0  2  0  0  0  0  0  0  0  0  0
    7.0397  -13.3404   21.2342 C   0  0  0  0  0  0  0  0  0  0  0  0
    8.7192  -15.1912   21.3476 C   0  0  2  0  0  0  0  0  0  0  0  0
    8.9033  -16.5513   20.8045 N   0  0  0  0  0  0  0  0  0  0  0  0
    8.5965  -15.3069   22.8112 C   0  0  0  0  0  0  0  0  0  0  0  0
    8.5682  -16.4349   23.3668 O   0  0  0  0  0  0  0  0  0  0  0  0
    6.0332  -10.8976   27.2584 C   0  0  0  0  0  0  0  0  0  0  0  0
    6.9287  -12.1410   28.1845 S   0  0  0  0  0  0  0  0  0  0  0  0
    7.5066  -13.5040   27.1884 C   0  0  0  0  0  0  0  0  0  0  0  0
    7.7021  -13.1222   25.7192 C   0  0  0  0  0  0  0  0  0  0  0  0
    8.3104  -14.3723   25.0710 C   0  0  2  0  0  0  0  0  0  0  0  0
    8.5064  -14.1711   23.6558 N   0  0  0  0  0  0  0  0  0  0  0  0
    7.4684  -15.5567   25.2971 C   0  0  0  0  0  0  0  0  0  0  0  0
    7.8003  -16.5415   26.2110 O   0  0  0  0  0  0  0  0  0  0  0  0
    6.4091  -15.6890   24.6436 O   0  0  0  0  0  0  0  0  0  0  0  0
  2  1  1  6
  3  2  1  0
  3  4  1  0
  4  5  1  0
  5  6  1  0
  7  6  1  0
  8  9  2  0
  8  2  1  0
 11 10  1  6
 11 13  1  0
 11 12  1  0
 13 14  1  6
 14  8  1  0
 15 22  1  0
 15 13  1  0
 16 15  2  0
 17 18  1  0
 18 19  1  0
 19 20  1  0
 21 20  1  6
 21 23  1  0
 21 22  1  0
 23 24  1  0
 25 23  2  0
M  END
$$$$
