KVM.pdb
     RDKit          3D

 25 24  0  0  1  0  0  0  0  0999 V2000
   10.1786  -18.8323   18.9060 N   0  0  0  0  0  0  0  0  0  0  0  0
    9.1366  -18.4987   19.8511 C   0  0  1  0  0  0  0  0  0  0  0  0
    9.0545  -19.5361   20.9732 C   0  0  0  0  0  0  0  0  0  0  0  0
    9.4531  -20.8768   20.4505 C   0  0  0  0  0  0  0  0  0  0  0  0
   10.3621  -21.5976   21.3868 C   0  0  0  0  0  0  0  0  0  0  0  0
   10.7536  -22.9485   20.8382 C   0  0  0  0  0  0  0  0  0  0  0  0
   11.7704  -23.5093   21.7410 N   0  0  0  0  0  0  0  0  0  0  0  0
    9.4011  -17.1633   20.4364 C   0  0  0  0  0  0  0  0  0  0  0  0
   10.5927  -16.7503   20.6141 O   0  0  0  0  0  0  0  0  0  0  0  0
    7.8372  -14.0892   19.0626 C   0  0  0  0  0  0  0  0  0  0  0  0
    7.6210  -14.0992   20.5336 C   0  0  2  0  0  0  0  0  0  0  0  0
    7.5794  -12.6787   21.0561 C   0  0  0  0  0  0  0  0  0  0  0  0
    8.5497  -14.9690   21.3245 C   0  0  2  0  0  0  0  0  0  0  0  0
    8.3296  -16.3327   20.8043 N   0  0  0  0  0  0  0  0  0  0  0  0
    8.2916  -14.9966   22.7748 C   0  0  0  0  0  0  0  0  0  0  0  0
    7.3480  -15.6811   23.2470 O   0  0  0  0  0  0  0  0  0  0  0  0
    5.9998  -10.7128   26.6268 C   0  0  0  0  0  0  0  0  0  0  0  0
    7.3028  -11.8652   27.0511 S   0  0  0  0  0  0  0  0  0  0  0  0
    6.9238  -13.5615   26.6475 C   0  0  0  0  0  0  0  0  0  0  0  0
    7.1592  -13.8852   25.1703 C   0  0  0  0  0  0  0  0  0  0  0  0
    8.6571  -14.2016   25.0762 C   0  0  2  0  0  0  0  0  0  0  0  0
    9.0812  -14.2655   23.6987 N   0  0  0  0  0  0  0  0  0  0  0  0
    8.9826  -15.4624   25.7599 C   0  0  0  0  0  0  0  0  0  0  0  0
    9.5673  -15.4989   27.0137 O   0  0  0  0  0  0  0  0  0  0  0  0
    8.7250  -16.5494   25.1956 O   0  0  0  0  0  0  0  0  0  0  0  0
  2  1  1  6
  3  2  1  0
  3  4  1  0
  4  5  1  0
  5  6  1  0
  7  6  1  0
  8  9  2  0
  8  2  1  0
 11 10  1  6
 11 13  1  0
 11 12  1  0
 13 14  1  6
 14  8  1  0
 15 22  1  0
 15 13  1  0
 16 15  2  0
 17 18  1  0
 18 19  1  0
 19 20  1  0
 21 20  1  6
 21 23  1  0
 21 22  1  0
 23 24  1  0
 25 23  2  0
M  END
$$$$
