KVM.pdb
     RDKit          3D

 25 24  0  0  1  0  0  0  0  0999 V2000
   10.5137  -16.1397   17.7514 N   0  0  0  0  0  0  0  0  0  0  0  0
   11.1503  -16.3487   19.0326 C   0  0  1  0  0  0  0  0  0  0  0  0
   12.1153  -15.2080   19.3634 C   0  0  0  0  0  0  0  0  0  0  0  0
   13.4103  -15.4204   18.6511 C   0  0  0  0  0  0  0  0  0  0  0  0
   14.4246  -14.3881   19.0089 C   0  0  0  0  0  0  0  0  0  0  0  0
   15.7201  -14.6132   18.2671 C   0  0  0  0  0  0  0  0  0  0  0  0
   16.6414  -13.5357   18.6588 N   0  0  0  0  0  0  0  0  0  0  0  0
   10.1201  -16.4426   20.0936 C   0  0  0  0  0  0  0  0  0  0  0  0
    8.9855  -15.8807   19.9566 O   0  0  0  0  0  0  0  0  0  0  0  0
    9.1525  -19.8183   21.5795 C   0  0  0  0  0  0  0  0  0  0  0  0
    9.4840  -18.8442   22.6526 C   0  0  2  0  0  0  0  0  0  0  0  0
    8.7259  -19.1939   23.9157 C   0  0  0  0  0  0  0  0  0  0  0  0
    9.3446  -17.3978   22.2879 C   0  0  2  0  0  0  0  0  0  0  0  0
   10.3883  -17.1592   21.2718 N   0  0  0  0  0  0  0  0  0  0  0  0
    9.5737  -16.4527   23.3947 C   0  0  0  0  0  0  0  0  0  0  0  0
   10.7242  -16.2951   23.8778 O   0  0  0  0  0  0  0  0  0  0  0  0
    5.7571  -11.3978   25.7829 C   0  0  0  0  0  0  0  0  0  0  0  0
    6.9031  -11.8433   27.0845 S   0  0  0  0  0  0  0  0  0  0  0  0
    8.0923  -13.0838   26.6037 C   0  0  0  0  0  0  0  0  0  0  0  0
    7.6693  -13.8553   25.3515 C   0  0  0  0  0  0  0  0  0  0  0  0
    8.8227  -14.8319   25.0892 C   0  0  2  0  0  0  0  0  0  0  0  0
    8.5263  -15.6835   23.9629 N   0  0  0  0  0  0  0  0  0  0  0  0
    9.1108  -15.6520   26.2755 C   0  0  0  0  0  0  0  0  0  0  0  0
   10.0992  -15.3213   27.1860 O   0  0  0  0  0  0  0  0  0  0  0  0
    8.4425  -16.6905   26.4793 O   0  0  0  0  0  0  0  0  0  0  0  0
  2  1  1  6
  3  2  1  0
  3  4  1  0
  4  5  1  0
  5  6  1  0
  7  6  1  0
  8  9  2  0
  8  2  1  0
 11 10  1  6
 11 13  1  0
 11 12  1  0
 13 14  1  6
 14  8  1  0
 15 22  1  0
 15 13  1  0
 16 15  2  0
 17 18  1  0
 18 19  1  0
 19 20  1  0
 21 20  1  1
 21 23  1  0
 21 22  1  0
 23 24  1  0
 25 23  2  0
M  END
$$$$
