KVM.pdb
     RDKit          3D

 25 24  0  0  1  0  0  0  0  0999 V2000
   11.5388  -17.4023   18.5163 N   0  0  0  0  0  0  0  0  0  0  0  0
   10.4888  -17.6954   19.4660 C   0  0  1  0  0  0  0  0  0  0  0  0
   10.8798  -18.8573   20.3820 C   0  0  0  0  0  0  0  0  0  0  0  0
   11.1963  -20.0630   19.5599 C   0  0  0  0  0  0  0  0  0  0  0  0
   11.6583  -21.2077   20.3957 C   0  0  0  0  0  0  0  0  0  0  0  0
   11.9760  -22.4136   19.5447 C   0  0  0  0  0  0  0  0  0  0  0  0
   12.4532  -23.4724   20.4473 N   0  0  0  0  0  0  0  0  0  0  0  0
   10.2094  -16.4950   20.2889 C   0  0  0  0  0  0  0  0  0  0  0  0
   11.1471  -15.7065   20.6367 O   0  0  0  0  0  0  0  0  0  0  0  0
    7.3240  -14.0020   19.5367 C   0  0  0  0  0  0  0  0  0  0  0  0
    7.2735  -14.5164   20.9307 C   0  0  2  0  0  0  0  0  0  0  0  0
    6.6112  -13.4951   21.8312 C   0  0  0  0  0  0  0  0  0  0  0  0
    8.5712  -15.0124   21.4916 C   0  0  2  0  0  0  0  0  0  0  0  0
    8.8950  -16.2134   20.6969 N   0  0  0  0  0  0  0  0  0  0  0  0
    8.5233  -15.4132   22.9085 C   0  0  0  0  0  0  0  0  0  0  0  0
    8.0570  -16.5319   23.2448 O   0  0  0  0  0  0  0  0  0  0  0  0
   11.0834  -14.0100   29.9745 C   0  0  0  0  0  0  0  0  0  0  0  0
    9.7043  -13.4527   28.9778 S   0  0  0  0  0  0  0  0  0  0  0  0
    9.2614  -14.5794   27.6668 C   0  0  0  0  0  0  0  0  0  0  0  0
    9.2053  -13.9002   26.2965 C   0  0  0  0  0  0  0  0  0  0  0  0
    8.8970  -15.0360   25.3127 C   0  0  2  0  0  0  0  0  0  0  0  0
    8.9936  -14.5728   23.9497 N   0  0  0  0  0  0  0  0  0  0  0  0
    7.5637  -15.6073   25.5547 C   0  0  0  0  0  0  0  0  0  0  0  0
    6.4043  -15.0141   25.0864 O   0  0  0  0  0  0  0  0  0  0  0  0
    7.4620  -16.6703   26.2076 O   0  0  0  0  0  0  0  0  0  0  0  0
  2  1  1  6
  3  2  1  0
  3  4  1  0
  4  5  1  0
  5  6  1  0
  7  6  1  0
  8  9  2  0
  8  2  1  0
 11 10  1  6
 11 13  1  0
 11 12  1  0
 13 14  1  6
 14  8  1  0
 15 22  1  0
 15 13  1  0
 16 15  2  0
 17 18  1  0
 18 19  1  0
 19 20  1  0
 21 20  1  1
 21 23  1  0
 21 22  1  0
 23 24  1  0
 25 23  2  0
M  END
$$$$
