KVM.pdb
     RDKit          3D

 25 24  0  0  1  0  0  0  0  0999 V2000
   12.8604  -16.6716   19.6882 N   0  0  0  0  0  0  0  0  0  0  0  0
   11.9353  -17.4050   20.5228 C   0  0  1  0  0  0  0  0  0  0  0  0
   12.6340  -18.5645   21.2365 C   0  0  0  0  0  0  0  0  0  0  0  0
   13.6074  -19.2143   20.3092 C   0  0  0  0  0  0  0  0  0  0  0  0
   14.2343  -20.4257   20.9110 C   0  0  0  0  0  0  0  0  0  0  0  0
   14.4246  -21.5126   19.8807 C   0  0  0  0  0  0  0  0  0  0  0  0
   15.8290  -21.9434   19.9536 N   0  0  0  0  0  0  0  0  0  0  0  0
   11.3418  -16.4953   21.5307 C   0  0  0  0  0  0  0  0  0  0  0  0
   11.9911  -15.4917   21.9704 O   0  0  0  0  0  0  0  0  0  0  0  0
    7.8207  -14.8646   21.3378 C   0  0  0  0  0  0  0  0  0  0  0  0
    8.0069  -15.6816   22.5660 C   0  0  2  0  0  0  0  0  0  0  0  0
    7.1044  -15.1665   23.6671 C   0  0  0  0  0  0  0  0  0  0  0  0
    9.4220  -15.8567   23.0259 C   0  0  2  0  0  0  0  0  0  0  0  0
   10.0449  -16.7339   22.0153 N   0  0  0  0  0  0  0  0  0  0  0  0
    9.5729  -16.5091   24.3382 C   0  0  0  0  0  0  0  0  0  0  0  0
    9.6764  -17.7594   24.4266 O   0  0  0  0  0  0  0  0  0  0  0  0
    8.6493  -12.5224   28.1901 C   0  0  0  0  0  0  0  0  0  0  0  0
   10.4200  -12.7875   28.1672 S   0  0  0  0  0  0  0  0  0  0  0  0
   10.9002  -14.3920   27.5516 C   0  0  0  0  0  0  0  0  0  0  0  0
    9.9279  -15.4996   27.9644 C   0  0  0  0  0  0  0  0  0  0  0  0
    9.9171  -16.4693   26.7759 C   0  0  2  0  0  0  0  0  0  0  0  0
    9.6098  -15.7731   25.5501 N   0  0  0  0  0  0  0  0  0  0  0  0
    8.9567  -17.5631   26.9855 C   0  0  0  0  0  0  0  0  0  0  0  0
    9.2629  -18.6892   27.7295 O   0  0  0  0  0  0  0  0  0  0  0  0
    7.8162  -17.4829   26.4763 O   0  0  0  0  0  0  0  0  0  0  0  0
  2  1  1  1
  3  2  1  0
  3  4  1  0
  4  5  1  0
  5  6  1  0
  7  6  1  0
  8  9  2  0
  8  2  1  0
 11 10  1  6
 11 13  1  0
 11 12  1  0
 13 14  1  6
 14  8  1  0
 15 22  1  0
 15 13  1  0
 16 15  2  0
 17 18  1  0
 18 19  1  0
 19 20  1  0
 21 20  1  1
 21 23  1  0
 21 22  1  0
 23 24  1  0
 25 23  2  0
M  END
$$$$
