NWI.pdb
     RDKit          3D

 31 32  0  0  1  0  0  0  0  0999 V2000
   12.3757  -18.4691   18.0833 N   0  0  0  0  0  0  0  0  0  0  0  0
   12.2041  -17.0690   18.1379 C   0  0  0  0  0  0  0  0  0  0  0  0
   12.5938  -16.3822   17.1732 O   0  0  0  0  0  0  0  0  0  0  0  0
   11.5858  -16.4460   19.2956 C   0  0  0  0  0  0  0  0  0  0  0  0
   11.4128  -17.4121   20.4692 C   0  0  2  0  0  0  0  0  0  0  0  0
   10.4941  -18.4288   20.0144 N   0  0  0  0  0  0  0  0  0  0  0  0
   10.7799  -16.6264   21.5619 C   0  0  0  0  0  0  0  0  0  0  0  0
   11.2626  -15.4860   21.8761 O   0  0  0  0  0  0  0  0  0  0  0  0
    9.6587  -17.0691   22.2884 N   0  0  0  0  0  0  0  0  0  0  0  0
    9.0594  -16.2930   23.4039 C   0  0  1  0  0  0  0  0  0  0  0  0
    7.6139  -16.4744   23.4960 C   0  0  0  0  0  0  0  0  0  0  0  0
    6.8428  -15.6027   24.3875 C   0  0  0  0  0  0  0  0  0  0  0  0
    5.7981  -16.0278   25.2256 C   0  0  0  0  0  0  0  0  0  0  0  0
    5.3602  -14.9834   25.9232 N   0  0  0  0  0  0  0  0  0  0  0  0
    6.0501  -13.8698   25.6041 C   0  0  0  0  0  0  0  0  0  0  0  0
    5.9874  -12.5552   26.0082 C   0  0  0  0  0  0  0  0  0  0  0  0
    6.8306  -11.6296   25.4677 C   0  0  0  0  0  0  0  0  0  0  0  0
    7.7543  -11.9865   24.5153 C   0  0  0  0  0  0  0  0  0  0  0  0
    7.7997  -13.2925   24.1311 C   0  0  0  0  0  0  0  0  0  0  0  0
    6.9766  -14.2755   24.6391 C   0  0  0  0  0  0  0  0  0  0  0  0
    9.9524  -16.3632   24.5416 C   0  0  0  0  0  0  0  0  0  0  0  0
   10.8947  -17.2699   24.5457 O   0  0  0  0  0  0  0  0  0  0  0  0
   10.2137  -12.5734   28.8088 C   0  0  0  0  0  0  0  0  0  0  0  0
   10.5646  -13.5137   27.6822 C   0  0  0  0  0  0  0  0  0  0  0  0
   10.4754  -14.9604   28.0153 C   0  0  2  0  0  0  0  0  0  0  0  0
   11.5276  -15.2388   29.0945 C   0  0  0  0  0  0  0  0  0  0  0  0
   10.7264  -15.9236   26.9133 C   0  0  2  0  0  0  0  0  0  0  0  0
    9.9809  -15.5635   25.7096 N   0  0  0  0  0  0  0  0  0  0  0  0
   10.6836  -17.3440   27.2538 C   0  0  0  0  0  0  0  0  0  0  0  0
    9.4461  -18.0165   27.3885 O   0  0  0  0  0  0  0  0  0  0  0  0
   11.7311  -17.9951   27.4348 O   0  0  0  0  0  0  0  0  0  0  0  0
  2  3  2  0
  2  1  1  0
  4  2  1  0
  5  6  1  6
  5  4  1  0
  7  5  1  0
  8  7  2  0
  9  7  1  0
 10  9  1  0
 10 11  1  1
 11 12  1  0
 12 13  2  0
 13 14  1  0
 15 16  2  0
 15 14  1  0
 17 16  1  0
 18 19  1  0
 18 17  2  0
 19 20  2  0
 20 12  1  0
 20 15  1  0
 21 22  2  0
 21 10  1  0
 23 24  1  0
 24 25  1  0
 25 27  1  0
 25 26  1  1
 27 29  1  0
 27 28  1  6
 28 21  1  0
 29 30  1  0
 31 29  2  0
M  END
$$$$
