NWI.pdb
     RDKit          3D

 31 32  0  0  1  0  0  0  0  0999 V2000
   10.9893  -16.9887   16.4948 N   0  0  0  0  0  0  0  0  0  0  0  0
   11.6396  -16.9431   17.7469 C   0  0  0  0  0  0  0  0  0  0  0  0
   12.7926  -17.4086   17.8375 O   0  0  0  0  0  0  0  0  0  0  0  0
   10.9757  -16.3648   18.9025 C   0  0  0  0  0  0  0  0  0  0  0  0
   11.1053  -17.2301   20.1574 C   0  0  2  0  0  0  0  0  0  0  0  0
   10.3198  -18.4150   19.9056 N   0  0  0  0  0  0  0  0  0  0  0  0
   10.4858  -16.4513   21.2627 C   0  0  0  0  0  0  0  0  0  0  0  0
   10.5872  -15.1778   21.2671 O   0  0  0  0  0  0  0  0  0  0  0  0
    9.7797  -17.0410   22.3279 N   0  0  0  0  0  0  0  0  0  0  0  0
    9.1955  -16.2552   23.4447 C   0  0  1  0  0  0  0  0  0  0  0  0
    7.7460  -16.1232   23.3351 C   0  0  0  0  0  0  0  0  0  0  0  0
    7.0114  -15.4363   24.4018 C   0  0  0  0  0  0  0  0  0  0  0  0
    6.2812  -16.0748   25.4184 C   0  0  0  0  0  0  0  0  0  0  0  0
    5.7870  -15.1477   26.2341 N   0  0  0  0  0  0  0  0  0  0  0  0
    6.1408  -13.9122   25.8267 C   0  0  0  0  0  0  0  0  0  0  0  0
    5.8854  -12.6409   26.2895 C   0  0  0  0  0  0  0  0  0  0  0  0
    6.3791  -11.5564   25.6262 C   0  0  0  0  0  0  0  0  0  0  0  0
    7.1366  -11.7079   24.4900 C   0  0  0  0  0  0  0  0  0  0  0  0
    7.3779  -12.9744   24.0506 C   0  0  0  0  0  0  0  0  0  0  0  0
    6.9088  -14.1107   24.6756 C   0  0  0  0  0  0  0  0  0  0  0  0
    9.8793  -16.6204   24.6677 C   0  0  0  0  0  0  0  0  0  0  0  0
   10.4206  -17.8076   24.7544 O   0  0  0  0  0  0  0  0  0  0  0  0
    9.9125  -13.9838   29.9743 C   0  0  0  0  0  0  0  0  0  0  0  0
    9.7012  -15.0190   28.8970 C   0  0  0  0  0  0  0  0  0  0  0  0
   10.9004  -15.3279   28.0734 C   0  0  2  0  0  0  0  0  0  0  0  0
   11.2915  -14.0364   27.3467 C   0  0  0  0  0  0  0  0  0  0  0  0
   10.7528  -16.3773   27.0332 C   0  0  2  0  0  0  0  0  0  0  0  0
   10.0767  -15.8603   25.8457 N   0  0  0  0  0  0  0  0  0  0  0  0
   10.2849  -17.6882   27.4778 C   0  0  0  0  0  0  0  0  0  0  0  0
    9.0116  -18.1690   27.0909 O   0  0  0  0  0  0  0  0  0  0  0  0
   10.9915  -18.4115   28.2068 O   0  0  0  0  0  0  0  0  0  0  0  0
  2  3  2  0
  2  1  1  0
  4  2  1  0
  5  6  1  6
  5  4  1  0
  7  5  1  0
  8  7  2  0
  9  7  1  0
 10  9  1  0
 10 11  1  1
 11 12  1  0
 12 13  2  0
 13 14  1  0
 15 16  2  0
 15 14  1  0
 17 16  1  0
 18 19  1  0
 18 17  2  0
 19 20  2  0
 20 12  1  0
 20 15  1  0
 21 22  2  0
 21 10  1  0
 23 24  1  0
 24 25  1  0
 25 27  1  0
 25 26  1  6
 27 29  1  0
 27 28  1  6
 28 21  1  0
 29 30  1  0
 31 29  2  0
M  END
$$$$
