NWI.pdb
     RDKit          3D

 31 32  0  0  1  0  0  0  0  0999 V2000
   11.7322  -16.9797   16.7862 N   0  0  0  0  0  0  0  0  0  0  0  0
   12.3316  -16.7375   18.0411 C   0  0  0  0  0  0  0  0  0  0  0  0
   13.5487  -16.9714   18.1758 O   0  0  0  0  0  0  0  0  0  0  0  0
   11.5431  -16.2263   19.1491 C   0  0  0  0  0  0  0  0  0  0  0  0
   11.5988  -17.1275   20.3841 C   0  0  2  0  0  0  0  0  0  0  0  0
   10.8066  -18.2910   20.0628 N   0  0  0  0  0  0  0  0  0  0  0  0
   10.9407  -16.3680   21.4804 C   0  0  0  0  0  0  0  0  0  0  0  0
   11.4030  -15.2261   21.8188 O   0  0  0  0  0  0  0  0  0  0  0  0
    9.8163  -16.8377   22.1848 N   0  0  0  0  0  0  0  0  0  0  0  0
    9.1999  -16.0943   23.3133 C   0  0  1  0  0  0  0  0  0  0  0  0
    7.7440  -16.0468   23.2207 C   0  0  0  0  0  0  0  0  0  0  0  0
    6.9876  -15.3396   24.2585 C   0  0  0  0  0  0  0  0  0  0  0  0
    6.2735  -15.9582   25.2986 C   0  0  0  0  0  0  0  0  0  0  0  0
    5.7512  -15.0142   26.0766 N   0  0  0  0  0  0  0  0  0  0  0  0
    6.0708  -13.7860   25.6212 C   0  0  0  0  0  0  0  0  0  0  0  0
    5.7783  -12.5054   26.0332 C   0  0  0  0  0  0  0  0  0  0  0  0
    6.2426  -11.4342   25.3283 C   0  0  0  0  0  0  0  0  0  0  0  0
    7.0068  -11.6087   24.2000 C   0  0  0  0  0  0  0  0  0  0  0  0
    7.2850  -12.8841   23.8111 C   0  0  0  0  0  0  0  0  0  0  0  0
    6.8468  -14.0077   24.4798 C   0  0  0  0  0  0  0  0  0  0  0  0
    9.9178  -16.4262   24.5262 C   0  0  0  0  0  0  0  0  0  0  0  0
   10.7661  -17.4211   24.5019 O   0  0  0  0  0  0  0  0  0  0  0  0
    9.7995  -13.2377   29.2082 C   0  0  0  0  0  0  0  0  0  0  0  0
   10.2129  -14.0204   27.9862 C   0  0  0  0  0  0  0  0  0  0  0  0
   10.2881  -15.4936   28.1748 C   0  0  2  0  0  0  0  0  0  0  0  0
   11.4211  -15.7620   29.1715 C   0  0  0  0  0  0  0  0  0  0  0  0
   10.5729  -16.3147   26.9708 C   0  0  2  0  0  0  0  0  0  0  0  0
    9.8561  -15.8129   25.8008 N   0  0  0  0  0  0  0  0  0  0  0  0
   10.5302  -17.7661   27.1347 C   0  0  0  0  0  0  0  0  0  0  0  0
    9.3276  -18.4808   26.9231 O   0  0  0  0  0  0  0  0  0  0  0  0
   11.5468  -18.4075   27.4649 O   0  0  0  0  0  0  0  0  0  0  0  0
  2  3  2  0
  2  1  1  0
  4  2  1  0
  5  6  1  6
  5  4  1  0
  7  5  1  0
  8  7  2  0
  9  7  1  0
 10  9  1  0
 10 11  1  1
 11 12  1  0
 12 13  2  0
 13 14  1  0
 15 16  2  0
 15 14  1  0
 17 16  1  0
 18 19  1  0
 18 17  2  0
 19 20  2  0
 20 12  1  0
 20 15  1  0
 21 22  2  0
 21 10  1  0
 23 24  1  0
 24 25  1  0
 25 27  1  0
 25 26  1  1
 27 29  1  0
 27 28  1  6
 28 21  1  0
 29 30  1  0
 31 29  2  0
M  END
$$$$
