NWI.pdb
     RDKit          3D

 31 32  0  0  1  0  0  0  0  0999 V2000
   13.0056  -18.0928   18.3107 N   0  0  0  0  0  0  0  0  0  0  0  0
   12.8602  -16.6997   18.4871 C   0  0  0  0  0  0  0  0  0  0  0  0
   13.3441  -15.9361   17.6285 O   0  0  0  0  0  0  0  0  0  0  0  0
   12.1607  -16.1717   19.6457 C   0  0  0  0  0  0  0  0  0  0  0  0
   11.7367  -17.2616   20.6320 C   0  0  2  0  0  0  0  0  0  0  0  0
   10.7128  -18.0275   19.9614 N   0  0  0  0  0  0  0  0  0  0  0  0
   11.1425  -16.5557   21.7984 C   0  0  0  0  0  0  0  0  0  0  0  0
   11.8271  -15.6672   22.4101 O   0  0  0  0  0  0  0  0  0  0  0  0
    9.8455  -16.8099   22.2822 N   0  0  0  0  0  0  0  0  0  0  0  0
    9.2544  -16.0816   23.4338 C   0  0  1  0  0  0  0  0  0  0  0  0
    7.8127  -15.8987   23.2973 C   0  0  0  0  0  0  0  0  0  0  0  0
    7.0720  -15.2485   24.3826 C   0  0  0  0  0  0  0  0  0  0  0  0
    6.2940  -15.9182   25.3421 C   0  0  0  0  0  0  0  0  0  0  0  0
    5.8082  -15.0223   26.1968 N   0  0  0  0  0  0  0  0  0  0  0  0
    6.2128  -13.7784   25.8699 C   0  0  0  0  0  0  0  0  0  0  0  0
    5.9862  -12.5274   26.3980 C   0  0  0  0  0  0  0  0  0  0  0  0
    6.5327  -11.4246   25.8106 C   0  0  0  0  0  0  0  0  0  0  0  0
    7.3156  -11.5374   24.6872 C   0  0  0  0  0  0  0  0  0  0  0  0
    7.5275  -12.7846   24.1822 C   0  0  0  0  0  0  0  0  0  0  0  0
    7.0050  -13.9377   24.7291 C   0  0  0  0  0  0  0  0  0  0  0  0
    9.8943  -16.5470   24.6466 C   0  0  0  0  0  0  0  0  0  0  0  0
   10.3372  -17.7765   24.6913 O   0  0  0  0  0  0  0  0  0  0  0  0
   10.4634  -13.4109   29.3631 C   0  0  0  0  0  0  0  0  0  0  0  0
   10.0385  -14.7278   28.7615 C   0  0  0  0  0  0  0  0  0  0  0  0
   11.1123  -15.4753   28.0543 C   0  0  2  0  0  0  0  0  0  0  0  0
   11.9616  -14.4418   27.3062 C   0  0  0  0  0  0  0  0  0  0  0  0
   10.6848  -16.4847   27.0525 C   0  0  2  0  0  0  0  0  0  0  0  0
   10.1409  -15.8503   25.8542 N   0  0  0  0  0  0  0  0  0  0  0  0
    9.9077  -17.6191   27.5469 C   0  0  0  0  0  0  0  0  0  0  0  0
   10.5214  -18.6304   28.3232 O   0  0  0  0  0  0  0  0  0  0  0  0
    8.6910  -17.7247   27.2968 O   0  0  0  0  0  0  0  0  0  0  0  0
  2  3  2  0
  2  1  1  0
  4  2  1  0
  5  6  1  6
  5  4  1  0
  7  5  1  0
  8  7  2  0
  9  7  1  0
 10  9  1  0
 10 11  1  1
 11 12  1  0
 12 13  2  0
 13 14  1  0
 15 16  2  0
 15 14  1  0
 17 16  1  0
 18 19  1  0
 18 17  2  0
 19 20  2  0
 20 12  1  0
 20 15  1  0
 21 22  2  0
 21 10  1  0
 23 24  1  0
 24 25  1  0
 25 27  1  0
 25 26  1  6
 27 29  1  0
 27 28  1  6
 28 21  1  0
 29 30  1  0
 31 29  2  0
M  END
$$$$
