NWI.pdb
     RDKit          3D

 31 32  0  0  1  0  0  0  0  0999 V2000
   13.1041  -17.7106   17.6311 N   0  0  0  0  0  0  0  0  0  0  0  0
   13.2749  -17.9564   19.0106 C   0  0  0  0  0  0  0  0  0  0  0  0
   14.0688  -18.8506   19.3634 O   0  0  0  0  0  0  0  0  0  0  0  0
   12.5394  -17.1812   19.9948 C   0  0  0  0  0  0  0  0  0  0  0  0
   11.8005  -18.0560   21.0094 C   0  0  2  0  0  0  0  0  0  0  0  0
   10.7247  -18.6862   20.2813 N   0  0  0  0  0  0  0  0  0  0  0  0
   11.2343  -17.1262   22.0226 C   0  0  0  0  0  0  0  0  0  0  0  0
   11.8677  -16.0564   22.3166 O   0  0  0  0  0  0  0  0  0  0  0  0
   10.0183  -17.3550   22.6934 N   0  0  0  0  0  0  0  0  0  0  0  0
    9.4574  -16.4131   23.6955 C   0  0  1  0  0  0  0  0  0  0  0  0
    8.0359  -16.1566   23.4853 C   0  0  0  0  0  0  0  0  0  0  0  0
    7.5514  -14.7731   23.5081 C   0  0  0  0  0  0  0  0  0  0  0  0
    7.4313  -13.9422   22.3814 C   0  0  0  0  0  0  0  0  0  0  0  0
    6.9177  -12.7767   22.7648 N   0  0  0  0  0  0  0  0  0  0  0  0
    6.6827  -12.7694   24.0924 C   0  0  0  0  0  0  0  0  0  0  0  0
    6.1895  -11.8330   24.9730 C   0  0  0  0  0  0  0  0  0  0  0  0
    6.0904  -12.1246   26.3014 C   0  0  0  0  0  0  0  0  0  0  0  0
    6.4775  -13.3505   26.7863 C   0  0  0  0  0  0  0  0  0  0  0  0
    6.9614  -14.2622   25.8975 C   0  0  0  0  0  0  0  0  0  0  0  0
    7.0858  -14.0295   24.5439 C   0  0  0  0  0  0  0  0  0  0  0  0
   10.0365  -16.7205   24.9866 C   0  0  0  0  0  0  0  0  0  0  0  0
   10.3743  -17.9570   25.2453 O   0  0  0  0  0  0  0  0  0  0  0  0
   10.1059  -13.9023   30.2910 C   0  0  0  0  0  0  0  0  0  0  0  0
    9.9263  -15.0492   29.3271 C   0  0  0  0  0  0  0  0  0  0  0  0
   11.0033  -15.1963   28.3122 C   0  0  2  0  0  0  0  0  0  0  0  0
   11.0280  -13.9017   27.4921 C   0  0  0  0  0  0  0  0  0  0  0  0
   10.8702  -16.3144   27.3440 C   0  0  2  0  0  0  0  0  0  0  0  0
   10.3207  -15.8553   26.0706 N   0  0  0  0  0  0  0  0  0  0  0  0
   10.2884  -17.5576   27.8452 C   0  0  0  0  0  0  0  0  0  0  0  0
    8.9866  -17.9529   27.4565 O   0  0  0  0  0  0  0  0  0  0  0  0
   10.9206  -18.2965   28.6252 O   0  0  0  0  0  0  0  0  0  0  0  0
  2  3  2  0
  2  1  1  0
  4  2  1  0
  5  6  1  6
  5  4  1  0
  7  5  1  0
  8  7  2  0
  9  7  1  0
 10  9  1  0
 10 11  1  1
 11 12  1  0
 12 13  2  0
 13 14  1  0
 15 16  2  0
 15 14  1  0
 17 16  1  0
 18 19  1  0
 18 17  2  0
 19 20  2  0
 20 12  1  0
 20 15  1  0
 21 22  2  0
 21 10  1  0
 23 24  1  0
 24 25  1  0
 25 27  1  0
 25 26  1  6
 27 29  1  0
 27 28  1  6
 28 21  1  0
 29 30  1  0
 31 29  2  0
M  END
$$$$
