NWI.pdb
     RDKit          3D

 31 32  0  0  1  0  0  0  0  0999 V2000
   12.9489  -16.3352   17.6522 N   0  0  0  0  0  0  0  0  0  0  0  0
   13.2285  -16.8362   18.9419 C   0  0  0  0  0  0  0  0  0  0  0  0
   14.1428  -17.6738   19.0712 O   0  0  0  0  0  0  0  0  0  0  0  0
   12.4646  -16.3823   20.0914 C   0  0  0  0  0  0  0  0  0  0  0  0
   11.9191  -17.5356   20.9357 C   0  0  2  0  0  0  0  0  0  0  0  0
   10.9277  -18.1927   20.1172 N   0  0  0  0  0  0  0  0  0  0  0  0
   11.2553  -16.9102   22.1105 C   0  0  0  0  0  0  0  0  0  0  0  0
   11.9255  -16.1310   22.8694 O   0  0  0  0  0  0  0  0  0  0  0  0
    9.9061  -17.1273   22.4473 N   0  0  0  0  0  0  0  0  0  0  0  0
    9.2725  -16.5517   23.6611 C   0  0  1  0  0  0  0  0  0  0  0  0
    7.8559  -16.2591   23.4652 C   0  0  0  0  0  0  0  0  0  0  0  0
    7.4579  -15.3687   22.3706 C   0  0  0  0  0  0  0  0  0  0  0  0
    6.9355  -15.7914   21.1366 C   0  0  0  0  0  0  0  0  0  0  0  0
    6.6438  -14.7178   20.4076 N   0  0  0  0  0  0  0  0  0  0  0  0
    6.9407  -13.5869   21.0788 C   0  0  0  0  0  0  0  0  0  0  0  0
    6.8536  -12.2454   20.7816 C   0  0  0  0  0  0  0  0  0  0  0  0
    7.2675  -11.3131   21.6867 C   0  0  0  0  0  0  0  0  0  0  0  0
    7.7765  -11.6896   22.9060 C   0  0  0  0  0  0  0  0  0  0  0  0
    7.8526  -13.0218   23.1796 C   0  0  0  0  0  0  0  0  0  0  0  0
    7.4506  -14.0127   22.3088 C   0  0  0  0  0  0  0  0  0  0  0  0
    9.7981  -17.2398   24.8217 C   0  0  0  0  0  0  0  0  0  0  0  0
   10.8557  -17.9954   24.6785 O   0  0  0  0  0  0  0  0  0  0  0  0
   10.4967  -13.0548   28.5855 C   0  0  0  0  0  0  0  0  0  0  0  0
   10.8682  -14.4919   28.3142 C   0  0  0  0  0  0  0  0  0  0  0  0
    9.9992  -15.1949   27.3332 C   0  0  2  0  0  0  0  0  0  0  0  0
    8.5478  -14.8762   27.7091 C   0  0  0  0  0  0  0  0  0  0  0  0
   10.1109  -16.6743   27.2711 C   0  0  2  0  0  0  0  0  0  0  0  0
    9.3364  -17.2219   26.1599 N   0  0  0  0  0  0  0  0  0  0  0  0
    9.9672  -17.4019   28.5302 C   0  0  0  0  0  0  0  0  0  0  0  0
   11.0391  -17.4682   29.4514 O   0  0  0  0  0  0  0  0  0  0  0  0
    8.9025  -17.9809   28.8220 O   0  0  0  0  0  0  0  0  0  0  0  0
  2  3  2  0
  2  1  1  0
  4  2  1  0
  5  6  1  6
  5  4  1  0
  7  5  1  0
  8  7  2  0
  9  7  1  0
 10  9  1  0
 10 11  1  6
 11 12  1  0
 12 13  2  0
 13 14  1  0
 15 16  2  0
 15 14  1  0
 17 16  1  0
 18 19  1  0
 18 17  2  0
 19 20  2  0
 20 12  1  0
 20 15  1  0
 21 22  2  0
 21 10  1  0
 23 24  1  0
 24 25  1  0
 25 27  1  0
 25 26  1  1
 27 29  1  0
 27 28  1  6
 28 21  1  0
 29 30  1  0
 31 29  2  0
M  END
$$$$
