NWI.pdb
     RDKit          3D

 31 32  0  0  1  0  0  0  0  0999 V2000
   12.6011  -16.5743   16.9479 N   0  0  0  0  0  0  0  0  0  0  0  0
   12.9473  -16.7539   18.3046 C   0  0  0  0  0  0  0  0  0  0  0  0
   13.9471  -17.4465   18.5784 O   0  0  0  0  0  0  0  0  0  0  0  0
   12.1525  -16.1427   19.3560 C   0  0  0  0  0  0  0  0  0  0  0  0
   11.5386  -17.1691   20.3101 C   0  0  2  0  0  0  0  0  0  0  0  0
   10.5563  -17.8919   19.5373 N   0  0  0  0  0  0  0  0  0  0  0  0
   10.8537  -16.3871   21.3738 C   0  0  0  0  0  0  0  0  0  0  0  0
   11.0585  -15.1289   21.4588 O   0  0  0  0  0  0  0  0  0  0  0  0
    9.9752  -16.9576   22.3139 N   0  0  0  0  0  0  0  0  0  0  0  0
    9.3020  -16.1671   23.3758 C   0  0  1  0  0  0  0  0  0  0  0  0
    7.8514  -16.1400   23.2160 C   0  0  0  0  0  0  0  0  0  0  0  0
    7.0344  -15.4857   24.2426 C   0  0  0  0  0  0  0  0  0  0  0  0
    6.2353  -16.1551   25.1848 C   0  0  0  0  0  0  0  0  0  0  0  0
    5.6751  -15.2528   25.9855 N   0  0  0  0  0  0  0  0  0  0  0  0
    6.0491  -14.0049   25.6381 C   0  0  0  0  0  0  0  0  0  0  0  0
    5.7507  -12.7479   26.1137 C   0  0  0  0  0  0  0  0  0  0  0  0
    6.2844  -11.6434   25.5178 C   0  0  0  0  0  0  0  0  0  0  0  0
    7.1255  -11.7605   24.4377 C   0  0  0  0  0  0  0  0  0  0  0  0
    7.4080  -13.0135   23.9844 C   0  0  0  0  0  0  0  0  0  0  0  0
    6.9021  -14.1685   24.5427 C   0  0  0  0  0  0  0  0  0  0  0  0
    9.9672  -16.4320   24.6345 C   0  0  0  0  0  0  0  0  0  0  0  0
   10.5885  -17.5722   24.7890 O   0  0  0  0  0  0  0  0  0  0  0  0
   10.1959  -12.6740   28.8780 C   0  0  0  0  0  0  0  0  0  0  0  0
   10.5780  -13.6492   27.7918 C   0  0  0  0  0  0  0  0  0  0  0  0
   10.3958  -15.0840   28.1379 C   0  0  2  0  0  0  0  0  0  0  0  0
   11.3975  -15.4084   29.2518 C   0  0  0  0  0  0  0  0  0  0  0  0
   10.6239  -16.0739   27.0548 C   0  0  2  0  0  0  0  0  0  0  0  0
   10.0688  -15.6125   25.7846 N   0  0  0  0  0  0  0  0  0  0  0  0
   10.3450  -17.4736   27.3685 C   0  0  0  0  0  0  0  0  0  0  0  0
    9.0348  -17.9933   27.2447 O   0  0  0  0  0  0  0  0  0  0  0  0
   11.2495  -18.2405   27.7527 O   0  0  0  0  0  0  0  0  0  0  0  0
  2  3  2  0
  2  1  1  0
  4  2  1  0
  5  6  1  6
  5  4  1  0
  7  5  1  0
  8  7  2  0
  9  7  1  0
 10  9  1  0
 10 11  1  1
 11 12  1  0
 12 13  2  0
 13 14  1  0
 15 16  2  0
 15 14  1  0
 17 16  1  0
 18 19  1  0
 18 17  2  0
 19 20  2  0
 20 12  1  0
 20 15  1  0
 21 22  2  0
 21 10  1  0
 23 24  1  0
 24 25  1  0
 25 27  1  0
 25 26  1  1
 27 29  1  0
 27 28  1  6
 28 21  1  0
 29 30  1  0
 31 29  2  0
M  END
$$$$
