NWI.pdb
     RDKit          3D

 31 32  0  0  1  0  0  0  0  0999 V2000
   13.0861  -16.4025   17.1136 N   0  0  0  0  0  0  0  0  0  0  0  0
   11.9258  -17.0396   17.6039 C   0  0  0  0  0  0  0  0  0  0  0  0
   11.5658  -18.1108   17.0774 O   0  0  0  0  0  0  0  0  0  0  0  0
   11.1704  -16.4558   18.6990 C   0  0  0  0  0  0  0  0  0  0  0  0
   11.3614  -17.2053   20.0190 C   0  0  2  0  0  0  0  0  0  0  0  0
   10.6434  -18.4497   19.8766 N   0  0  0  0  0  0  0  0  0  0  0  0
   10.7082  -16.3740   21.0650 C   0  0  0  0  0  0  0  0  0  0  0  0
   11.1282  -15.1860   21.2760 O   0  0  0  0  0  0  0  0  0  0  0  0
    9.6332  -16.8226   21.8549 N   0  0  0  0  0  0  0  0  0  0  0  0
    9.0338  -16.0086   22.9431 C   0  0  1  0  0  0  0  0  0  0  0  0
    7.5750  -16.0582   22.9378 C   0  0  0  0  0  0  0  0  0  0  0  0
    6.8358  -15.3728   24.0023 C   0  0  0  0  0  0  0  0  0  0  0  0
    6.0248  -16.0075   24.9583 C   0  0  0  0  0  0  0  0  0  0  0  0
    5.5508  -15.0868   25.7930 N   0  0  0  0  0  0  0  0  0  0  0  0
    5.9948  -13.8592   25.4558 C   0  0  0  0  0  0  0  0  0  0  0  0
    5.7948  -12.5952   25.9634 C   0  0  0  0  0  0  0  0  0  0  0  0
    6.3807  -11.5161   25.3700 C   0  0  0  0  0  0  0  0  0  0  0  0
    7.1775  -11.6660   24.2608 C   0  0  0  0  0  0  0  0  0  0  0  0
    7.3626  -12.9254   23.7761 C   0  0  0  0  0  0  0  0  0  0  0  0
    6.7999  -14.0560   24.3301 C   0  0  0  0  0  0  0  0  0  0  0  0
    9.8393  -16.1742   24.1350 C   0  0  0  0  0  0  0  0  0  0  0  0
   10.6186  -17.2203   24.2263 O   0  0  0  0  0  0  0  0  0  0  0  0
   11.1013  -13.8315   29.8546 C   0  0  0  0  0  0  0  0  0  0  0  0
   11.2888  -14.8958   28.8016 C   0  0  0  0  0  0  0  0  0  0  0  0
   10.5631  -14.6573   27.5256 C   0  0  2  0  0  0  0  0  0  0  0  0
    9.0826  -14.4752   27.8778 C   0  0  0  0  0  0  0  0  0  0  0  0
   10.6310  -15.7289   26.4998 C   0  0  2  0  0  0  0  0  0  0  0  0
    9.9343  -15.3410   25.2757 N   0  0  0  0  0  0  0  0  0  0  0  0
   10.3591  -17.0926   26.9490 C   0  0  0  0  0  0  0  0  0  0  0  0
   11.4041  -17.9144   27.4332 O   0  0  0  0  0  0  0  0  0  0  0  0
    9.2057  -17.5642   26.9154 O   0  0  0  0  0  0  0  0  0  0  0  0
  2  3  2  0
  2  1  1  0
  4  2  1  0
  5  6  1  6
  5  4  1  0
  7  5  1  0
  8  7  2  0
  9  7  1  0
 10  9  1  0
 10 11  1  1
 11 12  1  0
 12 13  2  0
 13 14  1  0
 15 16  2  0
 15 14  1  0
 17 16  1  0
 18 19  1  0
 18 17  2  0
 19 20  2  0
 20 12  1  0
 20 15  1  0
 21 22  2  0
 21 10  1  0
 23 24  1  0
 24 25  1  0
 25 27  1  0
 25 26  1  1
 27 29  1  0
 27 28  1  6
 28 21  1  0
 29 30  1  0
 31 29  2  0
M  END
$$$$
