NWI.pdb
     RDKit          3D

 31 32  0  0  1  0  0  0  0  0999 V2000
   13.1479  -18.2528   18.3766 N   0  0  0  0  0  0  0  0  0  0  0  0
   13.4592  -16.9487   18.8182 C   0  0  0  0  0  0  0  0  0  0  0  0
   14.3958  -16.3393   18.2652 O   0  0  0  0  0  0  0  0  0  0  0  0
   12.7015  -16.3336   19.8944 C   0  0  0  0  0  0  0  0  0  0  0  0
   11.7096  -17.2968   20.5492 C   0  0  2  0  0  0  0  0  0  0  0  0
   10.7033  -17.5701   19.5506 N   0  0  0  0  0  0  0  0  0  0  0  0
   11.0949  -16.5520   21.6803 C   0  0  0  0  0  0  0  0  0  0  0  0
   11.6224  -15.4558   22.0707 O   0  0  0  0  0  0  0  0  0  0  0  0
    9.9440  -16.9876   22.3633 N   0  0  0  0  0  0  0  0  0  0  0  0
    9.3025  -16.2036   23.4495 C   0  0  1  0  0  0  0  0  0  0  0  0
    7.8507  -16.1432   23.3110 C   0  0  0  0  0  0  0  0  0  0  0  0
    7.0706  -15.4069   24.3103 C   0  0  0  0  0  0  0  0  0  0  0  0
    6.2481  -15.9961   25.2854 C   0  0  0  0  0  0  0  0  0  0  0  0
    5.7342  -15.0341   26.0466 N   0  0  0  0  0  0  0  0  0  0  0  0
    6.1619  -13.8214   25.6413 C   0  0  0  0  0  0  0  0  0  0  0  0
    5.9234  -12.5319   26.0606 C   0  0  0  0  0  0  0  0  0  0  0  0
    6.5025  -11.4809   25.4128 C   0  0  0  0  0  0  0  0  0  0  0  0
    7.3306  -11.6846   24.3355 C   0  0  0  0  0  0  0  0  0  0  0  0
    7.5535  -12.9683   23.9384 C   0  0  0  0  0  0  0  0  0  0  0  0
    6.9996  -14.0728   24.5508 C   0  0  0  0  0  0  0  0  0  0  0  0
    9.9794  -16.5064   24.6933 C   0  0  0  0  0  0  0  0  0  0  0  0
   10.7999  -17.5239   24.7305 O   0  0  0  0  0  0  0  0  0  0  0  0
    9.3154  -13.3848   29.3593 C   0  0  0  0  0  0  0  0  0  0  0  0
    9.9297  -14.0631   28.1596 C   0  0  0  0  0  0  0  0  0  0  0  0
   10.2185  -15.5119   28.3317 C   0  0  2  0  0  0  0  0  0  0  0  0
   11.3570  -15.6252   29.3515 C   0  0  0  0  0  0  0  0  0  0  0  0
   10.6479  -16.2626   27.1246 C   0  0  2  0  0  0  0  0  0  0  0  0
    9.9021  -15.8416   25.9409 N   0  0  0  0  0  0  0  0  0  0  0  0
   10.8011  -17.7090   27.2650 C   0  0  0  0  0  0  0  0  0  0  0  0
    9.6940  -18.5721   27.0886 O   0  0  0  0  0  0  0  0  0  0  0  0
   11.9052  -18.2159   27.5439 O   0  0  0  0  0  0  0  0  0  0  0  0
  2  3  2  0
  2  1  1  0
  4  2  1  0
  5  6  1  6
  5  4  1  0
  7  5  1  0
  8  7  2  0
  9  7  1  0
 10  9  1  0
 10 11  1  1
 11 12  1  0
 12 13  2  0
 13 14  1  0
 15 16  2  0
 15 14  1  0
 17 16  1  0
 18 19  1  0
 18 17  2  0
 19 20  2  0
 20 12  1  0
 20 15  1  0
 21 22  2  0
 21 10  1  0
 23 24  1  0
 24 25  1  0
 25 27  1  0
 25 26  1  1
 27 29  1  0
 27 28  1  6
 28 21  1  0
 29 30  1  0
 31 29  2  0
M  END
$$$$
