NWI.pdb
     RDKit          3D

 31 32  0  0  1  0  0  0  0  0999 V2000
   12.6766  -16.2977   17.6457 N   0  0  0  0  0  0  0  0  0  0  0  0
   11.4012  -16.7625   18.0330 C   0  0  0  0  0  0  0  0  0  0  0  0
   10.8078  -17.5667   17.2877 O   0  0  0  0  0  0  0  0  0  0  0  0
   10.7970  -16.3109   19.2746 C   0  0  0  0  0  0  0  0  0  0  0  0
   11.0698  -17.2555   20.4466 C   0  0  2  0  0  0  0  0  0  0  0  0
   10.2836  -18.4398   20.1935 N   0  0  0  0  0  0  0  0  0  0  0  0
   10.5531  -16.5687   21.6604 C   0  0  0  0  0  0  0  0  0  0  0  0
   11.0646  -15.4534   22.0165 O   0  0  0  0  0  0  0  0  0  0  0  0
    9.5139  -17.0806   22.4597 N   0  0  0  0  0  0  0  0  0  0  0  0
    8.9962  -16.3777   23.6614 C   0  0  1  0  0  0  0  0  0  0  0  0
    7.5838  -16.6550   23.9042 C   0  0  0  0  0  0  0  0  0  0  0  0
    6.7732  -15.6561   24.6075 C   0  0  0  0  0  0  0  0  0  0  0  0
    5.4488  -15.8486   25.0355 C   0  0  0  0  0  0  0  0  0  0  0  0
    5.0451  -14.7549   25.6757 N   0  0  0  0  0  0  0  0  0  0  0  0
    6.0233  -13.8276   25.7055 C   0  0  0  0  0  0  0  0  0  0  0  0
    6.1182  -12.5509   26.2118 C   0  0  0  0  0  0  0  0  0  0  0  0
    7.2687  -11.8349   26.0584 C   0  0  0  0  0  0  0  0  0  0  0  0
    8.3502  -12.3684   25.4001 C   0  0  0  0  0  0  0  0  0  0  0  0
    8.2349  -13.6334   24.9082 C   0  0  0  0  0  0  0  0  0  0  0  0
    7.1011  -14.4087   25.0309 C   0  0  0  0  0  0  0  0  0  0  0  0
   10.0129  -16.4229   24.6914 C   0  0  0  0  0  0  0  0  0  0  0  0
   11.0504  -17.1994   24.5164 O   0  0  0  0  0  0  0  0  0  0  0  0
   10.2974  -13.0299   29.2841 C   0  0  0  0  0  0  0  0  0  0  0  0
   10.6320  -13.8355   28.0529 C   0  0  0  0  0  0  0  0  0  0  0  0
   10.6519  -15.3097   28.2483 C   0  0  2  0  0  0  0  0  0  0  0  0
   11.7770  -15.6161   29.2430 C   0  0  0  0  0  0  0  0  0  0  0  0
   10.9019  -16.1465   27.0474 C   0  0  2  0  0  0  0  0  0  0  0  0
   10.0771  -15.7208   25.9191 N   0  0  0  0  0  0  0  0  0  0  0  0
   10.9581  -17.5927   27.2490 C   0  0  0  0  0  0  0  0  0  0  0  0
   12.2018  -18.2564   27.3699 O   0  0  0  0  0  0  0  0  0  0  0  0
    9.9168  -18.2747   27.3175 O   0  0  0  0  0  0  0  0  0  0  0  0
  2  3  2  0
  2  1  1  0
  4  2  1  0
  5  6  1  6
  5  4  1  0
  7  5  1  0
  8  7  2  0
  9  7  1  0
 10  9  1  0
 10 11  1  1
 11 12  1  0
 12 13  2  0
 13 14  1  0
 15 16  2  0
 15 14  1  0
 17 16  1  0
 18 19  1  0
 18 17  2  0
 19 20  2  0
 20 12  1  0
 20 15  1  0
 21 22  2  0
 21 10  1  0
 23 24  1  0
 24 25  1  0
 25 27  1  0
 25 26  1  1
 27 29  1  0
 27 28  1  6
 28 21  1  0
 29 30  1  0
 31 29  2  0
M  END
$$$$
