NWI.pdb
     RDKit          3D

 31 32  0  0  1  0  0  0  0  0999 V2000
   13.2820  -19.0859   18.6967 N   0  0  0  0  0  0  0  0  0  0  0  0
   12.6083  -17.8964   18.3445 C   0  0  0  0  0  0  0  0  0  0  0  0
   12.7653  -17.4400   17.1950 O   0  0  0  0  0  0  0  0  0  0  0  0
   11.7512  -17.2220   19.3043 C   0  0  0  0  0  0  0  0  0  0  0  0
   11.8530  -17.8142   20.7112 C   0  0  2  0  0  0  0  0  0  0  0  0
   11.1244  -19.0601   20.6714 N   0  0  0  0  0  0  0  0  0  0  0  0
   11.1535  -16.8606   21.6131 C   0  0  0  0  0  0  0  0  0  0  0  0
   11.5795  -15.6599   21.7094 O   0  0  0  0  0  0  0  0  0  0  0  0
   10.0276  -17.2042   22.3845 N   0  0  0  0  0  0  0  0  0  0  0  0
    9.3766  -16.2620   23.3302 C   0  0  1  0  0  0  0  0  0  0  0  0
    7.9506  -16.1007   23.0637 C   0  0  0  0  0  0  0  0  0  0  0  0
    7.3543  -14.7653   23.1652 C   0  0  0  0  0  0  0  0  0  0  0  0
    7.0887  -13.9160   22.0777 C   0  0  0  0  0  0  0  0  0  0  0  0
    6.5061  -12.8105   22.5333 N   0  0  0  0  0  0  0  0  0  0  0  0
    6.3619  -12.8612   23.8729 C   0  0  0  0  0  0  0  0  0  0  0  0
    5.8527  -11.9962   24.8152 C   0  0  0  0  0  0  0  0  0  0  0  0
    5.8687  -12.3330   26.1365 C   0  0  0  0  0  0  0  0  0  0  0  0
    6.3895  -13.5342   26.5531 C   0  0  0  0  0  0  0  0  0  0  0  0
    6.8868  -14.3752   25.6040 C   0  0  0  0  0  0  0  0  0  0  0  0
    6.8992  -14.0943   24.2539 C   0  0  0  0  0  0  0  0  0  0  0  0
    9.9273  -16.4857   24.6506 C   0  0  0  0  0  0  0  0  0  0  0  0
   10.6676  -17.5448   24.8515 O   0  0  0  0  0  0  0  0  0  0  0  0
   10.4764  -14.1495   30.4804 C   0  0  0  0  0  0  0  0  0  0  0  0
   10.8822  -15.1486   29.4250 C   0  0  0  0  0  0  0  0  0  0  0  0
   10.2496  -14.9532   28.0932 C   0  0  2  0  0  0  0  0  0  0  0  0
    8.7384  -14.8451   28.3249 C   0  0  0  0  0  0  0  0  0  0  0  0
   10.4532  -16.0247   27.0855 C   0  0  2  0  0  0  0  0  0  0  0  0
    9.7969  -15.7001   25.8213 N   0  0  0  0  0  0  0  0  0  0  0  0
   10.2602  -17.4014   27.5357 C   0  0  0  0  0  0  0  0  0  0  0  0
    9.1090  -18.1303   27.1545 O   0  0  0  0  0  0  0  0  0  0  0  0
   11.1000  -17.9648   28.2646 O   0  0  0  0  0  0  0  0  0  0  0  0
  2  3  2  0
  2  1  1  0
  4  2  1  0
  5  6  1  6
  5  4  1  0
  7  5  1  0
  8  7  2  0
  9  7  1  0
 10  9  1  0
 10 11  1  1
 11 12  1  0
 12 13  2  0
 13 14  1  0
 15 16  2  0
 15 14  1  0
 17 16  1  0
 18 19  1  0
 18 17  2  0
 19 20  2  0
 20 12  1  0
 20 15  1  0
 21 22  2  0
 21 10  1  0
 23 24  1  0
 24 25  1  0
 25 27  1  0
 25 26  1  1
 27 29  1  0
 27 28  1  6
 28 21  1  0
 29 30  1  0
 31 29  2  0
M  END
$$$$
