NWI.pdb
     RDKit          3D

 31 32  0  0  1  0  0  0  0  0999 V2000
   12.4151  -16.9197   17.0490 N   0  0  0  0  0  0  0  0  0  0  0  0
   12.8700  -16.7417   18.3734 C   0  0  0  0  0  0  0  0  0  0  0  0
   14.0464  -17.0511   18.6467 O   0  0  0  0  0  0  0  0  0  0  0  0
   11.9829  -16.2087   19.3929 C   0  0  0  0  0  0  0  0  0  0  0  0
   11.7858  -17.1666   20.5695 C   0  0  2  0  0  0  0  0  0  0  0  0
   10.9372  -18.2272   20.0802 N   0  0  0  0  0  0  0  0  0  0  0  0
   11.0611  -16.3951   21.6142 C   0  0  0  0  0  0  0  0  0  0  0  0
   11.5459  -15.2872   22.0263 O   0  0  0  0  0  0  0  0  0  0  0  0
    9.8486  -16.8171   22.1908 N   0  0  0  0  0  0  0  0  0  0  0  0
    9.1730  -16.0767   23.2869 C   0  0  1  0  0  0  0  0  0  0  0  0
    7.7284  -15.9926   23.0953 C   0  0  0  0  0  0  0  0  0  0  0  0
    6.9140  -15.3180   24.1106 C   0  0  0  0  0  0  0  0  0  0  0  0
    6.0809  -15.9666   25.0378 C   0  0  0  0  0  0  0  0  0  0  0  0
    5.5339  -15.0507   25.8321 N   0  0  0  0  0  0  0  0  0  0  0  0
    5.9490  -13.8132   25.4947 C   0  0  0  0  0  0  0  0  0  0  0  0
    5.6790  -12.5493   25.9693 C   0  0  0  0  0  0  0  0  0  0  0  0
    6.2537  -11.4591   25.3854 C   0  0  0  0  0  0  0  0  0  0  0  0
    7.1084  -11.5973   24.3186 C   0  0  0  0  0  0  0  0  0  0  0  0
    7.3623  -12.8567   23.8661 C   0  0  0  0  0  0  0  0  0  0  0  0
    6.8145  -13.9982   24.4126 C   0  0  0  0  0  0  0  0  0  0  0  0
    9.7975  -16.4448   24.5404 C   0  0  0  0  0  0  0  0  0  0  0  0
   10.5164  -17.5361   24.5875 O   0  0  0  0  0  0  0  0  0  0  0  0
    9.4024  -13.2672   29.2094 C   0  0  0  0  0  0  0  0  0  0  0  0
    9.9050  -14.0169   28.0002 C   0  0  0  0  0  0  0  0  0  0  0  0
   10.0623  -15.4840   28.1864 C   0  0  2  0  0  0  0  0  0  0  0  0
   11.1813  -15.6893   29.2135 C   0  0  0  0  0  0  0  0  0  0  0  0
   10.4286  -16.2811   26.9883 C   0  0  2  0  0  0  0  0  0  0  0  0
    9.7638  -15.7777   25.7887 N   0  0  0  0  0  0  0  0  0  0  0  0
   10.4093  -17.7353   27.1302 C   0  0  0  0  0  0  0  0  0  0  0  0
   11.5997  -18.4490   27.4053 O   0  0  0  0  0  0  0  0  0  0  0  0
    9.3493  -18.3804   27.0114 O   0  0  0  0  0  0  0  0  0  0  0  0
  2  3  2  0
  2  1  1  0
  4  2  1  0
  5  6  1  6
  5  4  1  0
  7  5  1  0
  8  7  2  0
  9  7  1  0
 10  9  1  0
 10 11  1  1
 11 12  1  0
 12 13  2  0
 13 14  1  0
 15 16  2  0
 15 14  1  0
 17 16  1  0
 18 19  1  0
 18 17  2  0
 19 20  2  0
 20 12  1  0
 20 15  1  0
 21 22  2  0
 21 10  1  0
 23 24  1  0
 24 25  1  0
 25 27  1  0
 25 26  1  1
 27 29  1  0
 27 28  1  6
 28 21  1  0
 29 30  1  0
 31 29  2  0
M  END
$$$$
