QGA.pdb
     RDKit          3D

 19 18  0  0  1  0  0  0  0  0999 V2000
   24.4515  -20.0132  -18.5880 N   0  0  0  0  0  0  0  0  0  0  0  0
   23.0496  -20.1408  -18.3080 C   0  0  0  0  0  0  0  0  0  0  0  0
   22.3032  -20.4775  -19.2438 O   0  0  0  0  0  0  0  0  0  0  0  0
   22.6073  -19.8694  -16.9429 C   0  0  0  0  0  0  0  0  0  0  0  0
   21.6225  -18.7509  -16.8861 C   0  0  0  0  0  0  0  0  0  0  0  0
   21.2357  -18.2869  -15.5112 C   0  0  2  0  0  0  0  0  0  0  0  0
   20.8667  -19.3445  -14.6194 N   0  0  0  0  0  0  0  0  0  0  0  0
   20.0903  -17.3335  -15.6415 C   0  0  0  0  0  0  0  0  0  0  0  0
   18.9514  -17.7066  -15.2742 O   0  0  0  0  0  0  0  0  0  0  0  0
   20.2770  -16.0259  -16.1706 N   0  0  0  0  0  0  0  0  0  0  0  0
   19.1308  -15.1456  -16.2477 C   0  0  0  0  0  0  0  0  0  0  0  0
   19.5139  -13.7936  -16.7058 C   0  0  0  0  0  0  0  0  0  0  0  0
   20.7260  -13.5592  -16.9225 O   0  0  0  0  0  0  0  0  0  0  0  0
   17.5564  -10.7076  -17.4787 C   0  0  0  0  0  0  0  0  0  0  0  0
   18.8450  -11.4574  -17.2288 C   0  0  2  0  0  0  0  0  0  0  0  0
   18.4974  -12.8191  -16.8812 N   0  0  0  0  0  0  0  0  0  0  0  0
   19.6379  -10.8502  -16.1293 C   0  0  0  0  0  0  0  0  0  0  0  0
   19.6051  -11.2774  -14.9471 O   0  0  0  0  0  0  0  0  0  0  0  0
   20.4421   -9.7770  -16.4097 O   0  0  0  0  0  0  0  0  0  0  0  0
  1  2  1  0
  2  3  2  0
  4  5  1  0
  4  2  1  0
  6  7  1  1
  6  5  1  0
  8  9  2  0
  8  6  1  0
 10  8  1  0
 11 10  1  0
 11 12  1  0
 12 16  1  0
 13 12  2  0
 15 14  1  1
 15 17  1  0
 16 15  1  0
 17 18  2  0
 17 19  1  0
M  END
$$$$
