QGA.pdb
     RDKit          3D

 19 18  0  0  1  0  0  0  0  0999 V2000
   25.3879  -20.9903   -7.9464 N   0  0  0  0  0  0  0  0  0  0  0  0
   26.3822  -20.1346   -8.5286 C   0  0  0  0  0  0  0  0  0  0  0  0
   27.1800  -19.5709   -7.7590 O   0  0  0  0  0  0  0  0  0  0  0  0
   26.3837  -19.9946   -9.9823 C   0  0  0  0  0  0  0  0  0  0  0  0
   25.2706  -20.7563  -10.6185 C   0  0  0  0  0  0  0  0  0  0  0  0
   25.6224  -21.5099  -11.8690 C   0  0  2  0  0  0  0  0  0  0  0  0
   26.8948  -21.1597  -12.4243 N   0  0  0  0  0  0  0  0  0  0  0  0
   24.5564  -21.2552  -12.8872 C   0  0  0  0  0  0  0  0  0  0  0  0
   23.3867  -21.6334  -12.6421 O   0  0  0  0  0  0  0  0  0  0  0  0
   24.8518  -20.5975  -14.1139 N   0  0  0  0  0  0  0  0  0  0  0  0
   23.8269  -20.5551  -15.1351 C   0  0  0  0  0  0  0  0  0  0  0  0
   22.7296  -19.6365  -14.7657 C   0  0  0  0  0  0  0  0  0  0  0  0
   22.6678  -19.2276  -13.5825 O   0  0  0  0  0  0  0  0  0  0  0  0
   20.2749  -17.7152  -16.7721 C   0  0  0  0  0  0  0  0  0  0  0  0
   20.7601  -18.2885  -15.4602 C   0  0  2  0  0  0  0  0  0  0  0  0
   21.7936  -19.2561  -15.7622 N   0  0  0  0  0  0  0  0  0  0  0  0
   19.6660  -18.9491  -14.7032 C   0  0  0  0  0  0  0  0  0  0  0  0
   18.8140  -18.3089  -14.0359 O   0  0  0  0  0  0  0  0  0  0  0  0
   19.5764  -20.3160  -14.7295 O   0  0  0  0  0  0  0  0  0  0  0  0
  1  2  1  0
  2  3  2  0
  4  5  1  0
  4  2  1  0
  6  7  1  6
  6  5  1  0
  8  9  2  0
  8  6  1  0
 10  8  1  0
 11 10  1  0
 11 12  1  0
 12 16  1  0
 13 12  2  0
 15 14  1  6
 15 17  1  0
 16 15  1  0
 17 18  2  0
 17 19  1  0
M  END
$$$$
