QGA.pdb
     RDKit          3D

 19 18  0  0  1  0  0  0  0  0999 V2000
   15.3195  -12.6114  -14.6295 N   0  0  0  0  0  0  0  0  0  0  0  0
   16.1423  -13.7368  -14.9707 C   0  0  0  0  0  0  0  0  0  0  0  0
   15.7398  -14.8662  -14.6407 O   0  0  0  0  0  0  0  0  0  0  0  0
   17.3883  -13.4695  -15.6839 C   0  0  0  0  0  0  0  0  0  0  0  0
   17.6424  -12.0080  -15.8374 C   0  0  0  0  0  0  0  0  0  0  0  0
   18.9794  -11.6311  -16.4078 C   0  0  2  0  0  0  0  0  0  0  0  0
   20.0933  -12.0399  -15.6065 N   0  0  0  0  0  0  0  0  0  0  0  0
   19.0166  -10.1452  -16.5773 C   0  0  0  0  0  0  0  0  0  0  0  0
   18.3359   -9.6263  -17.4930 O   0  0  0  0  0  0  0  0  0  0  0  0
   19.8053   -9.3260  -15.7220 N   0  0  0  0  0  0  0  0  0  0  0  0
   19.7304   -7.8899  -15.8852 C   0  0  0  0  0  0  0  0  0  0  0  0
   20.7902   -7.2000  -15.1201 C   0  0  0  0  0  0  0  0  0  0  0  0
   21.5407   -7.8878  -14.3888 O   0  0  0  0  0  0  0  0  0  0  0  0
   21.9087   -3.6389  -14.9667 C   0  0  0  0  0  0  0  0  0  0  0  0
   21.9681   -5.0887  -14.5429 C   0  0  2  0  0  0  0  0  0  0  0  0
   20.9147   -5.7919  -15.2440 N   0  0  0  0  0  0  0  0  0  0  0  0
   21.7832   -5.2482  -13.0778 C   0  0  0  0  0  0  0  0  0  0  0  0
   20.6778   -5.5451  -12.5572 O   0  0  0  0  0  0  0  0  0  0  0  0
   22.8612   -5.0648  -12.2522 O   0  0  0  0  0  0  0  0  0  0  0  0
  1  2  1  0
  2  3  2  0
  4  5  1  0
  4  2  1  0
  6  7  1  1
  6  5  1  0
  8  9  2  0
  8  6  1  0
 10  8  1  0
 11 10  1  0
 11 12  1  0
 12 16  1  0
 13 12  2  0
 15 14  1  1
 15 17  1  0
 16 15  1  0
 17 18  2  0
 17 19  1  0
M  END
$$$$
