QGA.pdb
     RDKit          3D

 19 18  0  0  1  0  0  0  0  0999 V2000
   20.0460  -16.2554  -19.3987 N   0  0  0  0  0  0  0  0  0  0  0  0
   20.2558  -15.0798  -20.1950 C   0  0  0  0  0  0  0  0  0  0  0  0
   21.1310  -15.1295  -21.0770 O   0  0  0  0  0  0  0  0  0  0  0  0
   19.4213  -13.9154  -19.9110 C   0  0  0  0  0  0  0  0  0  0  0  0
   20.2350  -12.6873  -19.6794 C   0  0  0  0  0  0  0  0  0  0  0  0
   20.8238  -12.5401  -18.3057 C   0  0  2  0  0  0  0  0  0  0  0  0
   19.8574  -12.5645  -17.2496 N   0  0  0  0  0  0  0  0  0  0  0  0
   21.5758  -11.2480  -18.2523 C   0  0  0  0  0  0  0  0  0  0  0  0
   22.4197  -11.0049  -19.1466 O   0  0  0  0  0  0  0  0  0  0  0  0
   21.3465  -10.3050  -17.2117 N   0  0  0  0  0  0  0  0  0  0  0  0
   22.0122   -9.0221  -17.2878 C   0  0  0  0  0  0  0  0  0  0  0  0
   21.5631   -8.1123  -16.2132 C   0  0  0  0  0  0  0  0  0  0  0  0
   20.6022   -8.4703  -15.4924 O   0  0  0  0  0  0  0  0  0  0  0  0
   22.8067   -4.8239  -14.9603 C   0  0  0  0  0  0  0  0  0  0  0  0
   21.7777   -5.9278  -15.0468 C   0  0  2  0  0  0  0  0  0  0  0  0
   22.2356   -6.8745  -16.0416 N   0  0  0  0  0  0  0  0  0  0  0  0
   20.4387   -5.4115  -15.4304 C   0  0  0  0  0  0  0  0  0  0  0  0
   20.0302   -5.3898  -16.6194 O   0  0  0  0  0  0  0  0  0  0  0  0
   19.6080   -4.9369  -14.4497 O   0  0  0  0  0  0  0  0  0  0  0  0
  1  2  1  0
  2  3  2  0
  4  5  1  0
  4  2  1  0
  6  7  1  1
  6  5  1  0
  8  9  2  0
  8  6  1  0
 10  8  1  0
 11 10  1  0
 11 12  1  0
 12 16  1  0
 13 12  2  0
 15 14  1  6
 15 17  1  0
 16 15  1  0
 17 18  2  0
 17 19  1  0
M  END
$$$$
