QGA.pdb
     RDKit          3D

 19 18  0  0  1  0  0  0  0  0999 V2000
   24.1578  -20.2103  -10.1122 N   0  0  0  0  0  0  0  0  0  0  0  0
   25.3296  -20.9398   -9.7189 C   0  0  0  0  0  0  0  0  0  0  0  0
   25.3215  -21.4843   -8.6009 O   0  0  0  0  0  0  0  0  0  0  0  0
   26.4412  -20.9907  -10.6646 C   0  0  0  0  0  0  0  0  0  0  0  0
   26.1252  -20.2810  -11.9377 C   0  0  0  0  0  0  0  0  0  0  0  0
   25.2145  -21.0078  -12.8851 C   0  0  2  0  0  0  0  0  0  0  0  0
   25.7059  -22.2857  -13.3039 N   0  0  0  0  0  0  0  0  0  0  0  0
   25.0031  -20.1454  -14.0890 C   0  0  0  0  0  0  0  0  0  0  0  0
   24.8937  -18.9068  -13.9309 O   0  0  0  0  0  0  0  0  0  0  0  0
   24.9259  -20.7082  -15.3936 N   0  0  0  0  0  0  0  0  0  0  0  0
   24.7823  -19.8122  -16.5212 C   0  0  0  0  0  0  0  0  0  0  0  0
   23.3664  -19.4617  -16.7599 C   0  0  0  0  0  0  0  0  0  0  0  0
   22.4794  -20.1989  -16.2691 O   0  0  0  0  0  0  0  0  0  0  0  0
   21.7077  -16.5634  -18.4262 C   0  0  0  0  0  0  0  0  0  0  0  0
   21.6943  -17.9261  -17.7719 C   0  0  2  0  0  0  0  0  0  0  0  0
   23.0697  -18.3089  -17.5322 N   0  0  0  0  0  0  0  0  0  0  0  0
   21.0353  -18.9470  -18.6261 C   0  0  0  0  0  0  0  0  0  0  0  0
   21.6765  -19.7307  -19.3716 O   0  0  0  0  0  0  0  0  0  0  0  0
   19.6688  -19.0436  -18.6049 O   0  0  0  0  0  0  0  0  0  0  0  0
  1  2  1  0
  2  3  2  0
  4  5  1  0
  4  2  1  0
  6  7  1  6
  6  5  1  0
  8  9  2  0
  8  6  1  0
 10  8  1  0
 11 10  1  0
 11 12  1  0
 12 16  1  0
 13 12  2  0
 15 14  1  6
 15 17  1  0
 16 15  1  0
 17 18  2  0
 17 19  1  0
M  END
$$$$
