QGA.pdb
     RDKit          3D

 19 18  0  0  1  0  0  0  0  0999 V2000
   18.3730  -14.8934  -15.3406 N   0  0  0  0  0  0  0  0  0  0  0  0
   17.8222  -13.8405  -16.1457 C   0  0  0  0  0  0  0  0  0  0  0  0
   16.9879  -14.1542  -17.0129 O   0  0  0  0  0  0  0  0  0  0  0  0
   18.2810  -12.4795  -15.8816 C   0  0  0  0  0  0  0  0  0  0  0  0
   17.1443  -11.5368  -15.6730 C   0  0  0  0  0  0  0  0  0  0  0  0
   17.2460  -10.2190  -16.3859 C   0  0  2  0  0  0  0  0  0  0  0  0
   18.2794  -10.1677  -17.3756 N   0  0  0  0  0  0  0  0  0  0  0  0
   17.4894   -9.1507  -15.3673 C   0  0  0  0  0  0  0  0  0  0  0  0
   16.6761   -9.0233  -14.4221 O   0  0  0  0  0  0  0  0  0  0  0  0
   18.6186   -8.2897  -15.4586 N   0  0  0  0  0  0  0  0  0  0  0  0
   18.7628   -7.2388  -14.4739 C   0  0  0  0  0  0  0  0  0  0  0  0
   19.9866   -6.4428  -14.7041 C   0  0  0  0  0  0  0  0  0  0  0  0
   20.9765   -7.0090  -15.2243 O   0  0  0  0  0  0  0  0  0  0  0  0
   20.7823   -2.8223  -14.2745 C   0  0  0  0  0  0  0  0  0  0  0  0
   21.1601   -4.2555  -14.5716 C   0  0  2  0  0  0  0  0  0  0  0  0
   19.9914   -5.0745  -14.3280 N   0  0  0  0  0  0  0  0  0  0  0  0
   22.2822   -4.7235  -13.7183 C   0  0  0  0  0  0  0  0  0  0  0  0
   22.1085   -5.2483  -12.5889 O   0  0  0  0  0  0  0  0  0  0  0  0
   23.5652   -4.5796  -14.1769 O   0  0  0  0  0  0  0  0  0  0  0  0
  1  2  1  0
  2  3  2  0
  4  5  1  0
  4  2  1  0
  6  7  1  6
  6  5  1  0
  8  9  2  0
  8  6  1  0
 10  8  1  0
 11 10  1  0
 11 12  1  0
 12 16  1  0
 13 12  2  0
 15 14  1  1
 15 17  1  0
 16 15  1  0
 17 18  2  0
 17 19  1  0
M  END
$$$$
