QGA.pdb
     RDKit          3D

 19 18  0  0  1  0  0  0  0  0999 V2000
   21.1396  -15.6815  -14.8657 N   0  0  0  0  0  0  0  0  0  0  0  0
   20.4384  -16.1649  -16.0209 C   0  0  0  0  0  0  0  0  0  0  0  0
   20.2777  -17.3936  -16.1254 O   0  0  0  0  0  0  0  0  0  0  0  0
   19.9630  -15.1754  -16.9840 C   0  0  0  0  0  0  0  0  0  0  0  0
   20.2637  -13.7812  -16.5480 C   0  0  0  0  0  0  0  0  0  0  0  0
   19.6739  -12.6884  -17.3925 C   0  0  2  0  0  0  0  0  0  0  0  0
   19.5041  -13.0407  -18.7698 N   0  0  0  0  0  0  0  0  0  0  0  0
   20.5639  -11.4896  -17.2993 C   0  0  0  0  0  0  0  0  0  0  0  0
   21.4907  -11.3614  -18.1334 O   0  0  0  0  0  0  0  0  0  0  0  0
   20.3724  -10.5071  -16.2880 N   0  0  0  0  0  0  0  0  0  0  0  0
   21.3208   -9.4173  -16.2003 C   0  0  0  0  0  0  0  0  0  0  0  0
   20.8721   -8.3820  -15.2457 C   0  0  0  0  0  0  0  0  0  0  0  0
   19.7012   -8.4472  -14.8031 O   0  0  0  0  0  0  0  0  0  0  0  0
   22.6166   -5.5328  -13.5795 C   0  0  0  0  0  0  0  0  0  0  0  0
   21.3893   -6.3516  -13.9084 C   0  0  2  0  0  0  0  0  0  0  0  0
   21.7819   -7.3599  -14.8701 N   0  0  0  0  0  0  0  0  0  0  0  0
   20.3003   -5.5175  -14.4785 C   0  0  0  0  0  0  0  0  0  0  0  0
   20.1274   -5.3726  -15.7155 O   0  0  0  0  0  0  0  0  0  0  0  0
   19.4436   -4.8755  -13.6235 O   0  0  0  0  0  0  0  0  0  0  0  0
  1  2  1  0
  2  3  2  0
  4  5  1  0
  4  2  1  0
  6  7  1  6
  6  5  1  0
  8  9  2  0
  8  6  1  0
 10  8  1  0
 11 10  1  0
 11 12  1  0
 12 16  1  0
 13 12  2  0
 15 14  1  6
 15 17  1  0
 16 15  1  0
 17 18  2  0
 17 19  1  0
M  END
$$$$
