QGA.pdb
     RDKit          3D

 19 18  0  0  1  0  0  0  0  0999 V2000
   17.6000  -12.1755  -14.4601 N   0  0  0  0  0  0  0  0  0  0  0  0
   17.2851  -13.3248  -15.2599 C   0  0  0  0  0  0  0  0  0  0  0  0
   16.2753  -13.9822  -14.9522 O   0  0  0  0  0  0  0  0  0  0  0  0
   18.1730  -13.6320  -16.3779 C   0  0  0  0  0  0  0  0  0  0  0  0
   19.2895  -12.6498  -16.4915 C   0  0  0  0  0  0  0  0  0  0  0  0
   19.0546  -11.4947  -17.4220 C   0  0  2  0  0  0  0  0  0  0  0  0
   18.9669  -11.8643  -18.8025 N   0  0  0  0  0  0  0  0  0  0  0  0
   20.1715  -10.5150  -17.2469 C   0  0  0  0  0  0  0  0  0  0  0  0
   21.2532  -10.7215  -17.8456 O   0  0  0  0  0  0  0  0  0  0  0  0
   20.0213   -9.3672  -16.4195 N   0  0  0  0  0  0  0  0  0  0  0  0
   21.1245   -8.4345  -16.3312 C   0  0  0  0  0  0  0  0  0  0  0  0
   20.8121   -7.3074  -15.4276 C   0  0  0  0  0  0  0  0  0  0  0  0
   19.6704   -7.2552  -14.9129 O   0  0  0  0  0  0  0  0  0  0  0  0
   22.8355   -4.4490  -14.1283 C   0  0  0  0  0  0  0  0  0  0  0  0
   21.5468   -5.2221  -14.2917 C   0  0  2  0  0  0  0  0  0  0  0  0
   21.8140   -6.3333  -15.1802 N   0  0  0  0  0  0  0  0  0  0  0  0
   20.4617   -4.3812  -14.8591 C   0  0  0  0  0  0  0  0  0  0  0  0
   20.2582   -4.2714  -16.0950 O   0  0  0  0  0  0  0  0  0  0  0  0
   19.6434   -3.6927  -14.0026 O   0  0  0  0  0  0  0  0  0  0  0  0
  1  2  1  0
  2  3  2  0
  4  5  1  0
  4  2  1  0
  6  7  1  6
  6  5  1  0
  8  9  2  0
  8  6  1  0
 10  8  1  0
 11 10  1  0
 11 12  1  0
 12 16  1  0
 13 12  2  0
 15 14  1  6
 15 17  1  0
 16 15  1  0
 17 18  2  0
 17 19  1  0
M  END
$$$$
