QGA.pdb
     RDKit          3D

 19 18  0  0  1  0  0  0  0  0999 V2000
   19.3469  -14.3583  -16.6985 N   0  0  0  0  0  0  0  0  0  0  0  0
   18.3008  -14.6491  -15.7598 C   0  0  0  0  0  0  0  0  0  0  0  0
   18.1250  -15.8386  -15.4429 O   0  0  0  0  0  0  0  0  0  0  0  0
   17.5251  -13.5240  -15.2449 C   0  0  0  0  0  0  0  0  0  0  0  0
   18.0566  -12.2141  -15.7202 C   0  0  0  0  0  0  0  0  0  0  0  0
   17.3114  -10.9962  -15.2548 C   0  0  2  0  0  0  0  0  0  0  0  0
   15.9243  -10.9884  -15.6095 N   0  0  0  0  0  0  0  0  0  0  0  0
   17.9734   -9.7882  -15.8383 C   0  0  0  0  0  0  0  0  0  0  0  0
   17.6334   -9.4094  -16.9838 O   0  0  0  0  0  0  0  0  0  0  0  0
   18.9710   -9.0746  -15.1171 N   0  0  0  0  0  0  0  0  0  0  0  0
   19.5335   -7.8839  -15.7177 C   0  0  0  0  0  0  0  0  0  0  0  0
   20.5878   -7.2926  -14.8673 C   0  0  0  0  0  0  0  0  0  0  0  0
   20.7937   -7.7954  -13.7377 O   0  0  0  0  0  0  0  0  0  0  0  0
   23.0997   -4.5934  -15.4666 C   0  0  0  0  0  0  0  0  0  0  0  0
   22.4621   -5.6775  -14.6280 C   0  0  2  0  0  0  0  0  0  0  0  0
   21.3217   -6.1836  -15.3624 N   0  0  0  0  0  0  0  0  0  0  0  0
   22.0163   -5.1684  -13.3058 C   0  0  0  0  0  0  0  0  0  0  0  0
   20.8619   -4.7131  -13.1031 O   0  0  0  0  0  0  0  0  0  0  0  0
   22.8976   -5.1936  -12.2570 O   0  0  0  0  0  0  0  0  0  0  0  0
  1  2  1  0
  2  3  2  0
  4  5  1  0
  4  2  1  0
  6  7  1  6
  6  5  1  0
  8  9  2  0
  8  6  1  0
 10  8  1  0
 11 10  1  0
 11 12  1  0
 12 16  1  0
 13 12  2  0
 15 14  1  6
 15 17  1  0
 16 15  1  0
 17 18  2  0
 17 19  1  0
M  END
$$$$
