QGA.pdb
     RDKit          3D

 19 18  0  0  1  0  0  0  0  0999 V2000
   19.3590  -17.0071  -17.4595 N   0  0  0  0  0  0  0  0  0  0  0  0
   18.8660  -15.6596  -17.4270 C   0  0  0  0  0  0  0  0  0  0  0  0
   17.9854  -15.3480  -18.2479 O   0  0  0  0  0  0  0  0  0  0  0  0
   19.4338  -14.7578  -16.4285 C   0  0  0  0  0  0  0  0  0  0  0  0
   19.5518  -13.3615  -16.9388 C   0  0  0  0  0  0  0  0  0  0  0  0
   19.0548  -12.2831  -16.0194 C   0  0  2  0  0  0  0  0  0  0  0  0
   17.6454  -12.3296  -15.7716 N   0  0  0  0  0  0  0  0  0  0  0  0
   19.4038  -10.9571  -16.6176 C   0  0  0  0  0  0  0  0  0  0  0  0
   18.5374  -10.3549  -17.2942 O   0  0  0  0  0  0  0  0  0  0  0  0
   20.6909  -10.3802  -16.4296 N   0  0  0  0  0  0  0  0  0  0  0  0
   20.9540   -9.0822  -17.0131 C   0  0  0  0  0  0  0  0  0  0  0  0
   21.2059   -8.0607  -15.9749 C   0  0  0  0  0  0  0  0  0  0  0  0
   20.9466   -8.3468  -14.7825 O   0  0  0  0  0  0  0  0  0  0  0  0
   22.8516   -4.7146  -16.0793 C   0  0  0  0  0  0  0  0  0  0  0  0
   22.1147   -5.8277  -15.3700 C   0  0  2  0  0  0  0  0  0  0  0  0
   21.7292   -6.8020  -16.3689 N   0  0  0  0  0  0  0  0  0  0  0  0
   20.9047   -5.3329  -14.6647 C   0  0  0  0  0  0  0  0  0  0  0  0
   20.9424   -4.8370  -13.5098 O   0  0  0  0  0  0  0  0  0  0  0  0
   19.6914   -5.4181  -15.2954 O   0  0  0  0  0  0  0  0  0  0  0  0
  1  2  1  0
  2  3  2  0
  4  5  1  0
  4  2  1  0
  6  7  1  6
  6  5  1  0
  8  9  2  0
  8  6  1  0
 10  8  1  0
 11 10  1  0
 11 12  1  0
 12 16  1  0
 13 12  2  0
 15 14  1  6
 15 17  1  0
 16 15  1  0
 17 18  2  0
 17 19  1  0
M  END
$$$$
