QGA.pdb
     RDKit          3D

 19 18  0  0  1  0  0  0  0  0999 V2000
   19.5321  -20.7983  -15.6207 N   0  0  0  0  0  0  0  0  0  0  0  0
   18.7411  -19.6771  -15.1997 C   0  0  0  0  0  0  0  0  0  0  0  0
   17.7848  -19.9002  -14.4368 O   0  0  0  0  0  0  0  0  0  0  0  0
   19.1231  -18.3580  -15.6966 C   0  0  0  0  0  0  0  0  0  0  0  0
   20.3227  -18.4192  -16.5806 C   0  0  0  0  0  0  0  0  0  0  0  0
   21.6448  -18.1819  -15.9092 C   0  0  2  0  0  0  0  0  0  0  0  0
   21.8548  -16.8281  -15.4933 N   0  0  0  0  0  0  0  0  0  0  0  0
   22.7318  -18.5774  -16.8579 C   0  0  0  0  0  0  0  0  0  0  0  0
   22.8177  -17.9818  -17.9574 O   0  0  0  0  0  0  0  0  0  0  0  0
   23.6563  -19.6082  -16.5301 N   0  0  0  0  0  0  0  0  0  0  0  0
   24.7313  -19.8878  -17.4580 C   0  0  0  0  0  0  0  0  0  0  0  0
   25.5961  -20.9839  -16.9734 C   0  0  0  0  0  0  0  0  0  0  0  0
   25.3523  -21.4826  -15.8495 O   0  0  0  0  0  0  0  0  0  0  0  0
   28.4102  -22.8706  -18.5476 C   0  0  0  0  0  0  0  0  0  0  0  0
   27.4393  -22.5897  -17.4235 C   0  0  2  0  0  0  0  0  0  0  0  0
   26.6638  -21.4258  -17.7971 N   0  0  0  0  0  0  0  0  0  0  0  0
   28.1366  -22.3311  -16.1376 C   0  0  0  0  0  0  0  0  0  0  0  0
   28.4308  -21.1748  -15.7408 O   0  0  0  0  0  0  0  0  0  0  0  0
   28.4767  -23.3956  -15.3450 O   0  0  0  0  0  0  0  0  0  0  0  0
  1  2  1  0
  2  3  2  0
  4  5  1  0
  4  2  1  0
  6  7  1  6
  6  5  1  0
  8  9  2  0
  8  6  1  0
 10  8  1  0
 11 10  1  0
 11 12  1  0
 12 16  1  0
 13 12  2  0
 15 14  1  6
 15 17  1  0
 16 15  1  0
 17 18  2  0
 17 19  1  0
M  END
$$$$
