QGA.pdb
     RDKit          3D

 19 18  0  0  1  0  0  0  0  0999 V2000
   16.4661  -14.4337  -15.6420 N   0  0  0  0  0  0  0  0  0  0  0  0
   17.6836  -14.7763  -16.3205 C   0  0  0  0  0  0  0  0  0  0  0  0
   18.0050  -15.9770  -16.3569 O   0  0  0  0  0  0  0  0  0  0  0  0
   18.4501  -13.6878  -16.9208 C   0  0  0  0  0  0  0  0  0  0  0  0
   17.8819  -12.3510  -16.5829 C   0  0  0  0  0  0  0  0  0  0  0  0
   18.6206  -11.1658  -17.1350 C   0  0  2  0  0  0  0  0  0  0  0  0
   19.6219  -11.4996  -18.1024 N   0  0  0  0  0  0  0  0  0  0  0  0
   19.2627  -10.4393  -15.9957 C   0  0  0  0  0  0  0  0  0  0  0  0
   18.5662  -10.1568  -14.9926 O   0  0  0  0  0  0  0  0  0  0  0  0
   20.6363  -10.0706  -16.0379 N   0  0  0  0  0  0  0  0  0  0  0  0
   21.1666   -9.2701  -14.9550 C   0  0  0  0  0  0  0  0  0  0  0  0
   21.5304   -7.9120  -15.4109 C   0  0  0  0  0  0  0  0  0  0  0  0
   21.6170   -7.7006  -16.6433 O   0  0  0  0  0  0  0  0  0  0  0  0
   20.9947   -5.0116  -15.6698 C   0  0  0  0  0  0  0  0  0  0  0  0
   22.1353   -5.5677  -14.8483 C   0  0  2  0  0  0  0  0  0  0  0  0
   21.7660   -6.9061  -14.4382 N   0  0  0  0  0  0  0  0  0  0  0  0
   22.4124   -4.7381  -13.6477 C   0  0  0  0  0  0  0  0  0  0  0  0
   22.1116   -5.1017  -12.4822 O   0  0  0  0  0  0  0  0  0  0  0  0
   23.0225   -3.5224  -13.8114 O   0  0  0  0  0  0  0  0  0  0  0  0
  1  2  1  0
  2  3  2  0
  4  5  1  0
  4  2  1  0
  6  7  1  6
  6  5  1  0
  8  9  2  0
  8  6  1  0
 10  8  1  0
 11 10  1  0
 11 12  1  0
 12 16  1  0
 13 12  2  0
 15 14  1  1
 15 17  1  0
 16 15  1  0
 17 18  2  0
 17 19  1  0
M  END
$$$$
