QGA.pdb
     RDKit          3D

 19 18  0  0  1  0  0  0  0  0999 V2000
   15.7880  -14.4019  -17.1105 N   0  0  0  0  0  0  0  0  0  0  0  0
   15.8153  -12.9719  -17.2297 C   0  0  0  0  0  0  0  0  0  0  0  0
   16.3948  -12.4866  -18.2172 O   0  0  0  0  0  0  0  0  0  0  0  0
   15.1557  -12.1954  -16.1833 C   0  0  0  0  0  0  0  0  0  0  0  0
   15.6670  -10.7959  -16.1191 C   0  0  0  0  0  0  0  0  0  0  0  0
   16.7985  -10.5544  -15.1617 C   0  0  2  0  0  0  0  0  0  0  0  0
   16.4600  -10.7767  -13.7884 N   0  0  0  0  0  0  0  0  0  0  0  0
   17.2635   -9.1425  -15.3296 C   0  0  0  0  0  0  0  0  0  0  0  0
   16.5697   -8.2182  -14.8442 O   0  0  0  0  0  0  0  0  0  0  0  0
   18.4680   -8.8416  -16.0248 N   0  0  0  0  0  0  0  0  0  0  0  0
   18.9008   -7.4617  -16.0842 C   0  0  0  0  0  0  0  0  0  0  0  0
   19.9824   -7.1893  -15.1145 C   0  0  0  0  0  0  0  0  0  0  0  0
   19.9984   -7.8381  -14.0421 O   0  0  0  0  0  0  0  0  0  0  0  0
   23.2679   -5.6146  -15.4795 C   0  0  0  0  0  0  0  0  0  0  0  0
   22.1174   -6.0292  -14.5908 C   0  0  2  0  0  0  0  0  0  0  0  0
   20.9555   -6.2077  -15.4356 N   0  0  0  0  0  0  0  0  0  0  0  0
   21.8239   -5.0113  -13.5496 C   0  0  0  0  0  0  0  0  0  0  0  0
   22.5033   -4.8945  -12.4980 O   0  0  0  0  0  0  0  0  0  0  0  0
   20.7674   -4.1595  -13.7379 O   0  0  0  0  0  0  0  0  0  0  0  0
  1  2  1  0
  2  3  2  0
  4  5  1  0
  4  2  1  0
  6  7  1  1
  6  5  1  0
  8  9  2  0
  8  6  1  0
 10  8  1  0
 11 10  1  0
 11 12  1  0
 12 16  1  0
 13 12  2  0
 15 14  1  6
 15 17  1  0
 16 15  1  0
 17 18  2  0
 17 19  1  0
M  END
$$$$
