QGA.pdb
     RDKit          3D

 19 18  0  0  1  0  0  0  0  0999 V2000
   18.2889  -14.8087  -15.1377 N   0  0  0  0  0  0  0  0  0  0  0  0
   16.8869  -14.5439  -14.9820 C   0  0  0  0  0  0  0  0  0  0  0  0
   16.1607  -15.4825  -14.6104 O   0  0  0  0  0  0  0  0  0  0  0  0
   16.4207  -13.1897  -15.2679 C   0  0  0  0  0  0  0  0  0  0  0  0
   17.5444  -12.2737  -15.6175 C   0  0  0  0  0  0  0  0  0  0  0  0
   17.1694  -10.8408  -15.8658 C   0  0  2  0  0  0  0  0  0  0  0  0
   16.2678  -10.6539  -16.9621 N   0  0  0  0  0  0  0  0  0  0  0  0
   18.4221  -10.0647  -16.1235 C   0  0  0  0  0  0  0  0  0  0  0  0
   19.1179  -10.3590  -17.1237 O   0  0  0  0  0  0  0  0  0  0  0  0
   18.8266   -9.0106  -15.2575 N   0  0  0  0  0  0  0  0  0  0  0  0
   20.0105   -8.2532  -15.6033 C   0  0  0  0  0  0  0  0  0  0  0  0
   20.1644   -7.0622  -14.7418 C   0  0  0  0  0  0  0  0  0  0  0  0
   19.2597   -6.8055  -13.9131 O   0  0  0  0  0  0  0  0  0  0  0  0
   22.8835   -4.5351  -14.3408 C   0  0  0  0  0  0  0  0  0  0  0  0
   21.4877   -5.0603  -14.0939 C   0  0  2  0  0  0  0  0  0  0  0  0
   21.3261   -6.2604  -14.8873 N   0  0  0  0  0  0  0  0  0  0  0  0
   20.4461   -4.0707  -14.4706 C   0  0  0  0  0  0  0  0  0  0  0  0
   19.9194   -4.0346  -15.6118 O   0  0  0  0  0  0  0  0  0  0  0  0
   20.0372   -3.1545  -13.5376 O   0  0  0  0  0  0  0  0  0  0  0  0
  1  2  1  0
  2  3  2  0
  4  5  1  0
  4  2  1  0
  6  7  1  6
  6  5  1  0
  8  9  2  0
  8  6  1  0
 10  8  1  0
 11 10  1  0
 11 12  1  0
 12 16  1  0
 13 12  2  0
 15 14  1  6
 15 17  1  0
 16 15  1  0
 17 18  2  0
 17 19  1  0
M  END
$$$$
