ITT.pdb
     RDKit          3D

 23 22  0  0  1  0  0  0  0  0999 V2000
   20.9178  -14.1687  -19.5074 C   0  0  0  0  0  0  0  0  0  0  0  0
   20.2978  -13.8587  -18.1620 C   0  0  0  0  0  0  0  0  0  0  0  0
   19.9674  -12.3885  -18.0490 C   0  0  2  0  0  0  0  0  0  0  0  0
   21.1838  -11.5897  -18.3328 C   0  0  0  0  0  0  0  0  0  0  0  0
   19.3317  -12.1110  -16.7175 C   0  0  2  0  0  0  0  0  0  0  0  0
   18.1845  -12.9869  -16.5905 N   0  0  0  0  0  0  0  0  0  0  0  0
   18.9661  -10.6908  -16.5371 C   0  0  0  0  0  0  0  0  0  0  0  0
   18.1289  -10.0782  -17.2065 O   0  0  0  0  0  0  0  0  0  0  0  0
   17.9557   -7.0333  -13.7888 C   0  0  0  0  0  0  0  0  0  0  0  0
   18.1575   -8.4485  -14.2761 C   0  0  1  0  0  0  0  0  0  0  0  0
   17.0312   -9.0075  -14.8093 O   0  0  0  0  0  0  0  0  0  0  0  0
   19.2889   -8.5395  -15.2856 C   0  0  2  0  0  0  0  0  0  0  0  0
   19.6349   -9.9607  -15.5025 N   0  0  0  0  0  0  0  0  0  0  0  0
   20.4847   -7.7743  -14.9036 C   0  0  0  0  0  0  0  0  0  0  0  0
   21.3747   -8.3209  -14.1834 O   0  0  0  0  0  0  0  0  0  0  0  0
   23.2029   -3.6352  -15.5664 C   0  0  0  0  0  0  0  0  0  0  0  0
   21.9560   -4.4339  -15.7886 C   0  0  1  0  0  0  0  0  0  0  0  0
   21.9154   -4.7715  -17.1495 O   0  0  0  0  0  0  0  0  0  0  0  0
   21.9535   -5.7340  -15.0172 C   0  0  2  0  0  0  0  0  0  0  0  0
   20.7161   -6.4370  -15.2951 N   0  0  0  0  0  0  0  0  0  0  0  0
   22.0502   -5.5184  -13.5598 C   0  0  0  0  0  0  0  0  0  0  0  0
   23.1958   -5.7805  -12.8239 O   0  0  0  0  0  0  0  0  0  0  0  0
   21.0550   -5.0763  -12.9415 O   0  0  0  0  0  0  0  0  0  0  0  0
  1  2  1  0
  3  2  1  0
  3  5  1  0
  3  4  1  1
  5  7  1  0
  5  6  1  6
  7  8  2  0
  7 13  1  0
 10  9  1  6
 11 10  1  0
 12 14  1  0
 12 10  1  0
 12 13  1  1
 14 15  2  0
 17 19  1  0
 17 16  1  6
 17 18  1  0
 19 20  1  1
 20 14  1  0
 21 22  1  0
 21 19  1  0
 23 21  2  0
M  END
$$$$
