ITT.pdb
     RDKit          3D

 23 22  0  0  1  0  0  0  0  0999 V2000
   26.1574  -15.4402  -17.3668 C   0  0  0  0  0  0  0  0  0  0  0  0
   26.9247  -14.1934  -16.9829 C   0  0  0  0  0  0  0  0  0  0  0  0
   26.8975  -13.1799  -18.1033 C   0  0  2  0  0  0  0  0  0  0  0  0
   27.2952  -13.8393  -19.3703 C   0  0  0  0  0  0  0  0  0  0  0  0
   27.7285  -11.9865  -17.7299 C   0  0  2  0  0  0  0  0  0  0  0  0
   27.2659  -11.5194  -16.4387 N   0  0  0  0  0  0  0  0  0  0  0  0
   27.6948  -10.9177  -18.7496 C   0  0  0  0  0  0  0  0  0  0  0  0
   28.0664  -11.0362  -19.9210 O   0  0  0  0  0  0  0  0  0  0  0  0
   24.5949   -9.1733  -19.8018 C   0  0  0  0  0  0  0  0  0  0  0  0
   25.5566   -8.1077  -19.3321 C   0  0  1  0  0  0  0  0  0  0  0  0
   25.2781   -7.6348  -18.0814 O   0  0  0  0  0  0  0  0  0  0  0  0
   26.9962   -8.5903  -19.3769 C   0  0  2  0  0  0  0  0  0  0  0  0
   27.1908   -9.6379  -18.3516 N   0  0  0  0  0  0  0  0  0  0  0  0
   27.9852   -7.5162  -19.2052 C   0  0  0  0  0  0  0  0  0  0  0  0
   28.6529   -7.4455  -18.1287 O   0  0  0  0  0  0  0  0  0  0  0  0
   31.0714   -4.2881  -21.2298 C   0  0  0  0  0  0  0  0  0  0  0  0
   29.9400   -5.2631  -21.3349 C   0  0  1  0  0  0  0  0  0  0  0  0
   30.4872   -6.4948  -21.7238 O   0  0  0  0  0  0  0  0  0  0  0  0
   29.2465   -5.4932  -20.0115 C   0  0  2  0  0  0  0  0  0  0  0  0
   28.2497   -6.5322  -20.1835 N   0  0  0  0  0  0  0  0  0  0  0  0
   28.5716   -4.2770  -19.5161 C   0  0  0  0  0  0  0  0  0  0  0  0
   29.1788   -3.3557  -18.6764 O   0  0  0  0  0  0  0  0  0  0  0  0
   27.3897   -4.0514  -19.8630 O   0  0  0  0  0  0  0  0  0  0  0  0
  1  2  1  0
  3  2  1  0
  3  5  1  0
  3  4  1  6
  5  7  1  0
  5  6  1  1
  7  8  2  0
  7 13  1  0
 10  9  1  1
 11 10  1  0
 12 14  1  0
 12 10  1  0
 12 13  1  1
 14 15  2  0
 17 19  1  0
 17 16  1  1
 17 18  1  0
 19 20  1  6
 20 14  1  0
 21 22  1  0
 21 19  1  0
 23 21  2  0
M  END
$$$$
