ITT.pdb
     RDKit          3D

 23 22  0  0  1  0  0  0  0  0999 V2000
   21.9268  -14.3992  -19.4478 C   0  0  0  0  0  0  0  0  0  0  0  0
   22.6483  -13.4774  -18.4886 C   0  0  0  0  0  0  0  0  0  0  0  0
   21.6928  -12.4722  -17.8889 C   0  0  2  0  0  0  0  0  0  0  0  0
   20.9315  -11.8108  -18.9757 C   0  0  0  0  0  0  0  0  0  0  0  0
   22.4417  -11.5338  -16.9872 C   0  0  2  0  0  0  0  0  0  0  0  0
   23.3048  -12.3352  -16.1433 N   0  0  0  0  0  0  0  0  0  0  0  0
   21.5511  -10.6594  -16.1962 C   0  0  0  0  0  0  0  0  0  0  0  0
   20.9093  -11.0070  -15.2005 O   0  0  0  0  0  0  0  0  0  0  0  0
   21.0338   -9.5929  -13.6740 C   0  0  0  0  0  0  0  0  0  0  0  0
   21.1365   -8.2785  -14.4108 C   0  0  1  0  0  0  0  0  0  0  0  0
   22.4076   -7.7818  -14.4654 O   0  0  0  0  0  0  0  0  0  0  0  0
   20.5758   -8.3780  -15.8190 C   0  0  2  0  0  0  0  0  0  0  0  0
   21.4183   -9.2964  -16.6148 N   0  0  0  0  0  0  0  0  0  0  0  0
   20.4507   -7.0802  -16.4983 C   0  0  0  0  0  0  0  0  0  0  0  0
   21.3401   -6.7190  -17.3279 O   0  0  0  0  0  0  0  0  0  0  0  0
   17.6868   -3.6769  -18.5094 C   0  0  0  0  0  0  0  0  0  0  0  0
   17.9470   -4.9591  -17.7813 C   0  0  1  0  0  0  0  0  0  0  0  0
   18.0805   -5.9666  -18.7482 O   0  0  0  0  0  0  0  0  0  0  0  0
   19.2408   -4.9313  -16.9999 C   0  0  2  0  0  0  0  0  0  0  0  0
   19.3790   -6.1852  -16.2849 N   0  0  0  0  0  0  0  0  0  0  0  0
   19.2766   -3.8286  -16.0187 C   0  0  0  0  0  0  0  0  0  0  0  0
   19.8739   -2.6028  -16.2698 O   0  0  0  0  0  0  0  0  0  0  0  0
   18.7446   -3.9931  -14.8970 O   0  0  0  0  0  0  0  0  0  0  0  0
  1  2  1  0
  3  2  1  0
  3  5  1  0
  3  4  1  6
  5  7  1  0
  5  6  1  1
  7  8  2  0
  7 13  1  0
 10  9  1  6
 11 10  1  0
 12 14  1  0
 12 10  1  0
 12 13  1  6
 14 15  2  0
 17 19  1  0
 17 16  1  6
 17 18  1  0
 19 20  1  1
 20 14  1  0
 21 22  1  0
 21 19  1  0
 23 21  2  0
M  END
$$$$
