ITT.pdb
     RDKit          3D

 23 22  0  0  1  0  0  0  0  0999 V2000
   25.2711  -12.9779  -20.1123 C   0  0  0  0  0  0  0  0  0  0  0  0
   25.0615  -12.7659  -18.6285 C   0  0  0  0  0  0  0  0  0  0  0  0
   23.8325  -11.9243  -18.3748 C   0  0  2  0  0  0  0  0  0  0  0  0
   23.9108  -10.6856  -19.1857 C   0  0  0  0  0  0  0  0  0  0  0  0
   23.6664  -11.6985  -16.8997 C   0  0  2  0  0  0  0  0  0  0  0  0
   23.6698  -12.9967  -16.2564 N   0  0  0  0  0  0  0  0  0  0  0  0
   22.4555  -10.9195  -16.5677 C   0  0  0  0  0  0  0  0  0  0  0  0
   21.2983  -11.2431  -16.8510 O   0  0  0  0  0  0  0  0  0  0  0  0
   20.2045   -7.7394  -13.6981 C   0  0  0  0  0  0  0  0  0  0  0  0
   21.2611   -8.7541  -14.0657 C   0  0  1  0  0  0  0  0  0  0  0  0
   21.0176  -10.0009  -13.5642 O   0  0  0  0  0  0  0  0  0  0  0  0
   21.4523   -8.8469  -15.5697 C   0  0  2  0  0  0  0  0  0  0  0  0
   22.6336   -9.6878  -15.8595 N   0  0  0  0  0  0  0  0  0  0  0  0
   21.5798   -7.5400  -16.2310 C   0  0  0  0  0  0  0  0  0  0  0  0
   22.6660   -6.8918  -16.1333 O   0  0  0  0  0  0  0  0  0  0  0  0
   21.2600   -6.6830  -19.8859 C   0  0  0  0  0  0  0  0  0  0  0  0
   20.2942   -5.8398  -19.1127 C   0  0  1  0  0  0  0  0  0  0  0  0
   19.0635   -6.5130  -19.1104 O   0  0  0  0  0  0  0  0  0  0  0  0
   20.7000   -5.6695  -17.6664 C   0  0  2  0  0  0  0  0  0  0  0  0
   20.5481   -6.9420  -16.9880 N   0  0  0  0  0  0  0  0  0  0  0  0
   19.8708   -4.6669  -16.9684 C   0  0  0  0  0  0  0  0  0  0  0  0
   20.0898   -3.3006  -17.0564 O   0  0  0  0  0  0  0  0  0  0  0  0
   18.9165   -5.0543  -16.2561 O   0  0  0  0  0  0  0  0  0  0  0  0
  1  2  1  0
  3  2  1  0
  3  5  1  0
  3  4  1  6
  5  7  1  0
  5  6  1  1
  7  8  2  0
  7 13  1  0
 10  9  1  6
 11 10  1  0
 12 14  1  0
 12 10  1  0
 12 13  1  1
 14 15  2  0
 17 19  1  0
 17 16  1  6
 17 18  1  0
 19 20  1  1
 20 14  1  0
 21 22  1  0
 21 19  1  0
 23 21  2  0
M  END
$$$$
