ITT.pdb
     RDKit          3D

 23 22  0  0  1  0  0  0  0  0999 V2000
   19.4486  -14.9079  -16.6337 C   0  0  0  0  0  0  0  0  0  0  0  0
   19.9329  -13.4849  -16.4574 C   0  0  0  0  0  0  0  0  0  0  0  0
   18.7961  -12.5052  -16.6342 C   0  0  2  0  0  0  0  0  0  0  0  0
   18.1114  -12.7762  -17.9210 C   0  0  0  0  0  0  0  0  0  0  0  0
   19.3058  -11.1015  -16.4787 C   0  0  2  0  0  0  0  0  0  0  0  0
   20.1717  -11.0777  -15.3173 N   0  0  0  0  0  0  0  0  0  0  0  0
   18.2224  -10.1014  -16.3818 C   0  0  0  0  0  0  0  0  0  0  0  0
   17.3498   -9.9090  -17.2337 O   0  0  0  0  0  0  0  0  0  0  0  0
   15.3634   -7.5441  -13.3528 C   0  0  0  0  0  0  0  0  0  0  0  0
   16.4004   -8.5936  -13.6759 C   0  0  1  0  0  0  0  0  0  0  0  0
   15.9150   -9.8696  -13.6377 O   0  0  0  0  0  0  0  0  0  0  0  0
   17.0507   -8.3444  -15.0258 C   0  0  2  0  0  0  0  0  0  0  0  0
   18.1765   -9.2863  -15.2054 N   0  0  0  0  0  0  0  0  0  0  0  0
   17.5069   -6.9597  -15.2154 C   0  0  0  0  0  0  0  0  0  0  0  0
   18.5381   -6.5500  -14.6003 O   0  0  0  0  0  0  0  0  0  0  0  0
   15.1578   -3.9439  -17.2196 C   0  0  0  0  0  0  0  0  0  0  0  0
   16.6249   -4.0987  -17.4753 C   0  0  1  0  0  0  0  0  0  0  0  0
   17.1500   -2.8134  -17.6752 O   0  0  0  0  0  0  0  0  0  0  0  0
   17.3611   -4.6913  -16.2954 C   0  0  2  0  0  0  0  0  0  0  0  0
   16.8582   -6.0306  -16.0587 N   0  0  0  0  0  0  0  0  0  0  0  0
   17.1729   -3.8981  -15.0645 C   0  0  0  0  0  0  0  0  0  0  0  0
   17.9490   -2.7958  -14.7408 O   0  0  0  0  0  0  0  0  0  0  0  0
   16.2697   -4.2248  -14.2608 O   0  0  0  0  0  0  0  0  0  0  0  0
  1  2  1  0
  3  2  1  0
  3  5  1  0
  3  4  1  6
  5  7  1  0
  5  6  1  1
  7  8  2  0
  7 13  1  0
 10  9  1  6
 11 10  1  0
 12 14  1  0
 12 10  1  0
 12 13  1  1
 14 15  2  0
 17 19  1  0
 17 16  1  1
 17 18  1  0
 19 20  1  1
 20 14  1  0
 21 22  1  0
 21 19  1  0
 23 21  2  0
M  END
$$$$
