ITT.pdb
     RDKit          3D

 23 22  0  0  1  0  0  0  0  0999 V2000
   17.4672  -13.4566  -14.7260 C   0  0  0  0  0  0  0  0  0  0  0  0
   17.6946  -12.8554  -16.0962 C   0  0  0  0  0  0  0  0  0  0  0  0
   18.2833  -11.4684  -15.9828 C   0  0  2  0  0  0  0  0  0  0  0  0
   17.3970  -10.6270  -15.1434 C   0  0  0  0  0  0  0  0  0  0  0  0
   18.5565  -10.9183  -17.3529 C   0  0  2  0  0  0  0  0  0  0  0  0
   19.3084  -11.9189  -18.0830 N   0  0  0  0  0  0  0  0  0  0  0  0
   19.2526   -9.6153  -17.3236 C   0  0  0  0  0  0  0  0  0  0  0  0
   20.4773   -9.4601  -17.3062 O   0  0  0  0  0  0  0  0  0  0  0  0
   18.7571   -4.7087  -17.9324 C   0  0  0  0  0  0  0  0  0  0  0  0
   18.2797   -6.1298  -18.1159 C   0  0  1  0  0  0  0  0  0  0  0  0
   18.2576   -6.5334  -19.4205 O   0  0  0  0  0  0  0  0  0  0  0  0
   19.1060   -7.1100  -17.3013 C   0  0  2  0  0  0  0  0  0  0  0  0
   18.4451   -8.4328  -17.3145 N   0  0  0  0  0  0  0  0  0  0  0  0
   19.3481   -6.6728  -15.9187 C   0  0  0  0  0  0  0  0  0  0  0  0
   18.3718   -6.5651  -15.1156 O   0  0  0  0  0  0  0  0  0  0  0  0
   22.7523   -7.5282  -13.7475 C   0  0  0  0  0  0  0  0  0  0  0  0
   21.4088   -7.0881  -13.2544 C   0  0  1  0  0  0  0  0  0  0  0  0
   21.5765   -6.6376  -11.9365 O   0  0  0  0  0  0  0  0  0  0  0  0
   20.8521   -5.9256  -14.0444 C   0  0  2  0  0  0  0  0  0  0  0  0
   20.6276   -6.3569  -15.4104 N   0  0  0  0  0  0  0  0  0  0  0  0
   21.7737   -4.7723  -14.0649 C   0  0  0  0  0  0  0  0  0  0  0  0
   22.2744   -4.2163  -15.2322 O   0  0  0  0  0  0  0  0  0  0  0  0
   22.1313   -4.2583  -12.9805 O   0  0  0  0  0  0  0  0  0  0  0  0
  1  2  1  0
  3  2  1  0
  3  5  1  0
  3  4  1  6
  5  7  1  0
  5  6  1  6
  7  8  2  0
  7 13  1  0
 10  9  1  6
 11 10  1  0
 12 14  1  0
 12 10  1  0
 12 13  1  1
 14 15  2  0
 17 19  1  0
 17 16  1  6
 17 18  1  0
 19 20  1  6
 20 14  1  0
 21 22  1  0
 21 19  1  0
 23 21  2  0
M  END
$$$$
