ITT.pdb
     RDKit          3D

 23 22  0  0  1  0  0  0  0  0999 V2000
   17.5644  -14.5686  -18.4743 C   0  0  0  0  0  0  0  0  0  0  0  0
   18.7362  -13.6306  -18.2805 C   0  0  0  0  0  0  0  0  0  0  0  0
   18.2653  -12.2725  -17.8143 C   0  0  2  0  0  0  0  0  0  0  0  0
   17.2092  -11.7790  -18.7304 C   0  0  0  0  0  0  0  0  0  0  0  0
   19.4413  -11.3520  -17.6595 C   0  0  2  0  0  0  0  0  0  0  0  0
   20.4286  -12.0376  -16.8504 N   0  0  0  0  0  0  0  0  0  0  0  0
   19.0753  -10.0384  -17.0908 C   0  0  0  0  0  0  0  0  0  0  0  0
   18.2592   -9.2511  -17.5790 O   0  0  0  0  0  0  0  0  0  0  0  0
   19.2678   -9.4209  -13.0145 C   0  0  0  0  0  0  0  0  0  0  0  0
   18.5404   -8.5630  -14.0225 C   0  0  1  0  0  0  0  0  0  0  0  0
   18.1374   -7.3575  -13.5227 O   0  0  0  0  0  0  0  0  0  0  0  0
   19.3734   -8.3349  -15.2720 C   0  0  2  0  0  0  0  0  0  0  0  0
   19.7168   -9.6414  -15.8737 N   0  0  0  0  0  0  0  0  0  0  0  0
   20.5906   -7.5451  -15.0348 C   0  0  0  0  0  0  0  0  0  0  0  0
   21.6941   -8.1389  -14.8369 O   0  0  0  0  0  0  0  0  0  0  0  0
   22.9640   -3.3034  -15.7759 C   0  0  0  0  0  0  0  0  0  0  0  0
   21.7319   -4.1535  -15.8049 C   0  0  1  0  0  0  0  0  0  0  0  0
   21.5888   -4.6340  -17.1150 O   0  0  0  0  0  0  0  0  0  0  0  0
   21.8402   -5.3645  -14.9064 C   0  0  2  0  0  0  0  0  0  0  0  0
   20.6152   -6.1330  -15.0124 N   0  0  0  0  0  0  0  0  0  0  0  0
   22.0370   -4.9934  -13.4910 C   0  0  0  0  0  0  0  0  0  0  0  0
   23.2818   -4.9355  -12.8832 O   0  0  0  0  0  0  0  0  0  0  0  0
   21.0380   -4.7137  -12.7895 O   0  0  0  0  0  0  0  0  0  0  0  0
  1  2  1  0
  3  2  1  0
  3  5  1  0
  3  4  1  6
  5  7  1  0
  5  6  1  1
  7  8  2  0
  7 13  1  0
 10  9  1  1
 11 10  1  0
 12 14  1  0
 12 10  1  0
 12 13  1  1
 14 15  2  0
 17 19  1  0
 17 16  1  6
 17 18  1  0
 19 20  1  1
 20 14  1  0
 21 22  1  0
 21 19  1  0
 23 21  2  0
M  END
$$$$
