ITT.pdb
     RDKit          3D

 23 22  0  0  1  0  0  0  0  0999 V2000
   16.6305  -17.1095  -17.9556 C   0  0  0  0  0  0  0  0  0  0  0  0
   16.9121  -16.0705  -16.8918 C   0  0  0  0  0  0  0  0  0  0  0  0
   17.5446  -14.8393  -17.4981 C   0  0  2  0  0  0  0  0  0  0  0  0
   18.7337  -15.2381  -18.2888 C   0  0  0  0  0  0  0  0  0  0  0  0
   17.8170  -13.8262  -16.4240 C   0  0  2  0  0  0  0  0  0  0  0  0
   16.5764  -13.6036  -15.7093 N   0  0  0  0  0  0  0  0  0  0  0  0
   18.3869  -12.5679  -16.9485 C   0  0  0  0  0  0  0  0  0  0  0  0
   19.4314  -12.4739  -17.5999 O   0  0  0  0  0  0  0  0  0  0  0  0
   17.0988  -10.2122  -19.3711 C   0  0  0  0  0  0  0  0  0  0  0  0
   17.2660   -9.4091  -18.1030 C   0  0  1  0  0  0  0  0  0  0  0  0
   16.0896   -9.1637  -17.4538 O   0  0  0  0  0  0  0  0  0  0  0  0
   18.2402  -10.0701  -17.1432 C   0  0  2  0  0  0  0  0  0  0  0  0
   17.6731  -11.3555  -16.6820 N   0  0  0  0  0  0  0  0  0  0  0  0
   18.6004   -9.2277  -15.9933 C   0  0  0  0  0  0  0  0  0  0  0  0
   18.0815   -9.4605  -14.8592 O   0  0  0  0  0  0  0  0  0  0  0  0
   22.0676   -8.6638  -14.7600 C   0  0  0  0  0  0  0  0  0  0  0  0
   20.8179   -8.2451  -14.0497 C   0  0  1  0  0  0  0  0  0  0  0  0
   21.2056   -7.4601  -12.9537 O   0  0  0  0  0  0  0  0  0  0  0  0
   19.9227   -7.3815  -14.9090 C   0  0  2  0  0  0  0  0  0  0  0  0
   19.5093   -8.1491  -16.0676 N   0  0  0  0  0  0  0  0  0  0  0  0
   20.6082   -6.1610  -15.3785 C   0  0  0  0  0  0  0  0  0  0  0  0
   20.9733   -5.1199  -14.5387 O   0  0  0  0  0  0  0  0  0  0  0  0
   20.8811   -6.0448  -16.5951 O   0  0  0  0  0  0  0  0  0  0  0  0
  1  2  1  0
  3  2  1  0
  3  5  1  0
  3  4  1  1
  5  7  1  0
  5  6  1  6
  7  8  2  0
  7 13  1  0
 10  9  1  6
 11 10  1  0
 12 14  1  0
 12 10  1  0
 12 13  1  1
 14 15  2  0
 17 19  1  0
 17 16  1  6
 17 18  1  0
 19 20  1  6
 20 14  1  0
 21 22  1  0
 21 19  1  0
 23 21  2  0
M  END
$$$$
