ITT.pdb
     RDKit          3D

 23 22  0  0  1  0  0  0  0  0999 V2000
   20.6861  -18.1443  -15.3813 C   0  0  0  0  0  0  0  0  0  0  0  0
   20.4399  -17.3514  -16.6467 C   0  0  0  0  0  0  0  0  0  0  0  0
   21.1512  -16.0193  -16.5924 C   0  0  2  0  0  0  0  0  0  0  0  0
   20.7917  -15.3228  -15.3339 C   0  0  0  0  0  0  0  0  0  0  0  0
   20.8669  -15.2396  -17.8437 C   0  0  2  0  0  0  0  0  0  0  0  0
   21.2166  -16.0805  -18.9707 N   0  0  0  0  0  0  0  0  0  0  0  0
   21.5673  -13.9393  -17.8852 C   0  0  0  0  0  0  0  0  0  0  0  0
   22.7925  -13.7879  -17.8935 O   0  0  0  0  0  0  0  0  0  0  0  0
   22.3637  -11.7241  -20.2151 C   0  0  0  0  0  0  0  0  0  0  0  0
   21.4779  -10.8867  -19.3234 C   0  0  1  0  0  0  0  0  0  0  0  0
   20.2049  -10.7450  -19.7976 O   0  0  0  0  0  0  0  0  0  0  0  0
   21.4278  -11.4336  -17.9072 C   0  0  2  0  0  0  0  0  0  0  0  0
   20.7635  -12.7546  -17.9185 N   0  0  0  0  0  0  0  0  0  0  0  0
   20.7651  -10.5357  -16.9501 C   0  0  0  0  0  0  0  0  0  0  0  0
   19.5487  -10.7308  -16.6469 O   0  0  0  0  0  0  0  0  0  0  0  0
   21.4143   -9.9676  -13.3946 C   0  0  0  0  0  0  0  0  0  0  0  0
   21.5124   -8.6321  -14.0644 C   0  0  1  0  0  0  0  0  0  0  0  0
   22.8634   -8.4224  -14.3782 O   0  0  0  0  0  0  0  0  0  0  0  0
   20.7491   -8.5785  -15.3682 C   0  0  2  0  0  0  0  0  0  0  0  0
   21.4081   -9.4424  -16.3285 N   0  0  0  0  0  0  0  0  0  0  0  0
   20.6963   -7.2134  -15.9283 C   0  0  0  0  0  0  0  0  0  0  0  0
   19.9548   -6.1858  -15.3655 O   0  0  0  0  0  0  0  0  0  0  0  0
   21.3492   -6.9541  -16.9649 O   0  0  0  0  0  0  0  0  0  0  0  0
  1  2  1  0
  3  2  1  0
  3  5  1  0
  3  4  1  1
  5  7  1  0
  5  6  1  6
  7  8  2  0
  7 13  1  0
 10  9  1  6
 11 10  1  0
 12 14  1  0
 12 10  1  0
 12 13  1  6
 14 15  2  0
 17 19  1  0
 17 16  1  6
 17 18  1  0
 19 20  1  6
 20 14  1  0
 21 22  1  0
 21 19  1  0
 23 21  2  0
M  END
$$$$
