DTQ.pdb
     RDKit          3D

 25 24  0  0  1  0  0  0  0  0999 V2000
   10.2662  -15.4448   15.5701 N   0  0  0  0  0  0  0  0  0  0  0  0
    9.8391  -16.3898   16.6465 C   0  0  1  0  0  0  0  0  0  0  0  0
   10.7519  -17.5720   16.6158 C   0  0  0  0  0  0  0  0  0  0  0  0
   10.5193  -18.3930   15.4214 C   0  0  0  0  0  0  0  0  0  0  0  0
   10.9459  -17.9579   14.3006 O   0  0  0  0  0  0  0  0  0  0  0  0
   10.0208  -15.6738   17.9369 C   0  0  0  0  0  0  0  0  0  0  0  0
   11.1588  -15.3279   18.3148 O   0  0  0  0  0  0  0  0  0  0  0  0
    9.8737  -19.6005   15.4030 O   0  0  0  0  0  0  0  0  0  0  0  0
    7.7514  -12.7771   19.1895 C   0  0  0  0  0  0  0  0  0  0  0  0
    7.7903  -13.8660   20.2318 C   0  0  1  0  0  0  0  0  0  0  0  0
    6.6768  -14.7012   20.1918 O   0  0  0  0  0  0  0  0  0  0  0  0
    9.0368  -14.7363   20.0385 C   0  0  2  0  0  0  0  0  0  0  0  0
    8.8848  -15.3852   18.7394 N   0  0  0  0  0  0  0  0  0  0  0  0
    9.1454  -15.7000   21.1348 C   0  0  0  0  0  0  0  0  0  0  0  0
    8.7915  -16.8843   20.9771 O   0  0  0  0  0  0  0  0  0  0  0  0
   13.7016  -17.6058   23.8303 N   0  0  0  0  0  0  0  0  0  0  0  0
   12.8120  -18.0829   24.8468 C   0  0  0  0  0  0  0  0  0  0  0  0
   13.2700  -18.9008   25.6570 O   0  0  0  0  0  0  0  0  0  0  0  0
   11.4397  -17.5477   24.8161 C   0  0  0  0  0  0  0  0  0  0  0  0
   11.2249  -16.5016   23.7834 C   0  0  0  0  0  0  0  0  0  0  0  0
    9.7634  -16.2494   23.4954 C   0  0  2  0  0  0  0  0  0  0  0  0
    9.6594  -15.2737   22.3887 N   0  0  0  0  0  0  0  0  0  0  0  0
    9.0532  -15.7112   24.6645 C   0  0  0  0  0  0  0  0  0  0  0  0
    8.5158  -14.4565   24.7619 O   0  0  0  0  0  0  0  0  0  0  0  0
    8.9075  -16.4544   25.6995 O   0  0  0  0  0  0  0  0  0  0  0  0
  2  3  1  0
  2  1  1  6
  3  4  1  0
  4  8  1  0
  4  5  2  0
  6  2  1  0
  7  6  2  0
 10  9  1  6
 10 12  1  0
 11 10  1  0
 12 13  1  6
 13  6  1  0
 14 12  1  0
 14 15  2  0
 16 17  1  0
 17 18  2  0
 19 17  1  0
 19 20  1  0
 21 20  1  1
 21 22  1  0
 22 14  1  0
 23 21  1  0
 24 23  1  0
 25 23  2  0
M  END
$$$$
