DTQ.pdb
     RDKit          3D

 25 24  0  0  1  0  0  0  0  0999 V2000
    9.0060  -15.0337   15.0272 N   0  0  0  0  0  0  0  0  0  0  0  0
    9.1298  -16.0442   16.1215 C   0  0  1  0  0  0  0  0  0  0  0  0
   10.2027  -17.0118   15.7412 C   0  0  0  0  0  0  0  0  0  0  0  0
    9.8206  -17.7916   14.5576 C   0  0  0  0  0  0  0  0  0  0  0  0
    8.6385  -18.2685   14.5081 O   0  0  0  0  0  0  0  0  0  0  0  0
    9.5581  -15.3031   17.3373 C   0  0  0  0  0  0  0  0  0  0  0  0
   10.6144  -14.6384   17.3351 O   0  0  0  0  0  0  0  0  0  0  0  0
   10.6329  -18.0583   13.4880 O   0  0  0  0  0  0  0  0  0  0  0  0
    7.7573  -12.7003   19.2493 C   0  0  0  0  0  0  0  0  0  0  0  0
    7.9836  -13.8492   20.1993 C   0  0  1  0  0  0  0  0  0  0  0  0
    6.8821  -14.6943   20.3075 O   0  0  0  0  0  0  0  0  0  0  0  0
    9.1768  -14.6908   19.7339 C   0  0  2  0  0  0  0  0  0  0  0  0
    8.7526  -15.3575   18.5061 N   0  0  0  0  0  0  0  0  0  0  0  0
    9.5553  -15.6393   20.7823 C   0  0  0  0  0  0  0  0  0  0  0  0
    9.2087  -16.8342   20.7134 O   0  0  0  0  0  0  0  0  0  0  0  0
   15.6274  -17.4580   23.3518 N   0  0  0  0  0  0  0  0  0  0  0  0
   14.6355  -16.4244   23.3692 C   0  0  0  0  0  0  0  0  0  0  0  0
   15.0299  -15.2694   23.5827 O   0  0  0  0  0  0  0  0  0  0  0  0
   13.2453  -16.8508   23.1324 C   0  0  0  0  0  0  0  0  0  0  0  0
   12.2505  -15.7543   23.2557 C   0  0  0  0  0  0  0  0  0  0  0  0
   10.8572  -16.1746   22.8499 C   0  0  2  0  0  0  0  0  0  0  0  0
   10.3250  -15.1861   21.8871 N   0  0  0  0  0  0  0  0  0  0  0  0
    9.9442  -16.2495   23.9994 C   0  0  0  0  0  0  0  0  0  0  0  0
    9.9596  -17.2168   24.9672 O   0  0  0  0  0  0  0  0  0  0  0  0
    9.0431  -15.3472   24.1372 O   0  0  0  0  0  0  0  0  0  0  0  0
  2  3  1  0
  2  1  1  6
  3  4  1  0
  4  8  1  0
  4  5  2  0
  6  2  1  0
  7  6  2  0
 10  9  1  6
 10 12  1  0
 11 10  1  0
 12 13  1  6
 13  6  1  0
 14 12  1  0
 14 15  2  0
 16 17  1  0
 17 18  2  0
 19 17  1  0
 19 20  1  0
 21 20  1  1
 21 22  1  0
 22 14  1  0
 23 21  1  0
 24 23  1  0
 25 23  2  0
M  END
$$$$
