DTQ.pdb
     RDKit          3D

 25 24  0  0  1  0  0  0  0  0999 V2000
   11.7546  -17.0121   18.5571 N   0  0  0  0  0  0  0  0  0  0  0  0
   11.0572  -17.5519   19.7638 C   0  0  1  0  0  0  0  0  0  0  0  0
   12.0723  -18.2379   20.6188 C   0  0  0  0  0  0  0  0  0  0  0  0
   12.5236  -19.4930   20.0057 C   0  0  0  0  0  0  0  0  0  0  0  0
   12.0971  -19.7787   18.8379 O   0  0  0  0  0  0  0  0  0  0  0  0
   10.5179  -16.3796   20.5025 C   0  0  0  0  0  0  0  0  0  0  0  0
   11.2423  -15.3912   20.7384 O   0  0  0  0  0  0  0  0  0  0  0  0
   13.3718  -20.3983   20.5855 O   0  0  0  0  0  0  0  0  0  0  0  0
    7.1894  -14.4009   19.9707 C   0  0  0  0  0  0  0  0  0  0  0  0
    7.2007  -15.0792   21.3174 C   0  0  1  0  0  0  0  0  0  0  0  0
    6.5461  -16.3083   21.3160 O   0  0  0  0  0  0  0  0  0  0  0  0
    8.6437  -15.3166   21.7758 C   0  0  2  0  0  0  0  0  0  0  0  0
    9.1663  -16.3933   20.9394 N   0  0  0  0  0  0  0  0  0  0  0  0
    8.6637  -15.6555   23.1995 C   0  0  0  0  0  0  0  0  0  0  0  0
    9.0671  -16.7709   23.5815 O   0  0  0  0  0  0  0  0  0  0  0  0
    6.7253  -11.7222   27.7017 N   0  0  0  0  0  0  0  0  0  0  0  0
    5.7755  -12.4818   26.9445 C   0  0  0  0  0  0  0  0  0  0  0  0
    4.6007  -12.0884   26.9585 O   0  0  0  0  0  0  0  0  0  0  0  0
    6.3023  -13.6572   26.2292 C   0  0  0  0  0  0  0  0  0  0  0  0
    7.7680  -13.8465   26.3805 C   0  0  0  0  0  0  0  0  0  0  0  0
    8.2947  -15.0220   25.5909 C   0  0  2  0  0  0  0  0  0  0  0  0
    8.2166  -14.6987   24.1497 N   0  0  0  0  0  0  0  0  0  0  0  0
    7.5221  -16.2475   25.8399 C   0  0  0  0  0  0  0  0  0  0  0  0
    7.7218  -17.1181   26.8767 O   0  0  0  0  0  0  0  0  0  0  0  0
    6.5727  -16.5580   25.0354 O   0  0  0  0  0  0  0  0  0  0  0  0
  2  3  1  0
  2  1  1  6
  3  4  1  0
  4  8  1  0
  4  5  2  0
  6  2  1  0
  7  6  2  0
 10  9  1  6
 10 12  1  0
 11 10  1  0
 12 13  1  6
 13  6  1  0
 14 12  1  0
 14 15  2  0
 16 17  1  0
 17 18  2  0
 19 17  1  0
 19 20  1  0
 21 20  1  1
 21 22  1  0
 22 14  1  0
 23 21  1  0
 24 23  1  0
 25 23  2  0
M  END
$$$$
