DTQ.pdb
     RDKit          3D

 25 24  0  0  1  0  0  0  0  0999 V2000
   11.5674  -16.7009   17.2310 N   0  0  0  0  0  0  0  0  0  0  0  0
   10.3755  -17.0871   18.0459 C   0  0  1  0  0  0  0  0  0  0  0  0
   10.5473  -18.5074   18.4760 C   0  0  0  0  0  0  0  0  0  0  0  0
   10.9051  -19.3673   17.3414 C   0  0  0  0  0  0  0  0  0  0  0  0
   11.0535  -18.8223   16.1976 O   0  0  0  0  0  0  0  0  0  0  0  0
   10.3835  -16.2145   19.2498 C   0  0  0  0  0  0  0  0  0  0  0  0
   11.4525  -15.7306   19.6746 O   0  0  0  0  0  0  0  0  0  0  0  0
   11.0940  -20.7222   17.4024 O   0  0  0  0  0  0  0  0  0  0  0  0
    7.8869  -13.3918   20.0993 C   0  0  0  0  0  0  0  0  0  0  0  0
    7.8707  -14.3977   21.2224 C   0  0  1  0  0  0  0  0  0  0  0  0
    6.7887  -15.2719   21.1579 O   0  0  0  0  0  0  0  0  0  0  0  0
    9.1533  -15.2361   21.1975 C   0  0  2  0  0  0  0  0  0  0  0  0
    9.1601  -15.9347   19.9154 N   0  0  0  0  0  0  0  0  0  0  0  0
    9.1678  -16.1567   22.3353 C   0  0  0  0  0  0  0  0  0  0  0  0
    8.7600  -17.3275   22.2105 O   0  0  0  0  0  0  0  0  0  0  0  0
   10.6928  -21.0100   25.3809 N   0  0  0  0  0  0  0  0  0  0  0  0
   11.4942  -20.0305   24.7095 C   0  0  0  0  0  0  0  0  0  0  0  0
   12.2110  -20.4301   23.7812 O   0  0  0  0  0  0  0  0  0  0  0  0
   11.3799  -18.6463   25.2009 C   0  0  0  0  0  0  0  0  0  0  0  0
   10.9584  -17.6719   24.1617 C   0  0  0  0  0  0  0  0  0  0  0  0
    9.9225  -16.6912   24.6593 C   0  0  2  0  0  0  0  0  0  0  0  0
    9.6523  -15.7039   23.5917 N   0  0  0  0  0  0  0  0  0  0  0  0
   10.3715  -15.9729   25.8606 C   0  0  0  0  0  0  0  0  0  0  0  0
   10.6166  -14.6290   25.9401 O   0  0  0  0  0  0  0  0  0  0  0  0
   10.5604  -16.6320   26.9445 O   0  0  0  0  0  0  0  0  0  0  0  0
  2  3  1  0
  2  1  1  6
  3  4  1  0
  4  8  1  0
  4  5  2  0
  6  2  1  0
  7  6  2  0
 10  9  1  6
 10 12  1  0
 11 10  1  0
 12 13  1  6
 13  6  1  0
 14 12  1  0
 14 15  2  0
 16 17  1  0
 17 18  2  0
 19 17  1  0
 19 20  1  0
 21 20  1  6
 21 22  1  0
 22 14  1  0
 23 21  1  0
 24 23  1  0
 25 23  2  0
M  END
$$$$
