DTQ.pdb
     RDKit          3D

 25 24  0  0  1  0  0  0  0  0999 V2000
   12.4087  -16.3121   18.3694 N   0  0  0  0  0  0  0  0  0  0  0  0
   13.3067  -15.4851   19.2319 C   0  0  1  0  0  0  0  0  0  0  0  0
   13.8050  -14.3366   18.4168 C   0  0  0  0  0  0  0  0  0  0  0  0
   14.8662  -14.7594   17.4948 C   0  0  0  0  0  0  0  0  0  0  0  0
   15.9345  -14.0638   17.4486 O   0  0  0  0  0  0  0  0  0  0  0  0
   12.4657  -14.9605   20.3403 C   0  0  0  0  0  0  0  0  0  0  0  0
   12.9213  -14.1129   21.1349 O   0  0  0  0  0  0  0  0  0  0  0  0
   14.8091  -15.8483   16.6665 O   0  0  0  0  0  0  0  0  0  0  0  0
    8.4093  -14.4420   20.0911 C   0  0  0  0  0  0  0  0  0  0  0  0
    8.8603  -15.3216   21.2296 C   0  0  1  0  0  0  0  0  0  0  0  0
    8.7967  -16.6799   20.9295 O   0  0  0  0  0  0  0  0  0  0  0  0
   10.3083  -14.9922   21.6085 C   0  0  2  0  0  0  0  0  0  0  0  0
   11.1344  -15.4334   20.4884 N   0  0  0  0  0  0  0  0  0  0  0  0
   10.6598  -15.6641   22.8604 C   0  0  0  0  0  0  0  0  0  0  0  0
   11.3745  -16.6848   22.8547 O   0  0  0  0  0  0  0  0  0  0  0  0
    9.5641  -13.3006   28.6258 N   0  0  0  0  0  0  0  0  0  0  0  0
   10.3250  -14.4699   28.9515 C   0  0  0  0  0  0  0  0  0  0  0  0
   10.6057  -14.6442   30.1457 O   0  0  0  0  0  0  0  0  0  0  0  0
   10.6955  -15.3420   27.8233 C   0  0  0  0  0  0  0  0  0  0  0  0
   10.2541  -14.8330   26.4993 C   0  0  0  0  0  0  0  0  0  0  0  0
   10.6303  -15.7512   25.3600 C   0  0  2  0  0  0  0  0  0  0  0  0
   10.1773  -15.1423   24.0905 N   0  0  0  0  0  0  0  0  0  0  0  0
   10.0126  -17.0786   25.4910 C   0  0  0  0  0  0  0  0  0  0  0  0
   10.6376  -18.2062   25.9496 O   0  0  0  0  0  0  0  0  0  0  0  0
    8.7840  -17.2283   25.1548 O   0  0  0  0  0  0  0  0  0  0  0  0
  2  3  1  0
  2  1  1  6
  3  4  1  0
  4  8  1  0
  4  5  2  0
  6  2  1  0
  7  6  2  0
 10  9  1  6
 10 12  1  0
 11 10  1  0
 12 13  1  6
 13  6  1  0
 14 12  1  0
 14 15  2  0
 16 17  1  0
 17 18  2  0
 19 17  1  0
 19 20  1  0
 21 20  1  1
 21 22  1  0
 22 14  1  0
 23 21  1  0
 24 23  1  0
 25 23  2  0
M  END
$$$$
