DTQ.pdb
     RDKit          3D

 25 24  0  0  1  0  0  0  0  0999 V2000
   11.7626  -14.5869   17.6597 N   0  0  0  0  0  0  0  0  0  0  0  0
   11.8740  -15.4662   18.8632 C   0  0  1  0  0  0  0  0  0  0  0  0
   13.3244  -15.6939   19.1396 C   0  0  0  0  0  0  0  0  0  0  0  0
   13.9460  -16.5047   18.0855 C   0  0  0  0  0  0  0  0  0  0  0  0
   14.1478  -17.7423   18.3195 O   0  0  0  0  0  0  0  0  0  0  0  0
   11.2800  -14.7105   19.9977 C   0  0  0  0  0  0  0  0  0  0  0  0
   11.8495  -13.6969   20.4512 O   0  0  0  0  0  0  0  0  0  0  0  0
   14.3360  -16.0431   16.8567 O   0  0  0  0  0  0  0  0  0  0  0  0
    7.9490  -13.0922   20.1702 C   0  0  0  0  0  0  0  0  0  0  0  0
    7.9880  -14.1517   21.2423 C   0  0  1  0  0  0  0  0  0  0  0  0
    7.4309  -15.3615   20.8359 O   0  0  0  0  0  0  0  0  0  0  0  0
    9.4363  -14.4206   21.6651 C   0  0  2  0  0  0  0  0  0  0  0  0
   10.0544  -15.1528   20.5636 N   0  0  0  0  0  0  0  0  0  0  0  0
    9.4562  -15.1759   22.9187 C   0  0  0  0  0  0  0  0  0  0  0  0
    9.7192  -16.3939   22.9225 O   0  0  0  0  0  0  0  0  0  0  0  0
   10.5680  -13.3920   28.6111 N   0  0  0  0  0  0  0  0  0  0  0  0
    9.8864  -14.6279   28.8566 C   0  0  0  0  0  0  0  0  0  0  0  0
   10.2110  -15.2575   29.8732 O   0  0  0  0  0  0  0  0  0  0  0  0
    8.8690  -15.0195   27.8655 C   0  0  0  0  0  0  0  0  0  0  0  0
    9.0068  -14.3295   26.5571 C   0  0  0  0  0  0  0  0  0  0  0  0
    9.1199  -15.2880   25.3947 C   0  0  2  0  0  0  0  0  0  0  0  0
    9.1711  -14.5074   24.1394 N   0  0  0  0  0  0  0  0  0  0  0  0
    7.9797  -16.2131   25.3264 C   0  0  0  0  0  0  0  0  0  0  0  0
    7.9014  -17.4283   25.9508 O   0  0  0  0  0  0  0  0  0  0  0  0
    6.9539  -15.8849   24.6300 O   0  0  0  0  0  0  0  0  0  0  0  0
  2  3  1  0
  2  1  1  6
  3  4  1  0
  4  8  1  0
  4  5  2  0
  6  2  1  0
  7  6  2  0
 10  9  1  6
 10 12  1  0
 11 10  1  0
 12 13  1  6
 13  6  1  0
 14 12  1  0
 14 15  2  0
 16 17  1  0
 17 18  2  0
 19 17  1  0
 19 20  1  0
 21 20  1  1
 21 22  1  0
 22 14  1  0
 23 21  1  0
 24 23  1  0
 25 23  2  0
M  END
$$$$
