DTQ.pdb
     RDKit          3D

 25 24  0  0  1  0  0  0  0  0999 V2000
   11.7395  -15.5007   18.2004 N   0  0  0  0  0  0  0  0  0  0  0  0
   12.8038  -15.2762   19.2255 C   0  0  1  0  0  0  0  0  0  0  0  0
   13.6944  -14.1803   18.7380 C   0  0  0  0  0  0  0  0  0  0  0  0
   14.5745  -14.6495   17.6608 C   0  0  0  0  0  0  0  0  0  0  0  0
   14.6062  -15.9003   17.4125 O   0  0  0  0  0  0  0  0  0  0  0  0
   12.1135  -14.8222   20.4618 C   0  0  0  0  0  0  0  0  0  0  0  0
   12.7664  -14.3529   21.4162 O   0  0  0  0  0  0  0  0  0  0  0  0
   15.3775  -13.8524   16.8895 O   0  0  0  0  0  0  0  0  0  0  0  0
    8.2635  -13.3559   20.4608 C   0  0  0  0  0  0  0  0  0  0  0  0
    8.5120  -14.4926   21.4199 C   0  0  1  0  0  0  0  0  0  0  0  0
    8.1365  -15.7319   20.9079 O   0  0  0  0  0  0  0  0  0  0  0  0
   10.0004  -14.5642   21.7779 C   0  0  2  0  0  0  0  0  0  0  0  0
   10.6995  -14.9272   20.5486 N   0  0  0  0  0  0  0  0  0  0  0  0
   10.2080  -15.5413   22.8477 C   0  0  0  0  0  0  0  0  0  0  0  0
   10.5483  -16.7104   22.5832 O   0  0  0  0  0  0  0  0  0  0  0  0
   10.4047  -14.2636   29.0623 N   0  0  0  0  0  0  0  0  0  0  0  0
    9.1509  -14.1742   28.3750 C   0  0  0  0  0  0  0  0  0  0  0  0
    8.2436  -13.5462   28.9385 O   0  0  0  0  0  0  0  0  0  0  0  0
    9.0758  -14.8453   27.0655 C   0  0  0  0  0  0  0  0  0  0  0  0
   10.3761  -15.3841   26.5901 C   0  0  0  0  0  0  0  0  0  0  0  0
   10.2623  -16.1261   25.2791 C   0  0  2  0  0  0  0  0  0  0  0  0
   10.0171  -15.1460   24.1989 N   0  0  0  0  0  0  0  0  0  0  0  0
    9.1620  -17.1008   25.2877 C   0  0  0  0  0  0  0  0  0  0  0  0
    7.9881  -16.9830   24.5945 O   0  0  0  0  0  0  0  0  0  0  0  0
    9.2790  -18.1638   25.9958 O   0  0  0  0  0  0  0  0  0  0  0  0
  2  3  1  0
  2  1  1  6
  3  4  1  0
  4  8  1  0
  4  5  2  0
  6  2  1  0
  7  6  2  0
 10  9  1  6
 10 12  1  0
 11 10  1  0
 12 13  1  6
 13  6  1  0
 14 12  1  0
 14 15  2  0
 16 17  1  0
 17 18  2  0
 19 17  1  0
 19 20  1  0
 21 20  1  1
 21 22  1  0
 22 14  1  0
 23 21  1  0
 24 23  1  0
 25 23  2  0
M  END
$$$$
