DTQ.pdb
     RDKit          3D

 25 24  0  0  1  0  0  0  0  0999 V2000
   13.7247  -18.9313   21.0254 N   0  0  0  0  0  0  0  0  0  0  0  0
   14.2560  -17.5725   21.3501 C   0  0  1  0  0  0  0  0  0  0  0  0
   14.3734  -16.8029   20.0750 C   0  0  0  0  0  0  0  0  0  0  0  0
   15.6985  -16.9777   19.4681 C   0  0  0  0  0  0  0  0  0  0  0  0
   16.7028  -17.1056   20.2442 O   0  0  0  0  0  0  0  0  0  0  0  0
   13.2423  -16.9163   22.2176 C   0  0  0  0  0  0  0  0  0  0  0  0
   13.3719  -15.7207   22.5508 O   0  0  0  0  0  0  0  0  0  0  0  0
   15.9561  -17.0138   18.1237 O   0  0  0  0  0  0  0  0  0  0  0  0
    9.2779  -17.6605   21.8656 C   0  0  0  0  0  0  0  0  0  0  0  0
    9.8102  -17.8662   23.2613 C   0  0  1  0  0  0  0  0  0  0  0  0
   10.1239  -19.1948   23.5365 O   0  0  0  0  0  0  0  0  0  0  0  0
   11.0785  -17.0317   23.4700 C   0  0  2  0  0  0  0  0  0  0  0  0
   12.1205  -17.6637   22.6660 N   0  0  0  0  0  0  0  0  0  0  0  0
   11.4185  -16.9912   24.8930 C   0  0  0  0  0  0  0  0  0  0  0  0
   12.3869  -17.6400   25.3336 O   0  0  0  0  0  0  0  0  0  0  0  0
    8.3227  -13.1336   28.2839 N   0  0  0  0  0  0  0  0  0  0  0  0
    9.5376  -12.6790   27.6760 C   0  0  0  0  0  0  0  0  0  0  0  0
    9.6244  -11.4681   27.4284 O   0  0  0  0  0  0  0  0  0  0  0  0
   10.5572  -13.7080   27.4075 C   0  0  0  0  0  0  0  0  0  0  0  0
   10.1784  -15.0666   27.8743 C   0  0  0  0  0  0  0  0  0  0  0  0
   10.9806  -16.1621   27.2119 C   0  0  2  0  0  0  0  0  0  0  0  0
   10.6318  -16.2029   25.7751 N   0  0  0  0  0  0  0  0  0  0  0  0
   10.7073  -17.4815   27.7993 C   0  0  0  0  0  0  0  0  0  0  0  0
   11.3037  -17.9938   28.9193 O   0  0  0  0  0  0  0  0  0  0  0  0
    9.8417  -18.2441   27.2388 O   0  0  0  0  0  0  0  0  0  0  0  0
  2  3  1  0
  2  1  1  6
  3  4  1  0
  4  8  1  0
  4  5  2  0
  6  2  1  0
  7  6  2  0
 10  9  1  6
 10 12  1  0
 11 10  1  0
 12 13  1  6
 13  6  1  0
 14 12  1  0
 14 15  2  0
 16 17  1  0
 17 18  2  0
 19 17  1  0
 19 20  1  0
 21 20  1  1
 21 22  1  0
 22 14  1  0
 23 21  1  0
 24 23  1  0
 25 23  2  0
M  END
$$$$
