DTQ.pdb
     RDKit          3D

 25 24  0  0  1  0  0  0  0  0999 V2000
   12.1047  -14.4748   17.0943 N   0  0  0  0  0  0  0  0  0  0  0  0
   12.3357  -15.0362   18.4601 C   0  0  1  0  0  0  0  0  0  0  0  0
   13.7369  -14.7121   18.8646 C   0  0  0  0  0  0  0  0  0  0  0  0
   14.7096  -15.4664   18.0648 C   0  0  0  0  0  0  0  0  0  0  0  0
   15.5872  -14.8110   17.4110 O   0  0  0  0  0  0  0  0  0  0  0  0
   11.3957  -14.3331   19.3727 C   0  0  0  0  0  0  0  0  0  0  0  0
   11.4498  -13.0934   19.5058 O   0  0  0  0  0  0  0  0  0  0  0  0
   14.7574  -16.8305   17.9548 O   0  0  0  0  0  0  0  0  0  0  0  0
    7.8937  -13.6825   19.4751 C   0  0  0  0  0  0  0  0  0  0  0  0
    8.1533  -14.5971   20.6453 C   0  0  1  0  0  0  0  0  0  0  0  0
    7.9344  -15.9400   20.3488 O   0  0  0  0  0  0  0  0  0  0  0  0
    9.6043  -14.4512   21.1165 C   0  0  2  0  0  0  0  0  0  0  0  0
   10.4317  -15.0862   20.0948 N   0  0  0  0  0  0  0  0  0  0  0  0
    9.7651  -15.0734   22.4315 C   0  0  0  0  0  0  0  0  0  0  0  0
   10.2778  -16.2038   22.5412 O   0  0  0  0  0  0  0  0  0  0  0  0
    9.6657  -13.8291   29.7144 N   0  0  0  0  0  0  0  0  0  0  0  0
    9.1729  -13.4883   28.4132 C   0  0  0  0  0  0  0  0  0  0  0  0
    8.6416  -12.3762   28.2859 O   0  0  0  0  0  0  0  0  0  0  0  0
    9.3503  -14.5051   27.3618 C   0  0  0  0  0  0  0  0  0  0  0  0
    9.1762  -13.9811   25.9826 C   0  0  0  0  0  0  0  0  0  0  0  0
    9.5099  -15.0005   24.9187 C   0  0  2  0  0  0  0  0  0  0  0  0
    9.3291  -14.3763   23.5901 N   0  0  0  0  0  0  0  0  0  0  0  0
    8.6487  -16.1889   25.0004 C   0  0  0  0  0  0  0  0  0  0  0  0
    7.4694  -16.3657   24.3291 O   0  0  0  0  0  0  0  0  0  0  0  0
    9.0025  -17.1620   25.7573 O   0  0  0  0  0  0  0  0  0  0  0  0
  2  3  1  0
  2  1  1  6
  3  4  1  0
  4  8  1  0
  4  5  2  0
  6  2  1  0
  7  6  2  0
 10  9  1  6
 10 12  1  0
 11 10  1  0
 12 13  1  6
 13  6  1  0
 14 12  1  0
 14 15  2  0
 16 17  1  0
 17 18  2  0
 19 17  1  0
 19 20  1  0
 21 20  1  1
 21 22  1  0
 22 14  1  0
 23 21  1  0
 24 23  1  0
 25 23  2  0
M  END
$$$$
