DTQ.pdb
     RDKit          3D

 25 24  0  0  1  0  0  0  0  0999 V2000
    9.1127  -16.5593   17.2116 N   0  0  0  0  0  0  0  0  0  0  0  0
   10.2108  -17.0880   18.0768 C   0  0  1  0  0  0  0  0  0  0  0  0
   11.4972  -16.9527   17.3292 C   0  0  0  0  0  0  0  0  0  0  0  0
   11.5116  -17.8078   16.1360 C   0  0  0  0  0  0  0  0  0  0  0  0
   10.9640  -17.3647   15.0725 O   0  0  0  0  0  0  0  0  0  0  0  0
   10.2593  -16.2172   19.2810 C   0  0  0  0  0  0  0  0  0  0  0  0
   11.3369  -15.7091   19.6526 O   0  0  0  0  0  0  0  0  0  0  0  0
   12.0665  -19.0575   16.0632 O   0  0  0  0  0  0  0  0  0  0  0  0
    7.7353  -13.4328   20.2604 C   0  0  0  0  0  0  0  0  0  0  0  0
    7.7949  -14.4573   21.3651 C   0  0  1  0  0  0  0  0  0  0  0  0
    6.7421  -15.3678   21.3238 O   0  0  0  0  0  0  0  0  0  0  0  0
    9.1040  -15.2495   21.2791 C   0  0  2  0  0  0  0  0  0  0  0  0
    9.0649  -15.9669   20.0081 N   0  0  0  0  0  0  0  0  0  0  0  0
    9.2156  -16.1516   22.4263 C   0  0  0  0  0  0  0  0  0  0  0  0
    8.9368  -17.3608   22.3132 O   0  0  0  0  0  0  0  0  0  0  0  0
   13.1707  -19.3678   27.1398 N   0  0  0  0  0  0  0  0  0  0  0  0
   12.8825  -18.4075   26.1165 C   0  0  0  0  0  0  0  0  0  0  0  0
   13.8310  -18.0331   25.4127 O   0  0  0  0  0  0  0  0  0  0  0  0
   11.4810  -17.9651   26.0134 C   0  0  0  0  0  0  0  0  0  0  0  0
   11.2248  -17.0368   24.8822 C   0  0  0  0  0  0  0  0  0  0  0  0
    9.7930  -16.5580   24.8259 C   0  0  2  0  0  0  0  0  0  0  0  0
    9.6457  -15.6364   23.6785 N   0  0  0  0  0  0  0  0  0  0  0  0
    9.3971  -15.8493   26.0514 C   0  0  0  0  0  0  0  0  0  0  0  0
    9.0400  -14.5306   26.1289 O   0  0  0  0  0  0  0  0  0  0  0  0
    9.3742  -16.4920   27.1611 O   0  0  0  0  0  0  0  0  0  0  0  0
  2  3  1  0
  2  1  1  6
  3  4  1  0
  4  8  1  0
  4  5  2  0
  6  2  1  0
  7  6  2  0
 10  9  1  6
 10 12  1  0
 11 10  1  0
 12 13  1  6
 13  6  1  0
 14 12  1  0
 14 15  2  0
 16 17  1  0
 17 18  2  0
 19 17  1  0
 19 20  1  0
 21 20  1  1
 21 22  1  0
 22 14  1  0
 23 21  1  0
 24 23  1  0
 25 23  2  0
M  END
$$$$
