DTQ.pdb
     RDKit          3D

 25 24  0  0  1  0  0  0  0  0999 V2000
    8.3180  -16.4433   15.2469 N   0  0  0  0  0  0  0  0  0  0  0  0
    7.8876  -16.9092   16.6003 C   0  0  1  0  0  0  0  0  0  0  0  0
    8.2647  -18.3482   16.7378 C   0  0  0  0  0  0  0  0  0  0  0  0
    7.4935  -19.1907   15.8157 C   0  0  0  0  0  0  0  0  0  0  0  0
    8.1340  -19.8920   14.9641 O   0  0  0  0  0  0  0  0  0  0  0  0
    8.6603  -16.1119   17.5894 C   0  0  0  0  0  0  0  0  0  0  0  0
    9.8722  -15.8773   17.4062 O   0  0  0  0  0  0  0  0  0  0  0  0
    6.1281  -19.2901   15.7866 O   0  0  0  0  0  0  0  0  0  0  0  0
    7.3666  -12.8633   19.5323 C   0  0  0  0  0  0  0  0  0  0  0  0
    7.7637  -13.9730   20.4727 C   0  0  1  0  0  0  0  0  0  0  0  0
    6.6822  -14.7358   20.9059 O   0  0  0  0  0  0  0  0  0  0  0  0
    8.7576  -14.9157   19.7856 C   0  0  2  0  0  0  0  0  0  0  0  0
    8.0058  -15.6172   18.7491 N   0  0  0  0  0  0  0  0  0  0  0  0
    9.3378  -15.8300   20.7703 C   0  0  0  0  0  0  0  0  0  0  0  0
    8.8812  -16.9803   20.9157 O   0  0  0  0  0  0  0  0  0  0  0  0
   15.3951  -16.8592   24.8610 N   0  0  0  0  0  0  0  0  0  0  0  0
   14.7512  -16.4309   23.6551 C   0  0  0  0  0  0  0  0  0  0  0  0
   15.4297  -15.7647   22.8607 O   0  0  0  0  0  0  0  0  0  0  0  0
   13.3424  -16.8296   23.4910 C   0  0  0  0  0  0  0  0  0  0  0  0
   12.5687  -15.9449   22.5824 C   0  0  0  0  0  0  0  0  0  0  0  0
   11.1268  -16.3705   22.4327 C   0  0  2  0  0  0  0  0  0  0  0  0
   10.4317  -15.3947   21.5654 N   0  0  0  0  0  0  0  0  0  0  0  0
   10.4297  -16.4303   23.7254 C   0  0  0  0  0  0  0  0  0  0  0  0
    9.5121  -15.5218   24.1783 O   0  0  0  0  0  0  0  0  0  0  0  0
   10.6799  -17.4039   24.5220 O   0  0  0  0  0  0  0  0  0  0  0  0
  2  3  1  0
  2  1  1  6
  3  4  1  0
  4  8  1  0
  4  5  2  0
  6  2  1  0
  7  6  2  0
 10  9  1  6
 10 12  1  0
 11 10  1  0
 12 13  1  6
 13  6  1  0
 14 12  1  0
 14 15  2  0
 16 17  1  0
 17 18  2  0
 19 17  1  0
 19 20  1  0
 21 20  1  1
 21 22  1  0
 22 14  1  0
 23 21  1  0
 24 23  1  0
 25 23  2  0
M  END
$$$$
