DTQ.pdb
     RDKit          3D

 25 24  0  0  1  0  0  0  0  0999 V2000
    9.6388  -16.4393   16.8622 N   0  0  0  0  0  0  0  0  0  0  0  0
    9.4504  -15.0116   16.4620 C   0  0  1  0  0  0  0  0  0  0  0  0
    8.2935  -14.9423   15.5194 C   0  0  0  0  0  0  0  0  0  0  0  0
    8.5473  -15.7296   14.3067 C   0  0  0  0  0  0  0  0  0  0  0  0
    9.7593  -15.9285   13.9621 O   0  0  0  0  0  0  0  0  0  0  0  0
    9.1079  -14.2649   17.7013 C   0  0  0  0  0  0  0  0  0  0  0  0
    8.6083  -13.1231   17.6355 O   0  0  0  0  0  0  0  0  0  0  0  0
    7.5846  -16.2750   13.4998 O   0  0  0  0  0  0  0  0  0  0  0  0
    6.9588  -13.2930   19.0216 C   0  0  0  0  0  0  0  0  0  0  0  0
    7.4355  -14.1194   20.1892 C   0  0  1  0  0  0  0  0  0  0  0  0
    6.9535  -15.4257   20.1675 O   0  0  0  0  0  0  0  0  0  0  0  0
    8.9666  -14.1844   20.1988 C   0  0  2  0  0  0  0  0  0  0  0  0
    9.3546  -14.8633   18.9658 N   0  0  0  0  0  0  0  0  0  0  0  0
    9.4268  -14.8919   21.3945 C   0  0  0  0  0  0  0  0  0  0  0  0
    9.0794  -14.5135   22.5298 O   0  0  0  0  0  0  0  0  0  0  0  0
   11.1630  -21.0718   21.6049 N   0  0  0  0  0  0  0  0  0  0  0  0
   10.9042  -20.0783   20.6057 C   0  0  0  0  0  0  0  0  0  0  0  0
   11.1532  -20.3833   19.4309 O   0  0  0  0  0  0  0  0  0  0  0  0
   10.3691  -18.7930   21.0875 C   0  0  0  0  0  0  0  0  0  0  0  0
   11.2577  -18.0948   22.0518 C   0  0  0  0  0  0  0  0  0  0  0  0
   10.7321  -16.7392   22.4622 C   0  0  2  0  0  0  0  0  0  0  0  0
   10.2787  -16.0198   21.2521 N   0  0  0  0  0  0  0  0  0  0  0  0
   11.7570  -15.9278   23.1346 C   0  0  0  0  0  0  0  0  0  0  0  0
   12.2505  -16.1497   24.3915 O   0  0  0  0  0  0  0  0  0  0  0  0
   12.2521  -14.9173   22.5191 O   0  0  0  0  0  0  0  0  0  0  0  0
  2  3  1  0
  2  1  1  1
  3  4  1  0
  4  8  1  0
  4  5  2  0
  6  2  1  0
  7  6  2  0
 10  9  1  6
 10 12  1  0
 11 10  1  0
 12 13  1  6
 13  6  1  0
 14 12  1  0
 14 15  2  0
 16 17  1  0
 17 18  2  0
 19 17  1  0
 19 20  1  0
 21 20  1  6
 21 22  1  0
 22 14  1  0
 23 21  1  0
 24 23  1  0
 25 23  2  0
M  END
$$$$
