DTQ.pdb
     RDKit          3D

 25 24  0  0  1  0  0  0  0  0999 V2000
   10.2691  -18.5662   19.0886 N   0  0  0  0  0  0  0  0  0  0  0  0
   11.4561  -17.6731   19.2543 C   0  0  1  0  0  0  0  0  0  0  0  0
   11.7517  -17.0433   17.9323 C   0  0  0  0  0  0  0  0  0  0  0  0
   12.7559  -17.8136   17.1886 C   0  0  0  0  0  0  0  0  0  0  0  0
   12.6964  -19.0868   17.2408 O   0  0  0  0  0  0  0  0  0  0  0  0
   11.0575  -16.6112   20.2158 C   0  0  0  0  0  0  0  0  0  0  0  0
   11.7934  -15.6218   20.4080 O   0  0  0  0  0  0  0  0  0  0  0  0
   13.7667  -17.2790   16.4352 O   0  0  0  0  0  0  0  0  0  0  0  0
    7.4857  -14.9449   20.7728 C   0  0  0  0  0  0  0  0  0  0  0  0
    7.9582  -15.6937   21.9933 C   0  0  1  0  0  0  0  0  0  0  0  0
    7.4415  -16.9841   22.0771 O   0  0  0  0  0  0  0  0  0  0  0  0
    9.4870  -15.7998   21.9875 C   0  0  2  0  0  0  0  0  0  0  0  0
    9.8279  -16.7320   20.9167 N   0  0  0  0  0  0  0  0  0  0  0  0
    9.9588  -16.2556   23.2959 C   0  0  0  0  0  0  0  0  0  0  0  0
   10.4337  -17.3989   23.4371 O   0  0  0  0  0  0  0  0  0  0  0  0
   10.5332  -14.4455   30.4952 N   0  0  0  0  0  0  0  0  0  0  0  0
   10.0748  -14.1722   29.1658 C   0  0  0  0  0  0  0  0  0  0  0  0
    9.4438  -13.1199   28.9931 O   0  0  0  0  0  0  0  0  0  0  0  0
   10.4034  -15.1800   28.1426 C   0  0  0  0  0  0  0  0  0  0  0  0
    9.9927  -14.7971   26.7672 C   0  0  0  0  0  0  0  0  0  0  0  0
   10.3082  -15.8599   25.7408 C   0  0  2  0  0  0  0  0  0  0  0  0
    9.8706  -15.3807   24.4117 N   0  0  0  0  0  0  0  0  0  0  0  0
    9.6264  -17.1295   26.0303 C   0  0  0  0  0  0  0  0  0  0  0  0
    8.3494  -17.4508   25.6581 O   0  0  0  0  0  0  0  0  0  0  0  0
   10.2528  -18.0357   26.6871 O   0  0  0  0  0  0  0  0  0  0  0  0
  2  3  1  0
  2  1  1  6
  3  4  1  0
  4  8  1  0
  4  5  2  0
  6  2  1  0
  7  6  2  0
 10  9  1  6
 10 12  1  0
 11 10  1  0
 12 13  1  6
 13  6  1  0
 14 12  1  0
 14 15  2  0
 16 17  1  0
 17 18  2  0
 19 17  1  0
 19 20  1  0
 21 20  1  1
 21 22  1  0
 22 14  1  0
 23 21  1  0
 24 23  1  0
 25 23  2  0
M  END
$$$$
