DTQ.pdb
     RDKit          3D

 25 24  0  0  1  0  0  0  0  0999 V2000
    9.6285  -17.6165   18.4756 N   0  0  0  0  0  0  0  0  0  0  0  0
   10.8826  -17.3737   19.2517 C   0  0  1  0  0  0  0  0  0  0  0  0
   11.8703  -16.7157   18.3444 C   0  0  0  0  0  0  0  0  0  0  0  0
   12.7774  -17.7003   17.7420 C   0  0  0  0  0  0  0  0  0  0  0  0
   12.6912  -18.9127   18.1292 O   0  0  0  0  0  0  0  0  0  0  0  0
   10.5292  -16.4299   20.3450 C   0  0  0  0  0  0  0  0  0  0  0  0
   11.4116  -15.9823   21.1057 O   0  0  0  0  0  0  0  0  0  0  0  0
   13.7229  -17.4282   16.7896 O   0  0  0  0  0  0  0  0  0  0  0  0
    7.4381  -13.7875   20.1133 C   0  0  0  0  0  0  0  0  0  0  0  0
    7.3791  -14.6785   21.3283 C   0  0  1  0  0  0  0  0  0  0  0  0
    6.5295  -15.7697   21.1653 O   0  0  0  0  0  0  0  0  0  0  0  0
    8.7762  -15.2163   21.6558 C   0  0  2  0  0  0  0  0  0  0  0  0
    9.1742  -16.0400   20.5178 N   0  0  0  0  0  0  0  0  0  0  0  0
    8.7365  -15.9744   22.9072 C   0  0  0  0  0  0  0  0  0  0  0  0
    8.6316  -17.2160   22.8948 O   0  0  0  0  0  0  0  0  0  0  0  0
   10.1180  -13.8055   28.6654 N   0  0  0  0  0  0  0  0  0  0  0  0
    8.9643  -13.2564   28.0176 C   0  0  0  0  0  0  0  0  0  0  0  0
    8.5238  -12.1875   28.4633 O   0  0  0  0  0  0  0  0  0  0  0  0
    8.4222  -14.0289   26.8862 C   0  0  0  0  0  0  0  0  0  0  0  0
    9.2233  -15.2311   26.5397 C   0  0  0  0  0  0  0  0  0  0  0  0
    8.6258  -16.0303   25.4054 C   0  0  2  0  0  0  0  0  0  0  0  0
    8.8179  -15.2812   24.1446 N   0  0  0  0  0  0  0  0  0  0  0  0
    7.1880  -16.2710   25.5944 C   0  0  0  0  0  0  0  0  0  0  0  0
    6.1804  -15.6695   24.8906 O   0  0  0  0  0  0  0  0  0  0  0  0
    6.8106  -17.1102   26.4878 O   0  0  0  0  0  0  0  0  0  0  0  0
  2  3  1  0
  2  1  1  6
  3  4  1  0
  4  8  1  0
  4  5  2  0
  6  2  1  0
  7  6  2  0
 10  9  1  6
 10 12  1  0
 11 10  1  0
 12 13  1  6
 13  6  1  0
 14 12  1  0
 14 15  2  0
 16 17  1  0
 17 18  2  0
 19 17  1  0
 19 20  1  0
 21 20  1  1
 21 22  1  0
 22 14  1  0
 23 21  1  0
 24 23  1  0
 25 23  2  0
M  END
$$$$
