ITY.pdb
     RDKit          3D

 28 28  0  0  1  0  0  0  0  0999 V2000
   20.2897  -24.1010  -21.3866 C   0  0  0  0  0  0  0  0  0  0  0  0
   21.0326  -23.7428  -20.0857 C   0  0  0  0  0  0  0  0  0  0  0  0
   22.4482  -24.2345  -20.2293 C   0  0  2  0  0  0  0  0  0  0  0  0
   22.5069  -25.7502  -20.1999 C   0  0  0  0  0  0  0  0  0  0  0  0
   23.4361  -23.5840  -19.3615 C   0  0  2  0  0  0  0  0  0  0  0  0
   23.4271  -22.1141  -19.4296 N   0  0  0  0  0  0  0  0  0  0  0  0
   24.7882  -24.1209  -19.2486 C   0  0  0  0  0  0  0  0  0  0  0  0
   25.5688  -23.9747  -20.2634 O   0  0  0  0  0  0  0  0  0  0  0  0
   27.7689  -23.0532  -17.7570 C   0  0  0  0  0  0  0  0  0  0  0  0
   27.4853  -24.4129  -17.1736 C   0  0  1  0  0  0  0  0  0  0  0  0
   26.6250  -24.2245  -16.0690 O   0  0  0  0  0  0  0  0  0  0  0  0
   26.7221  -25.2939  -18.1445 C   0  0  2  0  0  0  0  0  0  0  0  0
   25.3567  -24.7903  -18.1643 N   0  0  0  0  0  0  0  0  0  0  0  0
   26.7786  -26.6711  -17.5893 C   0  0  0  0  0  0  0  0  0  0  0  0
   25.8441  -27.0793  -16.8590 O   0  0  0  0  0  0  0  0  0  0  0  0
   29.5672  -35.1050  -16.5418 O   0  0  0  0  0  0  0  0  0  0  0  0
   29.4820  -33.7432  -16.8446 C   0  0  0  0  0  0  0  0  0  0  0  0
   29.8239  -32.7723  -15.9377 C   0  0  0  0  0  0  0  0  0  0  0  0
   29.7287  -31.4400  -16.2666 C   0  0  0  0  0  0  0  0  0  0  0  0
   29.2878  -31.0110  -17.5153 C   0  0  0  0  0  0  0  0  0  0  0  0
   29.1816  -29.5940  -17.8438 C   0  0  0  0  0  0  0  0  0  0  0  0
   27.9780  -28.8795  -17.3328 C   0  0  2  0  0  0  0  0  0  0  0  0
   27.8708  -27.5326  -17.8704 N   0  0  0  0  0  0  0  0  0  0  0  0
   27.9314  -28.9093  -15.8755 C   0  0  0  0  0  0  0  0  0  0  0  0
   27.1241  -29.7899  -15.1466 O   0  0  0  0  0  0  0  0  0  0  0  0
   28.9468  -32.0124  -18.4192 C   0  0  0  0  0  0  0  0  0  0  0  0
   29.0427  -33.3429  -18.0890 C   0  0  0  0  0  0  0  0  0  0  0  0
   28.6363  -28.1210  -15.2049 O   0  0  0  0  0  0  0  0  0  0  0  0
  1  2  1  0
  2  3  1  0
  3  4  1  1
  5  3  1  0
  5  7  1  0
  5  6  1  6
  7  8  2  0
 10 12  1  0
 10  9  1  6
 11 10  1  0
 12 14  1  0
 13  7  1  0
 12 13  1  1
 14 15  2  0
 16 17  1  0
 17 18  2  0
 18 19  1  0
 20 19  2  0
 20 21  1  0
 22 21  1  1
 22 24  1  0
 23 22  1  0
 23 14  1  0
 24 28  2  0
 24 25  1  0
 26 20  1  0
 27 17  1  0
 27 26  2  0
M  END
$$$$
