ITY.pdb
     RDKit          3D

 28 28  0  0  1  0  0  0  0  0999 V2000
   16.1449  -13.4460  -18.2676 C   0  0  0  0  0  0  0  0  0  0  0  0
   17.6144  -13.5112  -18.7249 C   0  0  0  0  0  0  0  0  0  0  0  0
   18.3649  -12.4462  -17.9706 C   0  0  2  0  0  0  0  0  0  0  0  0
   17.6787  -11.0991  -18.0971 C   0  0  0  0  0  0  0  0  0  0  0  0
   19.8118  -12.4014  -18.2089 C   0  0  2  0  0  0  0  0  0  0  0  0
   20.5085  -13.6702  -17.9441 N   0  0  0  0  0  0  0  0  0  0  0  0
   20.5953  -11.2454  -17.7858 C   0  0  0  0  0  0  0  0  0  0  0  0
   21.3151  -11.3754  -16.7250 O   0  0  0  0  0  0  0  0  0  0  0  0
   22.3903   -6.6800  -18.6030 C   0  0  0  0  0  0  0  0  0  0  0  0
   21.6685   -7.9314  -19.0307 C   0  0  1  0  0  0  0  0  0  0  0  0
   22.5176   -8.6208  -19.9248 O   0  0  0  0  0  0  0  0  0  0  0  0
   21.4423   -8.8766  -17.8659 C   0  0  2  0  0  0  0  0  0  0  0  0
   20.6643   -9.9895  -18.3899 N   0  0  0  0  0  0  0  0  0  0  0  0
   20.6700   -8.1113  -16.8530 C   0  0  0  0  0  0  0  0  0  0  0  0
   19.4504   -7.8907  -17.0463 O   0  0  0  0  0  0  0  0  0  0  0  0
   17.0311   -5.5317   -9.3745 O   0  0  0  0  0  0  0  0  0  0  0  0
   17.8351   -6.0672  -10.3845 C   0  0  0  0  0  0  0  0  0  0  0  0
   17.4230   -6.1218  -11.6919 C   0  0  0  0  0  0  0  0  0  0  0  0
   18.2383   -6.6554  -12.6629 C   0  0  0  0  0  0  0  0  0  0  0  0
   19.5036   -7.1607  -12.3777 C   0  0  0  0  0  0  0  0  0  0  0  0
   20.3507   -7.7338  -13.4174 C   0  0  0  0  0  0  0  0  0  0  0  0
   20.5636   -6.9039  -14.6367 C   0  0  2  0  0  0  0  0  0  0  0  0
   21.2874   -7.6254  -15.6712 N   0  0  0  0  0  0  0  0  0  0  0  0
   21.1856   -5.6288  -14.2995 C   0  0  0  0  0  0  0  0  0  0  0  0
   20.4636   -4.4474  -14.0953 O   0  0  0  0  0  0  0  0  0  0  0  0
   19.9010   -7.0949  -11.0459 C   0  0  0  0  0  0  0  0  0  0  0  0
   19.0853   -6.5614  -10.0771 C   0  0  0  0  0  0  0  0  0  0  0  0
   22.4291   -5.5455  -14.1771 O   0  0  0  0  0  0  0  0  0  0  0  0
  1  2  1  0
  2  3  1  0
  3  4  1  6
  5  3  1  0
  5  7  1  0
  5  6  1  1
  7  8  2  0
 10 12  1  0
 10  9  1  1
 11 10  1  0
 12 14  1  0
 13  7  1  0
 12 13  1  6
 14 15  2  0
 16 17  1  0
 17 18  2  0
 18 19  1  0
 20 19  2  0
 20 21  1  0
 22 21  1  1
 22 24  1  0
 23 22  1  0
 23 14  1  0
 24 28  2  0
 24 25  1  0
 26 20  1  0
 27 17  1  0
 27 26  2  0
M  END
$$$$
