ITY.pdb
     RDKit          3D

 28 28  0  0  1  0  0  0  0  0999 V2000
   19.3013  -11.6370    4.1827 C   0  0  0  0  0  0  0  0  0  0  0  0
   17.9183  -12.2487    4.4756 C   0  0  0  0  0  0  0  0  0  0  0  0
   18.1166  -13.3304    5.5037 C   0  0  2  0  0  0  0  0  0  0  0  0
   19.1867  -14.3126    5.0657 C   0  0  0  0  0  0  0  0  0  0  0  0
   16.8908  -13.9674    5.9977 C   0  0  2  0  0  0  0  0  0  0  0  0
   15.8507  -13.0221    6.4335 N   0  0  0  0  0  0  0  0  0  0  0  0
   16.9642  -15.1409    6.8618 C   0  0  0  0  0  0  0  0  0  0  0  0
   17.1040  -14.9360    8.1263 O   0  0  0  0  0  0  0  0  0  0  0  0
   16.3953  -19.8931    7.9390 C   0  0  0  0  0  0  0  0  0  0  0  0
   16.1656  -18.6576    7.1080 C   0  0  1  0  0  0  0  0  0  0  0  0
   14.9310  -18.1030    7.5128 O   0  0  0  0  0  0  0  0  0  0  0  0
   17.2075  -17.5906    7.3860 C   0  0  2  0  0  0  0  0  0  0  0  0
   16.9066  -16.4844    6.4893 N   0  0  0  0  0  0  0  0  0  0  0  0
   18.5237  -18.2004    7.0638 C   0  0  0  0  0  0  0  0  0  0  0  0
   18.8262  -18.4146    5.8655 O   0  0  0  0  0  0  0  0  0  0  0  0
   22.8049  -13.4700   10.3905 O   0  0  0  0  0  0  0  0  0  0  0  0
   22.5426  -14.6048    9.6179 C   0  0  0  0  0  0  0  0  0  0  0  0
   23.4284  -15.6489    9.5327 C   0  0  0  0  0  0  0  0  0  0  0  0
   23.1406  -16.7523    8.7631 C   0  0  0  0  0  0  0  0  0  0  0  0
   21.9562  -16.8679    8.0409 C   0  0  0  0  0  0  0  0  0  0  0  0
   21.6719  -18.0397    7.2204 C   0  0  0  0  0  0  0  0  0  0  0  0
   20.7736  -19.0687    7.8159 C   0  0  2  0  0  0  0  0  0  0  0  0
   19.4444  -18.5448    8.0873 N   0  0  0  0  0  0  0  0  0  0  0  0
   21.3866  -19.6833    8.9876 C   0  0  0  0  0  0  0  0  0  0  0  0
   22.5497  -20.4596    8.9329 O   0  0  0  0  0  0  0  0  0  0  0  0
   21.0727  -15.7978    8.1421 C   0  0  0  0  0  0  0  0  0  0  0  0
   21.3618  -14.6964    8.9115 C   0  0  0  0  0  0  0  0  0  0  0  0
   20.8752  -19.5318   10.1206 O   0  0  0  0  0  0  0  0  0  0  0  0
  1  2  1  0
  2  3  1  0
  3  4  1  6
  5  3  1  0
  5  7  1  0
  5  6  1  1
  7  8  2  0
 10 12  1  0
 10  9  1  1
 11 10  1  0
 12 14  1  0
 13  7  1  0
 12 13  1  6
 14 15  2  0
 16 17  1  0
 17 18  2  0
 18 19  1  0
 20 19  2  0
 20 21  1  0
 22 21  1  1
 22 24  1  0
 23 22  1  0
 23 14  1  0
 24 28  2  0
 24 25  1  0
 26 20  1  0
 27 17  1  0
 27 26  2  0
M  END
$$$$
