ITY.pdb
     RDKit          3D

 28 28  0  0  1  0  0  0  0  0999 V2000
   19.0308  -12.0869    3.3367 C   0  0  0  0  0  0  0  0  0  0  0  0
   18.2791  -12.3342    4.6583 C   0  0  0  0  0  0  0  0  0  0  0  0
   18.3373  -13.8127    4.9359 C   0  0  2  0  0  0  0  0  0  0  0  0
   17.9059  -14.6150    3.7227 C   0  0  0  0  0  0  0  0  0  0  0  0
   17.7114  -14.2471    6.1896 C   0  0  2  0  0  0  0  0  0  0  0  0
   18.0151  -13.3902    7.3466 N   0  0  0  0  0  0  0  0  0  0  0  0
   17.6765  -15.6614    6.5471 C   0  0  0  0  0  0  0  0  0  0  0  0
   18.7563  -16.1770    7.0254 O   0  0  0  0  0  0  0  0  0  0  0  0
   16.0345  -17.6337    9.0852 C   0  0  0  0  0  0  0  0  0  0  0  0
   15.6732  -18.2773    7.7718 C   0  0  1  0  0  0  0  0  0  0  0  0
   14.4698  -17.6834    7.3304 O   0  0  0  0  0  0  0  0  0  0  0  0
   16.6999  -17.9764    6.6963 C   0  0  2  0  0  0  0  0  0  0  0  0
   16.6055  -16.5483    6.4316 N   0  0  0  0  0  0  0  0  0  0  0  0
   16.3003  -18.7709    5.5058 C   0  0  0  0  0  0  0  0  0  0  0  0
   15.6617  -18.2148    4.5806 O   0  0  0  0  0  0  0  0  0  0  0  0
   15.9276  -24.0173   -1.4332 O   0  0  0  0  0  0  0  0  0  0  0  0
   16.2396  -23.2503   -0.3073 C   0  0  0  0  0  0  0  0  0  0  0  0
   16.9847  -23.7497    0.7308 C   0  0  0  0  0  0  0  0  0  0  0  0
   17.2746  -22.9688    1.8256 C   0  0  0  0  0  0  0  0  0  0  0  0
   16.8356  -21.6527    1.9388 C   0  0  0  0  0  0  0  0  0  0  0  0
   17.1421  -20.8422    3.1120 C   0  0  0  0  0  0  0  0  0  0  0  0
   16.2181  -20.9745    4.2736 C   0  0  2  0  0  0  0  0  0  0  0  0
   16.6283  -20.1473    5.3971 N   0  0  0  0  0  0  0  0  0  0  0  0
   16.0372  -22.3740    4.6414 C   0  0  0  0  0  0  0  0  0  0  0  0
   16.9723  -23.1047    5.3830 O   0  0  0  0  0  0  0  0  0  0  0  0
   16.0821  -21.1671    0.8746 C   0  0  0  0  0  0  0  0  0  0  0  0
   15.7936  -21.9485   -0.2184 C   0  0  0  0  0  0  0  0  0  0  0  0
   15.0035  -22.9897    4.2939 O   0  0  0  0  0  0  0  0  0  0  0  0
  1  2  1  0
  2  3  1  0
  3  4  1  6
  5  3  1  0
  5  7  1  0
  5  6  1  1
  7  8  2  0
 10 12  1  0
 10  9  1  1
 11 10  1  0
 12 14  1  0
 13  7  1  0
 12 13  1  6
 14 15  2  0
 16 17  1  0
 17 18  2  0
 18 19  1  0
 20 19  2  0
 20 21  1  0
 22 21  1  6
 22 24  1  0
 23 22  1  0
 23 14  1  0
 24 28  2  0
 24 25  1  0
 26 20  1  0
 27 17  1  0
 27 26  2  0
M  END
$$$$
