ITY.pdb
     RDKit          3D

 28 28  0  0  1  0  0  0  0  0999 V2000
   28.1711  -12.9011  -16.4005 C   0  0  0  0  0  0  0  0  0  0  0  0
   26.6633  -12.6552  -16.5973 C   0  0  0  0  0  0  0  0  0  0  0  0
   26.4285  -11.1756  -16.4488 C   0  0  2  0  0  0  0  0  0  0  0  0
   27.0257  -10.6536  -15.1556 C   0  0  0  0  0  0  0  0  0  0  0  0
   25.0543  -10.7244  -16.6941 C   0  0  2  0  0  0  0  0  0  0  0  0
   24.4083  -11.3550  -17.8562 N   0  0  0  0  0  0  0  0  0  0  0  0
   24.7066   -9.3126  -16.5708 C   0  0  0  0  0  0  0  0  0  0  0  0
   25.1293   -8.6890  -15.5254 O   0  0  0  0  0  0  0  0  0  0  0  0
   22.7293   -5.1452  -18.4489 C   0  0  0  0  0  0  0  0  0  0  0  0
   23.1399   -6.5910  -18.5536 C   0  0  1  0  0  0  0  0  0  0  0  0
   24.2550   -6.6490  -19.4189 O   0  0  0  0  0  0  0  0  0  0  0  0
   23.6223   -7.1368  -17.2229 C   0  0  2  0  0  0  0  0  0  0  0  0
   23.9563   -8.5346  -17.4533 N   0  0  0  0  0  0  0  0  0  0  0  0
   22.4806   -7.0057  -16.2809 C   0  0  0  0  0  0  0  0  0  0  0  0
   21.4571   -7.7103  -16.4522 O   0  0  0  0  0  0  0  0  0  0  0  0
   17.1432   -6.7071   -9.4609 O   0  0  0  0  0  0  0  0  0  0  0  0
   18.2229   -6.7266  -10.3482 C   0  0  0  0  0  0  0  0  0  0  0  0
   18.5715   -7.8546  -11.0468 C   0  0  0  0  0  0  0  0  0  0  0  0
   19.6403   -7.8413  -11.9128 C   0  0  0  0  0  0  0  0  0  0  0  0
   20.4133   -6.7031  -12.1241 C   0  0  0  0  0  0  0  0  0  0  0  0
   21.5505   -6.7094  -13.0372 C   0  0  0  0  0  0  0  0  0  0  0  0
   21.4138   -5.8958  -14.2781 C   0  0  2  0  0  0  0  0  0  0  0  0
   22.5274   -6.0977  -15.1913 N   0  0  0  0  0  0  0  0  0  0  0  0
   21.1943   -4.4896  -13.9601 C   0  0  0  0  0  0  0  0  0  0  0  0
   19.9244   -3.9126  -13.8467 O   0  0  0  0  0  0  0  0  0  0  0  0
   20.0417   -5.5710  -11.4056 C   0  0  0  0  0  0  0  0  0  0  0  0
   18.9736   -5.5861  -10.5410 C   0  0  0  0  0  0  0  0  0  0  0  0
   22.1682   -3.7254  -13.7713 O   0  0  0  0  0  0  0  0  0  0  0  0
  1  2  1  0
  2  3  1  0
  3  4  1  1
  5  3  1  0
  5  7  1  0
  5  6  1  6
  7  8  2  0
 10 12  1  0
 10  9  1  1
 11 10  1  0
 12 14  1  0
 13  7  1  0
 12 13  1  6
 14 15  2  0
 16 17  1  0
 17 18  2  0
 18 19  1  0
 20 19  2  0
 20 21  1  0
 22 21  1  1
 22 24  1  0
 23 22  1  0
 23 14  1  0
 24 28  2  0
 24 25  1  0
 26 20  1  0
 27 17  1  0
 27 26  2  0
M  END
$$$$
