ITY.pdb
     RDKit          3D

 28 28  0  0  1  0  0  0  0  0999 V2000
   28.7372  -18.6207  -15.3861 C   0  0  0  0  0  0  0  0  0  0  0  0
   28.6054  -19.3096  -16.7575 C   0  0  0  0  0  0  0  0  0  0  0  0
   27.1353  -19.4895  -17.0279 C   0  0  2  0  0  0  0  0  0  0  0  0
   26.4317  -18.1502  -17.1418 C   0  0  0  0  0  0  0  0  0  0  0  0
   26.4450  -20.4524  -16.1626 C   0  0  2  0  0  0  0  0  0  0  0  0
   27.1874  -21.7023  -15.9350 N   0  0  0  0  0  0  0  0  0  0  0  0
   25.0117  -20.6831  -16.3095 C   0  0  0  0  0  0  0  0  0  0  0  0
   24.5499  -20.7894  -17.5078 O   0  0  0  0  0  0  0  0  0  0  0  0
   23.1740  -23.4991  -15.6982 C   0  0  0  0  0  0  0  0  0  0  0  0
   22.3621  -22.4430  -14.9945 C   0  0  1  0  0  0  0  0  0  0  0  0
   22.7877  -22.4145  -13.6478 O   0  0  0  0  0  0  0  0  0  0  0  0
   22.6432  -21.0574  -15.5447 C   0  0  2  0  0  0  0  0  0  0  0  0
   24.0550  -20.8012  -15.3007 N   0  0  0  0  0  0  0  0  0  0  0  0
   21.7860  -20.1212  -14.7722 C   0  0  0  0  0  0  0  0  0  0  0  0
   22.1098  -19.8152  -13.5997 O   0  0  0  0  0  0  0  0  0  0  0  0
   15.0295  -19.9471  -18.7881 O   0  0  0  0  0  0  0  0  0  0  0  0
   16.0615  -19.3766  -18.0380 C   0  0  0  0  0  0  0  0  0  0  0  0
   17.3568  -19.3422  -18.4888 C   0  0  0  0  0  0  0  0  0  0  0  0
   18.3503  -18.7733  -17.7260 C   0  0  0  0  0  0  0  0  0  0  0  0
   18.1008  -18.2116  -16.4770 C   0  0  0  0  0  0  0  0  0  0  0  0
   19.1680  -17.6230  -15.6760 C   0  0  0  0  0  0  0  0  0  0  0  0
   19.8339  -18.5200  -14.6898 C   0  0  2  0  0  0  0  0  0  0  0  0
   20.6078  -19.5674  -15.3370 N   0  0  0  0  0  0  0  0  0  0  0  0
   18.8724  -19.0439  -13.7267 C   0  0  0  0  0  0  0  0  0  0  0  0
   18.2200  -18.2499  -12.7768 O   0  0  0  0  0  0  0  0  0  0  0  0
   16.7806  -18.2575  -16.0400 C   0  0  0  0  0  0  0  0  0  0  0  0
   15.7894  -18.8260  -16.8033 C   0  0  0  0  0  0  0  0  0  0  0  0
   18.5887  -20.2636  -13.7172 O   0  0  0  0  0  0  0  0  0  0  0  0
  1  2  1  0
  2  3  1  0
  3  4  1  1
  5  3  1  0
  5  7  1  0
  5  6  1  6
  7  8  2  0
 10 12  1  0
 10  9  1  6
 11 10  1  0
 12 14  1  0
 13  7  1  0
 12 13  1  1
 14 15  2  0
 16 17  1  0
 17 18  2  0
 18 19  1  0
 20 19  2  0
 20 21  1  0
 22 21  1  6
 22 24  1  0
 23 22  1  0
 23 14  1  0
 24 28  2  0
 24 25  1  0
 26 20  1  0
 27 17  1  0
 27 26  2  0
M  END
$$$$
