ITY.pdb
     RDKit          3D

 28 28  0  0  1  0  0  0  0  0999 V2000
   23.4272  -15.9570  -20.1996 C   0  0  0  0  0  0  0  0  0  0  0  0
   22.4799  -16.3050  -19.0359 C   0  0  0  0  0  0  0  0  0  0  0  0
   22.4707  -15.1265  -18.0991 C   0  0  2  0  0  0  0  0  0  0  0  0
   21.8007  -13.9246  -18.7380 C   0  0  0  0  0  0  0  0  0  0  0  0
   23.7520  -14.8201  -17.4537 C   0  0  2  0  0  0  0  0  0  0  0  0
   24.4737  -15.9996  -16.9506 N   0  0  0  0  0  0  0  0  0  0  0  0
   23.8721  -13.6771  -16.5547 C   0  0  0  0  0  0  0  0  0  0  0  0
   23.2925  -13.7643  -15.4071 O   0  0  0  0  0  0  0  0  0  0  0  0
   26.9293  -11.8869  -15.2356 C   0  0  0  0  0  0  0  0  0  0  0  0
   25.9887  -10.8582  -15.8071 C   0  0  1  0  0  0  0  0  0  0  0  0
   26.3583  -10.6545  -17.1552 O   0  0  0  0  0  0  0  0  0  0  0  0
   24.5583  -11.3622  -15.8437 C   0  0  2  0  0  0  0  0  0  0  0  0
   24.5426  -12.4747  -16.7820 N   0  0  0  0  0  0  0  0  0  0  0  0
   23.7311  -10.2310  -16.3380 C   0  0  0  0  0  0  0  0  0  0  0  0
   23.6587  -10.0140  -17.5712 O   0  0  0  0  0  0  0  0  0  0  0  0
   17.2198  -12.2579  -14.4536 O   0  0  0  0  0  0  0  0  0  0  0  0
   18.1577  -11.3858  -15.0132 C   0  0  0  0  0  0  0  0  0  0  0  0
   18.0569  -10.0241  -14.8798 C   0  0  0  0  0  0  0  0  0  0  0  0
   18.9968   -9.1924  -15.4429 C   0  0  0  0  0  0  0  0  0  0  0  0
   20.0825   -9.6777  -16.1666 C   0  0  0  0  0  0  0  0  0  0  0  0
   21.0637   -8.7813  -16.7672 C   0  0  0  0  0  0  0  0  0  0  0  0
   22.1622   -8.3047  -15.8803 C   0  0  2  0  0  0  0  0  0  0  0  0
   23.0217   -9.3919  -15.4398 N   0  0  0  0  0  0  0  0  0  0  0  0
   21.6351   -7.5188  -14.7708 C   0  0  0  0  0  0  0  0  0  0  0  0
   21.7316   -7.9123  -13.4313 O   0  0  0  0  0  0  0  0  0  0  0  0
   20.1649  -11.0612  -16.2889 C   0  0  0  0  0  0  0  0  0  0  0  0
   19.2251  -11.8906  -15.7255 C   0  0  0  0  0  0  0  0  0  0  0  0
   21.0588   -6.4283  -14.9870 O   0  0  0  0  0  0  0  0  0  0  0  0
  1  2  1  0
  2  3  1  0
  3  4  1  6
  5  3  1  0
  5  7  1  0
  5  6  1  1
  7  8  2  0
 10 12  1  0
 10  9  1  6
 11 10  1  0
 12 14  1  0
 13  7  1  0
 12 13  1  6
 14 15  2  0
 16 17  1  0
 17 18  2  0
 18 19  1  0
 20 19  2  0
 20 21  1  0
 22 21  1  1
 22 24  1  0
 23 22  1  0
 23 14  1  0
 24 28  2  0
 24 25  1  0
 26 20  1  0
 27 17  1  0
 27 26  2  0
M  END
$$$$
