ITY.pdb
     RDKit          3D

 28 28  0  0  1  0  0  0  0  0999 V2000
   17.6466  -17.6545  -18.3414 C   0  0  0  0  0  0  0  0  0  0  0  0
   18.3161  -16.8778  -17.1920 C   0  0  0  0  0  0  0  0  0  0  0  0
   18.9660  -15.6606  -17.7940 C   0  0  2  0  0  0  0  0  0  0  0  0
   19.9393  -16.0462  -18.8921 C   0  0  0  0  0  0  0  0  0  0  0  0
   19.5055  -14.6905  -16.8348 C   0  0  2  0  0  0  0  0  0  0  0  0
   19.2244  -15.0113  -15.4265 N   0  0  0  0  0  0  0  0  0  0  0  0
   19.4148  -13.2587  -17.1012 C   0  0  0  0  0  0  0  0  0  0  0  0
   19.7623  -12.8525  -18.2737 O   0  0  0  0  0  0  0  0  0  0  0  0
   16.4307  -10.7893  -16.5422 C   0  0  0  0  0  0  0  0  0  0  0  0
   17.6998  -10.2838  -15.9069 C   0  0  1  0  0  0  0  0  0  0  0  0
   17.7359  -10.7835  -14.5861 O   0  0  0  0  0  0  0  0  0  0  0  0
   18.9330  -10.8413  -16.5922 C   0  0  2  0  0  0  0  0  0  0  0  0
   18.9969  -12.2501  -16.2323 N   0  0  0  0  0  0  0  0  0  0  0  0
   20.0910  -10.0925  -16.0385 C   0  0  0  0  0  0  0  0  0  0  0  0
   20.6688  -10.5233  -15.0120 O   0  0  0  0  0  0  0  0  0  0  0  0
   25.4437   -2.8550  -15.7482 O   0  0  0  0  0  0  0  0  0  0  0  0
   24.7263   -3.9991  -16.1086 C   0  0  0  0  0  0  0  0  0  0  0  0
   25.2888   -5.0092  -16.8472 C   0  0  0  0  0  0  0  0  0  0  0  0
   24.5556   -6.1228  -17.1859 C   0  0  0  0  0  0  0  0  0  0  0  0
   23.2263   -6.2832  -16.8052 C   0  0  0  0  0  0  0  0  0  0  0  0
   22.4597   -7.4650  -17.1829 C   0  0  0  0  0  0  0  0  0  0  0  0
   21.6446   -8.1020  -16.1102 C   0  0  2  0  0  0  0  0  0  0  0  0
   20.5547   -8.8989  -16.6503 N   0  0  0  0  0  0  0  0  0  0  0  0
   21.1913   -7.1120  -15.1402 C   0  0  0  0  0  0  0  0  0  0  0  0
   21.9211   -6.7577  -13.9998 O   0  0  0  0  0  0  0  0  0  0  0  0
   22.6765   -5.2470  -16.0569 C   0  0  0  0  0  0  0  0  0  0  0  0
   23.4105   -4.1353  -15.7192 C   0  0  0  0  0  0  0  0  0  0  0  0
   20.0964   -6.5258  -15.3007 O   0  0  0  0  0  0  0  0  0  0  0  0
  1  2  1  0
  2  3  1  0
  3  4  1  6
  5  3  1  0
  5  7  1  0
  5  6  1  1
  7  8  2  0
 10 12  1  0
 10  9  1  6
 11 10  1  0
 12 14  1  0
 13  7  1  0
 12 13  1  1
 14 15  2  0
 16 17  1  0
 17 18  2  0
 18 19  1  0
 20 19  2  0
 20 21  1  0
 22 21  1  6
 22 24  1  0
 23 22  1  0
 23 14  1  0
 24 28  2  0
 24 25  1  0
 26 20  1  0
 27 17  1  0
 27 26  2  0
M  END
$$$$
