ITY.pdb
     RDKit          3D

 28 28  0  0  1  0  0  0  0  0999 V2000
   27.8538  -19.8341   -6.5088 C   0  0  0  0  0  0  0  0  0  0  0  0
   26.8184  -20.6167   -7.3382 C   0  0  0  0  0  0  0  0  0  0  0  0
   26.6934  -19.9220   -8.6680 C   0  0  2  0  0  0  0  0  0  0  0  0
   26.3331  -18.4591   -8.4897 C   0  0  0  0  0  0  0  0  0  0  0  0
   25.8801  -20.6168   -9.6719 C   0  0  2  0  0  0  0  0  0  0  0  0
   26.1461  -22.0606   -9.7727 N   0  0  0  0  0  0  0  0  0  0  0  0
   25.6388  -20.0098  -10.9768 C   0  0  0  0  0  0  0  0  0  0  0  0
   25.2745  -18.7740  -10.9954 O   0  0  0  0  0  0  0  0  0  0  0  0
   27.7280  -20.7084  -14.2936 C   0  0  0  0  0  0  0  0  0  0  0  0
   26.2449  -20.6853  -14.5574 C   0  0  1  0  0  0  0  0  0  0  0  0
   25.7817  -22.0167  -14.4663 O   0  0  0  0  0  0  0  0  0  0  0  0
   25.4950  -19.9141  -13.4877 C   0  0  2  0  0  0  0  0  0  0  0  0
   25.7485  -20.6069  -12.2331 N   0  0  0  0  0  0  0  0  0  0  0  0
   24.0573  -19.9811  -13.8573 C   0  0  0  0  0  0  0  0  0  0  0  0
   23.3035  -20.7823  -13.2549 O   0  0  0  0  0  0  0  0  0  0  0  0
   24.1793  -15.9894  -20.4918 O   0  0  0  0  0  0  0  0  0  0  0  0
   23.5548  -16.4334  -19.3230 C   0  0  0  0  0  0  0  0  0  0  0  0
   22.3600  -17.1072  -19.3461 C   0  0  0  0  0  0  0  0  0  0  0  0
   21.7707  -17.5310  -18.1775 C   0  0  0  0  0  0  0  0  0  0  0  0
   22.3437  -17.3033  -16.9294 C   0  0  0  0  0  0  0  0  0  0  0  0
   21.6997  -17.7492  -15.6992 C   0  0  0  0  0  0  0  0  0  0  0  0
   22.1015  -19.0884  -15.1838 C   0  0  2  0  0  0  0  0  0  0  0  0
   23.5220  -19.1550  -14.8796 N   0  0  0  0  0  0  0  0  0  0  0  0
   21.6690  -20.1481  -16.0874 C   0  0  0  0  0  0  0  0  0  0  0  0
   20.3268  -20.4831  -16.2984 O   0  0  0  0  0  0  0  0  0  0  0  0
   23.5550  -16.6187  -16.9298 C   0  0  0  0  0  0  0  0  0  0  0  0
   24.1423  -16.1962  -18.0981 C   0  0  0  0  0  0  0  0  0  0  0  0
   22.5133  -20.8165  -16.7268 O   0  0  0  0  0  0  0  0  0  0  0  0
  1  2  1  0
  2  3  1  0
  3  4  1  1
  5  3  1  0
  5  7  1  0
  5  6  1  6
  7  8  2  0
 10 12  1  0
 10  9  1  1
 11 10  1  0
 12 14  1  0
 13  7  1  0
 12 13  1  1
 14 15  2  0
 16 17  1  0
 17 18  2  0
 18 19  1  0
 20 19  2  0
 20 21  1  0
 22 21  1  6
 22 24  1  0
 23 22  1  0
 23 14  1  0
 24 28  2  0
 24 25  1  0
 26 20  1  0
 27 17  1  0
 27 26  2  0
M  END
$$$$
