ITY.pdb
     RDKit          3D

 28 28  0  0  1  0  0  0  0  0999 V2000
   17.8426  -16.9260  -18.2327 C   0  0  0  0  0  0  0  0  0  0  0  0
   19.1345  -17.0578  -19.0612 C   0  0  0  0  0  0  0  0  0  0  0  0
   20.0300  -15.9096  -18.6787 C   0  0  2  0  0  0  0  0  0  0  0  0
   19.2923  -14.5869  -18.7673 C   0  0  0  0  0  0  0  0  0  0  0  0
   21.3516  -15.8974  -19.3155 C   0  0  2  0  0  0  0  0  0  0  0  0
   22.0963  -17.1602  -19.1887 N   0  0  0  0  0  0  0  0  0  0  0  0
   22.2207  -14.7318  -19.1924 C   0  0  0  0  0  0  0  0  0  0  0  0
   23.2378  -14.8331  -18.4076 O   0  0  0  0  0  0  0  0  0  0  0  0
   24.0223  -10.4632  -20.8464 C   0  0  0  0  0  0  0  0  0  0  0  0
   23.1985  -11.7201  -20.9526 C   0  0  1  0  0  0  0  0  0  0  0  0
   23.9476  -12.6504  -21.7069 O   0  0  0  0  0  0  0  0  0  0  0  0
   22.9821  -12.3672  -19.5977 C   0  0  2  0  0  0  0  0  0  0  0  0
   22.0887  -13.4940  -19.8228 N   0  0  0  0  0  0  0  0  0  0  0  0
   22.3406  -11.3359  -18.7417 C   0  0  0  0  0  0  0  0  0  0  0  0
   21.1349  -11.0444  -18.9277 O   0  0  0  0  0  0  0  0  0  0  0  0
   21.4415   -5.2386  -12.2472 O   0  0  0  0  0  0  0  0  0  0  0  0
   21.9279   -6.2178  -13.1179 C   0  0  0  0  0  0  0  0  0  0  0  0
   22.6204   -5.8994  -14.2586 C   0  0  0  0  0  0  0  0  0  0  0  0
   23.0860   -6.8870  -15.0954 C   0  0  0  0  0  0  0  0  0  0  0  0
   22.8836   -8.2395  -14.8359 C   0  0  0  0  0  0  0  0  0  0  0  0
   23.3739   -9.2736  -15.7399 C   0  0  0  0  0  0  0  0  0  0  0  0
   22.4983   -9.6192  -16.8952 C   0  0  2  0  0  0  0  0  0  0  0  0
   23.0675  -10.6748  -17.7177 N   0  0  0  0  0  0  0  0  0  0  0  0
   22.1540   -8.4295  -17.6649 C   0  0  0  0  0  0  0  0  0  0  0  0
   20.9612   -7.7178  -17.4942 O   0  0  0  0  0  0  0  0  0  0  0  0
   22.1793   -8.5392  -13.6740 C   0  0  0  0  0  0  0  0  0  0  0  0
   21.7150   -7.5514  -12.8390 C   0  0  0  0  0  0  0  0  0  0  0  0
   22.9411   -7.9900  -18.5340 O   0  0  0  0  0  0  0  0  0  0  0  0
  1  2  1  0
  2  3  1  0
  3  4  1  6
  5  3  1  0
  5  7  1  0
  5  6  1  1
  7  8  2  0
 10 12  1  0
 10  9  1  1
 11 10  1  0
 12 14  1  0
 13  7  1  0
 12 13  1  6
 14 15  2  0
 16 17  1  0
 17 18  2  0
 18 19  1  0
 20 19  2  0
 20 21  1  0
 22 21  1  1
 22 24  1  0
 23 22  1  0
 23 14  1  0
 24 28  2  0
 24 25  1  0
 26 20  1  0
 27 17  1  0
 27 26  2  0
M  END
$$$$
