ITY.pdb
     RDKit          3D

 28 28  0  0  1  0  0  0  0  0999 V2000
   16.4940  -14.9746  -18.4077 C   0  0  0  0  0  0  0  0  0  0  0  0
   17.8303  -14.2632  -18.6921 C   0  0  0  0  0  0  0  0  0  0  0  0
   18.2514  -13.5776  -17.4197 C   0  0  2  0  0  0  0  0  0  0  0  0
   17.1141  -12.7609  -16.8356 C   0  0  0  0  0  0  0  0  0  0  0  0
   19.5295  -12.8597  -17.4798 C   0  0  2  0  0  0  0  0  0  0  0  0
   20.6317  -13.6345  -18.0716 N   0  0  0  0  0  0  0  0  0  0  0  0
   19.9730  -12.0444  -16.3540 C   0  0  0  0  0  0  0  0  0  0  0  0
   20.3967  -12.6637  -15.3064 O   0  0  0  0  0  0  0  0  0  0  0  0
   22.8279   -9.9201  -16.1281 C   0  0  0  0  0  0  0  0  0  0  0  0
   21.6705   -9.0743  -15.6647 C   0  0  1  0  0  0  0  0  0  0  0  0
   21.1496   -8.4169  -16.8014 O   0  0  0  0  0  0  0  0  0  0  0  0
   20.5353   -9.9223  -15.1229 C   0  0  2  0  0  0  0  0  0  0  0  0
   19.9940  -10.6524  -16.2597 N   0  0  0  0  0  0  0  0  0  0  0  0
   19.5351   -8.9733  -14.5685 C   0  0  0  0  0  0  0  0  0  0  0  0
   18.6885   -8.4541  -15.3345 O   0  0  0  0  0  0  0  0  0  0  0  0
   15.1345   -4.0234   -8.5308 O   0  0  0  0  0  0  0  0  0  0  0  0
   15.9301   -4.9650   -9.1895 C   0  0  0  0  0  0  0  0  0  0  0  0
   15.3933   -5.9325  -10.0006 C   0  0  0  0  0  0  0  0  0  0  0  0
   16.2038   -6.8452  -10.6351 C   0  0  0  0  0  0  0  0  0  0  0  0
   17.5883   -6.8378  -10.4915 C   0  0  0  0  0  0  0  0  0  0  0  0
   18.4322   -7.8203  -11.1621 C   0  0  0  0  0  0  0  0  0  0  0  0
   18.6477   -7.6271  -12.6239 C   0  0  2  0  0  0  0  0  0  0  0  0
   19.5209   -8.6440  -13.1882 N   0  0  0  0  0  0  0  0  0  0  0  0
   19.1030   -6.2718  -12.9109 C   0  0  0  0  0  0  0  0  0  0  0  0
   20.4454   -5.8801  -12.8557 O   0  0  0  0  0  0  0  0  0  0  0  0
   18.1108   -5.8481   -9.6648 C   0  0  0  0  0  0  0  0  0  0  0  0
   17.2997   -4.9370   -9.0319 C   0  0  0  0  0  0  0  0  0  0  0  0
   18.2797   -5.3828  -13.2273 O   0  0  0  0  0  0  0  0  0  0  0  0
  1  2  1  0
  2  3  1  0
  3  4  1  6
  5  3  1  0
  5  7  1  0
  5  6  1  1
  7  8  2  0
 10 12  1  0
 10  9  1  6
 11 10  1  0
 12 14  1  0
 13  7  1  0
 12 13  1  6
 14 15  2  0
 16 17  1  0
 17 18  2  0
 18 19  1  0
 20 19  2  0
 20 21  1  0
 22 21  1  1
 22 24  1  0
 23 22  1  0
 23 14  1  0
 24 28  2  0
 24 25  1  0
 26 20  1  0
 27 17  1  0
 27 26  2  0
M  END
$$$$
