ITY.pdb
     RDKit          3D

 28 28  0  0  1  0  0  0  0  0999 V2000
   25.7059  -15.5046  -18.3374 C   0  0  0  0  0  0  0  0  0  0  0  0
   24.3961  -14.6940  -18.3411 C   0  0  0  0  0  0  0  0  0  0  0  0
   24.1834  -14.1819  -16.9415 C   0  0  2  0  0  0  0  0  0  0  0  0
   24.1834  -15.3187  -15.9367 C   0  0  0  0  0  0  0  0  0  0  0  0
   23.0714  -13.2398  -16.7736 C   0  0  2  0  0  0  0  0  0  0  0  0
   22.0086  -13.3717  -17.7828 N   0  0  0  0  0  0  0  0  0  0  0  0
   23.3293  -11.8464  -16.4256 C   0  0  0  0  0  0  0  0  0  0  0  0
   24.2977  -11.6107  -15.6088 O   0  0  0  0  0  0  0  0  0  0  0  0
   24.2742   -9.0857  -18.7027 C   0  0  0  0  0  0  0  0  0  0  0  0
   23.1211   -8.6047  -17.8609 C   0  0  1  0  0  0  0  0  0  0  0  0
   21.9329   -8.9224  -18.5557 O   0  0  0  0  0  0  0  0  0  0  0  0
   23.0385   -9.3490  -16.5416 C   0  0  2  0  0  0  0  0  0  0  0  0
   22.6467  -10.7124  -16.8672 N   0  0  0  0  0  0  0  0  0  0  0  0
   21.9887   -8.6647  -15.7428 C   0  0  0  0  0  0  0  0  0  0  0  0
   20.7835   -8.9563  -15.9318 O   0  0  0  0  0  0  0  0  0  0  0  0
   18.2717   -3.6299   -9.3643 O   0  0  0  0  0  0  0  0  0  0  0  0
   19.1635   -4.3175  -10.1923 C   0  0  0  0  0  0  0  0  0  0  0  0
   19.7648   -3.7198  -11.2708 C   0  0  0  0  0  0  0  0  0  0  0  0
   20.6381   -4.4242  -12.0668 C   0  0  0  0  0  0  0  0  0  0  0  0
   20.9540   -5.7585  -11.8263 C   0  0  0  0  0  0  0  0  0  0  0  0
   21.8731   -6.4941  -12.6872 C   0  0  0  0  0  0  0  0  0  0  0  0
   21.3306   -6.9669  -13.9920 C   0  0  2  0  0  0  0  0  0  0  0  0
   22.3254   -7.6875  -14.7704 N   0  0  0  0  0  0  0  0  0  0  0  0
   20.7221   -5.8689  -14.7342 C   0  0  0  0  0  0  0  0  0  0  0  0
   21.4601   -4.9040  -15.4290 O   0  0  0  0  0  0  0  0  0  0  0  0
   20.3330   -6.3441  -10.7275 C   0  0  0  0  0  0  0  0  0  0  0  0
   19.4609   -5.6389   -9.9334 C   0  0  0  0  0  0  0  0  0  0  0  0
   19.4763   -5.7488  -14.7761 O   0  0  0  0  0  0  0  0  0  0  0  0
  1  2  1  0
  2  3  1  0
  3  4  1  1
  5  3  1  0
  5  7  1  0
  5  6  1  6
  7  8  2  0
 10 12  1  0
 10  9  1  6
 11 10  1  0
 12 14  1  0
 13  7  1  0
 12 13  1  6
 14 15  2  0
 16 17  1  0
 17 18  2  0
 18 19  1  0
 20 19  2  0
 20 21  1  0
 22 21  1  1
 22 24  1  0
 23 22  1  0
 23 14  1  0
 24 28  2  0
 24 25  1  0
 26 20  1  0
 27 17  1  0
 27 26  2  0
M  END
$$$$
