ITY.pdb
     RDKit          3D

 28 28  0  0  1  0  0  0  0  0999 V2000
   30.5694  -24.8962  -15.9178 C   0  0  0  0  0  0  0  0  0  0  0  0
   30.2736  -24.3372  -17.3223 C   0  0  0  0  0  0  0  0  0  0  0  0
   29.0268  -23.5001  -17.2169 C   0  0  2  0  0  0  0  0  0  0  0  0
   27.9035  -24.2726  -16.5511 C   0  0  0  0  0  0  0  0  0  0  0  0
   28.6245  -22.8051  -18.4446 C   0  0  2  0  0  0  0  0  0  0  0  0
   29.6976  -22.0201  -19.0751 N   0  0  0  0  0  0  0  0  0  0  0  0
   27.3320  -22.1324  -18.5236 C   0  0  0  0  0  0  0  0  0  0  0  0
   27.2964  -20.8824  -18.2127 O   0  0  0  0  0  0  0  0  0  0  0  0
   22.6567  -22.0006  -20.1743 C   0  0  0  0  0  0  0  0  0  0  0  0
   24.0153  -22.6362  -20.0328 C   0  0  1  0  0  0  0  0  0  0  0  0
   24.6791  -22.4878  -21.2710 O   0  0  0  0  0  0  0  0  0  0  0  0
   24.8738  -21.9086  -19.0154 C   0  0  2  0  0  0  0  0  0  0  0  0
   26.1029  -22.6787  -18.8949 N   0  0  0  0  0  0  0  0  0  0  0  0
   24.1075  -21.9173  -17.7423 C   0  0  0  0  0  0  0  0  0  0  0  0
   24.5921  -22.4880  -16.7360 O   0  0  0  0  0  0  0  0  0  0  0  0
   20.5651  -18.8895  -10.4787 O   0  0  0  0  0  0  0  0  0  0  0  0
   21.1519  -19.2198  -11.7034 C   0  0  0  0  0  0  0  0  0  0  0  0
   21.9327  -20.3369  -11.8594 C   0  0  0  0  0  0  0  0  0  0  0  0
   22.4964  -20.6344  -13.0785 C   0  0  0  0  0  0  0  0  0  0  0  0
   22.3093  -19.8325  -14.2008 C   0  0  0  0  0  0  0  0  0  0  0  0
   22.9240  -20.1561  -15.4832 C   0  0  0  0  0  0  0  0  0  0  0  0
   22.1580  -21.0684  -16.3785 C   0  0  2  0  0  0  0  0  0  0  0  0
   22.8375  -21.2916  -17.6447 N   0  0  0  0  0  0  0  0  0  0  0  0
   20.7866  -20.6033  -16.5499 C   0  0  0  0  0  0  0  0  0  0  0  0
   19.7304  -20.9894  -15.7169 O   0  0  0  0  0  0  0  0  0  0  0  0
   21.5139  -18.7053  -14.0198 C   0  0  0  0  0  0  0  0  0  0  0  0
   20.9515  -18.4098  -12.8013 C   0  0  0  0  0  0  0  0  0  0  0  0
   20.4984  -19.8158  -17.4799 O   0  0  0  0  0  0  0  0  0  0  0  0
  1  2  1  0
  2  3  1  0
  3  4  1  6
  5  3  1  0
  5  7  1  0
  5  6  1  1
  7  8  2  0
 10 12  1  0
 10  9  1  6
 11 10  1  0
 12 14  1  0
 13  7  1  0
 12 13  1  1
 14 15  2  0
 16 17  1  0
 17 18  2  0
 18 19  1  0
 20 19  2  0
 20 21  1  0
 22 21  1  1
 22 24  1  0
 23 22  1  0
 23 14  1  0
 24 28  2  0
 24 25  1  0
 26 20  1  0
 27 17  1  0
 27 26  2  0
M  END
$$$$
