VTL.pdb
     RDKit          3D

 23 22  0  0  1  0  0  0  0  0999 V2000
   14.7592  -13.0356  -15.2315 C   0  0  0  0  0  0  0  0  0  0  0  0
   15.2494  -13.2024  -16.6564 C   0  0  2  0  0  0  0  0  0  0  0  0
   14.4937  -14.3597  -17.2576 C   0  0  0  0  0  0  0  0  0  0  0  0
   16.7321  -13.4231  -16.6088 C   0  0  2  0  0  0  0  0  0  0  0  0
   16.9657  -14.7214  -16.0102 N   0  0  0  0  0  0  0  0  0  0  0  0
   17.4762  -12.3833  -15.9109 C   0  0  0  0  0  0  0  0  0  0  0  0
   17.6777  -12.3492  -14.6703 O   0  0  0  0  0  0  0  0  0  0  0  0
   20.9383  -11.5559  -16.1573 C   0  0  0  0  0  0  0  0  0  0  0  0
   20.2371  -10.2742  -16.5220 C   0  0  1  0  0  0  0  0  0  0  0  0
   20.2792  -10.1380  -17.9072 O   0  0  0  0  0  0  0  0  0  0  0  0
   18.7982  -10.2716  -16.0199 C   0  0  2  0  0  0  0  0  0  0  0  0
   18.0275  -11.3125  -16.6687 N   0  0  0  0  0  0  0  0  0  0  0  0
   18.1640   -8.9525  -16.2649 C   0  0  0  0  0  0  0  0  0  0  0  0
   17.1919   -8.8401  -17.0498 O   0  0  0  0  0  0  0  0  0  0  0  0
   14.4601   -5.3955  -15.3162 C   0  0  0  0  0  0  0  0  0  0  0  0
   15.8662   -5.2358  -15.8721 C   0  0  2  0  0  0  0  0  0  0  0  0
   15.6718   -4.9093  -17.3444 C   0  0  0  0  0  0  0  0  0  0  0  0
   16.5764   -6.5233  -15.6804 C   0  0  0  0  0  0  0  0  0  0  0  0
   18.0554   -6.5033  -15.9218 C   0  0  2  0  0  0  0  0  0  0  0  0
   18.6268   -7.7945  -15.6315 N   0  0  0  0  0  0  0  0  0  0  0  0
   18.7720   -5.3981  -15.2653 C   0  0  0  0  0  0  0  0  0  0  0  0
   19.3824   -5.4585  -14.1907 O   0  0  0  0  0  0  0  0  0  0  0  0
   18.7789   -4.1556  -15.8926 O   0  0  0  0  0  0  0  0  0  0  0  0
  2  1  1  1
  2  4  1  0
  2  3  1  0
  4  6  1  0
  4  5  1  1
  6  7  2  0
  9  8  1  6
  9 11  1  0
 10  9  1  0
 11 12  1  6
 12  6  1  0
 13 11  1  0
 13 20  1  0
 14 13  2  0
 16 15  1  1
 16 17  1  0
 18 16  1  0
 19 20  1  0
 19 18  1  1
 21 19  1  0
 22 21  2  0
 23 21  1  0
M  END
$$$$
