VTL.pdb
     RDKit          3D

 23 22  0  0  1  0  0  0  0  0999 V2000
   12.4370  -11.3826  -11.5855 C   0  0  0  0  0  0  0  0  0  0  0  0
   13.1631  -12.6097  -12.1009 C   0  0  2  0  0  0  0  0  0  0  0  0
   13.3848  -13.5260  -10.9248 C   0  0  0  0  0  0  0  0  0  0  0  0
   14.4381  -12.1521  -12.7444 C   0  0  2  0  0  0  0  0  0  0  0  0
   15.1482  -13.3288  -13.2023 N   0  0  0  0  0  0  0  0  0  0  0  0
   15.2845  -11.3288  -11.8912 C   0  0  0  0  0  0  0  0  0  0  0  0
   16.0359  -11.7659  -10.9828 O   0  0  0  0  0  0  0  0  0  0  0  0
   18.1258   -9.6244  -12.7783 C   0  0  0  0  0  0  0  0  0  0  0  0
   17.2784   -8.5164  -12.2111 C   0  0  1  0  0  0  0  0  0  0  0  0
   16.7430   -7.7946  -13.2748 O   0  0  0  0  0  0  0  0  0  0  0  0
   16.1730   -9.0698  -11.3198 C   0  0  2  0  0  0  0  0  0  0  0  0
   15.2786   -9.9185  -12.0802 N   0  0  0  0  0  0  0  0  0  0  0  0
   15.4045   -7.9639  -10.6965 C   0  0  0  0  0  0  0  0  0  0  0  0
   14.1518   -7.9355  -10.7558 O   0  0  0  0  0  0  0  0  0  0  0  0
   14.4535   -4.5882   -6.7638 C   0  0  0  0  0  0  0  0  0  0  0  0
   13.5292   -5.3732   -7.6810 C   0  0  2  0  0  0  0  0  0  0  0  0
   12.5165   -6.0258   -6.7533 C   0  0  0  0  0  0  0  0  0  0  0  0
   14.3509   -6.3784   -8.3972 C   0  0  0  0  0  0  0  0  0  0  0  0
   15.3016   -5.8426   -9.4245 C   0  0  2  0  0  0  0  0  0  0  0  0
   16.0484   -6.9198  -10.0244 N   0  0  0  0  0  0  0  0  0  0  0  0
   16.1585   -4.7416   -8.9562 C   0  0  0  0  0  0  0  0  0  0  0  0
   15.8803   -3.5363   -8.9830 O   0  0  0  0  0  0  0  0  0  0  0  0
   17.4064   -5.0598   -8.4281 O   0  0  0  0  0  0  0  0  0  0  0  0
  2  1  1  1
  2  4  1  0
  2  3  1  0
  4  6  1  0
  4  5  1  1
  6  7  2  0
  9  8  1  6
  9 11  1  0
 10  9  1  0
 11 12  1  6
 12  6  1  0
 13 11  1  0
 13 20  1  0
 14 13  2  0
 16 15  1  1
 16 17  1  0
 18 16  1  0
 19 20  1  0
 19 18  1  1
 21 19  1  0
 22 21  2  0
 23 21  1  0
M  END
$$$$
