VTL.pdb
     RDKit          3D

 23 22  0  0  1  0  0  0  0  0999 V2000
   17.0779  -13.5393  -20.4806 C   0  0  0  0  0  0  0  0  0  0  0  0
   16.3938  -12.5772  -19.5293 C   0  0  2  0  0  0  0  0  0  0  0  0
   16.5193  -11.1967  -20.1211 C   0  0  0  0  0  0  0  0  0  0  0  0
   17.0537  -12.7099  -18.1890 C   0  0  2  0  0  0  0  0  0  0  0  0
   16.9553  -14.0974  -17.7844 N   0  0  0  0  0  0  0  0  0  0  0  0
   16.5196  -11.8258  -17.1618 C   0  0  0  0  0  0  0  0  0  0  0  0
   15.3554  -11.8872  -16.6910 O   0  0  0  0  0  0  0  0  0  0  0  0
   16.8063  -11.3661  -13.7563 C   0  0  0  0  0  0  0  0  0  0  0  0
   17.3380  -10.0675  -14.3025 C   0  0  1  0  0  0  0  0  0  0  0  0
   18.7290  -10.1257  -14.2772 O   0  0  0  0  0  0  0  0  0  0  0  0
   16.8310   -9.8167  -15.7177 C   0  0  2  0  0  0  0  0  0  0  0  0
   17.3600  -10.8060  -16.6342 N   0  0  0  0  0  0  0  0  0  0  0  0
   17.2125   -8.4571  -16.1738 C   0  0  0  0  0  0  0  0  0  0  0  0
   18.1886   -8.2850  -16.9427 O   0  0  0  0  0  0  0  0  0  0  0  0
   14.6885   -3.1850  -17.3271 C   0  0  0  0  0  0  0  0  0  0  0  0
   16.0097   -3.9373  -17.3470 C   0  0  2  0  0  0  0  0  0  0  0  0
   16.4541   -3.9122  -18.8010 C   0  0  0  0  0  0  0  0  0  0  0  0
   15.7505   -5.3178  -16.8720 C   0  0  0  0  0  0  0  0  0  0  0  0
   16.8903   -6.0026  -16.1806 C   0  0  2  0  0  0  0  0  0  0  0  0
   16.4994   -7.3259  -15.7634 N   0  0  0  0  0  0  0  0  0  0  0  0
   17.5147   -5.2217  -15.1008 C   0  0  0  0  0  0  0  0  0  0  0  0
   17.2066   -5.2537  -13.9029 O   0  0  0  0  0  0  0  0  0  0  0  0
   18.5537   -4.3566  -15.4322 O   0  0  0  0  0  0  0  0  0  0  0  0
  2  1  1  6
  2  4  1  0
  2  3  1  0
  4  6  1  0
  4  5  1  1
  6  7  2  0
  9  8  1  6
  9 11  1  0
 10  9  1  0
 11 12  1  6
 12  6  1  0
 13 11  1  0
 13 20  1  0
 14 13  2  0
 16 15  1  6
 16 17  1  0
 18 16  1  0
 19 20  1  0
 19 18  1  1
 21 19  1  0
 22 21  2  0
 23 21  1  0
M  END
$$$$
