VTL.pdb
     RDKit          3D

 23 22  0  0  1  0  0  0  0  0999 V2000
   19.8664  -14.4931  -18.0409 C   0  0  0  0  0  0  0  0  0  0  0  0
   20.2756  -13.9781  -19.4070 C   0  0  2  0  0  0  0  0  0  0  0  0
   19.8937  -15.0311  -20.4156 C   0  0  0  0  0  0  0  0  0  0  0  0
   21.7488  -13.6993  -19.3699 C   0  0  2  0  0  0  0  0  0  0  0  0
   22.4346  -14.9681  -19.2347 N   0  0  0  0  0  0  0  0  0  0  0  0
   22.1618  -12.7674  -18.3292 C   0  0  0  0  0  0  0  0  0  0  0  0
   22.5339  -13.0947  -17.1737 O   0  0  0  0  0  0  0  0  0  0  0  0
   24.7097  -10.0333  -19.0778 C   0  0  0  0  0  0  0  0  0  0  0  0
   23.5518   -9.3836  -18.3674 C   0  0  1  0  0  0  0  0  0  0  0  0
   22.8109   -8.6740  -19.3089 O   0  0  0  0  0  0  0  0  0  0  0  0
   22.6847  -10.4213  -17.6647 C   0  0  2  0  0  0  0  0  0  0  0  0
   22.1523  -11.3740  -18.6173 N   0  0  0  0  0  0  0  0  0  0  0  0
   21.5702   -9.7628  -16.9391 C   0  0  0  0  0  0  0  0  0  0  0  0
   20.4178   -9.7162  -17.4324 O   0  0  0  0  0  0  0  0  0  0  0  0
   19.4036   -7.2988  -12.7671 C   0  0  0  0  0  0  0  0  0  0  0  0
   19.2658   -8.8084  -12.8852 C   0  0  2  0  0  0  0  0  0  0  0  0
   19.3273   -9.3215  -11.4551 C   0  0  0  0  0  0  0  0  0  0  0  0
   20.4021   -9.3032  -13.6993 C   0  0  0  0  0  0  0  0  0  0  0  0
   20.6775   -8.5573  -14.9698 C   0  0  2  0  0  0  0  0  0  0  0  0
   21.7662   -9.1742  -15.6855 N   0  0  0  0  0  0  0  0  0  0  0  0
   20.8481   -7.1047  -14.8068 C   0  0  0  0  0  0  0  0  0  0  0  0
   21.8491   -6.5316  -14.3589 O   0  0  0  0  0  0  0  0  0  0  0  0
   19.7976   -6.2736  -15.1853 O   0  0  0  0  0  0  0  0  0  0  0  0
  2  1  1  1
  2  4  1  0
  2  3  1  0
  4  6  1  0
  4  5  1  1
  6  7  2  0
  9  8  1  6
  9 11  1  0
 10  9  1  0
 11 12  1  6
 12  6  1  0
 13 11  1  0
 13 20  1  0
 14 13  2  0
 16 15  1  1
 16 17  1  0
 18 16  1  0
 19 20  1  0
 19 18  1  1
 21 19  1  0
 22 21  2  0
 23 21  1  0
M  END
$$$$
