VTL.pdb
     RDKit          3D

 23 22  0  0  1  0  0  0  0  0999 V2000
   26.7908  -20.9633  -11.2977 C   0  0  0  0  0  0  0  0  0  0  0  0
   25.4140  -20.4766  -10.8898 C   0  0  2  0  0  0  0  0  0  0  0  0
   25.2405  -20.7974   -9.4274 C   0  0  0  0  0  0  0  0  0  0  0  0
   24.4076  -21.1568  -11.7695 C   0  0  2  0  0  0  0  0  0  0  0  0
   24.5302  -22.5846  -11.5577 N   0  0  0  0  0  0  0  0  0  0  0  0
   24.5189  -20.8258  -13.1837 C   0  0  0  0  0  0  0  0  0  0  0  0
   25.4975  -21.1158  -13.9179 O   0  0  0  0  0  0  0  0  0  0  0  0
   22.4337  -21.7241  -16.1106 C   0  0  0  0  0  0  0  0  0  0  0  0
   22.3877  -20.2226  -16.0060 C   0  0  1  0  0  0  0  0  0  0  0  0
   21.1729  -19.8673  -15.4254 O   0  0  0  0  0  0  0  0  0  0  0  0
   23.5571  -19.6917  -15.1856 C   0  0  2  0  0  0  0  0  0  0  0  0
   23.4513  -20.1202  -13.8059 N   0  0  0  0  0  0  0  0  0  0  0  0
   23.6057  -18.2098  -15.2474 C   0  0  0  0  0  0  0  0  0  0  0  0
   23.0232  -17.5089  -14.3853 O   0  0  0  0  0  0  0  0  0  0  0  0
   27.2035  -13.9168  -17.3134 C   0  0  0  0  0  0  0  0  0  0  0  0
   25.8950  -14.1439  -16.5731 C   0  0  2  0  0  0  0  0  0  0  0  0
   26.0643  -13.4221  -15.2455 C   0  0  0  0  0  0  0  0  0  0  0  0
   25.7276  -15.6058  -16.3901 C   0  0  0  0  0  0  0  0  0  0  0  0
   24.3162  -16.1077  -16.3451 C   0  0  2  0  0  0  0  0  0  0  0  0
   24.2998  -17.5469  -16.2648 N   0  0  0  0  0  0  0  0  0  0  0  0
   23.4412  -15.5823  -17.4053 C   0  0  0  0  0  0  0  0  0  0  0  0
   23.2242  -16.1105  -18.5030 O   0  0  0  0  0  0  0  0  0  0  0  0
   22.7831  -14.3773  -17.1765 O   0  0  0  0  0  0  0  0  0  0  0  0
  2  1  1  6
  2  4  1  0
  2  3  1  0
  4  6  1  0
  4  5  1  6
  6  7  2  0
  9  8  1  1
  9 11  1  0
 10  9  1  0
 11 12  1  1
 12  6  1  0
 13 11  1  0
 13 20  1  0
 14 13  2  0
 16 15  1  6
 16 17  1  0
 18 16  1  0
 19 20  1  0
 19 18  1  6
 21 19  1  0
 22 21  2  0
 23 21  1  0
M  END
$$$$
