VTL.pdb
     RDKit          3D

 23 22  0  0  1  0  0  0  0  0999 V2000
   16.9751  -12.9795  -16.3839 C   0  0  0  0  0  0  0  0  0  0  0  0
   17.8670  -13.2155  -17.5871 C   0  0  2  0  0  0  0  0  0  0  0  0
   17.2789  -14.3670  -18.3617 C   0  0  0  0  0  0  0  0  0  0  0  0
   19.2538  -13.4859  -17.0843 C   0  0  2  0  0  0  0  0  0  0  0  0
   19.2446  -14.7840  -16.4414 N   0  0  0  0  0  0  0  0  0  0  0  0
   19.7836  -12.4635  -16.1921 C   0  0  0  0  0  0  0  0  0  0  0  0
   19.4978  -12.3512  -14.9729 O   0  0  0  0  0  0  0  0  0  0  0  0
   23.1768  -11.6504  -15.0402 C   0  0  0  0  0  0  0  0  0  0  0  0
   22.6969  -10.4401  -15.7970 C   0  0  1  0  0  0  0  0  0  0  0  0
   23.2715  -10.4681  -17.0651 O   0  0  0  0  0  0  0  0  0  0  0  0
   21.1760  -10.4167  -15.8908 C   0  0  2  0  0  0  0  0  0  0  0  0
   20.6968  -11.5064  -16.7162 N   0  0  0  0  0  0  0  0  0  0  0  0
   20.7090   -9.1232  -16.4484 C   0  0  0  0  0  0  0  0  0  0  0  0
   20.1703   -9.0656  -17.5799 O   0  0  0  0  0  0  0  0  0  0  0  0
   16.9531   -5.6227  -17.3468 C   0  0  0  0  0  0  0  0  0  0  0  0
   18.4626   -5.4544  -17.2771 C   0  0  2  0  0  0  0  0  0  0  0  0
   18.8933   -5.1756  -18.7085 C   0  0  0  0  0  0  0  0  0  0  0  0
   19.0351   -6.7226  -16.7646 C   0  0  0  0  0  0  0  0  0  0  0  0
   20.4599   -6.6645  -16.3033 C   0  0  2  0  0  0  0  0  0  0  0  0
   20.8529   -7.9293  -15.7342 N   0  0  0  0  0  0  0  0  0  0  0  0
   20.7802   -5.5203  -15.4350 C   0  0  0  0  0  0  0  0  0  0  0  0
   20.8525   -4.3354  -15.7838 O   0  0  0  0  0  0  0  0  0  0  0  0
   21.0299   -5.7677  -14.0882 O   0  0  0  0  0  0  0  0  0  0  0  0
  2  1  1  1
  2  4  1  0
  2  3  1  0
  4  6  1  0
  4  5  1  1
  6  7  2  0
  9  8  1  1
  9 11  1  0
 10  9  1  0
 11 12  1  6
 12  6  1  0
 13 11  1  0
 13 20  1  0
 14 13  2  0
 16 15  1  6
 16 17  1  0
 18 16  1  0
 19 20  1  0
 19 18  1  1
 21 19  1  0
 22 21  2  0
 23 21  1  0
M  END
$$$$
