VTL.pdb
     RDKit          3D

 23 22  0  0  1  0  0  0  0  0999 V2000
   24.1866  -19.3501  -14.2476 C   0  0  0  0  0  0  0  0  0  0  0  0
   23.6289  -20.6943  -14.6728 C   0  0  2  0  0  0  0  0  0  0  0  0
   22.2306  -20.4580  -15.1835 C   0  0  0  0  0  0  0  0  0  0  0  0
   23.6797  -21.6087  -13.4851 C   0  0  2  0  0  0  0  0  0  0  0  0
   22.7138  -21.1293  -12.5178 N   0  0  0  0  0  0  0  0  0  0  0  0
   24.9993  -21.7458  -12.8835 C   0  0  0  0  0  0  0  0  0  0  0  0
   26.0072  -22.2311  -13.4575 O   0  0  0  0  0  0  0  0  0  0  0  0
   27.6486  -20.9042  -13.1334 C   0  0  0  0  0  0  0  0  0  0  0  0
   27.4562  -20.4059  -11.7254 C   0  0  1  0  0  0  0  0  0  0  0  0
   26.9607  -19.1063  -11.7914 O   0  0  0  0  0  0  0  0  0  0  0  0
   26.5079  -21.3094  -10.9463 C   0  0  2  0  0  0  0  0  0  0  0  0
   25.1884  -21.3040  -11.5442 N   0  0  0  0  0  0  0  0  0  0  0  0
   26.4181  -20.8724   -9.5310 C   0  0  0  0  0  0  0  0  0  0  0  0
   25.3879  -20.3044   -9.0956 O   0  0  0  0  0  0  0  0  0  0  0  0
   28.9015  -19.1100   -5.0704 C   0  0  0  0  0  0  0  0  0  0  0  0
   28.6916  -20.6157   -5.0975 C   0  0  2  0  0  0  0  0  0  0  0  0
   29.9069  -21.1945   -4.3904 C   0  0  0  0  0  0  0  0  0  0  0  0
   28.6257  -21.0368   -6.5177 C   0  0  0  0  0  0  0  0  0  0  0  0
   27.4098  -20.6027   -7.2789 C   0  0  2  0  0  0  0  0  0  0  0  0
   27.4749  -21.0782   -8.6382 N   0  0  0  0  0  0  0  0  0  0  0  0
   27.1063  -19.1656   -7.1877 C   0  0  0  0  0  0  0  0  0  0  0  0
   27.5218  -18.2809   -7.9463 O   0  0  0  0  0  0  0  0  0  0  0  0
   26.2744  -18.7342   -6.1584 O   0  0  0  0  0  0  0  0  0  0  0  0
  2  1  1  1
  2  4  1  0
  2  3  1  0
  4  6  1  0
  4  5  1  1
  6  7  2  0
  9  8  1  6
  9 11  1  0
 10  9  1  0
 11 12  1  6
 12  6  1  0
 13 11  1  0
 13 20  1  0
 14 13  2  0
 16 15  1  6
 16 17  1  0
 18 16  1  0
 19 20  1  0
 19 18  1  6
 21 19  1  0
 22 21  2  0
 23 21  1  0
M  END
$$$$
