VTL.pdb
     RDKit          3D

 23 22  0  0  1  0  0  0  0  0999 V2000
   21.2961  -19.5000  -10.8284 C   0  0  0  0  0  0  0  0  0  0  0  0
   21.6557  -20.9284  -11.1880 C   0  0  2  0  0  0  0  0  0  0  0  0
   20.5147  -21.8045  -10.7382 C   0  0  0  0  0  0  0  0  0  0  0  0
   22.9560  -21.2571  -10.5167 C   0  0  2  0  0  0  0  0  0  0  0  0
   22.7438  -21.1859   -9.0855 N   0  0  0  0  0  0  0  0  0  0  0  0
   24.0752  -20.4176  -10.9225 C   0  0  0  0  0  0  0  0  0  0  0  0
   24.5611  -19.4821  -10.2373 O   0  0  0  0  0  0  0  0  0  0  0  0
   27.4859  -21.5100  -11.5716 C   0  0  0  0  0  0  0  0  0  0  0  0
   27.0302  -20.8495  -12.8459 C   0  0  1  0  0  0  0  0  0  0  0  0
   26.6761  -21.8496  -13.7478 O   0  0  0  0  0  0  0  0  0  0  0  0
   25.8582  -19.9095  -12.5903 C   0  0  2  0  0  0  0  0  0  0  0  0
   24.6828  -20.6541  -12.1872 N   0  0  0  0  0  0  0  0  0  0  0  0
   25.5547  -19.1140  -13.8056 C   0  0  0  0  0  0  0  0  0  0  0  0
   24.5491  -19.3711  -14.5102 O   0  0  0  0  0  0  0  0  0  0  0  0
   27.7217  -14.0572  -16.5312 C   0  0  0  0  0  0  0  0  0  0  0  0
   26.7034  -15.1822  -16.6277 C   0  0  2  0  0  0  0  0  0  0  0  0
   25.3544  -14.4852  -16.7070 C   0  0  0  0  0  0  0  0  0  0  0  0
   26.8272  -16.0095  -15.4034 C   0  0  0  0  0  0  0  0  0  0  0  0
   26.1263  -17.3340  -15.4283 C   0  0  2  0  0  0  0  0  0  0  0  0
   26.3761  -18.0548  -14.2052 N   0  0  0  0  0  0  0  0  0  0  0  0
   26.3787  -18.1420  -16.6322 C   0  0  0  0  0  0  0  0  0  0  0  0
   27.3364  -18.9039  -16.8139 O   0  0  0  0  0  0  0  0  0  0  0  0
   25.4677  -18.0592  -17.6813 O   0  0  0  0  0  0  0  0  0  0  0  0
  2  1  1  1
  2  4  1  0
  2  3  1  0
  4  6  1  0
  4  5  1  1
  6  7  2  0
  9  8  1  1
  9 11  1  0
 10  9  1  0
 11 12  1  6
 12  6  1  0
 13 11  1  0
 13 20  1  0
 14 13  2  0
 16 15  1  1
 16 17  1  0
 18 16  1  0
 19 20  1  0
 19 18  1  6
 21 19  1  0
 22 21  2  0
 23 21  1  0
M  END
$$$$
