VTL.pdb
     RDKit          3D

 23 22  0  0  1  0  0  0  0  0999 V2000
   25.8642  -20.8448  -18.3838 C   0  0  0  0  0  0  0  0  0  0  0  0
   26.2817  -22.3021  -18.4077 C   0  0  2  0  0  0  0  0  0  0  0  0
   25.4623  -22.9855  -19.4722 C   0  0  0  0  0  0  0  0  0  0  0  0
   26.0598  -22.8657  -17.0356 C   0  0  2  0  0  0  0  0  0  0  0  0
   24.6305  -22.9933  -16.8372 N   0  0  0  0  0  0  0  0  0  0  0  0
   26.6711  -22.0967  -15.9599 C   0  0  0  0  0  0  0  0  0  0  0  0
   27.8983  -21.8406  -15.8632 O   0  0  0  0  0  0  0  0  0  0  0  0
   27.0022  -18.7486  -15.0599 C   0  0  0  0  0  0  0  0  0  0  0  0
   26.1330  -19.3470  -13.9857 C   0  0  1  0  0  0  0  0  0  0  0  0
   24.8030  -19.1206  -14.3305 O   0  0  0  0  0  0  0  0  0  0  0  0
   26.4054  -20.8377  -13.8238 C   0  0  2  0  0  0  0  0  0  0  0  0
   25.8370  -21.5851  -14.9269 N   0  0  0  0  0  0  0  0  0  0  0  0
   25.8449  -21.3329  -12.5421 C   0  0  0  0  0  0  0  0  0  0  0  0
   24.8258  -22.0642  -12.5235 O   0  0  0  0  0  0  0  0  0  0  0  0
   26.5869  -19.2481   -6.8266 C   0  0  0  0  0  0  0  0  0  0  0  0
   25.7116  -20.1086   -7.7240 C   0  0  2  0  0  0  0  0  0  0  0  0
   25.5487  -21.4205   -6.9727 C   0  0  0  0  0  0  0  0  0  0  0  0
   26.4268  -20.2930   -9.0098 C   0  0  0  0  0  0  0  0  0  0  0  0
   25.6597  -20.9799  -10.0988 C   0  0  2  0  0  0  0  0  0  0  0  0
   26.4315  -21.0023  -11.3161 N   0  0  0  0  0  0  0  0  0  0  0  0
   24.2898  -20.4800  -10.2972 C   0  0  0  0  0  0  0  0  0  0  0  0
   23.9597  -19.5037  -10.9818 O   0  0  0  0  0  0  0  0  0  0  0  0
   23.2476  -21.1521   -9.6651 O   0  0  0  0  0  0  0  0  0  0  0  0
  2  1  1  1
  2  4  1  0
  2  3  1  0
  4  6  1  0
  4  5  1  1
  6  7  2  0
  9  8  1  6
  9 11  1  0
 10  9  1  0
 11 12  1  6
 12  6  1  0
 13 11  1  0
 13 20  1  0
 14 13  2  0
 16 15  1  1
 16 17  1  0
 18 16  1  0
 19 20  1  0
 19 18  1  1
 21 19  1  0
 22 21  2  0
 23 21  1  0
M  END
$$$$
