VTL.pdb
     RDKit          3D

 23 22  0  0  1  0  0  0  0  0999 V2000
   15.0604  -15.6757  -16.8767 C   0  0  0  0  0  0  0  0  0  0  0  0
   16.1582  -14.6980  -17.2478 C   0  0  2  0  0  0  0  0  0  0  0  0
   17.0273  -14.5168  -16.0298 C   0  0  0  0  0  0  0  0  0  0  0  0
   15.5057  -13.4272  -17.7049 C   0  0  2  0  0  0  0  0  0  0  0  0
   14.6327  -13.7539  -18.8138 N   0  0  0  0  0  0  0  0  0  0  0  0
   16.4358  -12.3658  -18.0658 C   0  0  0  0  0  0  0  0  0  0  0  0
   16.9059  -12.1787  -19.2168 O   0  0  0  0  0  0  0  0  0  0  0  0
   15.8539   -9.6205  -19.0662 C   0  0  0  0  0  0  0  0  0  0  0  0
   16.6686   -9.1643  -17.8848 C   0  0  1  0  0  0  0  0  0  0  0  0
   15.7888   -8.7862  -16.8738 O   0  0  0  0  0  0  0  0  0  0  0  0
   17.6063  -10.2655  -17.4043 C   0  0  2  0  0  0  0  0  0  0  0  0
   16.8605  -11.4575  -17.0561 N   0  0  0  0  0  0  0  0  0  0  0  0
   18.3912   -9.8056  -16.2319 C   0  0  0  0  0  0  0  0  0  0  0  0
   18.1752  -10.2725  -15.0878 O   0  0  0  0  0  0  0  0  0  0  0  0
   23.2943   -8.0376  -14.4819 C   0  0  0  0  0  0  0  0  0  0  0  0
   22.3360   -9.1229  -14.0173 C   0  0  2  0  0  0  0  0  0  0  0  0
   23.2187  -10.3235  -13.7153 C   0  0  0  0  0  0  0  0  0  0  0  0
   21.3914   -9.3964  -15.1271 C   0  0  0  0  0  0  0  0  0  0  0  0
   20.2228   -8.4652  -15.2435 C   0  0  2  0  0  0  0  0  0  0  0  0
   19.3946   -8.8399  -16.3623 N   0  0  0  0  0  0  0  0  0  0  0  0
   20.5716   -7.0355  -15.2413 C   0  0  0  0  0  0  0  0  0  0  0  0
   20.8353   -6.3487  -14.2466 O   0  0  0  0  0  0  0  0  0  0  0  0
   20.6161   -6.3686  -16.4623 O   0  0  0  0  0  0  0  0  0  0  0  0
  2  1  1  1
  2  4  1  0
  2  3  1  0
  4  6  1  0
  4  5  1  6
  6  7  2  0
  9  8  1  6
  9 11  1  0
 10  9  1  0
 11 12  1  1
 12  6  1  0
 13 11  1  0
 13 20  1  0
 14 13  2  0
 16 15  1  6
 16 17  1  0
 18 16  1  0
 19 20  1  0
 19 18  1  6
 21 19  1  0
 22 21  2  0
 23 21  1  0
M  END
$$$$
