VTL.pdb
     RDKit          3D

 23 22  0  0  1  0  0  0  0  0999 V2000
   21.2910  -15.1812  -15.6722 C   0  0  0  0  0  0  0  0  0  0  0  0
   19.7851  -15.1193  -15.5076 C   0  0  2  0  0  0  0  0  0  0  0  0
   19.3049  -16.5240  -15.2464 C   0  0  0  0  0  0  0  0  0  0  0  0
   19.2111  -14.5192  -16.7565 C   0  0  2  0  0  0  0  0  0  0  0  0
   19.4186  -15.4635  -17.8352 N   0  0  0  0  0  0  0  0  0  0  0  0
   19.7460  -13.2080  -17.0984 C   0  0  0  0  0  0  0  0  0  0  0  0
   20.6910  -13.0011  -17.9015 O   0  0  0  0  0  0  0  0  0  0  0  0
   18.8804   -8.3620  -17.2206 C   0  0  0  0  0  0  0  0  0  0  0  0
   18.4487   -9.7401  -16.7939 C   0  0  1  0  0  0  0  0  0  0  0  0
   17.3999  -10.1386  -17.6186 O   0  0  0  0  0  0  0  0  0  0  0  0
   19.6061  -10.7285  -16.8720 C   0  0  2  0  0  0  0  0  0  0  0  0
   19.1721  -12.0567  -16.4902 N   0  0  0  0  0  0  0  0  0  0  0  0
   20.7211  -10.2944  -15.9943 C   0  0  0  0  0  0  0  0  0  0  0  0
   20.6650  -10.4578  -14.7518 O   0  0  0  0  0  0  0  0  0  0  0  0
   26.6194   -9.4052  -16.2479 C   0  0  0  0  0  0  0  0  0  0  0  0
   25.4329   -9.5014  -15.3019 C   0  0  2  0  0  0  0  0  0  0  0  0
   25.8007  -10.6038  -14.3213 C   0  0  0  0  0  0  0  0  0  0  0  0
   24.2398   -9.8543  -16.1085 C   0  0  0  0  0  0  0  0  0  0  0  0
   22.9416   -9.2506  -15.6653 C   0  0  2  0  0  0  0  0  0  0  0  0
   21.8679   -9.6908  -16.5205 N   0  0  0  0  0  0  0  0  0  0  0  0
   22.9706   -7.7901  -15.4864 C   0  0  0  0  0  0  0  0  0  0  0  0
   22.9244   -6.9422  -16.3863 O   0  0  0  0  0  0  0  0  0  0  0  0
   23.0579   -7.2889  -14.1908 O   0  0  0  0  0  0  0  0  0  0  0  0
  2  1  1  6
  2  4  1  0
  2  3  1  0
  4  6  1  0
  4  5  1  6
  6  7  2  0
  9  8  1  6
  9 11  1  0
 10  9  1  0
 11 12  1  1
 12  6  1  0
 13 11  1  0
 13 20  1  0
 14 13  2  0
 16 15  1  6
 16 17  1  0
 18 16  1  0
 19 20  1  0
 19 18  1  6
 21 19  1  0
 22 21  2  0
 23 21  1  0
M  END
$$$$
