VTL.pdb
     RDKit          3D

 23 22  0  0  1  0  0  0  0  0999 V2000
   13.5917  -11.7152  -10.6267 C   0  0  0  0  0  0  0  0  0  0  0  0
   13.7014  -11.0100  -11.9644 C   0  0  2  0  0  0  0  0  0  0  0  0
   13.0256  -11.8850  -12.9889 C   0  0  0  0  0  0  0  0  0  0  0  0
   15.1570  -10.7834  -12.2459 C   0  0  2  0  0  0  0  0  0  0  0  0
   15.7964  -12.0804  -12.3333 N   0  0  0  0  0  0  0  0  0  0  0  0
   15.8341   -9.9301  -11.2787 C   0  0  0  0  0  0  0  0  0  0  0  0
   16.4441  -10.3388  -10.2581 O   0  0  0  0  0  0  0  0  0  0  0  0
   18.7660   -8.1925  -11.4609 C   0  0  0  0  0  0  0  0  0  0  0  0
   17.7788   -7.0893  -11.1850 C   0  0  1  0  0  0  0  0  0  0  0  0
   17.5051   -6.4440  -12.3882 O   0  0  0  0  0  0  0  0  0  0  0  0
   16.5013   -7.6372  -10.5602 C   0  0  2  0  0  0  0  0  0  0  0  0
   15.8187   -8.5218  -11.4820 N   0  0  0  0  0  0  0  0  0  0  0  0
   15.5968   -6.5280  -10.1680 C   0  0  0  0  0  0  0  0  0  0  0  0
   14.5777   -6.2561  -10.8471 O   0  0  0  0  0  0  0  0  0  0  0  0
   12.1157   -4.3127   -7.5919 C   0  0  0  0  0  0  0  0  0  0  0  0
   13.0522   -5.4308   -7.1618 C   0  0  2  0  0  0  0  0  0  0  0  0
   12.6609   -5.7402   -5.7255 C   0  0  0  0  0  0  0  0  0  0  0  0
   14.4405   -4.9191   -7.2586 C   0  0  0  0  0  0  0  0  0  0  0  0
   14.9618   -4.6835   -8.6439 C   0  0  2  0  0  0  0  0  0  0  0  0
   15.8489   -5.7513   -9.0325 N   0  0  0  0  0  0  0  0  0  0  0  0
   15.5394   -3.3483   -8.8661 C   0  0  0  0  0  0  0  0  0  0  0  0
   16.7422   -3.0592   -8.8451 O   0  0  0  0  0  0  0  0  0  0  0  0
   14.6709   -2.2922   -9.1268 O   0  0  0  0  0  0  0  0  0  0  0  0
  2  1  1  1
  2  4  1  0
  2  3  1  0
  4  6  1  0
  4  5  1  1
  6  7  2  0
  9  8  1  6
  9 11  1  0
 10  9  1  0
 11 12  1  6
 12  6  1  0
 13 11  1  0
 13 20  1  0
 14 13  2  0
 16 15  1  1
 16 17  1  0
 18 16  1  0
 19 20  1  0
 19 18  1  1
 21 19  1  0
 22 21  2  0
 23 21  1  0
M  END
$$$$
