VTL.pdb
     RDKit          3D

 23 22  0  0  1  0  0  0  0  0999 V2000
   27.3148  -25.3513  -16.1898 C   0  0  0  0  0  0  0  0  0  0  0  0
   26.0222  -24.8388  -16.7941 C   0  0  2  0  0  0  0  0  0  0  0  0
   25.6233  -25.8025  -17.8823 C   0  0  0  0  0  0  0  0  0  0  0  0
   26.2702  -23.4474  -17.2960 C   0  0  2  0  0  0  0  0  0  0  0  0
   27.2177  -23.5349  -18.3883 N   0  0  0  0  0  0  0  0  0  0  0  0
   26.7286  -22.5105  -16.2791 C   0  0  0  0  0  0  0  0  0  0  0  0
   27.9230  -22.1557  -16.1107 O   0  0  0  0  0  0  0  0  0  0  0  0
   26.4556  -19.1244  -16.0634 C   0  0  0  0  0  0  0  0  0  0  0  0
   25.7472  -19.5643  -14.8095 C   0  0  1  0  0  0  0  0  0  0  0  0
   24.3762  -19.5134  -15.0477 O   0  0  0  0  0  0  0  0  0  0  0  0
   26.1749  -20.9683  -14.3992 C   0  0  2  0  0  0  0  0  0  0  0  0
   25.7707  -21.9388  -15.3958 N   0  0  0  0  0  0  0  0  0  0  0  0
   25.5887  -21.3273  -13.0841 C   0  0  0  0  0  0  0  0  0  0  0  0
   24.5657  -22.0496  -13.0095 O   0  0  0  0  0  0  0  0  0  0  0  0
   26.3718  -19.3444   -7.3214 C   0  0  0  0  0  0  0  0  0  0  0  0
   25.5952  -20.3125   -8.1998 C   0  0  2  0  0  0  0  0  0  0  0  0
   25.7396  -21.6639   -7.5180 C   0  0  0  0  0  0  0  0  0  0  0  0
   26.2197  -20.3022   -9.5446 C   0  0  0  0  0  0  0  0  0  0  0  0
   25.4357  -20.9575  -10.6411 C   0  0  2  0  0  0  0  0  0  0  0  0
   26.1546  -20.8744  -11.8878 N   0  0  0  0  0  0  0  0  0  0  0  0
   24.0389  -20.5080  -10.7532 C   0  0  0  0  0  0  0  0  0  0  0  0
   23.6400  -19.5038  -11.3561 O   0  0  0  0  0  0  0  0  0  0  0  0
   23.0527  -21.2676  -10.1304 O   0  0  0  0  0  0  0  0  0  0  0  0
  2  1  1  6
  2  4  1  0
  2  3  1  0
  4  6  1  0
  4  5  1  6
  6  7  2  0
  9  8  1  6
  9 11  1  0
 10  9  1  0
 11 12  1  6
 12  6  1  0
 13 11  1  0
 13 20  1  0
 14 13  2  0
 16 15  1  1
 16 17  1  0
 18 16  1  0
 19 20  1  0
 19 18  1  1
 21 19  1  0
 22 21  2  0
 23 21  1  0
M  END
$$$$
