LML.pdb
     RDKit          3D

 25 24  0  0  1  0  0  0  0  0999 V2000
    6.6279  -13.1835   25.0384 C   0  0  0  0  0  0  0  0  0  0  0  0
    5.8028  -13.9305   26.0881 C   0  0  2  0  0  0  0  0  0  0  0  0
    5.8501  -13.1162   27.3512 C   0  0  0  0  0  0  0  0  0  0  0  0
    6.3105  -15.3359   26.2718 C   0  0  0  0  0  0  0  0  0  0  0  0
    6.1245  -16.1335   25.0214 C   0  0  2  0  0  0  0  0  0  0  0  0
    5.5128  -17.4029   25.3664 N   0  0  0  0  0  0  0  0  0  0  0  0
    7.3874  -16.4079   24.3123 C   0  0  0  0  0  0  0  0  0  0  0  0
    7.9654  -17.5337   24.4140 O   0  0  0  0  0  0  0  0  0  0  0  0
    9.8364  -12.2433   19.9127 C   0  0  0  0  0  0  0  0  0  0  0  0
   10.9117  -13.6469   19.6203 S   0  0  0  0  0  0  0  0  0  0  0  0
   10.7280  -14.9323   20.9131 C   0  0  0  0  0  0  0  0  0  0  0  0
    9.5269  -14.6847   21.7500 C   0  0  0  0  0  0  0  0  0  0  0  0
    9.3039  -15.7570   22.7781 C   0  0  2  0  0  0  0  0  0  0  0  0
    8.0440  -15.4628   23.4803 N   0  0  0  0  0  0  0  0  0  0  0  0
   10.4055  -15.8723   23.7763 C   0  0  0  0  0  0  0  0  0  0  0  0
   11.5542  -16.1461   23.3637 O   0  0  0  0  0  0  0  0  0  0  0  0
    9.7183  -14.1821   29.0637 C   0  0  0  0  0  0  0  0  0  0  0  0
    9.9452  -14.3442   27.5100 C   0  0  1  0  0  0  0  0  0  0  0  0
   10.3777  -12.9304   27.1264 C   0  0  0  0  0  0  0  0  0  0  0  0
   10.9944  -15.3657   27.3939 C   0  0  0  0  0  0  0  0  0  0  0  0
   11.3458  -15.9027   26.0666 C   0  0  2  0  0  0  0  0  0  0  0  0
   10.1978  -15.6856   25.1520 N   0  0  0  0  0  0  0  0  0  0  0  0
   11.6435  -17.3231   26.0398 C   0  0  0  0  0  0  0  0  0  0  0  0
   12.6198  -17.7637   26.7358 O   0  0  0  0  0  0  0  0  0  0  0  0
   10.9593  -18.2790   25.3290 O   0  0  0  0  0  0  0  0  0  0  0  0
  2  1  1  6
  3  2  1  0
  4  2  1  0
  4  5  1  0
  5  6  1  1
  7  5  1  0
  7  8  2  0
  9 10  1  0
 10 11  1  0
 11 12  1  0
 13 12  1  6
 13 14  1  0
 14  7  1  0
 15 13  1  0
 16 15  2  0
 18 17  1  1
 18 19  1  0
 21 20  1  1
 20 18  1  0
 21 22  1  0
 22 15  1  0
 23 21  1  0
 24 23  2  0
 25 23  1  0
M  END
$$$$
