LML.pdb
     RDKit          3D

 25 24  0  0  1  0  0  0  0  0999 V2000
    8.8520  -21.5055   18.9616 C   0  0  0  0  0  0  0  0  0  0  0  0
    7.6025  -20.6397   18.7882 C   0  0  2  0  0  0  0  0  0  0  0  0
    7.1323  -20.8184   17.3712 C   0  0  0  0  0  0  0  0  0  0  0  0
    7.8894  -19.2040   19.1388 C   0  0  0  0  0  0  0  0  0  0  0  0
    8.4605  -19.0995   20.5162 C   0  0  2  0  0  0  0  0  0  0  0  0
    7.4233  -19.4282   21.4757 N   0  0  0  0  0  0  0  0  0  0  0  0
    8.9729  -17.7542   20.8337 C   0  0  0  0  0  0  0  0  0  0  0  0
    9.9459  -17.2541   20.1894 O   0  0  0  0  0  0  0  0  0  0  0  0
    8.3252  -11.7015   18.4292 C   0  0  0  0  0  0  0  0  0  0  0  0
    8.0498  -12.3371   20.0821 S   0  0  0  0  0  0  0  0  0  0  0  0
    7.9596  -14.1671   20.1068 C   0  0  0  0  0  0  0  0  0  0  0  0
    7.6868  -14.6731   21.4757 C   0  0  0  0  0  0  0  0  0  0  0  0
    8.8072  -15.5138   22.0184 C   0  0  2  0  0  0  0  0  0  0  0  0
    8.4365  -16.9293   21.8575 N   0  0  0  0  0  0  0  0  0  0  0  0
    9.1184  -15.2490   23.4523 C   0  0  0  0  0  0  0  0  0  0  0  0
   10.2014  -14.6883   23.7311 O   0  0  0  0  0  0  0  0  0  0  0  0
    5.5440  -13.0359   26.5548 C   0  0  0  0  0  0  0  0  0  0  0  0
    6.9635  -13.2571   25.9006 C   0  0  1  0  0  0  0  0  0  0  0  0
    7.7047  -12.0091   26.3760 C   0  0  0  0  0  0  0  0  0  0  0  0
    7.4438  -14.5199   26.4771 C   0  0  0  0  0  0  0  0  0  0  0  0
    8.6024  -15.2033   25.8736 C   0  0  2  0  0  0  0  0  0  0  0  0
    8.2439  -15.6053   24.4910 N   0  0  0  0  0  0  0  0  0  0  0  0
    9.0325  -16.4053   26.5641 C   0  0  0  0  0  0  0  0  0  0  0  0
    9.4048  -16.3188   27.7830 O   0  0  0  0  0  0  0  0  0  0  0  0
    9.0756  -17.6712   26.0324 O   0  0  0  0  0  0  0  0  0  0  0  0
  2  1  1  6
  3  2  1  0
  4  2  1  0
  4  5  1  0
  5  6  1  1
  7  5  1  0
  7  8  2  0
  9 10  1  0
 10 11  1  0
 11 12  1  0
 13 12  1  1
 13 14  1  0
 14  7  1  0
 15 13  1  0
 16 15  2  0
 18 17  1  1
 18 19  1  0
 21 20  1  1
 20 18  1  0
 21 22  1  0
 22 15  1  0
 23 21  1  0
 24 23  2  0
 25 23  1  0
M  END
$$$$
