LML.pdb
     RDKit          3D

 25 24  0  0  1  0  0  0  0  0999 V2000
    9.1910  -14.3242   18.0140 C   0  0  0  0  0  0  0  0  0  0  0  0
    7.9055  -13.8632   18.7038 C   0  0  2  0  0  0  0  0  0  0  0  0
    7.4092  -12.6567   17.9562 C   0  0  0  0  0  0  0  0  0  0  0  0
    8.1452  -13.5950   20.1657 C   0  0  0  0  0  0  0  0  0  0  0  0
    8.7213  -14.7998   20.8373 C   0  0  2  0  0  0  0  0  0  0  0  0
    7.8017  -15.9093   20.6705 N   0  0  0  0  0  0  0  0  0  0  0  0
    8.9541  -14.6068   22.2801 C   0  0  0  0  0  0  0  0  0  0  0  0
    9.7676  -13.7277   22.7012 O   0  0  0  0  0  0  0  0  0  0  0  0
    6.0480  -11.0266   26.3600 C   0  0  0  0  0  0  0  0  0  0  0  0
    6.7828  -12.6432   26.6018 S   0  0  0  0  0  0  0  0  0  0  0  0
    6.4437  -13.7678   25.1955 C   0  0  0  0  0  0  0  0  0  0  0  0
    7.1326  -15.0712   25.3718 C   0  0  0  0  0  0  0  0  0  0  0  0
    8.4890  -15.1034   24.7270 C   0  0  2  0  0  0  0  0  0  0  0  0
    8.3066  -15.3663   23.2901 N   0  0  0  0  0  0  0  0  0  0  0  0
    9.4040  -16.1315   25.3007 C   0  0  0  0  0  0  0  0  0  0  0  0
    9.0239  -17.3232   25.3141 O   0  0  0  0  0  0  0  0  0  0  0  0
    9.5805  -14.7191   29.7856 C   0  0  0  0  0  0  0  0  0  0  0  0
   10.1640  -14.8076   28.3215 C   0  0  1  0  0  0  0  0  0  0  0  0
   11.2756  -13.7619   28.3838 C   0  0  0  0  0  0  0  0  0  0  0  0
   10.6262  -16.1957   28.1908 C   0  0  0  0  0  0  0  0  0  0  0  0
   11.2067  -16.6541   26.9155 C   0  0  2  0  0  0  0  0  0  0  0  0
   10.6669  -15.8090   25.8219 N   0  0  0  0  0  0  0  0  0  0  0  0
   10.9114  -18.0322   26.5684 C   0  0  0  0  0  0  0  0  0  0  0  0
   11.7692  -18.6980   25.8956 O   0  0  0  0  0  0  0  0  0  0  0  0
    9.7734  -18.7242   26.9046 O   0  0  0  0  0  0  0  0  0  0  0  0
  2  1  1  6
  3  2  1  0
  4  2  1  0
  4  5  1  0
  5  6  1  1
  7  5  1  0
  7  8  2  0
  9 10  1  0
 10 11  1  0
 11 12  1  0
 13 12  1  1
 13 14  1  0
 14  7  1  0
 15 13  1  0
 16 15  2  0
 18 17  1  1
 18 19  1  0
 21 20  1  1
 20 18  1  0
 21 22  1  0
 22 15  1  0
 23 21  1  0
 24 23  2  0
 25 23  1  0
M  END
$$$$
