LML.pdb
     RDKit          3D

 25 24  0  0  1  0  0  0  0  0999 V2000
    9.3183  -13.4995   18.6753 C   0  0  0  0  0  0  0  0  0  0  0  0
    7.9451  -13.8817   19.2313 C   0  0  2  0  0  0  0  0  0  0  0  0
    6.9358  -12.9762   18.5814 C   0  0  0  0  0  0  0  0  0  0  0  0
    7.9311  -13.7995   20.7345 C   0  0  0  0  0  0  0  0  0  0  0  0
    8.8032  -14.8570   21.3306 C   0  0  2  0  0  0  0  0  0  0  0  0
    8.6130  -16.0892   20.5888 N   0  0  0  0  0  0  0  0  0  0  0  0
    8.5085  -15.1232   22.7502 C   0  0  0  0  0  0  0  0  0  0  0  0
    7.8730  -16.1638   23.1041 O   0  0  0  0  0  0  0  0  0  0  0  0
    7.1181  -10.7631   26.2869 C   0  0  0  0  0  0  0  0  0  0  0  0
    6.7310  -12.2738   27.1700 S   0  0  0  0  0  0  0  0  0  0  0  0
    5.9930  -13.5406   26.0709 C   0  0  0  0  0  0  0  0  0  0  0  0
    6.7903  -13.7047   24.8292 C   0  0  0  0  0  0  0  0  0  0  0  0
    8.1830  -14.2016   25.0943 C   0  0  2  0  0  0  0  0  0  0  0  0
    8.8994  -14.2626   23.8098 N   0  0  0  0  0  0  0  0  0  0  0  0
    8.2299  -15.5422   25.7453 C   0  0  0  0  0  0  0  0  0  0  0  0
    7.7584  -15.6593   26.8980 O   0  0  0  0  0  0  0  0  0  0  0  0
    7.3284  -20.2484   23.2285 C   0  0  0  0  0  0  0  0  0  0  0  0
    7.2610  -18.9845   24.1719 C   0  0  1  0  0  0  0  0  0  0  0  0
    5.9809  -19.2694   24.9549 C   0  0  0  0  0  0  0  0  0  0  0  0
    8.4974  -19.0467   24.9626 C   0  0  0  0  0  0  0  0  0  0  0  0
    8.8360  -17.9395   25.8752 C   0  0  2  0  0  0  0  0  0  0  0  0
    8.7813  -16.6677   25.1129 N   0  0  0  0  0  0  0  0  0  0  0  0
   10.1578  -18.0182   26.4696 C   0  0  0  0  0  0  0  0  0  0  0  0
   10.4409  -19.0135   27.2185 O   0  0  0  0  0  0  0  0  0  0  0  0
   11.1753  -17.1108   26.3008 O   0  0  0  0  0  0  0  0  0  0  0  0
  2  1  1  6
  3  2  1  0
  4  2  1  0
  4  5  1  0
  5  6  1  6
  7  5  1  0
  7  8  2  0
  9 10  1  0
 10 11  1  0
 11 12  1  0
 13 12  1  6
 13 14  1  0
 14  7  1  0
 15 13  1  0
 16 15  2  0
 18 17  1  6
 18 19  1  0
 21 20  1  6
 20 18  1  0
 21 22  1  0
 22 15  1  0
 23 21  1  0
 24 23  2  0
 25 23  1  0
M  END
$$$$
