LML.pdb
     RDKit          3D

 25 24  0  0  1  0  0  0  0  0999 V2000
    9.1369  -21.7496   18.5744 C   0  0  0  0  0  0  0  0  0  0  0  0
    8.4183  -20.8590   19.5899 C   0  0  2  0  0  0  0  0  0  0  0  0
    7.0527  -20.5647   19.0337 C   0  0  0  0  0  0  0  0  0  0  0  0
    9.2189  -19.6170   19.8784 C   0  0  0  0  0  0  0  0  0  0  0  0
    8.8972  -19.0837   21.2372 C   0  0  2  0  0  0  0  0  0  0  0  0
    7.4600  -19.1334   21.4280 N   0  0  0  0  0  0  0  0  0  0  0  0
    9.3410  -17.6921   21.4368 C   0  0  0  0  0  0  0  0  0  0  0  0
   10.5517  -17.3572   21.2530 O   0  0  0  0  0  0  0  0  0  0  0  0
    8.3246  -11.5816   20.2052 C   0  0  0  0  0  0  0  0  0  0  0  0
    7.9849  -12.9582   19.1091 S   0  0  0  0  0  0  0  0  0  0  0  0
    7.7169  -14.5189   20.0311 C   0  0  0  0  0  0  0  0  0  0  0  0
    7.9220  -14.3237   21.4886 C   0  0  0  0  0  0  0  0  0  0  0  0
    8.9444  -15.2628   22.0624 C   0  0  2  0  0  0  0  0  0  0  0  0
    8.4761  -16.6406   21.8399 N   0  0  0  0  0  0  0  0  0  0  0  0
    9.1976  -15.0607   23.5178 C   0  0  0  0  0  0  0  0  0  0  0  0
   10.1972  -14.3904   23.8590 O   0  0  0  0  0  0  0  0  0  0  0  0
    5.4380  -13.2167   26.5610 C   0  0  0  0  0  0  0  0  0  0  0  0
    6.8768  -13.3665   25.9292 C   0  0  1  0  0  0  0  0  0  0  0  0
    7.5603  -12.1039   26.4504 C   0  0  0  0  0  0  0  0  0  0  0  0
    7.3948  -14.6246   26.4828 C   0  0  0  0  0  0  0  0  0  0  0  0
    8.6215  -15.2186   25.9207 C   0  0  2  0  0  0  0  0  0  0  0  0
    8.3588  -15.5935   24.5093 N   0  0  0  0  0  0  0  0  0  0  0  0
    9.0868  -16.4164   26.5955 C   0  0  0  0  0  0  0  0  0  0  0  0
    9.0612  -17.5290   25.9685 O   0  0  0  0  0  0  0  0  0  0  0  0
    9.5769  -16.4834   27.8771 O   0  0  0  0  0  0  0  0  0  0  0  0
  2  1  1  6
  3  2  1  0
  4  2  1  0
  4  5  1  0
  5  6  1  6
  7  5  1  0
  7  8  2  0
  9 10  1  0
 10 11  1  0
 11 12  1  0
 13 12  1  1
 13 14  1  0
 14  7  1  0
 15 13  1  0
 16 15  2  0
 18 17  1  1
 18 19  1  0
 21 20  1  1
 20 18  1  0
 21 22  1  0
 22 15  1  0
 23 21  1  0
 24 23  2  0
 25 23  1  0
M  END
$$$$
