LML.pdb
     RDKit          3D

 25 24  0  0  1  0  0  0  0  0999 V2000
    9.0924  -20.6265   20.0509 C   0  0  0  0  0  0  0  0  0  0  0  0
    8.3697  -19.4130   19.4627 C   0  0  2  0  0  0  0  0  0  0  0  0
    8.5275  -19.4838   17.9691 C   0  0  0  0  0  0  0  0  0  0  0  0
    8.8991  -18.1330   20.0526 C   0  0  0  0  0  0  0  0  0  0  0  0
    8.7340  -18.1268   21.5382 C   0  0  2  0  0  0  0  0  0  0  0  0
    7.3324  -18.3323   21.8511 N   0  0  0  0  0  0  0  0  0  0  0  0
    9.1668  -16.8657   22.1671 C   0  0  0  0  0  0  0  0  0  0  0  0
   10.3507  -16.4318   22.0193 O   0  0  0  0  0  0  0  0  0  0  0  0
    6.2367  -11.6071   25.8570 C   0  0  0  0  0  0  0  0  0  0  0  0
    5.7020  -13.3171   25.9011 S   0  0  0  0  0  0  0  0  0  0  0  0
    7.0093  -14.4595   25.3152 C   0  0  0  0  0  0  0  0  0  0  0  0
    7.5605  -14.0201   24.0084 C   0  0  0  0  0  0  0  0  0  0  0  0
    8.7743  -14.8036   23.5967 C   0  0  2  0  0  0  0  0  0  0  0  0
    8.3199  -16.0546   22.9678 N   0  0  0  0  0  0  0  0  0  0  0  0
    9.6924  -15.1285   24.7258 C   0  0  0  0  0  0  0  0  0  0  0  0
   10.6549  -14.3610   24.9480 O   0  0  0  0  0  0  0  0  0  0  0  0
    9.8332  -14.2808   29.4314 C   0  0  0  0  0  0  0  0  0  0  0  0
   10.2152  -14.5365   27.9212 C   0  0  1  0  0  0  0  0  0  0  0  0
   11.5606  -13.8190   27.8322 C   0  0  0  0  0  0  0  0  0  0  0  0
   10.2839  -15.9987   27.7995 C   0  0  0  0  0  0  0  0  0  0  0  0
   10.5957  -16.6081   26.4937 C   0  0  2  0  0  0  0  0  0  0  0  0
    9.5140  -16.2577   25.5405 N   0  0  0  0  0  0  0  0  0  0  0  0
   10.6976  -18.0559   26.5022 C   0  0  0  0  0  0  0  0  0  0  0  0
    9.7766  -18.7440   25.9455 O   0  0  0  0  0  0  0  0  0  0  0  0
   11.7174  -18.7911   27.0560 O   0  0  0  0  0  0  0  0  0  0  0  0
  2  1  1  1
  3  2  1  0
  4  2  1  0
  4  5  1  0
  5  6  1  6
  7  5  1  0
  7  8  2  0
  9 10  1  0
 10 11  1  0
 11 12  1  0
 13 12  1  1
 13 14  1  0
 14  7  1  0
 15 13  1  0
 16 15  2  0
 18 17  1  1
 18 19  1  0
 21 20  1  1
 20 18  1  0
 21 22  1  0
 22 15  1  0
 23 21  1  0
 24 23  2  0
 25 23  1  0
M  END
$$$$
