LML.pdb
     RDKit          3D

 25 24  0  0  1  0  0  0  0  0999 V2000
    8.1296  -12.0668   18.2932 C   0  0  0  0  0  0  0  0  0  0  0  0
    8.4916  -13.5033   18.6759 C   0  0  2  0  0  0  0  0  0  0  0  0
    8.0099  -14.3933   17.5639 C   0  0  0  0  0  0  0  0  0  0  0  0
    7.9106  -13.8660   20.0166 C   0  0  0  0  0  0  0  0  0  0  0  0
    8.6900  -14.9735   20.6491 C   0  0  2  0  0  0  0  0  0  0  0  0
    7.9455  -16.2098   20.5005 N   0  0  0  0  0  0  0  0  0  0  0  0
    8.9463  -14.7593   22.0849 C   0  0  0  0  0  0  0  0  0  0  0  0
    9.7970  -13.9031   22.4786 O   0  0  0  0  0  0  0  0  0  0  0  0
    6.4670  -11.4779   26.3605 C   0  0  0  0  0  0  0  0  0  0  0  0
    5.6347  -13.0618   26.2575 S   0  0  0  0  0  0  0  0  0  0  0  0
    6.1291  -14.0001   24.7632 C   0  0  0  0  0  0  0  0  0  0  0  0
    6.9760  -15.1670   25.1175 C   0  0  0  0  0  0  0  0  0  0  0  0
    8.3578  -15.0804   24.5346 C   0  0  2  0  0  0  0  0  0  0  0  0
    8.2821  -15.4725   23.1177 N   0  0  0  0  0  0  0  0  0  0  0  0
    9.3586  -15.9410   25.2280 C   0  0  0  0  0  0  0  0  0  0  0  0
    9.9323  -16.8349   24.5672 O   0  0  0  0  0  0  0  0  0  0  0  0
   10.7721  -15.0200   30.6171 C   0  0  0  0  0  0  0  0  0  0  0  0
   10.2078  -15.1464   29.1483 C   0  0  1  0  0  0  0  0  0  0  0  0
   10.3508  -13.7086   28.6531 C   0  0  0  0  0  0  0  0  0  0  0  0
   11.0940  -16.1179   28.4938 C   0  0  0  0  0  0  0  0  0  0  0  0
   10.7509  -16.6321   27.1554 C   0  0  2  0  0  0  0  0  0  0  0  0
    9.6756  -15.7828   26.5864 N   0  0  0  0  0  0  0  0  0  0  0  0
   10.2655  -17.9998   27.1307 C   0  0  0  0  0  0  0  0  0  0  0  0
   11.0858  -18.9515   27.3608 O   0  0  0  0  0  0  0  0  0  0  0  0
    8.9724  -18.3942   26.8868 O   0  0  0  0  0  0  0  0  0  0  0  0
  2  1  1  6
  3  2  1  0
  4  2  1  0
  4  5  1  0
  5  6  1  1
  7  5  1  0
  7  8  2  0
  9 10  1  0
 10 11  1  0
 11 12  1  0
 13 12  1  1
 13 14  1  0
 14  7  1  0
 15 13  1  0
 16 15  2  0
 18 17  1  1
 18 19  1  0
 21 20  1  1
 20 18  1  0
 21 22  1  0
 22 15  1  0
 23 21  1  0
 24 23  2  0
 25 23  1  0
M  END
$$$$
