LML.pdb
     RDKit          3D

 25 24  0  0  1  0  0  0  0  0999 V2000
    9.7248  -18.6714   17.3155 C   0  0  0  0  0  0  0  0  0  0  0  0
    9.2604  -18.8742   18.7592 C   0  0  2  0  0  0  0  0  0  0  0  0
    7.8447  -19.3776   18.7031 C   0  0  0  0  0  0  0  0  0  0  0  0
    9.4047  -17.6041   19.5546 C   0  0  0  0  0  0  0  0  0  0  0  0
    9.2573  -17.8759   21.0170 C   0  0  2  0  0  0  0  0  0  0  0  0
    7.9332  -18.4172   21.2582 N   0  0  0  0  0  0  0  0  0  0  0  0
    9.4228  -16.6727   21.8526 C   0  0  0  0  0  0  0  0  0  0  0  0
   10.4636  -15.9510   21.7641 O   0  0  0  0  0  0  0  0  0  0  0  0
    5.7755  -11.5678   26.7338 C   0  0  0  0  0  0  0  0  0  0  0  0
    5.7452  -13.0687   25.7549 S   0  0  0  0  0  0  0  0  0  0  0  0
    7.2545  -13.2508   24.7321 C   0  0  0  0  0  0  0  0  0  0  0  0
    7.2307  -14.5190   23.9603 C   0  0  0  0  0  0  0  0  0  0  0  0
    8.6028  -14.9824   23.5616 C   0  0  2  0  0  0  0  0  0  0  0  0
    8.4597  -16.2334   22.7990 N   0  0  0  0  0  0  0  0  0  0  0  0
    9.5187  -15.2141   24.7151 C   0  0  0  0  0  0  0  0  0  0  0  0
   10.0305  -14.2199   25.2758 O   0  0  0  0  0  0  0  0  0  0  0  0
    9.5566  -13.9848   28.7271 C   0  0  0  0  0  0  0  0  0  0  0  0
   10.3845  -14.4102   27.4521 C   0  0  1  0  0  0  0  0  0  0  0  0
   11.7527  -13.8142   27.7771 C   0  0  0  0  0  0  0  0  0  0  0  0
   10.3330  -15.8782   27.4504 C   0  0  0  0  0  0  0  0  0  0  0  0
   10.8238  -16.6239   26.2772 C   0  0  2  0  0  0  0  0  0  0  0  0
    9.8232  -16.5001   25.1886 N   0  0  0  0  0  0  0  0  0  0  0  0
   11.0337  -18.0431   26.4974 C   0  0  0  0  0  0  0  0  0  0  0  0
   11.9426  -18.4144   27.3147 O   0  0  0  0  0  0  0  0  0  0  0  0
   10.3302  -19.0652   25.9080 O   0  0  0  0  0  0  0  0  0  0  0  0
  2  1  1  6
  3  2  1  0
  4  2  1  0
  4  5  1  0
  5  6  1  6
  7  5  1  0
  7  8  2  0
  9 10  1  0
 10 11  1  0
 11 12  1  0
 13 12  1  1
 13 14  1  0
 14  7  1  0
 15 13  1  0
 16 15  2  0
 18 17  1  1
 18 19  1  0
 21 20  1  1
 20 18  1  0
 21 22  1  0
 22 15  1  0
 23 21  1  0
 24 23  2  0
 25 23  1  0
M  END
$$$$
