LML.pdb
     RDKit          3D

 25 24  0  0  1  0  0  0  0  0999 V2000
    8.9258  -15.1434   18.0345 C   0  0  0  0  0  0  0  0  0  0  0  0
    7.8844  -14.2465   18.7067 C   0  0  2  0  0  0  0  0  0  0  0  0
    7.6278  -13.0920   17.7783 C   0  0  0  0  0  0  0  0  0  0  0  0
    8.3472  -13.8146   20.0727 C   0  0  0  0  0  0  0  0  0  0  0  0
    8.4993  -14.9945   20.9776 C   0  0  2  0  0  0  0  0  0  0  0  0
    7.3049  -15.8122   20.8801 N   0  0  0  0  0  0  0  0  0  0  0  0
    8.6899  -14.6234   22.3915 C   0  0  0  0  0  0  0  0  0  0  0  0
    9.7173  -13.9794   22.7676 O   0  0  0  0  0  0  0  0  0  0  0  0
    6.4738  -11.2937   28.5979 C   0  0  0  0  0  0  0  0  0  0  0  0
    6.3716  -11.8536   26.8984 S   0  0  0  0  0  0  0  0  0  0  0  0
    6.6216  -13.6632   26.7566 C   0  0  0  0  0  0  0  0  0  0  0  0
    6.5803  -14.1017   25.3386 C   0  0  0  0  0  0  0  0  0  0  0  0
    7.9316  -14.4930   24.8119 C   0  0  2  0  0  0  0  0  0  0  0  0
    7.7669  -14.9464   23.4211 N   0  0  0  0  0  0  0  0  0  0  0  0
    8.5973  -15.5682   25.6018 C   0  0  0  0  0  0  0  0  0  0  0  0
    8.8067  -15.3678   26.8187 O   0  0  0  0  0  0  0  0  0  0  0  0
    6.7375  -20.3405   25.9565 C   0  0  0  0  0  0  0  0  0  0  0  0
    7.3734  -18.9583   26.3773 C   0  0  1  0  0  0  0  0  0  0  0  0
    7.2329  -19.0198   27.8969 C   0  0  0  0  0  0  0  0  0  0  0  0
    8.7542  -19.0196   25.8799 C   0  0  0  0  0  0  0  0  0  0  0  0
    9.5976  -17.8110   25.9182 C   0  0  2  0  0  0  0  0  0  0  0  0
    8.9937  -16.7874   25.0299 N   0  0  0  0  0  0  0  0  0  0  0  0
   10.9648  -18.0039   25.4708 C   0  0  0  0  0  0  0  0  0  0  0  0
   11.7017  -18.8502   26.0810 O   0  0  0  0  0  0  0  0  0  0  0  0
   11.5700  -17.3584   24.4199 O   0  0  0  0  0  0  0  0  0  0  0  0
  2  1  1  6
  3  2  1  0
  4  2  1  0
  4  5  1  0
  5  6  1  1
  7  5  1  0
  7  8  2  0
  9 10  1  0
 10 11  1  0
 11 12  1  0
 13 12  1  1
 13 14  1  0
 14  7  1  0
 15 13  1  0
 16 15  2  0
 18 17  1  6
 18 19  1  0
 21 20  1  6
 20 18  1  0
 21 22  1  0
 22 15  1  0
 23 21  1  0
 24 23  2  0
 25 23  1  0
M  END
$$$$
