LML.pdb
     RDKit          3D

 25 24  0  0  1  0  0  0  0  0999 V2000
    9.0783  -12.7551   19.1019 C   0  0  0  0  0  0  0  0  0  0  0  0
    8.0638  -13.7558   18.5450 C   0  0  2  0  0  0  0  0  0  0  0  0
    6.8987  -12.9620   18.0225 C   0  0  0  0  0  0  0  0  0  0  0  0
    7.6703  -14.7629   19.5925 C   0  0  0  0  0  0  0  0  0  0  0  0
    8.8809  -15.3925   20.2028 C   0  0  2  0  0  0  0  0  0  0  0  0
    8.6282  -16.8100   20.3804 N   0  0  0  0  0  0  0  0  0  0  0  0
    9.2371  -14.8198   21.5136 C   0  0  0  0  0  0  0  0  0  0  0  0
    9.3891  -13.5682   21.6629 O   0  0  0  0  0  0  0  0  0  0  0  0
    6.2224  -12.5457   27.0844 C   0  0  0  0  0  0  0  0  0  0  0  0
    7.0234  -12.9720   25.5389 S   0  0  0  0  0  0  0  0  0  0  0  0
    6.6396  -14.6862   25.0178 C   0  0  0  0  0  0  0  0  0  0  0  0
    7.3568  -15.0407   23.7670 C   0  0  0  0  0  0  0  0  0  0  0  0
    8.8279  -15.2562   23.9818 C   0  0  2  0  0  0  0  0  0  0  0  0
    9.4345  -15.5979   22.6848 N   0  0  0  0  0  0  0  0  0  0  0  0
    9.1413  -16.3304   24.9672 C   0  0  0  0  0  0  0  0  0  0  0  0
    8.1968  -17.0138   25.4209 O   0  0  0  0  0  0  0  0  0  0  0  0
   11.8949  -14.8766   29.0968 C   0  0  0  0  0  0  0  0  0  0  0  0
   10.3528  -14.8585   28.7595 C   0  0  1  0  0  0  0  0  0  0  0  0
    9.9900  -13.4185   29.1169 C   0  0  0  0  0  0  0  0  0  0  0  0
   10.2837  -15.1775   27.3273 C   0  0  0  0  0  0  0  0  0  0  0  0
   10.7400  -16.4959   26.8507 C   0  0  2  0  0  0  0  0  0  0  0  0
   10.4499  -16.5978   25.3992 N   0  0  0  0  0  0  0  0  0  0  0  0
   10.1016  -17.6324   27.4891 C   0  0  0  0  0  0  0  0  0  0  0  0
   10.8102  -18.4184   28.2046 O   0  0  0  0  0  0  0  0  0  0  0  0
    8.7699  -17.9603   27.4112 O   0  0  0  0  0  0  0  0  0  0  0  0
  2  1  1  1
  3  2  1  0
  4  2  1  0
  4  5  1  0
  5  6  1  1
  7  5  1  0
  7  8  2  0
  9 10  1  0
 10 11  1  0
 11 12  1  0
 13 12  1  6
 13 14  1  0
 14  7  1  0
 15 13  1  0
 16 15  2  0
 18 17  1  6
 18 19  1  0
 21 20  1  1
 20 18  1  0
 21 22  1  0
 22 15  1  0
 23 21  1  0
 24 23  2  0
 25 23  1  0
M  END
$$$$
