LML.pdb
     RDKit          3D

 25 24  0  0  1  0  0  0  0  0999 V2000
    8.2607  -21.7809   20.2120 C   0  0  0  0  0  0  0  0  0  0  0  0
    8.1435  -20.6117   19.2322 C   0  0  2  0  0  0  0  0  0  0  0  0
    8.3429  -21.1695   17.8502 C   0  0  0  0  0  0  0  0  0  0  0  0
    9.1226  -19.5209   19.5760 C   0  0  0  0  0  0  0  0  0  0  0  0
    8.8596  -18.9863   20.9469 C   0  0  2  0  0  0  0  0  0  0  0  0
    7.4292  -18.8067   21.1093 N   0  0  0  0  0  0  0  0  0  0  0  0
    9.5189  -17.6932   21.2042 C   0  0  0  0  0  0  0  0  0  0  0  0
   10.7845  -17.5962   21.2308 O   0  0  0  0  0  0  0  0  0  0  0  0
    7.6520  -11.5898   19.4908 C   0  0  0  0  0  0  0  0  0  0  0  0
    7.3685  -13.1995   18.7556 S   0  0  0  0  0  0  0  0  0  0  0  0
    8.3600  -14.5086   19.5683 C   0  0  0  0  0  0  0  0  0  0  0  0
    8.7208  -14.1253   20.9566 C   0  0  0  0  0  0  0  0  0  0  0  0
    9.4906  -15.1975   21.6739 C   0  0  2  0  0  0  0  0  0  0  0  0
    8.8136  -16.4830   21.4373 N   0  0  0  0  0  0  0  0  0  0  0  0
    9.6119  -14.9710   23.1427 C   0  0  0  0  0  0  0  0  0  0  0  0
   10.4522  -14.1373   23.5474 O   0  0  0  0  0  0  0  0  0  0  0  0
    8.2266  -12.5029   27.0319 C   0  0  0  0  0  0  0  0  0  0  0  0
    7.2396  -13.7306   26.9292 C   0  0  1  0  0  0  0  0  0  0  0  0
    5.8859  -13.0277   27.0088 C   0  0  0  0  0  0  0  0  0  0  0  0
    7.5443  -14.3424   25.6290 C   0  0  0  0  0  0  0  0  0  0  0  0
    8.7756  -15.1369   25.4673 C   0  0  2  0  0  0  0  0  0  0  0  0
    8.8213  -15.6567   24.0783 N   0  0  0  0  0  0  0  0  0  0  0  0
    8.8850  -16.2836   26.3504 C   0  0  0  0  0  0  0  0  0  0  0  0
    8.8062  -16.1021   27.6124 O   0  0  0  0  0  0  0  0  0  0  0  0
    9.0613  -17.5893   25.9615 O   0  0  0  0  0  0  0  0  0  0  0  0
  2  1  1  1
  3  2  1  0
  4  2  1  0
  4  5  1  0
  5  6  1  6
  7  5  1  0
  7  8  2  0
  9 10  1  0
 10 11  1  0
 11 12  1  0
 13 12  1  1
 13 14  1  0
 14  7  1  0
 15 13  1  0
 16 15  2  0
 18 17  1  6
 18 19  1  0
 21 20  1  1
 20 18  1  0
 21 22  1  0
 22 15  1  0
 23 21  1  0
 24 23  2  0
 25 23  1  0
M  END
$$$$
