LML.pdb
     RDKit          3D

 25 24  0  0  1  0  0  0  0  0999 V2000
    6.1484  -22.6824   22.8850 C   0  0  0  0  0  0  0  0  0  0  0  0
    5.5893  -21.5053   22.0833 C   0  0  2  0  0  0  0  0  0  0  0  0
    4.9180  -22.0772   20.8654 C   0  0  0  0  0  0  0  0  0  0  0  0
    6.6749  -20.5168   21.7501 C   0  0  0  0  0  0  0  0  0  0  0  0
    7.0882  -19.7543   22.9675 C   0  0  2  0  0  0  0  0  0  0  0  0
    5.8970  -19.3582   23.6947 N   0  0  0  0  0  0  0  0  0  0  0  0
    7.8648  -18.5400   22.6584 C   0  0  0  0  0  0  0  0  0  0  0  0
    9.0415  -18.6163   22.1880 O   0  0  0  0  0  0  0  0  0  0  0  0
    7.9105  -11.3483   19.6929 C   0  0  0  0  0  0  0  0  0  0  0  0
    7.0491  -12.8352   20.2020 S   0  0  0  0  0  0  0  0  0  0  0  0
    8.0743  -13.8771   21.3069 C   0  0  0  0  0  0  0  0  0  0  0  0
    7.3291  -15.0811   21.7538 C   0  0  0  0  0  0  0  0  0  0  0  0
    8.1759  -16.0212   22.5635 C   0  0  2  0  0  0  0  0  0  0  0  0
    7.3755  -17.2217   22.8557 N   0  0  0  0  0  0  0  0  0  0  0  0
    8.6677  -15.4370   23.8441 C   0  0  0  0  0  0  0  0  0  0  0  0
    8.9065  -14.2097   23.8837 O   0  0  0  0  0  0  0  0  0  0  0  0
    5.5511  -13.6335   26.5252 C   0  0  0  0  0  0  0  0  0  0  0  0
    7.0760  -13.7258   26.1278 C   0  0  1  0  0  0  0  0  0  0  0  0
    7.6572  -12.5535   26.9156 C   0  0  0  0  0  0  0  0  0  0  0  0
    7.4993  -15.0539   26.5913 C   0  0  0  0  0  0  0  0  0  0  0  0
    8.8687  -15.5222   26.3105 C   0  0  2  0  0  0  0  0  0  0  0  0
    8.8702  -16.2120   24.9969 N   0  0  0  0  0  0  0  0  0  0  0  0
    9.4062  -16.4596   27.2796 C   0  0  0  0  0  0  0  0  0  0  0  0
    9.6848  -16.0429   28.4546 O   0  0  0  0  0  0  0  0  0  0  0  0
    9.6477  -17.7947   27.0647 O   0  0  0  0  0  0  0  0  0  0  0  0
  2  1  1  6
  3  2  1  0
  4  2  1  0
  4  5  1  0
  5  6  1  6
  7  5  1  0
  7  8  2  0
  9 10  1  0
 10 11  1  0
 11 12  1  0
 13 12  1  1
 13 14  1  0
 14  7  1  0
 15 13  1  0
 16 15  2  0
 18 17  1  1
 18 19  1  0
 21 20  1  1
 20 18  1  0
 21 22  1  0
 22 15  1  0
 23 21  1  0
 24 23  2  0
 25 23  1  0
M  END
$$$$
