LML.pdb
     RDKit          3D

 25 24  0  0  1  0  0  0  0  0999 V2000
    8.8844  -20.5184   19.6227 C   0  0  0  0  0  0  0  0  0  0  0  0
    8.4204  -19.1421   19.1417 C   0  0  2  0  0  0  0  0  0  0  0  0
    8.6012  -19.1097   17.6493 C   0  0  0  0  0  0  0  0  0  0  0  0
    9.1669  -18.0440   19.8512 C   0  0  0  0  0  0  0  0  0  0  0  0
    8.9226  -18.1043   21.3246 C   0  0  2  0  0  0  0  0  0  0  0  0
    7.5081  -18.3319   21.5524 N   0  0  0  0  0  0  0  0  0  0  0  0
    9.3105  -16.8695   22.0303 C   0  0  0  0  0  0  0  0  0  0  0  0
   10.4680  -16.3681   21.8866 O   0  0  0  0  0  0  0  0  0  0  0  0
    5.4525  -13.0858   26.3810 C   0  0  0  0  0  0  0  0  0  0  0  0
    6.3394  -12.0703   25.2002 S   0  0  0  0  0  0  0  0  0  0  0  0
    7.8811  -12.8762   24.6246 C   0  0  0  0  0  0  0  0  0  0  0  0
    7.6072  -14.2268   24.0719 C   0  0  0  0  0  0  0  0  0  0  0  0
    8.8502  -14.9221   23.5943 C   0  0  2  0  0  0  0  0  0  0  0  0
    8.4466  -16.1585   22.9047 N   0  0  0  0  0  0  0  0  0  0  0  0
    9.8078  -15.2605   24.6859 C   0  0  0  0  0  0  0  0  0  0  0  0
   10.7310  -14.4546   24.9368 O   0  0  0  0  0  0  0  0  0  0  0  0
    9.2379  -14.4523   29.2297 C   0  0  0  0  0  0  0  0  0  0  0  0
    9.9606  -14.6528   27.8406 C   0  0  1  0  0  0  0  0  0  0  0  0
   11.2102  -13.7958   28.0323 C   0  0  0  0  0  0  0  0  0  0  0  0
   10.2078  -16.0984   27.7575 C   0  0  0  0  0  0  0  0  0  0  0  0
   10.7130  -16.6809   26.5009 C   0  0  2  0  0  0  0  0  0  0  0  0
    9.7086  -16.4437   25.4349 N   0  0  0  0  0  0  0  0  0  0  0  0
   10.9539  -18.1116   26.5424 C   0  0  0  0  0  0  0  0  0  0  0  0
   10.1761  -18.8889   25.8924 O   0  0  0  0  0  0  0  0  0  0  0  0
   11.9686  -18.7410   27.2217 O   0  0  0  0  0  0  0  0  0  0  0  0
  2  1  1  1
  3  2  1  0
  4  2  1  0
  4  5  1  0
  5  6  1  6
  7  5  1  0
  7  8  2  0
  9 10  1  0
 10 11  1  0
 11 12  1  0
 13 12  1  1
 13 14  1  0
 14  7  1  0
 15 13  1  0
 16 15  2  0
 18 17  1  1
 18 19  1  0
 21 20  1  1
 20 18  1  0
 21 22  1  0
 22 15  1  0
 23 21  1  0
 24 23  2  0
 25 23  1  0
M  END
$$$$
