LML.pdb
     RDKit          3D

 25 24  0  0  1  0  0  0  0  0999 V2000
    4.7298  -20.2009   23.9798 C   0  0  0  0  0  0  0  0  0  0  0  0
    6.1187  -20.7105   24.3700 C   0  0  2  0  0  0  0  0  0  0  0  0
    6.0375  -21.1683   25.7999 C   0  0  0  0  0  0  0  0  0  0  0  0
    7.1634  -19.6495   24.1478 C   0  0  0  0  0  0  0  0  0  0  0  0
    7.1463  -19.1787   22.7292 C   0  0  2  0  0  0  0  0  0  0  0  0
    7.4538  -20.3012   21.8631 N   0  0  0  0  0  0  0  0  0  0  0  0
    8.1220  -18.1071   22.4593 C   0  0  0  0  0  0  0  0  0  0  0  0
    9.3482  -18.3711   22.2628 O   0  0  0  0  0  0  0  0  0  0  0  0
    7.3031  -12.0312   20.0054 C   0  0  0  0  0  0  0  0  0  0  0  0
    7.0684  -13.6079   19.1864 S   0  0  0  0  0  0  0  0  0  0  0  0
    7.7886  -14.9928   20.1460 C   0  0  0  0  0  0  0  0  0  0  0  0
    8.2253  -14.5437   21.4921 C   0  0  0  0  0  0  0  0  0  0  0  0
    8.7905  -15.6608   22.3223 C   0  0  2  0  0  0  0  0  0  0  0  0
    7.7815  -16.7300   22.3986 N   0  0  0  0  0  0  0  0  0  0  0  0
    9.1740  -15.2499   23.7033 C   0  0  0  0  0  0  0  0  0  0  0  0
   10.1848  -14.5274   23.8486 O   0  0  0  0  0  0  0  0  0  0  0  0
    5.7030  -13.1827   27.0155 C   0  0  0  0  0  0  0  0  0  0  0  0
    6.9875  -13.4209   26.1294 C   0  0  1  0  0  0  0  0  0  0  0  0
    7.6523  -12.0476   26.1992 C   0  0  0  0  0  0  0  0  0  0  0  0
    7.7155  -14.4969   26.8150 C   0  0  0  0  0  0  0  0  0  0  0  0
    8.8758  -15.1262   26.1582 C   0  0  2  0  0  0  0  0  0  0  0  0
    8.4446  -15.6438   24.8362 N   0  0  0  0  0  0  0  0  0  0  0  0
    9.4562  -16.2439   26.8798 C   0  0  0  0  0  0  0  0  0  0  0  0
    9.3437  -17.4196   26.3932 O   0  0  0  0  0  0  0  0  0  0  0  0
   10.1450  -16.1699   28.0660 O   0  0  0  0  0  0  0  0  0  0  0  0
  2  1  1  1
  3  2  1  0
  4  2  1  0
  4  5  1  0
  5  6  1  6
  7  5  1  0
  7  8  2  0
  9 10  1  0
 10 11  1  0
 11 12  1  0
 13 12  1  6
 13 14  1  0
 14  7  1  0
 15 13  1  0
 16 15  2  0
 18 17  1  1
 18 19  1  0
 21 20  1  1
 20 18  1  0
 21 22  1  0
 22 15  1  0
 23 21  1  0
 24 23  2  0
 25 23  1  0
M  END
$$$$
