QPH.pdb
     RDKit          3D

 27 28  0  0  1  0  0  0  0  0999 V2000
   28.4858  -19.3592  -14.4615 N   0  0  0  0  0  0  0  0  0  0  0  0
   28.5821  -19.6017  -15.8476 C   0  0  0  0  0  0  0  0  0  0  0  0
   29.6838  -19.4497  -16.4129 O   0  0  0  0  0  0  0  0  0  0  0  0
   27.3815  -20.0256  -16.5731 C   0  0  0  0  0  0  0  0  0  0  0  0
   26.1369  -20.1392  -15.7316 C   0  0  0  0  0  0  0  0  0  0  0  0
   26.2129  -21.2720  -14.7661 C   0  0  2  0  0  0  0  0  0  0  0  0
   26.4538  -22.4731  -15.5557 N   0  0  0  0  0  0  0  0  0  0  0  0
   25.0246  -21.4343  -13.9006 C   0  0  0  0  0  0  0  0  0  0  0  0
   23.9614  -21.9296  -14.4158 O   0  0  0  0  0  0  0  0  0  0  0  0
   24.9529  -21.0872  -12.5274 N   0  0  0  0  0  0  0  0  0  0  0  0
   26.1326  -20.8899  -11.7135 C   0  0  0  0  0  0  0  0  0  0  0  0
   25.6424  -21.1439  -10.2876 C   0  0  0  0  0  0  0  0  0  0  0  0
   24.2688  -20.5104  -10.3649 C   0  0  0  0  0  0  0  0  0  0  0  0
   23.8065  -20.8920  -11.7314 C   0  0  1  0  0  0  0  0  0  0  0  0
   22.8352  -19.9115  -12.2912 C   0  0  0  0  0  0  0  0  0  0  0  0
   23.2750  -19.0041  -13.0269 O   0  0  0  0  0  0  0  0  0  0  0  0
   21.4504  -19.9924  -12.0068 N   0  0  0  0  0  0  0  0  0  0  0  0
   20.4216  -19.4961  -12.9124 C   0  0  1  0  0  0  0  0  0  0  0  0
   20.6020  -20.0012  -14.2996 C   0  0  0  0  0  0  0  0  0  0  0  0
   19.6063  -19.3899  -15.1968 C   0  0  0  0  0  0  0  0  0  0  0  0
   19.6192  -18.0800  -15.6622 C   0  0  0  0  0  0  0  0  0  0  0  0
   18.5381  -17.9016  -16.4612 N   0  0  0  0  0  0  0  0  0  0  0  0
   17.8630  -19.0477  -16.5049 C   0  0  0  0  0  0  0  0  0  0  0  0
   18.5123  -19.9474  -15.7381 N   0  0  0  0  0  0  0  0  0  0  0  0
   19.0719  -19.7488  -12.4058 C   0  0  0  0  0  0  0  0  0  0  0  0
   18.8509  -20.9116  -11.9074 O   0  0  0  0  0  0  0  0  0  0  0  0
   18.0078  -18.8944  -12.3949 O   0  0  0  0  0  0  0  0  0  0  0  0
  2  3  2  0
  2  1  1  0
  4  2  1  0
  5  4  1  0
  6  5  1  0
  6  8  1  0
  6  7  1  6
  8  9  2  0
  8 10  1  0
 10 14  1  0
 10 11  1  0
 11 12  1  0
 13 12  1  0
 14 13  1  0
 15 16  2  0
 14 15  1  6
 17 15  1  0
 18 17  1  0
 18 25  1  0
 18 19  1  6
 20 24  1  0
 20 19  1  0
 21 20  2  0
 22 21  1  0
 22 23  1  0
 23 24  2  0
 25 27  1  0
 26 25  2  0
M  END
$$$$
