QPH.pdb
     RDKit          3D

 27 28  0  0  1  0  0  0  0  0999 V2000
   16.2471  -14.1658  -15.5481 N   0  0  0  0  0  0  0  0  0  0  0  0
   16.0829  -14.6621  -16.8582 C   0  0  0  0  0  0  0  0  0  0  0  0
   15.2869  -15.6028  -17.0530 O   0  0  0  0  0  0  0  0  0  0  0  0
   16.8544  -14.0513  -17.9441 C   0  0  0  0  0  0  0  0  0  0  0  0
   17.6616  -12.8422  -17.5486 C   0  0  0  0  0  0  0  0  0  0  0  0
   19.1279  -13.0829  -17.6648 C   0  0  2  0  0  0  0  0  0  0  0  0
   19.4431  -14.1678  -16.7441 N   0  0  0  0  0  0  0  0  0  0  0  0
   19.9764  -11.9001  -17.4030 C   0  0  0  0  0  0  0  0  0  0  0  0
   20.0037  -11.4236  -16.2142 O   0  0  0  0  0  0  0  0  0  0  0  0
   20.7785  -11.2337  -18.3642 N   0  0  0  0  0  0  0  0  0  0  0  0
   20.8814  -11.6825  -19.7357 C   0  0  0  0  0  0  0  0  0  0  0  0
   22.2218  -11.1182  -20.2078 C   0  0  0  0  0  0  0  0  0  0  0  0
   22.1997   -9.7722  -19.5137 C   0  0  0  0  0  0  0  0  0  0  0  0
   21.5888  -10.0937  -18.1908 C   0  0  1  0  0  0  0  0  0  0  0  0
   20.8790   -8.9253  -17.5998 C   0  0  0  0  0  0  0  0  0  0  0  0
   19.6520   -8.8197  -17.8028 O   0  0  0  0  0  0  0  0  0  0  0  0
   21.5616   -7.9541  -16.8278 N   0  0  0  0  0  0  0  0  0  0  0  0
   20.9082   -6.7746  -16.2743 C   0  0  1  0  0  0  0  0  0  0  0  0
   21.1130   -6.6550  -14.8059 C   0  0  0  0  0  0  0  0  0  0  0  0
   20.4072   -7.7411  -14.1041 C   0  0  0  0  0  0  0  0  0  0  0  0
   19.1930   -8.3045  -14.4794 C   0  0  0  0  0  0  0  0  0  0  0  0
   18.8773   -9.2716  -13.5827 N   0  0  0  0  0  0  0  0  0  0  0  0
   19.8476   -9.3244  -12.6732 C   0  0  0  0  0  0  0  0  0  0  0  0
   20.7729   -8.3962  -12.9916 N   0  0  0  0  0  0  0  0  0  0  0  0
   21.2847   -5.5510  -16.9839 C   0  0  0  0  0  0  0  0  0  0  0  0
   22.2897   -5.6314  -17.7794 O   0  0  0  0  0  0  0  0  0  0  0  0
   20.6948   -4.3229  -16.9069 O   0  0  0  0  0  0  0  0  0  0  0  0
  2  3  2  0
  2  1  1  0
  4  2  1  0
  5  4  1  0
  6  5  1  0
  6  8  1  0
  6  7  1  1
  8  9  2  0
  8 10  1  0
 10 14  1  0
 10 11  1  0
 11 12  1  0
 13 12  1  0
 14 13  1  0
 15 16  2  0
 14 15  1  6
 17 15  1  0
 18 17  1  0
 18 25  1  0
 18 19  1  1
 20 24  1  0
 20 19  1  0
 21 20  2  0
 22 21  1  0
 22 23  1  0
 23 24  2  0
 25 27  1  0
 26 25  2  0
M  END
$$$$
