QPH.pdb
     RDKit          3D

 27 28  0  0  1  0  0  0  0  0999 V2000
   28.5165  -19.0913  -18.4577 N   0  0  0  0  0  0  0  0  0  0  0  0
   28.6738  -18.1538  -17.4156 C   0  0  0  0  0  0  0  0  0  0  0  0
   29.5723  -17.2931  -17.5071 O   0  0  0  0  0  0  0  0  0  0  0  0
   27.7724  -18.2254  -16.2624 C   0  0  0  0  0  0  0  0  0  0  0  0
   26.7517  -19.3321  -16.3209 C   0  0  0  0  0  0  0  0  0  0  0  0
   27.1292  -20.4906  -15.4627 C   0  0  2  0  0  0  0  0  0  0  0  0
   27.6011  -21.5355  -16.3625 N   0  0  0  0  0  0  0  0  0  0  0  0
   26.0509  -20.9930  -14.5838 C   0  0  0  0  0  0  0  0  0  0  0  0
   24.9791  -21.4342  -15.1295 O   0  0  0  0  0  0  0  0  0  0  0  0
   26.0956  -21.0334  -13.1669 N   0  0  0  0  0  0  0  0  0  0  0  0
   27.3065  -20.7704  -12.4201 C   0  0  0  0  0  0  0  0  0  0  0  0
   27.0811  -21.4883  -11.0891 C   0  0  0  0  0  0  0  0  0  0  0  0
   25.6069  -21.2067  -10.8848 C   0  0  0  0  0  0  0  0  0  0  0  0
   25.0538  -21.3292  -12.2652 C   0  0  1  0  0  0  0  0  0  0  0  0
   23.8293  -20.5030  -12.4562 C   0  0  0  0  0  0  0  0  0  0  0  0
   23.9128  -19.2742  -12.2543 O   0  0  0  0  0  0  0  0  0  0  0  0
   22.5988  -21.0796  -12.8547 N   0  0  0  0  0  0  0  0  0  0  0  0
   21.3417  -20.3420  -12.8679 C   0  0  1  0  0  0  0  0  0  0  0  0
   21.4330  -19.0887  -13.6636 C   0  0  0  0  0  0  0  0  0  0  0  0
   21.8237  -19.3944  -15.0507 C   0  0  0  0  0  0  0  0  0  0  0  0
   22.1538  -20.6491  -15.5502 C   0  0  0  0  0  0  0  0  0  0  0  0
   22.4542  -20.5178  -16.8661 N   0  0  0  0  0  0  0  0  0  0  0  0
   22.3219  -19.2347  -17.1940 C   0  0  0  0  0  0  0  0  0  0  0  0
   21.9399  -18.5567  -16.0924 N   0  0  0  0  0  0  0  0  0  0  0  0
   20.2155  -21.1784  -13.2858 C   0  0  0  0  0  0  0  0  0  0  0  0
   19.0446  -20.6597  -13.1896 O   0  0  0  0  0  0  0  0  0  0  0  0
   20.2539  -22.4532  -13.7713 O   0  0  0  0  0  0  0  0  0  0  0  0
  2  3  2  0
  2  1  1  0
  4  2  1  0
  5  4  1  0
  6  5  1  0
  6  8  1  0
  6  7  1  6
  8  9  2  0
  8 10  1  0
 10 14  1  0
 10 11  1  0
 11 12  1  0
 13 12  1  0
 14 13  1  0
 15 16  2  0
 14 15  1  1
 17 15  1  0
 18 17  1  0
 18 25  1  0
 18 19  1  6
 20 24  1  0
 20 19  1  0
 21 20  2  0
 22 21  1  0
 22 23  1  0
 23 24  2  0
 25 27  1  0
 26 25  2  0
M  END
$$$$
