QPH.pdb
     RDKit          3D

 27 28  0  0  1  0  0  0  0  0999 V2000
   15.4832  -12.4079  -10.7750 N   0  0  0  0  0  0  0  0  0  0  0  0
   14.2243  -12.0711  -10.2353 C   0  0  0  0  0  0  0  0  0  0  0  0
   13.5171  -12.9728   -9.7421 O   0  0  0  0  0  0  0  0  0  0  0  0
   13.7940  -10.6708  -10.2729 C   0  0  0  0  0  0  0  0  0  0  0  0
   14.8307   -9.7004  -10.7765 C   0  0  0  0  0  0  0  0  0  0  0  0
   14.3359   -8.2946  -10.7673 C   0  0  2  0  0  0  0  0  0  0  0  0
   13.2110   -8.2459  -11.6927 N   0  0  0  0  0  0  0  0  0  0  0  0
   15.3504   -7.2743  -11.1096 C   0  0  0  0  0  0  0  0  0  0  0  0
   15.8430   -7.2809  -12.2922 O   0  0  0  0  0  0  0  0  0  0  0  0
   15.8359   -6.2700  -10.2338 N   0  0  0  0  0  0  0  0  0  0  0  0
   15.2465   -6.0195   -8.9366 C   0  0  0  0  0  0  0  0  0  0  0  0
   15.6252   -4.5693   -8.6343 C   0  0  0  0  0  0  0  0  0  0  0  0
   17.0284   -4.5397   -9.2037 C   0  0  0  0  0  0  0  0  0  0  0  0
   16.9009   -5.3698  -10.4372 C   0  0  1  0  0  0  0  0  0  0  0  0
   18.1866   -6.0212  -10.8126 C   0  0  0  0  0  0  0  0  0  0  0  0
   18.5854   -6.9775  -10.1166 O   0  0  0  0  0  0  0  0  0  0  0  0
   18.9463   -5.5804  -11.9234 N   0  0  0  0  0  0  0  0  0  0  0  0
   20.2723   -6.0982  -12.2365 C   0  0  1  0  0  0  0  0  0  0  0  0
   20.3162   -6.7661  -13.5647 C   0  0  0  0  0  0  0  0  0  0  0  0
   19.2901   -7.8206  -13.6377 C   0  0  0  0  0  0  0  0  0  0  0  0
   19.4482   -9.1447  -13.2446 C   0  0  0  0  0  0  0  0  0  0  0  0
   18.2805   -9.7972  -13.4677 N   0  0  0  0  0  0  0  0  0  0  0  0
   17.4132   -8.9280  -13.9813 C   0  0  0  0  0  0  0  0  0  0  0  0
   18.0275   -7.7317  -14.0831 N   0  0  0  0  0  0  0  0  0  0  0  0
   21.3104   -5.0754  -12.1002 C   0  0  0  0  0  0  0  0  0  0  0  0
   20.9219   -3.8516  -12.1277 O   0  0  0  0  0  0  0  0  0  0  0  0
   22.6534   -5.2607  -11.9443 O   0  0  0  0  0  0  0  0  0  0  0  0
  2  3  2  0
  2  1  1  0
  4  2  1  0
  5  4  1  0
  6  5  1  0
  6  8  1  0
  6  7  1  6
  8  9  2  0
  8 10  1  0
 10 14  1  0
 10 11  1  0
 11 12  1  0
 13 12  1  0
 14 13  1  0
 15 16  2  0
 14 15  1  1
 17 15  1  0
 18 17  1  0
 18 25  1  0
 18 19  1  6
 20 24  1  0
 20 19  1  0
 21 20  2  0
 22 21  1  0
 22 23  1  0
 23 24  2  0
 25 27  1  0
 26 25  2  0
M  END
$$$$
