QPH.pdb
     RDKit          3D

 27 28  0  0  1  0  0  0  0  0999 V2000
   29.5581  -32.4473  -15.3309 N   0  0  0  0  0  0  0  0  0  0  0  0
   28.4854  -31.8077  -15.9864 C   0  0  0  0  0  0  0  0  0  0  0  0
   27.3732  -31.7624  -15.4230 O   0  0  0  0  0  0  0  0  0  0  0  0
   28.7188  -31.2177  -17.3073 C   0  0  0  0  0  0  0  0  0  0  0  0
   30.1317  -31.3374  -17.8166 C   0  0  0  0  0  0  0  0  0  0  0  0
   30.3023  -30.7033  -19.1546 C   0  0  2  0  0  0  0  0  0  0  0  0
   29.4410  -31.4373  -20.0730 N   0  0  0  0  0  0  0  0  0  0  0  0
   31.6949  -30.6606  -19.6511 C   0  0  0  0  0  0  0  0  0  0  0  0
   32.1474  -31.6820  -20.2781 O   0  0  0  0  0  0  0  0  0  0  0  0
   32.5911  -29.5725  -19.4957 N   0  0  0  0  0  0  0  0  0  0  0  0
   32.1779  -28.2976  -18.9508 C   0  0  0  0  0  0  0  0  0  0  0  0
   33.2005  -27.3090  -19.5119 C   0  0  0  0  0  0  0  0  0  0  0  0
   34.4536  -28.1566  -19.4384 C   0  0  0  0  0  0  0  0  0  0  0  0
   33.9593  -29.5097  -19.8275 C   0  0  1  0  0  0  0  0  0  0  0  0
   34.7812  -30.6011  -19.2346 C   0  0  0  0  0  0  0  0  0  0  0  0
   34.4758  -31.0143  -18.0971 O   0  0  0  0  0  0  0  0  0  0  0  0
   35.8800  -31.1642  -19.9280 N   0  0  0  0  0  0  0  0  0  0  0  0
   36.6987  -32.2397  -19.3825 C   0  0  1  0  0  0  0  0  0  0  0  0
   36.2647  -33.5777  -19.8658 C   0  0  0  0  0  0  0  0  0  0  0  0
   35.0424  -34.0010  -19.1608 C   0  0  0  0  0  0  0  0  0  0  0  0
   34.8791  -34.0818  -17.7826 C   0  0  0  0  0  0  0  0  0  0  0  0
   33.6176  -34.5093  -17.5278 N   0  0  0  0  0  0  0  0  0  0  0  0
   33.0008  -34.6938  -18.6926 C   0  0  0  0  0  0  0  0  0  0  0  0
   33.8662  -34.3852  -19.6800 N   0  0  0  0  0  0  0  0  0  0  0  0
   38.1276  -32.0117  -19.6030 C   0  0  0  0  0  0  0  0  0  0  0  0
   38.4542  -30.9108  -20.1780 O   0  0  0  0  0  0  0  0  0  0  0  0
   39.1676  -32.8299  -19.2695 O   0  0  0  0  0  0  0  0  0  0  0  0
  2  3  2  0
  2  1  1  0
  4  2  1  0
  5  4  1  0
  6  5  1  0
  6  8  1  0
  6  7  1  6
  8  9  2  0
  8 10  1  0
 10 14  1  0
 10 11  1  0
 11 12  1  0
 13 12  1  0
 14 13  1  0
 15 16  2  0
 14 15  1  1
 17 15  1  0
 18 17  1  0
 18 25  1  0
 18 19  1  6
 20 24  1  0
 20 19  1  0
 21 20  2  0
 22 21  1  0
 22 23  1  0
 23 24  2  0
 25 27  1  0
 26 25  2  0
M  END
$$$$
