QPH.pdb
     RDKit          3D

 27 28  0  0  1  0  0  0  0  0999 V2000
   15.7602  -11.2308  -17.6768 N   0  0  0  0  0  0  0  0  0  0  0  0
   16.3094  -12.3590  -18.3211 C   0  0  0  0  0  0  0  0  0  0  0  0
   15.5397  -13.2090  -18.8125 O   0  0  0  0  0  0  0  0  0  0  0  0
   17.7674  -12.4896  -18.3905 C   0  0  0  0  0  0  0  0  0  0  0  0
   18.5375  -11.3926  -17.7025 C   0  0  0  0  0  0  0  0  0  0  0  0
   20.0111  -11.5716  -17.8362 C   0  0  2  0  0  0  0  0  0  0  0  0
   20.3233  -12.8746  -17.2628 N   0  0  0  0  0  0  0  0  0  0  0  0
   20.8275  -10.5072  -17.2132 C   0  0  0  0  0  0  0  0  0  0  0  0
   21.2084  -10.6658  -16.0004 O   0  0  0  0  0  0  0  0  0  0  0  0
   21.2362   -9.3061  -17.8468 N   0  0  0  0  0  0  0  0  0  0  0  0
   21.1311   -9.1070  -19.2759 C   0  0  0  0  0  0  0  0  0  0  0  0
   22.1810   -8.0369  -19.5765 C   0  0  0  0  0  0  0  0  0  0  0  0
   22.0206   -7.1598  -18.3521 C   0  0  0  0  0  0  0  0  0  0  0  0
   21.7984   -8.1539  -17.2617 C   0  0  1  0  0  0  0  0  0  0  0  0
   20.9995   -7.5885  -16.1389 C   0  0  0  0  0  0  0  0  0  0  0  0
   19.8924   -8.1067  -15.8870 O   0  0  0  0  0  0  0  0  0  0  0  0
   21.4682   -6.4954  -15.3703 N   0  0  0  0  0  0  0  0  0  0  0  0
   20.8241   -6.0536  -14.1397 C   0  0  1  0  0  0  0  0  0  0  0  0
   20.8221   -7.1118  -13.0945 C   0  0  0  0  0  0  0  0  0  0  0  0
   20.1897   -6.6088  -11.8628 C   0  0  0  0  0  0  0  0  0  0  0  0
   20.8190   -6.4221  -10.6373 C   0  0  0  0  0  0  0  0  0  0  0  0
   19.9037   -5.9464   -9.7570 N   0  0  0  0  0  0  0  0  0  0  0  0
   18.7394   -5.8338  -10.3919 C   0  0  0  0  0  0  0  0  0  0  0  0
   18.9157   -6.2357  -11.6673 N   0  0  0  0  0  0  0  0  0  0  0  0
   21.3822   -4.7937  -13.6462 C   0  0  0  0  0  0  0  0  0  0  0  0
   22.6442   -4.6192  -13.8077 O   0  0  0  0  0  0  0  0  0  0  0  0
   20.7228   -3.7695  -13.0310 O   0  0  0  0  0  0  0  0  0  0  0  0
  2  3  2  0
  2  1  1  0
  4  2  1  0
  5  4  1  0
  6  5  1  0
  6  8  1  0
  6  7  1  1
  8  9  2  0
  8 10  1  0
 10 14  1  0
 10 11  1  0
 11 12  1  0
 13 12  1  0
 14 13  1  0
 15 16  2  0
 14 15  1  1
 17 15  1  0
 18 17  1  0
 18 25  1  0
 18 19  1  1
 20 24  1  0
 20 19  1  0
 21 20  2  0
 22 21  1  0
 22 23  1  0
 23 24  2  0
 25 27  1  0
 26 25  2  0
M  END
$$$$
