QPH.pdb
     RDKit          3D

 27 28  0  0  1  0  0  0  0  0999 V2000
   25.4253  -22.1579  -15.9141 N   0  0  0  0  0  0  0  0  0  0  0  0
   24.5037  -22.4874  -14.8984 C   0  0  0  0  0  0  0  0  0  0  0  0
   23.3632  -22.8775  -15.2202 O   0  0  0  0  0  0  0  0  0  0  0  0
   24.9222  -22.3602  -13.4998 C   0  0  0  0  0  0  0  0  0  0  0  0
   26.3572  -21.9464  -13.3006 C   0  0  0  0  0  0  0  0  0  0  0  0
   26.4733  -20.6670  -12.5449 C   0  0  2  0  0  0  0  0  0  0  0  0
   25.9250  -20.9190  -11.2183 N   0  0  0  0  0  0  0  0  0  0  0  0
   25.8144  -19.5055  -13.1807 C   0  0  0  0  0  0  0  0  0  0  0  0
   24.6497  -19.1673  -12.7680 O   0  0  0  0  0  0  0  0  0  0  0  0
   26.3639  -18.7163  -14.2230 N   0  0  0  0  0  0  0  0  0  0  0  0
   27.6973  -18.9327  -14.7408 C   0  0  0  0  0  0  0  0  0  0  0  0
   28.0828  -17.5804  -15.3413 C   0  0  0  0  0  0  0  0  0  0  0  0
   26.7515  -17.1663  -15.9332 C   0  0  0  0  0  0  0  0  0  0  0  0
   25.7749  -17.6335  -14.9062 C   0  0  1  0  0  0  0  0  0  0  0  0
   24.4410  -17.9372  -15.4952 C   0  0  0  0  0  0  0  0  0  0  0  0
   23.9268  -19.0463  -15.2432 O   0  0  0  0  0  0  0  0  0  0  0  0
   23.7630  -17.0059  -16.3187 N   0  0  0  0  0  0  0  0  0  0  0  0
   22.3204  -17.0292  -16.5258 C   0  0  1  0  0  0  0  0  0  0  0  0
   21.5674  -17.0001  -15.2434 C   0  0  0  0  0  0  0  0  0  0  0  0
   20.1227  -17.1326  -15.4990 C   0  0  0  0  0  0  0  0  0  0  0  0
   19.4946  -18.2157  -16.1032 C   0  0  0  0  0  0  0  0  0  0  0  0
   18.1638  -17.9604  -16.1566 N   0  0  0  0  0  0  0  0  0  0  0  0
   17.9501  -16.7658  -15.6102 C   0  0  0  0  0  0  0  0  0  0  0  0
   19.1384  -16.2668  -15.2128 N   0  0  0  0  0  0  0  0  0  0  0  0
   21.8782  -15.9817  -17.4475 C   0  0  0  0  0  0  0  0  0  0  0  0
   22.3125  -14.7942  -17.2226 O   0  0  0  0  0  0  0  0  0  0  0  0
   21.0549  -16.1099  -18.5283 O   0  0  0  0  0  0  0  0  0  0  0  0
  2  3  2  0
  2  1  1  0
  4  2  1  0
  5  4  1  0
  6  5  1  0
  6  8  1  0
  6  7  1  1
  8  9  2  0
  8 10  1  0
 10 14  1  0
 10 11  1  0
 11 12  1  0
 13 12  1  0
 14 13  1  0
 15 16  2  0
 14 15  1  6
 17 15  1  0
 18 17  1  0
 18 25  1  0
 18 19  1  1
 20 24  1  0
 20 19  1  0
 21 20  2  0
 22 21  1  0
 22 23  1  0
 23 24  2  0
 25 27  1  0
 26 25  2  0
M  END
$$$$
