QPH.pdb
     RDKit          3D

 27 28  0  0  1  0  0  0  0  0999 V2000
   20.7408  -12.9112  -20.9072 N   0  0  0  0  0  0  0  0  0  0  0  0
   21.7588  -13.8819  -21.0115 C   0  0  0  0  0  0  0  0  0  0  0  0
   21.6442  -14.7895  -21.8598 O   0  0  0  0  0  0  0  0  0  0  0  0
   22.9165  -13.7866  -20.1181 C   0  0  0  0  0  0  0  0  0  0  0  0
   22.8677  -12.6472  -19.1335 C   0  0  0  0  0  0  0  0  0  0  0  0
   23.4600  -13.0168  -17.8167 C   0  0  2  0  0  0  0  0  0  0  0  0
   22.7401  -14.1974  -17.3562 N   0  0  0  0  0  0  0  0  0  0  0  0
   23.4312  -11.9455  -16.7974 C   0  0  0  0  0  0  0  0  0  0  0  0
   22.3107  -11.6641  -16.2439 O   0  0  0  0  0  0  0  0  0  0  0  0
   24.5506  -11.1882  -16.3676 N   0  0  0  0  0  0  0  0  0  0  0  0
   25.9045  -11.5099  -16.7633 C   0  0  0  0  0  0  0  0  0  0  0  0
   26.7663  -10.8944  -15.6605 C   0  0  0  0  0  0  0  0  0  0  0  0
   25.9935   -9.6171  -15.4049 C   0  0  0  0  0  0  0  0  0  0  0  0
   24.5740  -10.0622  -15.5205 C   0  0  1  0  0  0  0  0  0  0  0  0
   23.6710   -8.9579  -15.9492 C   0  0  0  0  0  0  0  0  0  0  0  0
   23.2084   -8.9942  -17.1079 O   0  0  0  0  0  0  0  0  0  0  0  0
   23.3375   -7.8911  -15.0798 N   0  0  0  0  0  0  0  0  0  0  0  0
   22.3830   -6.8469  -15.4310 C   0  0  1  0  0  0  0  0  0  0  0  0
   21.0403   -7.3983  -15.7557 C   0  0  0  0  0  0  0  0  0  0  0  0
   20.1465   -6.3217  -16.2164 C   0  0  0  0  0  0  0  0  0  0  0  0
   19.4369   -5.4439  -15.4049 C   0  0  0  0  0  0  0  0  0  0  0  0
   18.7321   -4.6029  -16.2018 N   0  0  0  0  0  0  0  0  0  0  0  0
   18.9803   -4.9287  -17.4682 C   0  0  0  0  0  0  0  0  0  0  0  0
   19.8373   -5.9702  -17.4739 N   0  0  0  0  0  0  0  0  0  0  0  0
   22.3155   -5.7963  -14.4143 C   0  0  0  0  0  0  0  0  0  0  0  0
   22.4308   -6.1691  -13.1907 O   0  0  0  0  0  0  0  0  0  0  0  0
   22.1450   -4.4558  -14.6050 O   0  0  0  0  0  0  0  0  0  0  0  0
  2  3  2  0
  2  1  1  0
  4  2  1  0
  5  4  1  0
  6  5  1  0
  6  8  1  0
  6  7  1  1
  8  9  2  0
  8 10  1  0
 10 14  1  0
 10 11  1  0
 11 12  1  0
 13 12  1  0
 14 13  1  0
 15 16  2  0
 14 15  1  6
 17 15  1  0
 18 17  1  0
 18 25  1  0
 18 19  1  1
 20 24  1  0
 20 19  1  0
 21 20  2  0
 22 21  1  0
 22 23  1  0
 23 24  2  0
 25 27  1  0
 26 25  2  0
M  END
$$$$
