QPH.pdb
     RDKit          3D

 27 28  0  0  1  0  0  0  0  0999 V2000
   17.1451  -14.0802  -19.6779 N   0  0  0  0  0  0  0  0  0  0  0  0
   18.1242  -14.6312  -20.5308 C   0  0  0  0  0  0  0  0  0  0  0  0
   17.7748  -15.4565  -21.3987 O   0  0  0  0  0  0  0  0  0  0  0  0
   19.5184  -14.2111  -20.3658 C   0  0  0  0  0  0  0  0  0  0  0  0
   19.7500  -13.1853  -19.2868 C   0  0  0  0  0  0  0  0  0  0  0  0
   21.1877  -12.8112  -19.1665 C   0  0  2  0  0  0  0  0  0  0  0  0
   21.9022  -14.0272  -18.7993 N   0  0  0  0  0  0  0  0  0  0  0  0
   21.4697  -11.7193  -18.2096 C   0  0  0  0  0  0  0  0  0  0  0  0
   21.5302  -12.0057  -16.9624 O   0  0  0  0  0  0  0  0  0  0  0  0
   21.6849  -10.3600  -18.5519 N   0  0  0  0  0  0  0  0  0  0  0  0
   21.8041   -9.9137  -19.9229 C   0  0  0  0  0  0  0  0  0  0  0  0
   22.5990   -8.6117  -19.8182 C   0  0  0  0  0  0  0  0  0  0  0  0
   22.0035   -8.0414  -18.5477 C   0  0  0  0  0  0  0  0  0  0  0  0
   21.8298   -9.2522  -17.6930 C   0  0  1  0  0  0  0  0  0  0  0  0
   20.7216   -9.0933  -16.7106 C   0  0  0  0  0  0  0  0  0  0  0  0
   19.7252   -9.8364  -16.8244 O   0  0  0  0  0  0  0  0  0  0  0  0
   20.7812   -8.1323  -15.6723 N   0  0  0  0  0  0  0  0  0  0  0  0
   19.7889   -8.0479  -14.6080 C   0  0  1  0  0  0  0  0  0  0  0  0
   19.6620   -9.3242  -13.8547 C   0  0  0  0  0  0  0  0  0  0  0  0
   18.6085   -9.2081  -12.8317 C   0  0  0  0  0  0  0  0  0  0  0  0
   17.7498   -8.1283  -12.6602 C   0  0  0  0  0  0  0  0  0  0  0  0
   16.9265   -8.4006  -11.6175 N   0  0  0  0  0  0  0  0  0  0  0  0
   17.2449   -9.6025  -11.1427 C   0  0  0  0  0  0  0  0  0  0  0  0
   18.2640  -10.0892  -11.8801 N   0  0  0  0  0  0  0  0  0  0  0  0
   20.0255   -6.9071  -13.7221 C   0  0  0  0  0  0  0  0  0  0  0  0
   21.2466   -6.6648  -13.4068 O   0  0  0  0  0  0  0  0  0  0  0  0
   19.1018   -6.0585  -13.1844 O   0  0  0  0  0  0  0  0  0  0  0  0
  2  3  2  0
  2  1  1  0
  4  2  1  0
  5  4  1  0
  6  5  1  0
  6  8  1  0
  6  7  1  1
  8  9  2  0
  8 10  1  0
 10 14  1  0
 10 11  1  0
 11 12  1  0
 13 12  1  0
 14 13  1  0
 15 16  2  0
 14 15  1  6
 17 15  1  0
 18 17  1  0
 18 25  1  0
 18 19  1  1
 20 24  1  0
 20 19  1  0
 21 20  2  0
 22 21  1  0
 22 23  1  0
 23 24  2  0
 25 27  1  0
 26 25  2  0
M  END
$$$$
