QPH.pdb
     RDKit          3D

 27 28  0  0  1  0  0  0  0  0999 V2000
   28.4856  -17.0936  -17.1824 N   0  0  0  0  0  0  0  0  0  0  0  0
   27.1444  -17.0445  -16.7483 C   0  0  0  0  0  0  0  0  0  0  0  0
   26.3416  -16.3015  -17.3482 O   0  0  0  0  0  0  0  0  0  0  0  0
   26.7433  -17.8714  -15.6069 C   0  0  0  0  0  0  0  0  0  0  0  0
   27.8601  -18.6512  -14.9630 C   0  0  0  0  0  0  0  0  0  0  0  0
   27.6291  -20.1222  -15.0292 C   0  0  2  0  0  0  0  0  0  0  0  0
   27.7038  -20.4896  -16.4375 N   0  0  0  0  0  0  0  0  0  0  0  0
   26.3589  -20.5815  -14.4266 C   0  0  0  0  0  0  0  0  0  0  0  0
   25.3666  -20.8112  -15.2035 O   0  0  0  0  0  0  0  0  0  0  0  0
   26.1348  -20.7964  -13.0428 N   0  0  0  0  0  0  0  0  0  0  0  0
   27.1975  -20.7265  -12.0636 C   0  0  0  0  0  0  0  0  0  0  0  0
   26.6846  -21.5788  -10.9025 C   0  0  0  0  0  0  0  0  0  0  0  0
   25.2175  -21.2033  -10.9285 C   0  0  0  0  0  0  0  0  0  0  0  0
   24.9268  -21.1120  -12.3892 C   0  0  1  0  0  0  0  0  0  0  0  0
   23.8106  -20.1705  -12.6831 C   0  0  0  0  0  0  0  0  0  0  0  0
   24.0806  -19.1077  -13.2793 O   0  0  0  0  0  0  0  0  0  0  0  0
   22.4769  -20.4580  -12.3038 N   0  0  0  0  0  0  0  0  0  0  0  0
   21.3316  -20.2067  -13.1697 C   0  0  1  0  0  0  0  0  0  0  0  0
   21.4931  -20.8292  -14.5109 C   0  0  0  0  0  0  0  0  0  0  0  0
   21.9468  -19.8235  -15.4869 C   0  0  0  0  0  0  0  0  0  0  0  0
   22.1675  -18.4751  -15.2299 C   0  0  0  0  0  0  0  0  0  0  0  0
   22.5773  -17.8843  -16.3797 N   0  0  0  0  0  0  0  0  0  0  0  0
   22.6171  -18.8144  -17.3308 C   0  0  0  0  0  0  0  0  0  0  0  0
   22.2347  -19.9880  -16.7871 N   0  0  0  0  0  0  0  0  0  0  0  0
   20.0674  -20.5845  -12.5361 C   0  0  0  0  0  0  0  0  0  0  0  0
   19.8764  -21.8379  -12.3316 O   0  0  0  0  0  0  0  0  0  0  0  0
   19.0560  -19.7635  -12.1297 O   0  0  0  0  0  0  0  0  0  0  0  0
  2  3  2  0
  2  1  1  0
  4  2  1  0
  5  4  1  0
  6  5  1  0
  6  8  1  0
  6  7  1  6
  8  9  2  0
  8 10  1  0
 10 14  1  0
 10 11  1  0
 11 12  1  0
 13 12  1  0
 14 13  1  0
 15 16  2  0
 14 15  1  1
 17 15  1  0
 18 17  1  0
 18 25  1  0
 18 19  1  6
 20 24  1  0
 20 19  1  0
 21 20  2  0
 22 21  1  0
 22 23  1  0
 23 24  2  0
 25 27  1  0
 26 25  2  0
M  END
$$$$
