PNM.pdb
     RDKit          3D

 24 24  0  0  1  0  0  0  0  0999 V2000
   18.6500  -15.3576  -16.0142 N   0  0  0  0  0  0  0  0  0  0  0  0
   17.3734  -15.7979  -16.4555 C   0  0  0  0  0  0  0  0  0  0  0  0
   17.4272  -15.8405  -17.9767 C   0  0  0  0  0  0  0  0  0  0  0  0
   18.8362  -15.4230  -18.3475 C   0  0  0  0  0  0  0  0  0  0  0  0
   19.3186  -14.7216  -17.0843 C   0  0  1  0  0  0  0  0  0  0  0  0
   19.0903  -13.2848  -17.1280 C   0  0  0  0  0  0  0  0  0  0  0  0
   19.4832  -12.5368  -18.0696 O   0  0  0  0  0  0  0  0  0  0  0  0
   14.7258  -12.0953  -15.3931 N   0  0  0  0  0  0  0  0  0  0  0  0
   15.7562  -11.3987  -16.1035 C   0  0  0  0  0  0  0  0  0  0  0  0
   15.6027  -11.2846  -17.3341 O   0  0  0  0  0  0  0  0  0  0  0  0
   16.9133  -10.8646  -15.3795 C   0  0  0  0  0  0  0  0  0  0  0  0
   18.2109  -11.1947  -16.0567 C   0  0  2  0  0  0  0  0  0  0  0  0
   18.3845  -12.6321  -16.0689 N   0  0  0  0  0  0  0  0  0  0  0  0
   19.3005  -10.5003  -15.3417 C   0  0  0  0  0  0  0  0  0  0  0  0
   19.3064  -10.5259  -14.0872 O   0  0  0  0  0  0  0  0  0  0  0  0
   26.9422  -10.1965  -14.4598 C   0  0  0  0  0  0  0  0  0  0  0  0
   25.4275  -10.6818  -15.2856 S   0  0  0  0  0  0  0  0  0  0  0  0
   23.9932   -9.7014  -14.9108 C   0  0  0  0  0  0  0  0  0  0  0  0
   22.7160  -10.0308  -15.5429 C   0  0  0  0  0  0  0  0  0  0  0  0
   21.4975   -9.2419  -15.3824 C   0  0  2  0  0  0  0  0  0  0  0  0
   20.3243   -9.8168  -16.0347 N   0  0  0  0  0  0  0  0  0  0  0  0
   21.5323   -7.8116  -15.7109 C   0  0  0  0  0  0  0  0  0  0  0  0
   21.1783   -7.3622  -16.8540 O   0  0  0  0  0  0  0  0  0  0  0  0
   21.9619   -6.8289  -14.7947 O   0  0  0  0  0  0  0  0  0  0  0  0
  1  2  1  0
  3  2  1  0
  4  3  1  0
  5  4  1  0
  5  1  1  0
  5  6  1  6
  7  6  2  0
  8  9  1  0
  9 10  2  0
 11  9  1  0
 12 11  1  1
 12 13  1  0
 13  6  1  0
 14 15  2  0
 14 12  1  0
 17 16  1  0
 18 17  1  0
 18 19  1  0
 20 19  1  6
 20 22  1  0
 20 21  1  0
 21 14  1  0
 22 24  1  0
 23 22  2  0
M  END
$$$$
