PNM.pdb
     RDKit          3D

 24 24  0  0  1  0  0  0  0  0999 V2000
   27.5757  -19.2759  -16.2724 N   0  0  0  0  0  0  0  0  0  0  0  0
   28.9617  -19.3959  -15.9843 C   0  0  0  0  0  0  0  0  0  0  0  0
   29.3745  -20.8017  -16.3987 C   0  0  0  0  0  0  0  0  0  0  0  0
   28.1249  -21.4433  -16.9680 C   0  0  0  0  0  0  0  0  0  0  0  0
   27.0144  -20.5659  -16.4049 C   0  0  1  0  0  0  0  0  0  0  0  0
   26.4773  -21.0867  -15.1563 C   0  0  0  0  0  0  0  0  0  0  0  0
   25.8416  -22.1764  -15.0625 O   0  0  0  0  0  0  0  0  0  0  0  0
   24.8018  -21.3869  -10.3136 N   0  0  0  0  0  0  0  0  0  0  0  0
   25.9835  -20.5778  -10.2877 C   0  0  0  0  0  0  0  0  0  0  0  0
   26.4178  -20.2648   -9.1633 O   0  0  0  0  0  0  0  0  0  0  0  0
   26.6154  -20.1629  -11.5434 C   0  0  0  0  0  0  0  0  0  0  0  0
   25.8988  -20.7010  -12.7467 C   0  0  2  0  0  0  0  0  0  0  0  0
   26.6527  -20.3622  -13.9356 N   0  0  0  0  0  0  0  0  0  0  0  0
   24.5326  -20.1407  -12.7658 C   0  0  0  0  0  0  0  0  0  0  0  0
   24.3943  -18.9023  -12.9124 O   0  0  0  0  0  0  0  0  0  0  0  0
   22.3948  -18.0327  -17.1082 C   0  0  0  0  0  0  0  0  0  0  0  0
   20.8618  -18.8607  -16.6887 S   0  0  0  0  0  0  0  0  0  0  0  0
   20.7752  -19.5462  -15.0512 C   0  0  0  0  0  0  0  0  0  0  0  0
   21.9987  -20.0297  -14.4121 C   0  0  0  0  0  0  0  0  0  0  0  0
   22.0539  -20.5694  -13.0562 C   0  0  2  0  0  0  0  0  0  0  0  0
   23.3923  -20.9626  -12.6246 N   0  0  0  0  0  0  0  0  0  0  0  0
   21.1323  -21.6507  -12.6870 C   0  0  0  0  0  0  0  0  0  0  0  0
   21.4557  -22.8846  -12.7691 O   0  0  0  0  0  0  0  0  0  0  0  0
   19.8232  -21.4109  -12.2197 O   0  0  0  0  0  0  0  0  0  0  0  0
  1  2  1  0
  3  2  1  0
  4  3  1  0
  5  4  1  0
  5  1  1  0
  5  6  1  1
  7  6  2  0
  8  9  1  0
  9 10  2  0
 11  9  1  0
 12 11  1  1
 12 13  1  0
 13  6  1  0
 14 15  2  0
 14 12  1  0
 17 16  1  0
 18 17  1  0
 18 19  1  0
 20 19  1  6
 20 22  1  0
 20 21  1  0
 21 14  1  0
 22 24  1  0
 23 22  2  0
M  END
$$$$
