PNM.pdb
     RDKit          3D

 24 24  0  0  1  0  0  0  0  0999 V2000
   24.7189  -24.1376  -15.8522 N   0  0  0  0  0  0  0  0  0  0  0  0
   25.1705  -25.0340  -14.8468 C   0  0  0  0  0  0  0  0  0  0  0  0
   23.9510  -25.8169  -14.3791 C   0  0  0  0  0  0  0  0  0  0  0  0
   22.7951  -25.3135  -15.2202 C   0  0  0  0  0  0  0  0  0  0  0  0
   23.3188  -23.9818  -15.7422 C   0  0  1  0  0  0  0  0  0  0  0  0
   22.9328  -22.8644  -14.8931 C   0  0  0  0  0  0  0  0  0  0  0  0
   21.7386  -22.6101  -14.5620 O   0  0  0  0  0  0  0  0  0  0  0  0
   25.6491  -22.2304  -11.3202 N   0  0  0  0  0  0  0  0  0  0  0  0
   24.5653  -21.3201  -11.5400 C   0  0  0  0  0  0  0  0  0  0  0  0
   23.6305  -21.3606  -10.7180 O   0  0  0  0  0  0  0  0  0  0  0  0
   24.5963  -20.4061  -12.6855 C   0  0  0  0  0  0  0  0  0  0  0  0
   23.5531  -20.7417  -13.7103 C   0  0  2  0  0  0  0  0  0  0  0  0
   23.9245  -21.9727  -14.3761 N   0  0  0  0  0  0  0  0  0  0  0  0
   23.4365  -19.6061  -14.6470 C   0  0  0  0  0  0  0  0  0  0  0  0
   24.4070  -19.3469  -15.3990 O   0  0  0  0  0  0  0  0  0  0  0  0
   22.8238  -20.5309  -19.9218 C   0  0  0  0  0  0  0  0  0  0  0  0
   21.6644  -19.1650  -19.8831 S   0  0  0  0  0  0  0  0  0  0  0  0
   21.7536  -18.1143  -18.4524 C   0  0  0  0  0  0  0  0  0  0  0  0
   22.0865  -18.6997  -17.1540 C   0  0  0  0  0  0  0  0  0  0  0  0
   21.8952  -18.0175  -15.8770 C   0  0  2  0  0  0  0  0  0  0  0  0
   22.2672  -18.8161  -14.7124 N   0  0  0  0  0  0  0  0  0  0  0  0
   20.5950  -17.3977  -15.5937 C   0  0  0  0  0  0  0  0  0  0  0  0
   19.7031  -17.9716  -14.8803 O   0  0  0  0  0  0  0  0  0  0  0  0
   20.2312  -16.1282  -16.0895 O   0  0  0  0  0  0  0  0  0  0  0  0
  1  2  1  0
  3  2  1  0
  4  3  1  0
  5  4  1  0
  5  1  1  0
  5  6  1  1
  7  6  2  0
  8  9  1  0
  9 10  2  0
 11  9  1  0
 12 11  1  1
 12 13  1  0
 13  6  1  0
 14 15  2  0
 14 12  1  0
 17 16  1  0
 18 17  1  0
 18 19  1  0
 20 19  1  6
 20 22  1  0
 20 21  1  0
 21 14  1  0
 22 24  1  0
 23 22  2  0
M  END
$$$$
