PNM.pdb
     RDKit          3D

 24 24  0  0  1  0  0  0  0  0999 V2000
   28.3642  -20.8952  -16.5301 N   0  0  0  0  0  0  0  0  0  0  0  0
   28.1365  -19.7034  -17.2692 C   0  0  0  0  0  0  0  0  0  0  0  0
   28.3725  -18.5432  -16.3118 C   0  0  0  0  0  0  0  0  0  0  0  0
   28.7793  -19.1756  -14.9959 C   0  0  0  0  0  0  0  0  0  0  0  0
   28.2854  -20.6084  -15.1487 C   0  0  1  0  0  0  0  0  0  0  0  0
   26.9496  -20.7944  -14.6014 C   0  0  0  0  0  0  0  0  0  0  0  0
   25.9435  -21.1236  -15.2940 O   0  0  0  0  0  0  0  0  0  0  0  0
   24.1152  -21.0659   -9.0679 N   0  0  0  0  0  0  0  0  0  0  0  0
   24.2341  -21.1846  -10.4904 C   0  0  0  0  0  0  0  0  0  0  0  0
   23.2021  -21.5060  -11.1092 O   0  0  0  0  0  0  0  0  0  0  0  0
   25.5225  -20.9320  -11.1420 C   0  0  0  0  0  0  0  0  0  0  0  0
   25.3956  -20.8262  -12.6332 C   0  0  2  0  0  0  0  0  0  0  0  0
   26.7081  -20.6069  -13.2041 N   0  0  0  0  0  0  0  0  0  0  0  0
   24.4541  -19.7323  -12.9453 C   0  0  0  0  0  0  0  0  0  0  0  0
   24.7558  -18.5644  -12.5995 O   0  0  0  0  0  0  0  0  0  0  0  0
   25.4338  -15.3181  -15.6510 C   0  0  0  0  0  0  0  0  0  0  0  0
   24.0378  -15.8013  -16.6656 S   0  0  0  0  0  0  0  0  0  0  0  0
   22.8745  -16.9089  -15.9048 C   0  0  0  0  0  0  0  0  0  0  0  0
   23.3703  -18.0304  -15.1075 C   0  0  0  0  0  0  0  0  0  0  0  0
   22.5104  -18.9500  -14.3673 C   0  0  2  0  0  0  0  0  0  0  0  0
   23.2353  -19.9725  -13.6182 N   0  0  0  0  0  0  0  0  0  0  0  0
   21.4099  -19.6147  -15.0758 C   0  0  0  0  0  0  0  0  0  0  0  0
   20.3726  -18.9841  -15.4761 O   0  0  0  0  0  0  0  0  0  0  0  0
   21.4119  -20.9956  -15.3634 O   0  0  0  0  0  0  0  0  0  0  0  0
  1  2  1  0
  3  2  1  0
  4  3  1  0
  5  4  1  0
  5  1  1  0
  5  6  1  6
  7  6  2  0
  8  9  1  0
  9 10  2  0
 11  9  1  0
 12 11  1  1
 12 13  1  0
 13  6  1  0
 14 15  2  0
 14 12  1  0
 17 16  1  0
 18 17  1  0
 18 19  1  0
 20 19  1  6
 20 22  1  0
 20 21  1  0
 21 14  1  0
 22 24  1  0
 23 22  2  0
M  END
$$$$
