PNM.pdb
     RDKit          3D

 24 24  0  0  1  0  0  0  0  0999 V2000
   44.3749  -13.2358   -8.5891 N   0  0  0  0  0  0  0  0  0  0  0  0
   44.0888  -14.2924   -7.6836 C   0  0  0  0  0  0  0  0  0  0  0  0
   43.3347  -15.3534   -8.4736 C   0  0  0  0  0  0  0  0  0  0  0  0
   43.2507  -14.8243   -9.8914 C   0  0  0  0  0  0  0  0  0  0  0  0
   43.5167  -13.3359   -9.7073 C   0  0  1  0  0  0  0  0  0  0  0  0
   42.2888  -12.5691   -9.5561 C   0  0  0  0  0  0  0  0  0  0  0  0
   41.3691  -12.5325  -10.4239 O   0  0  0  0  0  0  0  0  0  0  0  0
   38.2668  -10.2333   -7.6669 N   0  0  0  0  0  0  0  0  0  0  0  0
   39.0937  -10.5690   -6.5465 C   0  0  0  0  0  0  0  0  0  0  0  0
   38.5632  -10.4936   -5.4223 O   0  0  0  0  0  0  0  0  0  0  0  0
   40.4861  -10.9747   -6.7586 C   0  0  0  0  0  0  0  0  0  0  0  0
   40.8533  -11.0119   -8.2129 C   0  0  2  0  0  0  0  0  0  0  0  0
   42.0601  -11.7956   -8.3749 N   0  0  0  0  0  0  0  0  0  0  0  0
   41.0133   -9.6235   -8.6897 C   0  0  0  0  0  0  0  0  0  0  0  0
   42.1129   -9.0485   -8.5036 O   0  0  0  0  0  0  0  0  0  0  0  0
   42.1778   -7.9275  -14.1326 C   0  0  0  0  0  0  0  0  0  0  0  0
   41.5062   -6.3495  -13.6129 S   0  0  0  0  0  0  0  0  0  0  0  0
   40.9040   -6.2769  -11.9422 C   0  0  0  0  0  0  0  0  0  0  0  0
   40.5559   -7.5188  -11.2524 C   0  0  0  0  0  0  0  0  0  0  0  0
   40.0897   -7.5824   -9.8698 C   0  0  2  0  0  0  0  0  0  0  0  0
   39.9650   -8.9390   -9.3440 N   0  0  0  0  0  0  0  0  0  0  0  0
   38.8737   -6.8485   -9.4988 C   0  0  0  0  0  0  0  0  0  0  0  0
   38.7339   -5.5974   -9.7201 O   0  0  0  0  0  0  0  0  0  0  0  0
   37.7731   -7.4655   -8.8681 O   0  0  0  0  0  0  0  0  0  0  0  0
  1  2  1  0
  3  2  1  0
  4  3  1  0
  5  4  1  0
  5  1  1  0
  5  6  1  1
  7  6  2  0
  8  9  1  0
  9 10  2  0
 11  9  1  0
 12 11  1  1
 12 13  1  0
 13  6  1  0
 14 15  2  0
 14 12  1  0
 17 16  1  0
 18 17  1  0
 18 19  1  0
 20 19  1  6
 20 22  1  0
 20 21  1  0
 21 14  1  0
 22 24  1  0
 23 22  2  0
M  END
$$$$
