PNM.pdb
     RDKit          3D

 24 24  0  0  1  0  0  0  0  0999 V2000
   17.6911  -21.7959    5.1877 N   0  0  0  0  0  0  0  0  0  0  0  0
   18.3783  -20.6369    4.7375 C   0  0  0  0  0  0  0  0  0  0  0  0
   19.7672  -21.0908    4.3088 C   0  0  0  0  0  0  0  0  0  0  0  0
   19.7910  -22.5910    4.5231 C   0  0  0  0  0  0  0  0  0  0  0  0
   18.6311  -22.8078    5.4864 C   0  0  1  0  0  0  0  0  0  0  0  0
   19.0585  -22.7986    6.8777 C   0  0  0  0  0  0  0  0  0  0  0  0
   18.8165  -21.8537    7.6833 O   0  0  0  0  0  0  0  0  0  0  0  0
   19.0521  -27.3353    8.5731 N   0  0  0  0  0  0  0  0  0  0  0  0
   19.1629  -26.0894    9.2710 C   0  0  0  0  0  0  0  0  0  0  0  0
   18.1512  -25.7067    9.8884 O   0  0  0  0  0  0  0  0  0  0  0  0
   20.4204  -25.3374    9.2333 C   0  0  0  0  0  0  0  0  0  0  0  0
   20.2208  -23.9151    8.7992 C   0  0  2  0  0  0  0  0  0  0  0  0
   19.7973  -23.8994    7.4147 N   0  0  0  0  0  0  0  0  0  0  0  0
   21.4839  -23.1804    9.0117 C   0  0  0  0  0  0  0  0  0  0  0  0
   22.2235  -22.9604    8.0222 O   0  0  0  0  0  0  0  0  0  0  0  0
   23.5170  -16.3231    8.6473 C   0  0  0  0  0  0  0  0  0  0  0  0
   22.5309  -17.8190    8.6083 S   0  0  0  0  0  0  0  0  0  0  0  0
   23.0685  -19.1287    9.6828 C   0  0  0  0  0  0  0  0  0  0  0  0
   22.3513  -20.4033    9.6718 C   0  0  0  0  0  0  0  0  0  0  0  0
   22.7004  -21.5445   10.5138 C   0  0  2  0  0  0  0  0  0  0  0  0
   21.8706  -22.7254   10.2920 N   0  0  0  0  0  0  0  0  0  0  0  0
   22.8121  -21.3458   11.9639 C   0  0  0  0  0  0  0  0  0  0  0  0
   21.7912  -21.3206   12.7328 O   0  0  0  0  0  0  0  0  0  0  0  0
   24.0497  -21.1638   12.6157 O   0  0  0  0  0  0  0  0  0  0  0  0
  1  2  1  0
  3  2  1  0
  4  3  1  0
  5  4  1  0
  5  1  1  0
  5  6  1  1
  7  6  2  0
  8  9  1  0
  9 10  2  0
 11  9  1  0
 12 11  1  6
 12 13  1  0
 13  6  1  0
 14 15  2  0
 14 12  1  0
 17 16  1  0
 18 17  1  0
 18 19  1  0
 20 19  1  6
 20 22  1  0
 20 21  1  0
 21 14  1  0
 22 24  1  0
 23 22  2  0
M  END
$$$$
