PNM.pdb
     RDKit          3D

 24 24  0  0  1  0  0  0  0  0999 V2000
   30.8413  -23.2518  -18.9625 N   0  0  0  0  0  0  0  0  0  0  0  0
   30.3026  -23.3259  -20.2750 C   0  0  0  0  0  0  0  0  0  0  0  0
   29.1786  -22.3010  -20.3448 C   0  0  0  0  0  0  0  0  0  0  0  0
   29.1530  -21.6295  -18.9863 C   0  0  0  0  0  0  0  0  0  0  0  0
   29.9064  -22.6221  -18.1104 C   0  0  1  0  0  0  0  0  0  0  0  0
   29.0149  -23.5615  -17.4460 C   0  0  0  0  0  0  0  0  0  0  0  0
   28.0148  -23.2148  -16.7532 O   0  0  0  0  0  0  0  0  0  0  0  0
   25.1586  -24.1921  -16.3466 N   0  0  0  0  0  0  0  0  0  0  0  0
   26.1348  -25.2217  -16.1500 C   0  0  0  0  0  0  0  0  0  0  0  0
   26.2270  -25.6872  -14.9985 O   0  0  0  0  0  0  0  0  0  0  0  0
   26.9605  -25.6732  -17.2737 C   0  0  0  0  0  0  0  0  0  0  0  0
   28.3847  -25.9198  -16.8711 C   0  0  2  0  0  0  0  0  0  0  0  0
   29.2390  -24.9701  -17.5528 N   0  0  0  0  0  0  0  0  0  0  0  0
   28.7256  -27.3197  -17.1947 C   0  0  0  0  0  0  0  0  0  0  0  0
   28.4625  -27.7509  -18.3432 O   0  0  0  0  0  0  0  0  0  0  0  0
   27.1465  -32.4232  -14.0059 C   0  0  0  0  0  0  0  0  0  0  0  0
   28.4568  -32.8129  -15.1647 S   0  0  0  0  0  0  0  0  0  0  0  0
   28.4553  -31.8797  -16.6773 C   0  0  0  0  0  0  0  0  0  0  0  0
   28.4275  -30.4186  -16.6168 C   0  0  0  0  0  0  0  0  0  0  0  0
   29.6191  -29.5831  -16.4942 C   0  0  2  0  0  0  0  0  0  0  0  0
   29.3356  -28.1721  -16.2475 N   0  0  0  0  0  0  0  0  0  0  0  0
   30.6437  -29.6538  -17.5431 C   0  0  0  0  0  0  0  0  0  0  0  0
   31.1983  -28.6104  -18.0307 O   0  0  0  0  0  0  0  0  0  0  0  0
   31.0887  -30.8738  -18.0937 O   0  0  0  0  0  0  0  0  0  0  0  0
  1  2  1  0
  3  2  1  0
  4  3  1  0
  5  4  1  0
  5  1  1  0
  5  6  1  6
  7  6  2  0
  8  9  1  0
  9 10  2  0
 11  9  1  0
 12 11  1  6
 12 13  1  0
 13  6  1  0
 14 15  2  0
 14 12  1  0
 17 16  1  0
 18 17  1  0
 18 19  1  0
 20 19  1  6
 20 22  1  0
 20 21  1  0
 21 14  1  0
 22 24  1  0
 23 22  2  0
M  END
$$$$
