PNM.pdb
     RDKit          3D

 24 24  0  0  1  0  0  0  0  0999 V2000
   28.1725  -20.9818  -16.4236 N   0  0  0  0  0  0  0  0  0  0  0  0
   27.4925  -20.4472  -17.5506 C   0  0  0  0  0  0  0  0  0  0  0  0
   27.9643  -19.0076  -17.7038 C   0  0  0  0  0  0  0  0  0  0  0  0
   28.9799  -18.7909  -16.5999 C   0  0  0  0  0  0  0  0  0  0  0  0
   28.6622  -19.9208  -15.6291 C   0  0  1  0  0  0  0  0  0  0  0  0
   27.7323  -19.5101  -14.5874 C   0  0  0  0  0  0  0  0  0  0  0  0
   27.8597  -18.4520  -13.9058 O   0  0  0  0  0  0  0  0  0  0  0  0
   23.4275  -19.9661  -16.0496 N   0  0  0  0  0  0  0  0  0  0  0  0
   23.7976  -19.3977  -14.7880 C   0  0  0  0  0  0  0  0  0  0  0  0
   23.7002  -18.1603  -14.6863 O   0  0  0  0  0  0  0  0  0  0  0  0
   24.2612  -20.2648  -13.7011 C   0  0  0  0  0  0  0  0  0  0  0  0
   25.6503  -19.9205  -13.2508 C   0  0  2  0  0  0  0  0  0  0  0  0
   26.5909  -20.3149  -14.2786 N   0  0  0  0  0  0  0  0  0  0  0  0
   25.9048  -20.5968  -11.9629 C   0  0  0  0  0  0  0  0  0  0  0  0
   26.1402  -21.8292  -11.9690 O   0  0  0  0  0  0  0  0  0  0  0  0
   29.7573  -19.9849   -5.8676 C   0  0  0  0  0  0  0  0  0  0  0  0
   28.1103  -19.3004   -6.0422 S   0  0  0  0  0  0  0  0  0  0  0  0
   26.9964  -20.2185   -7.0790 C   0  0  0  0  0  0  0  0  0  0  0  0
   26.8382  -19.8299   -8.4802 C   0  0  0  0  0  0  0  0  0  0  0  0
   25.9857  -20.5361   -9.4327 C   0  0  2  0  0  0  0  0  0  0  0  0
   25.8891  -19.8911  -10.7392 N   0  0  0  0  0  0  0  0  0  0  0  0
   24.6279  -20.9138   -9.0222 C   0  0  0  0  0  0  0  0  0  0  0  0
   23.5840  -20.4209   -9.5710 O   0  0  0  0  0  0  0  0  0  0  0  0
   24.3733  -21.8427   -7.9916 O   0  0  0  0  0  0  0  0  0  0  0  0
  1  2  1  0
  3  2  1  0
  4  3  1  0
  5  4  1  0
  5  1  1  0
  5  6  1  1
  7  6  2  0
  8  9  1  0
  9 10  2  0
 11  9  1  0
 12 11  1  6
 12 13  1  0
 13  6  1  0
 14 15  2  0
 14 12  1  0
 17 16  1  0
 18 17  1  0
 18 19  1  0
 20 19  1  1
 20 22  1  0
 20 21  1  0
 21 14  1  0
 22 24  1  0
 23 22  2  0
M  END
$$$$
