PNM.pdb
     RDKit          3D

 24 24  0  0  1  0  0  0  0  0999 V2000
   25.4165  -18.6297  -16.3721 N   0  0  0  0  0  0  0  0  0  0  0  0
   25.3223  -19.2599  -17.6419 C   0  0  0  0  0  0  0  0  0  0  0  0
   23.8383  -19.4421  -17.9307 C   0  0  0  0  0  0  0  0  0  0  0  0
   23.1140  -18.8383  -16.7441 C   0  0  0  0  0  0  0  0  0  0  0  0
   24.1990  -18.8016  -15.6757 C   0  0  1  0  0  0  0  0  0  0  0  0
   24.1852  -19.9878  -14.8323 C   0  0  0  0  0  0  0  0  0  0  0  0
   23.1381  -20.4710  -14.3122 O   0  0  0  0  0  0  0  0  0  0  0  0
   24.8703  -24.9109  -14.8869 N   0  0  0  0  0  0  0  0  0  0  0  0
   25.5150  -23.6891  -15.2654 C   0  0  0  0  0  0  0  0  0  0  0  0
   25.4046  -23.3493  -16.4585 O   0  0  0  0  0  0  0  0  0  0  0  0
   26.2554  -22.9114  -14.2678 C   0  0  0  0  0  0  0  0  0  0  0  0
   25.4185  -21.8272  -13.6552 C   0  0  2  0  0  0  0  0  0  0  0  0
   25.4006  -20.6851  -14.5453 N   0  0  0  0  0  0  0  0  0  0  0  0
   25.9769  -21.4999  -12.3279 C   0  0  0  0  0  0  0  0  0  0  0  0
   27.2126  -21.3062  -12.2284 O   0  0  0  0  0  0  0  0  0  0  0  0
   29.3006  -19.7101   -7.2812 C   0  0  0  0  0  0  0  0  0  0  0  0
   27.5096  -19.7460   -7.3328 S   0  0  0  0  0  0  0  0  0  0  0  0
   26.7592  -18.9401   -8.7279 C   0  0  0  0  0  0  0  0  0  0  0  0
   26.4196  -19.7283   -9.9123 C   0  0  0  0  0  0  0  0  0  0  0  0
   25.6407  -20.9631   -9.8762 C   0  0  2  0  0  0  0  0  0  0  0  0
   25.1563  -21.4013  -11.1823 N   0  0  0  0  0  0  0  0  0  0  0  0
   24.5232  -21.0674   -8.9300 C   0  0  0  0  0  0  0  0  0  0  0  0
   23.3189  -20.7929   -9.2589 O   0  0  0  0  0  0  0  0  0  0  0  0
   24.6940  -21.4725   -7.5897 O   0  0  0  0  0  0  0  0  0  0  0  0
  1  2  1  0
  3  2  1  0
  4  3  1  0
  5  4  1  0
  5  1  1  0
  5  6  1  6
  7  6  2  0
  8  9  1  0
  9 10  2  0
 11  9  1  0
 12 11  1  6
 12 13  1  0
 13  6  1  0
 14 15  2  0
 14 12  1  0
 17 16  1  0
 18 17  1  0
 18 19  1  0
 20 19  1  6
 20 22  1  0
 20 21  1  0
 21 14  1  0
 22 24  1  0
 23 22  2  0
M  END
$$$$
