PNM.pdb
     RDKit          3D

 24 24  0  0  1  0  0  0  0  0999 V2000
   22.2797  -12.6503  -17.7980 N   0  0  0  0  0  0  0  0  0  0  0  0
   21.2317  -13.2120  -18.5755 C   0  0  0  0  0  0  0  0  0  0  0  0
   21.3601  -12.6224  -19.9735 C   0  0  0  0  0  0  0  0  0  0  0  0
   22.5748  -11.7173  -19.9253 C   0  0  0  0  0  0  0  0  0  0  0  0
   22.7531  -11.4793  -18.4314 C   0  0  1  0  0  0  0  0  0  0  0  0
   22.0778  -10.2718  -17.9791 C   0  0  0  0  0  0  0  0  0  0  0  0
   22.2744   -9.1255  -18.4770 O   0  0  0  0  0  0  0  0  0  0  0  0
   18.6786   -7.1431  -15.7716 N   0  0  0  0  0  0  0  0  0  0  0  0
   18.4659   -8.4274  -15.1739 C   0  0  0  0  0  0  0  0  0  0  0  0
   17.4877   -8.5293  -14.4098 O   0  0  0  0  0  0  0  0  0  0  0  0
   19.3771   -9.5355  -15.4741 C   0  0  0  0  0  0  0  0  0  0  0  0
   20.4597   -9.1386  -16.4340 C   0  0  2  0  0  0  0  0  0  0  0  0
   21.1263  -10.3315  -16.9129 N   0  0  0  0  0  0  0  0  0  0  0  0
   21.3818   -8.2156  -15.7423 C   0  0  0  0  0  0  0  0  0  0  0  0
   22.1870   -8.6886  -14.9042 O   0  0  0  0  0  0  0  0  0  0  0  0
   27.3713   -3.7346  -16.9471 C   0  0  0  0  0  0  0  0  0  0  0  0
   25.9586   -4.7373  -17.4056 S   0  0  0  0  0  0  0  0  0  0  0  0
   24.6876   -4.8936  -16.1731 C   0  0  0  0  0  0  0  0  0  0  0  0
   23.5104   -5.7133  -16.4589 C   0  0  0  0  0  0  0  0  0  0  0  0
   22.4052   -5.9097  -15.5246 C   0  0  2  0  0  0  0  0  0  0  0  0
   21.3751   -6.8273  -16.0034 N   0  0  0  0  0  0  0  0  0  0  0  0
   21.7278   -4.7305  -14.9720 C   0  0  0  0  0  0  0  0  0  0  0  0
   22.2032   -4.0645  -13.9900 O   0  0  0  0  0  0  0  0  0  0  0  0
   20.5031   -4.2474  -15.4783 O   0  0  0  0  0  0  0  0  0  0  0  0
  1  2  1  0
  3  2  1  0
  4  3  1  0
  5  4  1  0
  5  1  1  0
  5  6  1  1
  7  6  2  0
  8  9  1  0
  9 10  2  0
 11  9  1  0
 12 11  1  1
 12 13  1  0
 13  6  1  0
 14 15  2  0
 14 12  1  0
 17 16  1  0
 18 17  1  0
 18 19  1  0
 20 19  1  6
 20 22  1  0
 20 21  1  0
 21 14  1  0
 22 24  1  0
 23 22  2  0
M  END
$$$$
