PNM.pdb
     RDKit          3D

 24 24  0  0  1  0  0  0  0  0999 V2000
   28.2312  -20.7571  -15.2395 N   0  0  0  0  0  0  0  0  0  0  0  0
   27.4042  -20.5914  -16.3827 C   0  0  0  0  0  0  0  0  0  0  0  0
   27.3289  -19.0951  -16.6549 C   0  0  0  0  0  0  0  0  0  0  0  0
   28.2000  -18.4435  -15.5997 C   0  0  0  0  0  0  0  0  0  0  0  0
   28.3088  -19.5320  -14.5397 C   0  0  1  0  0  0  0  0  0  0  0  0
   27.2940  -19.3995  -13.5047 C   0  0  0  0  0  0  0  0  0  0  0  0
   27.0321  -18.3146  -12.9089 O   0  0  0  0  0  0  0  0  0  0  0  0
   22.5058  -19.8984  -13.8552 N   0  0  0  0  0  0  0  0  0  0  0  0
   23.0365  -20.3836  -12.6164 C   0  0  0  0  0  0  0  0  0  0  0  0
   22.4040  -20.0847  -11.5860 O   0  0  0  0  0  0  0  0  0  0  0  0
   24.2627  -21.1865  -12.6086 C   0  0  0  0  0  0  0  0  0  0  0  0
   25.4519  -20.4055  -12.1320 C   0  0  2  0  0  0  0  0  0  0  0  0
   26.5194  -20.5325  -13.1021 N   0  0  0  0  0  0  0  0  0  0  0  0
   25.8377  -20.9096  -10.7988 C   0  0  0  0  0  0  0  0  0  0  0  0
   26.2210  -22.0999  -10.6955 O   0  0  0  0  0  0  0  0  0  0  0  0
   29.9969  -19.5858   -5.1820 C   0  0  0  0  0  0  0  0  0  0  0  0
   28.3327  -18.9229   -5.2347 S   0  0  0  0  0  0  0  0  0  0  0  0
   27.1231  -19.9324   -6.0573 C   0  0  0  0  0  0  0  0  0  0  0  0
   26.8462  -19.7051   -7.4753 C   0  0  0  0  0  0  0  0  0  0  0  0
   26.0086  -20.5773   -8.2942 C   0  0  2  0  0  0  0  0  0  0  0  0
   25.7848  -20.0871   -9.6514 N   0  0  0  0  0  0  0  0  0  0  0  0
   24.7136  -21.0183   -7.7619 C   0  0  0  0  0  0  0  0  0  0  0  0
   23.6010  -20.6277   -8.2552 O   0  0  0  0  0  0  0  0  0  0  0  0
   24.5996  -21.8997   -6.6665 O   0  0  0  0  0  0  0  0  0  0  0  0
  1  2  1  0
  3  2  1  0
  4  3  1  0
  5  4  1  0
  5  1  1  0
  5  6  1  1
  7  6  2  0
  8  9  1  0
  9 10  2  0
 11  9  1  0
 12 11  1  6
 12 13  1  0
 13  6  1  0
 14 15  2  0
 14 12  1  0
 17 16  1  0
 18 17  1  0
 18 19  1  0
 20 19  1  1
 20 22  1  0
 20 21  1  0
 21 14  1  0
 22 24  1  0
 23 22  2  0
M  END
$$$$
