PNM.pdb
     RDKit          3D

 24 24  0  0  1  0  0  0  0  0999 V2000
   27.9989  -21.3372  -16.1764 N   0  0  0  0  0  0  0  0  0  0  0  0
   27.2525  -20.9212  -17.3114 C   0  0  0  0  0  0  0  0  0  0  0  0
   27.5719  -19.4484  -17.5291 C   0  0  0  0  0  0  0  0  0  0  0  0
   28.5746  -19.0843  -16.4525 C   0  0  0  0  0  0  0  0  0  0  0  0
   28.3877  -20.2002  -15.4328 C   0  0  1  0  0  0  0  0  0  0  0  0
   27.4346  -19.8445  -14.3918 C   0  0  0  0  0  0  0  0  0  0  0  0
   27.4979  -18.7793  -13.7122 O   0  0  0  0  0  0  0  0  0  0  0  0
   22.1663  -19.2162  -12.8235 N   0  0  0  0  0  0  0  0  0  0  0  0
   22.9326  -20.4118  -12.6358 C   0  0  0  0  0  0  0  0  0  0  0  0
   22.6407  -21.1090  -11.6460 O   0  0  0  0  0  0  0  0  0  0  0  0
   23.9956  -20.7575  -13.5839 C   0  0  0  0  0  0  0  0  0  0  0  0
   25.3535  -20.3549  -13.0888 C   0  0  2  0  0  0  0  0  0  0  0  0
   26.3439  -20.7161  -14.0814 N   0  0  0  0  0  0  0  0  0  0  0  0
   25.5907  -21.0138  -11.7887 C   0  0  0  0  0  0  0  0  0  0  0  0
   25.7897  -22.2525  -11.7716 O   0  0  0  0  0  0  0  0  0  0  0  0
   28.1558  -18.0807   -6.0856 C   0  0  0  0  0  0  0  0  0  0  0  0
   28.2806  -19.8683   -6.1110 S   0  0  0  0  0  0  0  0  0  0  0  0
   27.0278  -20.7185   -7.0419 C   0  0  0  0  0  0  0  0  0  0  0  0
   26.7648  -20.3152   -8.4230 C   0  0  0  0  0  0  0  0  0  0  0  0
   25.7251  -20.9044   -9.2624 C   0  0  2  0  0  0  0  0  0  0  0  0
   25.5986  -20.2848  -10.5787 N   0  0  0  0  0  0  0  0  0  0  0  0
   24.3730  -21.0570   -8.7114 C   0  0  0  0  0  0  0  0  0  0  0  0
   23.3782  -20.3776   -9.1385 O   0  0  0  0  0  0  0  0  0  0  0  0
   24.0715  -21.9587   -7.6694 O   0  0  0  0  0  0  0  0  0  0  0  0
  1  2  1  0
  3  2  1  0
  4  3  1  0
  5  4  1  0
  5  1  1  0
  5  6  1  1
  7  6  2  0
  8  9  1  0
  9 10  2  0
 11  9  1  0
 12 11  1  6
 12 13  1  0
 13  6  1  0
 14 15  2  0
 14 12  1  0
 17 16  1  0
 18 17  1  0
 18 19  1  0
 20 19  1  1
 20 22  1  0
 20 21  1  0
 21 14  1  0
 22 24  1  0
 23 22  2  0
M  END
$$$$
