PNM.pdb
     RDKit          3D

 24 24  0  0  1  0  0  0  0  0999 V2000
   28.0852  -20.3484  -15.2155 N   0  0  0  0  0  0  0  0  0  0  0  0
   27.2699  -19.8926  -16.2859 C   0  0  0  0  0  0  0  0  0  0  0  0
   27.3897  -18.3748  -16.3114 C   0  0  0  0  0  0  0  0  0  0  0  0
   28.3560  -18.0226  -15.1981 C   0  0  0  0  0  0  0  0  0  0  0  0
   28.3357  -19.2749  -14.3314 C   0  0  1  0  0  0  0  0  0  0  0  0
   27.3637  -19.1847  -13.2517 C   0  0  0  0  0  0  0  0  0  0  0  0
   27.2457  -18.1805  -12.4914 O   0  0  0  0  0  0  0  0  0  0  0  0
   23.5888  -18.7253  -13.3847 N   0  0  0  0  0  0  0  0  0  0  0  0
   23.2715  -20.0933  -13.1026 C   0  0  0  0  0  0  0  0  0  0  0  0
   22.1559  -20.4948  -13.4839 O   0  0  0  0  0  0  0  0  0  0  0  0
   24.2392  -20.9403  -12.3994 C   0  0  0  0  0  0  0  0  0  0  0  0
   25.4540  -20.1756  -11.9629 C   0  0  2  0  0  0  0  0  0  0  0  0
   26.4656  -20.2679  -12.9948 N   0  0  0  0  0  0  0  0  0  0  0  0
   25.9129  -20.7255  -10.6716 C   0  0  0  0  0  0  0  0  0  0  0  0
   26.4282  -21.8694  -10.6560 O   0  0  0  0  0  0  0  0  0  0  0  0
   29.7771  -18.5362   -5.9122 C   0  0  0  0  0  0  0  0  0  0  0  0
   28.3296  -19.0622   -4.9958 S   0  0  0  0  0  0  0  0  0  0  0  0
   27.1711  -20.0702   -5.8905 C   0  0  0  0  0  0  0  0  0  0  0  0
   26.8945  -19.7681   -7.2946 C   0  0  0  0  0  0  0  0  0  0  0  0
   26.0211  -20.5709   -8.1464 C   0  0  2  0  0  0  0  0  0  0  0  0
   25.7849  -19.9968   -9.4681 N   0  0  0  0  0  0  0  0  0  0  0  0
   24.7256  -21.0119   -7.6154 C   0  0  0  0  0  0  0  0  0  0  0  0
   23.6148  -20.5495   -8.0471 O   0  0  0  0  0  0  0  0  0  0  0  0
   24.6090  -21.9725   -6.5891 O   0  0  0  0  0  0  0  0  0  0  0  0
  1  2  1  0
  3  2  1  0
  4  3  1  0
  5  4  1  0
  5  1  1  0
  5  6  1  1
  7  6  2  0
  8  9  1  0
  9 10  2  0
 11  9  1  0
 12 11  1  6
 12 13  1  0
 13  6  1  0
 14 15  2  0
 14 12  1  0
 17 16  1  0
 18 17  1  0
 18 19  1  0
 20 19  1  1
 20 22  1  0
 20 21  1  0
 21 14  1  0
 22 24  1  0
 23 22  2  0
M  END
$$$$
