WEE.pdb
     RDKit          3D

 33 34  0  0  1  0  0  0  0  0999 V2000
    6.3966  -17.5454   23.9545 N   0  0  0  0  0  0  0  0  0  0  0  0
    7.5346  -16.7052   23.8932 C   0  0  1  0  0  0  0  0  0  0  0  0
    8.0096  -16.1098   25.1723 C   0  0  0  0  0  0  0  0  0  0  0  0
    7.0482  -15.1370   25.6996 C   0  0  0  0  0  0  0  0  0  0  0  0
    5.8536  -15.4774   26.3039 C   0  0  0  0  0  0  0  0  0  0  0  0
    5.2755  -14.3273   26.6687 N   0  0  0  0  0  0  0  0  0  0  0  0
    6.0510  -13.2801   26.3215 C   0  0  0  0  0  0  0  0  0  0  0  0
    5.9154  -11.9120   26.4627 C   0  0  0  0  0  0  0  0  0  0  0  0
    6.8906  -11.0721   25.9943 C   0  0  0  0  0  0  0  0  0  0  0  0
    8.0297  -11.5367   25.3731 C   0  0  0  0  0  0  0  0  0  0  0  0
    8.1725  -12.9068   25.2282 C   0  0  0  0  0  0  0  0  0  0  0  0
    7.1902  -13.7549   25.7008 C   0  0  0  0  0  0  0  0  0  0  0  0
    8.7052  -17.2860   23.1792 C   0  0  0  0  0  0  0  0  0  0  0  0
    8.7956  -18.5281   23.2178 O   0  0  0  0  0  0  0  0  0  0  0  0
    9.6817  -16.5694   22.4901 N   0  0  0  0  0  0  0  0  0  0  0  0
   10.8967  -17.0878   21.9979 C   0  0  1  0  0  0  0  0  0  0  0  0
   11.5362  -16.4844   20.8072 C   0  0  0  0  0  0  0  0  0  0  0  0
   12.8577  -15.8624   21.1008 C   0  0  0  0  0  0  0  0  0  0  0  0
   13.3994  -15.2608   19.8383 C   0  0  0  0  0  0  0  0  0  0  0  0
   12.8168  -15.3293   18.7403 O   0  0  0  0  0  0  0  0  0  0  0  0
   11.8016  -17.4395   23.1016 C   0  0  0  0  0  0  0  0  0  0  0  0
   12.9946  -17.8233   22.8236 O   0  0  0  0  0  0  0  0  0  0  0  0
   14.6172  -14.5775   19.8404 O   0  0  0  0  0  0  0  0  0  0  0  0
   11.4576  -17.3882   24.4648 N   0  0  0  0  0  0  0  0  0  0  0  0
   12.4463  -17.7489   25.4593 C   0  0  1  0  0  0  0  0  0  0  0  0
   12.1808  -16.9303   26.6848 C   0  0  0  0  0  0  0  0  0  0  0  0
   11.8349  -15.5067   26.4416 C   0  0  0  0  0  0  0  0  0  0  0  0
   11.2763  -14.7749   27.5837 C   0  0  0  0  0  0  0  0  0  0  0  0
   10.2848  -15.2457   28.1966 O   0  0  0  0  0  0  0  0  0  0  0  0
   12.2424  -19.2141   25.7335 C   0  0  0  0  0  0  0  0  0  0  0  0
   11.2202  -19.9345   25.1171 O   0  0  0  0  0  0  0  0  0  0  0  0
   11.7894  -13.5689   28.0363 O   0  0  0  0  0  0  0  0  0  0  0  0
   12.9830  -19.8449   26.5267 O   0  0  0  0  0  0  0  0  0  0  0  0
  2  1  1  1
  2  3  1  0
  4  5  2  0
  4  3  1  0
  6  5  1  0
  7 12  2  0
  7  6  1  0
  8  7  1  0
  9 10  1  0
  9  8  2  0
 10 11  2  0
 11 12  1  0
 12  4  1  0
 13  2  1  0
 14 13  2  0
 15 13  1  0
 16 15  1  0
 16 17  1  6
 18 19  1  0
 18 17  1  0
 19 23  1  0
 20 19  2  0
 21 24  1  0
 21 16  1  0
 22 21  2  0
 25 24  1  0
 25 30  1  0
 25 26  1  1
 26 27  1  0
 27 28  1  0
 28 29  2  0
 30 31  1  0
 32 28  1  0
 33 30  2  0
M  END
$$$$
