WEE.pdb
     RDKit          3D

 33 34  0  0  1  0  0  0  0  0999 V2000
    6.7134  -17.6460   24.5302 N   0  0  0  0  0  0  0  0  0  0  0  0
    7.8827  -16.8961   24.2559 C   0  0  1  0  0  0  0  0  0  0  0  0
    8.4041  -16.0270   25.3463 C   0  0  0  0  0  0  0  0  0  0  0  0
    7.3589  -15.1452   25.8743 C   0  0  0  0  0  0  0  0  0  0  0  0
    6.2360  -15.5897   26.5450 C   0  0  0  0  0  0  0  0  0  0  0  0
    5.5446  -14.4963   26.8863 N   0  0  0  0  0  0  0  0  0  0  0  0
    6.1804  -13.3858   26.4611 C   0  0  0  0  0  0  0  0  0  0  0  0
    5.8942  -12.0366   26.5503 C   0  0  0  0  0  0  0  0  0  0  0  0
    6.7474  -11.1149   26.0041 C   0  0  0  0  0  0  0  0  0  0  0  0
    7.9070  -11.4765   25.3529 C   0  0  0  0  0  0  0  0  0  0  0  0
    8.2003  -12.8270   25.2598 C   0  0  0  0  0  0  0  0  0  0  0  0
    7.3413  -13.7574   25.8109 C   0  0  0  0  0  0  0  0  0  0  0  0
    9.0160  -17.6838   23.6970 C   0  0  0  0  0  0  0  0  0  0  0  0
    9.4116  -18.6311   24.4031 O   0  0  0  0  0  0  0  0  0  0  0  0
    9.6526  -17.4511   22.4793 N   0  0  0  0  0  0  0  0  0  0  0  0
   10.9150  -17.9482   22.0965 C   0  0  1  0  0  0  0  0  0  0  0  0
   11.3777  -17.8084   20.6975 C   0  0  0  0  0  0  0  0  0  0  0  0
   11.9363  -16.4610   20.3944 C   0  0  0  0  0  0  0  0  0  0  0  0
   12.3138  -16.4099   18.9438 C   0  0  0  0  0  0  0  0  0  0  0  0
   13.4902  -16.4496   18.5388 O   0  0  0  0  0  0  0  0  0  0  0  0
   11.9210  -17.6779   23.1336 C   0  0  0  0  0  0  0  0  0  0  0  0
   11.7761  -16.6435   23.8798 O   0  0  0  0  0  0  0  0  0  0  0  0
   11.3320  -16.3127   17.9555 O   0  0  0  0  0  0  0  0  0  0  0  0
   13.0519  -18.4781   23.3784 N   0  0  0  0  0  0  0  0  0  0  0  0
   13.7171  -18.3916   24.6616 C   0  0  1  0  0  0  0  0  0  0  0  0
   12.7437  -18.8315   25.7111 C   0  0  0  0  0  0  0  0  0  0  0  0
   13.2800  -18.8993   27.0942 C   0  0  0  0  0  0  0  0  0  0  0  0
   12.3485  -19.3714   28.1244 C   0  0  0  0  0  0  0  0  0  0  0  0
   12.7408  -19.4754   29.3142 O   0  0  0  0  0  0  0  0  0  0  0  0
   14.8898  -19.3310   24.5845 C   0  0  0  0  0  0  0  0  0  0  0  0
   16.0420  -19.1202   25.3406 O   0  0  0  0  0  0  0  0  0  0  0  0
   11.0325  -19.7166   27.8565 O   0  0  0  0  0  0  0  0  0  0  0  0
   14.8774  -20.3397   23.8377 O   0  0  0  0  0  0  0  0  0  0  0  0
  2  1  1  1
  2  3  1  0
  4  5  2  0
  4  3  1  0
  6  5  1  0
  7 12  2  0
  7  6  1  0
  8  7  1  0
  9 10  1  0
  9  8  2  0
 10 11  2  0
 11 12  1  0
 12  4  1  0
 13  2  1  0
 14 13  2  0
 15 13  1  0
 16 15  1  0
 16 17  1  6
 18 19  1  0
 18 17  1  0
 19 23  1  0
 20 19  2  0
 21 24  1  0
 21 16  1  0
 22 21  2  0
 25 24  1  0
 25 30  1  0
 25 26  1  1
 26 27  1  0
 27 28  1  0
 28 29  2  0
 30 31  1  0
 32 28  1  0
 33 30  2  0
M  END
$$$$
