WEE.pdb
     RDKit          3D

 33 34  0  0  1  0  0  0  0  0999 V2000
   10.0811  -17.6126   20.3697 N   0  0  0  0  0  0  0  0  0  0  0  0
   10.6867  -16.3352   20.2897 C   0  0  1  0  0  0  0  0  0  0  0  0
   10.3688  -15.3633   21.3717 C   0  0  0  0  0  0  0  0  0  0  0  0
    9.0372  -14.7777   21.1910 C   0  0  0  0  0  0  0  0  0  0  0  0
    7.9184  -15.1619   21.9044 C   0  0  0  0  0  0  0  0  0  0  0  0
    6.9151  -14.3872   21.4763 N   0  0  0  0  0  0  0  0  0  0  0  0
    7.3513  -13.5344   20.5271 C   0  0  0  0  0  0  0  0  0  0  0  0
    6.7312  -12.5530   19.7770 C   0  0  0  0  0  0  0  0  0  0  0  0
    7.4486  -11.8323   18.8596 C   0  0  0  0  0  0  0  0  0  0  0  0
    8.7931  -12.0435   18.6423 C   0  0  0  0  0  0  0  0  0  0  0  0
    9.4211  -13.0254   19.3906 C   0  0  0  0  0  0  0  0  0  0  0  0
    8.6991  -13.7523   20.3166 C   0  0  0  0  0  0  0  0  0  0  0  0
   12.1620  -16.3522   20.0886 C   0  0  0  0  0  0  0  0  0  0  0  0
   12.7793  -17.2350   20.7147 O   0  0  0  0  0  0  0  0  0  0  0  0
   12.8876  -15.4816   19.2777 N   0  0  0  0  0  0  0  0  0  0  0  0
   14.2870  -15.4809   19.1074 C   0  0  1  0  0  0  0  0  0  0  0  0
   14.8934  -14.8274   17.9259 C   0  0  0  0  0  0  0  0  0  0  0  0
   16.3811  -14.9053   17.9093 C   0  0  0  0  0  0  0  0  0  0  0  0
   16.8836  -14.2736   16.6453 C   0  0  0  0  0  0  0  0  0  0  0  0
   17.9933  -13.7178   16.5498 O   0  0  0  0  0  0  0  0  0  0  0  0
   14.9705  -15.2499   20.3881 C   0  0  0  0  0  0  0  0  0  0  0  0
   14.8021  -14.1254   20.9839 O   0  0  0  0  0  0  0  0  0  0  0  0
   16.1045  -14.2821   15.4864 O   0  0  0  0  0  0  0  0  0  0  0  0
   15.8109  -16.1810   21.0253 N   0  0  0  0  0  0  0  0  0  0  0  0
   16.2969  -15.8999   22.3600 C   0  0  1  0  0  0  0  0  0  0  0  0
   16.0340  -17.1078   23.2054 C   0  0  0  0  0  0  0  0  0  0  0  0
   16.5103  -17.0230   24.6094 C   0  0  0  0  0  0  0  0  0  0  0  0
   16.1401  -18.1407   25.4842 C   0  0  0  0  0  0  0  0  0  0  0  0
   16.6484  -18.2250   26.6309 O   0  0  0  0  0  0  0  0  0  0  0  0
   17.7738  -15.6502   22.2189 C   0  0  0  0  0  0  0  0  0  0  0  0
   18.4607  -15.9872   21.0534 O   0  0  0  0  0  0  0  0  0  0  0  0
   15.2430  -19.1304   25.1122 O   0  0  0  0  0  0  0  0  0  0  0  0
   18.4448  -15.1296   23.1430 O   0  0  0  0  0  0  0  0  0  0  0  0
  2  1  1  1
  2  3  1  0
  4  5  2  0
  4  3  1  0
  6  5  1  0
  7 12  2  0
  7  6  1  0
  8  7  1  0
  9 10  1  0
  9  8  2  0
 10 11  2  0
 11 12  1  0
 12  4  1  0
 13  2  1  0
 14 13  2  0
 15 13  1  0
 16 15  1  0
 16 17  1  6
 18 19  1  0
 18 17  1  0
 19 23  1  0
 20 19  2  0
 21 24  1  0
 21 16  1  0
 22 21  2  0
 25 24  1  0
 25 30  1  0
 25 26  1  1
 26 27  1  0
 27 28  1  0
 28 29  2  0
 30 31  1  0
 32 28  1  0
 33 30  2  0
M  END
$$$$
