WEE.pdb
     RDKit          3D

 33 34  0  0  1  0  0  0  0  0999 V2000
    6.4453  -17.4756   24.7681 N   0  0  0  0  0  0  0  0  0  0  0  0
    7.3688  -16.4708   24.3906 C   0  0  1  0  0  0  0  0  0  0  0  0
    8.2398  -15.9115   25.4605 C   0  0  0  0  0  0  0  0  0  0  0  0
    7.4974  -14.9947   26.3306 C   0  0  0  0  0  0  0  0  0  0  0  0
    6.8854  -15.3711   27.5105 C   0  0  0  0  0  0  0  0  0  0  0  0
    6.3406  -14.2613   28.0221 N   0  0  0  0  0  0  0  0  0  0  0  0
    6.5815  -13.2054   27.2187 C   0  0  0  0  0  0  0  0  0  0  0  0
    6.2436  -11.8670   27.2852 C   0  0  0  0  0  0  0  0  0  0  0  0
    6.6339  -11.0088   26.2917 C   0  0  0  0  0  0  0  0  0  0  0  0
    7.3659  -11.4257   25.2009 C   0  0  0  0  0  0  0  0  0  0  0  0
    7.7083  -12.7658   25.1277 C   0  0  0  0  0  0  0  0  0  0  0  0
    7.3161  -13.6320   26.1292 C   0  0  0  0  0  0  0  0  0  0  0  0
    8.2207  -16.8109   23.2176 C   0  0  0  0  0  0  0  0  0  0  0  0
    8.7636  -17.9318   23.2550 O   0  0  0  0  0  0  0  0  0  0  0  0
    8.4532  -15.9962   22.1112 N   0  0  0  0  0  0  0  0  0  0  0  0
    9.3286  -16.2797   21.0432 C   0  0  1  0  0  0  0  0  0  0  0  0
    9.1729  -15.5821   19.7471 C   0  0  0  0  0  0  0  0  0  0  0  0
    7.8158  -15.7402   19.1532 C   0  0  0  0  0  0  0  0  0  0  0  0
    7.7678  -17.0339   18.3959 C   0  0  0  0  0  0  0  0  0  0  0  0
    8.5671  -17.3279   17.4880 O   0  0  0  0  0  0  0  0  0  0  0  0
   10.7086  -16.4364   21.5244 C   0  0  0  0  0  0  0  0  0  0  0  0
   11.0982  -15.7304   22.5232 O   0  0  0  0  0  0  0  0  0  0  0  0
    6.7950  -17.9929   18.6857 O   0  0  0  0  0  0  0  0  0  0  0  0
   11.6549  -17.3154   20.9667 N   0  0  0  0  0  0  0  0  0  0  0  0
   12.9932  -17.3588   21.5179 C   0  0  1  0  0  0  0  0  0  0  0  0
   13.1183  -18.6211   22.3139 C   0  0  0  0  0  0  0  0  0  0  0  0
   12.7393  -18.5156   23.7459 C   0  0  0  0  0  0  0  0  0  0  0  0
   12.9352  -19.7233   24.5552 C   0  0  0  0  0  0  0  0  0  0  0  0
   11.9361  -20.3163   25.0355 O   0  0  0  0  0  0  0  0  0  0  0  0
   13.9269  -17.3691   20.3383 C   0  0  0  0  0  0  0  0  0  0  0  0
   15.3012  -17.1958   20.4965 O   0  0  0  0  0  0  0  0  0  0  0  0
   14.1844  -20.2602   24.8267 O   0  0  0  0  0  0  0  0  0  0  0  0
   13.5065  -17.5337   19.1671 O   0  0  0  0  0  0  0  0  0  0  0  0
  2  1  1  1
  2  3  1  0
  4  5  2  0
  4  3  1  0
  6  5  1  0
  7 12  2  0
  7  6  1  0
  8  7  1  0
  9 10  1  0
  9  8  2  0
 10 11  2  0
 11 12  1  0
 12  4  1  0
 13  2  1  0
 14 13  2  0
 15 13  1  0
 16 15  1  0
 16 17  1  6
 18 19  1  0
 18 17  1  0
 19 23  1  0
 20 19  2  0
 21 24  1  0
 21 16  1  0
 22 21  2  0
 25 24  1  0
 25 30  1  0
 25 26  1  6
 26 27  1  0
 27 28  1  0
 28 29  2  0
 30 31  1  0
 32 28  1  0
 33 30  2  0
M  END
$$$$
