WEE.pdb
     RDKit          3D

 33 34  0  0  1  0  0  0  0  0999 V2000
    6.5546  -17.7273   24.3908 N   0  0  0  0  0  0  0  0  0  0  0  0
    7.5194  -16.8699   23.8087 C   0  0  1  0  0  0  0  0  0  0  0  0
    8.1140  -15.8225   24.6837 C   0  0  0  0  0  0  0  0  0  0  0  0
    7.0804  -14.9623   25.2672 C   0  0  0  0  0  0  0  0  0  0  0  0
    5.9167  -15.4319   25.8447 C   0  0  0  0  0  0  0  0  0  0  0  0
    5.2513  -14.3553   26.2786 N   0  0  0  0  0  0  0  0  0  0  0  0
    5.9424  -13.2313   26.0004 C   0  0  0  0  0  0  0  0  0  0  0  0
    5.7008  -11.8894   26.2264 C   0  0  0  0  0  0  0  0  0  0  0  0
    6.6071  -10.9485   25.8151 C   0  0  0  0  0  0  0  0  0  0  0  0
    7.7782  -11.2833   25.1702 C   0  0  0  0  0  0  0  0  0  0  0  0
    8.0270  -12.6263   24.9404 C   0  0  0  0  0  0  0  0  0  0  0  0
    7.1144  -13.5762   25.3554 C   0  0  0  0  0  0  0  0  0  0  0  0
    8.6217  -17.5643   23.0875 C   0  0  0  0  0  0  0  0  0  0  0  0
    9.0225  -18.6222   23.6097 O   0  0  0  0  0  0  0  0  0  0  0  0
    9.2246  -17.1358   21.9065 N   0  0  0  0  0  0  0  0  0  0  0  0
   10.5532  -17.3957   21.5132 C   0  0  1  0  0  0  0  0  0  0  0  0
   10.9672  -17.1926   20.1068 C   0  0  0  0  0  0  0  0  0  0  0  0
    9.9683  -17.6934   19.1214 C   0  0  0  0  0  0  0  0  0  0  0  0
   10.1310  -16.9318   17.8396 C   0  0  0  0  0  0  0  0  0  0  0  0
    9.3755  -17.0680   16.8597 O   0  0  0  0  0  0  0  0  0  0  0  0
   11.5025  -16.9290   22.5339 C   0  0  0  0  0  0  0  0  0  0  0  0
   11.5656  -15.6727   22.7900 O   0  0  0  0  0  0  0  0  0  0  0  0
   11.1682  -16.0096   17.6859 O   0  0  0  0  0  0  0  0  0  0  0  0
   12.3641  -17.7656   23.2667 N   0  0  0  0  0  0  0  0  0  0  0  0
   13.0298  -17.2429   24.4415 C   0  0  1  0  0  0  0  0  0  0  0  0
   12.4947  -17.9751   25.6332 C   0  0  0  0  0  0  0  0  0  0  0  0
   13.1686  -17.6789   26.9228 C   0  0  0  0  0  0  0  0  0  0  0  0
   12.6394  -18.3738   28.1013 C   0  0  0  0  0  0  0  0  0  0  0  0
   12.6625  -19.6300   28.1425 O   0  0  0  0  0  0  0  0  0  0  0  0
   14.4948  -17.5246   24.2472 C   0  0  0  0  0  0  0  0  0  0  0  0
   14.9539  -18.2795   23.1687 O   0  0  0  0  0  0  0  0  0  0  0  0
   12.1040  -17.7115   29.1957 O   0  0  0  0  0  0  0  0  0  0  0  0
   15.3603  -17.0922   25.0468 O   0  0  0  0  0  0  0  0  0  0  0  0
  2  1  1  1
  2  3  1  0
  4  5  2  0
  4  3  1  0
  6  5  1  0
  7 12  2  0
  7  6  1  0
  8  7  1  0
  9 10  1  0
  9  8  2  0
 10 11  2  0
 11 12  1  0
 12  4  1  0
 13  2  1  0
 14 13  2  0
 15 13  1  0
 16 15  1  0
 16 17  1  6
 18 19  1  0
 18 17  1  0
 19 23  1  0
 20 19  2  0
 21 24  1  0
 21 16  1  0
 22 21  2  0
 25 24  1  0
 25 30  1  0
 25 26  1  1
 26 27  1  0
 27 28  1  0
 28 29  2  0
 30 31  1  0
 32 28  1  0
 33 30  2  0
M  END
$$$$
