WEE.pdb
     RDKit          3D

 33 34  0  0  1  0  0  0  0  0999 V2000
    6.1947  -17.9873   24.1434 N   0  0  0  0  0  0  0  0  0  0  0  0
    6.8821  -16.8096   23.7623 C   0  0  1  0  0  0  0  0  0  0  0  0
    7.7297  -16.1529   24.7950 C   0  0  0  0  0  0  0  0  0  0  0  0
    6.9616  -15.1821   25.5799 C   0  0  0  0  0  0  0  0  0  0  0  0
    6.0115  -15.5255   26.5221 C   0  0  0  0  0  0  0  0  0  0  0  0
    5.5569  -14.3760   27.0340 N   0  0  0  0  0  0  0  0  0  0  0  0
    6.1768  -13.3265   26.4573 C   0  0  0  0  0  0  0  0  0  0  0  0
    6.0729  -11.9579   26.6197 C   0  0  0  0  0  0  0  0  0  0  0  0
    6.8490  -11.1153   25.8689 C   0  0  0  0  0  0  0  0  0  0  0  0
    7.7514  -11.5776   24.9354 C   0  0  0  0  0  0  0  0  0  0  0  0
    7.8609  -12.9481   24.7674 C   0  0  0  0  0  0  0  0  0  0  0  0
    7.0796  -13.7988   25.5244 C   0  0  0  0  0  0  0  0  0  0  0  0
    7.6724  -16.9237   22.5054 C   0  0  0  0  0  0  0  0  0  0  0  0
    7.9965  -18.0814   22.1780 O   0  0  0  0  0  0  0  0  0  0  0  0
    8.0681  -15.8663   21.6884 N   0  0  0  0  0  0  0  0  0  0  0  0
    8.7828  -15.9772   20.4784 C   0  0  1  0  0  0  0  0  0  0  0  0
    8.4094  -15.1437   19.3136 C   0  0  0  0  0  0  0  0  0  0  0  0
    9.3065  -15.3371   18.1400 C   0  0  0  0  0  0  0  0  0  0  0  0
    8.4637  -15.5288   16.9144 C   0  0  0  0  0  0  0  0  0  0  0  0
    7.8657  -16.5884   16.6513 O   0  0  0  0  0  0  0  0  0  0  0  0
   10.2242  -16.1142   20.7319 C   0  0  0  0  0  0  0  0  0  0  0  0
   11.0239  -16.1792   19.7300 O   0  0  0  0  0  0  0  0  0  0  0  0
    8.3089  -14.4955   15.9878 O   0  0  0  0  0  0  0  0  0  0  0  0
   10.8084  -16.1811   22.0100 N   0  0  0  0  0  0  0  0  0  0  0  0
   12.2427  -16.3420   22.1261 C   0  0  1  0  0  0  0  0  0  0  0  0
   12.5893  -16.3091   23.5826 C   0  0  0  0  0  0  0  0  0  0  0  0
   12.0104  -17.4028   24.4036 C   0  0  0  0  0  0  0  0  0  0  0  0
   12.3358  -17.3766   25.8338 C   0  0  0  0  0  0  0  0  0  0  0  0
   13.1494  -16.5227   26.2689 O   0  0  0  0  0  0  0  0  0  0  0  0
   12.5588  -17.6847   21.5255 C   0  0  0  0  0  0  0  0  0  0  0  0
   13.8743  -18.1123   21.3509 O   0  0  0  0  0  0  0  0  0  0  0  0
   11.7863  -18.2574   26.7530 O   0  0  0  0  0  0  0  0  0  0  0  0
   11.6526  -18.4717   21.1585 O   0  0  0  0  0  0  0  0  0  0  0  0
  2  1  1  1
  2  3  1  0
  4  5  2  0
  4  3  1  0
  6  5  1  0
  7 12  2  0
  7  6  1  0
  8  7  1  0
  9 10  1  0
  9  8  2  0
 10 11  2  0
 11 12  1  0
 12  4  1  0
 13  2  1  0
 14 13  2  0
 15 13  1  0
 16 15  1  0
 16 17  1  6
 18 19  1  0
 18 17  1  0
 19 23  1  0
 20 19  2  0
 21 24  1  0
 21 16  1  0
 22 21  2  0
 25 24  1  0
 25 30  1  0
 25 26  1  1
 26 27  1  0
 27 28  1  0
 28 29  2  0
 30 31  1  0
 32 28  1  0
 33 30  2  0
M  END
$$$$
