WEE.pdb
     RDKit          3D

 33 34  0  0  1  0  0  0  0  0999 V2000
    7.0911  -17.6685   24.7314 N   0  0  0  0  0  0  0  0  0  0  0  0
    7.9316  -16.6846   24.1566 C   0  0  1  0  0  0  0  0  0  0  0  0
    8.4315  -15.6084   25.0555 C   0  0  0  0  0  0  0  0  0  0  0  0
    7.3265  -14.8445   25.6421 C   0  0  0  0  0  0  0  0  0  0  0  0
    6.1551  -15.4095   26.1076 C   0  0  0  0  0  0  0  0  0  0  0  0
    5.4156  -14.4020   26.5853 N   0  0  0  0  0  0  0  0  0  0  0  0
    6.0675  -13.2304   26.4412 C   0  0  0  0  0  0  0  0  0  0  0  0
    5.7500  -11.9234   26.7592 C   0  0  0  0  0  0  0  0  0  0  0  0
    6.6328  -10.9139   26.4811 C   0  0  0  0  0  0  0  0  0  0  0  0
    7.8535  -11.1438   25.8842 C   0  0  0  0  0  0  0  0  0  0  0  0
    8.1786  -12.4513   25.5628 C   0  0  0  0  0  0  0  0  0  0  0  0
    7.2896  -13.4703   25.8434 C   0  0  0  0  0  0  0  0  0  0  0  0
    9.0812  -17.2202   23.3763 C   0  0  0  0  0  0  0  0  0  0  0  0
    9.7063  -18.1546   23.9135 O   0  0  0  0  0  0  0  0  0  0  0  0
    9.5024  -16.7705   22.1263 N   0  0  0  0  0  0  0  0  0  0  0  0
   10.7170  -17.1031   21.4926 C   0  0  1  0  0  0  0  0  0  0  0  0
   10.9093  -16.8163   20.0533 C   0  0  0  0  0  0  0  0  0  0  0  0
   12.1541  -17.4151   19.4953 C   0  0  0  0  0  0  0  0  0  0  0  0
   12.1849  -17.1731   18.0155 C   0  0  0  0  0  0  0  0  0  0  0  0
   12.4066  -16.0589   17.5067 O   0  0  0  0  0  0  0  0  0  0  0  0
   11.8620  -16.8026   22.3640 C   0  0  0  0  0  0  0  0  0  0  0  0
   11.9314  -15.6455   22.9154 O   0  0  0  0  0  0  0  0  0  0  0  0
   11.9595  -18.2189   17.1180 O   0  0  0  0  0  0  0  0  0  0  0  0
   12.9082  -17.6995   22.6473 N   0  0  0  0  0  0  0  0  0  0  0  0
   13.9655  -17.2930   23.5493 C   0  0  1  0  0  0  0  0  0  0  0  0
   14.3580  -18.4887   24.3609 C   0  0  0  0  0  0  0  0  0  0  0  0
   13.3289  -18.9846   25.3097 C   0  0  0  0  0  0  0  0  0  0  0  0
   13.6350  -20.2473   25.9908 C   0  0  0  0  0  0  0  0  0  0  0  0
   12.6954  -20.9649   26.4180 O   0  0  0  0  0  0  0  0  0  0  0  0
   15.1021  -16.8360   22.6759 C   0  0  0  0  0  0  0  0  0  0  0  0
   16.2397  -16.2376   23.2159 O   0  0  0  0  0  0  0  0  0  0  0  0
   14.9279  -20.7052   26.1946 O   0  0  0  0  0  0  0  0  0  0  0  0
   15.0713  -16.9748   21.4288 O   0  0  0  0  0  0  0  0  0  0  0  0
  2  1  1  1
  2  3  1  0
  4  5  2  0
  4  3  1  0
  6  5  1  0
  7 12  2  0
  7  6  1  0
  8  7  1  0
  9 10  1  0
  9  8  2  0
 10 11  2  0
 11 12  1  0
 12  4  1  0
 13  2  1  0
 14 13  2  0
 15 13  1  0
 16 15  1  0
 16 17  1  6
 18 19  1  0
 18 17  1  0
 19 23  1  0
 20 19  2  0
 21 24  1  0
 21 16  1  0
 22 21  2  0
 25 24  1  0
 25 30  1  0
 25 26  1  6
 26 27  1  0
 27 28  1  0
 28 29  2  0
 30 31  1  0
 32 28  1  0
 33 30  2  0
M  END
$$$$
