WEE.pdb
     RDKit          3D

 33 34  0  0  1  0  0  0  0  0999 V2000
    6.7865  -18.1677   25.3794 N   0  0  0  0  0  0  0  0  0  0  0  0
    7.5004  -17.2716   24.5473 C   0  0  1  0  0  0  0  0  0  0  0  0
    8.1211  -16.0862   25.1998 C   0  0  0  0  0  0  0  0  0  0  0  0
    7.1119  -15.0909   25.5732 C   0  0  0  0  0  0  0  0  0  0  0  0
    5.7989  -15.3947   25.8763 C   0  0  0  0  0  0  0  0  0  0  0  0
    5.2071  -14.2359   26.1879 N   0  0  0  0  0  0  0  0  0  0  0  0
    6.0869  -13.2183   26.0945 C   0  0  0  0  0  0  0  0  0  0  0  0
    5.9855  -11.8554   26.3008 C   0  0  0  0  0  0  0  0  0  0  0  0
    7.0774  -11.0490   26.1181 C   0  0  0  0  0  0  0  0  0  0  0  0
    8.3036  -11.5430   25.7285 C   0  0  0  0  0  0  0  0  0  0  0  0
    8.4126  -12.9080   25.5202 C   0  0  0  0  0  0  0  0  0  0  0  0
    7.3126  -13.7224   25.7048 C   0  0  0  0  0  0  0  0  0  0  0  0
    8.5149  -17.9096   23.6636 C   0  0  0  0  0  0  0  0  0  0  0  0
    8.8328  -19.0759   23.9655 O   0  0  0  0  0  0  0  0  0  0  0  0
    9.1212  -17.3210   22.5555 N   0  0  0  0  0  0  0  0  0  0  0  0
   10.0331  -17.9461   21.6808 C   0  0  1  0  0  0  0  0  0  0  0  0
    9.9944  -17.6533   20.2305 C   0  0  0  0  0  0  0  0  0  0  0  0
   10.9767  -18.4499   19.4431 C   0  0  0  0  0  0  0  0  0  0  0  0
   10.8078  -18.1238   17.9890 C   0  0  0  0  0  0  0  0  0  0  0  0
   11.1232  -18.9018   17.0698 O   0  0  0  0  0  0  0  0  0  0  0  0
   11.3716  -18.0189   22.2839 C   0  0  0  0  0  0  0  0  0  0  0  0
   12.2320  -18.8284   21.7818 O   0  0  0  0  0  0  0  0  0  0  0  0
   10.2733  -16.8964   17.5919 O   0  0  0  0  0  0  0  0  0  0  0  0
   11.7931  -17.2572   23.3891 N   0  0  0  0  0  0  0  0  0  0  0  0
   13.1128  -17.4800   23.9417 C   0  0  1  0  0  0  0  0  0  0  0  0
   13.8826  -16.2017   23.8149 C   0  0  0  0  0  0  0  0  0  0  0  0
   14.2086  -15.7852   22.4273 C   0  0  0  0  0  0  0  0  0  0  0  0
   15.5878  -15.3433   22.1941 C   0  0  0  0  0  0  0  0  0  0  0  0
   16.1566  -14.6123   23.0442 O   0  0  0  0  0  0  0  0  0  0  0  0
   12.9012  -17.8424   25.3865 C   0  0  0  0  0  0  0  0  0  0  0  0
   13.9550  -18.2757   26.1899 O   0  0  0  0  0  0  0  0  0  0  0  0
   16.3160  -15.6926   21.0670 O   0  0  0  0  0  0  0  0  0  0  0  0
   11.7697  -17.7693   25.9247 O   0  0  0  0  0  0  0  0  0  0  0  0
  2  1  1  1
  2  3  1  0
  4  5  2  0
  4  3  1  0
  6  5  1  0
  7 12  2  0
  7  6  1  0
  8  7  1  0
  9 10  1  0
  9  8  2  0
 10 11  2  0
 11 12  1  0
 12  4  1  0
 13  2  1  0
 14 13  2  0
 15 13  1  0
 16 15  1  0
 16 17  1  6
 18 19  1  0
 18 17  1  0
 19 23  1  0
 20 19  2  0
 21 24  1  0
 21 16  1  0
 22 21  2  0
 25 24  1  0
 25 30  1  0
 25 26  1  1
 26 27  1  0
 27 28  1  0
 28 29  2  0
 30 31  1  0
 32 28  1  0
 33 30  2  0
M  END
$$$$
