WEE.pdb
     RDKit          3D

 33 34  0  0  1  0  0  0  0  0999 V2000
    8.9643  -16.5609   25.0279 N   0  0  0  0  0  0  0  0  0  0  0  0
    8.2349  -16.8675   23.8537 C   0  0  1  0  0  0  0  0  0  0  0  0
    7.1870  -15.8978   23.4318 C   0  0  0  0  0  0  0  0  0  0  0  0
    6.7585  -15.0525   24.5500 C   0  0  0  0  0  0  0  0  0  0  0  0
    5.8857  -15.4606   25.5399 C   0  0  0  0  0  0  0  0  0  0  0  0
    5.7644  -14.4289   26.3831 N   0  0  0  0  0  0  0  0  0  0  0  0
    6.5199  -13.3915   25.9689 C   0  0  0  0  0  0  0  0  0  0  0  0
    6.7409  -12.1213   26.4668 C   0  0  0  0  0  0  0  0  0  0  0  0
    7.5795  -11.2610   25.8091 C   0  0  0  0  0  0  0  0  0  0  0  0
    8.2304  -11.6092   24.6453 C   0  0  0  0  0  0  0  0  0  0  0  0
    8.0138  -12.8808   24.1406 C   0  0  0  0  0  0  0  0  0  0  0  0
    7.1690  -13.7495   24.8032 C   0  0  0  0  0  0  0  0  0  0  0  0
    9.0691  -17.2070   22.6679 C   0  0  0  0  0  0  0  0  0  0  0  0
    8.6565  -18.1568   21.9751 O   0  0  0  0  0  0  0  0  0  0  0  0
   10.2438  -16.5640   22.2824 N   0  0  0  0  0  0  0  0  0  0  0  0
   11.5146  -17.1625   22.1629 C   0  0  1  0  0  0  0  0  0  0  0  0
   12.3922  -16.8255   21.0196 C   0  0  0  0  0  0  0  0  0  0  0  0
   13.6988  -17.5405   21.0502 C   0  0  0  0  0  0  0  0  0  0  0  0
   14.4877  -17.1569   19.8337 C   0  0  0  0  0  0  0  0  0  0  0  0
   14.1854  -17.5119   18.6794 O   0  0  0  0  0  0  0  0  0  0  0  0
   12.1759  -17.2540   23.4724 C   0  0  0  0  0  0  0  0  0  0  0  0
   12.8329  -16.2395   23.9047 O   0  0  0  0  0  0  0  0  0  0  0  0
   15.6295  -16.3611   19.9471 O   0  0  0  0  0  0  0  0  0  0  0  0
   12.1455  -18.3869   24.3061 N   0  0  0  0  0  0  0  0  0  0  0  0
   12.5998  -18.2711   25.6761 C   0  0  1  0  0  0  0  0  0  0  0  0
   11.4843  -18.7240   26.5667 C   0  0  0  0  0  0  0  0  0  0  0  0
   11.8171  -18.8224   28.0106 C   0  0  0  0  0  0  0  0  0  0  0  0
   10.7419  -19.2955   28.8891 C   0  0  0  0  0  0  0  0  0  0  0  0
   10.9303  -19.3390   30.1313 O   0  0  0  0  0  0  0  0  0  0  0  0
   13.7909  -19.1824   25.7959 C   0  0  0  0  0  0  0  0  0  0  0  0
   14.1384  -20.0641   24.7733 O   0  0  0  0  0  0  0  0  0  0  0  0
    9.5036  -19.7059   28.4192 O   0  0  0  0  0  0  0  0  0  0  0  0
   14.5176  -19.1851   26.8193 O   0  0  0  0  0  0  0  0  0  0  0  0
  2  1  1  1
  2  3  1  0
  4  5  2  0
  4  3  1  0
  6  5  1  0
  7 12  2  0
  7  6  1  0
  8  7  1  0
  9 10  1  0
  9  8  2  0
 10 11  2  0
 11 12  1  0
 12  4  1  0
 13  2  1  0
 14 13  2  0
 15 13  1  0
 16 15  1  0
 16 17  1  6
 18 19  1  0
 18 17  1  0
 19 23  1  0
 20 19  2  0
 21 24  1  0
 21 16  1  0
 22 21  2  0
 25 24  1  0
 25 30  1  0
 25 26  1  1
 26 27  1  0
 27 28  1  0
 28 29  2  0
 30 31  1  0
 32 28  1  0
 33 30  2  0
M  END
$$$$
