WEE.pdb
     RDKit          3D

 33 34  0  0  1  0  0  0  0  0999 V2000
    6.9048  -17.5708   25.0771 N   0  0  0  0  0  0  0  0  0  0  0  0
    7.7064  -16.6712   24.3334 C   0  0  1  0  0  0  0  0  0  0  0  0
    8.2147  -15.4662   25.0446 C   0  0  0  0  0  0  0  0  0  0  0  0
    7.1170  -14.6717   25.6036 C   0  0  0  0  0  0  0  0  0  0  0  0
    5.9835  -15.2127   26.1787 C   0  0  0  0  0  0  0  0  0  0  0  0
    5.2393  -14.1788   26.5877 N   0  0  0  0  0  0  0  0  0  0  0  0
    5.8521  -13.0135   26.2960 C   0  0  0  0  0  0  0  0  0  0  0  0
    5.5140  -11.6885   26.4963 C   0  0  0  0  0  0  0  0  0  0  0  0
    6.3558  -10.6929   26.0768 C   0  0  0  0  0  0  0  0  0  0  0  0
    7.5541  -10.9547   25.4484 C   0  0  0  0  0  0  0  0  0  0  0  0
    7.8995  -12.2804   25.2445 C   0  0  0  0  0  0  0  0  0  0  0  0
    7.0520  -13.2853   25.6678 C   0  0  0  0  0  0  0  0  0  0  0  0
    8.8397  -17.3001   23.6004 C   0  0  0  0  0  0  0  0  0  0  0  0
    9.6460  -17.9387   24.3037 O   0  0  0  0  0  0  0  0  0  0  0  0
    9.0644  -17.2323   22.2267 N   0  0  0  0  0  0  0  0  0  0  0  0
   10.2628  -17.5704   21.5658 C   0  0  1  0  0  0  0  0  0  0  0  0
   10.2762  -17.7595   20.0979 C   0  0  0  0  0  0  0  0  0  0  0  0
   10.2699  -16.4773   19.3393 C   0  0  0  0  0  0  0  0  0  0  0  0
   10.3241  -16.7839   17.8723 C   0  0  0  0  0  0  0  0  0  0  0  0
   10.9814  -16.1137   17.0548 O   0  0  0  0  0  0  0  0  0  0  0  0
   11.3984  -16.8236   22.1256 C   0  0  0  0  0  0  0  0  0  0  0  0
   11.2251  -15.5973   22.4628 O   0  0  0  0  0  0  0  0  0  0  0  0
    9.6182  -17.8671   17.3446 O   0  0  0  0  0  0  0  0  0  0  0  0
   12.6852  -17.3562   22.3250 N   0  0  0  0  0  0  0  0  0  0  0  0
   13.7312  -16.5042   22.8509 C   0  0  1  0  0  0  0  0  0  0  0  0
   14.1157  -17.0322   24.1985 C   0  0  0  0  0  0  0  0  0  0  0  0
   13.7047  -18.4313   24.4794 C   0  0  0  0  0  0  0  0  0  0  0  0
   14.1680  -18.9962   25.7514 C   0  0  0  0  0  0  0  0  0  0  0  0
   14.9485  -18.3301   26.4778 O   0  0  0  0  0  0  0  0  0  0  0  0
   14.8774  -16.6095   21.8821 C   0  0  0  0  0  0  0  0  0  0  0  0
   16.0317  -15.8426   22.0343 O   0  0  0  0  0  0  0  0  0  0  0  0
   13.7869  -20.2484   26.2090 O   0  0  0  0  0  0  0  0  0  0  0  0
   14.8400  -17.3905   20.9002 O   0  0  0  0  0  0  0  0  0  0  0  0
  2  1  1  1
  2  3  1  0
  4  5  2  0
  4  3  1  0
  6  5  1  0
  7 12  2  0
  7  6  1  0
  8  7  1  0
  9 10  1  0
  9  8  2  0
 10 11  2  0
 11 12  1  0
 12  4  1  0
 13  2  1  0
 14 13  2  0
 15 13  1  0
 16 15  1  0
 16 17  1  6
 18 19  1  0
 18 17  1  0
 19 23  1  0
 20 19  2  0
 21 24  1  0
 21 16  1  0
 22 21  2  0
 25 24  1  0
 25 30  1  0
 25 26  1  1
 26 27  1  0
 27 28  1  0
 28 29  2  0
 30 31  1  0
 32 28  1  0
 33 30  2  0
M  END
$$$$
