WEE.pdb
     RDKit          3D

 33 34  0  0  1  0  0  0  0  0999 V2000
    8.5640  -15.1839   21.6750 N   0  0  0  0  0  0  0  0  0  0  0  0
    8.3575  -15.6923   22.9803 C   0  0  1  0  0  0  0  0  0  0  0  0
    6.9505  -15.9407   23.3983 C   0  0  0  0  0  0  0  0  0  0  0  0
    6.5144  -14.9747   24.4110 C   0  0  0  0  0  0  0  0  0  0  0  0
    5.2336  -14.9160   24.9252 C   0  0  0  0  0  0  0  0  0  0  0  0
    5.2370  -13.9317   25.8313 N   0  0  0  0  0  0  0  0  0  0  0  0
    6.4599  -13.3690   25.9102 C   0  0  0  0  0  0  0  0  0  0  0  0
    6.9818  -12.3374   26.6677 C   0  0  0  0  0  0  0  0  0  0  0  0
    8.2945  -11.9742   26.5236 C   0  0  0  0  0  0  0  0  0  0  0  0
    9.1419  -12.6032   25.6373 C   0  0  0  0  0  0  0  0  0  0  0  0
    8.6258  -13.6381   24.8750 C   0  0  0  0  0  0  0  0  0  0  0  0
    7.3025  -14.0059   25.0199 C   0  0  0  0  0  0  0  0  0  0  0  0
    9.1705  -16.8923   23.3217 C   0  0  0  0  0  0  0  0  0  0  0  0
   10.3568  -16.8631   22.9421 O   0  0  0  0  0  0  0  0  0  0  0  0
    8.7212  -18.0156   24.0133 N   0  0  0  0  0  0  0  0  0  0  0  0
    9.1560  -18.4322   25.2879 C   0  0  1  0  0  0  0  0  0  0  0  0
    8.2550  -19.2146   26.1636 C   0  0  0  0  0  0  0  0  0  0  0  0
    8.9142  -19.6890   27.4125 C   0  0  0  0  0  0  0  0  0  0  0  0
    7.9631  -20.5833   28.1507 C   0  0  0  0  0  0  0  0  0  0  0  0
    8.3306  -21.5109   28.8951 O   0  0  0  0  0  0  0  0  0  0  0  0
   10.5548  -18.8820   25.2431 C   0  0  0  0  0  0  0  0  0  0  0  0
   10.7982  -20.1195   25.0045 O   0  0  0  0  0  0  0  0  0  0  0  0
    6.5828  -20.4085   28.0309 O   0  0  0  0  0  0  0  0  0  0  0  0
   11.6696  -18.0479   25.4450 N   0  0  0  0  0  0  0  0  0  0  0  0
   12.9847  -18.6407   25.5709 C   0  0  1  0  0  0  0  0  0  0  0  0
   13.9669  -17.7147   24.9226 C   0  0  0  0  0  0  0  0  0  0  0  0
   13.6440  -17.3111   23.5304 C   0  0  0  0  0  0  0  0  0  0  0  0
   14.6549  -16.4998   22.8436 C   0  0  0  0  0  0  0  0  0  0  0  0
   15.7439  -17.0262   22.5007 O   0  0  0  0  0  0  0  0  0  0  0  0
   13.2463  -18.7581   27.0479 C   0  0  0  0  0  0  0  0  0  0  0  0
   12.3396  -18.2714   27.9885 O   0  0  0  0  0  0  0  0  0  0  0  0
   14.4753  -15.1580   22.5438 O   0  0  0  0  0  0  0  0  0  0  0  0
   14.2893  -19.2977   27.4910 O   0  0  0  0  0  0  0  0  0  0  0  0
  2  1  1  6
  2  3  1  0
  4  5  2  0
  4  3  1  0
  6  5  1  0
  7 12  2  0
  7  6  1  0
  8  7  1  0
  9 10  1  0
  9  8  2  0
 10 11  2  0
 11 12  1  0
 12  4  1  0
 13  2  1  0
 14 13  2  0
 15 13  1  0
 16 15  1  0
 16 17  1  6
 18 19  1  0
 18 17  1  0
 19 23  1  0
 20 19  2  0
 21 24  1  0
 21 16  1  0
 22 21  2  0
 25 24  1  0
 25 30  1  0
 25 26  1  6
 26 27  1  0
 27 28  1  0
 28 29  2  0
 30 31  1  0
 32 28  1  0
 33 30  2  0
M  END
$$$$
