WEE.pdb
     RDKit          3D

 33 34  0  0  1  0  0  0  0  0999 V2000
    6.5606  -17.8269   24.5709 N   0  0  0  0  0  0  0  0  0  0  0  0
    7.4364  -16.8637   24.0140 C   0  0  1  0  0  0  0  0  0  0  0  0
    8.0646  -15.8933   24.9520 C   0  0  0  0  0  0  0  0  0  0  0  0
    7.0753  -14.9599   25.4987 C   0  0  0  0  0  0  0  0  0  0  0  0
    5.9292  -15.3480   26.1650 C   0  0  0  0  0  0  0  0  0  0  0  0
    5.3053  -14.2214   26.5277 N   0  0  0  0  0  0  0  0  0  0  0  0
    6.0058  -13.1436   26.1200 C   0  0  0  0  0  0  0  0  0  0  0  0
    5.8014  -11.7815   26.2339 C   0  0  0  0  0  0  0  0  0  0  0  0
    6.7072  -10.9031   25.7013 C   0  0  0  0  0  0  0  0  0  0  0  0
    7.8416  -11.3220   25.0402 C   0  0  0  0  0  0  0  0  0  0  0  0
    8.0531  -12.6858   24.9224 C   0  0  0  0  0  0  0  0  0  0  0  0
    7.1409  -13.5726   25.4597 C   0  0  0  0  0  0  0  0  0  0  0  0
    8.4969  -17.4183   23.1279 C   0  0  0  0  0  0  0  0  0  0  0  0
    8.9159  -18.5506   23.4358 O   0  0  0  0  0  0  0  0  0  0  0  0
    9.0435  -16.7878   22.0119 N   0  0  0  0  0  0  0  0  0  0  0  0
   10.3193  -17.0325   21.4645 C   0  0  1  0  0  0  0  0  0  0  0  0
   10.6152  -16.6513   20.0652 C   0  0  0  0  0  0  0  0  0  0  0  0
   10.0623  -17.6076   19.0655 C   0  0  0  0  0  0  0  0  0  0  0  0
   10.9943  -17.6721   17.8923 C   0  0  0  0  0  0  0  0  0  0  0  0
   10.8014  -17.0566   16.8276 O   0  0  0  0  0  0  0  0  0  0  0  0
   11.3749  -16.7399   22.4447 C   0  0  0  0  0  0  0  0  0  0  0  0
   11.3735  -15.5982   23.0314 O   0  0  0  0  0  0  0  0  0  0  0  0
   12.1535  -18.4490   17.9455 O   0  0  0  0  0  0  0  0  0  0  0  0
   12.4067  -17.6287   22.7979 N   0  0  0  0  0  0  0  0  0  0  0  0
   13.1743  -17.3816   24.0005 C   0  0  1  0  0  0  0  0  0  0  0  0
   12.2195  -17.3536   25.1538 C   0  0  0  0  0  0  0  0  0  0  0  0
   11.8439  -18.6796   25.7068 C   0  0  0  0  0  0  0  0  0  0  0  0
   11.8864  -18.8043   27.1678 C   0  0  0  0  0  0  0  0  0  0  0  0
   11.3238  -19.7817   27.7232 O   0  0  0  0  0  0  0  0  0  0  0  0
   14.1353  -18.5328   24.1224 C   0  0  0  0  0  0  0  0  0  0  0  0
   14.0519  -19.6423   23.2822 O   0  0  0  0  0  0  0  0  0  0  0  0
   12.5249  -17.8875   27.9891 O   0  0  0  0  0  0  0  0  0  0  0  0
   15.0483  -18.5400   24.9836 O   0  0  0  0  0  0  0  0  0  0  0  0
  2  1  1  1
  2  3  1  0
  4  5  2  0
  4  3  1  0
  6  5  1  0
  7 12  2  0
  7  6  1  0
  8  7  1  0
  9 10  1  0
  9  8  2  0
 10 11  2  0
 11 12  1  0
 12  4  1  0
 13  2  1  0
 14 13  2  0
 15 13  1  0
 16 15  1  0
 16 17  1  6
 18 19  1  0
 18 17  1  0
 19 23  1  0
 20 19  2  0
 21 24  1  0
 21 16  1  0
 22 21  2  0
 25 24  1  0
 25 30  1  0
 25 26  1  1
 26 27  1  0
 27 28  1  0
 28 29  2  0
 30 31  1  0
 32 28  1  0
 33 30  2  0
M  END
$$$$
