WEE.pdb
     RDKit          3D

 33 34  0  0  1  0  0  0  0  0999 V2000
    6.8911  -18.0114   24.2348 N   0  0  0  0  0  0  0  0  0  0  0  0
    7.7844  -16.9604   23.9152 C   0  0  1  0  0  0  0  0  0  0  0  0
    8.3586  -16.1875   25.0506 C   0  0  0  0  0  0  0  0  0  0  0  0
    7.3623  -15.2933   25.6478 C   0  0  0  0  0  0  0  0  0  0  0  0
    6.2463  -15.7267   26.3368 C   0  0  0  0  0  0  0  0  0  0  0  0
    5.6049  -14.6255   26.7443 N   0  0  0  0  0  0  0  0  0  0  0  0
    6.2657  -13.5206   26.3433 C   0  0  0  0  0  0  0  0  0  0  0  0
    6.0302  -12.1673   26.4961 C   0  0  0  0  0  0  0  0  0  0  0  0
    6.8977  -11.2534   25.9594 C   0  0  0  0  0  0  0  0  0  0  0  0
    8.0226  -11.6270   25.2563 C   0  0  0  0  0  0  0  0  0  0  0  0
    8.2651  -12.9816   25.0994 C   0  0  0  0  0  0  0  0  0  0  0  0
    7.3916  -13.9043   25.6407 C   0  0  0  0  0  0  0  0  0  0  0  0
    8.8909  -17.3367   22.9925 C   0  0  0  0  0  0  0  0  0  0  0  0
    9.2311  -18.5349   23.0224 O   0  0  0  0  0  0  0  0  0  0  0  0
    9.5587  -16.4775   22.1219 N   0  0  0  0  0  0  0  0  0  0  0  0
   10.6821  -16.8042   21.3355 C   0  0  1  0  0  0  0  0  0  0  0  0
   10.5941  -16.7662   19.8585 C   0  0  0  0  0  0  0  0  0  0  0  0
    9.2335  -17.0848   19.3419 C   0  0  0  0  0  0  0  0  0  0  0  0
    9.2546  -17.0042   17.8444 C   0  0  0  0  0  0  0  0  0  0  0  0
   10.1517  -16.4295   17.2005 O   0  0  0  0  0  0  0  0  0  0  0  0
   11.9101  -16.2447   21.9184 C   0  0  0  0  0  0  0  0  0  0  0  0
   12.9678  -16.1884   21.1932 O   0  0  0  0  0  0  0  0  0  0  0  0
    8.2381  -17.5879   17.0855 O   0  0  0  0  0  0  0  0  0  0  0  0
   12.0208  -15.7566   23.2332 N   0  0  0  0  0  0  0  0  0  0  0  0
   13.0102  -16.3303   24.1213 C   0  0  1  0  0  0  0  0  0  0  0  0
   12.2901  -17.1951   25.1093 C   0  0  0  0  0  0  0  0  0  0  0  0
   13.1548  -17.9300   26.0671 C   0  0  0  0  0  0  0  0  0  0  0  0
   12.4619  -18.7932   27.0297 C   0  0  0  0  0  0  0  0  0  0  0  0
   12.4351  -20.0358   26.8408 O   0  0  0  0  0  0  0  0  0  0  0  0
   13.9230  -17.1498   23.2502 C   0  0  0  0  0  0  0  0  0  0  0  0
   15.2930  -16.8980   23.1921 O   0  0  0  0  0  0  0  0  0  0  0  0
   11.8215  -18.3081   28.1599 O   0  0  0  0  0  0  0  0  0  0  0  0
   13.4881  -18.0908   22.5425 O   0  0  0  0  0  0  0  0  0  0  0  0
  2  1  1  1
  2  3  1  0
  4  5  2  0
  4  3  1  0
  6  5  1  0
  7 12  2  0
  7  6  1  0
  8  7  1  0
  9 10  1  0
  9  8  2  0
 10 11  2  0
 11 12  1  0
 12  4  1  0
 13  2  1  0
 14 13  2  0
 15 13  1  0
 16 15  1  0
 16 17  1  6
 18 19  1  0
 18 17  1  0
 19 23  1  0
 20 19  2  0
 21 24  1  0
 21 16  1  0
 22 21  2  0
 25 24  1  0
 25 30  1  0
 25 26  1  1
 26 27  1  0
 27 28  1  0
 28 29  2  0
 30 31  1  0
 32 28  1  0
 33 30  2  0
M  END
$$$$
