KVI.pdb
     RDKit          3D

 25 24  0  0  1  0  0  0  0  0999 V2000
   25.3445  -19.3889  -14.3740 N   0  0  0  0  0  0  0  0  0  0  0  0
   26.5269  -19.3485  -13.5352 C   0  0  1  0  0  0  0  0  0  0  0  0
   27.3667  -18.2043  -13.9137 C   0  0  0  0  0  0  0  0  0  0  0  0
   28.3692  -18.2709  -14.9691 C   0  0  0  0  0  0  0  0  0  0  0  0
   28.7963  -19.4993  -15.6329 C   0  0  0  0  0  0  0  0  0  0  0  0
   29.9137  -19.3486  -16.6085 C   0  0  0  0  0  0  0  0  0  0  0  0
   29.3311  -18.8958  -17.9079 N   0  0  0  0  0  0  0  0  0  0  0  0
   26.1026  -19.0865  -12.0973 C   0  0  0  0  0  0  0  0  0  0  0  0
   25.5269  -18.0276  -11.8246 O   0  0  0  0  0  0  0  0  0  0  0  0
   24.9727  -22.1138   -9.2229 C   0  0  0  0  0  0  0  0  0  0  0  0
   24.7289  -20.6210   -9.2847 C   0  0  2  0  0  0  0  0  0  0  0  0
   23.5042  -20.2902  -10.1148 C   0  0  0  0  0  0  0  0  0  0  0  0
   25.9406  -19.8503   -9.6982 C   0  0  2  0  0  0  0  0  0  0  0  0
   26.3363  -19.9977  -11.0609 N   0  0  0  0  0  0  0  0  0  0  0  0
   27.0396  -20.1705   -8.7432 C   0  0  0  0  0  0  0  0  0  0  0  0
   28.0074  -20.9182   -9.0721 O   0  0  0  0  0  0  0  0  0  0  0  0
   29.3104  -16.8539   -4.9609 C   0  0  0  0  0  0  0  0  0  0  0  0
   29.1476  -17.9246   -6.0150 C   0  0  0  0  0  0  0  0  0  0  0  0
   28.3391  -19.0463   -5.4229 C   0  0  2  0  0  0  0  0  0  0  0  0
   29.1591  -19.7138   -4.3446 C   0  0  0  0  0  0  0  0  0  0  0  0
   28.0627  -20.1330   -6.4757 C   0  0  2  0  0  0  0  0  0  0  0  0
   27.0758  -19.6664   -7.4213 N   0  0  0  0  0  0  0  0  0  0  0  0
   27.4869  -21.2730   -5.7315 C   0  0  0  0  0  0  0  0  0  0  0  0
   26.2540  -21.5131   -5.6711 O   0  0  0  0  0  0  0  0  0  0  0  0
   28.3401  -22.1290   -5.0614 O   0  0  0  0  0  0  0  0  0  0  0  0
  2  1  1  6
  3  2  1  0
  4  3  1  0
  5  6  1  0
  5  4  1  0
  7  6  1  0
  8  2  1  0
  8  9  2  0
 11 10  1  6
 11 12  1  0
 13 14  1  6
 13 11  1  0
 14  8  1  0
 15 13  1  0
 16 15  2  0
 18 19  1  0
 18 17  1  0
 19 21  1  0
 19 20  1  1
 21 22  1  6
 22 15  1  0
 23 21  1  0
 23 25  1  0
 24 23  2  0
M  END
$$$$
