KVI.pdb
     RDKit          3D

 25 24  0  0  1  0  0  0  0  0999 V2000
   23.3671  -21.8556  -13.6868 N   0  0  0  0  0  0  0  0  0  0  0  0
   23.5513  -20.7204  -12.8033 C   0  0  1  0  0  0  0  0  0  0  0  0
   22.2525  -20.2894  -12.2694 C   0  0  0  0  0  0  0  0  0  0  0  0
   21.2572  -19.5906  -13.0721 C   0  0  0  0  0  0  0  0  0  0  0  0
   21.5456  -18.8651  -14.3060 C   0  0  0  0  0  0  0  0  0  0  0  0
   20.3671  -18.2501  -14.9814 C   0  0  0  0  0  0  0  0  0  0  0  0
   20.0957  -16.9355  -14.3249 N   0  0  0  0  0  0  0  0  0  0  0  0
   24.3639  -21.1629  -11.5950 C   0  0  0  0  0  0  0  0  0  0  0  0
   24.0050  -22.1626  -10.9634 O   0  0  0  0  0  0  0  0  0  0  0  0
   28.6173  -19.8077  -10.8722 C   0  0  0  0  0  0  0  0  0  0  0  0
   27.8708  -21.1221  -10.7873 C   0  0  2  0  0  0  0  0  0  0  0  0
   27.9129  -21.8729  -12.1037 C   0  0  0  0  0  0  0  0  0  0  0  0
   26.4866  -20.9708  -10.2449 C   0  0  2  0  0  0  0  0  0  0  0  0
   25.5088  -20.4837  -11.1625 N   0  0  0  0  0  0  0  0  0  0  0  0
   26.5648  -20.1527   -9.0011 C   0  0  0  0  0  0  0  0  0  0  0  0
   26.1761  -18.9478   -8.9742 O   0  0  0  0  0  0  0  0  0  0  0  0
   28.8266  -19.9669   -3.4004 C   0  0  0  0  0  0  0  0  0  0  0  0
   27.5032  -19.8703   -4.1238 C   0  0  0  0  0  0  0  0  0  0  0  0
   27.6054  -20.6659   -5.3963 C   0  0  2  0  0  0  0  0  0  0  0  0
   29.0612  -20.9701   -5.6584 C   0  0  0  0  0  0  0  0  0  0  0  0
   27.1255  -19.8347   -6.5981 C   0  0  2  0  0  0  0  0  0  0  0  0
   27.0718  -20.6610   -7.7816 N   0  0  0  0  0  0  0  0  0  0  0  0
   28.1585  -18.7979   -6.8049 C   0  0  0  0  0  0  0  0  0  0  0  0
   29.1125  -18.9180   -7.6154 O   0  0  0  0  0  0  0  0  0  0  0  0
   28.0826  -17.6280   -6.0733 O   0  0  0  0  0  0  0  0  0  0  0  0
  2  1  1  6
  3  2  1  0
  4  3  1  0
  5  6  1  0
  5  4  1  0
  7  6  1  0
  8  2  1  0
  8  9  2  0
 11 10  1  6
 11 12  1  0
 13 14  1  6
 13 11  1  0
 14  8  1  0
 15 13  1  0
 16 15  2  0
 18 19  1  0
 18 17  1  0
 19 21  1  0
 19 20  1  6
 21 22  1  6
 22 15  1  0
 23 21  1  0
 23 25  1  0
 24 23  2  0
M  END
$$$$
