KVI.pdb
     RDKit          3D

 25 24  0  0  1  0  0  0  0  0999 V2000
   26.7733  -20.4076  -17.1974 N   0  0  0  0  0  0  0  0  0  0  0  0
   25.8778  -19.5492  -16.4461 C   0  0  1  0  0  0  0  0  0  0  0  0
   24.7674  -19.1155  -17.3044 C   0  0  0  0  0  0  0  0  0  0  0  0
   24.8258  -17.9180  -18.1326 C   0  0  0  0  0  0  0  0  0  0  0  0
   26.0290  -17.4253  -18.7969 C   0  0  0  0  0  0  0  0  0  0  0  0
   25.8857  -16.1199  -19.5030 C   0  0  0  0  0  0  0  0  0  0  0  0
   27.2327  -15.7241  -20.0149 N   0  0  0  0  0  0  0  0  0  0  0  0
   25.2384  -20.3611  -15.3289 C   0  0  0  0  0  0  0  0  0  0  0  0
   24.5271  -21.3284  -15.6211 O   0  0  0  0  0  0  0  0  0  0  0  0
   27.0500  -21.0257  -11.6528 C   0  0  0  0  0  0  0  0  0  0  0  0
   25.5947  -20.6170  -11.5686 C   0  0  2  0  0  0  0  0  0  0  0  0
   24.8904  -21.2989  -10.4122 C   0  0  0  0  0  0  0  0  0  0  0  0
   24.8710  -20.7719  -12.8669 C   0  0  2  0  0  0  0  0  0  0  0  0
   25.4208  -20.0600  -13.9742 N   0  0  0  0  0  0  0  0  0  0  0  0
   23.4335  -20.4522  -12.6353 C   0  0  0  0  0  0  0  0  0  0  0  0
   23.0379  -19.2613  -12.4648 O   0  0  0  0  0  0  0  0  0  0  0  0
   18.1530  -21.4208  -14.9601 C   0  0  0  0  0  0  0  0  0  0  0  0
   18.8175  -21.1215  -13.6361 C   0  0  0  0  0  0  0  0  0  0  0  0
   20.2779  -21.4608  -13.7572 C   0  0  2  0  0  0  0  0  0  0  0  0
   20.4145  -22.9586  -13.8940 C   0  0  0  0  0  0  0  0  0  0  0  0
   21.0328  -21.0845  -12.4711 C   0  0  2  0  0  0  0  0  0  0  0  0
   22.4262  -21.4453  -12.5914 N   0  0  0  0  0  0  0  0  0  0  0  0
   20.4331  -21.9082  -11.4002 C   0  0  0  0  0  0  0  0  0  0  0  0
   20.8723  -23.0369  -11.0619 O   0  0  0  0  0  0  0  0  0  0  0  0
   19.3288  -21.4220  -10.7266 O   0  0  0  0  0  0  0  0  0  0  0  0
  2  1  1  6
  3  2  1  0
  4  3  1  0
  5  6  1  0
  5  4  1  0
  7  6  1  0
  8  2  1  0
  8  9  2  0
 11 10  1  6
 11 12  1  0
 13 14  1  6
 13 11  1  0
 14  8  1  0
 15 13  1  0
 16 15  2  0
 18 19  1  0
 18 17  1  0
 19 21  1  0
 19 20  1  1
 21 22  1  6
 22 15  1  0
 23 21  1  0
 23 25  1  0
 24 23  2  0
M  END
$$$$
