KVI.pdb
     RDKit          3D

 25 24  0  0  1  0  0  0  0  0999 V2000
   21.4083  -21.1571   -7.6825 N   0  0  0  0  0  0  0  0  0  0  0  0
   21.4376  -21.7975   -8.9834 C   0  0  1  0  0  0  0  0  0  0  0  0
   20.0678  -21.9649   -9.4866 C   0  0  0  0  0  0  0  0  0  0  0  0
   19.2579  -23.1432   -9.2056 C   0  0  0  0  0  0  0  0  0  0  0  0
   19.0682  -23.7240   -7.8794 C   0  0  0  0  0  0  0  0  0  0  0  0
   18.1576  -24.9030   -7.8173 C   0  0  0  0  0  0  0  0  0  0  0  0
   18.1672  -25.4174   -6.4144 N   0  0  0  0  0  0  0  0  0  0  0  0
   22.1268  -20.8703   -9.9739 C   0  0  0  0  0  0  0  0  0  0  0  0
   21.9218  -19.6539   -9.9004 O   0  0  0  0  0  0  0  0  0  0  0  0
   25.6145  -22.1534  -12.3571 C   0  0  0  0  0  0  0  0  0  0  0  0
   25.2381  -20.7791  -11.8456 C   0  0  2  0  0  0  0  0  0  0  0  0
   25.8691  -20.4945  -10.4968 C   0  0  0  0  0  0  0  0  0  0  0  0
   23.7639  -20.5351  -11.8642 C   0  0  2  0  0  0  0  0  0  0  0  0
   22.9897  -21.3359  -10.9728 N   0  0  0  0  0  0  0  0  0  0  0  0
   23.2974  -20.6333  -13.2767 C   0  0  0  0  0  0  0  0  0  0  0  0
   22.9687  -21.7428  -13.7911 O   0  0  0  0  0  0  0  0  0  0  0  0
   19.4878  -17.6463  -15.1789 C   0  0  0  0  0  0  0  0  0  0  0  0
   20.4123  -18.8268  -14.9897 C   0  0  0  0  0  0  0  0  0  0  0  0
   21.6606  -18.5777  -15.7911 C   0  0  2  0  0  0  0  0  0  0  0  0
   21.3299  -18.7283  -17.2569 C   0  0  0  0  0  0  0  0  0  0  0  0
   22.7248  -19.6458  -15.4873 C   0  0  2  0  0  0  0  0  0  0  0  0
   23.1911  -19.5073  -14.1274 N   0  0  0  0  0  0  0  0  0  0  0  0
   23.8544  -19.3540  -16.3950 C   0  0  0  0  0  0  0  0  0  0  0  0
   24.6854  -18.4312  -16.1973 O   0  0  0  0  0  0  0  0  0  0  0  0
   24.0164  -20.1309  -17.5263 O   0  0  0  0  0  0  0  0  0  0  0  0
  2  1  1  1
  3  2  1  0
  4  3  1  0
  5  6  1  0
  5  4  1  0
  7  6  1  0
  8  2  1  0
  8  9  2  0
 11 10  1  1
 11 12  1  0
 13 14  1  1
 13 11  1  0
 14  8  1  0
 15 13  1  0
 16 15  2  0
 18 19  1  0
 18 17  1  0
 19 21  1  0
 19 20  1  6
 21 22  1  1
 22 15  1  0
 23 21  1  0
 23 25  1  0
 24 23  2  0
M  END
$$$$
