KVI.pdb
     RDKit          3D

 25 24  0  0  1  0  0  0  0  0999 V2000
   29.0149  -23.6928  -17.7743 N   0  0  0  0  0  0  0  0  0  0  0  0
   27.7234  -23.5401  -17.1326 C   0  0  1  0  0  0  0  0  0  0  0  0
   27.2763  -24.8339  -16.6000 C   0  0  0  0  0  0  0  0  0  0  0  0
   26.0486  -25.4885  -17.0330 C   0  0  0  0  0  0  0  0  0  0  0  0
   24.8806  -24.7939  -17.5671 C   0  0  0  0  0  0  0  0  0  0  0  0
   23.7144  -25.6600  -17.9031 C   0  0  0  0  0  0  0  0  0  0  0  0
   22.6306  -24.7830  -18.4410 N   0  0  0  0  0  0  0  0  0  0  0  0
   27.8789  -22.6310  -15.9220 C   0  0  0  0  0  0  0  0  0  0  0  0
   28.9010  -22.7183  -15.2329 O   0  0  0  0  0  0  0  0  0  0  0  0
   25.4979  -19.0117  -15.4178 C   0  0  0  0  0  0  0  0  0  0  0  0
   26.8393  -19.3362  -14.7955 C   0  0  2  0  0  0  0  0  0  0  0  0
   27.9855  -18.8052  -15.6337 C   0  0  0  0  0  0  0  0  0  0  0  0
   26.9870  -20.7834  -14.4535 C   0  0  2  0  0  0  0  0  0  0  0  0
   26.9092  -21.6927  -15.5501 N   0  0  0  0  0  0  0  0  0  0  0  0
   26.0129  -21.1040  -13.3715 C   0  0  0  0  0  0  0  0  0  0  0  0
   25.0011  -21.8350  -13.5850 O   0  0  0  0  0  0  0  0  0  0  0  0
   27.2235  -19.8288   -8.0217 C   0  0  0  0  0  0  0  0  0  0  0  0
   26.8072  -20.7302   -9.1611 C   0  0  0  0  0  0  0  0  0  0  0  0
   25.5153  -20.2060   -9.7256 C   0  0  2  0  0  0  0  0  0  0  0  0
   24.3998  -20.5366   -8.7627 C   0  0  0  0  0  0  0  0  0  0  0  0
   25.1642  -20.9239  -11.0397 C   0  0  2  0  0  0  0  0  0  0  0  0
   26.1516  -20.6198  -12.0490 N   0  0  0  0  0  0  0  0  0  0  0  0
   23.8705  -20.3550  -11.4726 C   0  0  0  0  0  0  0  0  0  0  0  0
   23.7653  -19.2943  -12.1400 O   0  0  0  0  0  0  0  0  0  0  0  0
   22.7058  -21.0156  -11.1314 O   0  0  0  0  0  0  0  0  0  0  0  0
  2  1  1  1
  3  2  1  0
  4  3  1  0
  5  6  1  0
  5  4  1  0
  7  6  1  0
  8  2  1  0
  8  9  2  0
 11 10  1  6
 11 12  1  0
 13 14  1  6
 13 11  1  0
 14  8  1  0
 15 13  1  0
 16 15  2  0
 18 19  1  0
 18 17  1  0
 19 21  1  0
 19 20  1  1
 21 22  1  6
 22 15  1  0
 23 21  1  0
 23 25  1  0
 24 23  2  0
M  END
$$$$
