KVI.pdb
     RDKit          3D

 25 24  0  0  1  0  0  0  0  0999 V2000
   20.2025  -15.5747  -17.4186 N   0  0  0  0  0  0  0  0  0  0  0  0
   20.1796  -14.2385  -17.9817 C   0  0  1  0  0  0  0  0  0  0  0  0
   18.8170  -13.9054  -18.4176 C   0  0  0  0  0  0  0  0  0  0  0  0
   18.0987  -14.6695  -19.4292 C   0  0  0  0  0  0  0  0  0  0  0  0
   16.7320  -14.3943  -19.8634 C   0  0  0  0  0  0  0  0  0  0  0  0
   16.2049  -15.2870  -20.9350 C   0  0  0  0  0  0  0  0  0  0  0  0
   14.8530  -14.7855  -21.3270 N   0  0  0  0  0  0  0  0  0  0  0  0
   20.5153  -13.2363  -16.8867 C   0  0  0  0  0  0  0  0  0  0  0  0
   19.6711  -12.9905  -16.0183 O   0  0  0  0  0  0  0  0  0  0  0  0
   23.9465  -10.7065  -14.3343 C   0  0  0  0  0  0  0  0  0  0  0  0
   23.5890  -11.7156  -15.4048 C   0  0  2  0  0  0  0  0  0  0  0  0
   24.5449  -11.6444  -16.5793 C   0  0  0  0  0  0  0  0  0  0  0  0
   22.1536  -11.6451  -15.8145 C   0  0  2  0  0  0  0  0  0  0  0  0
   21.7468  -12.5746  -16.8174 N   0  0  0  0  0  0  0  0  0  0  0  0
   21.8470  -10.2332  -16.1817 C   0  0  0  0  0  0  0  0  0  0  0  0
   22.1862   -9.7507  -17.3024 O   0  0  0  0  0  0  0  0  0  0  0  0
   17.5074   -6.4788  -16.8165 C   0  0  0  0  0  0  0  0  0  0  0  0
   18.9582   -6.4868  -16.3932 C   0  0  0  0  0  0  0  0  0  0  0  0
   19.3265   -7.8935  -16.0085 C   0  0  2  0  0  0  0  0  0  0  0  0
   18.6413   -8.2315  -14.7058 C   0  0  0  0  0  0  0  0  0  0  0  0
   20.8355   -8.0051  -15.7322 C   0  0  2  0  0  0  0  0  0  0  0  0
   21.1642   -9.3479  -15.3141 N   0  0  0  0  0  0  0  0  0  0  0  0
   21.1035   -7.0907  -14.6022 C   0  0  0  0  0  0  0  0  0  0  0  0
   21.1754   -5.8408  -14.7204 O   0  0  0  0  0  0  0  0  0  0  0  0
   21.2870   -7.6268  -13.3418 O   0  0  0  0  0  0  0  0  0  0  0  0
  2  1  1  1
  3  2  1  0
  4  3  1  0
  5  6  1  0
  5  4  1  0
  7  6  1  0
  8  2  1  0
  8  9  2  0
 11 10  1  1
 11 12  1  0
 13 14  1  6
 13 11  1  0
 14  8  1  0
 15 13  1  0
 16 15  2  0
 18 19  1  0
 18 17  1  0
 19 21  1  0
 19 20  1  1
 21 22  1  1
 22 15  1  0
 23 21  1  0
 23 25  1  0
 24 23  2  0
M  END
$$$$
