KVI.pdb
     RDKit          3D

 25 24  0  0  1  0  0  0  0  0999 V2000
   23.2933  -27.4722  -15.5046 N   0  0  0  0  0  0  0  0  0  0  0  0
   22.9695  -26.0710  -15.6920 C   0  0  1  0  0  0  0  0  0  0  0  0
   21.6474  -25.7850  -15.1194 C   0  0  0  0  0  0  0  0  0  0  0  0
   20.4072  -25.9460  -15.8673 C   0  0  0  0  0  0  0  0  0  0  0  0
   20.1759  -26.9704  -16.8818 C   0  0  0  0  0  0  0  0  0  0  0  0
   18.8514  -26.9132  -17.5640 C   0  0  0  0  0  0  0  0  0  0  0  0
   18.8172  -27.9968  -18.5925 N   0  0  0  0  0  0  0  0  0  0  0  0
   23.9524  -25.2268  -14.8938 C   0  0  0  0  0  0  0  0  0  0  0  0
   24.4367  -25.6900  -13.8555 O   0  0  0  0  0  0  0  0  0  0  0  0
   27.1826  -21.5080  -14.6005 C   0  0  0  0  0  0  0  0  0  0  0  0
   26.1978  -22.3130  -15.4215 C   0  0  2  0  0  0  0  0  0  0  0  0
   25.5325  -21.4621  -16.4853 C   0  0  0  0  0  0  0  0  0  0  0  0
   25.2197  -23.0678  -14.5807 C   0  0  2  0  0  0  0  0  0  0  0  0
   24.3364  -23.9389  -15.2851 N   0  0  0  0  0  0  0  0  0  0  0  0
   24.4958  -22.0875  -13.7221 C   0  0  0  0  0  0  0  0  0  0  0  0
   23.3775  -21.6030  -14.0663 O   0  0  0  0  0  0  0  0  0  0  0  0
   25.5474  -21.4529   -8.1934 C   0  0  0  0  0  0  0  0  0  0  0  0
   24.6651  -21.5804   -9.4138 C   0  0  0  0  0  0  0  0  0  0  0  0
   24.9877  -20.4451  -10.3462 C   0  0  2  0  0  0  0  0  0  0  0  0
   24.4130  -19.1721   -9.7718 C   0  0  0  0  0  0  0  0  0  0  0  0
   24.2964  -20.6438  -11.7057 C   0  0  2  0  0  0  0  0  0  0  0  0
   25.0025  -21.6381  -12.4795 N   0  0  0  0  0  0  0  0  0  0  0  0
   24.4108  -19.3468  -12.4055 C   0  0  0  0  0  0  0  0  0  0  0  0
   25.4815  -18.9190  -12.9074 O   0  0  0  0  0  0  0  0  0  0  0  0
   23.2864  -18.5518  -12.5209 O   0  0  0  0  0  0  0  0  0  0  0  0
  2  1  1  1
  3  2  1  0
  4  3  1  0
  5  6  1  0
  5  4  1  0
  7  6  1  0
  8  2  1  0
  8  9  2  0
 11 10  1  1
 11 12  1  0
 13 14  1  6
 13 11  1  0
 14  8  1  0
 15 13  1  0
 16 15  2  0
 18 19  1  0
 18 17  1  0
 19 21  1  0
 19 20  1  1
 21 22  1  6
 22 15  1  0
 23 21  1  0
 23 25  1  0
 24 23  2  0
M  END
$$$$
