KVI.pdb
     RDKit          3D

 25 24  0  0  1  0  0  0  0  0999 V2000
   29.6497  -23.9657  -17.1799 N   0  0  0  0  0  0  0  0  0  0  0  0
   28.2810  -23.4864  -17.1671 C   0  0  1  0  0  0  0  0  0  0  0  0
   27.3695  -24.5923  -16.8448 C   0  0  0  0  0  0  0  0  0  0  0  0
   26.7655  -25.4444  -17.8609 C   0  0  0  0  0  0  0  0  0  0  0  0
   26.6641  -25.1041  -19.2772 C   0  0  0  0  0  0  0  0  0  0  0  0
   25.3022  -24.7265  -19.7525 C   0  0  0  0  0  0  0  0  0  0  0  0
   25.3955  -24.4109  -21.2102 N   0  0  0  0  0  0  0  0  0  0  0  0
   28.1211  -22.4814  -16.0355 C   0  0  0  0  0  0  0  0  0  0  0  0
   28.7753  -22.6357  -14.9986 O   0  0  0  0  0  0  0  0  0  0  0  0
   27.9224  -18.4383  -16.4421 C   0  0  0  0  0  0  0  0  0  0  0  0
   26.7871  -19.0034  -15.6153 C   0  0  2  0  0  0  0  0  0  0  0  0
   26.3684  -18.0470  -14.5161 C   0  0  0  0  0  0  0  0  0  0  0  0
   27.0633  -20.3841  -15.1147 C   0  0  2  0  0  0  0  0  0  0  0  0
   27.2599  -21.3810  -16.1162 N   0  0  0  0  0  0  0  0  0  0  0  0
   25.9902  -20.7473  -14.1458 C   0  0  0  0  0  0  0  0  0  0  0  0
   24.9098  -21.2886  -14.5246 O   0  0  0  0  0  0  0  0  0  0  0  0
   27.0052  -20.6388   -8.5812 C   0  0  0  0  0  0  0  0  0  0  0  0
   26.5543  -21.2723   -9.8771 C   0  0  0  0  0  0  0  0  0  0  0  0
   25.4006  -20.4706  -10.4143 C   0  0  2  0  0  0  0  0  0  0  0  0
   24.1770  -20.7699   -9.5814 C   0  0  0  0  0  0  0  0  0  0  0  0
   25.0528  -20.9095  -11.8469 C   0  0  2  0  0  0  0  0  0  0  0  0
   26.1050  -20.5153  -12.7545 N   0  0  0  0  0  0  0  0  0  0  0  0
   23.8285  -20.1638  -12.2071 C   0  0  0  0  0  0  0  0  0  0  0  0
   22.6672  -20.6289  -12.0781 O   0  0  0  0  0  0  0  0  0  0  0  0
   23.9538  -18.8846  -12.7146 O   0  0  0  0  0  0  0  0  0  0  0  0
  2  1  1  1
  3  2  1  0
  4  3  1  0
  5  6  1  0
  5  4  1  0
  7  6  1  0
  8  2  1  0
  8  9  2  0
 11 10  1  1
 11 12  1  0
 13 14  1  6
 13 11  1  0
 14  8  1  0
 15 13  1  0
 16 15  2  0
 18 19  1  0
 18 17  1  0
 19 21  1  0
 19 20  1  1
 21 22  1  6
 22 15  1  0
 23 21  1  0
 23 25  1  0
 24 23  2  0
M  END
$$$$
