KVI.pdb
     RDKit          3D

 25 24  0  0  1  0  0  0  0  0999 V2000
   22.0231  -21.1458  -14.2343 N   0  0  0  0  0  0  0  0  0  0  0  0
   21.2316  -20.4748  -13.2212 C   0  0  1  0  0  0  0  0  0  0  0  0
   19.8421  -20.3459  -13.6798 C   0  0  0  0  0  0  0  0  0  0  0  0
   19.3708  -19.2205  -14.4765 C   0  0  0  0  0  0  0  0  0  0  0  0
   20.1849  -18.4873  -15.4417 C   0  0  0  0  0  0  0  0  0  0  0  0
   19.5880  -17.2223  -15.9580 C   0  0  0  0  0  0  0  0  0  0  0  0
   18.1044  -17.3197  -15.8079 N   0  0  0  0  0  0  0  0  0  0  0  0
   21.1728  -21.3532  -11.9798 C   0  0  0  0  0  0  0  0  0  0  0  0
   20.7479  -22.5091  -12.0816 O   0  0  0  0  0  0  0  0  0  0  0  0
   22.4339  -22.0034   -7.1730 C   0  0  0  0  0  0  0  0  0  0  0  0
   22.3932  -21.0992   -8.3866 C   0  0  2  0  0  0  0  0  0  0  0  0
   21.9688  -19.6912   -8.0184 C   0  0  0  0  0  0  0  0  0  0  0  0
   21.5973  -21.6736   -9.5135 C   0  0  2  0  0  0  0  0  0  0  0  0
   21.5815  -20.9081  -10.7172 N   0  0  0  0  0  0  0  0  0  0  0  0
   20.2282  -21.9739   -9.0058 C   0  0  0  0  0  0  0  0  0  0  0  0
   19.2785  -21.1453   -9.1292 O   0  0  0  0  0  0  0  0  0  0  0  0
   17.2926  -25.5825  -10.8209 C   0  0  0  0  0  0  0  0  0  0  0  0
   17.7728  -24.3331  -10.1191 C   0  0  0  0  0  0  0  0  0  0  0  0
   17.9719  -24.6598   -8.6643 C   0  0  2  0  0  0  0  0  0  0  0  0
   16.6220  -24.9251   -8.0414 C   0  0  0  0  0  0  0  0  0  0  0  0
   18.5542  -23.4526   -7.9099 C   0  0  2  0  0  0  0  0  0  0  0  0
   19.9011  -23.1901   -8.3604 N   0  0  0  0  0  0  0  0  0  0  0  0
   18.6129  -23.8591   -6.4900 C   0  0  0  0  0  0  0  0  0  0  0  0
   19.6219  -24.3897   -5.9592 O   0  0  0  0  0  0  0  0  0  0  0  0
   17.5043  -23.6500   -5.6919 O   0  0  0  0  0  0  0  0  0  0  0  0
  2  1  1  6
  3  2  1  0
  4  3  1  0
  5  6  1  0
  5  4  1  0
  7  6  1  0
  8  2  1  0
  8  9  2  0
 11 10  1  1
 11 12  1  0
 13 14  1  6
 13 11  1  0
 14  8  1  0
 15 13  1  0
 16 15  2  0
 18 19  1  0
 18 17  1  0
 19 21  1  0
 19 20  1  1
 21 22  1  6
 22 15  1  0
 23 21  1  0
 23 25  1  0
 24 23  2  0
M  END
$$$$
