KVI.pdb
     RDKit          3D

 25 24  0  0  1  0  0  0  0  0999 V2000
   19.1515  -12.7753  -18.9025 N   0  0  0  0  0  0  0  0  0  0  0  0
   20.0158  -11.6165  -19.0178 C   0  0  1  0  0  0  0  0  0  0  0  0
   19.3570  -10.5829  -19.8274 C   0  0  0  0  0  0  0  0  0  0  0  0
   18.7143  -10.8653  -21.1043 C   0  0  0  0  0  0  0  0  0  0  0  0
   17.3089  -10.6046  -21.4025 C   0  0  0  0  0  0  0  0  0  0  0  0
   16.8785  -10.9139  -22.7962 C   0  0  0  0  0  0  0  0  0  0  0  0
   15.4149  -10.6306  -22.8985 N   0  0  0  0  0  0  0  0  0  0  0  0
   20.2004  -11.0000  -17.6387 C   0  0  0  0  0  0  0  0  0  0  0  0
   19.2211  -10.8937  -16.8926 O   0  0  0  0  0  0  0  0  0  0  0  0
   23.1152  -10.0431  -13.7918 C   0  0  0  0  0  0  0  0  0  0  0  0
   22.8420  -10.6797  -15.1379 C   0  0  2  0  0  0  0  0  0  0  0  0
   24.1056  -10.7922  -15.9679 C   0  0  0  0  0  0  0  0  0  0  0  0
   21.7165  -10.0265  -15.8726 C   0  0  2  0  0  0  0  0  0  0  0  0
   21.4390  -10.5441  -17.1727 N   0  0  0  0  0  0  0  0  0  0  0  0
   21.9617   -8.5561  -15.8802 C   0  0  0  0  0  0  0  0  0  0  0  0
   22.6859   -8.0089  -16.7633 O   0  0  0  0  0  0  0  0  0  0  0  0
   18.7622   -4.7730  -16.8080 C   0  0  0  0  0  0  0  0  0  0  0  0
   20.0313   -5.5720  -16.6211 C   0  0  0  0  0  0  0  0  0  0  0  0
   20.4558   -5.4482  -15.1834 C   0  0  2  0  0  0  0  0  0  0  0  0
   20.8331   -4.0108  -14.9148 C   0  0  0  0  0  0  0  0  0  0  0  0
   21.7258   -6.2741  -14.9176 C   0  0  2  0  0  0  0  0  0  0  0  0
   21.4083   -7.6830  -14.9137 N   0  0  0  0  0  0  0  0  0  0  0  0
   22.1707   -5.8969  -13.5594 C   0  0  0  0  0  0  0  0  0  0  0  0
   21.7532   -6.4520  -12.5112 O   0  0  0  0  0  0  0  0  0  0  0  0
   23.0959   -4.8798  -13.4211 O   0  0  0  0  0  0  0  0  0  0  0  0
  2  1  1  1
  3  2  1  0
  4  3  1  0
  5  6  1  0
  5  4  1  0
  7  6  1  0
  8  2  1  0
  8  9  2  0
 11 10  1  1
 11 12  1  0
 13 14  1  6
 13 11  1  0
 14  8  1  0
 15 13  1  0
 16 15  2  0
 18 19  1  0
 18 17  1  0
 19 21  1  0
 19 20  1  6
 21 22  1  1
 22 15  1  0
 23 21  1  0
 23 25  1  0
 24 23  2  0
M  END
$$$$
