KVI.pdb
     RDKit          3D

 25 24  0  0  1  0  0  0  0  0999 V2000
   29.1900  -22.3076  -18.0474 N   0  0  0  0  0  0  0  0  0  0  0  0
   28.2537  -22.8088  -17.0598 C   0  0  1  0  0  0  0  0  0  0  0  0
   28.7261  -24.0970  -16.5351 C   0  0  0  0  0  0  0  0  0  0  0  0
   28.2096  -25.3790  -16.9965 C   0  0  0  0  0  0  0  0  0  0  0  0
   26.8122  -25.6401  -17.3301 C   0  0  0  0  0  0  0  0  0  0  0  0
   25.9670  -26.1461  -16.2108 C   0  0  0  0  0  0  0  0  0  0  0  0
   24.5555  -26.2160  -16.6963 N   0  0  0  0  0  0  0  0  0  0  0  0
   28.2400  -21.8621  -15.8684 C   0  0  0  0  0  0  0  0  0  0  0  0
   29.3145  -21.4817  -15.3913 O   0  0  0  0  0  0  0  0  0  0  0  0
   24.8551  -19.3384  -15.0643 C   0  0  0  0  0  0  0  0  0  0  0  0
   26.2817  -19.1508  -14.5935 C   0  0  2  0  0  0  0  0  0  0  0  0
   27.0867  -18.3188  -15.5723 C   0  0  0  0  0  0  0  0  0  0  0  0
   26.9495  -20.4383  -14.2335 C   0  0  2  0  0  0  0  0  0  0  0  0
   27.0560  -21.3983  -15.2833 N   0  0  0  0  0  0  0  0  0  0  0  0
   26.2754  -20.9851  -13.0215 C   0  0  0  0  0  0  0  0  0  0  0  0
   25.5154  -21.9961  -13.0844 O   0  0  0  0  0  0  0  0  0  0  0  0
   26.2506  -20.3119   -6.8545 C   0  0  0  0  0  0  0  0  0  0  0  0
   25.6449  -20.9446   -8.0861 C   0  0  0  0  0  0  0  0  0  0  0  0
   26.2977  -20.3341   -9.2959 C   0  0  2  0  0  0  0  0  0  0  0  0
   25.9047  -18.8780   -9.3718 C   0  0  0  0  0  0  0  0  0  0  0  0
   25.7668  -20.9817  -10.5861 C   0  0  2  0  0  0  0  0  0  0  0  0
   26.4376  -20.4189  -11.7347 N   0  0  0  0  0  0  0  0  0  0  0  0
   24.3373  -20.6130  -10.6593 C   0  0  0  0  0  0  0  0  0  0  0  0
   23.4387  -21.1727   -9.9805 O   0  0  0  0  0  0  0  0  0  0  0  0
   23.9548  -19.5993  -11.5170 O   0  0  0  0  0  0  0  0  0  0  0  0
  2  1  1  6
  3  2  1  0
  4  3  1  0
  5  6  1  0
  5  4  1  0
  7  6  1  0
  8  2  1  0
  8  9  2  0
 11 10  1  6
 11 12  1  0
 13 14  1  6
 13 11  1  0
 14  8  1  0
 15 13  1  0
 16 15  2  0
 18 19  1  0
 18 17  1  0
 19 21  1  0
 19 20  1  6
 21 22  1  6
 22 15  1  0
 23 21  1  0
 23 25  1  0
 24 23  2  0
M  END
$$$$
