ICI.pdb
     RDKit          3D

 23 22  0  0  1  0  0  0  0  0999 V2000
   25.7982  -13.2398  -15.2906 C   0  0  0  0  0  0  0  0  0  0  0  0
   25.3468  -14.3166  -16.2992 C   0  0  0  0  0  0  0  0  0  0  0  0
   25.4383  -15.6582  -15.5962 C   0  0  2  0  0  0  0  0  0  0  0  0
   26.8940  -15.8236  -15.1139 C   0  0  0  0  0  0  0  0  0  0  0  0
   24.9600  -16.8259  -16.3599 C   0  0  2  0  0  0  0  0  0  0  0  0
   23.5997  -16.5066  -16.8171 N   0  0  0  0  0  0  0  0  0  0  0  0
   25.0087  -18.1375  -15.7118 C   0  0  0  0  0  0  0  0  0  0  0  0
   24.0876  -18.4168  -14.8655 O   0  0  0  0  0  0  0  0  0  0  0  0
   25.9771  -19.1174  -15.9418 N   0  0  0  0  0  0  0  0  0  0  0  0
   26.0522  -20.4534  -15.3534 C   0  0  1  0  0  0  0  0  0  0  0  0
   26.8836  -21.3997  -16.1836 C   0  0  0  0  0  0  0  0  0  0  0  0
   27.2225  -22.9541  -15.3094 S   0  0  0  0  0  0  0  0  0  0  0  0
   26.5014  -20.3701  -13.9669 C   0  0  0  0  0  0  0  0  0  0  0  0
   27.6949  -19.9294  -13.7297 O   0  0  0  0  0  0  0  0  0  0  0  0
   25.9651  -17.9469   -9.4628 C   0  0  0  0  0  0  0  0  0  0  0  0
   26.6340  -18.8283  -10.4995 C   0  0  0  0  0  0  0  0  0  0  0  0
   25.9943  -20.1796  -10.4518 C   0  0  2  0  0  0  0  0  0  0  0  0
   26.2876  -20.7851   -9.0878 C   0  0  0  0  0  0  0  0  0  0  0  0
   26.4540  -21.0943  -11.5610 C   0  0  2  0  0  0  0  0  0  0  0  0
   25.7765  -20.7154  -12.8192 N   0  0  0  0  0  0  0  0  0  0  0  0
   26.1507  -22.5126  -11.3461 C   0  0  0  0  0  0  0  0  0  0  0  0
   25.1049  -23.0729  -11.7947 O   0  0  0  0  0  0  0  0  0  0  0  0
   27.0174  -23.3047  -10.6339 O   0  0  0  0  0  0  0  0  0  0  0  0
  1  2  1  0
  2  3  1  0
  3  5  1  0
  3  4  1  6
  5  7  1  0
  5  6  1  1
  7  9  1  0
  8  7  2  0
  9 10  1  0
 10 13  1  0
 10 11  1  6
 11 12  1  0
 13 20  1  0
 14 13  2  0
 15 16  1  0
 17 19  1  0
 17 16  1  0
 17 18  1  1
 19 21  1  0
 19 20  1  6
 21 22  2  0
 21 23  1  0
M  END
$$$$
