ICI.pdb
     RDKit          3D

 23 22  0  0  1  0  0  0  0  0999 V2000
   22.0033  -20.7683   -9.1503 C   0  0  0  0  0  0  0  0  0  0  0  0
   23.4447  -21.3026   -9.2826 C   0  0  0  0  0  0  0  0  0  0  0  0
   24.1326  -20.4802  -10.3564 C   0  0  2  0  0  0  0  0  0  0  0  0
   23.2695  -20.5783  -11.6309 C   0  0  0  0  0  0  0  0  0  0  0  0
   25.5508  -20.7970  -10.6087 C   0  0  2  0  0  0  0  0  0  0  0  0
   26.2262  -20.7925   -9.3029 N   0  0  0  0  0  0  0  0  0  0  0  0
   26.2743  -19.9798  -11.5841 C   0  0  0  0  0  0  0  0  0  0  0  0
   26.7142  -18.8405  -11.1952 O   0  0  0  0  0  0  0  0  0  0  0  0
   26.5309  -20.3402  -12.9089 N   0  0  0  0  0  0  0  0  0  0  0  0
   27.3363  -19.6162  -13.8908 C   0  0  1  0  0  0  0  0  0  0  0  0
   28.6593  -20.2907  -14.1567 C   0  0  0  0  0  0  0  0  0  0  0  0
   29.5806  -20.6096  -12.6255 S   0  0  0  0  0  0  0  0  0  0  0  0
   26.5625  -19.3849  -15.1069 C   0  0  0  0  0  0  0  0  0  0  0  0
   26.0382  -20.4038  -15.7086 O   0  0  0  0  0  0  0  0  0  0  0  0
   23.1448  -15.8457  -15.0787 C   0  0  0  0  0  0  0  0  0  0  0  0
   23.4392  -17.1538  -15.7866 C   0  0  0  0  0  0  0  0  0  0  0  0
   24.5080  -16.9084  -16.8038 C   0  0  2  0  0  0  0  0  0  0  0  0
   23.8275  -16.6015  -18.1289 C   0  0  0  0  0  0  0  0  0  0  0  0
   25.4715  -18.0619  -16.9438 C   0  0  2  0  0  0  0  0  0  0  0  0
   26.3027  -18.1550  -15.7248 N   0  0  0  0  0  0  0  0  0  0  0  0
   26.4068  -17.9416  -18.0665 C   0  0  0  0  0  0  0  0  0  0  0  0
   27.4289  -17.1910  -18.0390 O   0  0  0  0  0  0  0  0  0  0  0  0
   26.2021  -18.6626  -19.2172 O   0  0  0  0  0  0  0  0  0  0  0  0
  1  2  1  0
  2  3  1  0
  3  5  1  0
  3  4  1  6
  5  7  1  0
  5  6  1  1
  7  9  1  0
  8  7  2  0
  9 10  1  0
 10 13  1  0
 10 11  1  6
 11 12  1  0
 13 20  1  0
 14 13  2  0
 15 16  1  0
 17 19  1  0
 17 16  1  0
 17 18  1  6
 19 21  1  0
 19 20  1  1
 21 22  2  0
 21 23  1  0
M  END
$$$$
