ICI.pdb
     RDKit          3D

 23 22  0  0  1  0  0  0  0  0999 V2000
   17.9297  -13.0523  -20.7437 C   0  0  0  0  0  0  0  0  0  0  0  0
   18.8591  -13.2665  -19.5309 C   0  0  0  0  0  0  0  0  0  0  0  0
   18.7188  -12.0490  -18.6360 C   0  0  2  0  0  0  0  0  0  0  0  0
   19.0125  -10.8077  -19.5031 C   0  0  0  0  0  0  0  0  0  0  0  0
   19.5052  -12.0657  -17.3883 C   0  0  2  0  0  0  0  0  0  0  0  0
   19.1632  -13.3116  -16.6869 N   0  0  0  0  0  0  0  0  0  0  0  0
   19.4040  -10.9089  -16.4970 C   0  0  0  0  0  0  0  0  0  0  0  0
   18.2774  -10.6970  -15.9239 O   0  0  0  0  0  0  0  0  0  0  0  0
   20.4382  -10.0140  -16.2134 N   0  0  0  0  0  0  0  0  0  0  0  0
   20.3450   -8.7366  -15.5087 C   0  0  1  0  0  0  0  0  0  0  0  0
   21.5116   -8.5076  -14.5800 C   0  0  0  0  0  0  0  0  0  0  0  0
   21.5099   -6.8304  -13.8857 S   0  0  0  0  0  0  0  0  0  0  0  0
   20.1553   -7.6469  -16.4614 C   0  0  0  0  0  0  0  0  0  0  0  0
   20.9587   -7.5636  -17.4726 O   0  0  0  0  0  0  0  0  0  0  0  0
   17.1300   -5.2220  -20.6097 C   0  0  0  0  0  0  0  0  0  0  0  0
   18.0568   -4.7535  -19.5048 C   0  0  0  0  0  0  0  0  0  0  0  0
   18.2332   -5.8751  -18.5311 C   0  0  2  0  0  0  0  0  0  0  0  0
   16.8567   -6.2613  -18.0122 C   0  0  0  0  0  0  0  0  0  0  0  0
   19.1650   -5.5339  -17.3938 C   0  0  2  0  0  0  0  0  0  0  0  0
   19.1759   -6.6464  -16.4202 N   0  0  0  0  0  0  0  0  0  0  0  0
   18.7902   -4.3348  -16.6379 C   0  0  0  0  0  0  0  0  0  0  0  0
   18.1641   -4.3785  -15.5356 O   0  0  0  0  0  0  0  0  0  0  0  0
   19.1181   -3.0882  -17.1116 O   0  0  0  0  0  0  0  0  0  0  0  0
  1  2  1  0
  2  3  1  0
  3  5  1  0
  3  4  1  6
  5  7  1  0
  5  6  1  1
  7  9  1  0
  8  7  2  0
  9 10  1  0
 10 13  1  0
 10 11  1  6
 11 12  1  0
 13 20  1  0
 14 13  2  0
 15 16  1  0
 17 19  1  0
 17 16  1  0
 17 18  1  1
 19 21  1  0
 19 20  1  1
 21 22  2  0
 21 23  1  0
M  END
$$$$
