ICI.pdb
     RDKit          3D

 23 22  0  0  1  0  0  0  0  0999 V2000
   12.9849  -12.6280  -15.7619 C   0  0  0  0  0  0  0  0  0  0  0  0
   13.5349  -13.4303  -14.5643 C   0  0  0  0  0  0  0  0  0  0  0  0
   14.2592  -12.4499  -13.6605 C   0  0  2  0  0  0  0  0  0  0  0  0
   13.2693  -11.3138  -13.3315 C   0  0  0  0  0  0  0  0  0  0  0  0
   15.5542  -11.9456  -14.1545 C   0  0  2  0  0  0  0  0  0  0  0  0
   16.4108  -13.1196  -14.3766 N   0  0  0  0  0  0  0  0  0  0  0  0
   16.2433  -10.9275  -13.3600 C   0  0  0  0  0  0  0  0  0  0  0  0
   16.5630  -11.2290  -12.1560 O   0  0  0  0  0  0  0  0  0  0  0  0
   16.5875   -9.6496  -13.8066 N   0  0  0  0  0  0  0  0  0  0  0  0
   17.2289   -8.5803  -13.0438 C   0  0  1  0  0  0  0  0  0  0  0  0
   18.1619   -7.7514  -13.8914 C   0  0  0  0  0  0  0  0  0  0  0  0
   19.5500   -7.0890  -12.9272 S   0  0  0  0  0  0  0  0  0  0  0  0
   16.2227   -7.7771  -12.3557 C   0  0  0  0  0  0  0  0  0  0  0  0
   15.1421   -7.4612  -12.9940 O   0  0  0  0  0  0  0  0  0  0  0  0
   13.2157   -6.9257   -7.2667 C   0  0  0  0  0  0  0  0  0  0  0  0
   13.7557   -6.1566   -8.4567 C   0  0  0  0  0  0  0  0  0  0  0  0
   14.7387   -7.0272   -9.1730 C   0  0  2  0  0  0  0  0  0  0  0  0
   15.9126   -7.2708   -8.2373 C   0  0  0  0  0  0  0  0  0  0  0  0
   15.2036   -6.4438  -10.4852 C   0  0  2  0  0  0  0  0  0  0  0  0
   16.2789   -7.2911  -11.0432 N   0  0  0  0  0  0  0  0  0  0  0  0
   15.7604   -5.0910  -10.3872 C   0  0  0  0  0  0  0  0  0  0  0  0
   15.0475   -4.0617  -10.1839 O   0  0  0  0  0  0  0  0  0  0  0  0
   17.1129   -4.8892  -10.5124 O   0  0  0  0  0  0  0  0  0  0  0  0
  1  2  1  0
  2  3  1  0
  3  5  1  0
  3  4  1  6
  5  7  1  0
  5  6  1  1
  7  9  1  0
  8  7  2  0
  9 10  1  0
 10 13  1  0
 10 11  1  6
 11 12  1  0
 13 20  1  0
 14 13  2  0
 15 16  1  0
 17 19  1  0
 17 16  1  0
 17 18  1  1
 19 21  1  0
 19 20  1  1
 21 22  2  0
 21 23  1  0
M  END
$$$$
