ICI.pdb
     RDKit          3D

 23 22  0  0  1  0  0  0  0  0999 V2000
   18.1822  -10.3475  -20.4733 C   0  0  0  0  0  0  0  0  0  0  0  0
   18.8679  -10.9378  -19.2236 C   0  0  0  0  0  0  0  0  0  0  0  0
   18.8316   -9.8715  -18.1445 C   0  0  2  0  0  0  0  0  0  0  0  0
   19.5414   -8.6243  -18.7097 C   0  0  0  0  0  0  0  0  0  0  0  0
   19.3518  -10.2672  -16.8223 C   0  0  2  0  0  0  0  0  0  0  0  0
   18.6077  -11.4678  -16.4146 N   0  0  0  0  0  0  0  0  0  0  0  0
   19.3616   -9.2614  -15.7589 C   0  0  0  0  0  0  0  0  0  0  0  0
   18.2309   -8.8768  -15.2940 O   0  0  0  0  0  0  0  0  0  0  0  0
   20.5055   -8.6850  -15.2019 N   0  0  0  0  0  0  0  0  0  0  0  0
   20.5722   -7.6499  -14.1719 C   0  0  1  0  0  0  0  0  0  0  0  0
   21.4416   -8.0550  -13.0073 C   0  0  0  0  0  0  0  0  0  0  0  0
   21.6632   -6.7001  -11.8197 S   0  0  0  0  0  0  0  0  0  0  0  0
   20.9710   -6.3755  -14.7616 C   0  0  0  0  0  0  0  0  0  0  0  0
   22.0087   -6.3503  -15.5346 O   0  0  0  0  0  0  0  0  0  0  0  0
   18.1988   -2.9222  -17.6525 C   0  0  0  0  0  0  0  0  0  0  0  0
   19.3470   -3.7496  -17.1082 C   0  0  0  0  0  0  0  0  0  0  0  0
   19.8346   -3.1070  -15.8486 C   0  0  2  0  0  0  0  0  0  0  0  0
   20.3111   -1.7051  -16.1959 C   0  0  0  0  0  0  0  0  0  0  0  0
   20.9237   -3.8951  -15.1623 C   0  0  2  0  0  0  0  0  0  0  0  0
   20.3477   -5.1324  -14.5940 N   0  0  0  0  0  0  0  0  0  0  0  0
   21.5703   -3.1970  -14.0468 C   0  0  0  0  0  0  0  0  0  0  0  0
   22.5550   -2.4120  -14.1986 O   0  0  0  0  0  0  0  0  0  0  0  0
   21.1143   -3.3731  -12.7635 O   0  0  0  0  0  0  0  0  0  0  0  0
  1  2  1  0
  2  3  1  0
  3  5  1  0
  3  4  1  6
  5  7  1  0
  5  6  1  1
  7  9  1  0
  8  7  2  0
  9 10  1  0
 10 13  1  0
 10 11  1  1
 11 12  1  0
 13 20  1  0
 14 13  2  0
 15 16  1  0
 17 19  1  0
 17 16  1  0
 17 18  1  6
 19 21  1  0
 19 20  1  1
 21 22  2  0
 21 23  1  0
M  END
$$$$
