ICI.pdb
     RDKit          3D

 23 22  0  0  1  0  0  0  0  0999 V2000
   19.7456  -21.5581  -12.3934 C   0  0  0  0  0  0  0  0  0  0  0  0
   20.8311  -21.8034  -11.3247 C   0  0  0  0  0  0  0  0  0  0  0  0
   22.0368  -20.9652  -11.7074 C   0  0  2  0  0  0  0  0  0  0  0  0
   22.3719  -21.2902  -13.1774 C   0  0  0  0  0  0  0  0  0  0  0  0
   23.2117  -21.0748  -10.8224 C   0  0  2  0  0  0  0  0  0  0  0  0
   22.7439  -20.7914   -9.4578 N   0  0  0  0  0  0  0  0  0  0  0  0
   24.3972  -20.2825  -11.1532 C   0  0  0  0  0  0  0  0  0  0  0  0
   24.4425  -19.0745  -10.7274 O   0  0  0  0  0  0  0  0  0  0  0  0
   25.4911  -20.7353  -11.8943 N   0  0  0  0  0  0  0  0  0  0  0  0
   26.6850  -19.9822  -12.2743 C   0  0  1  0  0  0  0  0  0  0  0  0
   27.9172  -20.4534  -11.5425 C   0  0  0  0  0  0  0  0  0  0  0  0
   27.6939  -22.1071  -10.8280 S   0  0  0  0  0  0  0  0  0  0  0  0
   26.8478  -19.9918  -13.7249 C   0  0  0  0  0  0  0  0  0  0  0  0
   26.5268  -21.0636  -14.3755 O   0  0  0  0  0  0  0  0  0  0  0  0
   24.6258  -15.4612  -16.6163 C   0  0  0  0  0  0  0  0  0  0  0  0
   25.3117  -16.7824  -16.9047 C   0  0  0  0  0  0  0  0  0  0  0  0
   25.9517  -17.2660  -15.6422 C   0  0  2  0  0  0  0  0  0  0  0  0
   26.9154  -16.1895  -15.1674 C   0  0  0  0  0  0  0  0  0  0  0  0
   26.6560  -18.5913  -15.8027 C   0  0  2  0  0  0  0  0  0  0  0  0
   27.3206  -18.9487  -14.5314 N   0  0  0  0  0  0  0  0  0  0  0  0
   27.7040  -18.6041  -16.8279 C   0  0  0  0  0  0  0  0  0  0  0  0
   28.8017  -17.9806  -16.7041 O   0  0  0  0  0  0  0  0  0  0  0  0
   27.5270  -19.3162  -17.9888 O   0  0  0  0  0  0  0  0  0  0  0  0
  1  2  1  0
  2  3  1  0
  3  5  1  0
  3  4  1  6
  5  7  1  0
  5  6  1  1
  7  9  1  0
  8  7  2  0
  9 10  1  0
 10 13  1  0
 10 11  1  1
 11 12  1  0
 13 20  1  0
 14 13  2  0
 15 16  1  0
 17 19  1  0
 17 16  1  0
 17 18  1  6
 19 21  1  0
 19 20  1  1
 21 22  2  0
 21 23  1  0
M  END
$$$$
