ICI.pdb
     RDKit          3D

 23 22  0  0  1  0  0  0  0  0999 V2000
   27.1351  -23.6590  -11.3025 C   0  0  0  0  0  0  0  0  0  0  0  0
   26.9811  -22.2380  -10.7216 C   0  0  0  0  0  0  0  0  0  0  0  0
   26.3559  -21.3755  -11.8022 C   0  0  2  0  0  0  0  0  0  0  0  0
   27.2450  -21.4976  -13.0566 C   0  0  0  0  0  0  0  0  0  0  0  0
   26.0833  -19.9726  -11.4373 C   0  0  2  0  0  0  0  0  0  0  0  0
   25.1993  -20.0029  -10.2630 N   0  0  0  0  0  0  0  0  0  0  0  0
   25.5592  -19.0824  -12.4743 C   0  0  0  0  0  0  0  0  0  0  0  0
   24.2864  -19.0044  -12.6030 O   0  0  0  0  0  0  0  0  0  0  0  0
   26.3329  -18.3032  -13.3376 N   0  0  0  0  0  0  0  0  0  0  0  0
   25.8638  -17.4022  -14.3887 C   0  0  1  0  0  0  0  0  0  0  0  0
   26.9721  -16.5417  -14.9431 C   0  0  0  0  0  0  0  0  0  0  0  0
   26.4772  -15.6949  -16.4706 S   0  0  0  0  0  0  0  0  0  0  0  0
   25.1587  -18.1550  -15.4218 C   0  0  0  0  0  0  0  0  0  0  0  0
   25.7062  -19.2333  -15.8826 O   0  0  0  0  0  0  0  0  0  0  0  0
   19.6562  -19.9657  -17.0181 C   0  0  0  0  0  0  0  0  0  0  0  0
   21.0722  -19.8118  -17.5381 C   0  0  0  0  0  0  0  0  0  0  0  0
   21.8681  -19.0581  -16.5203 C   0  0  2  0  0  0  0  0  0  0  0  0
   21.1101  -17.7818  -16.1891 C   0  0  0  0  0  0  0  0  0  0  0  0
   23.2745  -18.7508  -16.9741 C   0  0  2  0  0  0  0  0  0  0  0  0
   23.9179  -17.8490  -15.9951 N   0  0  0  0  0  0  0  0  0  0  0  0
   23.3617  -18.0728  -18.2712 C   0  0  0  0  0  0  0  0  0  0  0  0
   23.5428  -16.8229  -18.3885 O   0  0  0  0  0  0  0  0  0  0  0  0
   23.2504  -18.7916  -19.4359 O   0  0  0  0  0  0  0  0  0  0  0  0
  1  2  1  0
  2  3  1  0
  3  5  1  0
  3  4  1  6
  5  7  1  0
  5  6  1  1
  7  9  1  0
  8  7  2  0
  9 10  1  0
 10 13  1  0
 10 11  1  6
 11 12  1  0
 13 20  1  0
 14 13  2  0
 15 16  1  0
 17 19  1  0
 17 16  1  0
 17 18  1  6
 19 21  1  0
 19 20  1  1
 21 22  2  0
 21 23  1  0
M  END
$$$$
