ICI.pdb
     RDKit          3D

 23 22  0  0  1  0  0  0  0  0999 V2000
   18.9101  -11.8206  -19.5564 C   0  0  0  0  0  0  0  0  0  0  0  0
   18.4813  -12.0923  -18.0995 C   0  0  0  0  0  0  0  0  0  0  0  0
   18.3828  -10.7485  -17.4014 C   0  0  2  0  0  0  0  0  0  0  0  0
   19.7174  -10.0120  -17.6365 C   0  0  0  0  0  0  0  0  0  0  0  0
   17.9995  -10.7826  -15.9775 C   0  0  2  0  0  0  0  0  0  0  0  0
   16.6951  -11.4568  -15.9045 N   0  0  0  0  0  0  0  0  0  0  0  0
   17.9866   -9.5187  -15.2392 C   0  0  0  0  0  0  0  0  0  0  0  0
   17.1990   -8.5964  -15.6535 O   0  0  0  0  0  0  0  0  0  0  0  0
   18.7612   -9.2326  -14.1127 N   0  0  0  0  0  0  0  0  0  0  0  0
   18.7839   -7.9943  -13.3361 C   0  0  1  0  0  0  0  0  0  0  0  0
   18.4783   -8.2268  -11.8772 C   0  0  0  0  0  0  0  0  0  0  0  0
   17.0025   -9.2583  -11.6467 S   0  0  0  0  0  0  0  0  0  0  0  0
   20.0446   -7.2891  -13.5468 C   0  0  0  0  0  0  0  0  0  0  0  0
   21.1512   -7.9212  -13.3211 O   0  0  0  0  0  0  0  0  0  0  0  0
   21.8104   -5.7856  -17.9967 C   0  0  0  0  0  0  0  0  0  0  0  0
   21.7355   -6.2560  -16.5572 C   0  0  0  0  0  0  0  0  0  0  0  0
   21.7153   -5.0525  -15.6692 C   0  0  2  0  0  0  0  0  0  0  0  0
   22.9986   -4.2734  -15.9125 C   0  0  0  0  0  0  0  0  0  0  0  0
   21.5580   -5.3949  -14.2076 C   0  0  2  0  0  0  0  0  0  0  0  0
   20.2143   -5.9686  -13.9819 N   0  0  0  0  0  0  0  0  0  0  0  0
   21.6703   -4.2504  -13.2982 C   0  0  0  0  0  0  0  0  0  0  0  0
   20.6876   -3.5080  -12.9946 O   0  0  0  0  0  0  0  0  0  0  0  0
   22.8789   -3.9382  -12.7257 O   0  0  0  0  0  0  0  0  0  0  0  0
  1  2  1  0
  2  3  1  0
  3  5  1  0
  3  4  1  1
  5  7  1  0
  5  6  1  6
  7  9  1  0
  8  7  2  0
  9 10  1  0
 10 13  1  0
 10 11  1  1
 11 12  1  0
 13 20  1  0
 14 13  2  0
 15 16  1  0
 17 19  1  0
 17 16  1  0
 17 18  1  1
 19 21  1  0
 19 20  1  6
 21 22  2  0
 21 23  1  0
M  END
$$$$
