ICI.pdb
     RDKit          3D

 23 22  0  0  1  0  0  0  0  0999 V2000
   17.5436  -15.0482  -20.4914 C   0  0  0  0  0  0  0  0  0  0  0  0
   18.9636  -15.1982  -19.9068 C   0  0  0  0  0  0  0  0  0  0  0  0
   19.0858  -14.2092  -18.7625 C   0  0  2  0  0  0  0  0  0  0  0  0
   18.7095  -12.8198  -19.3164 C   0  0  0  0  0  0  0  0  0  0  0  0
   20.3747  -14.2013  -18.0453 C   0  0  2  0  0  0  0  0  0  0  0  0
   20.6094  -15.5753  -17.5778 N   0  0  0  0  0  0  0  0  0  0  0  0
   20.5519  -13.2336  -16.9615 C   0  0  0  0  0  0  0  0  0  0  0  0
   19.6373  -13.1702  -16.0658 O   0  0  0  0  0  0  0  0  0  0  0  0
   21.6413  -12.3714  -16.8177 N   0  0  0  0  0  0  0  0  0  0  0  0
   21.8173  -11.3135  -15.8243 C   0  0  1  0  0  0  0  0  0  0  0  0
   23.1409  -11.4144  -15.1075 C   0  0  0  0  0  0  0  0  0  0  0  0
   23.4001  -10.0328  -13.9589 S   0  0  0  0  0  0  0  0  0  0  0  0
   21.6010  -10.0056  -16.4356 C   0  0  0  0  0  0  0  0  0  0  0  0
   22.1664   -9.7539  -17.5723 O   0  0  0  0  0  0  0  0  0  0  0  0
   18.0056   -6.1070  -18.7091 C   0  0  0  0  0  0  0  0  0  0  0  0
   19.3019   -6.1139  -17.9225 C   0  0  0  0  0  0  0  0  0  0  0  0
   19.4868   -7.4757  -17.3319 C   0  0  2  0  0  0  0  0  0  0  0  0
   18.3057   -7.7486  -16.4135 C   0  0  0  0  0  0  0  0  0  0  0  0
   20.7943   -7.6309  -16.5939 C   0  0  2  0  0  0  0  0  0  0  0  0
   20.8278   -8.9521  -15.9314 N   0  0  0  0  0  0  0  0  0  0  0  0
   21.0189   -6.6395  -15.5373 C   0  0  0  0  0  0  0  0  0  0  0  0
   21.2129   -5.4083  -15.7726 O   0  0  0  0  0  0  0  0  0  0  0  0
   21.0229   -7.0233  -14.2187 O   0  0  0  0  0  0  0  0  0  0  0  0
  1  2  1  0
  2  3  1  0
  3  5  1  0
  3  4  1  6
  5  7  1  0
  5  6  1  1
  7  9  1  0
  8  7  2  0
  9 10  1  0
 10 13  1  0
 10 11  1  6
 11 12  1  0
 13 20  1  0
 14 13  2  0
 15 16  1  0
 17 19  1  0
 17 16  1  0
 17 18  1  1
 19 21  1  0
 19 20  1  1
 21 22  2  0
 21 23  1  0
M  END
$$$$
