ICI.pdb
     RDKit          3D

 23 22  0  0  1  0  0  0  0  0999 V2000
   19.2023  -17.8317  -22.2200 C   0  0  0  0  0  0  0  0  0  0  0  0
   20.6393  -17.4305  -21.8270 C   0  0  0  0  0  0  0  0  0  0  0  0
   20.5339  -16.2454  -20.8851 C   0  0  2  0  0  0  0  0  0  0  0  0
   19.7197  -15.1551  -21.6111 C   0  0  0  0  0  0  0  0  0  0  0  0
   21.8054  -15.7328  -20.3410 C   0  0  2  0  0  0  0  0  0  0  0  0
   22.5237  -16.8865  -19.7802 N   0  0  0  0  0  0  0  0  0  0  0  0
   21.7468  -14.6268  -19.3839 C   0  0  0  0  0  0  0  0  0  0  0  0
   20.6142  -14.3690  -18.8421 O   0  0  0  0  0  0  0  0  0  0  0  0
   22.8276  -13.8269  -19.0058 N   0  0  0  0  0  0  0  0  0  0  0  0
   22.8110  -12.6661  -18.1174 C   0  0  1  0  0  0  0  0  0  0  0  0
   24.1821  -12.3332  -17.5833 C   0  0  0  0  0  0  0  0  0  0  0  0
   24.8905  -13.7029  -16.6254 S   0  0  0  0  0  0  0  0  0  0  0  0
   22.1688  -11.5337  -18.7778 C   0  0  0  0  0  0  0  0  0  0  0  0
   22.5305  -11.2358  -19.9842 O   0  0  0  0  0  0  0  0  0  0  0  0
   16.9519   -9.4378  -20.3459 C   0  0  0  0  0  0  0  0  0  0  0  0
   18.3284   -8.9075  -19.9947 C   0  0  0  0  0  0  0  0  0  0  0  0
   19.1004  -10.0041  -19.3323 C   0  0  2  0  0  0  0  0  0  0  0  0
   18.3827  -10.3634  -18.0405 C   0  0  0  0  0  0  0  0  0  0  0  0
   20.5415   -9.6409  -19.0686 C   0  0  2  0  0  0  0  0  0  0  0  0
   21.1716  -10.7013  -18.2537 N   0  0  0  0  0  0  0  0  0  0  0  0
   20.7287   -8.3908  -18.3256 C   0  0  0  0  0  0  0  0  0  0  0  0
   21.0851   -8.3551  -17.1089 O   0  0  0  0  0  0  0  0  0  0  0  0
   20.5214   -7.1819  -18.9431 O   0  0  0  0  0  0  0  0  0  0  0  0
  1  2  1  0
  2  3  1  0
  3  5  1  0
  3  4  1  6
  5  7  1  0
  5  6  1  1
  7  9  1  0
  8  7  2  0
  9 10  1  0
 10 13  1  0
 10 11  1  6
 11 12  1  0
 13 20  1  0
 14 13  2  0
 15 16  1  0
 17 19  1  0
 17 16  1  0
 17 18  1  1
 19 21  1  0
 19 20  1  1
 21 22  2  0
 21 23  1  0
M  END
$$$$
