ICI.pdb
     RDKit          3D

 23 22  0  0  1  0  0  0  0  0999 V2000
   31.4715  -24.1553  -17.9016 C   0  0  0  0  0  0  0  0  0  0  0  0
   30.4334  -23.3421  -18.7025 C   0  0  0  0  0  0  0  0  0  0  0  0
   29.7680  -22.3829  -17.7330 C   0  0  2  0  0  0  0  0  0  0  0  0
   29.2188  -23.2236  -16.5623 C   0  0  0  0  0  0  0  0  0  0  0  0
   28.7518  -21.4805  -18.3061 C   0  0  2  0  0  0  0  0  0  0  0  0
   29.4440  -20.6261  -19.2820 N   0  0  0  0  0  0  0  0  0  0  0  0
   27.9412  -20.6844  -17.3833 C   0  0  0  0  0  0  0  0  0  0  0  0
   28.5072  -19.6952  -16.7968 O   0  0  0  0  0  0  0  0  0  0  0  0
   26.5946  -20.9101  -17.0891 N   0  0  0  0  0  0  0  0  0  0  0  0
   25.7293  -20.1256  -16.2102 C   0  0  1  0  0  0  0  0  0  0  0  0
   24.4787  -19.6532  -16.9093 C   0  0  0  0  0  0  0  0  0  0  0  0
   23.6016  -18.3844  -15.9520 S   0  0  0  0  0  0  0  0  0  0  0  0
   25.4488  -20.8671  -14.9844 C   0  0  0  0  0  0  0  0  0  0  0  0
   25.2800  -22.1479  -15.0622 O   0  0  0  0  0  0  0  0  0  0  0  0
   25.8701  -20.6036   -8.9554 C   0  0  0  0  0  0  0  0  0  0  0  0
   25.5035  -21.5308  -10.0978 C   0  0  0  0  0  0  0  0  0  0  0  0
   25.9180  -20.8836  -11.3810 C   0  0  2  0  0  0  0  0  0  0  0  0
   25.9805  -19.3823  -11.1457 C   0  0  0  0  0  0  0  0  0  0  0  0
   25.0035  -21.2135  -12.5356 C   0  0  2  0  0  0  0  0  0  0  0  0
   25.3394  -20.3497  -13.6874 N   0  0  0  0  0  0  0  0  0  0  0  0
   23.5788  -20.9967  -12.2656 C   0  0  0  0  0  0  0  0  0  0  0  0
   22.8896  -21.7629  -11.5260 O   0  0  0  0  0  0  0  0  0  0  0  0
   22.9260  -19.9225  -12.8184 O   0  0  0  0  0  0  0  0  0  0  0  0
  1  2  1  0
  2  3  1  0
  3  5  1  0
  3  4  1  1
  5  7  1  0
  5  6  1  6
  7  9  1  0
  8  7  2  0
  9 10  1  0
 10 13  1  0
 10 11  1  6
 11 12  1  0
 13 20  1  0
 14 13  2  0
 15 16  1  0
 17 19  1  0
 17 16  1  0
 17 18  1  1
 19 21  1  0
 19 20  1  6
 21 22  2  0
 21 23  1  0
M  END
$$$$
