ICI.pdb
     RDKit          3D

 23 22  0  0  1  0  0  0  0  0999 V2000
   16.7198  -23.4365  -11.6564 C   0  0  0  0  0  0  0  0  0  0  0  0
   17.9539  -23.9742  -10.9025 C   0  0  0  0  0  0  0  0  0  0  0  0
   17.4475  -24.6957   -9.6673 C   0  0  2  0  0  0  0  0  0  0  0  0
   16.5160  -23.7211   -8.9179 C   0  0  0  0  0  0  0  0  0  0  0  0
   18.4774  -25.2812   -8.7887 C   0  0  2  0  0  0  0  0  0  0  0  0
   19.2876  -26.1799   -9.6238 N   0  0  0  0  0  0  0  0  0  0  0  0
   18.0362  -25.9484   -7.5628 C   0  0  0  0  0  0  0  0  0  0  0  0
   17.3818  -27.0436   -7.6848 O   0  0  0  0  0  0  0  0  0  0  0  0
   18.2729  -25.4922   -6.2641 N   0  0  0  0  0  0  0  0  0  0  0  0
   17.8791  -26.1292   -5.0087 C   0  0  1  0  0  0  0  0  0  0  0  0
   18.9072  -25.9378   -3.9213 C   0  0  0  0  0  0  0  0  0  0  0  0
   18.5279  -26.9233   -2.4448 S   0  0  0  0  0  0  0  0  0  0  0  0
   16.5457  -25.6854   -4.6137 C   0  0  0  0  0  0  0  0  0  0  0  0
   16.2504  -24.4314   -4.7366 O   0  0  0  0  0  0  0  0  0  0  0  0
   10.7237  -27.2991   -4.5728 C   0  0  0  0  0  0  0  0  0  0  0  0
   11.7230  -26.3526   -3.9365 C   0  0  0  0  0  0  0  0  0  0  0  0
   13.1004  -26.8072   -4.3019 C   0  0  2  0  0  0  0  0  0  0  0  0
   13.2768  -28.2241   -3.7781 C   0  0  0  0  0  0  0  0  0  0  0  0
   14.1850  -25.8971   -3.7787 C   0  0  2  0  0  0  0  0  0  0  0  0
   15.5065  -26.4743   -4.1040 N   0  0  0  0  0  0  0  0  0  0  0  0
   14.1708  -25.7054   -2.3251 C   0  0  0  0  0  0  0  0  0  0  0  0
   14.9471  -26.3261   -1.5371 O   0  0  0  0  0  0  0  0  0  0  0  0
   13.2926  -24.8180   -1.7533 O   0  0  0  0  0  0  0  0  0  0  0  0
  1  2  1  0
  2  3  1  0
  3  5  1  0
  3  4  1  1
  5  7  1  0
  5  6  1  6
  7  9  1  0
  8  7  2  0
  9 10  1  0
 10 13  1  0
 10 11  1  1
 11 12  1  0
 13 20  1  0
 14 13  2  0
 15 16  1  0
 17 19  1  0
 17 16  1  0
 17 18  1  1
 19 21  1  0
 19 20  1  1
 21 22  2  0
 21 23  1  0
M  END
$$$$
