GHP.pdb
     RDKit          3D

 22 23  0  0  1  0  0  0  0  0999 V2000
   16.9430  -19.9837    2.5711 N   0  0  0  0  0  0  0  0  0  0  0  0
   16.2383  -19.0901    3.4419 C   0  0  0  0  0  0  0  0  0  0  0  0
   17.2073  -18.1450    4.1049 C   0  0  0  0  0  0  0  0  0  0  0  0
   18.4176  -18.3000    3.9197 O   0  0  0  0  0  0  0  0  0  0  0  0
   16.7698  -17.0881    4.9312 N   0  0  0  0  0  0  0  0  0  0  0  0
   17.6148  -16.2486    5.6500 C   0  0  1  0  0  0  0  0  0  0  0  0
   17.3351  -14.7508    5.6289 C   0  0  0  0  0  0  0  0  0  0  0  0
   18.4420  -14.0177    6.2559 C   0  0  0  0  0  0  0  0  0  0  0  0
   18.7582  -13.6393    7.5217 C   0  0  0  0  0  0  0  0  0  0  0  0
   19.9448  -12.9775    7.5206 N   0  0  0  0  0  0  0  0  0  0  0  0
   20.3887  -12.9318    6.2575 C   0  0  0  0  0  0  0  0  0  0  0  0
   19.5034  -13.5462    5.5025 N   0  0  0  0  0  0  0  0  0  0  0  0
   18.2054  -16.7177    6.9023 C   0  0  0  0  0  0  0  0  0  0  0  0
   17.3666  -16.9703    7.8440 O   0  0  0  0  0  0  0  0  0  0  0  0
   19.5894  -16.8987    7.1246 N   0  0  0  0  0  0  0  0  0  0  0  0
   20.6456  -16.6688    6.1788 C   0  0  0  0  0  0  0  0  0  0  0  0
   21.8886  -17.3618    6.7651 C   0  0  0  0  0  0  0  0  0  0  0  0
   21.6388  -17.2707    8.2283 C   0  0  0  0  0  0  0  0  0  0  0  0
   20.1609  -17.3529    8.3999 C   0  0  1  0  0  0  0  0  0  0  0  0
   19.7021  -16.4945    9.5134 C   0  0  0  0  0  0  0  0  0  0  0  0
   19.1330  -15.4029    9.2717 O   0  0  0  0  0  0  0  0  0  0  0  0
   19.8772  -16.8519   10.8382 O   0  0  0  0  0  0  0  0  0  0  0  0
  2  1  1  0
  3  4  2  0
  3  2  1  0
  5  3  1  0
  6  5  1  0
  6 13  1  0
  6  7  1  1
  8  7  1  0
  9  8  2  0
 10 11  1  0
 10  9  1  0
 11 12  2  0
 12  8  1  0
 13 15  1  0
 14 13  2  0
 15 16  1  0
 15 19  1  0
 16 17  1  0
 17 18  1  0
 19 18  1  0
 20 22  1  0
 19 20  1  1
 21 20  2  0
M  END
$$$$
