GHP.pdb
     RDKit          3D

 22 23  0  0  1  0  0  0  0  0999 V2000
   23.7323  -13.5722  -17.3323 N   0  0  0  0  0  0  0  0  0  0  0  0
   24.0346  -12.4720  -16.4653 C   0  0  0  0  0  0  0  0  0  0  0  0
   23.2992  -11.2382  -16.9223 C   0  0  0  0  0  0  0  0  0  0  0  0
   22.8074  -11.2182  -18.0540 O   0  0  0  0  0  0  0  0  0  0  0  0
   23.1572  -10.1055  -16.0928 N   0  0  0  0  0  0  0  0  0  0  0  0
   22.3981   -8.9847  -16.4132 C   0  0  1  0  0  0  0  0  0  0  0  0
   21.0066   -9.1968  -16.9972 C   0  0  0  0  0  0  0  0  0  0  0  0
   20.1221   -9.8056  -15.9959 C   0  0  0  0  0  0  0  0  0  0  0  0
   19.9775  -11.0445  -15.4577 C   0  0  0  0  0  0  0  0  0  0  0  0
   18.9799  -11.0313  -14.5353 N   0  0  0  0  0  0  0  0  0  0  0  0
   18.4861   -9.7872  -14.4818 C   0  0  0  0  0  0  0  0  0  0  0  0
   19.1581   -9.0553  -15.3445 N   0  0  0  0  0  0  0  0  0  0  0  0
   22.5150   -7.7759  -15.5995 C   0  0  0  0  0  0  0  0  0  0  0  0
   22.7160   -7.9759  -14.3450 O   0  0  0  0  0  0  0  0  0  0  0  0
   22.4209   -6.4559  -16.0960 N   0  0  0  0  0  0  0  0  0  0  0  0
   22.1730   -6.0687  -17.4567 C   0  0  0  0  0  0  0  0  0  0  0  0
   22.5411   -4.5765  -17.5395 C   0  0  0  0  0  0  0  0  0  0  0  0
   22.2565   -4.1052  -16.1580 C   0  0  0  0  0  0  0  0  0  0  0  0
   22.5582   -5.2553  -15.2599 C   0  0  1  0  0  0  0  0  0  0  0  0
   21.6199   -5.3039  -14.1177 C   0  0  0  0  0  0  0  0  0  0  0  0
   20.5912   -6.0193  -14.1798 O   0  0  0  0  0  0  0  0  0  0  0  0
   21.8332   -4.5788  -12.9591 O   0  0  0  0  0  0  0  0  0  0  0  0
  2  1  1  0
  3  4  2  0
  3  2  1  0
  5  3  1  0
  6  5  1  0
  6 13  1  0
  6  7  1  1
  8  7  1  0
  9  8  2  0
 10 11  1  0
 10  9  1  0
 11 12  2  0
 12  8  1  0
 13 15  1  0
 14 13  2  0
 15 16  1  0
 15 19  1  0
 16 17  1  0
 17 18  1  0
 19 18  1  0
 20 22  1  0
 19 20  1  1
 21 20  2  0
M  END
$$$$
