GHP.pdb
     RDKit          3D

 22 23  0  0  1  0  0  0  0  0999 V2000
   19.3241  -11.7183    6.3911 N   0  0  0  0  0  0  0  0  0  0  0  0
   19.8724  -13.0257    6.1823 C   0  0  0  0  0  0  0  0  0  0  0  0
   18.7739  -14.0573    6.2183 C   0  0  0  0  0  0  0  0  0  0  0  0
   17.6454  -13.7186    6.5854 O   0  0  0  0  0  0  0  0  0  0  0  0
   18.9996  -15.3991    5.8443 N   0  0  0  0  0  0  0  0  0  0  0  0
   18.0771  -16.4277    6.0063 C   0  0  1  0  0  0  0  0  0  0  0  0
   17.4720  -17.0594    4.7585 C   0  0  0  0  0  0  0  0  0  0  0  0
   17.5389  -16.1220    3.6303 C   0  0  0  0  0  0  0  0  0  0  0  0
   18.0234  -14.8670    3.4422 C   0  0  0  0  0  0  0  0  0  0  0  0
   17.8220  -14.4849    2.1540 N   0  0  0  0  0  0  0  0  0  0  0  0
   17.2103  -15.4924    1.5173 C   0  0  0  0  0  0  0  0  0  0  0  0
   17.0393  -16.4660    2.3858 N   0  0  0  0  0  0  0  0  0  0  0  0
   18.2215  -17.3586    7.1241 C   0  0  0  0  0  0  0  0  0  0  0  0
   19.4329  -17.6546    7.4390 O   0  0  0  0  0  0  0  0  0  0  0  0
   17.1474  -17.9279    7.8451 N   0  0  0  0  0  0  0  0  0  0  0  0
   15.7514  -17.6372    7.6730 C   0  0  0  0  0  0  0  0  0  0  0  0
   15.0499  -18.2072    8.9188 C   0  0  0  0  0  0  0  0  0  0  0  0
   15.9330  -19.3470    9.2831 C   0  0  0  0  0  0  0  0  0  0  0  0
   17.3135  -18.9378    8.8996 C   0  0  1  0  0  0  0  0  0  0  0  0
   18.0950  -20.0902    8.4011 C   0  0  0  0  0  0  0  0  0  0  0  0
   18.2874  -20.2332    7.1696 O   0  0  0  0  0  0  0  0  0  0  0  0
   18.6348  -21.0369    9.2532 O   0  0  0  0  0  0  0  0  0  0  0  0
  2  1  1  0
  3  4  2  0
  3  2  1  0
  5  3  1  0
  6  5  1  0
  6 13  1  0
  6  7  1  6
  8  7  1  0
  9  8  2  0
 10 11  1  0
 10  9  1  0
 11 12  2  0
 12  8  1  0
 13 15  1  0
 14 13  2  0
 15 16  1  0
 15 19  1  0
 16 17  1  0
 17 18  1  0
 19 18  1  0
 20 22  1  0
 19 20  1  6
 21 20  2  0
M  END
$$$$
