GHP.pdb
     RDKit          3D

 22 23  0  0  1  0  0  0  0  0999 V2000
   17.0590  -13.2092    3.2700 N   0  0  0  0  0  0  0  0  0  0  0  0
   17.6586  -14.4793    2.9855 C   0  0  0  0  0  0  0  0  0  0  0  0
   17.4376  -15.4238    4.1392 C   0  0  0  0  0  0  0  0  0  0  0  0
   16.9952  -14.9788    5.2018 O   0  0  0  0  0  0  0  0  0  0  0  0
   17.7223  -16.8022    4.0384 N   0  0  0  0  0  0  0  0  0  0  0  0
   17.6351  -17.7037    5.0943 C   0  0  1  0  0  0  0  0  0  0  0  0
   16.9957  -19.0623    4.8342 C   0  0  0  0  0  0  0  0  0  0  0  0
   15.7709  -18.9043    4.0399 C   0  0  0  0  0  0  0  0  0  0  0  0
   14.8934  -17.8944    3.8049 C   0  0  0  0  0  0  0  0  0  0  0  0
   13.9244  -18.3169    2.9513 N   0  0  0  0  0  0  0  0  0  0  0  0
   14.1799  -19.5944    2.6394 C   0  0  0  0  0  0  0  0  0  0  0  0
   15.2727  -19.9492    3.2808 N   0  0  0  0  0  0  0  0  0  0  0  0
   18.6896  -17.7356    6.1063 C   0  0  0  0  0  0  0  0  0  0  0  0
   19.8906  -17.6788    5.6496 O   0  0  0  0  0  0  0  0  0  0  0  0
   18.4695  -17.8237    7.4996 N   0  0  0  0  0  0  0  0  0  0  0  0
   17.1976  -17.8262    8.1669 C   0  0  0  0  0  0  0  0  0  0  0  0
   17.5044  -17.5558    9.6508 C   0  0  0  0  0  0  0  0  0  0  0  0
   18.8640  -18.1392    9.8021 C   0  0  0  0  0  0  0  0  0  0  0  0
   19.5464  -17.9390    8.4928 C   0  0  1  0  0  0  0  0  0  0  0  0
   20.4339  -19.0776    8.1714 C   0  0  0  0  0  0  0  0  0  0  0  0
   19.9916  -20.0544    7.5201 O   0  0  0  0  0  0  0  0  0  0  0  0
   21.7592  -19.1117    8.5665 O   0  0  0  0  0  0  0  0  0  0  0  0
  2  1  1  0
  3  4  2  0
  3  2  1  0
  5  3  1  0
  6  5  1  0
  6 13  1  0
  6  7  1  6
  8  7  1  0
  9  8  2  0
 10 11  1  0
 10  9  1  0
 11 12  2  0
 12  8  1  0
 13 15  1  0
 14 13  2  0
 15 16  1  0
 15 19  1  0
 16 17  1  0
 17 18  1  0
 19 18  1  0
 20 22  1  0
 19 20  1  6
 21 20  2  0
M  END
$$$$
