GHP.pdb
     RDKit          3D

 22 23  0  0  1  0  0  0  0  0999 V2000
   25.9521  -24.6216  -16.1547 N   0  0  0  0  0  0  0  0  0  0  0  0
   25.2504  -23.4900  -16.6847 C   0  0  0  0  0  0  0  0  0  0  0  0
   24.2989  -22.9431  -15.6515 C   0  0  0  0  0  0  0  0  0  0  0  0
   23.9980  -23.6454  -14.6825 O   0  0  0  0  0  0  0  0  0  0  0  0
   23.7427  -21.6509  -15.7612 N   0  0  0  0  0  0  0  0  0  0  0  0
   22.7425  -21.1511  -14.9334 C   0  0  1  0  0  0  0  0  0  0  0  0
   23.1361  -20.1726  -13.8335 C   0  0  0  0  0  0  0  0  0  0  0  0
   24.2070  -20.7418  -13.0057 C   0  0  0  0  0  0  0  0  0  0  0  0
   25.5539  -20.8743  -13.1224 C   0  0  0  0  0  0  0  0  0  0  0  0
   26.0532  -21.4841  -12.0157 N   0  0  0  0  0  0  0  0  0  0  0  0
   25.0295  -21.7417  -11.1911 C   0  0  0  0  0  0  0  0  0  0  0  0
   23.9322  -21.3046  -11.7710 N   0  0  0  0  0  0  0  0  0  0  0  0
   21.4053  -20.9173  -15.4758 C   0  0  0  0  0  0  0  0  0  0  0  0
   21.3516  -20.1086  -16.4744 O   0  0  0  0  0  0  0  0  0  0  0  0
   20.2190  -21.5056  -14.9815 N   0  0  0  0  0  0  0  0  0  0  0  0
   20.1240  -22.5196  -13.9687 C   0  0  0  0  0  0  0  0  0  0  0  0
   18.6925  -23.0763  -14.0687 C   0  0  0  0  0  0  0  0  0  0  0  0
   17.9320  -21.9002  -14.5689 C   0  0  0  0  0  0  0  0  0  0  0  0
   18.8718  -21.1430  -15.4428 C   0  0  1  0  0  0  0  0  0  0  0  0
   18.6546  -19.6847  -15.3267 C   0  0  0  0  0  0  0  0  0  0  0  0
   19.4925  -18.9708  -14.7250 O   0  0  0  0  0  0  0  0  0  0  0  0
   17.5432  -19.0613  -15.8651 O   0  0  0  0  0  0  0  0  0  0  0  0
  2  1  1  0
  3  4  2  0
  3  2  1  0
  5  3  1  0
  6  5  1  0
  6 13  1  0
  6  7  1  6
  8  7  1  0
  9  8  2  0
 10 11  1  0
 10  9  1  0
 11 12  2  0
 12  8  1  0
 13 15  1  0
 14 13  2  0
 15 16  1  0
 15 19  1  0
 16 17  1  0
 17 18  1  0
 19 18  1  0
 20 22  1  0
 19 20  1  1
 21 20  2  0
M  END
$$$$
