GHP.pdb
     RDKit          3D

 22 23  0  0  1  0  0  0  0  0999 V2000
   38.0309  -28.8233  -22.6018 N   0  0  0  0  0  0  0  0  0  0  0  0
   36.8141  -29.4386  -22.1610 C   0  0  0  0  0  0  0  0  0  0  0  0
   36.5995  -29.1644  -20.6944 C   0  0  0  0  0  0  0  0  0  0  0  0
   37.4166  -28.4648  -20.0896 O   0  0  0  0  0  0  0  0  0  0  0  0
   35.4907  -29.6851  -19.9937 N   0  0  0  0  0  0  0  0  0  0  0  0
   35.3313  -29.6224  -18.6132 C   0  0  1  0  0  0  0  0  0  0  0  0
   34.0238  -29.0677  -18.0608 C   0  0  0  0  0  0  0  0  0  0  0  0
   33.7129  -27.7775  -18.6890 C   0  0  0  0  0  0  0  0  0  0  0  0
   34.3476  -26.9442  -19.5539 C   0  0  0  0  0  0  0  0  0  0  0  0
   33.5629  -25.8656  -19.8123 N   0  0  0  0  0  0  0  0  0  0  0  0
   32.4277  -26.0068  -19.1153 C   0  0  0  0  0  0  0  0  0  0  0  0
   32.5094  -27.1375  -18.4473 N   0  0  0  0  0  0  0  0  0  0  0  0
   35.9358  -30.6509  -17.7684 C   0  0  0  0  0  0  0  0  0  0  0  0
   35.6904  -31.8637  -18.1195 O   0  0  0  0  0  0  0  0  0  0  0  0
   36.7392  -30.3951  -16.6341 N   0  0  0  0  0  0  0  0  0  0  0  0
   37.1542  -29.1074  -16.1518 C   0  0  0  0  0  0  0  0  0  0  0  0
   38.2942  -29.3827  -15.1550 C   0  0  0  0  0  0  0  0  0  0  0  0
   37.9350  -30.7270  -14.6300 C   0  0  0  0  0  0  0  0  0  0  0  0
   37.2718  -31.4450  -15.7547 C   0  0  1  0  0  0  0  0  0  0  0  0
   36.1833  -32.3185  -15.2652 C   0  0  0  0  0  0  0  0  0  0  0  0
   36.4540  -33.4258  -14.7414 O   0  0  0  0  0  0  0  0  0  0  0  0
   34.8512  -31.9584  -15.3622 O   0  0  0  0  0  0  0  0  0  0  0  0
  2  1  1  0
  3  4  2  0
  3  2  1  0
  5  3  1  0
  6  5  1  0
  6 13  1  0
  6  7  1  6
  8  7  1  0
  9  8  2  0
 10 11  1  0
 10  9  1  0
 11 12  2  0
 12  8  1  0
 13 15  1  0
 14 13  2  0
 15 16  1  0
 15 19  1  0
 16 17  1  0
 17 18  1  0
 19 18  1  0
 20 22  1  0
 19 20  1  1
 21 20  2  0
M  END
$$$$
