GHP.pdb
     RDKit          3D

 22 23  0  0  1  0  0  0  0  0999 V2000
   25.3218  -19.1824  -19.2550 N   0  0  0  0  0  0  0  0  0  0  0  0
   24.5179  -19.7739  -18.2267 C   0  0  0  0  0  0  0  0  0  0  0  0
   25.2859  -19.8133  -16.9304 C   0  0  0  0  0  0  0  0  0  0  0  0
   26.3086  -20.5004  -16.8602 O   0  0  0  0  0  0  0  0  0  0  0  0
   24.8685  -19.0868  -15.7949 N   0  0  0  0  0  0  0  0  0  0  0  0
   25.5008  -19.1292  -14.5565 C   0  0  1  0  0  0  0  0  0  0  0  0
   26.1796  -17.8633  -14.0476 C   0  0  0  0  0  0  0  0  0  0  0  0
   26.9194  -17.2105  -15.1350 C   0  0  0  0  0  0  0  0  0  0  0  0
   26.7452  -16.0953  -15.8908 C   0  0  0  0  0  0  0  0  0  0  0  0
   27.7793  -15.9648  -16.7624 N   0  0  0  0  0  0  0  0  0  0  0  0
   28.6147  -16.9934  -16.5660 C   0  0  0  0  0  0  0  0  0  0  0  0
   28.1117  -17.7358  -15.6031 N   0  0  0  0  0  0  0  0  0  0  0  0
   24.9518  -19.9687  -13.4931 C   0  0  0  0  0  0  0  0  0  0  0  0
   23.6714  -20.0901  -13.4953 O   0  0  0  0  0  0  0  0  0  0  0  0
   25.7195  -20.6243  -12.5039 N   0  0  0  0  0  0  0  0  0  0  0  0
   27.1528  -20.6848  -12.4334 C   0  0  0  0  0  0  0  0  0  0  0  0
   27.4740  -21.8037  -11.4263 C   0  0  0  0  0  0  0  0  0  0  0  0
   26.2963  -21.7581  -10.5194 C   0  0  0  0  0  0  0  0  0  0  0  0
   25.1396  -21.3512  -11.3661 C   0  0  1  0  0  0  0  0  0  0  0  0
   24.2041  -20.4861  -10.6154 C   0  0  0  0  0  0  0  0  0  0  0  0
   24.2644  -19.2392  -10.7396 O   0  0  0  0  0  0  0  0  0  0  0  0
   23.2447  -21.0046   -9.7643 O   0  0  0  0  0  0  0  0  0  0  0  0
  2  1  1  0
  3  4  2  0
  3  2  1  0
  5  3  1  0
  6  5  1  0
  6 13  1  0
  6  7  1  1
  8  7  1  0
  9  8  2  0
 10 11  1  0
 10  9  1  0
 11 12  2  0
 12  8  1  0
 13 15  1  0
 14 13  2  0
 15 16  1  0
 15 19  1  0
 16 17  1  0
 17 18  1  0
 19 18  1  0
 20 22  1  0
 19 20  1  1
 21 20  2  0
M  END
$$$$
