GHP.pdb
     RDKit          3D

 22 23  0  0  1  0  0  0  0  0999 V2000
   27.9562  -32.4556  -16.8380 N   0  0  0  0  0  0  0  0  0  0  0  0
   28.1290  -31.3863  -15.8998 C   0  0  0  0  0  0  0  0  0  0  0  0
   28.1726  -30.0658  -16.6252 C   0  0  0  0  0  0  0  0  0  0  0  0
   28.4138  -30.0544  -17.8355 O   0  0  0  0  0  0  0  0  0  0  0  0
   27.9454  -28.8424  -15.9597 N   0  0  0  0  0  0  0  0  0  0  0  0
   28.0397  -27.5904  -16.5588 C   0  0  1  0  0  0  0  0  0  0  0  0
   26.8867  -26.6115  -16.3735 C   0  0  0  0  0  0  0  0  0  0  0  0
   25.6319  -27.2076  -16.8488 C   0  0  0  0  0  0  0  0  0  0  0  0
   25.2984  -28.2795  -17.6137 C   0  0  0  0  0  0  0  0  0  0  0  0
   23.9465  -28.3671  -17.7177 N   0  0  0  0  0  0  0  0  0  0  0  0
   23.4142  -27.3543  -17.0210 C   0  0  0  0  0  0  0  0  0  0  0  0
   24.4069  -26.6630  -16.5033 N   0  0  0  0  0  0  0  0  0  0  0  0
   29.3451  -26.9435  -16.6795 C   0  0  0  0  0  0  0  0  0  0  0  0
   29.9520  -26.7204  -15.5677 O   0  0  0  0  0  0  0  0  0  0  0  0
   29.9490  -26.5646  -17.8999 N   0  0  0  0  0  0  0  0  0  0  0  0
   29.4621  -26.8497  -19.2207 C   0  0  0  0  0  0  0  0  0  0  0  0
   30.6412  -26.5693  -20.1695 C   0  0  0  0  0  0  0  0  0  0  0  0
   31.3851  -25.5072  -19.4413 C   0  0  0  0  0  0  0  0  0  0  0  0
   31.1954  -25.7916  -17.9910 C   0  0  1  0  0  0  0  0  0  0  0  0
   31.0930  -24.5408  -17.2085 C   0  0  0  0  0  0  0  0  0  0  0  0
   32.1317  -23.9194  -16.8786 O   0  0  0  0  0  0  0  0  0  0  0  0
   29.8746  -24.0157  -16.8169 O   0  0  0  0  0  0  0  0  0  0  0  0
  2  1  1  0
  3  4  2  0
  3  2  1  0
  5  3  1  0
  6  5  1  0
  6 13  1  0
  6  7  1  1
  8  7  1  0
  9  8  2  0
 10 11  1  0
 10  9  1  0
 11 12  2  0
 12  8  1  0
 13 15  1  0
 14 13  2  0
 15 16  1  0
 15 19  1  0
 16 17  1  0
 17 18  1  0
 19 18  1  0
 20 22  1  0
 19 20  1  1
 21 20  2  0
M  END
$$$$
