GHP.pdb
     RDKit          3D

 22 23  0  0  1  0  0  0  0  0999 V2000
   29.5762  -22.5857  -19.5613 N   0  0  0  0  0  0  0  0  0  0  0  0
   29.3130  -23.0194  -18.2211 C   0  0  0  0  0  0  0  0  0  0  0  0
   28.6336  -21.9188  -17.4470 C   0  0  0  0  0  0  0  0  0  0  0  0
   29.3162  -20.9982  -16.9895 O   0  0  0  0  0  0  0  0  0  0  0  0
   27.2391  -21.9115  -17.2309 N   0  0  0  0  0  0  0  0  0  0  0  0
   26.5513  -20.9053  -16.5602 C   0  0  1  0  0  0  0  0  0  0  0  0
   25.7997  -19.8688  -17.3866 C   0  0  0  0  0  0  0  0  0  0  0  0
   25.2713  -18.8106  -16.5166 C   0  0  0  0  0  0  0  0  0  0  0  0
   25.0850  -18.6600  -15.1795 C   0  0  0  0  0  0  0  0  0  0  0  0
   24.5596  -17.4333  -14.9240 N   0  0  0  0  0  0  0  0  0  0  0  0
   24.4094  -16.7986  -16.0941 C   0  0  0  0  0  0  0  0  0  0  0  0
   24.8291  -17.6086  -17.0423 N   0  0  0  0  0  0  0  0  0  0  0  0
   25.9262  -21.1930  -15.2705 C   0  0  0  0  0  0  0  0  0  0  0  0
   24.8465  -21.8897  -15.3270 O   0  0  0  0  0  0  0  0  0  0  0  0
   26.4223  -20.7634  -14.0187 N   0  0  0  0  0  0  0  0  0  0  0  0
   27.5641  -19.9217  -13.7936 C   0  0  0  0  0  0  0  0  0  0  0  0
   27.9007  -20.0663  -12.2987 C   0  0  0  0  0  0  0  0  0  0  0  0
   26.5684  -20.3512  -11.7024 C   0  0  0  0  0  0  0  0  0  0  0  0
   25.8131  -21.1214  -12.7303 C   0  0  1  0  0  0  0  0  0  0  0  0
   24.3768  -20.7694  -12.7155 C   0  0  0  0  0  0  0  0  0  0  0  0
   23.8880  -20.0857  -13.6470 O   0  0  0  0  0  0  0  0  0  0  0  0
   23.5314  -21.1707  -11.6968 O   0  0  0  0  0  0  0  0  0  0  0  0
  2  1  1  0
  3  4  2  0
  3  2  1  0
  5  3  1  0
  6  5  1  0
  6 13  1  0
  6  7  1  6
  8  7  1  0
  9  8  2  0
 10 11  1  0
 10  9  1  0
 11 12  2  0
 12  8  1  0
 13 15  1  0
 14 13  2  0
 15 16  1  0
 15 19  1  0
 16 17  1  0
 17 18  1  0
 19 18  1  0
 20 22  1  0
 19 20  1  6
 21 20  2  0
M  END
$$$$
