GHP.pdb
     RDKit          3D

 22 23  0  0  1  0  0  0  0  0999 V2000
   26.5353  -23.0323  -18.9017 N   0  0  0  0  0  0  0  0  0  0  0  0
   26.8514  -21.6349  -18.9311 C   0  0  0  0  0  0  0  0  0  0  0  0
   27.1038  -21.1337  -17.5321 C   0  0  0  0  0  0  0  0  0  0  0  0
   28.1931  -21.3645  -17.0001 O   0  0  0  0  0  0  0  0  0  0  0  0
   26.1297  -20.4082  -16.8138 N   0  0  0  0  0  0  0  0  0  0  0  0
   26.2852  -19.9634  -15.5049 C   0  0  1  0  0  0  0  0  0  0  0  0
   26.5427  -18.4797  -15.2712 C   0  0  0  0  0  0  0  0  0  0  0  0
   27.4140  -17.9427  -16.3240 C   0  0  0  0  0  0  0  0  0  0  0  0
   27.2231  -17.3940  -17.5519 C   0  0  0  0  0  0  0  0  0  0  0  0
   28.4211  -17.0512  -18.0933 N   0  0  0  0  0  0  0  0  0  0  0  0
   29.3780  -17.3787  -17.2149 C   0  0  0  0  0  0  0  0  0  0  0  0
   28.7886  -17.9074  -16.1639 N   0  0  0  0  0  0  0  0  0  0  0  0
   25.5309  -20.6046  -14.4293 C   0  0  0  0  0  0  0  0  0  0  0  0
   24.3504  -21.0029  -14.7485 O   0  0  0  0  0  0  0  0  0  0  0  0
   26.0083  -20.8001  -13.1134 N   0  0  0  0  0  0  0  0  0  0  0  0
   27.3177  -20.4751  -12.6206 C   0  0  0  0  0  0  0  0  0  0  0  0
   27.4540  -21.2160  -11.2784 C   0  0  0  0  0  0  0  0  0  0  0  0
   26.0457  -21.2679  -10.8033 C   0  0  0  0  0  0  0  0  0  0  0  0
   25.2017  -21.3729  -12.0268 C   0  0  1  0  0  0  0  0  0  0  0  0
   23.9337  -20.6282  -11.8687 C   0  0  0  0  0  0  0  0  0  0  0  0
   23.8204  -19.4727  -12.3440 O   0  0  0  0  0  0  0  0  0  0  0  0
   22.8441  -21.1632  -11.2053 O   0  0  0  0  0  0  0  0  0  0  0  0
  2  1  1  0
  3  4  2  0
  3  2  1  0
  5  3  1  0
  6  5  1  0
  6 13  1  0
  6  7  1  6
  8  7  1  0
  9  8  2  0
 10 11  1  0
 10  9  1  0
 11 12  2  0
 12  8  1  0
 13 15  1  0
 14 13  2  0
 15 16  1  0
 15 19  1  0
 16 17  1  0
 17 18  1  0
 19 18  1  0
 20 22  1  0
 19 20  1  1
 21 20  2  0
M  END
$$$$
