GHP.pdb
     RDKit          3D

 22 23  0  0  1  0  0  0  0  0999 V2000
   20.7879  -14.7768  -17.7543 N   0  0  0  0  0  0  0  0  0  0  0  0
   21.1759  -13.5120  -18.3049 C   0  0  0  0  0  0  0  0  0  0  0  0
   20.2107  -12.4407  -17.8659 C   0  0  0  0  0  0  0  0  0  0  0  0
   19.1508  -12.2998  -18.4820 O   0  0  0  0  0  0  0  0  0  0  0  0
   20.4849  -11.5944  -16.7705 N   0  0  0  0  0  0  0  0  0  0  0  0
   19.6788  -10.5320  -16.3748 C   0  0  1  0  0  0  0  0  0  0  0  0
   18.7352  -10.7401  -15.1964 C   0  0  0  0  0  0  0  0  0  0  0  0
   17.8250  -11.8604  -15.4653 C   0  0  0  0  0  0  0  0  0  0  0  0
   16.6537  -12.0164  -16.1355 C   0  0  0  0  0  0  0  0  0  0  0  0
   16.2557  -13.3138  -16.0694 N   0  0  0  0  0  0  0  0  0  0  0  0
   17.1694  -13.9883  -15.3589 C   0  0  0  0  0  0  0  0  0  0  0  0
   18.1023  -13.1336  -14.9977 N   0  0  0  0  0  0  0  0  0  0  0  0
   20.1782   -9.1631  -16.4920 C   0  0  0  0  0  0  0  0  0  0  0  0
   21.3169   -8.9447  -15.9354 O   0  0  0  0  0  0  0  0  0  0  0  0
   19.5047   -8.1115  -17.1539 N   0  0  0  0  0  0  0  0  0  0  0  0
   18.2712   -8.2100  -17.8832 C   0  0  0  0  0  0  0  0  0  0  0  0
   18.1707   -6.9153  -18.7095 C   0  0  0  0  0  0  0  0  0  0  0  0
   18.9108   -5.9430  -17.8619 C   0  0  0  0  0  0  0  0  0  0  0  0
   19.9828   -6.7222  -17.1809 C   0  0  1  0  0  0  0  0  0  0  0  0
   20.2182   -6.2238  -15.8085 C   0  0  0  0  0  0  0  0  0  0  0  0
   19.7733   -6.8612  -14.8238 O   0  0  0  0  0  0  0  0  0  0  0  0
   20.9235   -5.0602  -15.5593 O   0  0  0  0  0  0  0  0  0  0  0  0
  2  1  1  0
  3  4  2  0
  3  2  1  0
  5  3  1  0
  6  5  1  0
  6 13  1  0
  6  7  1  1
  8  7  1  0
  9  8  2  0
 10 11  1  0
 10  9  1  0
 11 12  2  0
 12  8  1  0
 13 15  1  0
 14 13  2  0
 15 16  1  0
 15 19  1  0
 16 17  1  0
 17 18  1  0
 19 18  1  0
 20 22  1  0
 19 20  1  1
 21 20  2  0
M  END
$$$$
