GHP.pdb
     RDKit          3D

 22 23  0  0  1  0  0  0  0  0999 V2000
   28.2983  -23.8339  -17.4009 N   0  0  0  0  0  0  0  0  0  0  0  0
   27.0525  -23.1292  -17.3323 C   0  0  0  0  0  0  0  0  0  0  0  0
   26.9865  -22.3209  -16.0618 C   0  0  0  0  0  0  0  0  0  0  0  0
   27.8992  -22.4244  -15.2375 O   0  0  0  0  0  0  0  0  0  0  0  0
   25.9109  -21.4494  -15.7883 N   0  0  0  0  0  0  0  0  0  0  0  0
   25.8219  -20.6373  -14.6623 C   0  0  1  0  0  0  0  0  0  0  0  0
   25.9619  -19.1308  -14.8446 C   0  0  0  0  0  0  0  0  0  0  0  0
   27.1231  -18.8264  -15.6900 C   0  0  0  0  0  0  0  0  0  0  0  0
   28.4440  -18.5950  -15.4732 C   0  0  0  0  0  0  0  0  0  0  0  0
   29.0726  -18.3764  -16.6578 N   0  0  0  0  0  0  0  0  0  0  0  0
   28.1575  -18.4677  -17.6318 C   0  0  0  0  0  0  0  0  0  0  0  0
   26.9999  -18.7342  -17.0658 N   0  0  0  0  0  0  0  0  0  0  0  0
   24.9308  -21.0155  -13.5670 C   0  0  0  0  0  0  0  0  0  0  0  0
   23.7917  -21.4929  -13.9259 O   0  0  0  0  0  0  0  0  0  0  0  0
   25.2398  -20.8884  -12.1937 N   0  0  0  0  0  0  0  0  0  0  0  0
   26.5017  -20.4927  -11.6333 C   0  0  0  0  0  0  0  0  0  0  0  0
   26.4350  -20.8751  -10.1439 C   0  0  0  0  0  0  0  0  0  0  0  0
   24.9809  -20.7593   -9.8543 C   0  0  0  0  0  0  0  0  0  0  0  0
   24.2786  -21.1419  -11.1115 C   0  0  1  0  0  0  0  0  0  0  0  0
   23.0508  -20.3402  -11.3047 C   0  0  0  0  0  0  0  0  0  0  0  0
   23.0664  -19.3400  -12.0618 O   0  0  0  0  0  0  0  0  0  0  0  0
   21.8607  -20.6534  -10.6730 O   0  0  0  0  0  0  0  0  0  0  0  0
  2  1  1  0
  3  4  2  0
  3  2  1  0
  5  3  1  0
  6  5  1  0
  6 13  1  0
  6  7  1  6
  8  7  1  0
  9  8  2  0
 10 11  1  0
 10  9  1  0
 11 12  2  0
 12  8  1  0
 13 15  1  0
 14 13  2  0
 15 16  1  0
 15 19  1  0
 16 17  1  0
 17 18  1  0
 19 18  1  0
 20 22  1  0
 19 20  1  6
 21 20  2  0
M  END
$$$$
