GHP.pdb
     RDKit          3D

 22 23  0  0  1  0  0  0  0  0999 V2000
   38.6116  -28.3155  -16.0181 N   0  0  0  0  0  0  0  0  0  0  0  0
   37.2614  -28.6139  -15.6422 C   0  0  0  0  0  0  0  0  0  0  0  0
   36.3046  -27.7623  -16.4367 C   0  0  0  0  0  0  0  0  0  0  0  0
   36.7466  -27.0496  -17.3421 O   0  0  0  0  0  0  0  0  0  0  0  0
   34.9181  -27.7569  -16.1746 N   0  0  0  0  0  0  0  0  0  0  0  0
   33.9373  -27.5031  -17.1279 C   0  0  1  0  0  0  0  0  0  0  0  0
   34.1641  -28.0028  -18.5495 C   0  0  0  0  0  0  0  0  0  0  0  0
   33.1660  -27.4240  -19.4575 C   0  0  0  0  0  0  0  0  0  0  0  0
   33.0877  -26.3044  -20.2228 C   0  0  0  0  0  0  0  0  0  0  0  0
   31.9042  -26.2855  -20.8899 N   0  0  0  0  0  0  0  0  0  0  0  0
   31.2252  -27.3902  -20.5536 C   0  0  0  0  0  0  0  0  0  0  0  0
   31.9667  -28.0698  -19.7052 N   0  0  0  0  0  0  0  0  0  0  0  0
   32.5307  -27.4837  -16.7302 C   0  0  0  0  0  0  0  0  0  0  0  0
   32.0416  -28.6227  -16.3869 O   0  0  0  0  0  0  0  0  0  0  0  0
   31.7140  -26.3304  -16.7056 N   0  0  0  0  0  0  0  0  0  0  0  0
   32.0899  -25.0064  -17.1163 C   0  0  0  0  0  0  0  0  0  0  0  0
   31.0094  -24.0702  -16.5463 C   0  0  0  0  0  0  0  0  0  0  0  0
   29.8114  -24.9511  -16.5213 C   0  0  0  0  0  0  0  0  0  0  0  0
   30.3167  -26.3265  -16.2507 C   0  0  1  0  0  0  0  0  0  0  0  0
   29.5266  -27.3411  -16.9811 C   0  0  0  0  0  0  0  0  0  0  0  0
   30.0398  -27.9661  -17.9402 O   0  0  0  0  0  0  0  0  0  0  0  0
   28.2179  -27.6368  -16.6441 O   0  0  0  0  0  0  0  0  0  0  0  0
  2  1  1  0
  3  4  2  0
  3  2  1  0
  5  3  1  0
  6  5  1  0
  6 13  1  0
  6  7  1  6
  8  7  1  0
  9  8  2  0
 10 11  1  0
 10  9  1  0
 11 12  2  0
 12  8  1  0
 13 15  1  0
 14 13  2  0
 15 16  1  0
 15 19  1  0
 16 17  1  0
 17 18  1  0
 19 18  1  0
 20 22  1  0
 19 20  1  6
 21 20  2  0
M  END
$$$$
