GHP.pdb
     RDKit          3D

 22 23  0  0  1  0  0  0  0  0999 V2000
   20.5734  -34.0926   -9.1762 N   0  0  0  0  0  0  0  0  0  0  0  0
   21.0838  -33.4825   -7.9842 C   0  0  0  0  0  0  0  0  0  0  0  0
   22.4551  -34.0256   -7.6735 C   0  0  0  0  0  0  0  0  0  0  0  0
   22.9508  -34.8684   -8.4265 O   0  0  0  0  0  0  0  0  0  0  0  0
   23.1880  -33.5976   -6.5461 N   0  0  0  0  0  0  0  0  0  0  0  0
   24.4304  -34.1025   -6.1762 C   0  0  1  0  0  0  0  0  0  0  0  0
   25.6598  -33.2286   -6.3934 C   0  0  0  0  0  0  0  0  0  0  0  0
   25.6958  -32.7360   -7.7761 C   0  0  0  0  0  0  0  0  0  0  0  0
   26.2391  -33.1682   -8.9437 C   0  0  0  0  0  0  0  0  0  0  0  0
   25.9344  -32.2984   -9.9421 N   0  0  0  0  0  0  0  0  0  0  0  0
   25.1974  -31.3111   -9.4163 C   0  0  0  0  0  0  0  0  0  0  0  0
   25.0518  -31.5636   -8.1332 N   0  0  0  0  0  0  0  0  0  0  0  0
   24.5354  -34.9850   -5.0155 C   0  0  0  0  0  0  0  0  0  0  0  0
   23.9114  -34.5856   -3.9641 O   0  0  0  0  0  0  0  0  0  0  0  0
   25.2564  -36.2002   -4.9874 N   0  0  0  0  0  0  0  0  0  0  0  0
   25.9645  -36.8010   -6.0831 C   0  0  0  0  0  0  0  0  0  0  0  0
   26.2403  -38.2535   -5.6553 C   0  0  0  0  0  0  0  0  0  0  0  0
   26.3342  -38.1332   -4.1760 C   0  0  0  0  0  0  0  0  0  0  0  0
   25.3956  -37.0419   -3.7909 C   0  0  1  0  0  0  0  0  0  0  0  0
   25.9258  -36.2544   -2.6568 C   0  0  0  0  0  0  0  0  0  0  0  0
   26.3496  -35.0887   -2.8452 O   0  0  0  0  0  0  0  0  0  0  0  0
   25.9749  -36.7592   -1.3698 O   0  0  0  0  0  0  0  0  0  0  0  0
  2  1  1  0
  3  4  2  0
  3  2  1  0
  5  3  1  0
  6  5  1  0
  6 13  1  0
  6  7  1  1
  8  7  1  0
  9  8  2  0
 10 11  1  0
 10  9  1  0
 11 12  2  0
 12  8  1  0
 13 15  1  0
 14 13  2  0
 15 16  1  0
 15 19  1  0
 16 17  1  0
 17 18  1  0
 19 18  1  0
 20 22  1  0
 19 20  1  1
 21 20  2  0
M  END
$$$$
