GHP.pdb
     RDKit          3D

 22 23  0  0  1  0  0  0  0  0999 V2000
   28.4793  -21.4393  -17.8609 N   0  0  0  0  0  0  0  0  0  0  0  0
   28.0144  -22.1450  -16.7037 C   0  0  0  0  0  0  0  0  0  0  0  0
   27.1300  -21.2494  -15.8743 C   0  0  0  0  0  0  0  0  0  0  0  0
   27.5669  -20.1587  -15.4967 O   0  0  0  0  0  0  0  0  0  0  0  0
   25.8167  -21.6228  -15.5176 N   0  0  0  0  0  0  0  0  0  0  0  0
   24.9821  -20.8757  -14.6927 C   0  0  1  0  0  0  0  0  0  0  0  0
   23.9367  -19.9783  -15.3440 C   0  0  0  0  0  0  0  0  0  0  0  0
   24.4158  -19.5026  -16.6478 C   0  0  0  0  0  0  0  0  0  0  0  0
   24.3603  -19.9609  -17.9253 C   0  0  0  0  0  0  0  0  0  0  0  0
   24.9748  -19.0794  -18.7569 N   0  0  0  0  0  0  0  0  0  0  0  0
   25.4230  -18.0582  -18.0147 C   0  0  0  0  0  0  0  0  0  0  0  0
   25.0953  -18.3020  -16.7639 N   0  0  0  0  0  0  0  0  0  0  0  0
   24.5654  -21.4209  -13.4019 C   0  0  0  0  0  0  0  0  0  0  0  0
   23.7641  -22.4251  -13.4630 O   0  0  0  0  0  0  0  0  0  0  0  0
   24.9766  -20.9236  -12.1445 N   0  0  0  0  0  0  0  0  0  0  0  0
   26.0037  -19.9489  -11.9036 C   0  0  0  0  0  0  0  0  0  0  0  0
   26.3197  -20.0386  -10.3999 C   0  0  0  0  0  0  0  0  0  0  0  0
   25.0173  -20.4760   -9.8305 C   0  0  0  0  0  0  0  0  0  0  0  0
   24.3843  -21.3405  -10.8659 C   0  0  1  0  0  0  0  0  0  0  0  0
   22.9162  -21.1633  -10.8876 C   0  0  0  0  0  0  0  0  0  0  0  0
   22.3849  -20.4287  -11.7548 O   0  0  0  0  0  0  0  0  0  0  0  0
   22.0863  -21.7866   -9.9731 O   0  0  0  0  0  0  0  0  0  0  0  0
  2  1  1  0
  3  4  2  0
  3  2  1  0
  5  3  1  0
  6  5  1  0
  6 13  1  0
  6  7  1  6
  8  7  1  0
  9  8  2  0
 10 11  1  0
 10  9  1  0
 11 12  2  0
 12  8  1  0
 13 15  1  0
 14 13  2  0
 15 16  1  0
 15 19  1  0
 16 17  1  0
 17 18  1  0
 19 18  1  0
 20 22  1  0
 19 20  1  6
 21 20  2  0
M  END
$$$$
