GHP.pdb
     RDKit          3D

 22 23  0  0  1  0  0  0  0  0999 V2000
   13.7832  -24.7103    5.2829 N   0  0  0  0  0  0  0  0  0  0  0  0
   13.9135  -23.4072    5.8645 C   0  0  0  0  0  0  0  0  0  0  0  0
   15.2902  -22.8567    5.5931 C   0  0  0  0  0  0  0  0  0  0  0  0
   16.2565  -23.6242    5.6094 O   0  0  0  0  0  0  0  0  0  0  0  0
   15.5053  -21.4889    5.3210 N   0  0  0  0  0  0  0  0  0  0  0  0
   16.7504  -20.9224    5.0682 C   0  0  1  0  0  0  0  0  0  0  0  0
   16.9162  -20.0701    3.8159 C   0  0  0  0  0  0  0  0  0  0  0  0
   16.4458  -20.8046    2.6347 C   0  0  0  0  0  0  0  0  0  0  0  0
   16.9541  -21.7770    1.8339 C   0  0  0  0  0  0  0  0  0  0  0  0
   16.0499  -22.0997    0.8725 N   0  0  0  0  0  0  0  0  0  0  0  0
   14.9643  -21.3366    1.0564 C   0  0  0  0  0  0  0  0  0  0  0  0
   15.1917  -20.5667    2.0989 N   0  0  0  0  0  0  0  0  0  0  0  0
   17.5892  -20.4927    6.1857 C   0  0  0  0  0  0  0  0  0  0  0  0
   16.9904  -19.7948    7.0849 O   0  0  0  0  0  0  0  0  0  0  0  0
   18.9643  -20.7886    6.3240 N   0  0  0  0  0  0  0  0  0  0  0  0
   19.7534  -21.6161    5.4548 C   0  0  0  0  0  0  0  0  0  0  0  0
   21.0465  -21.9228    6.2314 C   0  0  0  0  0  0  0  0  0  0  0  0
   21.1935  -20.7152    7.0868 C   0  0  0  0  0  0  0  0  0  0  0  0
   19.8093  -20.2656    7.4065 C   0  0  1  0  0  0  0  0  0  0  0  0
   19.7258  -18.7903    7.4682 C   0  0  0  0  0  0  0  0  0  0  0  0
   19.2769  -18.1451    6.4904 O   0  0  0  0  0  0  0  0  0  0  0  0
   20.1300  -18.0766    8.5821 O   0  0  0  0  0  0  0  0  0  0  0  0
  2  1  1  0
  3  4  2  0
  3  2  1  0
  5  3  1  0
  6  5  1  0
  6 13  1  0
  6  7  1  6
  8  7  1  0
  9  8  2  0
 10 11  1  0
 10  9  1  0
 11 12  2  0
 12  8  1  0
 13 15  1  0
 14 13  2  0
 15 16  1  0
 15 19  1  0
 16 17  1  0
 17 18  1  0
 19 18  1  0
 20 22  1  0
 19 20  1  6
 21 20  2  0
M  END
$$$$
