HLW.pdb
     RDKit          3D

 33 35  0  0  1  0  0  0  0  0999 V2000
   10.7859  -18.6689   18.3344 N   0  0  0  0  0  0  0  0  0  0  0  0
   11.3333  -17.4342   18.8319 C   0  0  1  0  0  0  0  0  0  0  0  0
   11.5486  -16.4580   17.7226 C   0  0  0  0  0  0  0  0  0  0  0  0
   12.3064  -17.0456   16.6054 C   0  0  0  0  0  0  0  0  0  0  0  0
   13.5603  -16.7662   16.1378 C   0  0  0  0  0  0  0  0  0  0  0  0
   13.8270  -17.5464   15.0788 N   0  0  0  0  0  0  0  0  0  0  0  0
   12.7502  -18.3178   14.8713 C   0  0  0  0  0  0  0  0  0  0  0  0
   11.8346  -18.0095   15.7980 N   0  0  0  0  0  0  0  0  0  0  0  0
   10.6301  -16.8799   19.9998 C   0  0  0  0  0  0  0  0  0  0  0  0
   11.0875  -15.8620   20.6244 O   0  0  0  0  0  0  0  0  0  0  0  0
    5.0113  -17.5071   20.5506 C   0  0  0  0  0  0  0  0  0  0  0  0
    6.4026  -16.8718   20.5290 C   0  0  1  0  0  0  0  0  0  0  0  0
    6.3259  -15.4240   20.1970 C   0  0  0  0  0  0  0  0  0  0  0  0
    7.2288  -17.2693   21.6874 C   0  0  0  0  0  0  0  0  0  0  0  0
    8.6873  -16.8889   21.6306 C   0  0  2  0  0  0  0  0  0  0  0  0
    9.4208  -17.4060   20.5241 N   0  0  0  0  0  0  0  0  0  0  0  0
    9.3466  -17.0717   22.9434 C   0  0  0  0  0  0  0  0  0  0  0  0
   10.0234  -18.1017   23.1430 O   0  0  0  0  0  0  0  0  0  0  0  0
    9.2298  -16.1143   23.9733 N   0  0  0  0  0  0  0  0  0  0  0  0
    9.7919  -16.3211   25.3178 C   0  0  1  0  0  0  0  0  0  0  0  0
    9.6500  -15.0841   26.1293 C   0  0  0  0  0  0  0  0  0  0  0  0
    8.3149  -14.4992   26.1049 C   0  0  0  0  0  0  0  0  0  0  0  0
    7.1381  -15.1926   25.9312 C   0  0  0  0  0  0  0  0  0  0  0  0
    6.1322  -14.3076   25.9259 N   0  0  0  0  0  0  0  0  0  0  0  0
    6.5917  -13.0648   26.0890 C   0  0  0  0  0  0  0  0  0  0  0  0
    5.9253  -11.8428   26.1657 C   0  0  0  0  0  0  0  0  0  0  0  0
    6.6209  -10.6758   26.3631 C   0  0  0  0  0  0  0  0  0  0  0  0
    7.9963  -10.7962   26.4778 C   0  0  0  0  0  0  0  0  0  0  0  0
    8.6645  -11.9775   26.4051 C   0  0  0  0  0  0  0  0  0  0  0  0
    7.9522  -13.1570   26.2036 C   0  0  0  0  0  0  0  0  0  0  0  0
    9.3060  -17.5292   25.9779 C   0  0  0  0  0  0  0  0  0  0  0  0
    9.9878  -18.1232   27.0571 O   0  0  0  0  0  0  0  0  0  0  0  0
    8.2445  -18.1640   25.6531 O   0  0  0  0  0  0  0  0  0  0  0  0
  2  9  1  0
  2  1  1  6
  2  3  1  0
  4  3  1  0
  4  5  2  0
  6  5  1  0
  7  6  1  0
  8  7  2  0
  8  4  1  0
  9 16  1  0
 10  9  2  0
 12 11  1  1
 12 13  1  0
 14 12  1  0
 15 14  1  1
 16 15  1  0
 17 15  1  0
 18 17  2  0
 19 17  1  0
 20 31  1  0
 20 19  1  0
 21 22  1  0
 20 21  1  1
 22 23  2  0
 22 30  1  0
 23 24  1  0
 24 25  1  0
 25 26  2  0
 27 26  1  0
 28 27  2  0
 29 28  1  0
 30 29  2  0
 30 25  1  0
 31 32  1  0
 33 31  2  0
M  END
$$$$
