HLW.pdb
     RDKit          3D

 33 35  0  0  1  0  0  0  0  0999 V2000
    9.8738  -18.5353   18.5297 N   0  0  0  0  0  0  0  0  0  0  0  0
    9.2968  -18.3618   19.8368 C   0  0  1  0  0  0  0  0  0  0  0  0
    9.4797  -19.5873   20.6702 C   0  0  0  0  0  0  0  0  0  0  0  0
    8.8128  -20.7618   20.0841 C   0  0  0  0  0  0  0  0  0  0  0  0
    7.5515  -21.2540   20.2733 C   0  0  0  0  0  0  0  0  0  0  0  0
    7.3900  -22.3653   19.5382 N   0  0  0  0  0  0  0  0  0  0  0  0
    8.5407  -22.5813   18.8850 C   0  0  0  0  0  0  0  0  0  0  0  0
    9.3965  -21.6080   19.2200 N   0  0  0  0  0  0  0  0  0  0  0  0
    9.6729  -17.1086   20.5103 C   0  0  0  0  0  0  0  0  0  0  0  0
   10.8829  -16.8824   20.8570 O   0  0  0  0  0  0  0  0  0  0  0  0
    6.7164  -12.6903   19.5633 C   0  0  0  0  0  0  0  0  0  0  0  0
    8.0043  -13.4764   19.8149 C   0  0  1  0  0  0  0  0  0  0  0  0
    9.1118  -12.9807   18.9545 C   0  0  0  0  0  0  0  0  0  0  0  0
    8.2832  -13.6684   21.2529 C   0  0  0  0  0  0  0  0  0  0  0  0
    9.0318  -14.9233   21.6271 C   0  0  2  0  0  0  0  0  0  0  0  0
    8.7587  -16.0704   20.8276 N   0  0  0  0  0  0  0  0  0  0  0  0
    8.9854  -15.1671   23.0866 C   0  0  0  0  0  0  0  0  0  0  0  0
    8.4281  -14.3272   23.8235 O   0  0  0  0  0  0  0  0  0  0  0  0
    9.5539  -16.3214   23.6656 N   0  0  0  0  0  0  0  0  0  0  0  0
    9.9620  -16.3829   25.0784 C   0  0  1  0  0  0  0  0  0  0  0  0
    8.7999  -16.7401   25.9333 C   0  0  0  0  0  0  0  0  0  0  0  0
    7.6959  -15.7900   25.8743 C   0  0  0  0  0  0  0  0  0  0  0  0
    6.4423  -16.0470   25.3661 C   0  0  0  0  0  0  0  0  0  0  0  0
    5.7224  -14.9199   25.4484 N   0  0  0  0  0  0  0  0  0  0  0  0
    6.4431  -13.9340   25.9878 C   0  0  0  0  0  0  0  0  0  0  0  0
    6.1136  -12.6119   26.2825 C   0  0  0  0  0  0  0  0  0  0  0  0
    7.0303  -11.7744   26.8681 C   0  0  0  0  0  0  0  0  0  0  0  0
    8.2736  -12.3228   27.1384 C   0  0  0  0  0  0  0  0  0  0  0  0
    8.6145  -13.6083   26.8583 C   0  0  0  0  0  0  0  0  0  0  0  0
    7.6795  -14.4516   26.2632 C   0  0  0  0  0  0  0  0  0  0  0  0
   11.1499  -17.1989   25.3114 C   0  0  0  0  0  0  0  0  0  0  0  0
   11.7780  -17.2717   26.5694 O   0  0  0  0  0  0  0  0  0  0  0  0
   11.7355  -17.9090   24.4237 O   0  0  0  0  0  0  0  0  0  0  0  0
  2  9  1  0
  2  1  1  6
  2  3  1  0
  4  3  1  0
  4  5  2  0
  6  5  1  0
  7  6  1  0
  8  7  2  0
  8  4  1  0
  9 16  1  0
 10  9  2  0
 12 11  1  1
 12 13  1  0
 14 12  1  0
 15 14  1  1
 16 15  1  0
 17 15  1  0
 18 17  2  0
 19 17  1  0
 20 31  1  0
 20 19  1  0
 21 22  1  0
 20 21  1  1
 22 23  2  0
 22 30  1  0
 23 24  1  0
 24 25  1  0
 25 26  2  0
 27 26  1  0
 28 27  2  0
 29 28  1  0
 30 29  2  0
 30 25  1  0
 31 32  1  0
 33 31  2  0
M  END
$$$$
