HLW.pdb
     RDKit          3D

 33 35  0  0  1  0  0  0  0  0999 V2000
   10.4043  -18.8860   18.2721 N   0  0  0  0  0  0  0  0  0  0  0  0
    9.6716  -18.6867   19.4948 C   0  0  1  0  0  0  0  0  0  0  0  0
    9.6489  -19.9341   20.3153 C   0  0  0  0  0  0  0  0  0  0  0  0
    8.9477  -21.0344   19.6333 C   0  0  0  0  0  0  0  0  0  0  0  0
    7.6167  -21.2194   19.3816 C   0  0  0  0  0  0  0  0  0  0  0  0
    7.4398  -22.3877   18.7452 N   0  0  0  0  0  0  0  0  0  0  0  0
    8.6496  -22.9451   18.5924 C   0  0  0  0  0  0  0  0  0  0  0  0
    9.5566  -22.1213   19.1319 N   0  0  0  0  0  0  0  0  0  0  0  0
   10.0465  -17.4757   20.2423 C   0  0  0  0  0  0  0  0  0  0  0  0
   11.2728  -17.1458   20.3932 O   0  0  0  0  0  0  0  0  0  0  0  0
    6.5998  -12.9843   20.3801 C   0  0  0  0  0  0  0  0  0  0  0  0
    7.8741  -13.8232   20.2695 C   0  0  1  0  0  0  0  0  0  0  0  0
    8.8842  -13.1530   19.4078 C   0  0  0  0  0  0  0  0  0  0  0  0
    8.3239  -14.3512   21.5739 C   0  0  0  0  0  0  0  0  0  0  0  0
    9.4225  -15.3840   21.5344 C   0  0  2  0  0  0  0  0  0  0  0  0
    9.1138  -16.5922   20.8453 N   0  0  0  0  0  0  0  0  0  0  0  0
   10.0328  -15.5774   22.8692 C   0  0  0  0  0  0  0  0  0  0  0  0
   11.0765  -14.9542   23.1539 O   0  0  0  0  0  0  0  0  0  0  0  0
    9.4671  -16.4464   23.8261 N   0  0  0  0  0  0  0  0  0  0  0  0
   10.0763  -16.6803   25.1454 C   0  0  1  0  0  0  0  0  0  0  0  0
    9.7221  -15.5779   26.0771 C   0  0  0  0  0  0  0  0  0  0  0  0
    8.3266  -15.1614   26.0123 C   0  0  0  0  0  0  0  0  0  0  0  0
    7.2618  -15.9711   25.6859 C   0  0  0  0  0  0  0  0  0  0  0  0
    6.1522  -15.2201   25.6936 N   0  0  0  0  0  0  0  0  0  0  0  0
    6.4367  -13.9549   26.0107 C   0  0  0  0  0  0  0  0  0  0  0  0
    5.6147  -12.8387   26.1577 C   0  0  0  0  0  0  0  0  0  0  0  0
    6.1405  -11.6231   26.5188 C   0  0  0  0  0  0  0  0  0  0  0  0
    7.5105  -11.5859   26.7216 C   0  0  0  0  0  0  0  0  0  0  0  0
    8.3289  -12.6621   26.5827 C   0  0  0  0  0  0  0  0  0  0  0  0
    7.7883  -13.8918   26.2151 C   0  0  0  0  0  0  0  0  0  0  0  0
    9.8287  -18.0169   25.6778 C   0  0  0  0  0  0  0  0  0  0  0  0
   10.4179  -18.4721   26.8728 O   0  0  0  0  0  0  0  0  0  0  0  0
    9.0783  -18.8955   25.1298 O   0  0  0  0  0  0  0  0  0  0  0  0
  2  9  1  0
  2  1  1  6
  2  3  1  0
  4  3  1  0
  4  5  2  0
  6  5  1  0
  7  6  1  0
  8  7  2  0
  8  4  1  0
  9 16  1  0
 10  9  2  0
 12 11  1  1
 12 13  1  0
 14 12  1  0
 15 14  1  1
 16 15  1  0
 17 15  1  0
 18 17  2  0
 19 17  1  0
 20 31  1  0
 20 19  1  0
 21 22  1  0
 20 21  1  1
 22 23  2  0
 22 30  1  0
 23 24  1  0
 24 25  1  0
 25 26  2  0
 27 26  1  0
 28 27  2  0
 29 28  1  0
 30 29  2  0
 30 25  1  0
 31 32  1  0
 33 31  2  0
M  END
$$$$
