HLW.pdb
     RDKit          3D

 33 35  0  0  1  0  0  0  0  0999 V2000
    9.7529  -18.6077   19.9681 N   0  0  0  0  0  0  0  0  0  0  0  0
   10.9285  -17.7999   20.1607 C   0  0  1  0  0  0  0  0  0  0  0  0
   11.6754  -17.6266   18.8793 C   0  0  0  0  0  0  0  0  0  0  0  0
   12.1695  -18.9074   18.3472 C   0  0  0  0  0  0  0  0  0  0  0  0
   12.7187  -19.9832   18.9877 C   0  0  0  0  0  0  0  0  0  0  0  0
   13.0412  -20.9237   18.0862 N   0  0  0  0  0  0  0  0  0  0  0  0
   12.7009  -20.4512   16.8786 C   0  0  0  0  0  0  0  0  0  0  0  0
   12.1745  -19.2315   17.0440 N   0  0  0  0  0  0  0  0  0  0  0  0
   10.6970  -16.5497   20.9017 C   0  0  0  0  0  0  0  0  0  0  0  0
   11.6662  -15.7723   21.2047 O   0  0  0  0  0  0  0  0  0  0  0  0
    5.9773  -13.7511   20.2612 C   0  0  0  0  0  0  0  0  0  0  0  0
    7.4737  -13.9936   20.4660 C   0  0  1  0  0  0  0  0  0  0  0  0
    8.2851  -12.9712   19.7531 C   0  0  0  0  0  0  0  0  0  0  0  0
    7.8164  -14.2856   21.8731 C   0  0  0  0  0  0  0  0  0  0  0  0
    9.1524  -14.9434   22.1133 C   0  0  2  0  0  0  0  0  0  0  0  0
    9.4204  -16.1062   21.3348 N   0  0  0  0  0  0  0  0  0  0  0  0
    9.4292  -15.0958   23.5596 C   0  0  0  0  0  0  0  0  0  0  0  0
    9.4926  -14.0744   24.2749 O   0  0  0  0  0  0  0  0  0  0  0  0
    9.6234  -16.3627   24.1495 N   0  0  0  0  0  0  0  0  0  0  0  0
   10.0242  -16.5313   25.5557 C   0  0  1  0  0  0  0  0  0  0  0  0
    8.8342  -16.8215   26.3974 C   0  0  0  0  0  0  0  0  0  0  0  0
    7.7257  -15.8932   26.2113 C   0  0  0  0  0  0  0  0  0  0  0  0
    6.5117  -16.1978   25.6374 C   0  0  0  0  0  0  0  0  0  0  0  0
    5.7750  -15.0791   25.6070 N   0  0  0  0  0  0  0  0  0  0  0  0
    6.4467  -14.0532   26.1349 C   0  0  0  0  0  0  0  0  0  0  0  0
    6.0831  -12.7218   26.3305 C   0  0  0  0  0  0  0  0  0  0  0  0
    6.9491  -11.8384   26.9259 C   0  0  0  0  0  0  0  0  0  0  0  0
    8.1779  -12.3514   27.3085 C   0  0  0  0  0  0  0  0  0  0  0  0
    8.5515  -13.6454   27.1260 C   0  0  0  0  0  0  0  0  0  0  0  0
    7.6680  -14.5353   26.5204 C   0  0  0  0  0  0  0  0  0  0  0  0
   11.1316  -17.4639   25.7429 C   0  0  0  0  0  0  0  0  0  0  0  0
   11.6911  -18.1919   24.6755 O   0  0  0  0  0  0  0  0  0  0  0  0
   11.6922  -17.7188   26.8636 O   0  0  0  0  0  0  0  0  0  0  0  0
  2  9  1  0
  2  1  1  6
  2  3  1  0
  4  3  1  0
  4  5  2  0
  6  5  1  0
  7  6  1  0
  8  7  2  0
  8  4  1  0
  9 16  1  0
 10  9  2  0
 12 11  1  1
 12 13  1  0
 14 12  1  0
 15 14  1  1
 16 15  1  0
 17 15  1  0
 18 17  2  0
 19 17  1  0
 20 31  1  0
 20 19  1  0
 21 22  1  0
 20 21  1  1
 22 23  2  0
 22 30  1  0
 23 24  1  0
 24 25  1  0
 25 26  2  0
 27 26  1  0
 28 27  2  0
 29 28  1  0
 30 29  2  0
 30 25  1  0
 31 32  1  0
 33 31  2  0
M  END
$$$$
