HLW.pdb
     RDKit          3D

 33 35  0  0  1  0  0  0  0  0999 V2000
    9.6781  -19.1015   18.9430 N   0  0  0  0  0  0  0  0  0  0  0  0
    8.9509  -18.5786   20.0697 C   0  0  1  0  0  0  0  0  0  0  0  0
    8.6463  -19.6561   21.0577 C   0  0  0  0  0  0  0  0  0  0  0  0
    7.6930  -20.6438   20.5255 C   0  0  0  0  0  0  0  0  0  0  0  0
    7.0740  -20.7154   19.3086 C   0  0  0  0  0  0  0  0  0  0  0  0
    6.2676  -21.7879   19.2793 N   0  0  0  0  0  0  0  0  0  0  0  0
    6.3705  -22.3962   20.4697 C   0  0  0  0  0  0  0  0  0  0  0  0
    7.2340  -21.6988   21.2182 N   0  0  0  0  0  0  0  0  0  0  0  0
    9.5294  -17.3608   20.6595 C   0  0  0  0  0  0  0  0  0  0  0  0
   10.7959  -17.1990   20.7314 O   0  0  0  0  0  0  0  0  0  0  0  0
    6.6164  -12.6698   20.4188 C   0  0  0  0  0  0  0  0  0  0  0  0
    7.6656  -13.7822   20.3776 C   0  0  1  0  0  0  0  0  0  0  0  0
    8.3987  -13.7803   19.0835 C   0  0  0  0  0  0  0  0  0  0  0  0
    8.4619  -13.8608   21.6195 C   0  0  0  0  0  0  0  0  0  0  0  0
    9.2718  -15.1180   21.8161 C   0  0  2  0  0  0  0  0  0  0  0  0
    8.7616  -16.2896   21.1862 N   0  0  0  0  0  0  0  0  0  0  0  0
    9.6534  -15.3005   23.2348 C   0  0  0  0  0  0  0  0  0  0  0  0
   10.3289  -14.4149   23.7990 O   0  0  0  0  0  0  0  0  0  0  0  0
    9.2749  -16.4473   23.9645 N   0  0  0  0  0  0  0  0  0  0  0  0
    9.7098  -16.6867   25.3501 C   0  0  1  0  0  0  0  0  0  0  0  0
    8.5300  -16.7855   26.2486 C   0  0  0  0  0  0  0  0  0  0  0  0
    7.5719  -15.6963   26.1043 C   0  0  0  0  0  0  0  0  0  0  0  0
    6.2786  -15.8203   25.6483 C   0  0  0  0  0  0  0  0  0  0  0  0
    5.7304  -14.5981   25.6187 N   0  0  0  0  0  0  0  0  0  0  0  0
    6.6017  -13.6761   26.0348 C   0  0  0  0  0  0  0  0  0  0  0  0
    6.4743  -12.2965   26.1884 C   0  0  0  0  0  0  0  0  0  0  0  0
    7.5199  -11.5442   26.6635 C   0  0  0  0  0  0  0  0  0  0  0  0
    8.6800  -12.2361   26.9714 C   0  0  0  0  0  0  0  0  0  0  0  0
    8.8243  -13.5799   26.8281 C   0  0  0  0  0  0  0  0  0  0  0  0
    7.7597  -14.3362   26.3445 C   0  0  0  0  0  0  0  0  0  0  0  0
   10.6593  -17.7872   25.4857 C   0  0  0  0  0  0  0  0  0  0  0  0
   11.0327  -18.5976   24.3966 O   0  0  0  0  0  0  0  0  0  0  0  0
   11.2322  -18.1291   26.5767 O   0  0  0  0  0  0  0  0  0  0  0  0
  2  9  1  0
  2  1  1  6
  2  3  1  0
  4  3  1  0
  4  5  2  0
  6  5  1  0
  7  6  1  0
  8  7  2  0
  8  4  1  0
  9 16  1  0
 10  9  2  0
 12 11  1  1
 12 13  1  0
 14 12  1  0
 15 14  1  1
 16 15  1  0
 17 15  1  0
 18 17  2  0
 19 17  1  0
 20 31  1  0
 20 19  1  0
 21 22  1  0
 20 21  1  1
 22 23  2  0
 22 30  1  0
 23 24  1  0
 24 25  1  0
 25 26  2  0
 27 26  1  0
 28 27  2  0
 29 28  1  0
 30 29  2  0
 30 25  1  0
 31 32  1  0
 33 31  2  0
M  END
$$$$
