HLW.pdb
     RDKit          3D

 33 35  0  0  1  0  0  0  0  0999 V2000
    9.4730  -18.8213   19.4178 N   0  0  0  0  0  0  0  0  0  0  0  0
   10.6277  -17.9620   19.4125 C   0  0  1  0  0  0  0  0  0  0  0  0
   11.1160  -17.7291   18.0207 C   0  0  0  0  0  0  0  0  0  0  0  0
   11.6307  -18.9608   17.3997 C   0  0  0  0  0  0  0  0  0  0  0  0
   11.8814  -20.1911   17.9406 C   0  0  0  0  0  0  0  0  0  0  0  0
   12.3663  -21.0068   16.9914 N   0  0  0  0  0  0  0  0  0  0  0  0
   12.4254  -20.3016   15.8526 C   0  0  0  0  0  0  0  0  0  0  0  0
   11.9792  -19.0654   16.1070 N   0  0  0  0  0  0  0  0  0  0  0  0
   10.4836  -16.7385   20.2174 C   0  0  0  0  0  0  0  0  0  0  0  0
   11.4655  -15.9357   20.3807 O   0  0  0  0  0  0  0  0  0  0  0  0
    8.0485  -13.5662   19.5594 C   0  0  0  0  0  0  0  0  0  0  0  0
    7.5190  -13.4254   20.9877 C   0  0  1  0  0  0  0  0  0  0  0  0
    6.1601  -12.8210   20.9986 C   0  0  0  0  0  0  0  0  0  0  0  0
    7.7384  -14.6403   21.7992 C   0  0  0  0  0  0  0  0  0  0  0  0
    9.1214  -15.2399   21.7449 C   0  0  2  0  0  0  0  0  0  0  0  0
    9.2825  -16.3496   20.8659 N   0  0  0  0  0  0  0  0  0  0  0  0
    9.6764  -15.4461   23.1017 C   0  0  0  0  0  0  0  0  0  0  0  0
   10.5512  -14.6617   23.5238 O   0  0  0  0  0  0  0  0  0  0  0  0
    9.2436  -16.5043   23.9287 N   0  0  0  0  0  0  0  0  0  0  0  0
    9.9685  -16.9108   25.1434 C   0  0  1  0  0  0  0  0  0  0  0  0
    9.1155  -16.7055   26.3431 C   0  0  0  0  0  0  0  0  0  0  0  0
    8.0058  -15.7821   26.1406 C   0  0  0  0  0  0  0  0  0  0  0  0
    6.7611  -16.1172   25.6566 C   0  0  0  0  0  0  0  0  0  0  0  0
    6.0323  -14.9959   25.5746 N   0  0  0  0  0  0  0  0  0  0  0  0
    6.7386  -13.9391   25.9828 C   0  0  0  0  0  0  0  0  0  0  0  0
    6.3959  -12.5921   26.0893 C   0  0  0  0  0  0  0  0  0  0  0  0
    7.2987  -11.6743   26.5661 C   0  0  0  0  0  0  0  0  0  0  0  0
    8.5419  -12.1695   26.9247 C   0  0  0  0  0  0  0  0  0  0  0  0
    8.8956  -13.4782   26.8277 C   0  0  0  0  0  0  0  0  0  0  0  0
    7.9748  -14.4032   26.3421 C   0  0  0  0  0  0  0  0  0  0  0  0
   10.5655  -18.2400   25.0539 C   0  0  0  0  0  0  0  0  0  0  0  0
   10.3541  -19.0872   23.9494 O   0  0  0  0  0  0  0  0  0  0  0  0
   11.3168  -18.7662   25.9449 O   0  0  0  0  0  0  0  0  0  0  0  0
  2  9  1  0
  2  1  1  6
  2  3  1  0
  4  3  1  0
  4  5  2  0
  6  5  1  0
  7  6  1  0
  8  7  2  0
  8  4  1  0
  9 16  1  0
 10  9  2  0
 12 11  1  6
 12 13  1  0
 14 12  1  0
 15 14  1  1
 16 15  1  0
 17 15  1  0
 18 17  2  0
 19 17  1  0
 20 31  1  0
 20 19  1  0
 21 22  1  0
 20 21  1  1
 22 23  2  0
 22 30  1  0
 23 24  1  0
 24 25  1  0
 25 26  2  0
 27 26  1  0
 28 27  2  0
 29 28  1  0
 30 29  2  0
 30 25  1  0
 31 32  1  0
 33 31  2  0
M  END
$$$$
