HLW.pdb
     RDKit          3D

 33 35  0  0  1  0  0  0  0  0999 V2000
    9.9950  -18.4770   18.4254 N   0  0  0  0  0  0  0  0  0  0  0  0
    9.5769  -18.4662   19.8026 C   0  0  1  0  0  0  0  0  0  0  0  0
   10.0574  -19.6857   20.5180 C   0  0  0  0  0  0  0  0  0  0  0  0
    9.6554  -20.9255   19.8333 C   0  0  0  0  0  0  0  0  0  0  0  0
    8.4349  -21.5346   19.7418 C   0  0  0  0  0  0  0  0  0  0  0  0
    8.5512  -22.6646   19.0271 N   0  0  0  0  0  0  0  0  0  0  0  0
    9.8374  -22.7765   18.6655 C   0  0  0  0  0  0  0  0  0  0  0  0
   10.4992  -21.7215   19.1566 N   0  0  0  0  0  0  0  0  0  0  0  0
    9.8396  -17.2039   20.5119 C   0  0  0  0  0  0  0  0  0  0  0  0
   11.0282  -16.7466   20.6285 O   0  0  0  0  0  0  0  0  0  0  0  0
    6.2605  -13.0549   20.0625 C   0  0  0  0  0  0  0  0  0  0  0  0
    7.6055  -13.7730   20.1860 C   0  0  1  0  0  0  0  0  0  0  0  0
    8.6546  -13.0883   19.3842 C   0  0  0  0  0  0  0  0  0  0  0  0
    7.9322  -14.1356   21.5804 C   0  0  0  0  0  0  0  0  0  0  0  0
    9.0289  -15.1541   21.7671 C   0  0  2  0  0  0  0  0  0  0  0  0
    8.8326  -16.4044   21.1128 N   0  0  0  0  0  0  0  0  0  0  0  0
    9.4330  -15.2613   23.1873 C   0  0  0  0  0  0  0  0  0  0  0  0
    9.8559  -14.2442   23.7750 O   0  0  0  0  0  0  0  0  0  0  0  0
    9.3532  -16.4808   23.8925 N   0  0  0  0  0  0  0  0  0  0  0  0
    9.8463  -16.6353   25.2706 C   0  0  1  0  0  0  0  0  0  0  0  0
    8.7071  -16.8336   26.2043 C   0  0  0  0  0  0  0  0  0  0  0  0
    7.5898  -15.9219   25.9912 C   0  0  0  0  0  0  0  0  0  0  0  0
    6.3987  -16.2416   25.3788 C   0  0  0  0  0  0  0  0  0  0  0  0
    5.6452  -15.1345   25.3339 N   0  0  0  0  0  0  0  0  0  0  0  0
    6.2841  -14.1020   25.8890 C   0  0  0  0  0  0  0  0  0  0  0  0
    5.8932  -12.7780   26.0829 C   0  0  0  0  0  0  0  0  0  0  0  0
    6.7265  -11.8855   26.7103 C   0  0  0  0  0  0  0  0  0  0  0  0
    7.9513  -12.3816   27.1263 C   0  0  0  0  0  0  0  0  0  0  0  0
    8.3511  -13.6680   26.9462 C   0  0  0  0  0  0  0  0  0  0  0  0
    7.5008  -14.5674   26.3079 C   0  0  0  0  0  0  0  0  0  0  0  0
   10.9105  -17.6255   25.4060 C   0  0  0  0  0  0  0  0  0  0  0  0
   11.2884  -18.4737   24.3476 O   0  0  0  0  0  0  0  0  0  0  0  0
   11.5897  -17.8289   26.4703 O   0  0  0  0  0  0  0  0  0  0  0  0
  2  9  1  0
  2  1  1  6
  2  3  1  0
  4  3  1  0
  4  5  2  0
  6  5  1  0
  7  6  1  0
  8  7  2  0
  8  4  1  0
  9 16  1  0
 10  9  2  0
 12 11  1  1
 12 13  1  0
 14 12  1  0
 15 14  1  1
 16 15  1  0
 17 15  1  0
 18 17  2  0
 19 17  1  0
 20 31  1  0
 20 19  1  0
 21 22  1  0
 20 21  1  1
 22 23  2  0
 22 30  1  0
 23 24  1  0
 24 25  1  0
 25 26  2  0
 27 26  1  0
 28 27  2  0
 29 28  1  0
 30 29  2  0
 30 25  1  0
 31 32  1  0
 33 31  2  0
M  END
$$$$
