HLW.pdb
     RDKit          3D

 33 35  0  0  1  0  0  0  0  0999 V2000
    9.0324  -20.3491   19.4929 N   0  0  0  0  0  0  0  0  0  0  0  0
    8.5508  -19.5937   20.6194 C   0  0  1  0  0  0  0  0  0  0  0  0
    8.6772  -20.3780   21.8839 C   0  0  0  0  0  0  0  0  0  0  0  0
    7.9173  -21.6380   21.8339 C   0  0  0  0  0  0  0  0  0  0  0  0
    6.6579  -21.8985   21.3700 C   0  0  0  0  0  0  0  0  0  0  0  0
    6.3757  -23.1985   21.5477 N   0  0  0  0  0  0  0  0  0  0  0  0
    7.4473  -23.7638   22.1218 C   0  0  0  0  0  0  0  0  0  0  0  0
    8.3755  -22.8143   22.2920 N   0  0  0  0  0  0  0  0  0  0  0  0
    9.0721  -18.2201   20.7030 C   0  0  0  0  0  0  0  0  0  0  0  0
   10.2980  -17.9620   20.4461 O   0  0  0  0  0  0  0  0  0  0  0  0
    7.1683  -12.2898   20.3267 C   0  0  0  0  0  0  0  0  0  0  0  0
    8.2446  -13.2945   20.7415 C   0  0  1  0  0  0  0  0  0  0  0  0
    8.9953  -12.8151   21.9327 C   0  0  0  0  0  0  0  0  0  0  0  0
    7.7502  -14.6866   20.7541 C   0  0  0  0  0  0  0  0  0  0  0  0
    8.7453  -15.7460   21.1573 C   0  0  2  0  0  0  0  0  0  0  0  0
    8.2896  -17.0927   21.0650 N   0  0  0  0  0  0  0  0  0  0  0  0
    9.4074  -15.4085   22.4377 C   0  0  0  0  0  0  0  0  0  0  0  0
   10.0074  -14.3184   22.5402 O   0  0  0  0  0  0  0  0  0  0  0  0
    9.3785  -16.2851   23.5429 N   0  0  0  0  0  0  0  0  0  0  0  0
   10.1484  -16.0386   24.7728 C   0  0  1  0  0  0  0  0  0  0  0  0
    9.2990  -16.2824   25.9677 C   0  0  0  0  0  0  0  0  0  0  0  0
    7.9797  -15.6657   25.9031 C   0  0  0  0  0  0  0  0  0  0  0  0
    6.8190  -16.2931   25.5096 C   0  0  0  0  0  0  0  0  0  0  0  0
    5.8285  -15.3914   25.5425 N   0  0  0  0  0  0  0  0  0  0  0  0
    6.2827  -14.2007   25.9403 C   0  0  0  0  0  0  0  0  0  0  0  0
    5.6254  -12.9877   26.1393 C   0  0  0  0  0  0  0  0  0  0  0  0
    6.3101  -11.8833   26.5823 C   0  0  0  0  0  0  0  0  0  0  0  0
    7.6655  -12.0560   26.8114 C   0  0  0  0  0  0  0  0  0  0  0  0
    8.3247  -13.2295   26.6228 C   0  0  0  0  0  0  0  0  0  0  0  0
    7.6236  -14.3452   26.1722 C   0  0  0  0  0  0  0  0  0  0  0  0
   11.4378  -16.7225   24.8054 C   0  0  0  0  0  0  0  0  0  0  0  0
   12.3618  -16.5373   25.8514 O   0  0  0  0  0  0  0  0  0  0  0  0
   11.8586  -17.5338   23.9109 O   0  0  0  0  0  0  0  0  0  0  0  0
  2  9  1  0
  2  1  1  6
  2  3  1  0
  4  3  1  0
  4  5  2  0
  6  5  1  0
  7  6  1  0
  8  7  2  0
  8  4  1  0
  9 16  1  0
 10  9  2  0
 12 11  1  1
 12 13  1  0
 14 12  1  0
 15 14  1  1
 16 15  1  0
 17 15  1  0
 18 17  2  0
 19 17  1  0
 20 31  1  0
 20 19  1  0
 21 22  1  0
 20 21  1  1
 22 23  2  0
 22 30  1  0
 23 24  1  0
 24 25  1  0
 25 26  2  0
 27 26  1  0
 28 27  2  0
 29 28  1  0
 30 29  2  0
 30 25  1  0
 31 32  1  0
 33 31  2  0
M  END
$$$$
