HLW.pdb
     RDKit          3D

 33 35  0  0  1  0  0  0  0  0999 V2000
    9.2041  -19.7397   20.1899 N   0  0  0  0  0  0  0  0  0  0  0  0
   10.3372  -18.9197   19.8505 C   0  0  1  0  0  0  0  0  0  0  0  0
   10.6937  -19.0688   18.4080 C   0  0  0  0  0  0  0  0  0  0  0  0
   11.0466  -20.4561   18.0641 C   0  0  0  0  0  0  0  0  0  0  0  0
   11.8785  -21.3426   18.6894 C   0  0  0  0  0  0  0  0  0  0  0  0
   11.9072  -22.4930   17.9986 N   0  0  0  0  0  0  0  0  0  0  0  0
   11.0998  -22.3414   16.9390 C   0  0  0  0  0  0  0  0  0  0  0  0
   10.5830  -21.1073   16.9850 N   0  0  0  0  0  0  0  0  0  0  0  0
   10.2430  -17.5251   20.3110 C   0  0  0  0  0  0  0  0  0  0  0  0
   11.2327  -16.7234   20.1964 O   0  0  0  0  0  0  0  0  0  0  0  0
    8.5117  -12.7131   20.6270 C   0  0  0  0  0  0  0  0  0  0  0  0
    7.5260  -13.5323   21.4620 C   0  0  1  0  0  0  0  0  0  0  0  0
    6.1783  -12.9031   21.4708 C   0  0  0  0  0  0  0  0  0  0  0  0
    7.6076  -14.9805   21.1815 C   0  0  0  0  0  0  0  0  0  0  0  0
    8.9534  -15.6279   21.3933 C   0  0  2  0  0  0  0  0  0  0  0  0
    9.0848  -16.9600   20.9056 N   0  0  0  0  0  0  0  0  0  0  0  0
    9.4376  -15.4307   22.7783 C   0  0  0  0  0  0  0  0  0  0  0  0
    9.7506  -14.2815   23.1526 O   0  0  0  0  0  0  0  0  0  0  0  0
    9.5549  -16.5057   23.6846 N   0  0  0  0  0  0  0  0  0  0  0  0
   10.1650  -16.3595   25.0160 C   0  0  1  0  0  0  0  0  0  0  0  0
    9.1372  -16.5399   26.0743 C   0  0  0  0  0  0  0  0  0  0  0  0
    7.9652  -15.6859   25.9255 C   0  0  0  0  0  0  0  0  0  0  0  0
    6.7238  -16.0951   25.4926 C   0  0  0  0  0  0  0  0  0  0  0  0
    5.9247  -15.0205   25.4494 N   0  0  0  0  0  0  0  0  0  0  0  0
    6.5815  -13.9239   25.8346 C   0  0  0  0  0  0  0  0  0  0  0  0
    6.1616  -12.6011   25.9650 C   0  0  0  0  0  0  0  0  0  0  0  0
    7.0258  -11.6314   26.4095 C   0  0  0  0  0  0  0  0  0  0  0  0
    8.3113  -12.0505   26.7114 C   0  0  0  0  0  0  0  0  0  0  0  0
    8.7403  -13.3345   26.5903 C   0  0  0  0  0  0  0  0  0  0  0  0
    7.8581  -14.3124   26.1378 C   0  0  0  0  0  0  0  0  0  0  0  0
   11.3658  -17.1683   25.2038 C   0  0  0  0  0  0  0  0  0  0  0  0
   11.8125  -18.0882   24.2360 O   0  0  0  0  0  0  0  0  0  0  0  0
   12.1156  -17.1355   26.2391 O   0  0  0  0  0  0  0  0  0  0  0  0
  2  9  1  0
  2  1  1  6
  2  3  1  0
  4  3  1  0
  4  5  2  0
  6  5  1  0
  7  6  1  0
  8  7  2  0
  8  4  1  0
  9 16  1  0
 10  9  2  0
 12 11  1  6
 12 13  1  0
 14 12  1  0
 15 14  1  1
 16 15  1  0
 17 15  1  0
 18 17  2  0
 19 17  1  0
 20 31  1  0
 20 19  1  0
 21 22  1  0
 20 21  1  1
 22 23  2  0
 22 30  1  0
 23 24  1  0
 24 25  1  0
 25 26  2  0
 27 26  1  0
 28 27  2  0
 29 28  1  0
 30 29  2  0
 30 25  1  0
 31 32  1  0
 33 31  2  0
M  END
$$$$
