HLW.pdb
     RDKit          3D

 33 35  0  0  1  0  0  0  0  0999 V2000
   11.4664  -18.4818   18.0895 N   0  0  0  0  0  0  0  0  0  0  0  0
   10.5509  -18.7095   19.1765 C   0  0  1  0  0  0  0  0  0  0  0  0
   10.8840  -19.9713   19.9024 C   0  0  0  0  0  0  0  0  0  0  0  0
   10.9406  -21.1327   18.9993 C   0  0  0  0  0  0  0  0  0  0  0  0
   10.1483  -21.4729   17.9383 C   0  0  0  0  0  0  0  0  0  0  0  0
   10.5678  -22.6388   17.4225 N   0  0  0  0  0  0  0  0  0  0  0  0
   11.6202  -23.0404   18.1498 C   0  0  0  0  0  0  0  0  0  0  0  0
   11.8398  -22.1249   19.1015 N   0  0  0  0  0  0  0  0  0  0  0  0
   10.3375  -17.5451   20.0508 C   0  0  0  0  0  0  0  0  0  0  0  0
   11.3136  -16.9924   20.6648 O   0  0  0  0  0  0  0  0  0  0  0  0
    9.1479  -13.2404   20.0017 C   0  0  0  0  0  0  0  0  0  0  0  0
    7.9286  -13.5711   20.8641 C   0  0  1  0  0  0  0  0  0  0  0  0
    6.8036  -12.6400   20.5817 C   0  0  0  0  0  0  0  0  0  0  0  0
    7.6319  -15.0178   20.9007 C   0  0  0  0  0  0  0  0  0  0  0  0
    8.7855  -15.9287   21.2394 C   0  0  2  0  0  0  0  0  0  0  0  0
    9.0715  -16.9484   20.2864 N   0  0  0  0  0  0  0  0  0  0  0  0
    8.7095  -16.4015   22.6402 C   0  0  0  0  0  0  0  0  0  0  0  0
    7.5921  -16.4884   23.1903 O   0  0  0  0  0  0  0  0  0  0  0  0
    9.8649  -16.7556   23.3686 N   0  0  0  0  0  0  0  0  0  0  0  0
   10.1473  -16.2311   24.7146 C   0  0  1  0  0  0  0  0  0  0  0  0
    9.8485  -14.7763   24.7717 C   0  0  0  0  0  0  0  0  0  0  0  0
    8.5071  -14.4564   25.2443 C   0  0  0  0  0  0  0  0  0  0  0  0
    7.4197  -15.3001   25.2040 C   0  0  0  0  0  0  0  0  0  0  0  0
    6.3615  -14.6360   25.6881 N   0  0  0  0  0  0  0  0  0  0  0  0
    6.7018  -13.3956   26.0459 C   0  0  0  0  0  0  0  0  0  0  0  0
    5.9508  -12.3639   26.6071 C   0  0  0  0  0  0  0  0  0  0  0  0
    6.5339  -11.1602   26.9165 C   0  0  0  0  0  0  0  0  0  0  0  0
    7.8865  -11.0471   26.6387 C   0  0  0  0  0  0  0  0  0  0  0  0
    8.6356  -12.0403   26.0914 C   0  0  0  0  0  0  0  0  0  0  0  0
    8.0369  -13.2583   25.7792 C   0  0  0  0  0  0  0  0  0  0  0  0
    9.5374  -17.0100   25.7882 C   0  0  0  0  0  0  0  0  0  0  0  0
    8.4193  -17.8387   25.5752 O   0  0  0  0  0  0  0  0  0  0  0  0
    9.9358  -17.0185   27.0033 O   0  0  0  0  0  0  0  0  0  0  0  0
  2  9  1  0
  2  1  1  6
  2  3  1  0
  4  3  1  0
  4  5  2  0
  6  5  1  0
  7  6  1  0
  8  7  2  0
  8  4  1  0
  9 16  1  0
 10  9  2  0
 12 11  1  6
 12 13  1  0
 14 12  1  0
 15 14  1  6
 16 15  1  0
 17 15  1  0
 18 17  2  0
 19 17  1  0
 20 31  1  0
 20 19  1  0
 21 22  1  0
 20 21  1  6
 22 23  2  0
 22 30  1  0
 23 24  1  0
 24 25  1  0
 25 26  2  0
 27 26  1  0
 28 27  2  0
 29 28  1  0
 30 29  2  0
 30 25  1  0
 31 32  1  0
 33 31  2  0
M  END
$$$$
