HLW.pdb
     RDKit          3D

 33 35  0  0  1  0  0  0  0  0999 V2000
   10.0096  -19.7176   19.9920 N   0  0  0  0  0  0  0  0  0  0  0  0
   10.9924  -18.6985   19.7335 C   0  0  1  0  0  0  0  0  0  0  0  0
   11.4802  -18.7695   18.3239 C   0  0  0  0  0  0  0  0  0  0  0  0
   12.0257  -20.0960   17.9916 C   0  0  0  0  0  0  0  0  0  0  0  0
   13.1819  -20.7069   18.3904 C   0  0  0  0  0  0  0  0  0  0  0  0
   13.2717  -21.9152   17.8131 N   0  0  0  0  0  0  0  0  0  0  0  0
   12.1806  -22.0741   17.0503 C   0  0  0  0  0  0  0  0  0  0  0  0
   11.4317  -20.9702   17.1630 N   0  0  0  0  0  0  0  0  0  0  0  0
   10.6048  -17.3488   20.1738 C   0  0  0  0  0  0  0  0  0  0  0  0
   11.3111  -16.3268   19.8708 O   0  0  0  0  0  0  0  0  0  0  0  0
    7.9320  -12.9064   20.6960 C   0  0  0  0  0  0  0  0  0  0  0  0
    7.2232  -14.0157   21.4750 C   0  0  1  0  0  0  0  0  0  0  0  0
    5.7656  -13.7431   21.5897 C   0  0  0  0  0  0  0  0  0  0  0  0
    7.6390  -15.3674   21.0476 C   0  0  0  0  0  0  0  0  0  0  0  0
    9.0420  -15.7825   21.4143 C   0  0  2  0  0  0  0  0  0  0  0  0
    9.4507  -17.0660   20.9500 N   0  0  0  0  0  0  0  0  0  0  0  0
    9.3260  -15.5282   22.8448 C   0  0  0  0  0  0  0  0  0  0  0  0
    9.5589  -14.3596   23.2175 O   0  0  0  0  0  0  0  0  0  0  0  0
    9.3409  -16.5701   23.7961 N   0  0  0  0  0  0  0  0  0  0  0  0
    9.9432  -16.4190   25.1306 C   0  0  1  0  0  0  0  0  0  0  0  0
    8.8966  -16.5222   26.1808 C   0  0  0  0  0  0  0  0  0  0  0  0
    7.7535  -15.6404   25.9787 C   0  0  0  0  0  0  0  0  0  0  0  0
    6.5017  -16.0325   25.5604 C   0  0  0  0  0  0  0  0  0  0  0  0
    5.7378  -14.9368   25.4543 N   0  0  0  0  0  0  0  0  0  0  0  0
    6.4279  -13.8426   25.7841 C   0  0  0  0  0  0  0  0  0  0  0  0
    6.0503  -12.5019   25.8403 C   0  0  0  0  0  0  0  0  0  0  0  0
    6.9433  -11.5378   26.2374 C   0  0  0  0  0  0  0  0  0  0  0  0
    8.2132  -11.9808   26.5698 C   0  0  0  0  0  0  0  0  0  0  0  0
    8.6010  -13.2825   26.5208 C   0  0  0  0  0  0  0  0  0  0  0  0
    7.6899  -14.2548   26.1160 C   0  0  0  0  0  0  0  0  0  0  0  0
   11.1012  -17.2797   25.3530 C   0  0  0  0  0  0  0  0  0  0  0  0
   11.5041  -18.2552   24.4211 O   0  0  0  0  0  0  0  0  0  0  0  0
   11.8487  -17.2470   26.3901 O   0  0  0  0  0  0  0  0  0  0  0  0
  2  9  1  0
  2  1  1  6
  2  3  1  0
  4  3  1  0
  4  5  2  0
  6  5  1  0
  7  6  1  0
  8  7  2  0
  8  4  1  0
  9 16  1  0
 10  9  2  0
 12 11  1  6
 12 13  1  0
 14 12  1  0
 15 14  1  1
 16 15  1  0
 17 15  1  0
 18 17  2  0
 19 17  1  0
 20 31  1  0
 20 19  1  0
 21 22  1  0
 20 21  1  1
 22 23  2  0
 22 30  1  0
 23 24  1  0
 24 25  1  0
 25 26  2  0
 27 26  1  0
 28 27  2  0
 29 28  1  0
 30 29  2  0
 30 25  1  0
 31 32  1  0
 33 31  2  0
M  END
$$$$
