HLW.pdb
     RDKit          3D

 33 35  0  0  1  0  0  0  0  0999 V2000
    9.1688  -19.1356   18.5568 N   0  0  0  0  0  0  0  0  0  0  0  0
    8.4830  -18.6802   19.7374 C   0  0  1  0  0  0  0  0  0  0  0  0
    8.1604  -19.8222   20.6438 C   0  0  0  0  0  0  0  0  0  0  0  0
    7.2857  -20.8143   19.9971 C   0  0  0  0  0  0  0  0  0  0  0  0
    6.7092  -20.8167   18.7574 C   0  0  0  0  0  0  0  0  0  0  0  0
    5.9711  -21.9278   18.6095 N   0  0  0  0  0  0  0  0  0  0  0  0
    6.0750  -22.6294   19.7473 C   0  0  0  0  0  0  0  0  0  0  0  0
    6.8713  -21.9500   20.5818 N   0  0  0  0  0  0  0  0  0  0  0  0
    9.1155  -17.5333   20.4083 C   0  0  0  0  0  0  0  0  0  0  0  0
   10.3847  -17.4692   20.5512 O   0  0  0  0  0  0  0  0  0  0  0  0
    7.9880  -14.1669   19.0045 C   0  0  0  0  0  0  0  0  0  0  0  0
    8.0950  -13.2646   20.2352 C   0  0  1  0  0  0  0  0  0  0  0  0
    7.1699  -12.1046   20.1317 C   0  0  0  0  0  0  0  0  0  0  0  0
    8.1051  -14.0262   21.5011 C   0  0  0  0  0  0  0  0  0  0  0  0
    8.9677  -15.2632   21.5304 C   0  0  2  0  0  0  0  0  0  0  0  0
    8.3999  -16.4297   20.9417 N   0  0  0  0  0  0  0  0  0  0  0  0
    9.5613  -15.4783   22.8694 C   0  0  0  0  0  0  0  0  0  0  0  0
   10.3366  -14.6167   23.3337 O   0  0  0  0  0  0  0  0  0  0  0  0
    9.2748  -16.6296   23.6330 N   0  0  0  0  0  0  0  0  0  0  0  0
    9.8868  -16.8839   24.9472 C   0  0  1  0  0  0  0  0  0  0  0  0
    9.7233  -15.6979   25.8279 C   0  0  0  0  0  0  0  0  0  0  0  0
    8.3467  -15.2392   25.9685 C   0  0  0  0  0  0  0  0  0  0  0  0
    7.2228  -16.0260   25.8521 C   0  0  0  0  0  0  0  0  0  0  0  0
    6.1486  -15.2397   26.0039 N   0  0  0  0  0  0  0  0  0  0  0  0
    6.5129  -13.9730   26.2158 C   0  0  0  0  0  0  0  0  0  0  0  0
    5.7542  -12.8258   26.4431 C   0  0  0  0  0  0  0  0  0  0  0  0
    6.3624  -11.6147   26.6619 C   0  0  0  0  0  0  0  0  0  0  0  0
    7.7477  -11.6141   26.6415 C   0  0  0  0  0  0  0  0  0  0  0  0
    8.5051  -12.7209   26.4211 C   0  0  0  0  0  0  0  0  0  0  0  0
    7.8809  -13.9458   26.1988 C   0  0  0  0  0  0  0  0  0  0  0  0
    9.4690  -18.1434   25.5557 C   0  0  0  0  0  0  0  0  0  0  0  0
   10.0908  -18.6666   26.7055 O   0  0  0  0  0  0  0  0  0  0  0  0
    8.5263  -18.8894   25.1198 O   0  0  0  0  0  0  0  0  0  0  0  0
  2  9  1  0
  2  1  1  6
  2  3  1  0
  4  3  1  0
  4  5  2  0
  6  5  1  0
  7  6  1  0
  8  7  2  0
  8  4  1  0
  9 16  1  0
 10  9  2  0
 12 11  1  6
 12 13  1  0
 14 12  1  0
 15 14  1  1
 16 15  1  0
 17 15  1  0
 18 17  2  0
 19 17  1  0
 20 31  1  0
 20 19  1  0
 21 22  1  0
 20 21  1  1
 22 23  2  0
 22 30  1  0
 23 24  1  0
 24 25  1  0
 25 26  2  0
 27 26  1  0
 28 27  2  0
 29 28  1  0
 30 29  2  0
 30 25  1  0
 31 32  1  0
 33 31  2  0
M  END
$$$$
