NVI.pdb
     RDKit          3D

 24 23  0  0  1  0  0  0  0  0999 V2000
   20.8318  -10.4961  -22.0185 N   0  0  0  0  0  0  0  0  0  0  0  0
   20.2022   -9.3166  -21.5375 C   0  0  0  0  0  0  0  0  0  0  0  0
   19.8272   -8.4594  -22.3730 O   0  0  0  0  0  0  0  0  0  0  0  0
   20.0142   -9.1455  -20.0766 C   0  0  0  0  0  0  0  0  0  0  0  0
   20.4550  -10.3320  -19.2939 C   0  0  2  0  0  0  0  0  0  0  0  0
   19.6107  -11.5094  -19.4594 N   0  0  0  0  0  0  0  0  0  0  0  0
   20.6685  -10.0350  -17.8598 C   0  0  0  0  0  0  0  0  0  0  0  0
   19.7159  -10.0235  -17.0507 O   0  0  0  0  0  0  0  0  0  0  0  0
   24.5999  -10.0232  -16.0883 C   0  0  0  0  0  0  0  0  0  0  0  0
   23.3049  -10.2622  -15.3206 C   0  0  1  0  0  0  0  0  0  0  0  0
   23.5498   -9.9464  -13.8745 C   0  0  0  0  0  0  0  0  0  0  0  0
   22.2385   -9.4572  -15.9496 C   0  0  2  0  0  0  0  0  0  0  0  0
   21.9592   -9.7479  -17.3195 N   0  0  0  0  0  0  0  0  0  0  0  0
   22.3534   -7.9746  -15.7224 C   0  0  0  0  0  0  0  0  0  0  0  0
   23.1229   -7.3351  -16.4499 O   0  0  0  0  0  0  0  0  0  0  0  0
   20.7008   -2.9122  -15.8407 C   0  0  0  0  0  0  0  0  0  0  0  0
   20.4667   -3.7127  -14.5481 C   0  0  0  0  0  0  0  0  0  0  0  0
   20.5437   -5.1702  -14.8638 C   0  0  2  0  0  0  0  0  0  0  0  0
   19.3350   -5.8440  -14.1992 C   0  0  0  0  0  0  0  0  0  0  0  0
   21.8040   -5.8571  -14.4240 C   0  0  2  0  0  0  0  0  0  0  0  0
   21.6247   -7.2898  -14.7269 N   0  0  0  0  0  0  0  0  0  0  0  0
   22.1995   -5.6188  -13.0442 C   0  0  0  0  0  0  0  0  0  0  0  0
   22.7921   -4.5133  -12.8075 O   0  0  0  0  0  0  0  0  0  0  0  0
   22.0101   -6.4430  -11.9653 O   0  0  0  0  0  0  0  0  0  0  0  0
  2  1  1  0
  3  2  2  0
  4  2  1  0
  5  4  1  0
  5  6  1  1
  7  5  1  0
  7  8  2  0
 10  9  1  6
 10 12  1  0
 10 11  1  0
 12 13  1  6
 13  7  1  0
 14 12  1  0
 15 14  2  0
 17 16  1  0
 18 17  1  0
 18 19  1  1
 20 18  1  0
 20 21  1  1
 21 14  1  0
 22 20  1  0
 23 22  2  0
 24 22  1  0
M  END
$$$$
