NVI.pdb
     RDKit          3D

 24 23  0  0  1  0  0  0  0  0999 V2000
   17.8338  -18.6937  -14.2814 N   0  0  0  0  0  0  0  0  0  0  0  0
   17.7239  -19.7269  -13.3123 C   0  0  0  0  0  0  0  0  0  0  0  0
   16.6116  -19.9111  -12.7625 O   0  0  0  0  0  0  0  0  0  0  0  0
   18.9201  -20.5420  -12.9904 C   0  0  0  0  0  0  0  0  0  0  0  0
   19.4207  -21.3198  -14.1561 C   0  0  2  0  0  0  0  0  0  0  0  0
   18.4849  -22.3184  -14.6596 N   0  0  0  0  0  0  0  0  0  0  0  0
   20.7547  -21.9179  -13.9256 C   0  0  0  0  0  0  0  0  0  0  0  0
   20.9032  -22.9002  -13.1670 O   0  0  0  0  0  0  0  0  0  0  0  0
   23.9406  -21.3078  -16.6246 C   0  0  0  0  0  0  0  0  0  0  0  0
   23.9112  -22.4436  -15.6083 C   0  0  1  0  0  0  0  0  0  0  0  0
   25.3158  -22.9302  -15.4055 C   0  0  0  0  0  0  0  0  0  0  0  0
   23.2524  -21.9506  -14.3820 C   0  0  2  0  0  0  0  0  0  0  0  0
   21.9385  -21.4165  -14.5479 N   0  0  0  0  0  0  0  0  0  0  0  0
   24.1023  -21.0459  -13.5323 C   0  0  0  0  0  0  0  0  0  0  0  0
   23.9980  -19.8251  -13.7025 O   0  0  0  0  0  0  0  0  0  0  0  0
   24.6518  -21.2483   -8.2824 C   0  0  0  0  0  0  0  0  0  0  0  0
   24.5825  -20.7732   -9.7438 C   0  0  0  0  0  0  0  0  0  0  0  0
   25.8957  -21.0446  -10.4011 C   0  0  2  0  0  0  0  0  0  0  0  0
   26.9656  -20.2741   -9.6148 C   0  0  0  0  0  0  0  0  0  0  0  0
   25.9764  -20.6723  -11.8531 C   0  0  2  0  0  0  0  0  0  0  0  0
   25.0013  -21.5270  -12.5569 N   0  0  0  0  0  0  0  0  0  0  0  0
   27.3053  -20.7315  -12.4429 C   0  0  0  0  0  0  0  0  0  0  0  0
   27.6973  -21.8787  -12.8424 O   0  0  0  0  0  0  0  0  0  0  0  0
   28.1883  -19.6982  -12.6213 O   0  0  0  0  0  0  0  0  0  0  0  0
  2  1  1  0
  3  2  2  0
  4  2  1  0
  5  4  1  0
  5  6  1  1
  7  5  1  0
  7  8  2  0
 10  9  1  6
 10 12  1  0
 10 11  1  0
 12 13  1  6
 13  7  1  0
 14 12  1  0
 15 14  2  0
 17 16  1  0
 18 17  1  0
 18 19  1  1
 20 18  1  0
 20 21  1  6
 21 14  1  0
 22 20  1  0
 23 22  2  0
 24 22  1  0
M  END
$$$$
