NVI.pdb
     RDKit          3D

 24 23  0  0  1  0  0  0  0  0999 V2000
   27.5426  -23.2023  -15.5488 N   0  0  0  0  0  0  0  0  0  0  0  0
   27.0626  -21.8931  -15.2757 C   0  0  0  0  0  0  0  0  0  0  0  0
   27.8888  -20.9495  -15.2521 O   0  0  0  0  0  0  0  0  0  0  0  0
   25.6138  -21.6942  -15.0306 C   0  0  0  0  0  0  0  0  0  0  0  0
   25.3311  -21.0684  -13.7103 C   0  0  2  0  0  0  0  0  0  0  0  0
   25.9837  -21.7230  -12.5824 N   0  0  0  0  0  0  0  0  0  0  0  0
   23.8852  -20.8894  -13.4502 C   0  0  0  0  0  0  0  0  0  0  0  0
   23.0241  -21.3270  -14.2434 O   0  0  0  0  0  0  0  0  0  0  0  0
   20.1954  -19.5990  -10.4155 C   0  0  0  0  0  0  0  0  0  0  0  0
   21.7068  -19.7353  -10.5592 C   0  0  1  0  0  0  0  0  0  0  0  0
   22.1762  -20.7970   -9.6087 C   0  0  0  0  0  0  0  0  0  0  0  0
   22.0144  -20.0060  -11.9780 C   0  0  2  0  0  0  0  0  0  0  0  0
   23.3917  -20.2150  -12.2918 N   0  0  0  0  0  0  0  0  0  0  0  0
   21.3744  -19.0552  -12.9523 C   0  0  0  0  0  0  0  0  0  0  0  0
   21.7278  -17.8701  -12.9221 O   0  0  0  0  0  0  0  0  0  0  0  0
   20.2878  -17.6081  -18.2143 C   0  0  0  0  0  0  0  0  0  0  0  0
   19.2433  -18.1757  -17.2381 C   0  0  0  0  0  0  0  0  0  0  0  0
   19.9489  -18.9553  -16.1777 C   0  0  2  0  0  0  0  0  0  0  0  0
   19.5372  -20.4249  -16.3438 C   0  0  0  0  0  0  0  0  0  0  0  0
   19.6769  -18.5155  -14.7685 C   0  0  2  0  0  0  0  0  0  0  0  0
   20.4008  -19.4557  -13.8918 N   0  0  0  0  0  0  0  0  0  0  0  0
   18.2722  -18.3826  -14.4130 C   0  0  0  0  0  0  0  0  0  0  0  0
   17.6960  -19.4350  -13.9773 O   0  0  0  0  0  0  0  0  0  0  0  0
   17.4923  -17.2578  -14.4902 O   0  0  0  0  0  0  0  0  0  0  0  0
  2  1  1  0
  3  2  2  0
  4  2  1  0
  5  4  1  0
  5  6  1  1
  7  5  1  0
  7  8  2  0
 10  9  1  6
 10 12  1  0
 10 11  1  0
 12 13  1  1
 13  7  1  0
 14 12  1  0
 15 14  2  0
 17 16  1  0
 18 17  1  0
 18 19  1  1
 20 18  1  0
 20 21  1  1
 21 14  1  0
 22 20  1  0
 23 22  2  0
 24 22  1  0
M  END
$$$$
