NVI.pdb
     RDKit          3D

 24 23  0  0  1  0  0  0  0  0999 V2000
   29.6697  -24.2179  -19.1591 N   0  0  0  0  0  0  0  0  0  0  0  0
   30.3054  -22.9485  -19.1021 C   0  0  0  0  0  0  0  0  0  0  0  0
   31.2905  -22.7423  -19.8508 O   0  0  0  0  0  0  0  0  0  0  0  0
   29.7835  -21.9235  -18.1661 C   0  0  0  0  0  0  0  0  0  0  0  0
   28.6350  -22.4118  -17.3555 C   0  0  2  0  0  0  0  0  0  0  0  0
   27.3832  -22.5273  -18.0945 N   0  0  0  0  0  0  0  0  0  0  0  0
   28.4390  -21.6448  -16.1051 C   0  0  0  0  0  0  0  0  0  0  0  0
   29.3648  -21.5064  -15.2768 O   0  0  0  0  0  0  0  0  0  0  0  0
   27.7342  -18.1594  -15.7857 C   0  0  0  0  0  0  0  0  0  0  0  0
   26.6086  -18.7726  -14.9607 C   0  0  1  0  0  0  0  0  0  0  0  0
   25.3268  -18.6185  -15.7251 C   0  0  0  0  0  0  0  0  0  0  0  0
   26.9705  -20.1702  -14.6502 C   0  0  2  0  0  0  0  0  0  0  0  0
   27.1967  -21.0232  -15.7728 N   0  0  0  0  0  0  0  0  0  0  0  0
   26.0864  -20.8369  -13.6319 C   0  0  0  0  0  0  0  0  0  0  0  0
   25.3840  -21.7839  -14.0061 O   0  0  0  0  0  0  0  0  0  0  0  0
   25.5840  -20.8492   -7.4825 C   0  0  0  0  0  0  0  0  0  0  0  0
   24.9018  -21.2840   -8.7907 C   0  0  0  0  0  0  0  0  0  0  0  0
   25.6667  -20.7207   -9.9430 C   0  0  2  0  0  0  0  0  0  0  0  0
   25.7569  -19.2030   -9.7305 C   0  0  0  0  0  0  0  0  0  0  0  0
   25.0867  -21.0027  -11.2986 C   0  0  2  0  0  0  0  0  0  0  0  0
   26.0287  -20.4335  -12.2810 N   0  0  0  0  0  0  0  0  0  0  0  0
   23.7190  -20.5496  -11.5023 C   0  0  0  0  0  0  0  0  0  0  0  0
   23.5769  -19.4066  -12.0525 O   0  0  0  0  0  0  0  0  0  0  0  0
   22.5620  -21.2069  -11.1728 O   0  0  0  0  0  0  0  0  0  0  0  0
  2  1  1  0
  3  2  2  0
  4  2  1  0
  5  4  1  0
  5  6  1  6
  7  5  1  0
  7  8  2  0
 10  9  1  6
 10 12  1  0
 10 11  1  0
 12 13  1  6
 13  7  1  0
 14 12  1  0
 15 14  2  0
 17 16  1  0
 18 17  1  0
 18 19  1  1
 20 18  1  0
 20 21  1  6
 21 14  1  0
 22 20  1  0
 23 22  2  0
 24 22  1  0
M  END
$$$$
