NVI.pdb
     RDKit          3D

 24 23  0  0  1  0  0  0  0  0999 V2000
   18.3017  -15.5036  -20.0122 N   0  0  0  0  0  0  0  0  0  0  0  0
   17.6898  -14.2595  -19.7013 C   0  0  0  0  0  0  0  0  0  0  0  0
   16.8288  -13.8057  -20.4927 O   0  0  0  0  0  0  0  0  0  0  0  0
   18.0897  -13.5503  -18.4619 C   0  0  0  0  0  0  0  0  0  0  0  0
   19.1602  -14.2594  -17.7097 C   0  0  2  0  0  0  0  0  0  0  0  0
   18.7765  -15.5764  -17.2149 N   0  0  0  0  0  0  0  0  0  0  0  0
   19.7482  -13.4409  -16.6259 C   0  0  0  0  0  0  0  0  0  0  0  0
   19.2697  -13.4528  -15.4712 O   0  0  0  0  0  0  0  0  0  0  0  0
   23.7083  -11.9135  -16.7514 C   0  0  0  0  0  0  0  0  0  0  0  0
   22.8601  -11.9966  -15.4875 C   0  0  1  0  0  0  0  0  0  0  0  0
   23.4304  -11.0480  -14.4747 C   0  0  0  0  0  0  0  0  0  0  0  0
   21.4553  -11.7268  -15.8542 C   0  0  2  0  0  0  0  0  0  0  0  0
   20.8837  -12.5988  -16.8299 N   0  0  0  0  0  0  0  0  0  0  0  0
   21.1536  -10.2874  -16.1703 C   0  0  0  0  0  0  0  0  0  0  0  0
   21.5345   -9.8414  -17.2594 O   0  0  0  0  0  0  0  0  0  0  0  0
   16.4041   -8.4364  -16.2205 C   0  0  0  0  0  0  0  0  0  0  0  0
   17.9017   -8.5445  -16.5545 C   0  0  0  0  0  0  0  0  0  0  0  0
   18.6844   -7.8556  -15.4855 C   0  0  2  0  0  0  0  0  0  0  0  0
   18.3256   -6.3643  -15.5486 C   0  0  0  0  0  0  0  0  0  0  0  0
   20.1743   -8.0161  -15.5754 C   0  0  2  0  0  0  0  0  0  0  0  0
   20.4582   -9.4349  -15.2868 N   0  0  0  0  0  0  0  0  0  0  0  0
   20.9541   -7.1069  -14.7494 C   0  0  0  0  0  0  0  0  0  0  0  0
   21.0720   -7.4202  -13.5176 O   0  0  0  0  0  0  0  0  0  0  0  0
   21.5794   -5.9506  -15.1387 O   0  0  0  0  0  0  0  0  0  0  0  0
  2  1  1  0
  3  2  2  0
  4  2  1  0
  5  4  1  0
  5  6  1  1
  7  5  1  0
  7  8  2  0
 10  9  1  6
 10 12  1  0
 10 11  1  0
 12 13  1  6
 13  7  1  0
 14 12  1  0
 15 14  2  0
 17 16  1  0
 18 17  1  0
 18 19  1  6
 20 18  1  0
 20 21  1  1
 21 14  1  0
 22 20  1  0
 23 22  2  0
 24 22  1  0
M  END
$$$$
