NVI.pdb
     RDKit          3D

 24 23  0  0  1  0  0  0  0  0999 V2000
   18.4625  -17.4860  -15.5429 N   0  0  0  0  0  0  0  0  0  0  0  0
   17.6930  -16.2921  -15.5080 C   0  0  0  0  0  0  0  0  0  0  0  0
   16.5261  -16.3495  -15.0512 O   0  0  0  0  0  0  0  0  0  0  0  0
   18.2947  -15.0329  -16.0094 C   0  0  0  0  0  0  0  0  0  0  0  0
   17.4137  -14.3130  -16.9687 C   0  0  2  0  0  0  0  0  0  0  0  0
   17.0894  -15.0700  -18.1721 N   0  0  0  0  0  0  0  0  0  0  0  0
   17.9126  -12.9632  -17.3146 C   0  0  0  0  0  0  0  0  0  0  0  0
   18.7727  -12.7981  -18.2064 O   0  0  0  0  0  0  0  0  0  0  0  0
   17.5840   -8.0685  -17.1238 C   0  0  0  0  0  0  0  0  0  0  0  0
   16.9391   -9.4440  -17.2481 C   0  0  1  0  0  0  0  0  0  0  0  0
   16.3937   -9.5843  -18.6388 C   0  0  0  0  0  0  0  0  0  0  0  0
   17.9442  -10.4616  -16.8805 C   0  0  2  0  0  0  0  0  0  0  0  0
   17.4475  -11.7820  -16.6598 N   0  0  0  0  0  0  0  0  0  0  0  0
   18.8867  -10.0464  -15.7840 C   0  0  0  0  0  0  0  0  0  0  0  0
   18.4513  -10.0162  -14.6265 O   0  0  0  0  0  0  0  0  0  0  0  0
   24.6409  -10.9871  -14.5020 C   0  0  0  0  0  0  0  0  0  0  0  0
   23.4586  -10.0819  -14.1161 C   0  0  0  0  0  0  0  0  0  0  0  0
   22.4050  -10.1911  -15.1687 C   0  0  2  0  0  0  0  0  0  0  0  0
   23.0559   -9.8078  -16.5052 C   0  0  0  0  0  0  0  0  0  0  0  0
   21.1843   -9.3462  -14.9459 C   0  0  2  0  0  0  0  0  0  0  0  0
   20.2337   -9.6973  -16.0182 N   0  0  0  0  0  0  0  0  0  0  0  0
   21.4217   -7.9138  -14.8512 C   0  0  0  0  0  0  0  0  0  0  0  0
   21.3898   -7.2604  -15.9473 O   0  0  0  0  0  0  0  0  0  0  0  0
   21.6757   -7.1808  -13.7209 O   0  0  0  0  0  0  0  0  0  0  0  0
  2  1  1  0
  3  2  2  0
  4  2  1  0
  5  4  1  0
  5  6  1  6
  7  5  1  0
  7  8  2  0
 10  9  1  6
 10 12  1  0
 10 11  1  0
 12 13  1  1
 13  7  1  0
 14 12  1  0
 15 14  2  0
 17 16  1  0
 18 17  1  0
 18 19  1  6
 20 18  1  0
 20 21  1  6
 21 14  1  0
 22 20  1  0
 23 22  2  0
 24 22  1  0
M  END
$$$$
