NVI.pdb
     RDKit          3D

 24 23  0  0  1  0  0  0  0  0999 V2000
   21.4965  -18.8646  -17.3850 N   0  0  0  0  0  0  0  0  0  0  0  0
   21.1266  -18.7582  -16.0172 C   0  0  0  0  0  0  0  0  0  0  0  0
   20.1830  -17.9891  -15.7142 O   0  0  0  0  0  0  0  0  0  0  0  0
   21.8651  -19.5547  -15.0077 C   0  0  0  0  0  0  0  0  0  0  0  0
   22.9314  -20.4023  -15.6071 C   0  0  2  0  0  0  0  0  0  0  0  0
   22.4376  -21.4716  -16.4669 N   0  0  0  0  0  0  0  0  0  0  0  0
   23.8849  -20.9302  -14.6059 C   0  0  0  0  0  0  0  0  0  0  0  0
   23.5567  -21.8392  -13.8133 O   0  0  0  0  0  0  0  0  0  0  0  0
   27.8836  -19.2133  -14.0845 C   0  0  0  0  0  0  0  0  0  0  0  0
   27.5752  -20.6784  -13.7980 C   0  0  1  0  0  0  0  0  0  0  0  0
   28.5107  -21.1555  -12.7266 C   0  0  0  0  0  0  0  0  0  0  0  0
   26.1436  -20.7915  -13.4539 C   0  0  2  0  0  0  0  0  0  0  0  0
   25.2213  -20.4403  -14.4860 N   0  0  0  0  0  0  0  0  0  0  0  0
   25.7599  -20.1571  -12.1449 C   0  0  0  0  0  0  0  0  0  0  0  0
   25.3494  -18.9904  -12.1650 O   0  0  0  0  0  0  0  0  0  0  0  0
   22.6574  -21.2435   -7.2936 C   0  0  0  0  0  0  0  0  0  0  0  0
   23.8557  -20.3895   -7.7418 C   0  0  0  0  0  0  0  0  0  0  0  0
   24.3504  -20.9045   -9.0533 C   0  0  2  0  0  0  0  0  0  0  0  0
   24.6756  -22.3928   -8.8640 C   0  0  0  0  0  0  0  0  0  0  0  0
   25.5514  -20.1965   -9.6099 C   0  0  2  0  0  0  0  0  0  0  0  0
   25.8445  -20.8320  -10.9087 N   0  0  0  0  0  0  0  0  0  0  0  0
   26.7118  -20.1462   -8.7334 C   0  0  0  0  0  0  0  0  0  0  0  0
   27.6415  -20.9867   -8.9754 O   0  0  0  0  0  0  0  0  0  0  0  0
   26.9257  -19.3003   -7.6761 O   0  0  0  0  0  0  0  0  0  0  0  0
  2  1  1  0
  3  2  2  0
  4  2  1  0
  5  4  1  0
  5  6  1  1
  7  5  1  0
  7  8  2  0
 10  9  1  1
 10 12  1  0
 10 11  1  0
 12 13  1  6
 13  7  1  0
 14 12  1  0
 15 14  2  0
 17 16  1  0
 18 17  1  0
 18 19  1  1
 20 18  1  0
 20 21  1  6
 21 14  1  0
 22 20  1  0
 23 22  2  0
 24 22  1  0
M  END
$$$$
