NVI.pdb
     RDKit          3D

 24 23  0  0  1  0  0  0  0  0999 V2000
   21.2025  -17.5804  -15.5026 N   0  0  0  0  0  0  0  0  0  0  0  0
   21.0749  -18.5349  -14.4579 C   0  0  0  0  0  0  0  0  0  0  0  0
   20.0361  -18.5123  -13.7550 O   0  0  0  0  0  0  0  0  0  0  0  0
   22.1669  -19.5142  -14.2402 C   0  0  0  0  0  0  0  0  0  0  0  0
   23.2893  -19.3525  -15.2039 C   0  0  2  0  0  0  0  0  0  0  0  0
   22.8909  -19.4065  -16.6056 N   0  0  0  0  0  0  0  0  0  0  0  0
   24.4172  -20.2741  -14.9416 C   0  0  0  0  0  0  0  0  0  0  0  0
   24.4221  -21.4391  -15.3943 O   0  0  0  0  0  0  0  0  0  0  0  0
   27.9036  -19.9103  -15.7722 C   0  0  0  0  0  0  0  0  0  0  0  0
   27.9884  -20.2570  -14.2902 C   0  0  1  0  0  0  0  0  0  0  0  0
   28.4876  -19.0500  -13.5522 C   0  0  0  0  0  0  0  0  0  0  0  0
   26.6628  -20.7370  -13.8505 C   0  0  2  0  0  0  0  0  0  0  0  0
   25.5546  -19.8936  -14.1658 N   0  0  0  0  0  0  0  0  0  0  0  0
   26.6041  -21.1972  -12.4195 C   0  0  0  0  0  0  0  0  0  0  0  0
   27.2081  -22.2342  -12.1193 O   0  0  0  0  0  0  0  0  0  0  0  0
   27.5686  -19.5331   -6.9811 C   0  0  0  0  0  0  0  0  0  0  0  0
   26.6172  -20.4905   -7.7190 C   0  0  0  0  0  0  0  0  0  0  0  0
   26.5916  -20.1232   -9.1662 C   0  0  2  0  0  0  0  0  0  0  0  0
   26.0986  -18.6724   -9.2585 C   0  0  0  0  0  0  0  0  0  0  0  0
   25.7370  -20.9986  -10.0362 C   0  0  2  0  0  0  0  0  0  0  0  0
   25.8992  -20.5003  -11.4153 N   0  0  0  0  0  0  0  0  0  0  0  0
   24.3418  -21.1080   -9.6378 C   0  0  0  0  0  0  0  0  0  0  0  0
   24.1197  -21.6014   -8.4817 O   0  0  0  0  0  0  0  0  0  0  0  0
   23.2347  -20.7425  -10.3589 O   0  0  0  0  0  0  0  0  0  0  0  0
  2  1  1  0
  3  2  2  0
  4  2  1  0
  5  4  1  0
  5  6  1  6
  7  5  1  0
  7  8  2  0
 10  9  1  6
 10 12  1  0
 10 11  1  0
 12 13  1  1
 13  7  1  0
 14 12  1  0
 15 14  2  0
 17 16  1  0
 18 17  1  0
 18 19  1  1
 20 18  1  0
 20 21  1  6
 21 14  1  0
 22 20  1  0
 23 22  2  0
 24 22  1  0
M  END
$$$$
