NVI.pdb
     RDKit          3D

 24 23  0  0  1  0  0  0  0  0999 V2000
   22.0825  -14.1853  -21.7288 N   0  0  0  0  0  0  0  0  0  0  0  0
   20.7242  -14.0372  -21.3390 C   0  0  0  0  0  0  0  0  0  0  0  0
   19.8393  -14.5679  -22.0525 O   0  0  0  0  0  0  0  0  0  0  0  0
   20.4071  -13.2665  -20.1125 C   0  0  0  0  0  0  0  0  0  0  0  0
   21.6215  -12.7564  -19.4200 C   0  0  2  0  0  0  0  0  0  0  0  0
   22.5657  -13.7930  -19.0196 N   0  0  0  0  0  0  0  0  0  0  0  0
   21.3091  -11.8618  -18.2832 C   0  0  0  0  0  0  0  0  0  0  0  0
   20.1678  -11.3738  -18.1361 O   0  0  0  0  0  0  0  0  0  0  0  0
   24.2585  -11.1584  -15.2512 C   0  0  0  0  0  0  0  0  0  0  0  0
   22.7734  -11.1624  -14.9078 C   0  0  1  0  0  0  0  0  0  0  0  0
   22.5637  -10.2771  -13.7148 C   0  0  0  0  0  0  0  0  0  0  0  0
   22.0191  -10.7558  -16.1105 C   0  0  2  0  0  0  0  0  0  0  0  0
   22.2794  -11.5064  -17.2971 N   0  0  0  0  0  0  0  0  0  0  0  0
   22.0315   -9.2777  -16.3902 C   0  0  0  0  0  0  0  0  0  0  0  0
   23.0620   -8.7872  -16.8675 O   0  0  0  0  0  0  0  0  0  0  0  0
   19.0392   -5.0722  -19.0541 C   0  0  0  0  0  0  0  0  0  0  0  0
   19.9051   -5.2124  -17.7905 C   0  0  0  0  0  0  0  0  0  0  0  0
   20.0658   -6.6633  -17.4755 C   0  0  2  0  0  0  0  0  0  0  0  0
   18.6636   -7.2290  -17.2103 C   0  0  0  0  0  0  0  0  0  0  0  0
   20.9591   -6.9723  -16.3092 C   0  0  2  0  0  0  0  0  0  0  0  0
   20.9268   -8.4372  -16.1369 N   0  0  0  0  0  0  0  0  0  0  0  0
   20.6570   -6.2544  -15.0802 C   0  0  0  0  0  0  0  0  0  0  0  0
   20.9703   -5.0172  -15.0551 O   0  0  0  0  0  0  0  0  0  0  0  0
   20.0736   -6.7505  -13.9432 O   0  0  0  0  0  0  0  0  0  0  0  0
  2  1  1  0
  3  2  2  0
  4  2  1  0
  5  4  1  0
  5  6  1  1
  7  5  1  0
  7  8  2  0
 10  9  1  6
 10 12  1  0
 10 11  1  0
 12 13  1  6
 13  7  1  0
 14 12  1  0
 15 14  2  0
 17 16  1  0
 18 17  1  0
 18 19  1  1
 20 18  1  0
 20 21  1  1
 21 14  1  0
 22 20  1  0
 23 22  2  0
 24 22  1  0
M  END
$$$$
