NVI.pdb
     RDKit          3D

 24 23  0  0  1  0  0  0  0  0999 V2000
   26.9922  -20.0720   -6.5159 N   0  0  0  0  0  0  0  0  0  0  0  0
   26.6178  -19.3350   -7.6715 C   0  0  0  0  0  0  0  0  0  0  0  0
   26.1735  -18.1721   -7.5174 O   0  0  0  0  0  0  0  0  0  0  0  0
   26.7654  -19.9646   -9.0060 C   0  0  0  0  0  0  0  0  0  0  0  0
   25.4607  -20.3370   -9.6172 C   0  0  2  0  0  0  0  0  0  0  0  0
   24.6519  -21.2391   -8.8058 N   0  0  0  0  0  0  0  0  0  0  0  0
   25.5920  -20.8480  -11.0000 C   0  0  0  0  0  0  0  0  0  0  0  0
   25.9549  -22.0226  -11.2260 O   0  0  0  0  0  0  0  0  0  0  0  0
   24.2899  -22.0141  -15.1750 C   0  0  0  0  0  0  0  0  0  0  0  0
   24.2745  -21.6501  -13.6949 C   0  0  1  0  0  0  0  0  0  0  0  0
   24.6111  -22.8800  -12.9042 C   0  0  0  0  0  0  0  0  0  0  0  0
   25.1996  -20.5180  -13.4869 C   0  0  2  0  0  0  0  0  0  0  0  0
   25.3152  -20.0414  -12.1458 N   0  0  0  0  0  0  0  0  0  0  0  0
   25.0262  -19.3790  -14.4542 C   0  0  0  0  0  0  0  0  0  0  0  0
   24.0527  -18.6315  -14.3002 O   0  0  0  0  0  0  0  0  0  0  0  0
   29.4907  -17.1718  -16.6189 C   0  0  0  0  0  0  0  0  0  0  0  0
   28.1219  -17.3773  -15.9479 C   0  0  0  0  0  0  0  0  0  0  0  0
   27.1122  -17.6948  -17.0013 C   0  0  2  0  0  0  0  0  0  0  0  0
   27.0237  -16.4749  -17.9290 C   0  0  0  0  0  0  0  0  0  0  0  0
   25.7416  -18.0388  -16.4947 C   0  0  2  0  0  0  0  0  0  0  0  0
   25.9208  -19.1283  -15.5162 N   0  0  0  0  0  0  0  0  0  0  0  0
   24.7565  -18.3571  -17.5171 C   0  0  0  0  0  0  0  0  0  0  0  0
   23.8797  -17.4611  -17.7577 O   0  0  0  0  0  0  0  0  0  0  0  0
   24.6585  -19.5082  -18.2551 O   0  0  0  0  0  0  0  0  0  0  0  0
  2  1  1  0
  3  2  2  0
  4  2  1  0
  5  4  1  0
  5  6  1  1
  7  5  1  0
  7  8  2  0
 10  9  1  6
 10 12  1  0
 10 11  1  0
 12 13  1  1
 13  7  1  0
 14 12  1  0
 15 14  2  0
 17 16  1  0
 18 17  1  0
 18 19  1  6
 20 18  1  0
 20 21  1  1
 21 14  1  0
 22 20  1  0
 23 22  2  0
 24 22  1  0
M  END
$$$$
