NVI.pdb
     RDKit          3D

 24 23  0  0  1  0  0  0  0  0999 V2000
   19.5360  -22.5076  -12.6403 N   0  0  0  0  0  0  0  0  0  0  0  0
   19.8339  -21.6750  -11.5281 C   0  0  0  0  0  0  0  0  0  0  0  0
   19.0551  -21.6944  -10.5449 O   0  0  0  0  0  0  0  0  0  0  0  0
   21.0456  -20.8213  -11.5721 C   0  0  0  0  0  0  0  0  0  0  0  0
   21.7652  -20.9052  -12.8720 C   0  0  2  0  0  0  0  0  0  0  0  0
   21.8958  -22.2578  -13.4010 N   0  0  0  0  0  0  0  0  0  0  0  0
   23.0758  -20.2178  -12.8556 C   0  0  0  0  0  0  0  0  0  0  0  0
   23.1931  -19.0549  -12.4127 O   0  0  0  0  0  0  0  0  0  0  0  0
   27.9600  -20.2343  -12.9486 C   0  0  0  0  0  0  0  0  0  0  0  0
   26.6646  -21.0208  -12.7837 C   0  0  1  0  0  0  0  0  0  0  0  0
   26.4943  -21.3476  -11.3293 C   0  0  0  0  0  0  0  0  0  0  0  0
   25.5635  -20.2263  -13.3644 C   0  0  2  0  0  0  0  0  0  0  0  0
   24.2712  -20.8332  -13.3378 N   0  0  0  0  0  0  0  0  0  0  0  0
   25.8586  -19.6379  -14.7170 C   0  0  0  0  0  0  0  0  0  0  0  0
   25.6105  -20.3260  -15.7146 O   0  0  0  0  0  0  0  0  0  0  0  0
   25.9292  -14.2200  -14.8199 C   0  0  0  0  0  0  0  0  0  0  0  0
   25.5297  -15.6062  -15.3538 C   0  0  0  0  0  0  0  0  0  0  0  0
   26.7277  -16.2472  -15.9734 C   0  0  2  0  0  0  0  0  0  0  0  0
   26.9890  -15.5304  -17.3056 C   0  0  0  0  0  0  0  0  0  0  0  0
   26.6137  -17.7246  -16.2139 C   0  0  2  0  0  0  0  0  0  0  0  0
   26.3974  -18.3458  -14.8933 N   0  0  0  0  0  0  0  0  0  0  0  0
   27.7172  -18.3280  -16.9457 C   0  0  0  0  0  0  0  0  0  0  0  0
   28.8107  -18.4734  -16.3035 O   0  0  0  0  0  0  0  0  0  0  0  0
   27.7212  -18.7604  -18.2465 O   0  0  0  0  0  0  0  0  0  0  0  0
  2  1  1  0
  3  2  2  0
  4  2  1  0
  5  4  1  0
  5  6  1  1
  7  5  1  0
  7  8  2  0
 10  9  1  1
 10 12  1  0
 10 11  1  0
 12 13  1  6
 13  7  1  0
 14 12  1  0
 15 14  2  0
 17 16  1  0
 18 17  1  0
 18 19  1  6
 20 18  1  0
 20 21  1  1
 21 14  1  0
 22 20  1  0
 23 22  2  0
 24 22  1  0
M  END
$$$$
