QEG.pdb
     RDKit          3D

 23 22  0  0  1  0  0  0  0  0999 V2000
    8.0562  -11.6107   20.8853 N   0  0  0  0  0  0  0  0  0  0  0  0
    7.5813  -12.9700   20.8969 C   0  0  0  0  0  0  0  0  0  0  0  0
    6.8859  -13.2840   21.8809 O   0  0  0  0  0  0  0  0  0  0  0  0
    7.9295  -13.8672   19.8030 C   0  0  0  0  0  0  0  0  0  0  0  0
    8.7939  -13.2160   18.7838 C   0  0  0  0  0  0  0  0  0  0  0  0
    9.1640  -14.0691   17.6261 C   0  0  2  0  0  0  0  0  0  0  0  0
    8.1549  -14.8394   17.0055 N   0  0  0  0  0  0  0  0  0  0  0  0
   10.2754  -14.9651   18.0773 C   0  0  0  0  0  0  0  0  0  0  0  0
   10.1535  -16.2233   18.0538 O   0  0  0  0  0  0  0  0  0  0  0  0
   11.4629  -14.4113   18.5322 N   0  0  0  0  0  0  0  0  0  0  0  0
   12.6270  -15.2250   18.9794 C   0  0  1  0  0  0  0  0  0  0  0  0
   13.7729  -14.6656   18.2073 C   0  0  0  0  0  0  0  0  0  0  0  0
   15.1220  -15.2565   18.4534 C   0  0  0  0  0  0  0  0  0  0  0  0
   16.1414  -14.5530   17.6583 C   0  0  0  0  0  0  0  0  0  0  0  0
   16.3358  -14.9022   16.4639 O   0  0  0  0  0  0  0  0  0  0  0  0
   12.6803  -15.2381   20.4298 C   0  0  0  0  0  0  0  0  0  0  0  0
   12.6457  -14.1379   21.0858 O   0  0  0  0  0  0  0  0  0  0  0  0
   16.8869  -13.5273   18.1802 O   0  0  0  0  0  0  0  0  0  0  0  0
   12.7716  -16.4057   21.2307 N   0  0  0  0  0  0  0  0  0  0  0  0
   12.8084  -16.3859   22.6812 C   0  0  0  0  0  0  0  0  0  0  0  0
   14.1996  -16.4023   23.1616 C   0  0  0  0  0  0  0  0  0  0  0  0
   15.1880  -16.4269   22.3901 O   0  0  0  0  0  0  0  0  0  0  0  0
   14.4291  -16.3897   24.5241 O   0  0  0  0  0  0  0  0  0  0  0  0
  2  1  1  0
  2  3  2  0
  4  2  1  0
  5  4  1  0
  6  5  1  0
  6  7  1  1
  8  6  1  0
  8 10  1  0
  9  8  2  0
 11 10  1  0
 11 12  1  6
 12 13  1  0
 13 14  1  0
 14 15  2  0
 16 11  1  0
 17 16  2  0
 18 14  1  0
 19 16  1  0
 20 21  1  0
 20 19  1  0
 21 23  1  0
 22 21  2  0
M  END
$$$$
