QEG.pdb
     RDKit          3D

 23 22  0  0  1  0  0  0  0  0999 V2000
    8.2568  -15.6145   13.8112 N   0  0  0  0  0  0  0  0  0  0  0  0
    7.6938  -14.3631   14.2478 C   0  0  0  0  0  0  0  0  0  0  0  0
    6.9855  -13.7751   13.4092 O   0  0  0  0  0  0  0  0  0  0  0  0
    7.9755  -13.8725   15.5904 C   0  0  0  0  0  0  0  0  0  0  0  0
    8.8672  -14.7832   16.3556 C   0  0  0  0  0  0  0  0  0  0  0  0
    9.1800  -14.3499   17.7410 C   0  0  2  0  0  0  0  0  0  0  0  0
    9.3789  -12.9730   17.9887 N   0  0  0  0  0  0  0  0  0  0  0  0
   10.3863  -15.1198   18.1809 C   0  0  0  0  0  0  0  0  0  0  0  0
   10.4534  -16.3736   18.0330 O   0  0  0  0  0  0  0  0  0  0  0  0
   11.4531  -14.4517   18.7638 N   0  0  0  0  0  0  0  0  0  0  0  0
   12.6985  -15.1331   19.2129 C   0  0  1  0  0  0  0  0  0  0  0  0
   13.7598  -14.5486   18.3444 C   0  0  0  0  0  0  0  0  0  0  0  0
   14.1111  -15.2877   17.0955 C   0  0  0  0  0  0  0  0  0  0  0  0
   15.3234  -14.7168   16.4869 C   0  0  0  0  0  0  0  0  0  0  0  0
   16.2905  -14.3993   17.2287 O   0  0  0  0  0  0  0  0  0  0  0  0
   12.8158  -15.0262   20.6556 C   0  0  0  0  0  0  0  0  0  0  0  0
   12.9169  -13.8755   21.2104 O   0  0  0  0  0  0  0  0  0  0  0  0
   15.4314  -14.5198   15.1342 O   0  0  0  0  0  0  0  0  0  0  0  0
   12.8305  -16.1236   21.5549 N   0  0  0  0  0  0  0  0  0  0  0  0
   12.8872  -15.9810   22.9979 C   0  0  0  0  0  0  0  0  0  0  0  0
   14.2491  -16.2466   23.4887 C   0  0  0  0  0  0  0  0  0  0  0  0
   15.1880  -16.6035   22.7379 O   0  0  0  0  0  0  0  0  0  0  0  0
   14.5071  -16.0961   24.8379 O   0  0  0  0  0  0  0  0  0  0  0  0
  2  1  1  0
  2  3  2  0
  4  2  1  0
  5  4  1  0
  6  5  1  0
  6  7  1  6
  8  6  1  0
  8 10  1  0
  9  8  2  0
 11 10  1  0
 11 12  1  6
 12 13  1  0
 13 14  1  0
 14 15  2  0
 16 11  1  0
 17 16  2  0
 18 14  1  0
 19 16  1  0
 20 21  1  0
 20 19  1  0
 21 23  1  0
 22 21  2  0
M  END
$$$$
