QEG.pdb
     RDKit          3D

 23 22  0  0  1  0  0  0  0  0999 V2000
    7.4929  -12.1962   17.7552 N   0  0  0  0  0  0  0  0  0  0  0  0
    7.3583  -13.5986   17.4571 C   0  0  0  0  0  0  0  0  0  0  0  0
    7.1748  -13.8738   16.2566 O   0  0  0  0  0  0  0  0  0  0  0  0
    7.4377  -14.5776   18.5331 C   0  0  0  0  0  0  0  0  0  0  0  0
    7.5853  -13.9454   19.8704 C   0  0  0  0  0  0  0  0  0  0  0  0
    8.5415  -14.6155   20.7878 C   0  0  2  0  0  0  0  0  0  0  0  0
    9.3096  -15.6932   20.2924 N   0  0  0  0  0  0  0  0  0  0  0  0
    7.7624  -15.0615   21.9860 C   0  0  0  0  0  0  0  0  0  0  0  0
    6.9502  -14.2853   22.5659 O   0  0  0  0  0  0  0  0  0  0  0  0
    7.9310  -16.3485   22.4752 N   0  0  0  0  0  0  0  0  0  0  0  0
    7.2221  -16.8663   23.6780 C   0  0  1  0  0  0  0  0  0  0  0  0
    6.4855  -18.0600   23.1735 C   0  0  0  0  0  0  0  0  0  0  0  0
    5.5738  -17.8636   22.0073 C   0  0  0  0  0  0  0  0  0  0  0  0
    5.0075  -19.1524   21.5778 C   0  0  0  0  0  0  0  0  0  0  0  0
    5.3269  -20.2000   22.1998 O   0  0  0  0  0  0  0  0  0  0  0  0
    8.1669  -17.0175   24.7694 C   0  0  0  0  0  0  0  0  0  0  0  0
    7.7544  -17.3421   25.9384 O   0  0  0  0  0  0  0  0  0  0  0  0
    4.1414  -19.2466   20.5190 O   0  0  0  0  0  0  0  0  0  0  0  0
    9.5696  -16.8320   24.6637 N   0  0  0  0  0  0  0  0  0  0  0  0
   10.4940  -17.0400   25.7627 C   0  0  0  0  0  0  0  0  0  0  0  0
   11.8766  -16.7819   25.3289 C   0  0  0  0  0  0  0  0  0  0  0  0
   12.1731  -16.4439   24.1581 O   0  0  0  0  0  0  0  0  0  0  0  0
   12.8958  -16.9174   26.2521 O   0  0  0  0  0  0  0  0  0  0  0  0
  2  1  1  0
  2  3  2  0
  4  2  1  0
  5  4  1  0
  6  5  1  0
  6  7  1  6
  8  6  1  0
  8 10  1  0
  9  8  2  0
 11 10  1  0
 11 12  1  6
 12 13  1  0
 13 14  1  0
 14 15  2  0
 16 11  1  0
 17 16  2  0
 18 14  1  0
 19 16  1  0
 20 21  1  0
 20 19  1  0
 21 23  1  0
 22 21  2  0
M  END
$$$$
