QEG.pdb
     RDKit          3D

 23 22  0  0  1  0  0  0  0  0999 V2000
    6.9796  -11.6592   25.1227 N   0  0  0  0  0  0  0  0  0  0  0  0
    6.5025  -12.7744   25.8988 C   0  0  0  0  0  0  0  0  0  0  0  0
    6.1185  -12.4977   27.0505 O   0  0  0  0  0  0  0  0  0  0  0  0
    6.4989  -14.1108   25.3184 C   0  0  0  0  0  0  0  0  0  0  0  0
    7.0318  -14.1319   23.9307 C   0  0  0  0  0  0  0  0  0  0  0  0
    7.0860  -15.4710   23.2913 C   0  0  2  0  0  0  0  0  0  0  0  0
    5.8935  -16.2233   23.1985 N   0  0  0  0  0  0  0  0  0  0  0  0
    8.1262  -16.2643   24.0195 C   0  0  0  0  0  0  0  0  0  0  0  0
    7.8040  -17.1637   24.8476 O   0  0  0  0  0  0  0  0  0  0  0  0
    9.4703  -16.0121   23.7872 N   0  0  0  0  0  0  0  0  0  0  0  0
   10.5669  -16.8724   24.3113 C   0  0  1  0  0  0  0  0  0  0  0  0
   11.7505  -16.4819   23.4933 C   0  0  0  0  0  0  0  0  0  0  0  0
   11.8589  -17.0597   22.1207 C   0  0  0  0  0  0  0  0  0  0  0  0
   13.0704  -16.5612   21.4500 C   0  0  0  0  0  0  0  0  0  0  0  0
   12.9777  -15.5783   20.6680 O   0  0  0  0  0  0  0  0  0  0  0  0
   10.6262  -16.7547   25.7566 C   0  0  0  0  0  0  0  0  0  0  0  0
   10.5189  -15.6061   26.3146 O   0  0  0  0  0  0  0  0  0  0  0  0
   14.2988  -17.1361   21.6516 O   0  0  0  0  0  0  0  0  0  0  0  0
   10.8001  -17.8388   26.6554 N   0  0  0  0  0  0  0  0  0  0  0  0
   10.8449  -17.6890   28.0980 C   0  0  0  0  0  0  0  0  0  0  0  0
   11.1012  -18.9869   28.7431 C   0  0  0  0  0  0  0  0  0  0  0  0
   11.1519  -20.0669   28.1077 O   0  0  0  0  0  0  0  0  0  0  0  0
   11.2955  -19.0190   30.1108 O   0  0  0  0  0  0  0  0  0  0  0  0
  2  1  1  0
  2  3  2  0
  4  2  1  0
  5  4  1  0
  6  5  1  0
  6  7  1  1
  8  6  1  0
  8 10  1  0
  9  8  2  0
 11 10  1  0
 11 12  1  6
 12 13  1  0
 13 14  1  0
 14 15  2  0
 16 11  1  0
 17 16  2  0
 18 14  1  0
 19 16  1  0
 20 21  1  0
 20 19  1  0
 21 23  1  0
 22 21  2  0
M  END
$$$$
