QEG.pdb
     RDKit          3D

 23 22  0  0  1  0  0  0  0  0999 V2000
    8.0755  -12.0039   20.8319 N   0  0  0  0  0  0  0  0  0  0  0  0
    7.6365  -13.1118   20.0237 C   0  0  0  0  0  0  0  0  0  0  0  0
    7.5394  -12.8776   18.8046 O   0  0  0  0  0  0  0  0  0  0  0  0
    7.3389  -14.3923   20.6519 C   0  0  0  0  0  0  0  0  0  0  0  0
    8.3186  -15.4488   20.2863 C   0  0  0  0  0  0  0  0  0  0  0  0
    7.9993  -16.8110   20.7839 C   0  0  2  0  0  0  0  0  0  0  0  0
    6.6882  -17.3057   20.6020 N   0  0  0  0  0  0  0  0  0  0  0  0
    8.3515  -16.8416   22.2388 C   0  0  0  0  0  0  0  0  0  0  0  0
    7.4822  -17.1052   23.1181 O   0  0  0  0  0  0  0  0  0  0  0  0
    9.6534  -16.5754   22.6363 N   0  0  0  0  0  0  0  0  0  0  0  0
   10.1520  -16.8144   24.0189 C   0  0  1  0  0  0  0  0  0  0  0  0
   11.5762  -17.2090   23.8230 C   0  0  0  0  0  0  0  0  0  0  0  0
   11.8585  -18.6472   23.5374 C   0  0  0  0  0  0  0  0  0  0  0  0
   13.3032  -18.8580   23.3523 C   0  0  0  0  0  0  0  0  0  0  0  0
   13.7884  -18.7932   22.1918 O   0  0  0  0  0  0  0  0  0  0  0  0
    9.8354  -15.6693   24.8526 C   0  0  0  0  0  0  0  0  0  0  0  0
    9.9927  -14.4804   24.4012 O   0  0  0  0  0  0  0  0  0  0  0  0
   14.1379  -19.1233   24.4073 O   0  0  0  0  0  0  0  0  0  0  0  0
    9.3457  -15.7408   26.1824 N   0  0  0  0  0  0  0  0  0  0  0  0
    8.9524  -14.5797   26.9588 C   0  0  0  0  0  0  0  0  0  0  0  0
    9.7642  -14.4789   28.1824 C   0  0  0  0  0  0  0  0  0  0  0  0
   10.6703  -15.2969   28.4699 O   0  0  0  0  0  0  0  0  0  0  0  0
    9.5186  -13.4361   29.0552 O   0  0  0  0  0  0  0  0  0  0  0  0
  2  1  1  0
  2  3  2  0
  4  2  1  0
  5  4  1  0
  6  5  1  0
  6  7  1  1
  8  6  1  0
  8 10  1  0
  9  8  2  0
 11 10  1  0
 11 12  1  6
 12 13  1  0
 13 14  1  0
 14 15  2  0
 16 11  1  0
 17 16  2  0
 18 14  1  0
 19 16  1  0
 20 21  1  0
 20 19  1  0
 21 23  1  0
 22 21  2  0
M  END
$$$$
