QEG.pdb
     RDKit          3D

 23 22  0  0  1  0  0  0  0  0999 V2000
    9.0810  -12.9763   16.9564 N   0  0  0  0  0  0  0  0  0  0  0  0
    7.8213  -13.6315   17.1959 C   0  0  0  0  0  0  0  0  0  0  0  0
    7.2786  -14.1283   16.1913 O   0  0  0  0  0  0  0  0  0  0  0  0
    7.2720  -13.6721   18.5448 C   0  0  0  0  0  0  0  0  0  0  0  0
    8.3261  -13.6242   19.5920 C   0  0  0  0  0  0  0  0  0  0  0  0
    9.1443  -14.8561   19.7265 C   0  0  2  0  0  0  0  0  0  0  0  0
    8.4855  -16.0785   19.9886 N   0  0  0  0  0  0  0  0  0  0  0  0
   10.1620  -14.5940   20.7929 C   0  0  0  0  0  0  0  0  0  0  0  0
   10.8029  -13.5050   20.8338 O   0  0  0  0  0  0  0  0  0  0  0  0
   10.4124  -15.5602   21.7562 N   0  0  0  0  0  0  0  0  0  0  0  0
   11.4626  -15.4198   22.8024 C   0  0  1  0  0  0  0  0  0  0  0  0
   11.0123  -16.3377   23.8874 C   0  0  0  0  0  0  0  0  0  0  0  0
   11.7465  -16.2797   25.1863 C   0  0  0  0  0  0  0  0  0  0  0  0
   11.4642  -17.4815   25.9877 C   0  0  0  0  0  0  0  0  0  0  0  0
   11.7566  -17.4841   27.2127 O   0  0  0  0  0  0  0  0  0  0  0  0
   12.7712  -15.6083   22.2036 C   0  0  0  0  0  0  0  0  0  0  0  0
   12.9588  -16.5411   21.3453 O   0  0  0  0  0  0  0  0  0  0  0  0
   10.8914  -18.6001   25.4391 O   0  0  0  0  0  0  0  0  0  0  0  0
   13.9180  -14.8233   22.4893 N   0  0  0  0  0  0  0  0  0  0  0  0
   15.1938  -14.9880   21.8178 C   0  0  0  0  0  0  0  0  0  0  0  0
   16.1415  -15.7101   22.6820 C   0  0  0  0  0  0  0  0  0  0  0  0
   15.9595  -16.8932   23.0560 O   0  0  0  0  0  0  0  0  0  0  0  0
   17.2846  -15.0566   23.1011 O   0  0  0  0  0  0  0  0  0  0  0  0
  2  1  1  0
  2  3  2  0
  4  2  1  0
  5  4  1  0
  6  5  1  0
  6  7  1  1
  8  6  1  0
  8 10  1  0
  9  8  2  0
 11 10  1  0
 11 12  1  1
 12 13  1  0
 13 14  1  0
 14 15  2  0
 16 11  1  0
 17 16  2  0
 18 14  1  0
 19 16  1  0
 20 21  1  0
 20 19  1  0
 21 23  1  0
 22 21  2  0
M  END
$$$$
