QEG.pdb
     RDKit          3D

 23 22  0  0  1  0  0  0  0  0999 V2000
    9.2932  -12.5865   17.5050 N   0  0  0  0  0  0  0  0  0  0  0  0
    8.0845  -13.2999   17.8267 C   0  0  0  0  0  0  0  0  0  0  0  0
    7.6545  -14.0519   16.9321 O   0  0  0  0  0  0  0  0  0  0  0  0
    7.4553  -13.1077   19.1267 C   0  0  0  0  0  0  0  0  0  0  0  0
    8.2310  -13.7270   20.2334 C   0  0  0  0  0  0  0  0  0  0  0  0
    7.6777  -14.9993   20.7626 C   0  0  2  0  0  0  0  0  0  0  0  0
    6.4275  -14.9695   21.4205 N   0  0  0  0  0  0  0  0  0  0  0  0
    8.7121  -15.5836   21.6737 C   0  0  0  0  0  0  0  0  0  0  0  0
    8.6269  -15.4570   22.9287 O   0  0  0  0  0  0  0  0  0  0  0  0
    9.7874  -16.2767   21.1376 N   0  0  0  0  0  0  0  0  0  0  0  0
   10.8843  -16.8521   21.9640 C   0  0  1  0  0  0  0  0  0  0  0  0
   10.9657  -18.2709   21.5136 C   0  0  0  0  0  0  0  0  0  0  0  0
    9.9148  -19.2104   22.0064 C   0  0  0  0  0  0  0  0  0  0  0  0
   10.1199  -20.5518   21.4366 C   0  0  0  0  0  0  0  0  0  0  0  0
   11.2948  -20.9738   21.2696 O   0  0  0  0  0  0  0  0  0  0  0  0
   12.0580  -16.0035   21.8698 C   0  0  0  0  0  0  0  0  0  0  0  0
   12.1448  -15.1246   20.9413 O   0  0  0  0  0  0  0  0  0  0  0  0
    9.0683  -21.3568   21.0814 O   0  0  0  0  0  0  0  0  0  0  0  0
   13.1721  -16.0545   22.7468 N   0  0  0  0  0  0  0  0  0  0  0  0
   14.2800  -15.1186   22.6960 C   0  0  0  0  0  0  0  0  0  0  0  0
   15.2537  -15.4145   23.7593 C   0  0  0  0  0  0  0  0  0  0  0  0
   15.0846  -16.3240   24.6061 O   0  0  0  0  0  0  0  0  0  0  0  0
   16.4073  -14.6572   23.8294 O   0  0  0  0  0  0  0  0  0  0  0  0
  2  1  1  0
  2  3  2  0
  4  2  1  0
  5  4  1  0
  6  5  1  0
  6  7  1  1
  8  6  1  0
  8 10  1  0
  9  8  2  0
 11 10  1  0
 11 12  1  6
 12 13  1  0
 13 14  1  0
 14 15  2  0
 16 11  1  0
 17 16  2  0
 18 14  1  0
 19 16  1  0
 20 21  1  0
 20 19  1  0
 21 23  1  0
 22 21  2  0
M  END
$$$$
