QEG.pdb
     RDKit          3D

 23 22  0  0  1  0  0  0  0  0999 V2000
   16.9018  -12.6730   17.0261 N   0  0  0  0  0  0  0  0  0  0  0  0
   16.5837  -13.1215   18.3569 C   0  0  0  0  0  0  0  0  0  0  0  0
   17.5477  -13.1879   19.1423 O   0  0  0  0  0  0  0  0  0  0  0  0
   15.2083  -13.4623   18.6960 C   0  0  0  0  0  0  0  0  0  0  0  0
   14.7525  -14.7160   18.0397 C   0  0  0  0  0  0  0  0  0  0  0  0
   13.3367  -15.0862   18.2914 C   0  0  2  0  0  0  0  0  0  0  0  0
   12.3511  -14.0765   18.2139 N   0  0  0  0  0  0  0  0  0  0  0  0
   13.2851  -15.7376   19.6384 C   0  0  0  0  0  0  0  0  0  0  0  0
   12.2715  -15.6201   20.3849 O   0  0  0  0  0  0  0  0  0  0  0  0
   14.3664  -16.4843   20.0826 N   0  0  0  0  0  0  0  0  0  0  0  0
   14.3566  -17.2647   21.3507 C   0  0  1  0  0  0  0  0  0  0  0  0
   15.4205  -18.2892   21.1491 C   0  0  0  0  0  0  0  0  0  0  0  0
   15.1326  -19.4014   20.1951 C   0  0  0  0  0  0  0  0  0  0  0  0
   16.2670  -20.3376   20.1434 C   0  0  0  0  0  0  0  0  0  0  0  0
   16.5548  -21.0092   21.1692 O   0  0  0  0  0  0  0  0  0  0  0  0
   14.4433  -16.3561   22.4792 C   0  0  0  0  0  0  0  0  0  0  0  0
   15.0596  -15.2389   22.3611 O   0  0  0  0  0  0  0  0  0  0  0  0
   17.0211  -20.5003   19.0098 O   0  0  0  0  0  0  0  0  0  0  0  0
   13.8862  -16.5956   23.7620 N   0  0  0  0  0  0  0  0  0  0  0  0
   13.7790  -15.5820   24.7948 C   0  0  0  0  0  0  0  0  0  0  0  0
   13.0978  -16.1252   25.9811 C   0  0  0  0  0  0  0  0  0  0  0  0
   12.5547  -17.2555   25.9988 O   0  0  0  0  0  0  0  0  0  0  0  0
   13.0537  -15.3566   27.1285 O   0  0  0  0  0  0  0  0  0  0  0  0
  2  1  1  0
  2  3  2  0
  4  2  1  0
  5  4  1  0
  6  5  1  0
  6  7  1  1
  8  6  1  0
  8 10  1  0
  9  8  2  0
 11 10  1  0
 11 12  1  6
 12 13  1  0
 13 14  1  0
 14 15  2  0
 16 11  1  0
 17 16  2  0
 18 14  1  0
 19 16  1  0
 20 21  1  0
 20 19  1  0
 21 23  1  0
 22 21  2  0
M  END
$$$$
