QEG.pdb
     RDKit          3D

 23 22  0  0  1  0  0  0  0  0999 V2000
    7.2128  -15.2029   17.5585 N   0  0  0  0  0  0  0  0  0  0  0  0
    8.0420  -14.0966   17.9611 C   0  0  0  0  0  0  0  0  0  0  0  0
    8.5288  -13.4280   17.0301 O   0  0  0  0  0  0  0  0  0  0  0  0
    8.2595  -13.8336   19.3775 C   0  0  0  0  0  0  0  0  0  0  0  0
    7.4955  -14.7599   20.2540 C   0  0  0  0  0  0  0  0  0  0  0  0
    7.5926  -14.4822   21.7095 C   0  0  2  0  0  0  0  0  0  0  0  0
    8.1278  -13.2424   22.1258 N   0  0  0  0  0  0  0  0  0  0  0  0
    8.3797  -15.6004   22.3191 C   0  0  0  0  0  0  0  0  0  0  0  0
    8.0641  -16.8084   22.1204 O   0  0  0  0  0  0  0  0  0  0  0  0
    9.4758  -15.3128   23.1190 N   0  0  0  0  0  0  0  0  0  0  0  0
   10.3606  -16.3590   23.7019 C   0  0  1  0  0  0  0  0  0  0  0  0
   11.7010  -16.0578   23.1233 C   0  0  0  0  0  0  0  0  0  0  0  0
   12.8689  -16.8170   23.6612 C   0  0  0  0  0  0  0  0  0  0  0  0
   14.1077  -16.3943   22.9884 C   0  0  0  0  0  0  0  0  0  0  0  0
   14.7850  -15.4554   23.4844 O   0  0  0  0  0  0  0  0  0  0  0  0
   10.1937  -16.3864   25.1434 C   0  0  0  0  0  0  0  0  0  0  0  0
    9.8469  -15.3251   25.7722 O   0  0  0  0  0  0  0  0  0  0  0  0
   14.5470  -16.9931   21.8357 O   0  0  0  0  0  0  0  0  0  0  0  0
   10.3866  -17.5278   25.9639 N   0  0  0  0  0  0  0  0  0  0  0  0
   10.3012  -17.5015   27.4123 C   0  0  0  0  0  0  0  0  0  0  0  0
   10.5686  -18.8378   27.9685 C   0  0  0  0  0  0  0  0  0  0  0  0
   10.6958  -19.8613   27.2551 O   0  0  0  0  0  0  0  0  0  0  0  0
   10.6855  -18.9727   29.3387 O   0  0  0  0  0  0  0  0  0  0  0  0
  2  1  1  0
  2  3  2  0
  4  2  1  0
  5  4  1  0
  6  5  1  0
  6  7  1  6
  8  6  1  0
  8 10  1  0
  9  8  2  0
 11 10  1  0
 11 12  1  1
 12 13  1  0
 13 14  1  0
 14 15  2  0
 16 11  1  0
 17 16  2  0
 18 14  1  0
 19 16  1  0
 20 21  1  0
 20 19  1  0
 21 23  1  0
 22 21  2  0
M  END
$$$$
