QEG.pdb
     RDKit          3D

 23 22  0  0  1  0  0  0  0  0999 V2000
    7.2762  -13.8777   16.5718 N   0  0  0  0  0  0  0  0  0  0  0  0
    7.6474  -13.8225   15.1816 C   0  0  0  0  0  0  0  0  0  0  0  0
    6.8856  -13.1611   14.4517 O   0  0  0  0  0  0  0  0  0  0  0  0
    8.8431  -14.5179   14.7241 C   0  0  0  0  0  0  0  0  0  0  0  0
    9.5095  -15.2829   15.8107 C   0  0  0  0  0  0  0  0  0  0  0  0
    9.6896  -14.5466   17.0876 C   0  0  2  0  0  0  0  0  0  0  0  0
   10.0322  -13.1767   17.0342 N   0  0  0  0  0  0  0  0  0  0  0  0
   10.7157  -15.2914   17.8840 C   0  0  0  0  0  0  0  0  0  0  0  0
   10.7614  -16.5548   17.8757 O   0  0  0  0  0  0  0  0  0  0  0  0
   11.6353  -14.5886   18.6484 N   0  0  0  0  0  0  0  0  0  0  0  0
   12.7192  -15.2435   19.4316 C   0  0  1  0  0  0  0  0  0  0  0  0
   13.9451  -14.4863   19.0493 C   0  0  0  0  0  0  0  0  0  0  0  0
   14.7440  -15.0058   17.8997 C   0  0  0  0  0  0  0  0  0  0  0  0
   16.1803  -14.7865   18.1342 C   0  0  0  0  0  0  0  0  0  0  0  0
   16.5573  -13.7074   18.6631 O   0  0  0  0  0  0  0  0  0  0  0  0
   12.3309  -15.3176   20.8281 C   0  0  0  0  0  0  0  0  0  0  0  0
   11.9520  -14.2622   21.4484 O   0  0  0  0  0  0  0  0  0  0  0  0
   17.1216  -15.7236   17.7935 O   0  0  0  0  0  0  0  0  0  0  0  0
   12.3299  -16.5007   21.6113 N   0  0  0  0  0  0  0  0  0  0  0  0
   11.7785  -16.5784   22.9513 C   0  0  0  0  0  0  0  0  0  0  0  0
   12.8561  -16.5605   23.9537 C   0  0  0  0  0  0  0  0  0  0  0  0
   14.0723  -16.5405   23.6484 O   0  0  0  0  0  0  0  0  0  0  0  0
   12.5144  -16.5657   25.2926 O   0  0  0  0  0  0  0  0  0  0  0  0
  2  1  1  0
  2  3  2  0
  4  2  1  0
  5  4  1  0
  6  5  1  0
  6  7  1  6
  8  6  1  0
  8 10  1  0
  9  8  2  0
 11 10  1  0
 11 12  1  1
 12 13  1  0
 13 14  1  0
 14 15  2  0
 16 11  1  0
 17 16  2  0
 18 14  1  0
 19 16  1  0
 20 21  1  0
 20 19  1  0
 21 23  1  0
 22 21  2  0
M  END
$$$$
