QEG.pdb
     RDKit          3D

 23 22  0  0  1  0  0  0  0  0999 V2000
    6.5826  -11.8144   19.4552 N   0  0  0  0  0  0  0  0  0  0  0  0
    7.3969  -12.9746   19.7088 C   0  0  0  0  0  0  0  0  0  0  0  0
    7.6453  -13.2005   20.9080 O   0  0  0  0  0  0  0  0  0  0  0  0
    7.8687  -13.7850   18.5937 C   0  0  0  0  0  0  0  0  0  0  0  0
    9.3511  -13.7941   18.4818 C   0  0  0  0  0  0  0  0  0  0  0  0
    9.9038  -14.6958   17.4395 C   0  0  2  0  0  0  0  0  0  0  0  0
    9.0482  -15.6572   16.8560 N   0  0  0  0  0  0  0  0  0  0  0  0
   11.0957  -15.3784   18.0354 C   0  0  0  0  0  0  0  0  0  0  0  0
   11.0543  -16.5972   18.3689 O   0  0  0  0  0  0  0  0  0  0  0  0
   12.2699  -14.6659   18.2294 N   0  0  0  0  0  0  0  0  0  0  0  0
   13.5255  -15.2813   18.7413 C   0  0  1  0  0  0  0  0  0  0  0  0
   14.5406  -14.9397   17.7044 C   0  0  0  0  0  0  0  0  0  0  0  0
   15.9382  -15.4160   17.9267 C   0  0  0  0  0  0  0  0  0  0  0  0
   16.7909  -15.0514   16.7838 C   0  0  0  0  0  0  0  0  0  0  0  0
   17.0991  -15.9361   15.9421 O   0  0  0  0  0  0  0  0  0  0  0  0
   13.7412  -14.8695   20.1162 C   0  0  0  0  0  0  0  0  0  0  0  0
   13.5561  -13.6489   20.4599 O   0  0  0  0  0  0  0  0  0  0  0  0
   17.2604  -13.7751   16.6081 O   0  0  0  0  0  0  0  0  0  0  0  0
   14.1572  -15.7269   21.1673 N   0  0  0  0  0  0  0  0  0  0  0  0
   14.3766  -15.2811   22.5307 C   0  0  0  0  0  0  0  0  0  0  0  0
   14.8324  -16.3997   23.3716 C   0  0  0  0  0  0  0  0  0  0  0  0
   14.9337  -17.5756   22.9475 O   0  0  0  0  0  0  0  0  0  0  0  0
   15.1646  -16.1449   24.6885 O   0  0  0  0  0  0  0  0  0  0  0  0
  2  1  1  0
  2  3  2  0
  4  2  1  0
  5  4  1  0
  6  5  1  0
  6  7  1  1
  8  6  1  0
  8 10  1  0
  9  8  2  0
 11 10  1  0
 11 12  1  6
 12 13  1  0
 13 14  1  0
 14 15  2  0
 16 11  1  0
 17 16  2  0
 18 14  1  0
 19 16  1  0
 20 21  1  0
 20 19  1  0
 21 23  1  0
 22 21  2  0
M  END
$$$$
