QEG.pdb
     RDKit          3D

 23 22  0  0  1  0  0  0  0  0999 V2000
    9.2181  -13.0665   16.8677 N   0  0  0  0  0  0  0  0  0  0  0  0
    7.7890  -13.2369   16.8223 C   0  0  0  0  0  0  0  0  0  0  0  0
    7.2112  -12.6510   15.8876 O   0  0  0  0  0  0  0  0  0  0  0  0
    7.1248  -14.0492   17.8331 C   0  0  0  0  0  0  0  0  0  0  0  0
    8.0742  -14.6046   18.8332 C   0  0  0  0  0  0  0  0  0  0  0  0
    8.9556  -15.6917   18.3371 C   0  0  2  0  0  0  0  0  0  0  0  0
    8.3578  -16.8365   17.7635 N   0  0  0  0  0  0  0  0  0  0  0  0
    9.8343  -16.1009   19.4781 C   0  0  0  0  0  0  0  0  0  0  0  0
    9.5950  -17.1465   20.1475 O   0  0  0  0  0  0  0  0  0  0  0  0
   10.9322  -15.3224   19.8136 N   0  0  0  0  0  0  0  0  0  0  0  0
   11.9319  -15.7179   20.8438 C   0  0  1  0  0  0  0  0  0  0  0  0
   13.1745  -15.0064   20.4289 C   0  0  0  0  0  0  0  0  0  0  0  0
   14.3767  -15.1557   21.3019 C   0  0  0  0  0  0  0  0  0  0  0  0
   15.4961  -14.3610   20.7714 C   0  0  0  0  0  0  0  0  0  0  0  0
   16.3767  -13.9362   21.5653 O   0  0  0  0  0  0  0  0  0  0  0  0
   11.3823  -15.4849   22.1667 C   0  0  0  0  0  0  0  0  0  0  0  0
   10.6231  -14.4750   22.3804 O   0  0  0  0  0  0  0  0  0  0  0  0
   15.6087  -14.0688   19.4364 O   0  0  0  0  0  0  0  0  0  0  0  0
   11.6147  -16.3051   23.3010 N   0  0  0  0  0  0  0  0  0  0  0  0
   11.0266  -16.0608   24.6049 C   0  0  0  0  0  0  0  0  0  0  0  0
   11.5297  -17.0342   25.5876 C   0  0  0  0  0  0  0  0  0  0  0  0
   12.3449  -17.9411   25.2945 O   0  0  0  0  0  0  0  0  0  0  0  0
   11.0852  -16.9464   26.8930 O   0  0  0  0  0  0  0  0  0  0  0  0
  2  1  1  0
  2  3  2  0
  4  2  1  0
  5  4  1  0
  6  5  1  0
  6  7  1  1
  8  6  1  0
  8 10  1  0
  9  8  2  0
 11 10  1  0
 11 12  1  6
 12 13  1  0
 13 14  1  0
 14 15  2  0
 16 11  1  0
 17 16  2  0
 18 14  1  0
 19 16  1  0
 20 21  1  0
 20 19  1  0
 21 23  1  0
 22 21  2  0
M  END
$$$$
