QEG.pdb
     RDKit          3D

 23 22  0  0  1  0  0  0  0  0999 V2000
    5.4596  -19.8675   18.1932 N   0  0  0  0  0  0  0  0  0  0  0  0
    6.1105  -19.3862   17.0023 C   0  0  0  0  0  0  0  0  0  0  0  0
    5.4313  -19.4489   15.9605 O   0  0  0  0  0  0  0  0  0  0  0  0
    7.4733  -18.8766   17.0785 C   0  0  0  0  0  0  0  0  0  0  0  0
    8.0342  -18.9501   18.4532 C   0  0  0  0  0  0  0  0  0  0  0  0
    8.3860  -17.6443   19.0664 C   0  0  2  0  0  0  0  0  0  0  0  0
    9.0401  -16.6785   18.2688 N   0  0  0  0  0  0  0  0  0  0  0  0
    9.2114  -17.9367   20.2809 C   0  0  0  0  0  0  0  0  0  0  0  0
    8.8677  -18.8295   21.1075 O   0  0  0  0  0  0  0  0  0  0  0  0
   10.3751  -17.2175   20.5103 N   0  0  0  0  0  0  0  0  0  0  0  0
   11.3360  -17.5418   21.6006 C   0  0  1  0  0  0  0  0  0  0  0  0
   12.6695  -17.2504   21.0012 C   0  0  0  0  0  0  0  0  0  0  0  0
   13.3852  -18.3784   20.3341 C   0  0  0  0  0  0  0  0  0  0  0  0
   14.6675  -17.9145   19.7803 C   0  0  0  0  0  0  0  0  0  0  0  0
   14.6620  -17.1423   18.7853 O   0  0  0  0  0  0  0  0  0  0  0  0
   10.9350  -16.8611   22.8181 C   0  0  0  0  0  0  0  0  0  0  0  0
   10.4272  -15.6859   22.7619 O   0  0  0  0  0  0  0  0  0  0  0  0
   15.8697  -18.2988   20.3161 O   0  0  0  0  0  0  0  0  0  0  0  0
   11.0563  -17.3949   24.1271 N   0  0  0  0  0  0  0  0  0  0  0  0
   10.6350  -16.6924   25.3249 C   0  0  0  0  0  0  0  0  0  0  0  0
   10.7710  -17.5603   26.5059 C   0  0  0  0  0  0  0  0  0  0  0  0
   11.2256  -18.7276   26.4467 O   0  0  0  0  0  0  0  0  0  0  0  0
   10.3811  -17.0683   27.7369 O   0  0  0  0  0  0  0  0  0  0  0  0
  2  1  1  0
  2  3  2  0
  4  2  1  0
  5  4  1  0
  6  5  1  0
  6  7  1  6
  8  6  1  0
  8 10  1  0
  9  8  2  0
 11 10  1  0
 11 12  1  6
 12 13  1  0
 13 14  1  0
 14 15  2  0
 16 11  1  0
 17 16  2  0
 18 14  1  0
 19 16  1  0
 20 21  1  0
 20 19  1  0
 21 23  1  0
 22 21  2  0
M  END
$$$$
