QEG.pdb
     RDKit          3D

 23 22  0  0  1  0  0  0  0  0999 V2000
    8.7893  -12.3514   18.3058 N   0  0  0  0  0  0  0  0  0  0  0  0
    7.5501  -12.8504   18.8434 C   0  0  0  0  0  0  0  0  0  0  0  0
    6.5280  -12.2332   18.4897 O   0  0  0  0  0  0  0  0  0  0  0  0
    7.5607  -14.0006   19.7377 C   0  0  0  0  0  0  0  0  0  0  0  0
    8.9227  -14.5664   19.9238 C   0  0  0  0  0  0  0  0  0  0  0  0
    9.4873  -15.2654   18.7416 C   0  0  2  0  0  0  0  0  0  0  0  0
    8.7108  -16.2658   18.1147 N   0  0  0  0  0  0  0  0  0  0  0  0
   10.8061  -15.8390   19.1580 C   0  0  0  0  0  0  0  0  0  0  0  0
   10.9417  -17.0760   19.3810 O   0  0  0  0  0  0  0  0  0  0  0  0
   11.9033  -15.0031   19.3051 N   0  0  0  0  0  0  0  0  0  0  0  0
   13.2560  -15.4891   19.6939 C   0  0  1  0  0  0  0  0  0  0  0  0
   14.1846  -14.6502   18.8838 C   0  0  0  0  0  0  0  0  0  0  0  0
   14.7509  -15.2545   17.6413 C   0  0  0  0  0  0  0  0  0  0  0  0
   15.6822  -14.3161   16.9945 C   0  0  0  0  0  0  0  0  0  0  0  0
   16.7417  -13.9931   17.5939 O   0  0  0  0  0  0  0  0  0  0  0  0
   13.3724  -15.4917   21.1406 C   0  0  0  0  0  0  0  0  0  0  0  0
   12.9848  -14.4767   21.8201 O   0  0  0  0  0  0  0  0  0  0  0  0
   15.4300  -13.7822   15.7570 O   0  0  0  0  0  0  0  0  0  0  0  0
   13.8988  -16.5590   21.9132 N   0  0  0  0  0  0  0  0  0  0  0  0
   13.8707  -16.5928   23.3636 C   0  0  0  0  0  0  0  0  0  0  0  0
   15.1751  -16.1900   23.9138 C   0  0  0  0  0  0  0  0  0  0  0  0
   16.1585  -15.8959   23.1934 O   0  0  0  0  0  0  0  0  0  0  0  0
   15.3248  -16.1322   25.2863 O   0  0  0  0  0  0  0  0  0  0  0  0
  2  1  1  0
  2  3  2  0
  4  2  1  0
  5  4  1  0
  6  5  1  0
  6  7  1  1
  8  6  1  0
  8 10  1  0
  9  8  2  0
 11 10  1  0
 11 12  1  6
 12 13  1  0
 13 14  1  0
 14 15  2  0
 16 11  1  0
 17 16  2  0
 18 14  1  0
 19 16  1  0
 20 21  1  0
 20 19  1  0
 21 23  1  0
 22 21  2  0
M  END
$$$$
