QEG.pdb
     RDKit          3D

 23 22  0  0  1  0  0  0  0  0999 V2000
    8.8337  -12.4960   18.3358 N   0  0  0  0  0  0  0  0  0  0  0  0
    8.0112  -13.6578   18.5536 C   0  0  0  0  0  0  0  0  0  0  0  0
    7.7605  -14.3322   17.5373 O   0  0  0  0  0  0  0  0  0  0  0  0
    7.5345  -13.9653   19.8956 C   0  0  0  0  0  0  0  0  0  0  0  0
    7.7994  -15.3750   20.2863 C   0  0  0  0  0  0  0  0  0  0  0  0
    7.2897  -15.7699   21.6239 C   0  0  2  0  0  0  0  0  0  0  0  0
    6.0524  -15.2425   22.0573 N   0  0  0  0  0  0  0  0  0  0  0  0
    8.3568  -15.4324   22.6185 C   0  0  0  0  0  0  0  0  0  0  0  0
    8.3388  -14.3394   23.2536 O   0  0  0  0  0  0  0  0  0  0  0  0
    9.3880  -16.3304   22.8512 N   0  0  0  0  0  0  0  0  0  0  0  0
   10.5206  -16.0538   23.7775 C   0  0  1  0  0  0  0  0  0  0  0  0
   10.3561  -17.0682   24.8575 C   0  0  0  0  0  0  0  0  0  0  0  0
   11.4569  -17.1915   25.8589 C   0  0  0  0  0  0  0  0  0  0  0  0
   11.1576  -18.2668   26.8182 C   0  0  0  0  0  0  0  0  0  0  0  0
   10.4556  -19.2436   26.4448 O   0  0  0  0  0  0  0  0  0  0  0  0
   11.7608  -16.0050   23.0252 C   0  0  0  0  0  0  0  0  0  0  0  0
   11.9472  -16.8001   22.0377 O   0  0  0  0  0  0  0  0  0  0  0  0
   11.6211  -18.2367   28.1083 O   0  0  0  0  0  0  0  0  0  0  0  0
   12.8388  -15.1210   23.2889 N   0  0  0  0  0  0  0  0  0  0  0  0
   14.0110  -15.0057   22.4412 C   0  0  0  0  0  0  0  0  0  0  0  0
   15.1021  -15.8505   22.9531 C   0  0  0  0  0  0  0  0  0  0  0  0
   14.9732  -16.6043   23.9471 O   0  0  0  0  0  0  0  0  0  0  0  0
   16.3249  -15.8131   22.3105 O   0  0  0  0  0  0  0  0  0  0  0  0
  2  1  1  0
  2  3  2  0
  4  2  1  0
  5  4  1  0
  6  5  1  0
  6  7  1  1
  8  6  1  0
  8 10  1  0
  9  8  2  0
 11 10  1  0
 11 12  1  1
 12 13  1  0
 13 14  1  0
 14 15  2  0
 16 11  1  0
 17 16  2  0
 18 14  1  0
 19 16  1  0
 20 21  1  0
 20 19  1  0
 21 23  1  0
 22 21  2  0
M  END
$$$$
