QEG.pdb
     RDKit          3D

 23 22  0  0  1  0  0  0  0  0999 V2000
    8.6428  -12.6170   17.7447 N   0  0  0  0  0  0  0  0  0  0  0  0
    7.2994  -12.9736   18.1212 C   0  0  0  0  0  0  0  0  0  0  0  0
    6.4216  -12.7126   17.2775 O   0  0  0  0  0  0  0  0  0  0  0  0
    7.0514  -13.5918   19.4169 C   0  0  0  0  0  0  0  0  0  0  0  0
    8.2578  -14.2615   19.9702 C   0  0  0  0  0  0  0  0  0  0  0  0
    8.8942  -15.2629   19.0774 C   0  0  2  0  0  0  0  0  0  0  0  0
    8.0998  -16.3152   18.5690 N   0  0  0  0  0  0  0  0  0  0  0  0
   10.0666  -15.8292   19.8166 C   0  0  0  0  0  0  0  0  0  0  0  0
   10.0555  -17.0158   20.2527 O   0  0  0  0  0  0  0  0  0  0  0  0
   11.1885  -15.0424   20.0319 N   0  0  0  0  0  0  0  0  0  0  0  0
   12.4452  -15.5583   20.6416 C   0  0  1  0  0  0  0  0  0  0  0  0
   13.5231  -14.8485   19.8954 C   0  0  0  0  0  0  0  0  0  0  0  0
   13.8235  -15.3167   18.5097 C   0  0  0  0  0  0  0  0  0  0  0  0
   14.9424  -14.5479   17.9412 C   0  0  0  0  0  0  0  0  0  0  0  0
   15.6085  -13.7880   18.6930 O   0  0  0  0  0  0  0  0  0  0  0  0
   12.3713  -15.4301   22.0854 C   0  0  0  0  0  0  0  0  0  0  0  0
   11.6150  -14.5419   22.6156 O   0  0  0  0  0  0  0  0  0  0  0  0
   15.2815  -14.6345   16.6155 O   0  0  0  0  0  0  0  0  0  0  0  0
   13.0890  -16.2302   23.0117 N   0  0  0  0  0  0  0  0  0  0  0  0
   12.8794  -16.1841   24.4468 C   0  0  0  0  0  0  0  0  0  0  0  0
   13.6627  -17.2353   25.1160 C   0  0  0  0  0  0  0  0  0  0  0  0
   14.3031  -18.1129   24.4895 O   0  0  0  0  0  0  0  0  0  0  0  0
   13.6954  -17.2579   26.4972 O   0  0  0  0  0  0  0  0  0  0  0  0
  2  1  1  0
  2  3  2  0
  4  2  1  0
  5  4  1  0
  6  5  1  0
  6  7  1  1
  8  6  1  0
  8 10  1  0
  9  8  2  0
 11 10  1  0
 11 12  1  6
 12 13  1  0
 13 14  1  0
 14 15  2  0
 16 11  1  0
 17 16  2  0
 18 14  1  0
 19 16  1  0
 20 21  1  0
 20 19  1  0
 21 23  1  0
 22 21  2  0
M  END
$$$$
