KKW.pdb
     RDKit          3D

 33 34  0  0  1  0  0  0  0  0999 V2000
   27.0513  -16.4033  -18.3414 N   0  0  0  0  0  0  0  0  0  0  0  0
   25.9069  -16.5526  -19.2061 C   0  0  1  0  0  0  0  0  0  0  0  0
   26.3292  -16.6411  -20.6428 C   0  0  0  0  0  0  0  0  0  0  0  0
   27.4299  -15.7008  -21.0226 C   0  0  0  0  0  0  0  0  0  0  0  0
   27.9240  -15.8933  -22.4269 C   0  0  0  0  0  0  0  0  0  0  0  0
   29.1086  -14.9632  -22.6419 C   0  0  0  0  0  0  0  0  0  0  0  0
   29.6975  -15.1822  -23.9326 N   0  0  0  0  0  0  0  0  0  0  0  0
   25.1026  -17.7584  -18.8474 C   0  0  0  0  0  0  0  0  0  0  0  0
   24.0732  -17.9918  -19.5425 O   0  0  0  0  0  0  0  0  0  0  0  0
   25.4331  -18.6322  -17.7885 N   0  0  0  0  0  0  0  0  0  0  0  0
   24.6724  -19.8293  -17.5618 C   0  0  1  0  0  0  0  0  0  0  0  0
   25.4791  -20.8757  -16.8512 C   0  0  0  0  0  0  0  0  0  0  0  0
   25.8601  -22.0376  -17.7380 C   0  0  0  0  0  0  0  0  0  0  0  0
   26.7442  -22.9433  -16.8863 C   0  0  0  0  0  0  0  0  0  0  0  0
   27.0894  -24.1909  -17.6779 C   0  0  0  0  0  0  0  0  0  0  0  0
   27.9817  -25.0550  -16.9322 N   0  0  0  0  0  0  0  0  0  0  0  0
   23.3990  -19.5193  -16.8748 C   0  0  0  0  0  0  0  0  0  0  0  0
   23.4449  -19.0389  -15.7197 O   0  0  0  0  0  0  0  0  0  0  0  0
   22.1283  -19.7389  -17.4601 N   0  0  0  0  0  0  0  0  0  0  0  0
   20.9026  -19.5295  -16.7179 C   0  0  1  0  0  0  0  0  0  0  0  0
   20.2679  -18.1993  -17.0636 C   0  0  0  0  0  0  0  0  0  0  0  0
   18.8271  -18.1702  -16.7773 C   0  0  0  0  0  0  0  0  0  0  0  0
   18.1535  -18.0979  -15.5792 C   0  0  0  0  0  0  0  0  0  0  0  0
   16.8423  -18.1001  -15.7999 N   0  0  0  0  0  0  0  0  0  0  0  0
   16.5890  -18.1725  -17.1258 C   0  0  0  0  0  0  0  0  0  0  0  0
   15.4413  -18.2069  -17.8890 C   0  0  0  0  0  0  0  0  0  0  0  0
   15.5145  -18.2849  -19.2618 C   0  0  0  0  0  0  0  0  0  0  0  0
   16.7426  -18.3308  -19.9131 C   0  0  0  0  0  0  0  0  0  0  0  0
   17.8706  -18.2944  -19.1191 C   0  0  0  0  0  0  0  0  0  0  0  0
   17.8209  -18.2164  -17.7419 C   0  0  0  0  0  0  0  0  0  0  0  0
   19.9510  -20.5932  -17.1246 C   0  0  0  0  0  0  0  0  0  0  0  0
   18.9576  -21.0702  -16.2777 O   0  0  0  0  0  0  0  0  0  0  0  0
   20.0065  -21.1120  -18.2666 O   0  0  0  0  0  0  0  0  0  0  0  0
  2  1  1  1
  2  3  1  0
  3  4  1  0
  4  5  1  0
  5  6  1  0
  6  7  1  0
  8  2  1  0
  9  8  2  0
 10  8  1  0
 11 17  1  0
 11 10  1  0
 11 12  1  1
 13 12  1  0
 14 13  1  0
 15 14  1  0
 16 15  1  0
 17 19  1  0
 18 17  2  0
 19 20  1  0
 20 21  1  6
 20 31  1  0
 22 21  1  0
 23 22  2  0
 24 23  1  0
 25 24  1  0
 25 30  2  0
 26 25  1  0
 27 26  2  0
 27 28  1  0
 28 29  2  0
 29 30  1  0
 30 22  1  0
 31 33  2  0
 31 32  1  0
M  END
$$$$
