KKW.pdb
     RDKit          3D

 33 34  0  0  1  0  0  0  0  0999 V2000
   28.1661  -24.2296  -17.9165 N   0  0  0  0  0  0  0  0  0  0  0  0
   27.1156  -24.3828  -16.9403 C   0  0  1  0  0  0  0  0  0  0  0  0
   27.2528  -25.6836  -16.2059 C   0  0  0  0  0  0  0  0  0  0  0  0
   27.8026  -26.8046  -17.0312 C   0  0  0  0  0  0  0  0  0  0  0  0
   27.8008  -28.1274  -16.3216 C   0  0  0  0  0  0  0  0  0  0  0  0
   28.4176  -29.1620  -17.2510 C   0  0  0  0  0  0  0  0  0  0  0  0
   28.4930  -30.4421  -16.6058 N   0  0  0  0  0  0  0  0  0  0  0  0
   27.1086  -23.2555  -15.9613 C   0  0  0  0  0  0  0  0  0  0  0  0
   28.2236  -22.7331  -15.6764 O   0  0  0  0  0  0  0  0  0  0  0  0
   25.9367  -22.7565  -15.3516 N   0  0  0  0  0  0  0  0  0  0  0  0
   25.9404  -21.4808  -14.6915 C   0  0  1  0  0  0  0  0  0  0  0  0
   24.9246  -20.5464  -15.2794 C   0  0  0  0  0  0  0  0  0  0  0  0
   24.8931  -19.1976  -14.6003 C   0  0  0  0  0  0  0  0  0  0  0  0
   26.0709  -18.4132  -15.1704 C   0  0  0  0  0  0  0  0  0  0  0  0
   26.0804  -17.0202  -14.5687 C   0  0  0  0  0  0  0  0  0  0  0  0
   27.2017  -16.2449  -15.0592 N   0  0  0  0  0  0  0  0  0  0  0  0
   25.7910  -21.6469  -13.2287 C   0  0  0  0  0  0  0  0  0  0  0  0
   24.8235  -22.3151  -12.7990 O   0  0  0  0  0  0  0  0  0  0  0  0
   26.6899  -21.0870  -12.2885 N   0  0  0  0  0  0  0  0  0  0  0  0
   26.4039  -21.0877  -10.8688 C   0  0  1  0  0  0  0  0  0  0  0  0
   27.3967  -20.2375  -10.1050 C   0  0  0  0  0  0  0  0  0  0  0  0
   27.0014  -20.0289   -8.7054 C   0  0  0  0  0  0  0  0  0  0  0  0
   25.7771  -19.7206   -8.1570 C   0  0  0  0  0  0  0  0  0  0  0  0
   25.8880  -19.6239   -6.8356 N   0  0  0  0  0  0  0  0  0  0  0  0
   27.1630  -19.8583   -6.4525 C   0  0  0  0  0  0  0  0  0  0  0  0
   27.8171  -19.8857   -5.2391 C   0  0  0  0  0  0  0  0  0  0  0  0
   29.1641  -20.1637   -5.1749 C   0  0  0  0  0  0  0  0  0  0  0  0
   29.8985  -20.4236   -6.3273 C   0  0  0  0  0  0  0  0  0  0  0  0
   29.2128  -20.3881   -7.5242 C   0  0  0  0  0  0  0  0  0  0  0  0
   27.8632  -20.1116   -7.6121 C   0  0  0  0  0  0  0  0  0  0  0  0
   25.0643  -20.4759  -10.6864 C   0  0  0  0  0  0  0  0  0  0  0  0
   24.1387  -20.9641   -9.7717 O   0  0  0  0  0  0  0  0  0  0  0  0
   24.7086  -19.4785  -11.3609 O   0  0  0  0  0  0  0  0  0  0  0  0
  2  1  1  6
  2  3  1  0
  3  4  1  0
  4  5  1  0
  5  6  1  0
  6  7  1  0
  8  2  1  0
  9  8  2  0
 10  8  1  0
 11 17  1  0
 11 10  1  0
 11 12  1  6
 13 12  1  0
 14 13  1  0
 15 14  1  0
 16 15  1  0
 17 19  1  0
 18 17  2  0
 19 20  1  0
 20 21  1  1
 20 31  1  0
 22 21  1  0
 23 22  2  0
 24 23  1  0
 25 24  1  0
 25 30  2  0
 26 25  1  0
 27 26  2  0
 27 28  1  0
 28 29  2  0
 29 30  1  0
 30 22  1  0
 31 33  2  0
 31 32  1  0
M  END
$$$$
