KKW.pdb
     RDKit          3D

 33 34  0  0  1  0  0  0  0  0999 V2000
   24.6689  -15.4217  -22.0090 N   0  0  0  0  0  0  0  0  0  0  0  0
   24.3290  -15.6258  -20.6224 C   0  0  1  0  0  0  0  0  0  0  0  0
   23.0398  -14.9392  -20.2804 C   0  0  0  0  0  0  0  0  0  0  0  0
   22.9653  -13.5101  -20.7190 C   0  0  0  0  0  0  0  0  0  0  0  0
   23.4766  -12.5414  -19.6926 C   0  0  0  0  0  0  0  0  0  0  0  0
   22.4556  -11.4226  -19.5501 C   0  0  0  0  0  0  0  0  0  0  0  0
   22.9201  -10.4270  -18.6262 N   0  0  0  0  0  0  0  0  0  0  0  0
   24.2236  -17.0781  -20.2920 C   0  0  0  0  0  0  0  0  0  0  0  0
   23.3026  -17.7322  -20.8586 O   0  0  0  0  0  0  0  0  0  0  0  0
   25.0886  -17.7405  -19.3936 N   0  0  0  0  0  0  0  0  0  0  0  0
   24.9235  -19.1398  -19.1147 C   0  0  1  0  0  0  0  0  0  0  0  0
   26.1608  -19.7376  -18.5126 C   0  0  0  0  0  0  0  0  0  0  0  0
   26.1116  -21.2447  -18.4246 C   0  0  0  0  0  0  0  0  0  0  0  0
   27.5075  -21.6859  -17.9957 C   0  0  0  0  0  0  0  0  0  0  0  0
   27.5904  -23.2000  -18.0487 C   0  0  0  0  0  0  0  0  0  0  0  0
   28.9432  -23.6598  -17.8093 N   0  0  0  0  0  0  0  0  0  0  0  0
   23.7141  -19.3719  -18.2942 C   0  0  0  0  0  0  0  0  0  0  0  0
   23.5491  -18.6796  -17.2643 O   0  0  0  0  0  0  0  0  0  0  0  0
   22.7318  -20.3396  -18.6166 N   0  0  0  0  0  0  0  0  0  0  0  0
   21.5534  -20.5297  -17.7967 C   0  0  1  0  0  0  0  0  0  0  0  0
   20.4797  -19.5155  -18.1293 C   0  0  0  0  0  0  0  0  0  0  0  0
   19.2523  -19.7161  -17.3469 C   0  0  0  0  0  0  0  0  0  0  0  0
   18.9385  -19.3392  -16.0609 C   0  0  0  0  0  0  0  0  0  0  0  0
   17.7047  -19.7366  -15.7644 N   0  0  0  0  0  0  0  0  0  0  0  0
   17.1533  -20.3819  -16.8164 C   0  0  0  0  0  0  0  0  0  0  0  0
   15.9344  -20.9827  -17.0496 C   0  0  0  0  0  0  0  0  0  0  0  0
   15.6655  -21.5748  -18.2633 C   0  0  0  0  0  0  0  0  0  0  0  0
   16.6117  -21.5827  -19.2828 C   0  0  0  0  0  0  0  0  0  0  0  0
   17.8203  -20.9726  -19.0157 C   0  0  0  0  0  0  0  0  0  0  0  0
   18.1115  -20.3733  -17.8068 C   0  0  0  0  0  0  0  0  0  0  0  0
   21.0065  -21.8728  -18.1113 C   0  0  0  0  0  0  0  0  0  0  0  0
   20.2961  -22.6258  -17.1840 O   0  0  0  0  0  0  0  0  0  0  0  0
   21.1663  -22.3899  -19.2442 O   0  0  0  0  0  0  0  0  0  0  0  0
  2  1  1  6
  2  3  1  0
  3  4  1  0
  4  5  1  0
  5  6  1  0
  6  7  1  0
  8  2  1  0
  9  8  2  0
 10  8  1  0
 11 17  1  0
 11 10  1  0
 11 12  1  1
 13 12  1  0
 14 13  1  0
 15 14  1  0
 16 15  1  0
 17 19  1  0
 18 17  2  0
 19 20  1  0
 20 21  1  6
 20 31  1  0
 22 21  1  0
 23 22  2  0
 24 23  1  0
 25 24  1  0
 25 30  2  0
 26 25  1  0
 27 26  2  0
 27 28  1  0
 28 29  2  0
 29 30  1  0
 30 22  1  0
 31 33  2  0
 31 32  1  0
M  END
$$$$
