KKW.pdb
     RDKit          3D

 33 34  0  0  1  0  0  0  0  0999 V2000
   28.7562  -16.5843  -18.5041 N   0  0  0  0  0  0  0  0  0  0  0  0
   28.4300  -17.2078  -19.7630 C   0  0  1  0  0  0  0  0  0  0  0  0
   29.4255  -16.8320  -20.8204 C   0  0  0  0  0  0  0  0  0  0  0  0
   30.5703  -16.0046  -20.3256 C   0  0  0  0  0  0  0  0  0  0  0  0
   31.8618  -16.7640  -20.2325 C   0  0  0  0  0  0  0  0  0  0  0  0
   32.9416  -15.8021  -19.7600 C   0  0  0  0  0  0  0  0  0  0  0  0
   34.1723  -16.5005  -19.5185 N   0  0  0  0  0  0  0  0  0  0  0  0
   28.3711  -18.6946  -19.6391 C   0  0  0  0  0  0  0  0  0  0  0  0
   28.1730  -19.3534  -20.6993 O   0  0  0  0  0  0  0  0  0  0  0  0
   28.5236  -19.3841  -18.4163 N   0  0  0  0  0  0  0  0  0  0  0  0
   28.3375  -20.8068  -18.3491 C   0  0  1  0  0  0  0  0  0  0  0  0
   29.3906  -21.4673  -17.5094 C   0  0  0  0  0  0  0  0  0  0  0  0
   29.2474  -22.9698  -17.4482 C   0  0  0  0  0  0  0  0  0  0  0  0
   30.2980  -23.4513  -16.4524 C   0  0  0  0  0  0  0  0  0  0  0  0
   30.2944  -24.9683  -16.4180 C   0  0  0  0  0  0  0  0  0  0  0  0
   31.1278  -25.4704  -15.3446 N   0  0  0  0  0  0  0  0  0  0  0  0
   26.9626  -21.1357  -17.9119 C   0  0  0  0  0  0  0  0  0  0  0  0
   26.7437  -21.2816  -16.6879 O   0  0  0  0  0  0  0  0  0  0  0  0
   25.8796  -21.2935  -18.8105 N   0  0  0  0  0  0  0  0  0  0  0  0
   24.5732  -21.7256  -18.3589 C   0  0  1  0  0  0  0  0  0  0  0  0
   23.5909  -20.5740  -18.3278 C   0  0  0  0  0  0  0  0  0  0  0  0
   22.2408  -20.9948  -17.9291 C   0  0  0  0  0  0  0  0  0  0  0  0
   21.6960  -21.1907  -16.6804 C   0  0  0  0  0  0  0  0  0  0  0  0
   20.4289  -21.5760  -16.7981 N   0  0  0  0  0  0  0  0  0  0  0  0
   20.0802  -21.6526  -18.1019 C   0  0  0  0  0  0  0  0  0  0  0  0
   18.9250  -21.9913  -18.7741 C   0  0  0  0  0  0  0  0  0  0  0  0
   18.8837  -21.9726  -20.1503 C   0  0  0  0  0  0  0  0  0  0  0  0
   20.0010  -21.6129  -20.8966 C   0  0  0  0  0  0  0  0  0  0  0  0
   21.1398  -21.2799  -20.1921 C   0  0  0  0  0  0  0  0  0  0  0  0
   21.2039  -21.2918  -18.8133 C   0  0  0  0  0  0  0  0  0  0  0  0
   24.0675  -22.7125  -19.3450 C   0  0  0  0  0  0  0  0  0  0  0  0
   24.2549  -22.5635  -20.7140 O   0  0  0  0  0  0  0  0  0  0  0  0
   23.4410  -23.7362  -18.9763 O   0  0  0  0  0  0  0  0  0  0  0  0
  2  1  1  1
  2  3  1  0
  3  4  1  0
  4  5  1  0
  5  6  1  0
  6  7  1  0
  8  2  1  0
  9  8  2  0
 10  8  1  0
 11 17  1  0
 11 10  1  0
 11 12  1  1
 13 12  1  0
 14 13  1  0
 15 14  1  0
 16 15  1  0
 17 19  1  0
 18 17  2  0
 19 20  1  0
 20 21  1  6
 20 31  1  0
 22 21  1  0
 23 22  2  0
 24 23  1  0
 25 24  1  0
 25 30  2  0
 26 25  1  0
 27 26  2  0
 27 28  1  0
 28 29  2  0
 29 30  1  0
 30 22  1  0
 31 33  2  0
 31 32  1  0
M  END
$$$$
