KKW.pdb
     RDKit          3D

 33 34  0  0  1  0  0  0  0  0999 V2000
   27.1638  -19.8333  -16.9895 N   0  0  0  0  0  0  0  0  0  0  0  0
   27.6804  -19.5777  -15.6675 C   0  0  1  0  0  0  0  0  0  0  0  0
   28.0033  -18.1234  -15.4908 C   0  0  0  0  0  0  0  0  0  0  0  0
   28.8153  -17.5313  -16.5999 C   0  0  0  0  0  0  0  0  0  0  0  0
   29.2335  -16.1124  -16.3442 C   0  0  0  0  0  0  0  0  0  0  0  0
   30.0181  -15.6266  -17.5538 C   0  0  0  0  0  0  0  0  0  0  0  0
   30.4587  -14.2739  -17.3624 N   0  0  0  0  0  0  0  0  0  0  0  0
   26.7174  -20.0068  -14.6102 C   0  0  0  0  0  0  0  0  0  0  0  0
   25.6207  -19.3825  -14.5424 O   0  0  0  0  0  0  0  0  0  0  0  0
   26.9711  -21.0573  -13.7012 N   0  0  0  0  0  0  0  0  0  0  0  0
   25.9427  -21.5214  -12.8123 C   0  0  1  0  0  0  0  0  0  0  0  0
   25.5069  -22.9177  -13.1454 C   0  0  0  0  0  0  0  0  0  0  0  0
   24.7498  -23.0099  -14.4492 C   0  0  0  0  0  0  0  0  0  0  0  0
   24.2788  -24.4567  -14.5596 C   0  0  0  0  0  0  0  0  0  0  0  0
   23.4598  -24.6193  -15.8266 C   0  0  0  0  0  0  0  0  0  0  0  0
   22.9718  -25.9764  -15.9649 N   0  0  0  0  0  0  0  0  0  0  0  0
   26.3618  -21.3704  -11.4012 C   0  0  0  0  0  0  0  0  0  0  0  0
   27.3963  -21.9627  -11.0186 O   0  0  0  0  0  0  0  0  0  0  0  0
   25.6501  -20.5875  -10.4600 N   0  0  0  0  0  0  0  0  0  0  0  0
   25.7125  -20.8625   -9.0395 C   0  0  1  0  0  0  0  0  0  0  0  0
   26.3901  -19.7362   -8.2882 C   0  0  0  0  0  0  0  0  0  0  0  0
   27.7032  -20.1238   -7.7548 C   0  0  0  0  0  0  0  0  0  0  0  0
   28.7535  -20.7827   -8.3524 C   0  0  0  0  0  0  0  0  0  0  0  0
   29.7502  -20.9211   -7.4833 N   0  0  0  0  0  0  0  0  0  0  0  0
   29.4161  -20.3726   -6.2938 C   0  0  0  0  0  0  0  0  0  0  0  0
   30.0544  -20.2387   -5.0790 C   0  0  0  0  0  0  0  0  0  0  0  0
   29.4301  -19.6106   -4.0246 C   0  0  0  0  0  0  0  0  0  0  0  0
   28.1444  -19.0963   -4.1556 C   0  0  0  0  0  0  0  0  0  0  0  0
   27.5352  -19.2475   -5.3845 C   0  0  0  0  0  0  0  0  0  0  0  0
   28.1418  -19.8734   -6.4548 C   0  0  0  0  0  0  0  0  0  0  0  0
   24.3167  -20.9491   -8.5431 C   0  0  0  0  0  0  0  0  0  0  0  0
   24.0049  -21.4012   -7.2664 O   0  0  0  0  0  0  0  0  0  0  0  0
   23.3479  -20.6126   -9.2674 O   0  0  0  0  0  0  0  0  0  0  0  0
  2  1  1  6
  2  3  1  0
  3  4  1  0
  4  5  1  0
  5  6  1  0
  6  7  1  0
  8  2  1  0
  9  8  2  0
 10  8  1  0
 11 17  1  0
 11 10  1  0
 11 12  1  6
 13 12  1  0
 14 13  1  0
 15 14  1  0
 16 15  1  0
 17 19  1  0
 18 17  2  0
 19 20  1  0
 20 21  1  1
 20 31  1  0
 22 21  1  0
 23 22  2  0
 24 23  1  0
 25 24  1  0
 25 30  2  0
 26 25  1  0
 27 26  2  0
 27 28  1  0
 28 29  2  0
 29 30  1  0
 30 22  1  0
 31 33  2  0
 31 32  1  0
M  END
$$$$
