KKW.pdb
     RDKit          3D

 33 34  0  0  1  0  0  0  0  0999 V2000
   21.3030  -21.6179  -15.3396 N   0  0  0  0  0  0  0  0  0  0  0  0
   21.8455  -20.6119  -14.4600 C   0  0  1  0  0  0  0  0  0  0  0  0
   20.7915  -20.0905  -13.5284 C   0  0  0  0  0  0  0  0  0  0  0  0
   19.3995  -20.1495  -14.0749 C   0  0  0  0  0  0  0  0  0  0  0  0
   18.3384  -20.1366  -13.0131 C   0  0  0  0  0  0  0  0  0  0  0  0
   18.3611  -18.7725  -12.3400 C   0  0  0  0  0  0  0  0  0  0  0  0
   17.2201  -17.9946  -12.7321 N   0  0  0  0  0  0  0  0  0  0  0  0
   22.9953  -21.1395  -13.6670 C   0  0  0  0  0  0  0  0  0  0  0  0
   22.7625  -22.1081  -12.8894 O   0  0  0  0  0  0  0  0  0  0  0  0
   24.3046  -20.6161  -13.7449 N   0  0  0  0  0  0  0  0  0  0  0  0
   25.3776  -21.2124  -12.9989 C   0  0  1  0  0  0  0  0  0  0  0  0
   26.5508  -21.5389  -13.8750 C   0  0  0  0  0  0  0  0  0  0  0  0
   26.2082  -22.4870  -14.9999 C   0  0  0  0  0  0  0  0  0  0  0  0
   27.5258  -22.7972  -15.7034 C   0  0  0  0  0  0  0  0  0  0  0  0
   27.2481  -23.6422  -16.9326 C   0  0  0  0  0  0  0  0  0  0  0  0
   28.4564  -23.8638  -17.7006 N   0  0  0  0  0  0  0  0  0  0  0  0
   25.7423  -20.3687  -11.8393 C   0  0  0  0  0  0  0  0  0  0  0  0
   25.7580  -19.1255  -11.9864 O   0  0  0  0  0  0  0  0  0  0  0  0
   26.0746  -20.8981  -10.5686 N   0  0  0  0  0  0  0  0  0  0  0  0
   26.8292  -20.1316   -9.5989 C   0  0  1  0  0  0  0  0  0  0  0  0
   26.3586  -20.4109   -8.1873 C   0  0  0  0  0  0  0  0  0  0  0  0
   27.0515  -19.5860   -7.1881 C   0  0  0  0  0  0  0  0  0  0  0  0
   26.9357  -18.2456   -6.8976 C   0  0  0  0  0  0  0  0  0  0  0  0
   27.7667  -17.9263   -5.9099 N   0  0  0  0  0  0  0  0  0  0  0  0
   28.4581  -19.0157   -5.5068 C   0  0  0  0  0  0  0  0  0  0  0  0
   29.4217  -19.2475   -4.5483 C   0  0  0  0  0  0  0  0  0  0  0  0
   29.9488  -20.5077   -4.3747 C   0  0  0  0  0  0  0  0  0  0  0  0
   29.5255  -21.5763   -5.1579 C   0  0  0  0  0  0  0  0  0  0  0  0
   28.5603  -21.3091   -6.1071 C   0  0  0  0  0  0  0  0  0  0  0  0
   28.0181  -20.0543   -6.2985 C   0  0  0  0  0  0  0  0  0  0  0  0
   28.2434  -20.5720   -9.6895 C   0  0  0  0  0  0  0  0  0  0  0  0
   28.6013  -21.8627  -10.0603 O   0  0  0  0  0  0  0  0  0  0  0  0
   29.1865  -19.7846   -9.4309 O   0  0  0  0  0  0  0  0  0  0  0  0
  2  1  1  1
  2  3  1  0
  3  4  1  0
  4  5  1  0
  5  6  1  0
  6  7  1  0
  8  2  1  0
  9  8  2  0
 10  8  1  0
 11 17  1  0
 11 10  1  0
 11 12  1  6
 13 12  1  0
 14 13  1  0
 15 14  1  0
 16 15  1  0
 17 19  1  0
 18 17  2  0
 19 20  1  0
 20 21  1  1
 20 31  1  0
 22 21  1  0
 23 22  2  0
 24 23  1  0
 25 24  1  0
 25 30  2  0
 26 25  1  0
 27 26  2  0
 27 28  1  0
 28 29  2  0
 29 30  1  0
 30 22  1  0
 31 33  2  0
 31 32  1  0
M  END
$$$$
