KKW.pdb
     RDKit          3D

 33 34  0  0  1  0  0  0  0  0999 V2000
   27.1996  -18.3566  -23.0155 N   0  0  0  0  0  0  0  0  0  0  0  0
   27.1326  -18.0572  -21.6064 C   0  0  1  0  0  0  0  0  0  0  0  0
   26.1081  -16.9960  -21.3326 C   0  0  0  0  0  0  0  0  0  0  0  0
   26.4216  -15.6635  -21.9376 C   0  0  0  0  0  0  0  0  0  0  0  0
   27.0095  -14.6861  -20.9617 C   0  0  0  0  0  0  0  0  0  0  0  0
   27.2137  -13.3630  -21.6842 C   0  0  0  0  0  0  0  0  0  0  0  0
   27.8663  -12.4133  -20.8282 N   0  0  0  0  0  0  0  0  0  0  0  0
   26.8169  -19.2747  -20.8018 C   0  0  0  0  0  0  0  0  0  0  0  0
   25.8369  -19.9772  -21.1806 O   0  0  0  0  0  0  0  0  0  0  0  0
   27.5485  -19.6690  -19.6602 N   0  0  0  0  0  0  0  0  0  0  0  0
   27.1567  -20.8243  -18.9018 C   0  0  1  0  0  0  0  0  0  0  0  0
   28.3003  -21.3836  -18.1080 C   0  0  0  0  0  0  0  0  0  0  0  0
   27.9217  -22.5979  -17.2933 C   0  0  0  0  0  0  0  0  0  0  0  0
   29.1820  -23.0047  -16.5360 C   0  0  0  0  0  0  0  0  0  0  0  0
   29.2173  -24.5157  -16.4017 C   0  0  0  0  0  0  0  0  0  0  0  0
   30.3500  -24.9452  -15.6070 N   0  0  0  0  0  0  0  0  0  0  0  0
   25.9693  -20.5277  -18.0701 C   0  0  0  0  0  0  0  0  0  0  0  0
   26.0621  -19.6412  -17.1909 O   0  0  0  0  0  0  0  0  0  0  0  0
   24.7305  -21.1974  -18.2195 N   0  0  0  0  0  0  0  0  0  0  0  0
   23.5826  -20.8649  -17.4016 C   0  0  1  0  0  0  0  0  0  0  0  0
   22.3856  -20.4981  -18.2529 C   0  0  0  0  0  0  0  0  0  0  0  0
   21.1905  -20.2057  -17.4497 C   0  0  0  0  0  0  0  0  0  0  0  0
   20.8474  -19.0833  -16.7306 C   0  0  0  0  0  0  0  0  0  0  0  0
   19.6633  -19.2639  -16.1534 N   0  0  0  0  0  0  0  0  0  0  0  0
   19.1750  -20.4877  -16.4553 C   0  0  0  0  0  0  0  0  0  0  0  0
   18.0234  -21.1741  -16.1334 C   0  0  0  0  0  0  0  0  0  0  0  0
   17.8096  -22.4476  -16.6114 C   0  0  0  0  0  0  0  0  0  0  0  0
   18.7451  -23.0734  -17.4285 C   0  0  0  0  0  0  0  0  0  0  0  0
   19.8857  -22.3581  -17.7309 C   0  0  0  0  0  0  0  0  0  0  0  0
   20.1209  -21.0810  -17.2630 C   0  0  0  0  0  0  0  0  0  0  0  0
   23.2215  -22.0798  -16.6298 C   0  0  0  0  0  0  0  0  0  0  0  0
   22.6645  -22.0184  -15.3580 O   0  0  0  0  0  0  0  0  0  0  0  0
   23.4078  -23.2282  -17.1019 O   0  0  0  0  0  0  0  0  0  0  0  0
  2  1  1  6
  2  3  1  0
  3  4  1  0
  4  5  1  0
  5  6  1  0
  6  7  1  0
  8  2  1  0
  9  8  2  0
 10  8  1  0
 11 17  1  0
 11 10  1  0
 11 12  1  1
 13 12  1  0
 14 13  1  0
 15 14  1  0
 16 15  1  0
 17 19  1  0
 18 17  2  0
 19 20  1  0
 20 21  1  6
 20 31  1  0
 22 21  1  0
 23 22  2  0
 24 23  1  0
 25 24  1  0
 25 30  2  0
 26 25  1  0
 27 26  2  0
 27 28  1  0
 28 29  2  0
 29 30  1  0
 30 22  1  0
 31 33  2  0
 31 32  1  0
M  END
$$$$
