KKW.pdb
     RDKit          3D

 33 34  0  0  1  0  0  0  0  0999 V2000
   24.8522  -23.1576  -17.0935 N   0  0  0  0  0  0  0  0  0  0  0  0
   25.3932  -23.9516  -16.0180 C   0  0  1  0  0  0  0  0  0  0  0  0
   26.3308  -24.9978  -16.5440 C   0  0  0  0  0  0  0  0  0  0  0  0
   25.6890  -26.3219  -16.8174 C   0  0  0  0  0  0  0  0  0  0  0  0
   24.9939  -26.3873  -18.1463 C   0  0  0  0  0  0  0  0  0  0  0  0
   24.2113  -27.6906  -18.2057 C   0  0  0  0  0  0  0  0  0  0  0  0
   25.1007  -28.8172  -18.1919 N   0  0  0  0  0  0  0  0  0  0  0  0
   26.1036  -23.1041  -15.0147 C   0  0  0  0  0  0  0  0  0  0  0  0
   26.9239  -23.6844  -14.2482 O   0  0  0  0  0  0  0  0  0  0  0  0
   25.9047  -21.7120  -14.8861 N   0  0  0  0  0  0  0  0  0  0  0  0
   26.6616  -20.9486  -13.9334 C   0  0  1  0  0  0  0  0  0  0  0  0
   26.7644  -19.5058  -14.3313 C   0  0  0  0  0  0  0  0  0  0  0  0
   27.5219  -19.2966  -15.6213 C   0  0  0  0  0  0  0  0  0  0  0  0
   27.4885  -17.7950  -15.8888 C   0  0  0  0  0  0  0  0  0  0  0  0
   28.2132  -17.5039  -17.1897 C   0  0  0  0  0  0  0  0  0  0  0  0
   28.1813  -16.0897  -17.5026 N   0  0  0  0  0  0  0  0  0  0  0  0
   26.1228  -21.1321  -12.5676 C   0  0  0  0  0  0  0  0  0  0  0  0
   24.9034  -21.3828  -12.4351 O   0  0  0  0  0  0  0  0  0  0  0  0
   26.9191  -21.0386  -11.4003 N   0  0  0  0  0  0  0  0  0  0  0  0
   26.3351  -21.0794  -10.0758 C   0  0  1  0  0  0  0  0  0  0  0  0
   27.3956  -20.9694   -9.0010 C   0  0  0  0  0  0  0  0  0  0  0  0
   26.8278  -20.6919   -7.6745 C   0  0  0  0  0  0  0  0  0  0  0  0
   25.5321  -20.7804   -7.2187 C   0  0  0  0  0  0  0  0  0  0  0  0
   25.4811  -20.4272   -5.9379 N   0  0  0  0  0  0  0  0  0  0  0  0
   26.7134  -20.0950   -5.4925 C   0  0  0  0  0  0  0  0  0  0  0  0
   27.2205  -19.6681   -4.2836 C   0  0  0  0  0  0  0  0  0  0  0  0
   28.5641  -19.4023   -4.1416 C   0  0  0  0  0  0  0  0  0  0  0  0
   29.4424  -19.5566   -5.2090 C   0  0  0  0  0  0  0  0  0  0  0  0
   28.9015  -19.9853   -6.4039 C   0  0  0  0  0  0  0  0  0  0  0  0
   27.5584  -20.2574   -6.5689 C   0  0  0  0  0  0  0  0  0  0  0  0
   25.4484  -19.8965   -9.9457 C   0  0  0  0  0  0  0  0  0  0  0  0
   24.2350  -19.9436   -9.2697 O   0  0  0  0  0  0  0  0  0  0  0  0
   25.7638  -18.7902  -10.4487 O   0  0  0  0  0  0  0  0  0  0  0  0
  2  1  1  6
  2  3  1  0
  3  4  1  0
  4  5  1  0
  5  6  1  0
  6  7  1  0
  8  2  1  0
  9  8  2  0
 10  8  1  0
 11 17  1  0
 11 10  1  0
 11 12  1  6
 13 12  1  0
 14 13  1  0
 15 14  1  0
 16 15  1  0
 17 19  1  0
 18 17  2  0
 19 20  1  0
 20 21  1  1
 20 31  1  0
 22 21  1  0
 23 22  2  0
 24 23  1  0
 25 24  1  0
 25 30  2  0
 26 25  1  0
 27 26  2  0
 27 28  1  0
 28 29  2  0
 29 30  1  0
 30 22  1  0
 31 33  2  0
 31 32  1  0
M  END
$$$$
