KKW.pdb
     RDKit          3D

 33 34  0  0  1  0  0  0  0  0999 V2000
   24.5554  -17.5292  -14.8974 N   0  0  0  0  0  0  0  0  0  0  0  0
   23.6939  -18.6150  -14.4988 C   0  0  1  0  0  0  0  0  0  0  0  0
   22.9203  -19.1427  -15.6707 C   0  0  0  0  0  0  0  0  0  0  0  0
   22.8682  -18.2160  -16.8449 C   0  0  0  0  0  0  0  0  0  0  0  0
   22.0600  -18.7483  -17.9924 C   0  0  0  0  0  0  0  0  0  0  0  0
   22.1720  -17.7624  -19.1457 C   0  0  0  0  0  0  0  0  0  0  0  0
   21.3988  -18.2076  -20.2701 N   0  0  0  0  0  0  0  0  0  0  0  0
   24.4680  -19.7266  -13.8708 C   0  0  0  0  0  0  0  0  0  0  0  0
   23.8350  -20.7851  -13.5948 O   0  0  0  0  0  0  0  0  0  0  0  0
   25.8472  -19.6506  -13.5772 N   0  0  0  0  0  0  0  0  0  0  0  0
   26.5308  -20.7622  -12.9769 C   0  0  1  0  0  0  0  0  0  0  0  0
   27.8774  -20.9892  -13.5980 C   0  0  0  0  0  0  0  0  0  0  0  0
   27.8073  -21.2968  -15.0752 C   0  0  0  0  0  0  0  0  0  0  0  0
   28.2854  -22.7375  -15.2271 C   0  0  0  0  0  0  0  0  0  0  0  0
   28.2511  -23.1223  -16.6944 C   0  0  0  0  0  0  0  0  0  0  0  0
   28.7939  -24.4496  -16.9013 N   0  0  0  0  0  0  0  0  0  0  0  0
   26.5939  -20.6070  -11.5067 C   0  0  0  0  0  0  0  0  0  0  0  0
   27.5683  -19.9964  -11.0116 O   0  0  0  0  0  0  0  0  0  0  0  0
   25.6049  -21.1152  -10.6297 N   0  0  0  0  0  0  0  0  0  0  0  0
   25.7901  -21.1167   -9.1934 C   0  0  1  0  0  0  0  0  0  0  0  0
   26.1073  -19.7298   -8.6760 C   0  0  0  0  0  0  0  0  0  0  0  0
   27.4895  -19.6106   -8.1922 C   0  0  0  0  0  0  0  0  0  0  0  0
   28.6543  -19.3297   -8.8695 C   0  0  0  0  0  0  0  0  0  0  0  0
   29.6779  -19.3252   -8.0208 N   0  0  0  0  0  0  0  0  0  0  0  0
   29.2504  -19.5970   -6.7675 C   0  0  0  0  0  0  0  0  0  0  0  0
   29.8687  -19.7147   -5.5408 C   0  0  0  0  0  0  0  0  0  0  0  0
   29.1368  -20.0098   -4.4124 C   0  0  0  0  0  0  0  0  0  0  0  0
   27.7600  -20.1962   -4.4789 C   0  0  0  0  0  0  0  0  0  0  0  0
   27.1738  -20.0711   -5.7218 C   0  0  0  0  0  0  0  0  0  0  0  0
   27.8876  -19.7760   -6.8658 C   0  0  0  0  0  0  0  0  0  0  0  0
   24.5044  -21.5344   -8.5813 C   0  0  0  0  0  0  0  0  0  0  0  0
   23.3864  -21.8589   -9.3406 O   0  0  0  0  0  0  0  0  0  0  0  0
   24.3735  -21.6122   -7.3351 O   0  0  0  0  0  0  0  0  0  0  0  0
  2  1  1  6
  2  3  1  0
  3  4  1  0
  4  5  1  0
  5  6  1  0
  6  7  1  0
  8  2  1  0
  9  8  2  0
 10  8  1  0
 11 17  1  0
 11 10  1  0
 11 12  1  6
 13 12  1  0
 14 13  1  0
 15 14  1  0
 16 15  1  0
 17 19  1  0
 18 17  2  0
 19 20  1  0
 20 21  1  1
 20 31  1  0
 22 21  1  0
 23 22  2  0
 24 23  1  0
 25 24  1  0
 25 30  2  0
 26 25  1  0
 27 26  2  0
 27 28  1  0
 28 29  2  0
 29 30  1  0
 30 22  1  0
 31 33  2  0
 31 32  1  0
M  END
$$$$
