KKW.pdb
     RDKit          3D

 33 34  0  0  1  0  0  0  0  0999 V2000
   24.4815  -18.1953  -15.2428 N   0  0  0  0  0  0  0  0  0  0  0  0
   23.6189  -19.0203  -14.4332 C   0  0  1  0  0  0  0  0  0  0  0  0
   22.3770  -19.3965  -15.1860 C   0  0  0  0  0  0  0  0  0  0  0  0
   21.5940  -18.2327  -15.7078 C   0  0  0  0  0  0  0  0  0  0  0  0
   21.0325  -17.3558  -14.6265 C   0  0  0  0  0  0  0  0  0  0  0  0
   20.2212  -16.2519  -15.2882 C   0  0  0  0  0  0  0  0  0  0  0  0
   18.9819  -16.7683  -15.7960 N   0  0  0  0  0  0  0  0  0  0  0  0
   24.3173  -20.2572  -13.9732 C   0  0  0  0  0  0  0  0  0  0  0  0
   23.6675  -21.3397  -14.0280 O   0  0  0  0  0  0  0  0  0  0  0  0
   25.6439  -20.2721  -13.4895 N   0  0  0  0  0  0  0  0  0  0  0  0
   26.2769  -21.5089  -13.1248 C   0  0  1  0  0  0  0  0  0  0  0  0
   27.6636  -21.6121  -13.6879 C   0  0  0  0  0  0  0  0  0  0  0  0
   27.6963  -21.5862  -15.1978 C   0  0  0  0  0  0  0  0  0  0  0  0
   29.1597  -21.7668  -15.5890 C   0  0  0  0  0  0  0  0  0  0  0  0
   29.3046  -21.5641  -17.0858 C   0  0  0  0  0  0  0  0  0  0  0  0
   30.6916  -21.6518  -17.4950 N   0  0  0  0  0  0  0  0  0  0  0  0
   26.2347  -21.7073  -11.6590 C   0  0  0  0  0  0  0  0  0  0  0  0
   26.7709  -22.7318  -11.1791 O   0  0  0  0  0  0  0  0  0  0  0  0
   25.6173  -20.7942  -10.7699 N   0  0  0  0  0  0  0  0  0  0  0  0
   25.5500  -21.0468   -9.3456 C   0  0  1  0  0  0  0  0  0  0  0  0
   26.1886  -19.9248   -8.5549 C   0  0  0  0  0  0  0  0  0  0  0  0
   27.5455  -20.2569   -8.0994 C   0  0  0  0  0  0  0  0  0  0  0  0
   28.5690  -20.9168   -8.7408 C   0  0  0  0  0  0  0  0  0  0  0  0
   29.6270  -20.9927   -7.9390 N   0  0  0  0  0  0  0  0  0  0  0  0
   29.3618  -20.3997   -6.7536 C   0  0  0  0  0  0  0  0  0  0  0  0
   30.0791  -20.1966   -5.5938 C   0  0  0  0  0  0  0  0  0  0  0  0
   29.5130  -19.5370   -4.5259 C   0  0  0  0  0  0  0  0  0  0  0  0
   28.2080  -19.0596   -4.5877 C   0  0  0  0  0  0  0  0  0  0  0  0
   27.5192  -19.2799   -5.7629 C   0  0  0  0  0  0  0  0  0  0  0  0
   28.0665  -19.9385   -6.8455 C   0  0  0  0  0  0  0  0  0  0  0  0
   24.1149  -21.0916   -8.9707 C   0  0  0  0  0  0  0  0  0  0  0  0
   23.6854  -21.4689   -7.7039 O   0  0  0  0  0  0  0  0  0  0  0  0
   23.2186  -20.7861   -9.7952 O   0  0  0  0  0  0  0  0  0  0  0  0
  2  1  1  6
  2  3  1  0
  3  4  1  0
  4  5  1  0
  5  6  1  0
  6  7  1  0
  8  2  1  0
  9  8  2  0
 10  8  1  0
 11 17  1  0
 11 10  1  0
 11 12  1  1
 13 12  1  0
 14 13  1  0
 15 14  1  0
 16 15  1  0
 17 19  1  0
 18 17  2  0
 19 20  1  0
 20 21  1  1
 20 31  1  0
 22 21  1  0
 23 22  2  0
 24 23  1  0
 25 24  1  0
 25 30  2  0
 26 25  1  0
 27 26  2  0
 27 28  1  0
 28 29  2  0
 29 30  1  0
 30 22  1  0
 31 33  2  0
 31 32  1  0
M  END
$$$$
