KKW.pdb
     RDKit          3D

 33 34  0  0  1  0  0  0  0  0999 V2000
   24.1253  -16.8747  -20.4418 N   0  0  0  0  0  0  0  0  0  0  0  0
   24.5840  -16.8164  -19.0757 C   0  0  1  0  0  0  0  0  0  0  0  0
   23.5627  -16.1588  -18.1955 C   0  0  0  0  0  0  0  0  0  0  0  0
   23.3185  -14.7148  -18.5042 C   0  0  0  0  0  0  0  0  0  0  0  0
   22.9812  -13.8926  -17.2944 C   0  0  0  0  0  0  0  0  0  0  0  0
   22.7057  -12.4686  -17.7537 C   0  0  0  0  0  0  0  0  0  0  0  0
   22.1136  -11.7003  -16.6956 N   0  0  0  0  0  0  0  0  0  0  0  0
   24.8987  -18.1761  -18.5448 C   0  0  0  0  0  0  0  0  0  0  0  0
   23.9247  -18.9565  -18.3463 O   0  0  0  0  0  0  0  0  0  0  0  0
   26.2085  -18.6206  -18.2603 N   0  0  0  0  0  0  0  0  0  0  0  0
   26.4325  -19.9113  -17.6711 C   0  0  1  0  0  0  0  0  0  0  0  0
   27.6504  -20.5788  -18.2383 C   0  0  0  0  0  0  0  0  0  0  0  0
   27.9095  -21.9450  -17.6485 C   0  0  0  0  0  0  0  0  0  0  0  0
   29.1992  -22.4429  -18.2935 C   0  0  0  0  0  0  0  0  0  0  0  0
   29.3247  -23.9381  -18.0681 C   0  0  0  0  0  0  0  0  0  0  0  0
   30.6143  -24.4286  -18.5100 N   0  0  0  0  0  0  0  0  0  0  0  0
   26.4635  -19.8156  -16.1948 C   0  0  0  0  0  0  0  0  0  0  0  0
   27.3782  -19.1502  -15.6583 O   0  0  0  0  0  0  0  0  0  0  0  0
   25.5079  -20.4398  -15.3566 N   0  0  0  0  0  0  0  0  0  0  0  0
   25.7328  -20.6011  -13.9351 C   0  0  1  0  0  0  0  0  0  0  0  0
   24.7799  -19.7481  -13.1250 C   0  0  0  0  0  0  0  0  0  0  0  0
   24.8600  -20.0257  -11.6843 C   0  0  0  0  0  0  0  0  0  0  0  0
   25.9074  -19.8860  -10.8024 C   0  0  0  0  0  0  0  0  0  0  0  0
   25.5242  -20.2624   -9.5861 N   0  0  0  0  0  0  0  0  0  0  0  0
   24.2325  -20.6609   -9.6027 C   0  0  0  0  0  0  0  0  0  0  0  0
   23.3563  -21.1356   -8.6499 C   0  0  0  0  0  0  0  0  0  0  0  0
   22.0636  -21.4668   -8.9894 C   0  0  0  0  0  0  0  0  0  0  0  0
   21.6085  -21.3320  -10.2968 C   0  0  0  0  0  0  0  0  0  0  0  0
   22.5113  -20.8542  -11.2246 C   0  0  0  0  0  0  0  0  0  0  0  0
   23.8114  -20.5163  -10.9068 C   0  0  0  0  0  0  0  0  0  0  0  0
   25.4519  -22.0192  -13.6000 C   0  0  0  0  0  0  0  0  0  0  0  0
   26.1340  -22.6990  -12.5980 O   0  0  0  0  0  0  0  0  0  0  0  0
   24.5741  -22.6707  -14.2175 O   0  0  0  0  0  0  0  0  0  0  0  0
  2  1  1  6
  2  3  1  0
  3  4  1  0
  4  5  1  0
  5  6  1  0
  6  7  1  0
  8  2  1  0
  9  8  2  0
 10  8  1  0
 11 17  1  0
 11 10  1  0
 11 12  1  6
 13 12  1  0
 14 13  1  0
 15 14  1  0
 16 15  1  0
 17 19  1  0
 18 17  2  0
 19 20  1  0
 20 21  1  1
 20 31  1  0
 22 21  1  0
 23 22  2  0
 24 23  1  0
 25 24  1  0
 25 30  2  0
 26 25  1  0
 27 26  2  0
 27 28  1  0
 28 29  2  0
 29 30  1  0
 30 22  1  0
 31 33  2  0
 31 32  1  0
M  END
$$$$
