KKW.pdb
     RDKit          3D

 33 34  0  0  1  0  0  0  0  0999 V2000
   27.4877  -21.7175  -17.6132 N   0  0  0  0  0  0  0  0  0  0  0  0
   27.3943  -22.4353  -16.3658 C   0  0  1  0  0  0  0  0  0  0  0  0
   28.6846  -23.1330  -16.0515 C   0  0  0  0  0  0  0  0  0  0  0  0
   28.6802  -24.6011  -16.3423 C   0  0  0  0  0  0  0  0  0  0  0  0
   28.3204  -24.9292  -17.7622 C   0  0  0  0  0  0  0  0  0  0  0  0
   28.1537  -26.4376  -17.8702 C   0  0  0  0  0  0  0  0  0  0  0  0
   27.5585  -26.9686  -16.6768 N   0  0  0  0  0  0  0  0  0  0  0  0
   27.0302  -21.5279  -15.2373 C   0  0  0  0  0  0  0  0  0  0  0  0
   27.9662  -20.8654  -14.7060 O   0  0  0  0  0  0  0  0  0  0  0  0
   25.7144  -21.3792  -14.7467 N   0  0  0  0  0  0  0  0  0  0  0  0
   25.4266  -20.4472  -13.6922 C   0  0  1  0  0  0  0  0  0  0  0  0
   24.1283  -19.7310  -13.9209 C   0  0  0  0  0  0  0  0  0  0  0  0
   24.1736  -18.7754  -15.0898 C   0  0  0  0  0  0  0  0  0  0  0  0
   22.7968  -18.1212  -15.1506 C   0  0  0  0  0  0  0  0  0  0  0  0
   22.7599  -17.1434  -16.3103 C   0  0  0  0  0  0  0  0  0  0  0  0
   21.4667  -16.4980  -16.4111 N   0  0  0  0  0  0  0  0  0  0  0  0
   25.4922  -21.1124  -12.3721 C   0  0  0  0  0  0  0  0  0  0  0  0
   24.9151  -22.2141  -12.2288 O   0  0  0  0  0  0  0  0  0  0  0  0
   26.1771  -20.5643  -11.2604 N   0  0  0  0  0  0  0  0  0  0  0  0
   26.1035  -21.1703   -9.9472 C   0  0  1  0  0  0  0  0  0  0  0  0
   27.3560  -20.8973   -9.1419 C   0  0  0  0  0  0  0  0  0  0  0  0
   27.0841  -20.7620   -7.7043 C   0  0  0  0  0  0  0  0  0  0  0  0
   26.0615  -21.2686   -6.9348 C   0  0  0  0  0  0  0  0  0  0  0  0
   26.2179  -20.8859   -5.6710 N   0  0  0  0  0  0  0  0  0  0  0  0
   27.3273  -20.1241   -5.5445 C   0  0  0  0  0  0  0  0  0  0  0  0
   27.9434  -19.4832   -4.4907 C   0  0  0  0  0  0  0  0  0  0  0  0
   29.0993  -18.7615   -4.6883 C   0  0  0  0  0  0  0  0  0  0  0  0
   29.6745  -18.6599   -5.9507 C   0  0  0  0  0  0  0  0  0  0  0  0
   29.0321  -19.3134   -6.9823 C   0  0  0  0  0  0  0  0  0  0  0  0
   27.8729  -20.0422   -6.8073 C   0  0  0  0  0  0  0  0  0  0  0  0
   24.9690  -20.5372   -9.2299 C   0  0  0  0  0  0  0  0  0  0  0  0
   24.5231  -19.2539   -9.5230 O   0  0  0  0  0  0  0  0  0  0  0  0
   24.3582  -21.1446   -8.3165 O   0  0  0  0  0  0  0  0  0  0  0  0
  2  1  1  6
  2  3  1  0
  3  4  1  0
  4  5  1  0
  5  6  1  0
  6  7  1  0
  8  2  1  0
  9  8  2  0
 10  8  1  0
 11 17  1  0
 11 10  1  0
 11 12  1  6
 13 12  1  0
 14 13  1  0
 15 14  1  0
 16 15  1  0
 17 19  1  0
 18 17  2  0
 19 20  1  0
 20 21  1  1
 20 31  1  0
 22 21  1  0
 23 22  2  0
 24 23  1  0
 25 24  1  0
 25 30  2  0
 26 25  1  0
 27 26  2  0
 27 28  1  0
 28 29  2  0
 29 30  1  0
 30 22  1  0
 31 33  2  0
 31 32  1  0
M  END
$$$$
