QDW.pdb
     RDKit          3D

 32 33  0  0  1  0  0  0  0  0999 V2000
    8.4269  -20.2843   17.2617 N   0  0  0  0  0  0  0  0  0  0  0  0
    7.5602  -19.1378   17.0986 C   0  0  0  0  0  0  0  0  0  0  0  0
    6.8826  -19.0199   16.0529 O   0  0  0  0  0  0  0  0  0  0  0  0
    7.5446  -18.1660   18.2133 C   0  0  0  0  0  0  0  0  0  0  0  0
    8.4049  -18.5779   19.3587 C   0  0  0  0  0  0  0  0  0  0  0  0
    8.3792  -17.6552   20.5340 C   0  0  2  0  0  0  0  0  0  0  0  0
    8.0847  -16.3151   20.0431 N   0  0  0  0  0  0  0  0  0  0  0  0
    9.5475  -17.6857   21.4107 C   0  0  0  0  0  0  0  0  0  0  0  0
    9.9270  -18.7706   21.9544 O   0  0  0  0  0  0  0  0  0  0  0  0
   10.3582  -16.5412   21.7409 N   0  0  0  0  0  0  0  0  0  0  0  0
   11.4673  -16.6308   22.6514 C   0  0  1  0  0  0  0  0  0  0  0  0
   12.5944  -15.6954   22.3899 C   0  0  0  0  0  0  0  0  0  0  0  0
   13.8452  -16.0309   23.0818 C   0  0  0  0  0  0  0  0  0  0  0  0
   14.1652  -17.2331   23.2217 O   0  0  0  0  0  0  0  0  0  0  0  0
   11.0074  -16.5674   24.0780 C   0  0  0  0  0  0  0  0  0  0  0  0
   11.8455  -16.4753   25.0325 O   0  0  0  0  0  0  0  0  0  0  0  0
   14.6956  -15.0627   23.5927 O   0  0  0  0  0  0  0  0  0  0  0  0
    9.6414  -16.6045   24.4456 N   0  0  0  0  0  0  0  0  0  0  0  0
    9.2079  -16.6136   25.8572 C   0  0  1  0  0  0  0  0  0  0  0  0
    7.8062  -16.0962   25.8446 C   0  0  0  0  0  0  0  0  0  0  0  0
    7.5894  -14.7558   25.2704 C   0  0  0  0  0  0  0  0  0  0  0  0
    7.5239  -14.4641   23.8865 C   0  0  0  0  0  0  0  0  0  0  0  0
    7.3458  -13.1471   23.7630 N   0  0  0  0  0  0  0  0  0  0  0  0
    7.2868  -12.5400   24.9379 C   0  0  0  0  0  0  0  0  0  0  0  0
    7.0981  -11.1953   25.2755 C   0  0  0  0  0  0  0  0  0  0  0  0
    7.0636  -10.8713   26.6162 C   0  0  0  0  0  0  0  0  0  0  0  0
    7.2115  -11.8507   27.5895 C   0  0  0  0  0  0  0  0  0  0  0  0
    7.3948  -13.1569   27.2295 C   0  0  0  0  0  0  0  0  0  0  0  0
    7.4372  -13.5307   25.8809 C   0  0  0  0  0  0  0  0  0  0  0  0
    9.3441  -17.9179   26.4698 C   0  0  0  0  0  0  0  0  0  0  0  0
    9.5932  -18.9000   25.6854 O   0  0  0  0  0  0  0  0  0  0  0  0
    9.2359  -18.1938   27.8138 O   0  0  0  0  0  0  0  0  0  0  0  0
  2  1  1  0
  3  2  2  0
  4  2  1  0
  5  4  1  0
  6  5  1  0
  6  7  1  6
  8  6  1  0
  8  9  2  0
 10  8  1  0
 11 10  1  0
 11 12  1  6
 13 12  1  0
 13 17  1  0
 14 13  2  0
 15 11  1  0
 16 15  2  0
 18 15  1  0
 19 20  1  6
 19 18  1  0
 21 20  1  0
 22 21  2  0
 23 22  1  0
 24 23  1  0
 24 29  2  0
 25 26  2  0
 25 24  1  0
 26 27  1  0
 27 28  2  0
 29 28  1  0
 29 21  1  0
 30 32  1  0
 30 19  1  0
 31 30  2  0
M  END
$$$$
