QDW.pdb
     RDKit          3D

 32 33  0  0  1  0  0  0  0  0999 V2000
    7.5745  -12.2496   17.9921 N   0  0  0  0  0  0  0  0  0  0  0  0
    7.4682  -13.5250   17.3181 C   0  0  0  0  0  0  0  0  0  0  0  0
    7.2269  -13.5563   16.0903 O   0  0  0  0  0  0  0  0  0  0  0  0
    7.6572  -14.7269   18.1589 C   0  0  0  0  0  0  0  0  0  0  0  0
    7.8085  -14.4079   19.6071 C   0  0  0  0  0  0  0  0  0  0  0  0
    9.1660  -14.6692   20.1747 C   0  0  2  0  0  0  0  0  0  0  0  0
   10.0632  -14.9693   19.0663 N   0  0  0  0  0  0  0  0  0  0  0  0
    9.2444  -15.6630   21.2427 C   0  0  0  0  0  0  0  0  0  0  0  0
    8.4110  -15.6558   22.2029 O   0  0  0  0  0  0  0  0  0  0  0  0
   10.2312  -16.7100   21.3213 N   0  0  0  0  0  0  0  0  0  0  0  0
   10.2904  -17.6187   22.4338 C   0  0  1  0  0  0  0  0  0  0  0  0
   11.1997  -18.7845   22.2675 C   0  0  0  0  0  0  0  0  0  0  0  0
   11.0575  -19.4986   20.9925 C   0  0  0  0  0  0  0  0  0  0  0  0
    9.9163  -19.6574   20.5026 O   0  0  0  0  0  0  0  0  0  0  0  0
   10.5456  -16.8894   23.7198 C   0  0  0  0  0  0  0  0  0  0  0  0
   11.3355  -15.8912   23.7607 O   0  0  0  0  0  0  0  0  0  0  0  0
   12.1445  -20.0103   20.3010 O   0  0  0  0  0  0  0  0  0  0  0  0
    9.9369  -17.2567   24.9433 N   0  0  0  0  0  0  0  0  0  0  0  0
   10.3350  -16.6533   26.2309 C   0  0  1  0  0  0  0  0  0  0  0  0
    9.9371  -15.2162   26.1349 C   0  0  0  0  0  0  0  0  0  0  0  0
    8.4947  -14.9217   26.0572 C   0  0  0  0  0  0  0  0  0  0  0  0
    7.4830  -15.8743   25.7859 C   0  0  0  0  0  0  0  0  0  0  0  0
    6.3164  -15.2260   25.7710 N   0  0  0  0  0  0  0  0  0  0  0  0
    6.4626  -13.9319   26.0082 C   0  0  0  0  0  0  0  0  0  0  0  0
    5.5254  -12.8969   26.0999 C   0  0  0  0  0  0  0  0  0  0  0  0
    5.9959  -11.6314   26.3837 C   0  0  0  0  0  0  0  0  0  0  0  0
    7.3526  -11.4013   26.5703 C   0  0  0  0  0  0  0  0  0  0  0  0
    8.2453  -12.4325   26.4743 C   0  0  0  0  0  0  0  0  0  0  0  0
    7.8123  -13.7326   26.1872 C   0  0  0  0  0  0  0  0  0  0  0  0
    9.7622  -17.3438   27.3667 C   0  0  0  0  0  0  0  0  0  0  0  0
    9.0208  -18.3572   27.1113 O   0  0  0  0  0  0  0  0  0  0  0  0
    9.9474  -17.0132   28.6898 O   0  0  0  0  0  0  0  0  0  0  0  0
  2  1  1  0
  3  2  2  0
  4  2  1  0
  5  4  1  0
  6  5  1  0
  6  7  1  6
  8  6  1  0
  8  9  2  0
 10  8  1  0
 11 10  1  0
 11 12  1  6
 13 12  1  0
 13 17  1  0
 14 13  2  0
 15 11  1  0
 16 15  2  0
 18 15  1  0
 19 20  1  6
 19 18  1  0
 21 20  1  0
 22 21  2  0
 23 22  1  0
 24 23  1  0
 24 29  2  0
 25 26  2  0
 25 24  1  0
 26 27  1  0
 27 28  2  0
 29 28  1  0
 29 21  1  0
 30 32  1  0
 30 19  1  0
 31 30  2  0
M  END
$$$$
