QDW.pdb
     RDKit          3D

 32 33  0  0  1  0  0  0  0  0999 V2000
    6.6065  -12.9445   18.8234 N   0  0  0  0  0  0  0  0  0  0  0  0
    7.6313  -13.3975   17.9087 C   0  0  0  0  0  0  0  0  0  0  0  0
    7.4285  -13.3369   16.6751 O   0  0  0  0  0  0  0  0  0  0  0  0
    8.8741  -13.9133   18.5225 C   0  0  0  0  0  0  0  0  0  0  0  0
    8.7344  -14.1878   19.9809 C   0  0  0  0  0  0  0  0  0  0  0  0
   10.0201  -14.4094   20.7096 C   0  0  2  0  0  0  0  0  0  0  0  0
   11.0618  -14.6405   19.7171 N   0  0  0  0  0  0  0  0  0  0  0  0
   10.0077  -15.4295   21.7555 C   0  0  0  0  0  0  0  0  0  0  0  0
    9.0731  -15.4695   22.6166 O   0  0  0  0  0  0  0  0  0  0  0  0
   11.0089  -16.4528   21.9183 N   0  0  0  0  0  0  0  0  0  0  0  0
   10.9430  -17.4206   22.9795 C   0  0  1  0  0  0  0  0  0  0  0  0
   11.8299  -18.6056   22.8285 C   0  0  0  0  0  0  0  0  0  0  0  0
   11.7846  -19.5544   23.9481 C   0  0  0  0  0  0  0  0  0  0  0  0
   10.6750  -19.9515   24.3708 O   0  0  0  0  0  0  0  0  0  0  0  0
   11.1034  -16.7694   24.3214 C   0  0  0  0  0  0  0  0  0  0  0  0
   12.1927  -16.1934   24.6436 O   0  0  0  0  0  0  0  0  0  0  0  0
   12.9302  -20.0340   24.5638 O   0  0  0  0  0  0  0  0  0  0  0  0
   10.0755  -16.7537   25.2939 N   0  0  0  0  0  0  0  0  0  0  0  0
   10.3380  -16.4233   26.7089 C   0  0  1  0  0  0  0  0  0  0  0  0
    9.8433  -15.0247   26.8877 C   0  0  0  0  0  0  0  0  0  0  0  0
    8.5308  -14.6959   26.3027 C   0  0  0  0  0  0  0  0  0  0  0  0
    7.5882  -15.6428   25.8343 C   0  0  0  0  0  0  0  0  0  0  0  0
    6.5436  -14.9644   25.3547 N   0  0  0  0  0  0  0  0  0  0  0  0
    6.7075  -13.6553   25.4631 C   0  0  0  0  0  0  0  0  0  0  0  0
    5.8755  -12.5869   25.1108 C   0  0  0  0  0  0  0  0  0  0  0  0
    6.3282  -11.3103   25.3733 C   0  0  0  0  0  0  0  0  0  0  0  0
    7.5664  -11.1017   25.9665 C   0  0  0  0  0  0  0  0  0  0  0  0
    8.3581  -12.1655   26.2998 C   0  0  0  0  0  0  0  0  0  0  0  0
    7.9390  -13.4780   26.0508 C   0  0  0  0  0  0  0  0  0  0  0  0
    9.7401  -17.3757   27.6201 C   0  0  0  0  0  0  0  0  0  0  0  0
    9.9756  -17.2057   28.8681 O   0  0  0  0  0  0  0  0  0  0  0  0
    8.9404  -18.4386   27.2666 O   0  0  0  0  0  0  0  0  0  0  0  0
  2  1  1  0
  3  2  2  0
  4  2  1  0
  5  4  1  0
  6  5  1  0
  6  7  1  6
  8  6  1  0
  8  9  2  0
 10  8  1  0
 11 10  1  0
 11 12  1  6
 13 12  1  0
 13 17  1  0
 14 13  2  0
 15 11  1  0
 16 15  2  0
 18 15  1  0
 19 20  1  1
 19 18  1  0
 21 20  1  0
 22 21  2  0
 23 22  1  0
 24 23  1  0
 24 29  2  0
 25 26  2  0
 25 24  1  0
 26 27  1  0
 27 28  2  0
 29 28  1  0
 29 21  1  0
 30 32  1  0
 30 19  1  0
 31 30  2  0
M  END
$$$$
