QDW.pdb
     RDKit          3D

 32 33  0  0  1  0  0  0  0  0999 V2000
    8.2236  -12.8007   16.7527 N   0  0  0  0  0  0  0  0  0  0  0  0
    7.9503  -14.1829   16.4255 C   0  0  0  0  0  0  0  0  0  0  0  0
    8.3141  -14.6388   15.3181 O   0  0  0  0  0  0  0  0  0  0  0  0
    7.2400  -14.9707   17.4561 C   0  0  0  0  0  0  0  0  0  0  0  0
    7.3619  -14.3883   18.8228 C   0  0  0  0  0  0  0  0  0  0  0  0
    8.7477  -14.3688   19.3816 C   0  0  2  0  0  0  0  0  0  0  0  0
    9.6799  -14.3235   18.2624 N   0  0  0  0  0  0  0  0  0  0  0  0
    9.0769  -15.4197   20.3416 C   0  0  0  0  0  0  0  0  0  0  0  0
    8.2675  -15.7306   21.2716 O   0  0  0  0  0  0  0  0  0  0  0  0
   10.2999  -16.1815   20.3401 N   0  0  0  0  0  0  0  0  0  0  0  0
   10.5896  -17.1588   21.3540 C   0  0  1  0  0  0  0  0  0  0  0  0
   11.6613  -18.1359   21.0216 C   0  0  0  0  0  0  0  0  0  0  0  0
   11.5423  -18.7512   19.6939 C   0  0  0  0  0  0  0  0  0  0  0  0
   12.0683  -18.1876   18.7074 O   0  0  0  0  0  0  0  0  0  0  0  0
   10.8188  -16.5093   22.6869 C   0  0  0  0  0  0  0  0  0  0  0  0
   11.5910  -15.5030   22.8006 O   0  0  0  0  0  0  0  0  0  0  0  0
   10.8647  -19.9422   19.4838 O   0  0  0  0  0  0  0  0  0  0  0  0
   10.2036  -16.9642   23.8773 N   0  0  0  0  0  0  0  0  0  0  0  0
   10.0298  -16.0904   25.0549 C   0  0  1  0  0  0  0  0  0  0  0  0
    9.3881  -14.8457   24.5336 C   0  0  0  0  0  0  0  0  0  0  0  0
    8.0997  -14.4522   25.1322 C   0  0  0  0  0  0  0  0  0  0  0  0
    6.9379  -15.2606   25.1676 C   0  0  0  0  0  0  0  0  0  0  0  0
    5.9754  -14.5525   25.7622 N   0  0  0  0  0  0  0  0  0  0  0  0
    6.3932  -13.3497   26.1244 C   0  0  0  0  0  0  0  0  0  0  0  0
    5.7375  -12.3014   26.7794 C   0  0  0  0  0  0  0  0  0  0  0  0
    6.4625  -11.1566   27.0390 C   0  0  0  0  0  0  0  0  0  0  0  0
    7.7949  -11.0563   26.6608 C   0  0  0  0  0  0  0  0  0  0  0  0
    8.4093  -12.0973   26.0218 C   0  0  0  0  0  0  0  0  0  0  0  0
    7.7117  -13.2774   25.7374 C   0  0  0  0  0  0  0  0  0  0  0  0
    9.2833  -16.7327   26.1156 C   0  0  0  0  0  0  0  0  0  0  0  0
    8.4903  -17.6786   25.7715 O   0  0  0  0  0  0  0  0  0  0  0  0
    9.3541  -16.4228   27.4548 O   0  0  0  0  0  0  0  0  0  0  0  0
  2  1  1  0
  3  2  2  0
  4  2  1  0
  5  4  1  0
  6  5  1  0
  6  7  1  6
  8  6  1  0
  8  9  2  0
 10  8  1  0
 11 10  1  0
 11 12  1  6
 13 12  1  0
 13 17  1  0
 14 13  2  0
 15 11  1  0
 16 15  2  0
 18 15  1  0
 19 20  1  6
 19 18  1  0
 21 20  1  0
 22 21  2  0
 23 22  1  0
 24 23  1  0
 24 29  2  0
 25 26  2  0
 25 24  1  0
 26 27  1  0
 27 28  2  0
 29 28  1  0
 29 21  1  0
 30 32  1  0
 30 19  1  0
 31 30  2  0
M  END
$$$$
