QDW.pdb
     RDKit          3D

 32 33  0  0  1  0  0  0  0  0999 V2000
    7.3085  -12.4737   17.6566 N   0  0  0  0  0  0  0  0  0  0  0  0
    7.7494  -13.6282   16.9049 C   0  0  0  0  0  0  0  0  0  0  0  0
    7.6456  -13.6293   15.6576 O   0  0  0  0  0  0  0  0  0  0  0  0
    8.3029  -14.7499   17.6941 C   0  0  0  0  0  0  0  0  0  0  0  0
    8.1900  -14.5399   19.1655 C   0  0  0  0  0  0  0  0  0  0  0  0
    9.4126  -14.8890   19.9507 C   0  0  2  0  0  0  0  0  0  0  0  0
   10.4420  -15.3116   19.0098 N   0  0  0  0  0  0  0  0  0  0  0  0
    9.2328  -15.8381   21.0467 C   0  0  0  0  0  0  0  0  0  0  0  0
    8.2609  -15.7211   21.8581 O   0  0  0  0  0  0  0  0  0  0  0  0
   10.0993  -16.9573   21.3162 N   0  0  0  0  0  0  0  0  0  0  0  0
    9.9850  -17.7366   22.5189 C   0  0  1  0  0  0  0  0  0  0  0  0
   10.6289  -19.0775   22.4830 C   0  0  0  0  0  0  0  0  0  0  0  0
   12.0602  -19.0640   22.1560 C   0  0  0  0  0  0  0  0  0  0  0  0
   12.7827  -20.0172   22.5258 O   0  0  0  0  0  0  0  0  0  0  0  0
   10.4062  -16.9461   23.7223 C   0  0  0  0  0  0  0  0  0  0  0  0
   11.1821  -15.9426   23.6078 O   0  0  0  0  0  0  0  0  0  0  0  0
   12.6519  -18.0294   21.4482 O   0  0  0  0  0  0  0  0  0  0  0  0
    9.9763  -17.2586   25.0339 N   0  0  0  0  0  0  0  0  0  0  0  0
   10.3850  -16.4587   26.2059 C   0  0  1  0  0  0  0  0  0  0  0  0
    9.9064  -15.0713   25.9251 C   0  0  0  0  0  0  0  0  0  0  0  0
    8.4482  -14.8591   25.8810 C   0  0  0  0  0  0  0  0  0  0  0  0
    7.4825  -15.8787   25.7012 C   0  0  0  0  0  0  0  0  0  0  0  0
    6.2820  -15.2955   25.6896 N   0  0  0  0  0  0  0  0  0  0  0  0
    6.3640  -13.9835   25.8458 C   0  0  0  0  0  0  0  0  0  0  0  0
    5.3745  -12.9963   25.9101 C   0  0  0  0  0  0  0  0  0  0  0  0
    5.7833  -11.6928   26.1031 C   0  0  0  0  0  0  0  0  0  0  0  0
    7.1305  -11.3801   26.2283 C   0  0  0  0  0  0  0  0  0  0  0  0
    8.0753  -12.3662   26.1612 C   0  0  0  0  0  0  0  0  0  0  0  0
    7.7057  -13.7023   25.9655 C   0  0  0  0  0  0  0  0  0  0  0  0
    9.8901  -17.0071   27.4505 C   0  0  0  0  0  0  0  0  0  0  0  0
   10.2394  -16.4039   28.5256 O   0  0  0  0  0  0  0  0  0  0  0  0
    9.0769  -18.1099   27.5799 O   0  0  0  0  0  0  0  0  0  0  0  0
  2  1  1  0
  3  2  2  0
  4  2  1  0
  5  4  1  0
  6  5  1  0
  6  7  1  6
  8  6  1  0
  8  9  2  0
 10  8  1  0
 11 10  1  0
 11 12  1  6
 13 12  1  0
 13 17  1  0
 14 13  2  0
 15 11  1  0
 16 15  2  0
 18 15  1  0
 19 20  1  6
 19 18  1  0
 21 20  1  0
 22 21  2  0
 23 22  1  0
 24 23  1  0
 24 29  2  0
 25 26  2  0
 25 24  1  0
 26 27  1  0
 27 28  2  0
 29 28  1  0
 29 21  1  0
 30 32  1  0
 30 19  1  0
 31 30  2  0
M  END
$$$$
