QDW.pdb
     RDKit          3D

 32 33  0  0  1  0  0  0  0  0999 V2000
    7.7734  -16.1246   22.6603 N   0  0  0  0  0  0  0  0  0  0  0  0
    6.5010  -15.6737   22.1407 C   0  0  0  0  0  0  0  0  0  0  0  0
    5.4403  -16.1332   22.6207 O   0  0  0  0  0  0  0  0  0  0  0  0
    6.5563  -14.6769   21.0496 C   0  0  0  0  0  0  0  0  0  0  0  0
    7.9314  -14.1569   20.8035 C   0  0  0  0  0  0  0  0  0  0  0  0
    8.7850  -15.0138   19.9259 C   0  0  2  0  0  0  0  0  0  0  0  0
    7.9417  -15.5421   18.8613 N   0  0  0  0  0  0  0  0  0  0  0  0
    9.5631  -16.0555   20.5921 C   0  0  0  0  0  0  0  0  0  0  0  0
    9.8557  -17.1367   19.9905 O   0  0  0  0  0  0  0  0  0  0  0  0
   10.0589  -15.9751   21.9426 N   0  0  0  0  0  0  0  0  0  0  0  0
   10.9728  -16.9475   22.4775 C   0  0  1  0  0  0  0  0  0  0  0  0
   12.1667  -17.2410   21.6396 C   0  0  0  0  0  0  0  0  0  0  0  0
   13.1154  -18.1919   22.2323 C   0  0  0  0  0  0  0  0  0  0  0  0
   12.6990  -19.0460   23.0475 O   0  0  0  0  0  0  0  0  0  0  0  0
   11.3493  -16.6206   23.8925 C   0  0  0  0  0  0  0  0  0  0  0  0
   12.0773  -15.6103   24.1595 O   0  0  0  0  0  0  0  0  0  0  0  0
   14.4671  -18.1838   21.9249 O   0  0  0  0  0  0  0  0  0  0  0  0
   10.9276  -17.3980   24.9972 N   0  0  0  0  0  0  0  0  0  0  0  0
   10.6201  -16.7954   26.3098 C   0  0  1  0  0  0  0  0  0  0  0  0
   10.1961  -15.3937   26.0128 C   0  0  0  0  0  0  0  0  0  0  0  0
    8.7492  -15.1119   26.0260 C   0  0  0  0  0  0  0  0  0  0  0  0
    7.7287  -16.0896   25.9401 C   0  0  0  0  0  0  0  0  0  0  0  0
    6.5580  -15.4489   25.9559 N   0  0  0  0  0  0  0  0  0  0  0  0
    6.7094  -14.1368   26.0450 C   0  0  0  0  0  0  0  0  0  0  0  0
    5.7720  -13.0999   26.1074 C   0  0  0  0  0  0  0  0  0  0  0  0
    6.2508  -11.8107   26.2185 C   0  0  0  0  0  0  0  0  0  0  0  0
    7.6157  -11.5596   26.2663 C   0  0  0  0  0  0  0  0  0  0  0  0
    8.5085  -12.5933   26.2030 C   0  0  0  0  0  0  0  0  0  0  0  0
    8.0671  -13.9171   26.0891 C   0  0  0  0  0  0  0  0  0  0  0  0
    9.6395  -17.5577   27.0529 C   0  0  0  0  0  0  0  0  0  0  0  0
    8.9513  -18.4122   26.3911 O   0  0  0  0  0  0  0  0  0  0  0  0
    9.3865  -17.4504   28.4016 O   0  0  0  0  0  0  0  0  0  0  0  0
  2  1  1  0
  3  2  2  0
  4  2  1  0
  5  4  1  0
  6  5  1  0
  6  7  1  6
  8  6  1  0
  8  9  2  0
 10  8  1  0
 11 10  1  0
 11 12  1  6
 13 12  1  0
 13 17  1  0
 14 13  2  0
 15 11  1  0
 16 15  2  0
 18 15  1  0
 19 20  1  6
 19 18  1  0
 21 20  1  0
 22 21  2  0
 23 22  1  0
 24 23  1  0
 24 29  2  0
 25 26  2  0
 25 24  1  0
 26 27  1  0
 27 28  2  0
 29 28  1  0
 29 21  1  0
 30 32  1  0
 30 19  1  0
 31 30  2  0
M  END
$$$$
