QDW.pdb
     RDKit          3D

 32 33  0  0  1  0  0  0  0  0999 V2000
    6.8599  -13.5315   19.9415 N   0  0  0  0  0  0  0  0  0  0  0  0
    7.0677  -14.1211   18.6371 C   0  0  0  0  0  0  0  0  0  0  0  0
    6.9221  -13.4183   17.6116 O   0  0  0  0  0  0  0  0  0  0  0  0
    7.4453  -15.5508   18.6183 C   0  0  0  0  0  0  0  0  0  0  0  0
    7.6130  -16.1281   19.9824 C   0  0  0  0  0  0  0  0  0  0  0  0
    8.7749  -15.5959   20.7568 C   0  0  2  0  0  0  0  0  0  0  0  0
    9.8001  -15.1924   19.8029 N   0  0  0  0  0  0  0  0  0  0  0  0
    9.3015  -16.4565   21.8134 C   0  0  0  0  0  0  0  0  0  0  0  0
    8.5223  -17.0172   22.6471 O   0  0  0  0  0  0  0  0  0  0  0  0
   10.6978  -16.7480   22.0175 N   0  0  0  0  0  0  0  0  0  0  0  0
   11.1619  -17.4908   23.1576 C   0  0  1  0  0  0  0  0  0  0  0  0
   12.5757  -17.9502   23.0969 C   0  0  0  0  0  0  0  0  0  0  0  0
   12.9433  -18.9453   24.1120 C   0  0  0  0  0  0  0  0  0  0  0  0
   13.7344  -18.6238   25.0276 O   0  0  0  0  0  0  0  0  0  0  0  0
   10.8636  -16.7671   24.4374 C   0  0  0  0  0  0  0  0  0  0  0  0
   11.4171  -15.6512   24.7029 O   0  0  0  0  0  0  0  0  0  0  0  0
   12.4467  -20.2394   24.0995 O   0  0  0  0  0  0  0  0  0  0  0  0
    9.9663  -17.2681   25.4103 N   0  0  0  0  0  0  0  0  0  0  0  0
    9.8466  -16.6650   26.7528 C   0  0  1  0  0  0  0  0  0  0  0  0
    8.3787  -16.5743   27.0171 C   0  0  0  0  0  0  0  0  0  0  0  0
    7.6069  -15.6178   26.2029 C   0  0  0  0  0  0  0  0  0  0  0  0
    6.6858  -15.9710   25.1873 C   0  0  0  0  0  0  0  0  0  0  0  0
    6.2134  -14.8379   24.6636 N   0  0  0  0  0  0  0  0  0  0  0  0
    6.7365  -13.7669   25.2395 C   0  0  0  0  0  0  0  0  0  0  0  0
    6.5208  -12.4016   25.0218 C   0  0  0  0  0  0  0  0  0  0  0  0
    7.2163  -11.5103   25.8126 C   0  0  0  0  0  0  0  0  0  0  0  0
    8.0970  -11.9601   26.7876 C   0  0  0  0  0  0  0  0  0  0  0  0
    8.2877  -13.3007   26.9774 C   0  0  0  0  0  0  0  0  0  0  0  0
    7.6036  -14.2406   26.1972 C   0  0  0  0  0  0  0  0  0  0  0  0
   10.5770  -17.4052   27.7595 C   0  0  0  0  0  0  0  0  0  0  0  0
   10.5870  -16.9135   28.9427 O   0  0  0  0  0  0  0  0  0  0  0  0
   11.2534  -18.5872   27.5603 O   0  0  0  0  0  0  0  0  0  0  0  0
  2  1  1  0
  3  2  2  0
  4  2  1  0
  5  4  1  0
  6  5  1  0
  6  7  1  6
  8  6  1  0
  8  9  2  0
 10  8  1  0
 11 10  1  0
 11 12  1  6
 13 12  1  0
 13 17  1  0
 14 13  2  0
 15 11  1  0
 16 15  2  0
 18 15  1  0
 19 20  1  1
 19 18  1  0
 21 20  1  0
 22 21  2  0
 23 22  1  0
 24 23  1  0
 24 29  2  0
 25 26  2  0
 25 24  1  0
 26 27  1  0
 27 28  2  0
 29 28  1  0
 29 21  1  0
 30 32  1  0
 30 19  1  0
 31 30  2  0
M  END
$$$$
