QDW.pdb
     RDKit          3D

 32 33  0  0  1  0  0  0  0  0999 V2000
    7.3804  -12.3524   17.9517 N   0  0  0  0  0  0  0  0  0  0  0  0
    7.6368  -13.5934   17.2542 C   0  0  0  0  0  0  0  0  0  0  0  0
    7.2192  -13.7414   16.0836 O   0  0  0  0  0  0  0  0  0  0  0  0
    8.3934  -14.6201   18.0030 C   0  0  0  0  0  0  0  0  0  0  0  0
    8.6113  -14.2578   19.4324 C   0  0  0  0  0  0  0  0  0  0  0  0
    9.8981  -14.7406   20.0191 C   0  0  2  0  0  0  0  0  0  0  0  0
   10.6950  -15.3099   18.9400 N   0  0  0  0  0  0  0  0  0  0  0  0
    9.7934  -15.6353   21.1693 C   0  0  0  0  0  0  0  0  0  0  0  0
    8.9789  -15.3902   22.1144 O   0  0  0  0  0  0  0  0  0  0  0  0
   10.5683  -16.8364   21.3503 N   0  0  0  0  0  0  0  0  0  0  0  0
   10.3837  -17.6978   22.4865 C   0  0  1  0  0  0  0  0  0  0  0  0
   11.0011  -19.0474   22.3806 C   0  0  0  0  0  0  0  0  0  0  0  0
   10.9221  -19.6571   21.0473 C   0  0  0  0  0  0  0  0  0  0  0  0
    9.9933  -20.4570   20.7928 O   0  0  0  0  0  0  0  0  0  0  0  0
   10.7659  -17.0065   23.7619 C   0  0  0  0  0  0  0  0  0  0  0  0
   11.8760  -16.3909   23.8657 O   0  0  0  0  0  0  0  0  0  0  0  0
   11.8423  -19.3821   20.0478 O   0  0  0  0  0  0  0  0  0  0  0  0
    9.9339  -16.9945   24.9066 N   0  0  0  0  0  0  0  0  0  0  0  0
   10.4159  -16.5304   26.2229 C   0  0  1  0  0  0  0  0  0  0  0  0
   10.0266  -15.0899   26.3021 C   0  0  0  0  0  0  0  0  0  0  0  0
    8.6099  -14.7620   26.0601 C   0  0  0  0  0  0  0  0  0  0  0  0
    7.6110  -15.6936   25.6876 C   0  0  0  0  0  0  0  0  0  0  0  0
    6.4702  -15.0179   25.5350 N   0  0  0  0  0  0  0  0  0  0  0  0
    6.6217  -13.7245   25.7728 C   0  0  0  0  0  0  0  0  0  0  0  0
    5.7067  -12.6662   25.7477 C   0  0  0  0  0  0  0  0  0  0  0  0
    6.1745  -11.4085   26.0685 C   0  0  0  0  0  0  0  0  0  0  0  0
    7.5073  -11.2085   26.4033 C   0  0  0  0  0  0  0  0  0  0  0  0
    8.3787  -12.2620   26.4193 C   0  0  0  0  0  0  0  0  0  0  0  0
    7.9476  -13.5552   26.0998 C   0  0  0  0  0  0  0  0  0  0  0  0
    9.9070  -17.3341   27.3137 C   0  0  0  0  0  0  0  0  0  0  0  0
    9.1373  -18.3096   27.0009 O   0  0  0  0  0  0  0  0  0  0  0  0
   10.1802  -17.1477   28.6498 O   0  0  0  0  0  0  0  0  0  0  0  0
  2  1  1  0
  3  2  2  0
  4  2  1  0
  5  4  1  0
  6  5  1  0
  6  7  1  6
  8  6  1  0
  8  9  2  0
 10  8  1  0
 11 10  1  0
 11 12  1  6
 13 12  1  0
 13 17  1  0
 14 13  2  0
 15 11  1  0
 16 15  2  0
 18 15  1  0
 19 20  1  1
 19 18  1  0
 21 20  1  0
 22 21  2  0
 23 22  1  0
 24 23  1  0
 24 29  2  0
 25 26  2  0
 25 24  1  0
 26 27  1  0
 27 28  2  0
 29 28  1  0
 29 21  1  0
 30 32  1  0
 30 19  1  0
 31 30  2  0
M  END
$$$$
