QDW.pdb
     RDKit          3D

 32 33  0  0  1  0  0  0  0  0999 V2000
    7.2230  -15.5846   17.3378 N   0  0  0  0  0  0  0  0  0  0  0  0
    7.5068  -14.1663   17.3409 C   0  0  0  0  0  0  0  0  0  0  0  0
    7.9252  -13.6181   16.2963 O   0  0  0  0  0  0  0  0  0  0  0  0
    7.2746  -13.4557   18.6170 C   0  0  0  0  0  0  0  0  0  0  0  0
    7.3779  -14.3461   19.8079 C   0  0  0  0  0  0  0  0  0  0  0  0
    8.6193  -14.1737   20.6218 C   0  0  2  0  0  0  0  0  0  0  0  0
    9.7077  -13.8420   19.7113 N   0  0  0  0  0  0  0  0  0  0  0  0
    8.9610  -15.2684   21.5270 C   0  0  0  0  0  0  0  0  0  0  0  0
    8.0963  -15.7481   22.3262 O   0  0  0  0  0  0  0  0  0  0  0  0
   10.2567  -15.8931   21.6099 N   0  0  0  0  0  0  0  0  0  0  0  0
   10.5267  -16.9681   22.5256 C   0  0  1  0  0  0  0  0  0  0  0  0
   11.7308  -17.7877   22.2222 C   0  0  0  0  0  0  0  0  0  0  0  0
   11.7310  -18.4120   20.8933 C   0  0  0  0  0  0  0  0  0  0  0  0
   10.6572  -18.8492   20.4210 O   0  0  0  0  0  0  0  0  0  0  0  0
   10.5209  -16.4875   23.9468 C   0  0  0  0  0  0  0  0  0  0  0  0
   11.3691  -15.6274   24.3505 O   0  0  0  0  0  0  0  0  0  0  0  0
   12.8821  -18.5398   20.1316 O   0  0  0  0  0  0  0  0  0  0  0  0
    9.5913  -16.9494   24.9086 N   0  0  0  0  0  0  0  0  0  0  0  0
    9.7013  -16.5987   26.3388 C   0  0  1  0  0  0  0  0  0  0  0  0
    8.2941  -16.4700   26.8246 C   0  0  0  0  0  0  0  0  0  0  0  0
    7.4579  -15.4316   26.1954 C   0  0  0  0  0  0  0  0  0  0  0  0
    6.4554  -15.6715   25.2249 C   0  0  0  0  0  0  0  0  0  0  0  0
    5.9419  -14.4890   24.8791 N   0  0  0  0  0  0  0  0  0  0  0  0
    6.5118  -13.4883   25.5320 C   0  0  0  0  0  0  0  0  0  0  0  0
    6.2796  -12.1090   25.4953 C   0  0  0  0  0  0  0  0  0  0  0  0
    7.0391  -11.3104   26.3254 C   0  0  0  0  0  0  0  0  0  0  0  0
    7.9975  -11.8636   27.1644 C   0  0  0  0  0  0  0  0  0  0  0  0
    8.2023  -13.2154   27.1785 C   0  0  0  0  0  0  0  0  0  0  0  0
    7.4551  -14.0634   26.3522 C   0  0  0  0  0  0  0  0  0  0  0  0
   10.4919  -17.5548   27.0842 C   0  0  0  0  0  0  0  0  0  0  0  0
   10.6751  -17.3064   28.3278 O   0  0  0  0  0  0  0  0  0  0  0  0
   11.0563  -18.7040   26.5791 O   0  0  0  0  0  0  0  0  0  0  0  0
  2  1  1  0
  3  2  2  0
  4  2  1  0
  5  4  1  0
  6  5  1  0
  6  7  1  6
  8  6  1  0
  8  9  2  0
 10  8  1  0
 11 10  1  0
 11 12  1  6
 13 12  1  0
 13 17  1  0
 14 13  2  0
 15 11  1  0
 16 15  2  0
 18 15  1  0
 19 20  1  1
 19 18  1  0
 21 20  1  0
 22 21  2  0
 23 22  1  0
 24 23  1  0
 24 29  2  0
 25 26  2  0
 25 24  1  0
 26 27  1  0
 27 28  2  0
 29 28  1  0
 29 21  1  0
 30 32  1  0
 30 19  1  0
 31 30  2  0
M  END
$$$$
