QDW.pdb
     RDKit          3D

 32 33  0  0  1  0  0  0  0  0999 V2000
    7.1750  -12.4547   16.5075 N   0  0  0  0  0  0  0  0  0  0  0  0
    7.5574  -13.8154   16.1997 C   0  0  0  0  0  0  0  0  0  0  0  0
    7.4412  -14.2392   15.0278 O   0  0  0  0  0  0  0  0  0  0  0  0
    8.0690  -14.6222   17.3286 C   0  0  0  0  0  0  0  0  0  0  0  0
    8.0135  -13.9024   18.6328 C   0  0  0  0  0  0  0  0  0  0  0  0
    9.1425  -14.1959   19.5667 C   0  0  2  0  0  0  0  0  0  0  0  0
   10.3619  -14.2974   18.7752 N   0  0  0  0  0  0  0  0  0  0  0  0
    8.9635  -15.3327   20.4668 C   0  0  0  0  0  0  0  0  0  0  0  0
    7.9550  -15.4016   21.2380 O   0  0  0  0  0  0  0  0  0  0  0  0
    9.8705  -16.4470   20.5748 N   0  0  0  0  0  0  0  0  0  0  0  0
    9.7206  -17.4553   21.5887 C   0  0  1  0  0  0  0  0  0  0  0  0
   10.2151  -18.8116   21.2286 C   0  0  0  0  0  0  0  0  0  0  0  0
   10.1709  -19.7923   22.3203 C   0  0  0  0  0  0  0  0  0  0  0  0
    9.1515  -19.8587   23.0441 O   0  0  0  0  0  0  0  0  0  0  0  0
   10.2711  -16.9906   22.9047 C   0  0  0  0  0  0  0  0  0  0  0  0
   11.5112  -16.7348   23.0420 O   0  0  0  0  0  0  0  0  0  0  0  0
   11.2213  -20.6567   22.5870 O   0  0  0  0  0  0  0  0  0  0  0  0
    9.4638  -16.8101   24.0528 N   0  0  0  0  0  0  0  0  0  0  0  0
   10.0382  -16.4846   25.3736 C   0  0  1  0  0  0  0  0  0  0  0  0
    9.7579  -15.0315   25.5803 C   0  0  0  0  0  0  0  0  0  0  0  0
    8.3432  -14.6200   25.6297 C   0  0  0  0  0  0  0  0  0  0  0  0
    7.2387  -15.4729   25.3906 C   0  0  0  0  0  0  0  0  0  0  0  0
    6.1320  -14.7347   25.4988 N   0  0  0  0  0  0  0  0  0  0  0  0
    6.4021  -13.4716   25.7884 C   0  0  0  0  0  0  0  0  0  0  0  0
    5.5633  -12.3726   26.0044 C   0  0  0  0  0  0  0  0  0  0  0  0
    6.1569  -11.1662   26.3137 C   0  0  0  0  0  0  0  0  0  0  0  0
    7.5380  -11.0548   26.4056 C   0  0  0  0  0  0  0  0  0  0  0  0
    8.3326  -12.1463   26.1891 C   0  0  0  0  0  0  0  0  0  0  0  0
    7.7732  -13.3899   25.8718 C   0  0  0  0  0  0  0  0  0  0  0  0
    9.5237  -17.3346   26.4259 C   0  0  0  0  0  0  0  0  0  0  0  0
   10.0352  -17.1834   27.5910 O   0  0  0  0  0  0  0  0  0  0  0  0
    8.5348  -18.2819   26.2877 O   0  0  0  0  0  0  0  0  0  0  0  0
  2  1  1  0
  3  2  2  0
  4  2  1  0
  5  4  1  0
  6  5  1  0
  6  7  1  6
  8  6  1  0
  8  9  2  0
 10  8  1  0
 11 10  1  0
 11 12  1  6
 13 12  1  0
 13 17  1  0
 14 13  2  0
 15 11  1  0
 16 15  2  0
 18 15  1  0
 19 20  1  1
 19 18  1  0
 21 20  1  0
 22 21  2  0
 23 22  1  0
 24 23  1  0
 24 29  2  0
 25 26  2  0
 25 24  1  0
 26 27  1  0
 27 28  2  0
 29 28  1  0
 29 21  1  0
 30 32  1  0
 30 19  1  0
 31 30  2  0
M  END
$$$$
