QDW.pdb
     RDKit          3D

 32 33  0  0  1  0  0  0  0  0999 V2000
    5.6437  -18.9101   19.0890 N   0  0  0  0  0  0  0  0  0  0  0  0
    6.6548  -18.3296   18.2328 C   0  0  0  0  0  0  0  0  0  0  0  0
    6.6809  -18.6288   17.0177 O   0  0  0  0  0  0  0  0  0  0  0  0
    7.6069  -17.4020   18.8812 C   0  0  0  0  0  0  0  0  0  0  0  0
    7.3907  -17.2769   20.3507 C   0  0  0  0  0  0  0  0  0  0  0  0
    8.3307  -16.3512   21.0526 C   0  0  2  0  0  0  0  0  0  0  0  0
    9.1093  -15.6521   20.0384 N   0  0  0  0  0  0  0  0  0  0  0  0
    9.1693  -16.9416   22.0932 C   0  0  0  0  0  0  0  0  0  0  0  0
    8.6725  -17.7178   22.9690 O   0  0  0  0  0  0  0  0  0  0  0  0
   10.5854  -16.7164   22.2346 N   0  0  0  0  0  0  0  0  0  0  0  0
   11.3429  -17.2861   23.3156 C   0  0  1  0  0  0  0  0  0  0  0  0
   12.8153  -17.3466   23.1108 C   0  0  0  0  0  0  0  0  0  0  0  0
   13.2941  -16.6862   21.8900 C   0  0  0  0  0  0  0  0  0  0  0  0
   12.7375  -16.9391   20.7974 O   0  0  0  0  0  0  0  0  0  0  0  0
   10.9863  -16.6484   24.6260 C   0  0  0  0  0  0  0  0  0  0  0  0
   11.6297  -15.6382   25.0590 O   0  0  0  0  0  0  0  0  0  0  0  0
   14.3477  -15.7854   21.8957 O   0  0  0  0  0  0  0  0  0  0  0  0
    9.9337  -17.1190   25.4464 N   0  0  0  0  0  0  0  0  0  0  0  0
    9.7590  -16.6612   26.8394 C   0  0  1  0  0  0  0  0  0  0  0  0
    8.2815  -16.5968   27.0530 C   0  0  0  0  0  0  0  0  0  0  0  0
    7.5201  -15.6601   26.2066 C   0  0  0  0  0  0  0  0  0  0  0  0
    6.7491  -16.0265   25.0772 C   0  0  0  0  0  0  0  0  0  0  0  0
    6.2372  -14.9069   24.5616 N   0  0  0  0  0  0  0  0  0  0  0  0
    6.5978  -13.8328   25.2463 C   0  0  0  0  0  0  0  0  0  0  0  0
    6.2864  -12.4795   25.0753 C   0  0  0  0  0  0  0  0  0  0  0  0
    6.8106  -11.5829   25.9835 C   0  0  0  0  0  0  0  0  0  0  0  0
    7.6174  -12.0163   27.0274 C   0  0  0  0  0  0  0  0  0  0  0  0
    7.9048  -13.3455   27.1693 C   0  0  0  0  0  0  0  0  0  0  0  0
    7.3952  -14.2901   26.2704 C   0  0  0  0  0  0  0  0  0  0  0  0
   10.4508  -17.5049   27.7904 C   0  0  0  0  0  0  0  0  0  0  0  0
   10.4198  -17.1363   29.0173 O   0  0  0  0  0  0  0  0  0  0  0  0
   11.1303  -18.6650   27.4957 O   0  0  0  0  0  0  0  0  0  0  0  0
  2  1  1  0
  3  2  2  0
  4  2  1  0
  5  4  1  0
  6  5  1  0
  6  7  1  6
  8  6  1  0
  8  9  2  0
 10  8  1  0
 11 10  1  0
 11 12  1  6
 13 12  1  0
 13 17  1  0
 14 13  2  0
 15 11  1  0
 16 15  2  0
 18 15  1  0
 19 20  1  1
 19 18  1  0
 21 20  1  0
 22 21  2  0
 23 22  1  0
 24 23  1  0
 24 29  2  0
 25 26  2  0
 25 24  1  0
 26 27  1  0
 27 28  2  0
 29 28  1  0
 29 21  1  0
 30 32  1  0
 30 19  1  0
 31 30  2  0
M  END
$$$$
