QDW.pdb
     RDKit          3D

 32 33  0  0  1  0  0  0  0  0999 V2000
    7.0394  -12.7580   18.2987 N   0  0  0  0  0  0  0  0  0  0  0  0
    7.8642  -13.8222   17.7701 C   0  0  0  0  0  0  0  0  0  0  0  0
    7.7471  -14.1558   16.5695 O   0  0  0  0  0  0  0  0  0  0  0  0
    8.8075  -14.4515   18.7196 C   0  0  0  0  0  0  0  0  0  0  0  0
   10.0175  -13.6200   18.9775 C   0  0  0  0  0  0  0  0  0  0  0  0
   11.0147  -14.2255   19.9114 C   0  0  2  0  0  0  0  0  0  0  0  0
   12.0880  -14.7976   19.1088 N   0  0  0  0  0  0  0  0  0  0  0  0
   10.4927  -15.1663   20.8998 C   0  0  0  0  0  0  0  0  0  0  0  0
    9.5363  -14.8387   21.6708 O   0  0  0  0  0  0  0  0  0  0  0  0
   10.9845  -16.5057   21.1003 N   0  0  0  0  0  0  0  0  0  0  0  0
   10.4350  -17.3764   22.1038 C   0  0  1  0  0  0  0  0  0  0  0  0
   10.7012  -18.8280   21.9152 C   0  0  0  0  0  0  0  0  0  0  0  0
   10.2928  -19.6795   23.0394 C   0  0  0  0  0  0  0  0  0  0  0  0
    9.0794  -19.9427   23.2000 O   0  0  0  0  0  0  0  0  0  0  0  0
   10.8003  -16.9156   23.4841 C   0  0  0  0  0  0  0  0  0  0  0  0
   11.9947  -16.5750   23.7659 O   0  0  0  0  0  0  0  0  0  0  0  0
   11.2031  -20.2094   23.9405 O   0  0  0  0  0  0  0  0  0  0  0  0
    9.8599  -16.8315   24.5382 N   0  0  0  0  0  0  0  0  0  0  0  0
   10.2456  -16.4236   25.9040 C   0  0  1  0  0  0  0  0  0  0  0  0
    9.8477  -14.9876   26.0159 C   0  0  0  0  0  0  0  0  0  0  0  0
    8.4119  -14.6765   25.8940 C   0  0  0  0  0  0  0  0  0  0  0  0
    7.4004  -15.6136   25.5729 C   0  0  0  0  0  0  0  0  0  0  0  0
    6.2416  -14.9527   25.5290 N   0  0  0  0  0  0  0  0  0  0  0  0
    6.3928  -13.6641   25.7921 C   0  0  0  0  0  0  0  0  0  0  0  0
    5.4636  -12.6208   25.8689 C   0  0  0  0  0  0  0  0  0  0  0  0
    5.9370  -11.3651   26.1891 C   0  0  0  0  0  0  0  0  0  0  0  0
    7.2888  -11.1526   26.4255 C   0  0  0  0  0  0  0  0  0  0  0  0
    8.1738  -12.1917   26.3431 C   0  0  0  0  0  0  0  0  0  0  0  0
    7.7375  -13.4823   26.0202 C   0  0  0  0  0  0  0  0  0  0  0  0
    9.6627  -17.2727   26.9209 C   0  0  0  0  0  0  0  0  0  0  0  0
    9.9858  -17.0227   28.1354 O   0  0  0  0  0  0  0  0  0  0  0  0
    8.7922  -18.3156   26.7001 O   0  0  0  0  0  0  0  0  0  0  0  0
  2  1  1  0
  3  2  2  0
  4  2  1  0
  5  4  1  0
  6  5  1  0
  6  7  1  6
  8  6  1  0
  8  9  2  0
 10  8  1  0
 11 10  1  0
 11 12  1  6
 13 12  1  0
 13 17  1  0
 14 13  2  0
 15 11  1  0
 16 15  2  0
 18 15  1  0
 19 20  1  1
 19 18  1  0
 21 20  1  0
 22 21  2  0
 23 22  1  0
 24 23  1  0
 24 29  2  0
 25 26  2  0
 25 24  1  0
 26 27  1  0
 27 28  2  0
 29 28  1  0
 29 21  1  0
 30 32  1  0
 30 19  1  0
 31 30  2  0
M  END
$$$$
