QDW.pdb
     RDKit          3D

 32 33  0  0  1  0  0  0  0  0999 V2000
    8.3971  -13.7339   15.5376 N   0  0  0  0  0  0  0  0  0  0  0  0
    7.5872  -14.8109   16.0632 C   0  0  0  0  0  0  0  0  0  0  0  0
    6.9783  -15.5675   15.2736 O   0  0  0  0  0  0  0  0  0  0  0  0
    7.5403  -14.9352   17.5361 C   0  0  0  0  0  0  0  0  0  0  0  0
    8.2048  -13.8010   18.2389 C   0  0  0  0  0  0  0  0  0  0  0  0
    8.1055  -13.8341   19.7296 C   0  0  2  0  0  0  0  0  0  0  0  0
    8.7907  -12.6576   20.2490 N   0  0  0  0  0  0  0  0  0  0  0  0
    8.5377  -15.0673   20.3831 C   0  0  0  0  0  0  0  0  0  0  0  0
    7.6932  -15.8511   20.9209 O   0  0  0  0  0  0  0  0  0  0  0  0
    9.9057  -15.5076   20.4863 N   0  0  0  0  0  0  0  0  0  0  0  0
   10.2812  -16.6466   21.2792 C   0  0  1  0  0  0  0  0  0  0  0  0
   11.3612  -17.4993   20.7135 C   0  0  0  0  0  0  0  0  0  0  0  0
   11.1378  -17.9377   19.3301 C   0  0  0  0  0  0  0  0  0  0  0  0
    9.9930  -18.3042   18.9803 O   0  0  0  0  0  0  0  0  0  0  0  0
   10.5656  -16.2524   22.6985 C   0  0  0  0  0  0  0  0  0  0  0  0
   11.3189  -15.2603   22.9641 O   0  0  0  0  0  0  0  0  0  0  0  0
   12.1515  -17.9638   18.3850 O   0  0  0  0  0  0  0  0  0  0  0  0
   10.0255  -16.9433   23.8091 N   0  0  0  0  0  0  0  0  0  0  0  0
   10.2255  -16.4783   25.1963 C   0  0  1  0  0  0  0  0  0  0  0  0
    9.7950  -15.0474   25.2006 C   0  0  0  0  0  0  0  0  0  0  0  0
    8.3487  -14.7808   25.3016 C   0  0  0  0  0  0  0  0  0  0  0  0
    7.3266  -15.7218   25.0291 C   0  0  0  0  0  0  0  0  0  0  0  0
    6.1565  -15.1039   25.2038 N   0  0  0  0  0  0  0  0  0  0  0  0
    6.3099  -13.8403   25.5676 C   0  0  0  0  0  0  0  0  0  0  0  0
    5.3740  -12.8444   25.8678 C   0  0  0  0  0  0  0  0  0  0  0  0
    5.8552  -11.6066   26.2419 C   0  0  0  0  0  0  0  0  0  0  0  0
    7.2209  -11.3659   26.3156 C   0  0  0  0  0  0  0  0  0  0  0  0
    8.1120  -12.3588   26.0161 C   0  0  0  0  0  0  0  0  0  0  0  0
    7.6682  -13.6296   25.6311 C   0  0  0  0  0  0  0  0  0  0  0  0
    9.5288  -17.3012   26.1619 C   0  0  0  0  0  0  0  0  0  0  0  0
    8.7936  -18.2409   25.6948 O   0  0  0  0  0  0  0  0  0  0  0  0
    9.5907  -17.1677   27.5304 O   0  0  0  0  0  0  0  0  0  0  0  0
  2  1  1  0
  3  2  2  0
  4  2  1  0
  5  4  1  0
  6  5  1  0
  6  7  1  1
  8  6  1  0
  8  9  2  0
 10  8  1  0
 11 10  1  0
 11 12  1  6
 13 12  1  0
 13 17  1  0
 14 13  2  0
 15 11  1  0
 16 15  2  0
 18 15  1  0
 19 20  1  6
 19 18  1  0
 21 20  1  0
 22 21  2  0
 23 22  1  0
 24 23  1  0
 24 29  2  0
 25 26  2  0
 25 24  1  0
 26 27  1  0
 27 28  2  0
 29 28  1  0
 29 21  1  0
 30 32  1  0
 30 19  1  0
 31 30  2  0
M  END
$$$$
