YRG.pdb
     RDKit          3D

 28 28  0  0  1  0  0  0  0  0999 V2000
   32.0389  -22.2900   -9.7804 O   0  0  0  0  0  0  0  0  0  0  0  0
   30.8777  -21.7077  -10.2742 C   0  0  0  0  0  0  0  0  0  0  0  0
   31.0063  -20.6818  -11.1897 C   0  0  0  0  0  0  0  0  0  0  0  0
   29.8810  -20.0571  -11.7219 C   0  0  0  0  0  0  0  0  0  0  0  0
   28.6313  -20.4612  -11.3361 C   0  0  0  0  0  0  0  0  0  0  0  0
   27.3756  -19.8268  -11.8744 C   0  0  0  0  0  0  0  0  0  0  0  0
   26.9482  -20.5607  -13.1284 C   0  0  2  0  0  0  0  0  0  0  0  0
   27.9669  -20.4338  -14.1340 N   0  0  0  0  0  0  0  0  0  0  0  0
   25.6719  -20.0769  -13.6582 C   0  0  0  0  0  0  0  0  0  0  0  0
   25.5656  -19.1563  -14.5137 O   0  0  0  0  0  0  0  0  0  0  0  0
   28.5346  -21.4944  -10.4147 C   0  0  0  0  0  0  0  0  0  0  0  0
   29.6179  -22.1296   -9.8722 C   0  0  0  0  0  0  0  0  0  0  0  0
   21.4628  -19.8265  -20.6882 N   0  0  0  0  0  0  0  0  0  0  0  0
   21.0338  -19.7126  -19.3332 C   0  0  0  0  0  0  0  0  0  0  0  0
   19.7891  -19.4813  -19.0995 N   0  0  0  0  0  0  0  0  0  0  0  0
   21.9298  -19.8449  -18.2304 N   0  0  0  0  0  0  0  0  0  0  0  0
   21.8683  -20.9603  -17.3245 C   0  0  0  0  0  0  0  0  0  0  0  0
   21.8380  -20.4292  -15.8953 C   0  0  0  0  0  0  0  0  0  0  0  0
   23.1560  -20.7084  -15.2583 C   0  0  0  0  0  0  0  0  0  0  0  0
   23.1607  -20.2714  -13.8193 C   0  0  2  0  0  0  0  0  0  0  0  0
   24.4596  -20.6459  -13.2132 N   0  0  0  0  0  0  0  0  0  0  0  0
   22.1072  -20.9969  -13.0696 C   0  0  0  0  0  0  0  0  0  0  0  0
   22.1221  -22.2287  -12.8664 O   0  0  0  0  0  0  0  0  0  0  0  0
   19.4235  -19.4343  -18.1348 N   0  0  0  0  0  0  0  0  0  0  0  0
   20.9706  -20.3099  -12.5142 C   0  0  0  0  0  0  0  0  0  0  0  0
   20.0061  -21.0226  -11.6714 C   0  0  0  0  0  0  0  0  0  0  0  0
   18.6793  -21.0651  -12.2885 O   0  0  0  0  0  0  0  0  0  0  0  0
   18.5119  -20.5185  -13.4014 O   0  0  0  0  0  0  0  0  0  0  0  0
  2  1  1  0
  3  2  2  0
  4  3  1  0
  5  4  2  0
  5 11  1  0
  6  5  1  0
  7  9  1  0
  7  6  1  0
  7  8  1  6
  9 10  2  0
 11 12  2  0
 12  2  1  0
 14 15  2  0
 14 13  1  0
 16 14  1  0
 17 18  1  0
 17 16  1  0
 18 19  1  0
 20 19  1  6
 21 20  1  0
 21  9  1  0
 22 24  1  0
 22 20  1  0
 23 22  2  0
 25 24  1  0
 26 25  1  0
 26 28  1  0
 27 26  2  0
M  END
$$$$
