YRG.pdb
     RDKit          3D

 28 28  0  0  1  0  0  0  0  0999 V2000
   21.8858  -16.9324  -19.5611 O   0  0  0  0  0  0  0  0  0  0  0  0
   22.2638  -17.7123  -18.4748 C   0  0  0  0  0  0  0  0  0  0  0  0
   21.8837  -19.0400  -18.4671 C   0  0  0  0  0  0  0  0  0  0  0  0
   22.2313  -19.8740  -17.4072 C   0  0  0  0  0  0  0  0  0  0  0  0
   22.9579  -19.3766  -16.3591 C   0  0  0  0  0  0  0  0  0  0  0  0
   23.3654  -20.2261  -15.1839 C   0  0  0  0  0  0  0  0  0  0  0  0
   24.7695  -20.7461  -15.4116 C   0  0  2  0  0  0  0  0  0  0  0  0
   24.7568  -21.7311  -16.4579 N   0  0  0  0  0  0  0  0  0  0  0  0
   25.3614  -21.3214  -14.2024 C   0  0  0  0  0  0  0  0  0  0  0  0
   25.1988  -22.5175  -13.8366 O   0  0  0  0  0  0  0  0  0  0  0  0
   23.3249  -18.0388  -16.3957 C   0  0  0  0  0  0  0  0  0  0  0  0
   23.0008  -17.1919  -17.4199 C   0  0  0  0  0  0  0  0  0  0  0  0
   31.7699  -21.8720   -9.2429 N   0  0  0  0  0  0  0  0  0  0  0  0
   31.9966  -22.2966  -10.5851 C   0  0  0  0  0  0  0  0  0  0  0  0
   32.7138  -23.3468  -10.7852 N   0  0  0  0  0  0  0  0  0  0  0  0
   31.4598  -21.6030  -11.7108 N   0  0  0  0  0  0  0  0  0  0  0  0
   30.3870  -20.6535  -11.5839 C   0  0  0  0  0  0  0  0  0  0  0  0
   29.0648  -21.3735  -11.8262 C   0  0  0  0  0  0  0  0  0  0  0  0
   27.9593  -20.3787  -11.7307 C   0  0  0  0  0  0  0  0  0  0  0  0
   26.6339  -21.0164  -12.0442 C   0  0  2  0  0  0  0  0  0  0  0  0
   26.1711  -20.5265  -13.3636 N   0  0  0  0  0  0  0  0  0  0  0  0
   25.6230  -20.5932  -11.0456 C   0  0  0  0  0  0  0  0  0  0  0  0
   24.7633  -19.7127  -11.2572 O   0  0  0  0  0  0  0  0  0  0  0  0
   32.9085  -23.6904  -11.7393 N   0  0  0  0  0  0  0  0  0  0  0  0
   25.5667  -21.1851   -9.7346 C   0  0  0  0  0  0  0  0  0  0  0  0
   24.3033  -21.7050   -9.2038 C   0  0  0  0  0  0  0  0  0  0  0  0
   23.3270  -20.6350   -8.9916 O   0  0  0  0  0  0  0  0  0  0  0  0
   23.5924  -19.4835   -9.4030 O   0  0  0  0  0  0  0  0  0  0  0  0
  2  1  1  0
  3  2  2  0
  4  3  1  0
  5  4  2  0
  5 11  1  0
  6  5  1  0
  7  9  1  0
  7  6  1  0
  7  8  1  6
  9 10  2  0
 11 12  2  0
 12  2  1  0
 14 15  2  0
 14 13  1  0
 16 14  1  0
 17 18  1  0
 17 16  1  0
 18 19  1  0
 20 19  1  1
 21 20  1  0
 21  9  1  0
 22 24  1  0
 22 20  1  0
 23 22  2  0
 25 24  1  0
 26 25  1  0
 26 28  1  0
 27 26  2  0
M  END
$$$$
