YRG.pdb
     RDKit          3D

 28 28  0  0  1  0  0  0  0  0999 V2000
   29.3934  -17.0474  -16.2475 O   0  0  0  0  0  0  0  0  0  0  0  0
   28.0099  -17.1758  -16.2721 C   0  0  0  0  0  0  0  0  0  0  0  0
   27.4094  -17.4852  -17.4767 C   0  0  0  0  0  0  0  0  0  0  0  0
   26.0270  -17.6275  -17.5674 C   0  0  0  0  0  0  0  0  0  0  0  0
   25.2504  -17.4598  -16.4527 C   0  0  0  0  0  0  0  0  0  0  0  0
   23.7510  -17.6002  -16.4845 C   0  0  0  0  0  0  0  0  0  0  0  0
   23.3669  -18.9449  -15.9031 C   0  0  2  0  0  0  0  0  0  0  0  0
   24.0797  -19.9889  -16.5867 N   0  0  0  0  0  0  0  0  0  0  0  0
   21.9275  -19.2020  -15.9784 C   0  0  0  0  0  0  0  0  0  0  0  0
   21.3550  -19.7289  -16.9711 O   0  0  0  0  0  0  0  0  0  0  0  0
   25.8829  -17.1495  -15.2570 C   0  0  0  0  0  0  0  0  0  0  0  0
   27.2371  -17.0024  -15.1321 C   0  0  0  0  0  0  0  0  0  0  0  0
   18.6382  -22.5232  -10.7051 N   0  0  0  0  0  0  0  0  0  0  0  0
   19.3144  -23.2646  -11.7181 C   0  0  0  0  0  0  0  0  0  0  0  0
   18.9091  -24.4579  -11.9810 N   0  0  0  0  0  0  0  0  0  0  0  0
   20.4197  -22.7348  -12.4488 N   0  0  0  0  0  0  0  0  0  0  0  0
   20.4925  -21.3493  -12.8278 C   0  0  0  0  0  0  0  0  0  0  0  0
   19.1297  -20.9140  -13.3558 C   0  0  0  0  0  0  0  0  0  0  0  0
   19.1505  -19.4379  -13.5604 C   0  0  0  0  0  0  0  0  0  0  0  0
   19.6277  -19.0939  -14.9444 C   0  0  2  0  0  0  0  0  0  0  0  0
   21.0892  -18.8556  -14.8974 N   0  0  0  0  0  0  0  0  0  0  0  0
   18.9966  -17.8301  -15.3947 C   0  0  0  0  0  0  0  0  0  0  0  0
   19.4170  -16.6954  -15.0872 O   0  0  0  0  0  0  0  0  0  0  0  0
   19.4113  -25.0599  -12.6532 N   0  0  0  0  0  0  0  0  0  0  0  0
   17.8288  -17.8306  -16.2363 C   0  0  0  0  0  0  0  0  0  0  0  0
   17.1427  -16.5770  -16.5620 C   0  0  0  0  0  0  0  0  0  0  0  0
   17.5820  -16.0415  -17.8516 O   0  0  0  0  0  0  0  0  0  0  0  0
   18.5110  -16.6169  -18.4609 O   0  0  0  0  0  0  0  0  0  0  0  0
  2  1  1  0
  3  2  2  0
  4  3  1  0
  5  4  2  0
  5 11  1  0
  6  5  1  0
  7  9  1  0
  7  6  1  0
  7  8  1  6
  9 10  2  0
 11 12  2  0
 12  2  1  0
 14 15  2  0
 14 13  1  0
 16 14  1  0
 17 18  1  0
 17 16  1  0
 18 19  1  0
 20 19  1  1
 21 20  1  0
 21  9  1  0
 22 24  1  0
 22 20  1  0
 23 22  2  0
 25 24  1  0
 26 25  1  0
 26 28  1  0
 27 26  2  0
M  END
$$$$
