YRG.pdb
     RDKit          3D

 28 28  0  0  1  0  0  0  0  0999 V2000
   19.5483  -15.3688  -18.4476 O   0  0  0  0  0  0  0  0  0  0  0  0
   19.9426  -16.1621  -17.3769 C   0  0  0  0  0  0  0  0  0  0  0  0
   19.0062  -16.4469  -16.4024 C   0  0  0  0  0  0  0  0  0  0  0  0
   19.3389  -17.2364  -15.3044 C   0  0  0  0  0  0  0  0  0  0  0  0
   20.6071  -17.7379  -15.1852 C   0  0  0  0  0  0  0  0  0  0  0  0
   21.0295  -18.5975  -14.0227 C   0  0  0  0  0  0  0  0  0  0  0  0
   21.2223  -20.0207  -14.5033 C   0  0  2  0  0  0  0  0  0  0  0  0
   19.9422  -20.6501  -14.6774 N   0  0  0  0  0  0  0  0  0  0  0  0
   22.0420  -20.8189  -13.5896 C   0  0  0  0  0  0  0  0  0  0  0  0
   21.5862  -21.4390  -12.5905 O   0  0  0  0  0  0  0  0  0  0  0  0
   21.5254  -17.4342  -16.1803 C   0  0  0  0  0  0  0  0  0  0  0  0
   21.2330  -16.6627  -17.2714 C   0  0  0  0  0  0  0  0  0  0  0  0
   27.1839  -25.5771  -15.8607 N   0  0  0  0  0  0  0  0  0  0  0  0
   25.7850  -25.7709  -16.0570 C   0  0  0  0  0  0  0  0  0  0  0  0
   25.3493  -26.9688  -16.2368 N   0  0  0  0  0  0  0  0  0  0  0  0
   24.8533  -24.6900  -16.0617 N   0  0  0  0  0  0  0  0  0  0  0  0
   25.2028  -23.3769  -15.5901 C   0  0  0  0  0  0  0  0  0  0  0  0
   25.4602  -23.4485  -14.0887 C   0  0  0  0  0  0  0  0  0  0  0  0
   25.5664  -22.0593  -13.5596 C   0  0  0  0  0  0  0  0  0  0  0  0
   24.3041  -21.6572  -12.8480 C   0  0  2  0  0  0  0  0  0  0  0  0
   23.4328  -20.9301  -13.8004 N   0  0  0  0  0  0  0  0  0  0  0  0
   24.6244  -20.7162  -11.7480 C   0  0  0  0  0  0  0  0  0  0  0  0
   24.8821  -19.5068  -11.9210 O   0  0  0  0  0  0  0  0  0  0  0  0
   24.3564  -27.1524  -16.4533 N   0  0  0  0  0  0  0  0  0  0  0  0
   24.6599  -21.1477  -10.3752 C   0  0  0  0  0  0  0  0  0  0  0  0
   25.0284  -20.2130   -9.3080 C   0  0  0  0  0  0  0  0  0  0  0  0
   26.4805  -20.1272   -9.1444 O   0  0  0  0  0  0  0  0  0  0  0  0
   27.2164  -20.7719   -9.9244 O   0  0  0  0  0  0  0  0  0  0  0  0
  2  1  1  0
  3  2  2  0
  4  3  1  0
  5  4  2  0
  5 11  1  0
  6  5  1  0
  7  9  1  0
  7  6  1  0
  7  8  1  1
  9 10  2  0
 11 12  2  0
 12  2  1  0
 14 15  2  0
 14 13  1  0
 16 14  1  0
 17 18  1  0
 17 16  1  0
 18 19  1  0
 20 19  1  6
 21 20  1  0
 21  9  1  0
 22 24  1  0
 22 20  1  0
 23 22  2  0
 25 24  1  0
 26 25  1  0
 26 28  1  0
 27 26  2  0
M  END
$$$$
