YRG.pdb
     RDKit          3D

 28 28  0  0  1  0  0  0  0  0999 V2000
   28.0410  -13.2638  -23.0458 O   0  0  0  0  0  0  0  0  0  0  0  0
   27.4583  -14.2370  -22.2429 C   0  0  0  0  0  0  0  0  0  0  0  0
   26.8835  -15.3291  -22.8627 C   0  0  0  0  0  0  0  0  0  0  0  0
   26.2835  -16.3386  -22.1140 C   0  0  0  0  0  0  0  0  0  0  0  0
   26.2607  -16.2517  -20.7481 C   0  0  0  0  0  0  0  0  0  0  0  0
   25.6279  -17.3093  -19.8821 C   0  0  0  0  0  0  0  0  0  0  0  0
   26.7147  -18.1921  -19.3045 C   0  0  2  0  0  0  0  0  0  0  0  0
   27.1566  -19.1294  -20.3001 N   0  0  0  0  0  0  0  0  0  0  0  0
   26.2784  -18.9150  -18.1084 C   0  0  0  0  0  0  0  0  0  0  0  0
   25.7703  -20.0693  -18.1267 O   0  0  0  0  0  0  0  0  0  0  0  0
   26.8463  -15.1423  -20.1546 C   0  0  0  0  0  0  0  0  0  0  0  0
   27.4439  -14.1332  -20.8588 C   0  0  0  0  0  0  0  0  0  0  0  0
   25.3524  -20.6550  -10.7153 N   0  0  0  0  0  0  0  0  0  0  0  0
   26.6713  -21.1720  -10.8775 C   0  0  0  0  0  0  0  0  0  0  0  0
   27.3305  -21.5163   -9.8267 N   0  0  0  0  0  0  0  0  0  0  0  0
   27.2854  -21.3215  -12.1569 N   0  0  0  0  0  0  0  0  0  0  0  0
   26.6756  -20.8242  -13.3608 C   0  0  0  0  0  0  0  0  0  0  0  0
   26.4524  -19.3230  -13.2124 C   0  0  0  0  0  0  0  0  0  0  0  0
   26.8745  -18.6542  -14.4756 C   0  0  0  0  0  0  0  0  0  0  0  0
   25.9516  -19.0124  -15.6077 C   0  0  2  0  0  0  0  0  0  0  0  0
   26.4151  -18.3234  -16.8346 N   0  0  0  0  0  0  0  0  0  0  0  0
   24.5853  -18.5137  -15.3201 C   0  0  0  0  0  0  0  0  0  0  0  0
   24.2685  -17.3061  -15.3369 O   0  0  0  0  0  0  0  0  0  0  0  0
   28.2683  -21.9429   -9.8967 N   0  0  0  0  0  0  0  0  0  0  0  0
   23.5093  -19.4127  -14.9945 C   0  0  0  0  0  0  0  0  0  0  0  0
   22.1771  -18.8957  -14.6688 C   0  0  0  0  0  0  0  0  0  0  0  0
   21.2234  -19.1432  -15.7515 O   0  0  0  0  0  0  0  0  0  0  0  0
   21.6449  -19.6049  -16.8354 O   0  0  0  0  0  0  0  0  0  0  0  0
  2  1  1  0
  3  2  2  0
  4  3  1  0
  5  4  2  0
  5 11  1  0
  6  5  1  0
  7  9  1  0
  7  6  1  0
  7  8  1  6
  9 10  2  0
 11 12  2  0
 12  2  1  0
 14 15  2  0
 14 13  1  0
 16 14  1  0
 17 18  1  0
 17 16  1  0
 18 19  1  0
 20 19  1  1
 21 20  1  0
 21  9  1  0
 22 24  1  0
 22 20  1  0
 23 22  2  0
 25 24  1  0
 26 25  1  0
 26 28  1  0
 27 26  2  0
M  END
$$$$
