YRG.pdb
     RDKit          3D

 28 28  0  0  1  0  0  0  0  0999 V2000
   17.5490  -27.0031   -0.8662 O   0  0  0  0  0  0  0  0  0  0  0  0
   17.5123  -27.0282   -2.2552 C   0  0  0  0  0  0  0  0  0  0  0  0
   18.7065  -26.9008   -2.9372 C   0  0  0  0  0  0  0  0  0  0  0  0
   18.7367  -26.9183   -4.3295 C   0  0  0  0  0  0  0  0  0  0  0  0
   17.5722  -27.0632   -5.0343 C   0  0  0  0  0  0  0  0  0  0  0  0
   17.5376  -27.0900   -6.5399 C   0  0  0  0  0  0  0  0  0  0  0  0
   17.9573  -25.7345   -7.0693 C   0  0  2  0  0  0  0  0  0  0  0  0
   16.9966  -24.7418   -6.6733 N   0  0  0  0  0  0  0  0  0  0  0  0
   18.1077  -25.7191   -8.5256 C   0  0  0  0  0  0  0  0  0  0  0  0
   17.5757  -24.8612   -9.2817 O   0  0  0  0  0  0  0  0  0  0  0  0
   16.3885  -27.1889   -4.3208 C   0  0  0  0  0  0  0  0  0  0  0  0
   16.3224  -27.1759   -2.9546 C   0  0  0  0  0  0  0  0  0  0  0  0
   18.6264  -20.8112  -13.3151 N   0  0  0  0  0  0  0  0  0  0  0  0
   18.8638  -21.8570  -14.2548 C   0  0  0  0  0  0  0  0  0  0  0  0
   18.7798  -21.5862  -15.5106 N   0  0  0  0  0  0  0  0  0  0  0  0
   19.1898  -23.1879  -13.8563 N   0  0  0  0  0  0  0  0  0  0  0  0
   19.2903  -23.5692  -12.4732 C   0  0  0  0  0  0  0  0  0  0  0  0
   19.6729  -25.0435  -12.3984 C   0  0  0  0  0  0  0  0  0  0  0  0
   19.8696  -25.4098  -10.9673 C   0  0  0  0  0  0  0  0  0  0  0  0
   19.1264  -26.6726  -10.6287 C   0  0  2  0  0  0  0  0  0  0  0  0
   18.8868  -26.7054   -9.1671 N   0  0  0  0  0  0  0  0  0  0  0  0
   19.9623  -27.8521  -10.9577 C   0  0  0  0  0  0  0  0  0  0  0  0
   21.0546  -28.1048  -10.4081 O   0  0  0  0  0  0  0  0  0  0  0  0
   18.8801  -22.3234  -16.2268 N   0  0  0  0  0  0  0  0  0  0  0  0
   19.5580  -28.8055  -11.9575 C   0  0  0  0  0  0  0  0  0  0  0  0
   18.3642  -29.6329  -11.7607 C   0  0  0  0  0  0  0  0  0  0  0  0
   18.5846  -30.6639  -10.7451 O   0  0  0  0  0  0  0  0  0  0  0  0
   17.7085  -31.5405  -10.5727 O   0  0  0  0  0  0  0  0  0  0  0  0
  2  1  1  0
  3  2  2  0
  4  3  1  0
  5  4  2  0
  5 11  1  0
  6  5  1  0
  7  9  1  0
  7  6  1  0
  7  8  1  6
  9 10  2  0
 11 12  2  0
 12  2  1  0
 14 15  2  0
 14 13  1  0
 16 14  1  0
 17 18  1  0
 17 16  1  0
 18 19  1  0
 20 19  1  1
 21 20  1  0
 21  9  1  0
 22 24  1  0
 22 20  1  0
 23 22  2  0
 25 24  1  0
 26 25  1  0
 26 28  1  0
 27 26  2  0
M  END
$$$$
