YRG.pdb
     RDKit          3D

 28 28  0  0  1  0  0  0  0  0999 V2000
   24.3706  -21.8914   -7.3150 O   0  0  0  0  0  0  0  0  0  0  0  0
   24.5844  -21.2654   -8.5372 C   0  0  0  0  0  0  0  0  0  0  0  0
   25.8610  -20.8234   -8.8240 C   0  0  0  0  0  0  0  0  0  0  0  0
   26.1402  -20.1885  -10.0317 C   0  0  0  0  0  0  0  0  0  0  0  0
   25.1412  -19.9982  -10.9480 C   0  0  0  0  0  0  0  0  0  0  0  0
   25.3781  -19.3192  -12.2716 C   0  0  0  0  0  0  0  0  0  0  0  0
   25.4004  -20.3643  -13.3675 C   0  0  2  0  0  0  0  0  0  0  0  0
   26.5237  -21.2403  -13.1778 N   0  0  0  0  0  0  0  0  0  0  0  0
   25.4567  -19.7762  -14.7072 C   0  0  0  0  0  0  0  0  0  0  0  0
   24.4980  -19.1621  -15.2500 O   0  0  0  0  0  0  0  0  0  0  0  0
   23.8691  -20.4533  -10.6311 C   0  0  0  0  0  0  0  0  0  0  0  0
   23.5599  -21.0804   -9.4553 C   0  0  0  0  0  0  0  0  0  0  0  0
   23.2919  -15.2792  -15.0390 N   0  0  0  0  0  0  0  0  0  0  0  0
   23.9267  -14.4308  -15.9930 C   0  0  0  0  0  0  0  0  0  0  0  0
   23.1896  -13.7812  -16.8250 N   0  0  0  0  0  0  0  0  0  0  0  0
   25.3437  -14.2755  -16.0596 N   0  0  0  0  0  0  0  0  0  0  0  0
   26.2465  -15.2447  -15.4991 C   0  0  0  0  0  0  0  0  0  0  0  0
   26.1288  -16.5406  -16.2944 C   0  0  0  0  0  0  0  0  0  0  0  0
   27.1183  -17.5172  -15.7577 C   0  0  0  0  0  0  0  0  0  0  0  0
   27.0064  -18.8395  -16.4652 C   0  0  2  0  0  0  0  0  0  0  0  0
   26.6357  -19.8780  -15.4757 N   0  0  0  0  0  0  0  0  0  0  0  0
   28.3246  -19.2242  -17.0244 C   0  0  0  0  0  0  0  0  0  0  0  0
   29.4172  -18.8740  -16.5322 O   0  0  0  0  0  0  0  0  0  0  0  0
   23.6017  -13.1321  -17.5144 N   0  0  0  0  0  0  0  0  0  0  0  0
   28.4316  -20.0468  -18.2009 C   0  0  0  0  0  0  0  0  0  0  0  0
   29.7412  -20.3398  -18.7903 C   0  0  0  0  0  0  0  0  0  0  0  0
   29.6130  -21.0735  -20.0505 O   0  0  0  0  0  0  0  0  0  0  0  0
   28.4701  -21.3708  -20.4640 O   0  0  0  0  0  0  0  0  0  0  0  0
  2  1  1  0
  3  2  2  0
  4  3  1  0
  5  4  2  0
  5 11  1  0
  6  5  1  0
  7  9  1  0
  7  6  1  0
  7  8  1  1
  9 10  2  0
 11 12  2  0
 12  2  1  0
 14 15  2  0
 14 13  1  0
 16 14  1  0
 17 18  1  0
 17 16  1  0
 18 19  1  0
 20 19  1  1
 21 20  1  0
 21  9  1  0
 22 24  1  0
 22 20  1  0
 23 22  2  0
 25 24  1  0
 26 25  1  0
 26 28  1  0
 27 26  2  0
M  END
$$$$
