YRG.pdb
     RDKit          3D

 28 28  0  0  1  0  0  0  0  0999 V2000
   19.3559  -27.2863   -0.6369 O   0  0  0  0  0  0  0  0  0  0  0  0
   18.5046  -27.1701   -1.7291 C   0  0  0  0  0  0  0  0  0  0  0  0
   19.0718  -27.0416   -2.9817 C   0  0  0  0  0  0  0  0  0  0  0  0
   18.2730  -26.9212   -4.1162 C   0  0  0  0  0  0  0  0  0  0  0  0
   16.9097  -26.9299   -3.9933 C   0  0  0  0  0  0  0  0  0  0  0  0
   15.9911  -26.8038   -5.1804 C   0  0  0  0  0  0  0  0  0  0  0  0
   16.0872  -25.3974   -5.7340 C   0  0  2  0  0  0  0  0  0  0  0  0
   15.5312  -24.4670   -4.7904 N   0  0  0  0  0  0  0  0  0  0  0  0
   15.4112  -25.2513   -7.0245 C   0  0  0  0  0  0  0  0  0  0  0  0
   14.3185  -24.6422   -7.1847 O   0  0  0  0  0  0  0  0  0  0  0  0
   16.3696  -27.0605   -2.7217 C   0  0  0  0  0  0  0  0  0  0  0  0
   17.1238  -27.1808   -1.5868 C   0  0  0  0  0  0  0  0  0  0  0  0
   18.5579  -26.3390  -13.4358 N   0  0  0  0  0  0  0  0  0  0  0  0
   19.6262  -25.6625  -12.7769 C   0  0  0  0  0  0  0  0  0  0  0  0
   20.8286  -26.0820  -12.9648 N   0  0  0  0  0  0  0  0  0  0  0  0
   19.4126  -24.5417  -11.9199 N   0  0  0  0  0  0  0  0  0  0  0  0
   18.0938  -24.0825  -11.5754 C   0  0  0  0  0  0  0  0  0  0  0  0
   17.4366  -25.1173  -10.6683 C   0  0  0  0  0  0  0  0  0  0  0  0
   16.0734  -24.6342  -10.3087 C   0  0  0  0  0  0  0  0  0  0  0  0
   15.3290  -25.6700   -9.5121 C   0  0  2  0  0  0  0  0  0  0  0  0
   15.9802  -25.8101   -8.1887 N   0  0  0  0  0  0  0  0  0  0  0  0
   15.4261  -26.9878  -10.1847 C   0  0  0  0  0  0  0  0  0  0  0  0
   16.3969  -27.7626  -10.0583 O   0  0  0  0  0  0  0  0  0  0  0  0
   21.6354  -25.6184  -12.5169 N   0  0  0  0  0  0  0  0  0  0  0  0
   14.3807  -27.4702  -11.0487 C   0  0  0  0  0  0  0  0  0  0  0  0
   14.4965  -28.7765  -11.7033 C   0  0  0  0  0  0  0  0  0  0  0  0
   15.0813  -28.6593  -13.0402 O   0  0  0  0  0  0  0  0  0  0  0  0
   15.4753  -27.5383  -13.4322 O   0  0  0  0  0  0  0  0  0  0  0  0
  2  1  1  0
  3  2  2  0
  4  3  1  0
  5  4  2  0
  5 11  1  0
  6  5  1  0
  7  9  1  0
  7  6  1  0
  7  8  1  1
  9 10  2  0
 11 12  2  0
 12  2  1  0
 14 15  2  0
 14 13  1  0
 16 14  1  0
 17 18  1  0
 17 16  1  0
 18 19  1  0
 20 19  1  6
 21 20  1  0
 21  9  1  0
 22 24  1  0
 22 20  1  0
 23 22  2  0
 25 24  1  0
 26 25  1  0
 26 28  1  0
 27 26  2  0
M  END
$$$$
