YRG.pdb
     RDKit          3D

 28 28  0  0  1  0  0  0  0  0999 V2000
   19.2714  -25.1846  -12.7873 O   0  0  0  0  0  0  0  0  0  0  0  0
   20.1417  -24.1782  -13.1888 C   0  0  0  0  0  0  0  0  0  0  0  0
   21.1233  -24.4984  -14.1059 C   0  0  0  0  0  0  0  0  0  0  0  0
   22.0262  -23.5347  -14.5482 C   0  0  0  0  0  0  0  0  0  0  0  0
   21.9437  -22.2542  -14.0713 C   0  0  0  0  0  0  0  0  0  0  0  0
   22.8893  -21.1667  -14.5097 C   0  0  0  0  0  0  0  0  0  0  0  0
   24.3136  -21.6213  -14.2674 C   0  0  2  0  0  0  0  0  0  0  0  0
   24.5582  -21.7131  -12.8542 N   0  0  0  0  0  0  0  0  0  0  0  0
   25.3020  -20.7319  -14.8803 C   0  0  0  0  0  0  0  0  0  0  0  0
   25.9023  -19.8106  -14.2627 O   0  0  0  0  0  0  0  0  0  0  0  0
   20.9468  -21.9633  -13.1508 C   0  0  0  0  0  0  0  0  0  0  0  0
   20.0441  -22.8845  -12.6951 C   0  0  0  0  0  0  0  0  0  0  0  0
   28.1905  -25.0471  -16.5744 N   0  0  0  0  0  0  0  0  0  0  0  0
   29.5452  -24.6421  -16.3901 C   0  0  0  0  0  0  0  0  0  0  0  0
   30.3191  -25.3879  -15.6816 N   0  0  0  0  0  0  0  0  0  0  0  0
   30.0729  -23.4450  -16.9600 N   0  0  0  0  0  0  0  0  0  0  0  0
   29.2768  -22.5735  -17.7817 C   0  0  0  0  0  0  0  0  0  0  0  0
   28.3449  -21.7687  -16.8821 C   0  0  0  0  0  0  0  0  0  0  0  0
   27.5494  -20.8400  -17.7340 C   0  0  0  0  0  0  0  0  0  0  0  0
   26.6313  -19.9945  -16.8951 C   0  0  2  0  0  0  0  0  0  0  0  0
   25.6354  -20.8771  -16.2438 N   0  0  0  0  0  0  0  0  0  0  0  0
   25.8782  -19.0568  -17.7621 C   0  0  0  0  0  0  0  0  0  0  0  0
   24.7625  -19.3144  -18.2600 O   0  0  0  0  0  0  0  0  0  0  0  0
   31.2995  -25.1214  -15.4960 N   0  0  0  0  0  0  0  0  0  0  0  0
   26.3986  -17.7564  -18.0942 C   0  0  0  0  0  0  0  0  0  0  0  0
   25.6594  -16.8631  -18.9908 C   0  0  0  0  0  0  0  0  0  0  0  0
   25.6560  -15.4853  -18.4963 O   0  0  0  0  0  0  0  0  0  0  0  0
   26.1814  -15.2390  -17.3878 O   0  0  0  0  0  0  0  0  0  0  0  0
  2  1  1  0
  3  2  2  0
  4  3  1  0
  5  4  2  0
  5 11  1  0
  6  5  1  0
  7  9  1  0
  7  6  1  0
  7  8  1  1
  9 10  2  0
 11 12  2  0
 12  2  1  0
 14 15  2  0
 14 13  1  0
 16 14  1  0
 17 18  1  0
 17 16  1  0
 18 19  1  0
 20 19  1  6
 21 20  1  0
 21  9  1  0
 22 24  1  0
 22 20  1  0
 23 22  2  0
 25 24  1  0
 26 25  1  0
 26 28  1  0
 27 26  2  0
M  END
$$$$
