YRG.pdb
     RDKit          3D

 28 28  0  0  1  0  0  0  0  0999 V2000
   31.4771  -21.8291   -7.7270 O   0  0  0  0  0  0  0  0  0  0  0  0
   30.4188  -21.3779   -8.5065 C   0  0  0  0  0  0  0  0  0  0  0  0
   29.3532  -20.7763   -7.8662 C   0  0  0  0  0  0  0  0  0  0  0  0
   28.2621  -20.3029   -8.5909 C   0  0  0  0  0  0  0  0  0  0  0  0
   28.2412  -20.4331   -9.9534 C   0  0  0  0  0  0  0  0  0  0  0  0
   27.0917  -19.9422  -10.7940 C   0  0  0  0  0  0  0  0  0  0  0  0
   25.9854  -20.9763  -10.7729 C   0  0  2  0  0  0  0  0  0  0  0  0
   26.4858  -22.2300  -11.2659 N   0  0  0  0  0  0  0  0  0  0  0  0
   24.8182  -20.5703  -11.5580 C   0  0  0  0  0  0  0  0  0  0  0  0
   24.1878  -19.4924  -11.3807 O   0  0  0  0  0  0  0  0  0  0  0  0
   29.3264  -21.0419  -10.5679 C   0  0  0  0  0  0  0  0  0  0  0  0
   30.4135  -21.5179   -9.8875 C   0  0  0  0  0  0  0  0  0  0  0  0
   21.5497  -16.9309  -16.9614 N   0  0  0  0  0  0  0  0  0  0  0  0
   22.9710  -17.0425  -16.9857 C   0  0  0  0  0  0  0  0  0  0  0  0
   23.6654  -15.9952  -17.2654 N   0  0  0  0  0  0  0  0  0  0  0  0
   23.6498  -18.2677  -16.7125 N   0  0  0  0  0  0  0  0  0  0  0  0
   23.1655  -19.2099  -15.7398 C   0  0  0  0  0  0  0  0  0  0  0  0
   24.1170  -20.4008  -15.6959 C   0  0  0  0  0  0  0  0  0  0  0  0
   23.4979  -21.4713  -14.8641 C   0  0  0  0  0  0  0  0  0  0  0  0
   23.2226  -20.9775  -13.4706 C   0  0  2  0  0  0  0  0  0  0  0  0
   24.3325  -21.4047  -12.5871 N   0  0  0  0  0  0  0  0  0  0  0  0
   21.9859  -21.6072  -12.9487 C   0  0  0  0  0  0  0  0  0  0  0  0
   21.1677  -22.2262  -13.6602 O   0  0  0  0  0  0  0  0  0  0  0  0
   24.6956  -16.0343  -17.3263 N   0  0  0  0  0  0  0  0  0  0  0  0
   21.6406  -21.5433  -11.5527 C   0  0  0  0  0  0  0  0  0  0  0  0
   20.7835  -22.5670  -10.9480 C   0  0  0  0  0  0  0  0  0  0  0  0
   19.3809  -22.3884  -11.3274 O   0  0  0  0  0  0  0  0  0  0  0  0
   19.0759  -21.4447  -12.0902 O   0  0  0  0  0  0  0  0  0  0  0  0
  2  1  1  0
  3  2  2  0
  4  3  1  0
  5  4  2  0
  5 11  1  0
  6  5  1  0
  7  9  1  0
  7  6  1  0
  7  8  1  6
  9 10  2  0
 11 12  2  0
 12  2  1  0
 14 15  2  0
 14 13  1  0
 16 14  1  0
 17 18  1  0
 17 16  1  0
 18 19  1  0
 20 19  1  6
 21 20  1  0
 21  9  1  0
 22 24  1  0
 22 20  1  0
 23 22  2  0
 25 24  1  0
 26 25  1  0
 26 28  1  0
 27 26  2  0
M  END
$$$$
