YRG.pdb
     RDKit          3D

 28 28  0  0  1  0  0  0  0  0999 V2000
   28.9104  -18.6085   -3.2785 O   0  0  0  0  0  0  0  0  0  0  0  0
   28.5036  -19.1046   -4.5112 C   0  0  0  0  0  0  0  0  0  0  0  0
   28.2067  -18.1968   -5.5088 C   0  0  0  0  0  0  0  0  0  0  0  0
   27.7936  -18.6303   -6.7661 C   0  0  0  0  0  0  0  0  0  0  0  0
   27.6790  -19.9704   -7.0209 C   0  0  0  0  0  0  0  0  0  0  0  0
   27.2378  -20.5032   -8.3589 C   0  0  0  0  0  0  0  0  0  0  0  0
   25.7254  -20.5776   -8.3882 C   0  0  2  0  0  0  0  0  0  0  0  0
   25.2537  -21.2907   -7.2331 N   0  0  0  0  0  0  0  0  0  0  0  0
   25.2151  -21.2170   -9.6025 C   0  0  0  0  0  0  0  0  0  0  0  0
   24.6597  -22.3492   -9.6248 O   0  0  0  0  0  0  0  0  0  0  0  0
   27.9844  -20.8578   -5.9985 C   0  0  0  0  0  0  0  0  0  0  0  0
   28.3927  -20.4670   -4.7529 C   0  0  0  0  0  0  0  0  0  0  0  0
   19.4395  -22.4057   -9.9625 N   0  0  0  0  0  0  0  0  0  0  0  0
   19.3483  -22.6739  -11.3600 C   0  0  0  0  0  0  0  0  0  0  0  0
   18.8917  -23.8165  -11.7384 N   0  0  0  0  0  0  0  0  0  0  0  0
   19.7431  -21.7261  -12.3510 N   0  0  0  0  0  0  0  0  0  0  0  0
   20.6089  -20.6184  -12.0481 C   0  0  0  0  0  0  0  0  0  0  0  0
   22.0087  -20.9360  -12.5630 C   0  0  0  0  0  0  0  0  0  0  0  0
   22.9966  -20.5595  -11.5127 C   0  0  0  0  0  0  0  0  0  0  0  0
   24.4001  -20.8564  -11.9638 C   0  0  2  0  0  0  0  0  0  0  0  0
   25.3298  -20.5637  -10.8480 N   0  0  0  0  0  0  0  0  0  0  0  0
   24.7697  -19.9574  -13.0833 C   0  0  0  0  0  0  0  0  0  0  0  0
   24.8117  -18.7130  -12.9905 O   0  0  0  0  0  0  0  0  0  0  0  0
   18.7403  -24.0303  -12.7373 N   0  0  0  0  0  0  0  0  0  0  0  0
   25.1122  -20.4749  -14.3822 C   0  0  0  0  0  0  0  0  0  0  0  0
   26.2582  -19.9378  -15.1215 C   0  0  0  0  0  0  0  0  0  0  0  0
   27.3134  -20.9397  -15.2822 O   0  0  0  0  0  0  0  0  0  0  0  0
   27.1504  -22.0755  -14.7833 O   0  0  0  0  0  0  0  0  0  0  0  0
  2  1  1  0
  3  2  2  0
  4  3  1  0
  5  4  2  0
  5 11  1  0
  6  5  1  0
  7  9  1  0
  7  6  1  0
  7  8  1  1
  9 10  2  0
 11 12  2  0
 12  2  1  0
 14 15  2  0
 14 13  1  0
 16 14  1  0
 17 18  1  0
 17 16  1  0
 18 19  1  0
 20 19  1  1
 21 20  1  0
 21  9  1  0
 22 24  1  0
 22 20  1  0
 23 22  2  0
 25 24  1  0
 26 25  1  0
 26 28  1  0
 27 26  2  0
M  END
$$$$
