YRG.pdb
     RDKit          3D

 28 28  0  0  1  0  0  0  0  0999 V2000
   28.7096  -19.7362   -3.5767 O   0  0  0  0  0  0  0  0  0  0  0  0
   28.3994  -19.7566   -4.9312 C   0  0  0  0  0  0  0  0  0  0  0  0
   29.0380  -20.6864   -5.7280 C   0  0  0  0  0  0  0  0  0  0  0  0
   28.7708  -20.7578   -7.0930 C   0  0  0  0  0  0  0  0  0  0  0  0
   27.8656  -19.8988   -7.6557 C   0  0  0  0  0  0  0  0  0  0  0  0
   27.5326  -19.9250   -9.1245 C   0  0  0  0  0  0  0  0  0  0  0  0
   26.0755  -20.3010   -9.2954 C   0  0  2  0  0  0  0  0  0  0  0  0
   25.8765  -21.6642   -8.8862 N   0  0  0  0  0  0  0  0  0  0  0  0
   25.6054  -20.1274  -10.6711 C   0  0  0  0  0  0  0  0  0  0  0  0
   25.6563  -19.0369  -11.3027 O   0  0  0  0  0  0  0  0  0  0  0  0
   27.2404  -18.9758   -6.8292 C   0  0  0  0  0  0  0  0  0  0  0  0
   27.4788  -18.8781   -5.4858 C   0  0  0  0  0  0  0  0  0  0  0  0
   27.5475  -23.7463  -15.6531 N   0  0  0  0  0  0  0  0  0  0  0  0
   28.2552  -22.6327  -16.1936 C   0  0  0  0  0  0  0  0  0  0  0  0
   28.8293  -22.7656  -17.3383 N   0  0  0  0  0  0  0  0  0  0  0  0
   28.3505  -21.3808  -15.5153 N   0  0  0  0  0  0  0  0  0  0  0  0
   27.7105  -21.1466  -14.2488 C   0  0  0  0  0  0  0  0  0  0  0  0
   26.2375  -20.8376  -14.4943 C   0  0  0  0  0  0  0  0  0  0  0  0
   25.4143  -21.7950  -13.7027 C   0  0  0  0  0  0  0  0  0  0  0  0
   24.5139  -21.0650  -12.7446 C   0  0  2  0  0  0  0  0  0  0  0  0
   25.0536  -21.2198  -11.3736 N   0  0  0  0  0  0  0  0  0  0  0  0
   23.1656  -21.6817  -12.7520 C   0  0  0  0  0  0  0  0  0  0  0  0
   22.8774  -22.7298  -12.1378 O   0  0  0  0  0  0  0  0  0  0  0  0
   29.3033  -21.9710  -17.7969 N   0  0  0  0  0  0  0  0  0  0  0  0
   22.0748  -21.0967  -13.4869 C   0  0  0  0  0  0  0  0  0  0  0  0
   21.4255  -19.8719  -13.0107 C   0  0  0  0  0  0  0  0  0  0  0  0
   20.2014  -20.1663  -12.2639 O   0  0  0  0  0  0  0  0  0  0  0  0
   20.0592  -21.3021  -11.7586 O   0  0  0  0  0  0  0  0  0  0  0  0
  2  1  1  0
  3  2  2  0
  4  3  1  0
  5  4  2  0
  5 11  1  0
  6  5  1  0
  7  9  1  0
  7  6  1  0
  7  8  1  6
  9 10  2  0
 11 12  2  0
 12  2  1  0
 14 15  2  0
 14 13  1  0
 16 14  1  0
 17 18  1  0
 17 16  1  0
 18 19  1  0
 20 19  1  6
 21 20  1  0
 21  9  1  0
 22 24  1  0
 22 20  1  0
 23 22  2  0
 25 24  1  0
 26 25  1  0
 26 28  1  0
 27 26  2  0
M  END
$$$$
