YRG.pdb
     RDKit          3D

 28 28  0  0  1  0  0  0  0  0999 V2000
   21.7460   -2.1902  -15.6882 O   0  0  0  0  0  0  0  0  0  0  0  0
   21.9682   -3.5489  -15.8779 C   0  0  0  0  0  0  0  0  0  0  0  0
   23.1411   -4.0881  -15.3872 C   0  0  0  0  0  0  0  0  0  0  0  0
   23.4227   -5.4428  -15.5450 C   0  0  0  0  0  0  0  0  0  0  0  0
   22.5299   -6.2532  -16.1931 C   0  0  0  0  0  0  0  0  0  0  0  0
   22.7752   -7.7254  -16.3960 C   0  0  0  0  0  0  0  0  0  0  0  0
   21.8051   -8.5120  -15.5393 C   0  0  2  0  0  0  0  0  0  0  0  0
   22.1973   -8.4244  -14.1595 N   0  0  0  0  0  0  0  0  0  0  0  0
   21.7142   -9.9185  -15.9359 C   0  0  0  0  0  0  0  0  0  0  0  0
   22.4888  -10.8218  -15.5179 O   0  0  0  0  0  0  0  0  0  0  0  0
   21.3603   -5.6822  -16.6748 C   0  0  0  0  0  0  0  0  0  0  0  0
   21.0520   -4.3566  -16.5375 C   0  0  0  0  0  0  0  0  0  0  0  0
   17.4076  -16.4545  -14.5631 N   0  0  0  0  0  0  0  0  0  0  0  0
   18.1619  -16.7404  -15.7388 C   0  0  0  0  0  0  0  0  0  0  0  0
   18.5398  -17.9532  -15.9474 N   0  0  0  0  0  0  0  0  0  0  0  0
   18.5121  -15.7355  -16.6896 N   0  0  0  0  0  0  0  0  0  0  0  0
   18.6681  -14.3543  -16.3203 C   0  0  0  0  0  0  0  0  0  0  0  0
   18.8811  -13.5302  -17.5857 C   0  0  0  0  0  0  0  0  0  0  0  0
   19.0961  -12.1084  -17.1944 C   0  0  0  0  0  0  0  0  0  0  0  0
   20.5587  -11.7595  -17.2186 C   0  0  2  0  0  0  0  0  0  0  0  0
   20.7139  -10.3358  -16.8395 N   0  0  0  0  0  0  0  0  0  0  0  0
   21.0872  -11.9014  -18.5966 C   0  0  0  0  0  0  0  0  0  0  0  0
   20.8952  -11.0655  -19.5040 O   0  0  0  0  0  0  0  0  0  0  0  0
   19.1662  -18.1932  -16.7325 N   0  0  0  0  0  0  0  0  0  0  0  0
   21.8752  -13.0412  -18.9865 C   0  0  0  0  0  0  0  0  0  0  0  0
   22.3506  -13.1836  -20.3656 C   0  0  0  0  0  0  0  0  0  0  0  0
   23.1074  -14.4231  -20.5495 O   0  0  0  0  0  0  0  0  0  0  0  0
   23.5597  -14.6933  -21.6844 O   0  0  0  0  0  0  0  0  0  0  0  0
  2  1  1  0
  3  2  2  0
  4  3  1  0
  5  4  2  0
  5 11  1  0
  6  5  1  0
  7  9  1  0
  7  6  1  0
  7  8  1  1
  9 10  2  0
 11 12  2  0
 12  2  1  0
 14 15  2  0
 14 13  1  0
 16 14  1  0
 17 18  1  0
 17 16  1  0
 18 19  1  0
 20 19  1  6
 21 20  1  0
 21  9  1  0
 22 24  1  0
 22 20  1  0
 23 22  2  0
 25 24  1  0
 26 25  1  0
 26 28  1  0
 27 26  2  0
M  END
$$$$
