YRG.pdb
     RDKit          3D

 28 28  0  0  1  0  0  0  0  0999 V2000
   24.1908   -1.8762  -17.7298 O   0  0  0  0  0  0  0  0  0  0  0  0
   24.0509   -3.1776  -17.2629 C   0  0  0  0  0  0  0  0  0  0  0  0
   23.9966   -3.3733  -15.8968 C   0  0  0  0  0  0  0  0  0  0  0  0
   23.8571   -4.6532  -15.3658 C   0  0  0  0  0  0  0  0  0  0  0  0
   23.7725   -5.7326  -16.2034 C   0  0  0  0  0  0  0  0  0  0  0  0
   23.6207   -7.1414  -15.6923 C   0  0  0  0  0  0  0  0  0  0  0  0
   22.1509   -7.5062  -15.6746 C   0  0  2  0  0  0  0  0  0  0  0  0
   21.4717   -6.7295  -14.6742 N   0  0  0  0  0  0  0  0  0  0  0  0
   21.9261   -8.9315  -15.4263 C   0  0  0  0  0  0  0  0  0  0  0  0
   21.7137   -9.4249  -14.2851 O   0  0  0  0  0  0  0  0  0  0  0  0
   23.8301   -5.5039  -17.5710 C   0  0  0  0  0  0  0  0  0  0  0  0
   23.9665   -4.2612  -18.1263 C   0  0  0  0  0  0  0  0  0  0  0  0
   17.0970  -13.7486  -14.0995 N   0  0  0  0  0  0  0  0  0  0  0  0
   17.2629  -13.9176  -15.5055 C   0  0  0  0  0  0  0  0  0  0  0  0
   16.6198  -14.8668  -16.0910 N   0  0  0  0  0  0  0  0  0  0  0  0
   18.1124  -13.0767  -16.2850 N   0  0  0  0  0  0  0  0  0  0  0  0
   18.6588  -11.8510  -15.7675 C   0  0  0  0  0  0  0  0  0  0  0  0
   19.3212  -11.0893  -16.9105 C   0  0  0  0  0  0  0  0  0  0  0  0
   20.6194  -11.7481  -17.2292 C   0  0  0  0  0  0  0  0  0  0  0  0
   21.6986  -11.2937  -16.2856 C   0  0  2  0  0  0  0  0  0  0  0  0
   21.9389   -9.8475  -16.4996 N   0  0  0  0  0  0  0  0  0  0  0  0
   22.9674  -11.9947  -16.5969 C   0  0  0  0  0  0  0  0  0  0  0  0
   23.4918  -12.0121  -17.7299 O   0  0  0  0  0  0  0  0  0  0  0  0
   16.6848  -15.0097  -17.1117 N   0  0  0  0  0  0  0  0  0  0  0  0
   23.6941  -12.7191  -15.5873 C   0  0  0  0  0  0  0  0  0  0  0  0
   24.8102  -13.5952  -15.9548 C   0  0  0  0  0  0  0  0  0  0  0  0
   26.0320  -12.8317  -16.2138 O   0  0  0  0  0  0  0  0  0  0  0  0
   25.9770  -11.5817  -16.2083 O   0  0  0  0  0  0  0  0  0  0  0  0
  2  1  1  0
  3  2  2  0
  4  3  1  0
  5  4  2  0
  5 11  1  0
  6  5  1  0
  7  9  1  0
  7  6  1  0
  7  8  1  1
  9 10  2  0
 11 12  2  0
 12  2  1  0
 14 15  2  0
 14 13  1  0
 16 14  1  0
 17 18  1  0
 17 16  1  0
 18 19  1  0
 20 19  1  6
 21 20  1  0
 21  9  1  0
 22 24  1  0
 22 20  1  0
 23 22  2  0
 25 24  1  0
 26 25  1  0
 26 28  1  0
 27 26  2  0
M  END
$$$$
