WHS.pdb
     RDKit          3D

 31 33  0  0  1  0  0  0  0  0999 V2000
   27.6012  -21.2938  -11.8974 N   0  0  0  0  0  0  0  0  0  0  0  0
   26.3675  -21.2959  -11.1781 C   0  0  1  0  0  0  0  0  0  0  0  0
   26.4862  -20.4082   -9.9622 C   0  0  0  0  0  0  0  0  0  0  0  0
   27.6938  -20.6635   -9.1511 C   0  0  0  0  0  0  0  0  0  0  0  0
   28.8614  -21.3001   -9.5490 C   0  0  0  0  0  0  0  0  0  0  0  0
   29.7032  -21.3669   -8.5209 N   0  0  0  0  0  0  0  0  0  0  0  0
   29.1151  -20.7878   -7.4570 C   0  0  0  0  0  0  0  0  0  0  0  0
   29.5221  -20.5702   -6.1519 C   0  0  0  0  0  0  0  0  0  0  0  0
   28.7126  -19.9288   -5.2408 C   0  0  0  0  0  0  0  0  0  0  0  0
   27.4677  -19.4813   -5.5994 C   0  0  0  0  0  0  0  0  0  0  0  0
   27.0453  -19.6894   -6.8954 C   0  0  0  0  0  0  0  0  0  0  0  0
   27.8405  -20.3273   -7.8115 C   0  0  0  0  0  0  0  0  0  0  0  0
   25.2439  -20.7396  -12.0091 C   0  0  0  0  0  0  0  0  0  0  0  0
   25.2925  -19.5194  -12.3089 O   0  0  0  0  0  0  0  0  0  0  0  0
   24.1565  -21.4985  -12.4650 N   0  0  0  0  0  0  0  0  0  0  0  0
   23.0816  -20.9579  -13.2811 C   0  0  1  0  0  0  0  0  0  0  0  0
   23.2123  -21.4787  -14.7218 C   0  0  0  0  0  0  0  0  0  0  0  0
   22.1876  -20.9627  -15.6175 C   0  0  0  0  0  0  0  0  0  0  0  0
   21.1637  -21.6767  -16.1842 C   0  0  0  0  0  0  0  0  0  0  0  0
   20.4371  -20.8318  -16.9460 N   0  0  0  0  0  0  0  0  0  0  0  0
   20.9793  -19.6095  -16.8708 C   0  0  0  0  0  0  0  0  0  0  0  0
   22.0629  -19.7024  -16.0451 N   0  0  0  0  0  0  0  0  0  0  0  0
   21.7550  -21.2760  -12.7102 C   0  0  0  0  0  0  0  0  0  0  0  0
   21.5774  -22.3446  -12.0758 O   0  0  0  0  0  0  0  0  0  0  0  0
   19.0651  -18.4681  -11.4568 O   0  0  0  0  0  0  0  0  0  0  0  0
   18.5919  -19.3064  -12.4694 C   0  0  0  0  0  0  0  0  0  0  0  0
   19.3498  -20.6361  -12.3113 C   0  0  2  0  0  0  0  0  0  0  0  0
   20.6534  -20.4067  -12.8510 N   0  0  0  0  0  0  0  0  0  0  0  0
   18.6088  -21.7352  -12.9266 C   0  0  0  0  0  0  0  0  0  0  0  0
   18.6267  -21.8843  -14.1678 O   0  0  0  0  0  0  0  0  0  0  0  0
   17.8761  -22.6323  -12.1770 O   0  0  0  0  0  0  0  0  0  0  0  0
  2  1  1  6
  3  2  1  0
  4  3  1  0
  4  5  2  0
  6  5  1  0
  7  6  1  0
  8  7  2  0
  9  8  1  0
 10  9  2  0
 10 11  1  0
 11 12  2  0
 12  7  1  0
 12  4  1  0
 13 14  2  0
 13  2  1  0
 15 13  1  0
 16 15  1  0
 16 17  1  6
 18 17  1  0
 18 22  1  0
 19 18  2  0
 20 19  1  0
 20 21  1  0
 21 22  2  0
 23 16  1  0
 24 23  2  0
 25 26  1  0
 27 26  1  6
 27 28  1  0
 28 23  1  0
 29 27  1  0
 29 31  1  0
 30 29  2  0
M  END
$$$$
