WHS.pdb
     RDKit          3D

 31 33  0  0  1  0  0  0  0  0999 V2000
   14.4218  -17.5146    5.0316 N   0  0  0  0  0  0  0  0  0  0  0  0
   15.6586  -18.1418    4.6906 C   0  0  1  0  0  0  0  0  0  0  0  0
   16.8027  -17.3910    5.3293 C   0  0  0  0  0  0  0  0  0  0  0  0
   17.1679  -16.1454    4.6247 C   0  0  0  0  0  0  0  0  0  0  0  0
   16.9336  -14.8406    5.0363 C   0  0  0  0  0  0  0  0  0  0  0  0
   17.3803  -13.9960    4.1104 N   0  0  0  0  0  0  0  0  0  0  0  0
   17.9034  -14.7167    3.1005 C   0  0  0  0  0  0  0  0  0  0  0  0
   18.5059  -14.3708    1.9030 C   0  0  0  0  0  0  0  0  0  0  0  0
   18.9753  -15.3259    1.0288 C   0  0  0  0  0  0  0  0  0  0  0  0
   18.8607  -16.6607    1.3183 C   0  0  0  0  0  0  0  0  0  0  0  0
   18.2631  -17.0241    2.5066 C   0  0  0  0  0  0  0  0  0  0  0  0
   17.7906  -16.0838    3.3847 C   0  0  0  0  0  0  0  0  0  0  0  0
   15.7242  -19.5512    5.2119 C   0  0  0  0  0  0  0  0  0  0  0  0
   15.0108  -19.8357    6.2076 O   0  0  0  0  0  0  0  0  0  0  0  0
   16.5274  -20.5562    4.6543 N   0  0  0  0  0  0  0  0  0  0  0  0
   16.5993  -21.9120    5.1742 C   0  0  1  0  0  0  0  0  0  0  0  0
   16.6379  -22.9131    4.0080 C   0  0  0  0  0  0  0  0  0  0  0  0
   15.4062  -22.9446    3.2330 C   0  0  0  0  0  0  0  0  0  0  0  0
   14.1540  -23.2468    3.7019 C   0  0  0  0  0  0  0  0  0  0  0  0
   13.2897  -23.1627    2.6686 N   0  0  0  0  0  0  0  0  0  0  0  0
   13.9677  -22.8163    1.5668 C   0  0  0  0  0  0  0  0  0  0  0  0
   15.2779  -22.6838    1.9283 N   0  0  0  0  0  0  0  0  0  0  0  0
   17.7597  -22.0866    6.0744 C   0  0  0  0  0  0  0  0  0  0  0  0
   18.8727  -21.5874    5.7781 O   0  0  0  0  0  0  0  0  0  0  0  0
   17.2064  -24.0322    9.6699 O   0  0  0  0  0  0  0  0  0  0  0  0
   18.0579  -22.9260    9.6148 C   0  0  0  0  0  0  0  0  0  0  0  0
   18.7249  -22.9697    8.2289 C   0  0  2  0  0  0  0  0  0  0  0  0
   17.6657  -22.8075    7.2828 N   0  0  0  0  0  0  0  0  0  0  0  0
   19.5173  -24.1872    8.0695 C   0  0  0  0  0  0  0  0  0  0  0  0
   20.4940  -24.4009    8.8202 O   0  0  0  0  0  0  0  0  0  0  0  0
   19.2242  -25.1285    7.1043 O   0  0  0  0  0  0  0  0  0  0  0  0
  2  1  1  1
  3  2  1  0
  4  3  1  0
  4  5  2  0
  6  5  1  0
  7  6  1  0
  8  7  2  0
  9  8  1  0
 10  9  2  0
 10 11  1  0
 11 12  2  0
 12  7  1  0
 12  4  1  0
 13 14  2  0
 13  2  1  0
 15 13  1  0
 16 15  1  0
 16 17  1  6
 18 17  1  0
 18 22  1  0
 19 18  2  0
 20 19  1  0
 20 21  1  0
 21 22  2  0
 23 16  1  0
 24 23  2  0
 25 26  1  0
 27 26  1  1
 27 28  1  0
 28 23  1  0
 29 27  1  0
 29 31  1  0
 30 29  2  0
M  END
$$$$
