WHS.pdb
     RDKit          3D

 31 33  0  0  1  0  0  0  0  0999 V2000
   26.4508  -18.9494  -19.5418 N   0  0  0  0  0  0  0  0  0  0  0  0
   25.4450  -18.3913  -18.6956 C   0  0  1  0  0  0  0  0  0  0  0  0
   24.1854  -18.1509  -19.4929 C   0  0  0  0  0  0  0  0  0  0  0  0
   24.3418  -17.1550  -20.5723 C   0  0  0  0  0  0  0  0  0  0  0  0
   24.4869  -17.3963  -21.9316 C   0  0  0  0  0  0  0  0  0  0  0  0
   24.6362  -16.2408  -22.5741 N   0  0  0  0  0  0  0  0  0  0  0  0
   24.5917  -15.2463  -21.6675 C   0  0  0  0  0  0  0  0  0  0  0  0
   24.6834  -13.8686  -21.7678 C   0  0  0  0  0  0  0  0  0  0  0  0
   24.5948  -13.0567  -20.6588 C   0  0  0  0  0  0  0  0  0  0  0  0
   24.4114  -13.5904  -19.4098 C   0  0  0  0  0  0  0  0  0  0  0  0
   24.3181  -14.9610  -19.2906 C   0  0  0  0  0  0  0  0  0  0  0  0
   24.4058  -15.7802  -20.3859 C   0  0  0  0  0  0  0  0  0  0  0  0
   25.0765  -19.3330  -17.5821 C   0  0  0  0  0  0  0  0  0  0  0  0
   24.7815  -20.5147  -17.8949 O   0  0  0  0  0  0  0  0  0  0  0  0
   25.0454  -18.9710  -16.2277 N   0  0  0  0  0  0  0  0  0  0  0  0
   24.6464  -19.8743  -15.1607 C   0  0  1  0  0  0  0  0  0  0  0  0
   25.3138  -19.4471  -13.8432 C   0  0  0  0  0  0  0  0  0  0  0  0
   24.9099  -20.2560  -12.7025 C   0  0  0  0  0  0  0  0  0  0  0  0
   25.4885  -21.4269  -12.2861 C   0  0  0  0  0  0  0  0  0  0  0  0
   24.8203  -21.8583  -11.1956 N   0  0  0  0  0  0  0  0  0  0  0  0
   23.8398  -20.9887  -10.9192 C   0  0  0  0  0  0  0  0  0  0  0  0
   23.9048  -20.0003  -11.8592 N   0  0  0  0  0  0  0  0  0  0  0  0
   23.1750  -19.9368  -15.0253 C   0  0  0  0  0  0  0  0  0  0  0  0
   22.4974  -18.8812  -14.9766 O   0  0  0  0  0  0  0  0  0  0  0  0
   21.4024  -23.3626  -13.7222 O   0  0  0  0  0  0  0  0  0  0  0  0
   20.7897  -22.8150  -14.8520 C   0  0  0  0  0  0  0  0  0  0  0  0
   21.0689  -21.3029  -14.7980 C   0  0  2  0  0  0  0  0  0  0  0  0
   22.4836  -21.1636  -14.9480 N   0  0  0  0  0  0  0  0  0  0  0  0
   20.5135  -20.7129  -13.5818 C   0  0  0  0  0  0  0  0  0  0  0  0
   19.2762  -20.6955  -13.4034 O   0  0  0  0  0  0  0  0  0  0  0  0
   21.3167  -20.1638  -12.6036 O   0  0  0  0  0  0  0  0  0  0  0  0
  2  1  1  6
  3  2  1  0
  4  3  1  0
  4  5  2  0
  6  5  1  0
  7  6  1  0
  8  7  2  0
  9  8  1  0
 10  9  2  0
 10 11  1  0
 11 12  2  0
 12  7  1  0
 12  4  1  0
 13 14  2  0
 13  2  1  0
 15 13  1  0
 16 15  1  0
 16 17  1  1
 18 17  1  0
 18 22  1  0
 19 18  2  0
 20 19  1  0
 20 21  1  0
 21 22  2  0
 23 16  1  0
 24 23  2  0
 25 26  1  0
 27 26  1  1
 27 28  1  0
 28 23  1  0
 29 27  1  0
 29 31  1  0
 30 29  2  0
M  END
$$$$
