WHS.pdb
     RDKit          3D

 31 33  0  0  1  0  0  0  0  0999 V2000
   25.9488  -18.1381  -17.9589 N   0  0  0  0  0  0  0  0  0  0  0  0
   25.8428  -17.9844  -16.5432 C   0  0  1  0  0  0  0  0  0  0  0  0
   24.7596  -16.9831  -16.2199 C   0  0  0  0  0  0  0  0  0  0  0  0
   25.2502  -15.5976  -16.0743 C   0  0  0  0  0  0  0  0  0  0  0  0
   26.0959  -15.0981  -15.0934 C   0  0  0  0  0  0  0  0  0  0  0  0
   26.2755  -13.7937  -15.2843 N   0  0  0  0  0  0  0  0  0  0  0  0
   25.5674  -13.4254  -16.3687 C   0  0  0  0  0  0  0  0  0  0  0  0
   25.3935  -12.2166  -17.0206 C   0  0  0  0  0  0  0  0  0  0  0  0
   24.6035  -12.1093  -18.1437 C   0  0  0  0  0  0  0  0  0  0  0  0
   23.9589  -13.2046  -18.6569 C   0  0  0  0  0  0  0  0  0  0  0  0
   24.1203  -14.4172  -18.0205 C   0  0  0  0  0  0  0  0  0  0  0  0
   24.9025  -14.5374  -16.9015 C   0  0  0  0  0  0  0  0  0  0  0  0
   25.4497  -19.2741  -15.8764 C   0  0  0  0  0  0  0  0  0  0  0  0
   24.6154  -20.0039  -16.4703 O   0  0  0  0  0  0  0  0  0  0  0  0
   25.9576  -19.7048  -14.6424 N   0  0  0  0  0  0  0  0  0  0  0  0
   25.6096  -20.9749  -14.0264 C   0  0  1  0  0  0  0  0  0  0  0  0
   26.8902  -21.7570  -13.6920 C   0  0  0  0  0  0  0  0  0  0  0  0
   27.6438  -22.1616  -14.8698 C   0  0  0  0  0  0  0  0  0  0  0  0
   28.7100  -21.5013  -15.4235 C   0  0  0  0  0  0  0  0  0  0  0  0
   29.1224  -22.2032  -16.5001 N   0  0  0  0  0  0  0  0  0  0  0  0
   28.3429  -23.2840  -16.6343 C   0  0  0  0  0  0  0  0  0  0  0  0
   27.4306  -23.2479  -15.6189 N   0  0  0  0  0  0  0  0  0  0  0  0
   24.7658  -20.7823  -12.8271 C   0  0  0  0  0  0  0  0  0  0  0  0
   25.0572  -19.9015  -11.9815 O   0  0  0  0  0  0  0  0  0  0  0  0
   20.7882  -19.3985  -12.3894 O   0  0  0  0  0  0  0  0  0  0  0  0
   21.9768  -19.8937  -12.9312 C   0  0  0  0  0  0  0  0  0  0  0  0
   22.3890  -21.0802  -12.0424 C   0  0  2  0  0  0  0  0  0  0  0  0
   23.6177  -21.5658  -12.5881 N   0  0  0  0  0  0  0  0  0  0  0  0
   21.3148  -22.0675  -11.9591 C   0  0  0  0  0  0  0  0  0  0  0  0
   21.2390  -22.9827  -12.8075 O   0  0  0  0  0  0  0  0  0  0  0  0
   20.3625  -22.0287  -10.9615 O   0  0  0  0  0  0  0  0  0  0  0  0
  2  1  1  6
  3  2  1  0
  4  3  1  0
  4  5  2  0
  6  5  1  0
  7  6  1  0
  8  7  2  0
  9  8  1  0
 10  9  2  0
 10 11  1  0
 11 12  2  0
 12  7  1  0
 12  4  1  0
 13 14  2  0
 13  2  1  0
 15 13  1  0
 16 15  1  0
 16 17  1  1
 18 17  1  0
 18 22  1  0
 19 18  2  0
 20 19  1  0
 20 21  1  0
 21 22  2  0
 23 16  1  0
 24 23  2  0
 25 26  1  0
 27 26  1  6
 27 28  1  0
 28 23  1  0
 29 27  1  0
 29 31  1  0
 30 29  2  0
M  END
$$$$
