WHS.pdb
     RDKit          3D

 31 33  0  0  1  0  0  0  0  0999 V2000
   26.5902  -22.8239  -12.5410 N   0  0  0  0  0  0  0  0  0  0  0  0
   25.8829  -21.7953  -11.8475 C   0  0  1  0  0  0  0  0  0  0  0  0
   26.7181  -20.5377  -11.8136 C   0  0  0  0  0  0  0  0  0  0  0  0
   27.8471  -20.5951  -10.8631 C   0  0  0  0  0  0  0  0  0  0  0  0
   29.1810  -20.8524  -11.1482 C   0  0  0  0  0  0  0  0  0  0  0  0
   29.8842  -20.8531  -10.0188 N   0  0  0  0  0  0  0  0  0  0  0  0
   29.0424  -20.6013   -8.9985 C   0  0  0  0  0  0  0  0  0  0  0  0
   29.2211  -20.4796   -7.6312 C   0  0  0  0  0  0  0  0  0  0  0  0
   28.1685  -20.2019   -6.7875 C   0  0  0  0  0  0  0  0  0  0  0  0
   26.8996  -20.0355   -7.2781 C   0  0  0  0  0  0  0  0  0  0  0  0
   26.7025  -20.1533   -8.6377 C   0  0  0  0  0  0  0  0  0  0  0  0
   27.7410  -20.4305   -9.4881 C   0  0  0  0  0  0  0  0  0  0  0  0
   24.5993  -21.4409  -12.5471 C   0  0  0  0  0  0  0  0  0  0  0  0
   24.5189  -21.6943  -13.7761 O   0  0  0  0  0  0  0  0  0  0  0  0
   23.4976  -20.8509  -11.9113 N   0  0  0  0  0  0  0  0  0  0  0  0
   22.1622  -20.8105  -12.4848 C   0  0  1  0  0  0  0  0  0  0  0  0
   21.1139  -20.9239  -11.3660 C   0  0  0  0  0  0  0  0  0  0  0  0
   19.7450  -20.9624  -11.8591 C   0  0  0  0  0  0  0  0  0  0  0  0
   19.0960  -22.0504  -12.3828 C   0  0  0  0  0  0  0  0  0  0  0  0
   17.8457  -21.6689  -12.7193 N   0  0  0  0  0  0  0  0  0  0  0  0
   17.6958  -20.3721  -12.4201 C   0  0  0  0  0  0  0  0  0  0  0  0
   18.8785  -19.9449  -11.8879 N   0  0  0  0  0  0  0  0  0  0  0  0
   21.9572  -19.5905  -13.2953 C   0  0  0  0  0  0  0  0  0  0  0  0
   22.3350  -18.4730  -12.8659 O   0  0  0  0  0  0  0  0  0  0  0  0
   20.8549  -17.9108  -17.6493 O   0  0  0  0  0  0  0  0  0  0  0  0
   20.9644  -19.0316  -16.8224 C   0  0  0  0  0  0  0  0  0  0  0  0
   21.0747  -18.4925  -15.3855 C   0  0  2  0  0  0  0  0  0  0  0  0
   21.3405  -19.6309  -14.5630 N   0  0  0  0  0  0  0  0  0  0  0  0
   19.8824  -17.7297  -15.0216 C   0  0  0  0  0  0  0  0  0  0  0  0
   18.8353  -18.3264  -14.6890 O   0  0  0  0  0  0  0  0  0  0  0  0
   19.8668  -16.3501  -15.0307 O   0  0  0  0  0  0  0  0  0  0  0  0
  2  1  1  6
  3  2  1  0
  4  3  1  0
  4  5  2  0
  6  5  1  0
  7  6  1  0
  8  7  2  0
  9  8  1  0
 10  9  2  0
 10 11  1  0
 11 12  2  0
 12  7  1  0
 12  4  1  0
 13 14  2  0
 13  2  1  0
 15 13  1  0
 16 15  1  0
 16 17  1  1
 18 17  1  0
 18 22  1  0
 19 18  2  0
 20 19  1  0
 20 21  1  0
 21 22  2  0
 23 16  1  0
 24 23  2  0
 25 26  1  0
 27 26  1  6
 27 28  1  0
 28 23  1  0
 29 27  1  0
 29 31  1  0
 30 29  2  0
M  END
$$$$
