WHS.pdb
     RDKit          3D

 31 33  0  0  1  0  0  0  0  0999 V2000
   24.4313  -33.1191  -18.0509 N   0  0  0  0  0  0  0  0  0  0  0  0
   23.8268  -33.1129  -16.7572 C   0  0  1  0  0  0  0  0  0  0  0  0
   22.5582  -33.9315  -16.7846 C   0  0  0  0  0  0  0  0  0  0  0  0
   21.4487  -33.2907  -17.5191 C   0  0  0  0  0  0  0  0  0  0  0  0
   21.3696  -33.0397  -18.8821 C   0  0  0  0  0  0  0  0  0  0  0  0
   20.2267  -32.4149  -19.1529 N   0  0  0  0  0  0  0  0  0  0  0  0
   19.5530  -32.2505  -17.9988 C   0  0  0  0  0  0  0  0  0  0  0  0
   18.3289  -31.6829  -17.6892 C   0  0  0  0  0  0  0  0  0  0  0  0
   17.8543  -31.6510  -16.3967 C   0  0  0  0  0  0  0  0  0  0  0  0
   18.5840  -32.1847  -15.3666 C   0  0  0  0  0  0  0  0  0  0  0  0
   19.8060  -32.7543  -15.6560 C   0  0  0  0  0  0  0  0  0  0  0  0
   20.2904  -32.7915  -16.9376 C   0  0  0  0  0  0  0  0  0  0  0  0
   24.7234  -33.7427  -15.7267 C   0  0  0  0  0  0  0  0  0  0  0  0
   25.5724  -34.5786  -16.1288 O   0  0  0  0  0  0  0  0  0  0  0  0
   24.6672  -33.4515  -14.3561 N   0  0  0  0  0  0  0  0  0  0  0  0
   25.5253  -34.0770  -13.3632 C   0  0  1  0  0  0  0  0  0  0  0  0
   26.6820  -33.1291  -13.0067 C   0  0  0  0  0  0  0  0  0  0  0  0
   27.5196  -32.7860  -14.1466 C   0  0  0  0  0  0  0  0  0  0  0  0
   28.5989  -33.4935  -14.6091 C   0  0  0  0  0  0  0  0  0  0  0  0
   29.0973  -32.8417  -15.6808 N   0  0  0  0  0  0  0  0  0  0  0  0
   28.3589  -31.7461  -15.9005 C   0  0  0  0  0  0  0  0  0  0  0  0
   27.3845  -31.7219  -14.9441 N   0  0  0  0  0  0  0  0  0  0  0  0
   24.7621  -34.4739  -12.1601 C   0  0  0  0  0  0  0  0  0  0  0  0
   23.7327  -33.8388  -11.8241 O   0  0  0  0  0  0  0  0  0  0  0  0
   22.3470  -36.7826   -9.5125 O   0  0  0  0  0  0  0  0  0  0  0  0
   23.0403  -36.3772  -10.6557 C   0  0  0  0  0  0  0  0  0  0  0  0
   24.4599  -36.0130  -10.1870 C   0  0  2  0  0  0  0  0  0  0  0  0
   25.1513  -35.5643  -11.3548 N   0  0  0  0  0  0  0  0  0  0  0  0
   25.0836  -37.1363   -9.4907 C   0  0  0  0  0  0  0  0  0  0  0  0
   25.7061  -38.0060  -10.1382 O   0  0  0  0  0  0  0  0  0  0  0  0
   25.0112  -37.2775   -8.1202 O   0  0  0  0  0  0  0  0  0  0  0  0
  2  1  1  6
  3  2  1  0
  4  3  1  0
  4  5  2  0
  6  5  1  0
  7  6  1  0
  8  7  2  0
  9  8  1  0
 10  9  2  0
 10 11  1  0
 11 12  2  0
 12  7  1  0
 12  4  1  0
 13 14  2  0
 13  2  1  0
 15 13  1  0
 16 15  1  0
 16 17  1  1
 18 17  1  0
 18 22  1  0
 19 18  2  0
 20 19  1  0
 20 21  1  0
 21 22  2  0
 23 16  1  0
 24 23  2  0
 25 26  1  0
 27 26  1  6
 27 28  1  0
 28 23  1  0
 29 27  1  0
 29 31  1  0
 30 29  2  0
M  END
$$$$
