WHS.pdb
     RDKit          3D

 31 33  0  0  1  0  0  0  0  0999 V2000
   28.8474  -21.5333  -10.7744 N   0  0  0  0  0  0  0  0  0  0  0  0
   27.5285  -21.3188  -10.2707 C   0  0  1  0  0  0  0  0  0  0  0  0
   27.5100  -20.0826   -9.4035 C   0  0  0  0  0  0  0  0  0  0  0  0
   28.4548  -20.1337   -8.2694 C   0  0  0  0  0  0  0  0  0  0  0  0
   29.8386  -20.2273   -8.3245 C   0  0  0  0  0  0  0  0  0  0  0  0
   30.3293  -20.2832   -7.0890 N   0  0  0  0  0  0  0  0  0  0  0  0
   29.2991  -20.2277   -6.2239 C   0  0  0  0  0  0  0  0  0  0  0  0
   29.2212  -20.2396   -4.8418 C   0  0  0  0  0  0  0  0  0  0  0  0
   28.0126  -20.1596   -4.1863 C   0  0  0  0  0  0  0  0  0  0  0  0
   26.8382  -20.0646   -4.8863 C   0  0  0  0  0  0  0  0  0  0  0  0
   26.8962  -20.0515   -6.2639 C   0  0  0  0  0  0  0  0  0  0  0  0
   28.0922  -20.1317   -6.9287 C   0  0  0  0  0  0  0  0  0  0  0  0
   26.5455  -21.0785  -11.3836 C   0  0  0  0  0  0  0  0  0  0  0  0
   26.8838  -20.2807  -12.2948 O   0  0  0  0  0  0  0  0  0  0  0  0
   25.2859  -21.6897  -11.4620 N   0  0  0  0  0  0  0  0  0  0  0  0
   24.3758  -21.5199  -12.5829 C   0  0  1  0  0  0  0  0  0  0  0  0
   24.1332  -22.8768  -13.2638 C   0  0  0  0  0  0  0  0  0  0  0  0
   25.1402  -23.2113  -14.2600 C   0  0  0  0  0  0  0  0  0  0  0  0
   26.1786  -22.4159  -14.6703 C   0  0  0  0  0  0  0  0  0  0  0  0
   26.8801  -23.0934  -15.6035 N   0  0  0  0  0  0  0  0  0  0  0  0
   26.3083  -24.2904  -15.7875 C   0  0  0  0  0  0  0  0  0  0  0  0
   25.2315  -24.3525  -14.9501 N   0  0  0  0  0  0  0  0  0  0  0  0
   23.1049  -20.8934  -12.1591 C   0  0  0  0  0  0  0  0  0  0  0  0
   22.6049  -21.1674  -11.0407 O   0  0  0  0  0  0  0  0  0  0  0  0
   21.1082  -18.8231  -14.9129 O   0  0  0  0  0  0  0  0  0  0  0  0
   21.0305  -18.1852  -13.6723 C   0  0  0  0  0  0  0  0  0  0  0  0
   21.2170  -19.2865  -12.6141 C   0  0  2  0  0  0  0  0  0  0  0  0
   22.4141  -19.9771  -12.9789 N   0  0  0  0  0  0  0  0  0  0  0  0
   20.0234  -20.1242  -12.5169 C   0  0  0  0  0  0  0  0  0  0  0  0
   20.0335  -21.2842  -12.9831 O   0  0  0  0  0  0  0  0  0  0  0  0
   18.8633  -19.6764  -11.9193 O   0  0  0  0  0  0  0  0  0  0  0  0
  2  1  1  6
  3  2  1  0
  4  3  1  0
  4  5  2  0
  6  5  1  0
  7  6  1  0
  8  7  2  0
  9  8  1  0
 10  9  2  0
 10 11  1  0
 11 12  2  0
 12  7  1  0
 12  4  1  0
 13 14  2  0
 13  2  1  0
 15 13  1  0
 16 15  1  0
 16 17  1  1
 18 17  1  0
 18 22  1  0
 19 18  2  0
 20 19  1  0
 20 21  1  0
 21 22  2  0
 23 16  1  0
 24 23  2  0
 25 26  1  0
 27 26  1  6
 27 28  1  0
 28 23  1  0
 29 27  1  0
 29 31  1  0
 30 29  2  0
M  END
$$$$
