WHS.pdb
     RDKit          3D

 31 33  0  0  1  0  0  0  0  0999 V2000
   16.0618  -10.9208  -11.8572 N   0  0  0  0  0  0  0  0  0  0  0  0
   15.9146   -9.5053  -11.7386 C   0  0  1  0  0  0  0  0  0  0  0  0
   16.2597   -9.0740  -10.3331 C   0  0  0  0  0  0  0  0  0  0  0  0
   15.0816   -8.8152   -9.4808 C   0  0  0  0  0  0  0  0  0  0  0  0
   13.9989   -9.6544   -9.2562 C   0  0  0  0  0  0  0  0  0  0  0  0
   13.1257   -9.0480   -8.4562 N   0  0  0  0  0  0  0  0  0  0  0  0
   13.6108   -7.8299   -8.1498 C   0  0  0  0  0  0  0  0  0  0  0  0
   13.1381   -6.7922   -7.3649 C   0  0  0  0  0  0  0  0  0  0  0  0
   13.8516   -5.6251   -7.2052 C   0  0  0  0  0  0  0  0  0  0  0  0
   15.0627   -5.4515   -7.8230 C   0  0  0  0  0  0  0  0  0  0  0  0
   15.5494   -6.4745   -8.6091 C   0  0  0  0  0  0  0  0  0  0  0  0
   14.8489   -7.6405   -8.7773 C   0  0  0  0  0  0  0  0  0  0  0  0
   16.8558   -8.7743  -12.6564 C   0  0  0  0  0  0  0  0  0  0  0  0
   18.0279   -9.2181  -12.7594 O   0  0  0  0  0  0  0  0  0  0  0  0
   16.5024   -7.6377  -13.3976 N   0  0  0  0  0  0  0  0  0  0  0  0
   17.3929   -6.9813  -14.3409 C   0  0  1  0  0  0  0  0  0  0  0  0
   16.5699   -6.3350  -15.4672 C   0  0  0  0  0  0  0  0  0  0  0  0
   16.0897   -7.2916  -16.4536 C   0  0  0  0  0  0  0  0  0  0  0  0
   16.3882   -8.6285  -16.5072 C   0  0  0  0  0  0  0  0  0  0  0  0
   15.7440   -9.1580  -17.5686 N   0  0  0  0  0  0  0  0  0  0  0  0
   15.0512   -8.1883  -18.1797 C   0  0  0  0  0  0  0  0  0  0  0  0
   15.2728   -7.0365  -17.4804 N   0  0  0  0  0  0  0  0  0  0  0  0
   18.2597   -5.9897  -13.6681 C   0  0  0  0  0  0  0  0  0  0  0  0
   17.7572   -5.0985  -12.9406 O   0  0  0  0  0  0  0  0  0  0  0  0
   22.3193   -6.4254  -13.9463 O   0  0  0  0  0  0  0  0  0  0  0  0
   21.7953   -5.8232  -12.7998 C   0  0  0  0  0  0  0  0  0  0  0  0
   20.5566   -5.0351  -13.2602 C   0  0  2  0  0  0  0  0  0  0  0  0
   19.6625   -6.0043  -13.8120 N   0  0  0  0  0  0  0  0  0  0  0  0
   20.9341   -3.9530  -14.1671 C   0  0  0  0  0  0  0  0  0  0  0  0
   20.6101   -4.0060  -15.3734 O   0  0  0  0  0  0  0  0  0  0  0  0
   21.6479   -2.8539  -13.7358 O   0  0  0  0  0  0  0  0  0  0  0  0
  2  1  1  1
  3  2  1  0
  4  3  1  0
  4  5  2  0
  6  5  1  0
  7  6  1  0
  8  7  2  0
  9  8  1  0
 10  9  2  0
 10 11  1  0
 11 12  2  0
 12  7  1  0
 12  4  1  0
 13 14  2  0
 13  2  1  0
 15 13  1  0
 16 15  1  0
 16 17  1  6
 18 17  1  0
 18 22  1  0
 19 18  2  0
 20 19  1  0
 20 21  1  0
 21 22  2  0
 23 16  1  0
 24 23  2  0
 25 26  1  0
 27 26  1  6
 27 28  1  0
 28 23  1  0
 29 27  1  0
 29 31  1  0
 30 29  2  0
M  END
$$$$
