WHS.pdb
     RDKit          3D

 31 33  0  0  1  0  0  0  0  0999 V2000
   27.2297  -22.3216  -14.0080 N   0  0  0  0  0  0  0  0  0  0  0  0
   26.2465  -21.6795  -13.1956 C   0  0  1  0  0  0  0  0  0  0  0  0
   26.7769  -20.3520  -12.7090 C   0  0  0  0  0  0  0  0  0  0  0  0
   27.7752  -20.4674  -11.6267 C   0  0  0  0  0  0  0  0  0  0  0  0
   29.1577  -20.4908  -11.7497 C   0  0  0  0  0  0  0  0  0  0  0  0
   29.7079  -20.6420  -10.5478 N   0  0  0  0  0  0  0  0  0  0  0  0
   28.7180  -20.7177   -9.6382 C   0  0  0  0  0  0  0  0  0  0  0  0
   28.7058  -20.8656   -8.2618 C   0  0  0  0  0  0  0  0  0  0  0  0
   27.5271  -20.9053   -7.5505 C   0  0  0  0  0  0  0  0  0  0  0  0
   26.3180  -20.7984   -8.1872 C   0  0  0  0  0  0  0  0  0  0  0  0
   26.3106  -20.6507   -9.5581 C   0  0  0  0  0  0  0  0  0  0  0  0
   27.4763  -20.6109  -10.2779 C   0  0  0  0  0  0  0  0  0  0  0  0
   24.9949  -21.3831  -13.9756 C   0  0  0  0  0  0  0  0  0  0  0  0
   25.1306  -20.9304  -15.1409 O   0  0  0  0  0  0  0  0  0  0  0  0
   23.6980  -21.5829  -13.4814 N   0  0  0  0  0  0  0  0  0  0  0  0
   22.4998  -21.4857  -14.2991 C   0  0  1  0  0  0  0  0  0  0  0  0
   21.8922  -22.8841  -14.4967 C   0  0  0  0  0  0  0  0  0  0  0  0
   22.7369  -23.7756  -15.2779 C   0  0  0  0  0  0  0  0  0  0  0  0
   22.8291  -23.8236  -16.6448 C   0  0  0  0  0  0  0  0  0  0  0  0
   23.7212  -24.7829  -16.9698 N   0  0  0  0  0  0  0  0  0  0  0  0
   24.1890  -25.3358  -15.8432 C   0  0  0  0  0  0  0  0  0  0  0  0
   23.5723  -24.7040  -14.8014 N   0  0  0  0  0  0  0  0  0  0  0  0
   21.5178  -20.5482  -13.7125 C   0  0  0  0  0  0  0  0  0  0  0  0
   21.1547  -20.6760  -12.5176 O   0  0  0  0  0  0  0  0  0  0  0  0
   19.4936  -17.9696  -16.1744 O   0  0  0  0  0  0  0  0  0  0  0  0
   19.9770  -17.4023  -14.9928 C   0  0  0  0  0  0  0  0  0  0  0  0
   20.0143  -18.5400  -13.9575 C   0  0  2  0  0  0  0  0  0  0  0  0
   20.9589  -19.4892  -14.4575 N   0  0  0  0  0  0  0  0  0  0  0  0
   18.6737  -19.0687  -13.7148 C   0  0  0  0  0  0  0  0  0  0  0  0
   17.8133  -18.3578  -13.1515 O   0  0  0  0  0  0  0  0  0  0  0  0
   18.3132  -20.3464  -14.0903 O   0  0  0  0  0  0  0  0  0  0  0  0
  2  1  1  6
  3  2  1  0
  4  3  1  0
  4  5  2  0
  6  5  1  0
  7  6  1  0
  8  7  2  0
  9  8  1  0
 10  9  2  0
 10 11  1  0
 11 12  2  0
 12  7  1  0
 12  4  1  0
 13 14  2  0
 13  2  1  0
 15 13  1  0
 16 15  1  0
 16 17  1  1
 18 17  1  0
 18 22  1  0
 19 18  2  0
 20 19  1  0
 20 21  1  0
 21 22  2  0
 23 16  1  0
 24 23  2  0
 25 26  1  0
 27 26  1  6
 27 28  1  0
 28 23  1  0
 29 27  1  0
 29 31  1  0
 30 29  2  0
M  END
$$$$
