WHS.pdb
     RDKit          3D

 31 33  0  0  1  0  0  0  0  0999 V2000
   23.2327  -13.3161  -17.2854 N   0  0  0  0  0  0  0  0  0  0  0  0
   22.4097  -12.2561  -17.7736 C   0  0  1  0  0  0  0  0  0  0  0  0
   20.9967  -12.7546  -17.9618 C   0  0  0  0  0  0  0  0  0  0  0  0
   20.8848  -13.8986  -18.8893 C   0  0  0  0  0  0  0  0  0  0  0  0
   21.8498  -14.3744  -19.7663 C   0  0  0  0  0  0  0  0  0  0  0  0
   21.3557  -15.3988  -20.4568 N   0  0  0  0  0  0  0  0  0  0  0  0
   20.0884  -15.6068  -20.0525 C   0  0  0  0  0  0  0  0  0  0  0  0
   19.1175  -16.5249  -20.4144 C   0  0  0  0  0  0  0  0  0  0  0  0
   17.8726  -16.5290  -19.8252 C   0  0  0  0  0  0  0  0  0  0  0  0
   17.5518  -15.6172  -18.8536 C   0  0  0  0  0  0  0  0  0  0  0  0
   18.5064  -14.6947  -18.4804 C   0  0  0  0  0  0  0  0  0  0  0  0
   19.7486  -14.6790  -19.0595 C   0  0  0  0  0  0  0  0  0  0  0  0
   22.3375  -11.1178  -16.7931 C   0  0  0  0  0  0  0  0  0  0  0  0
   21.6916  -11.3066  -15.7309 O   0  0  0  0  0  0  0  0  0  0  0  0
   22.9457   -9.8704  -16.9945 N   0  0  0  0  0  0  0  0  0  0  0  0
   22.7725   -8.7356  -16.1024 C   0  0  1  0  0  0  0  0  0  0  0  0
   24.0992   -8.4309  -15.3877 C   0  0  0  0  0  0  0  0  0  0  0  0
   25.1829   -9.3206  -15.7779 C   0  0  0  0  0  0  0  0  0  0  0  0
   25.1163  -10.3335  -16.6993 C   0  0  0  0  0  0  0  0  0  0  0  0
   26.3323  -10.9151  -16.7693 N   0  0  0  0  0  0  0  0  0  0  0  0
   27.1570  -10.2932  -15.9167 C   0  0  0  0  0  0  0  0  0  0  0  0
   26.4343   -9.3073  -15.3081 N   0  0  0  0  0  0  0  0  0  0  0  0
   22.2641   -7.5501  -16.8259 C   0  0  0  0  0  0  0  0  0  0  0  0
   22.4069   -7.4569  -18.0696 O   0  0  0  0  0  0  0  0  0  0  0  0
   19.3506   -4.9335  -18.4436 O   0  0  0  0  0  0  0  0  0  0  0  0
   19.9591   -6.0070  -17.7885 C   0  0  0  0  0  0  0  0  0  0  0  0
   20.9660   -5.3896  -16.8024 C   0  0  2  0  0  0  0  0  0  0  0  0
   21.6080   -6.4938  -16.1606 N   0  0  0  0  0  0  0  0  0  0  0  0
   20.3039   -4.4486  -15.9014 C   0  0  0  0  0  0  0  0  0  0  0  0
   19.7127   -4.8681  -14.8828 O   0  0  0  0  0  0  0  0  0  0  0  0
   20.3056   -3.0889  -16.1353 O   0  0  0  0  0  0  0  0  0  0  0  0
  2  1  1  1
  3  2  1  0
  4  3  1  0
  4  5  2  0
  6  5  1  0
  7  6  1  0
  8  7  2  0
  9  8  1  0
 10  9  2  0
 10 11  1  0
 11 12  2  0
 12  7  1  0
 12  4  1  0
 13 14  2  0
 13  2  1  0
 15 13  1  0
 16 15  1  0
 16 17  1  6
 18 17  1  0
 18 22  1  0
 19 18  2  0
 20 19  1  0
 20 21  1  0
 21 22  2  0
 23 16  1  0
 24 23  2  0
 25 26  1  0
 27 26  1  6
 27 28  1  0
 28 23  1  0
 29 27  1  0
 29 31  1  0
 30 29  2  0
M  END
$$$$
