WHS.pdb
     RDKit          3D

 31 33  0  0  1  0  0  0  0  0999 V2000
   24.3352   -9.7371  -17.4495 N   0  0  0  0  0  0  0  0  0  0  0  0
   24.6046   -8.9514  -16.2879 C   0  0  1  0  0  0  0  0  0  0  0  0
   25.8973   -8.1936  -16.4750 C   0  0  0  0  0  0  0  0  0  0  0  0
   27.0518   -9.0532  -16.8060 C   0  0  0  0  0  0  0  0  0  0  0  0
   28.1369   -8.7391  -17.6126 C   0  0  0  0  0  0  0  0  0  0  0  0
   28.9487   -9.7900  -17.6938 N   0  0  0  0  0  0  0  0  0  0  0  0
   28.4217  -10.7869  -16.9580 C   0  0  0  0  0  0  0  0  0  0  0  0
   28.8333  -12.0793  -16.6810 C   0  0  0  0  0  0  0  0  0  0  0  0
   28.0965  -12.9132  -15.8696 C   0  0  0  0  0  0  0  0  0  0  0  0
   26.9223  -12.4875  -15.3052 C   0  0  0  0  0  0  0  0  0  0  0  0
   26.4963  -11.2031  -15.5702 C   0  0  0  0  0  0  0  0  0  0  0  0
   27.2195  -10.3634  -16.3768 C   0  0  0  0  0  0  0  0  0  0  0  0
   23.5319   -7.9224  -16.0573 C   0  0  0  0  0  0  0  0  0  0  0  0
   22.7369   -7.6904  -17.0036 O   0  0  0  0  0  0  0  0  0  0  0  0
   23.3694   -7.2153  -14.8574 N   0  0  0  0  0  0  0  0  0  0  0  0
   22.2984   -6.2605  -14.6230 C   0  0  1  0  0  0  0  0  0  0  0  0
   21.7751   -6.4111  -13.1852 C   0  0  0  0  0  0  0  0  0  0  0  0
   20.9000   -7.5604  -13.0067 C   0  0  0  0  0  0  0  0  0  0  0  0
   20.5416   -8.4708  -13.9669 C   0  0  0  0  0  0  0  0  0  0  0  0
   19.7212   -9.3783  -13.3965 N   0  0  0  0  0  0  0  0  0  0  0  0
   19.5572   -9.0597  -12.1061 C   0  0  0  0  0  0  0  0  0  0  0  0
   20.2919   -7.9320  -11.8757 N   0  0  0  0  0  0  0  0  0  0  0  0
   22.7384   -4.8749  -14.8951 C   0  0  0  0  0  0  0  0  0  0  0  0
   23.9552   -4.5727  -14.8346 O   0  0  0  0  0  0  0  0  0  0  0  0
   23.9442   -1.6272  -17.0429 O   0  0  0  0  0  0  0  0  0  0  0  0
   23.5711   -2.8464  -16.4718 C   0  0  0  0  0  0  0  0  0  0  0  0
   22.1628   -2.6318  -15.8903 C   0  0  2  0  0  0  0  0  0  0  0  0
   21.8253   -3.8535  -15.2294 N   0  0  0  0  0  0  0  0  0  0  0  0
   21.2271   -2.2112  -16.9311 C   0  0  0  0  0  0  0  0  0  0  0  0
   20.2631   -2.9450  -17.2396 O   0  0  0  0  0  0  0  0  0  0  0  0
   21.3686   -1.0126  -17.5997 O   0  0  0  0  0  0  0  0  0  0  0  0
  2  1  1  6
  3  2  1  0
  4  3  1  0
  4  5  2  0
  6  5  1  0
  7  6  1  0
  8  7  2  0
  9  8  1  0
 10  9  2  0
 10 11  1  0
 11 12  2  0
 12  7  1  0
 12  4  1  0
 13 14  2  0
 13  2  1  0
 15 13  1  0
 16 15  1  0
 16 17  1  1
 18 17  1  0
 18 22  1  0
 19 18  2  0
 20 19  1  0
 20 21  1  0
 21 22  2  0
 23 16  1  0
 24 23  2  0
 25 26  1  0
 27 26  1  6
 27 28  1  0
 28 23  1  0
 29 27  1  0
 29 31  1  0
 30 29  2  0
M  END
$$$$
