WHS.pdb
     RDKit          3D

 31 33  0  0  1  0  0  0  0  0999 V2000
   21.5320  -16.3185  -19.4003 N   0  0  0  0  0  0  0  0  0  0  0  0
   21.2460  -16.5689  -18.0238 C   0  0  1  0  0  0  0  0  0  0  0  0
   19.7673  -16.3946  -17.7716 C   0  0  0  0  0  0  0  0  0  0  0  0
   19.3180  -14.9879  -17.7980 C   0  0  0  0  0  0  0  0  0  0  0  0
   18.6769  -14.3237  -18.8347 C   0  0  0  0  0  0  0  0  0  0  0  0
   18.4683  -13.0562  -18.4880 N   0  0  0  0  0  0  0  0  0  0  0  0
   18.9572  -12.8732  -17.2469 C   0  0  0  0  0  0  0  0  0  0  0  0
   19.0072  -11.7790  -16.4004 C   0  0  0  0  0  0  0  0  0  0  0  0
   19.5683  -11.8623  -15.1454 C   0  0  0  0  0  0  0  0  0  0  0  0
   20.0996  -13.0407  -14.6898 C   0  0  0  0  0  0  0  0  0  0  0  0
   20.0589  -14.1414  -15.5194 C   0  0  0  0  0  0  0  0  0  0  0  0
   19.5045  -14.0717  -16.7709 C   0  0  0  0  0  0  0  0  0  0  0  0
   21.5845  -17.9830  -17.6387 C   0  0  0  0  0  0  0  0  0  0  0  0
   21.4814  -18.8671  -18.5269 O   0  0  0  0  0  0  0  0  0  0  0  0
   22.0061  -18.3666  -16.3576 N   0  0  0  0  0  0  0  0  0  0  0  0
   22.3875  -19.7252  -16.0074 C   0  0  1  0  0  0  0  0  0  0  0  0
   23.6427  -19.6989  -15.1200 C   0  0  0  0  0  0  0  0  0  0  0  0
   24.1112  -21.0244  -14.7432 C   0  0  0  0  0  0  0  0  0  0  0  0
   25.0428  -21.7803  -15.4065 C   0  0  0  0  0  0  0  0  0  0  0  0
   25.1949  -22.9406  -14.7338 N   0  0  0  0  0  0  0  0  0  0  0  0
   24.3836  -22.9303  -13.6682 C   0  0  0  0  0  0  0  0  0  0  0  0
   23.7172  -21.7385  -13.6841 N   0  0  0  0  0  0  0  0  0  0  0  0
   21.2767  -20.4477  -15.3506 C   0  0  0  0  0  0  0  0  0  0  0  0
   20.6429  -19.9138  -14.4076 O   0  0  0  0  0  0  0  0  0  0  0  0
   20.8886  -24.5883  -15.4681 O   0  0  0  0  0  0  0  0  0  0  0  0
   19.8017  -23.8394  -15.9256 C   0  0  0  0  0  0  0  0  0  0  0  0
   19.8426  -22.5108  -15.1504 C   0  0  2  0  0  0  0  0  0  0  0  0
   20.8890  -21.7435  -15.7499 N   0  0  0  0  0  0  0  0  0  0  0  0
   19.9916  -22.7481  -13.7161 C   0  0  0  0  0  0  0  0  0  0  0  0
   21.0442  -22.4103  -13.1322 O   0  0  0  0  0  0  0  0  0  0  0  0
   18.9970  -23.3417  -12.9666 O   0  0  0  0  0  0  0  0  0  0  0  0
  2  1  1  6
  3  2  1  0
  4  3  1  0
  4  5  2  0
  6  5  1  0
  7  6  1  0
  8  7  2  0
  9  8  1  0
 10  9  2  0
 10 11  1  0
 11 12  2  0
 12  7  1  0
 12  4  1  0
 13 14  2  0
 13  2  1  0
 15 13  1  0
 16 15  1  0
 16 17  1  1
 18 17  1  0
 18 22  1  0
 19 18  2  0
 20 19  1  0
 20 21  1  0
 21 22  2  0
 23 16  1  0
 24 23  2  0
 25 26  1  0
 27 26  1  6
 27 28  1  0
 28 23  1  0
 29 27  1  0
 29 31  1  0
 30 29  2  0
M  END
$$$$
