WHS.pdb
     RDKit          3D

 31 33  0  0  1  0  0  0  0  0999 V2000
   21.8867  -21.0463  -17.1121 N   0  0  0  0  0  0  0  0  0  0  0  0
   21.9860  -20.6553  -15.7423 C   0  0  1  0  0  0  0  0  0  0  0  0
   21.2412  -21.6430  -14.8761 C   0  0  0  0  0  0  0  0  0  0  0  0
   20.1244  -21.0476  -14.1149 C   0  0  0  0  0  0  0  0  0  0  0  0
   18.8666  -20.7014  -14.5893 C   0  0  0  0  0  0  0  0  0  0  0  0
   18.1542  -20.1602  -13.6046 N   0  0  0  0  0  0  0  0  0  0  0  0
   18.9154  -20.1440  -12.4940 C   0  0  0  0  0  0  0  0  0  0  0  0
   18.6912  -19.7110  -11.1984 C   0  0  0  0  0  0  0  0  0  0  0  0
   19.6580  -19.8194  -10.2236 C   0  0  0  0  0  0  0  0  0  0  0  0
   20.8834  -20.3641  -10.5066 C   0  0  0  0  0  0  0  0  0  0  0  0
   21.1249  -20.8008  -11.7921 C   0  0  0  0  0  0  0  0  0  0  0  0
   20.1719  -20.6976  -12.7717 C   0  0  0  0  0  0  0  0  0  0  0  0
   23.4140  -20.6595  -15.2697 C   0  0  0  0  0  0  0  0  0  0  0  0
   24.1676  -21.5662  -15.7073 O   0  0  0  0  0  0  0  0  0  0  0  0
   23.9472  -19.7174  -14.3785 N   0  0  0  0  0  0  0  0  0  0  0  0
   25.3099  -19.7659  -13.8741 C   0  0  1  0  0  0  0  0  0  0  0  0
   25.9001  -18.3468  -13.8379 C   0  0  0  0  0  0  0  0  0  0  0  0
   26.3442  -17.8727  -15.1404 C   0  0  0  0  0  0  0  0  0  0  0  0
   26.3005  -18.5682  -16.3209 C   0  0  0  0  0  0  0  0  0  0  0  0
   26.8043  -17.7765  -17.2910 N   0  0  0  0  0  0  0  0  0  0  0  0
   27.1617  -16.6051  -16.7488 C   0  0  0  0  0  0  0  0  0  0  0  0
   26.8721  -16.6760  -15.4162 N   0  0  0  0  0  0  0  0  0  0  0  0
   25.3730  -20.4111  -12.5447 C   0  0  0  0  0  0  0  0  0  0  0  0
   24.3901  -20.3559  -11.7658 O   0  0  0  0  0  0  0  0  0  0  0  0
   28.9214  -20.6836  -11.0892 O   0  0  0  0  0  0  0  0  0  0  0  0
   28.2618  -21.8464  -10.6835 C   0  0  0  0  0  0  0  0  0  0  0  0
   26.7575  -21.5329  -10.7620 C   0  0  2  0  0  0  0  0  0  0  0  0
   26.5196  -21.1043  -12.1048 N   0  0  0  0  0  0  0  0  0  0  0  0
   26.3693  -20.5759   -9.7280 C   0  0  0  0  0  0  0  0  0  0  0  0
   26.2246  -19.3680  -10.0160 O   0  0  0  0  0  0  0  0  0  0  0  0
   26.1520  -20.9606   -8.4210 O   0  0  0  0  0  0  0  0  0  0  0  0
  2  1  1  6
  3  2  1  0
  4  3  1  0
  4  5  2  0
  6  5  1  0
  7  6  1  0
  8  7  2  0
  9  8  1  0
 10  9  2  0
 10 11  1  0
 11 12  2  0
 12  7  1  0
 12  4  1  0
 13 14  2  0
 13  2  1  0
 15 13  1  0
 16 15  1  0
 16 17  1  1
 18 17  1  0
 18 22  1  0
 19 18  2  0
 20 19  1  0
 20 21  1  0
 21 22  2  0
 23 16  1  0
 24 23  2  0
 25 26  1  0
 27 26  1  6
 27 28  1  0
 28 23  1  0
 29 27  1  0
 29 31  1  0
 30 29  2  0
M  END
$$$$
