ESK.pdb
     RDKit          3D

 25 24  0  0  1  0  0  0  0  0999 V2000
   10.4947  -20.9512   19.0679 N   0  0  0  0  0  0  0  0  0  0  0  0
   11.2801  -22.1902   19.2282 C   0  0  1  0  0  0  0  0  0  0  0  0
   12.2548  -22.2013   18.1041 C   0  0  0  0  0  0  0  0  0  0  0  0
   13.1646  -21.0354   17.9928 C   0  0  0  0  0  0  0  0  0  0  0  0
   14.0565  -21.1475   16.8395 C   0  0  0  0  0  0  0  0  0  0  0  0
   14.7828  -20.1723   16.5243 O   0  0  0  0  0  0  0  0  0  0  0  0
   11.9704  -22.0863   20.5394 C   0  0  0  0  0  0  0  0  0  0  0  0
   12.7688  -22.9947   20.8486 O   0  0  0  0  0  0  0  0  0  0  0  0
   14.1514  -22.2946   16.0528 O   0  0  0  0  0  0  0  0  0  0  0  0
   11.1647  -18.9822   23.0793 O   0  0  0  0  0  0  0  0  0  0  0  0
   12.4429  -19.4771   23.2074 C   0  0  0  0  0  0  0  0  0  0  0  0
   12.4524  -20.9006   22.6951 C   0  0  2  0  0  0  0  0  0  0  0  0
   11.7608  -21.0230   21.4263 N   0  0  0  0  0  0  0  0  0  0  0  0
   11.8112  -21.7567   23.7250 C   0  0  0  0  0  0  0  0  0  0  0  0
   10.5804  -22.0264   23.6009 O   0  0  0  0  0  0  0  0  0  0  0  0
   12.5549  -22.2612   24.8207 N   0  0  0  0  0  0  0  0  0  0  0  0
   11.9031  -23.1485   25.7547 C   0  0  1  0  0  0  0  0  0  0  0  0
   12.5801  -24.4981   25.6628 C   0  0  0  0  0  0  0  0  0  0  0  0
   11.9869  -25.5081   26.5831 C   0  0  0  0  0  0  0  0  0  0  0  0
   12.7555  -26.8030   26.5469 C   0  0  0  0  0  0  0  0  0  0  0  0
   12.1671  -27.7764   27.5376 C   0  0  0  0  0  0  0  0  0  0  0  0
   12.9862  -28.9832   27.6379 N   0  0  0  0  0  0  0  0  0  0  0  0
   11.9352  -22.5910   27.1163 C   0  0  0  0  0  0  0  0  0  0  0  0
   12.7824  -21.7659   27.5382 O   0  0  0  0  0  0  0  0  0  0  0  0
   10.9565  -23.0042   28.0104 O   0  0  0  0  0  0  0  0  0  0  0  0
  2  1  1  6
  2  7  1  0
  3  2  1  0
  4  3  1  0
  5  6  2  0
  5  4  1  0
  7  8  2  0
  9  5  1  0
 10 11  1  0
 12 11  1  1
 12 14  1  0
 13 12  1  0
 13  7  1  0
 14 15  2  0
 14 16  1  0
 16 17  1  0
 17 23  1  0
 18 19  1  0
 17 18  1  1
 20 21  1  0
 20 19  1  0
 21 22  1  0
 23 24  2  0
 23 25  1  0
M  END
$$$$
