ESK.pdb
     RDKit          3D

 25 24  0  0  1  0  0  0  0  0999 V2000
    8.5265  -12.8575   17.7637 N   0  0  0  0  0  0  0  0  0  0  0  0
    7.8022  -13.9190   18.4892 C   0  0  1  0  0  0  0  0  0  0  0  0
    8.0376  -15.1703   17.7193 C   0  0  0  0  0  0  0  0  0  0  0  0
    9.4456  -15.6108   17.5683 C   0  0  0  0  0  0  0  0  0  0  0  0
    9.5415  -16.9205   16.9251 C   0  0  0  0  0  0  0  0  0  0  0  0
   10.6572  -17.3258   16.5144 O   0  0  0  0  0  0  0  0  0  0  0  0
    8.4099  -13.9962   19.8424 C   0  0  0  0  0  0  0  0  0  0  0  0
    9.6266  -13.7373   19.9481 O   0  0  0  0  0  0  0  0  0  0  0  0
    8.4472  -17.7635   16.7365 O   0  0  0  0  0  0  0  0  0  0  0  0
    6.3012  -15.4120   23.1012 O   0  0  0  0  0  0  0  0  0  0  0  0
    7.2010  -14.4116   23.3924 C   0  0  0  0  0  0  0  0  0  0  0  0
    8.2603  -14.3995   22.3123 C   0  0  2  0  0  0  0  0  0  0  0  0
    7.6785  -14.3432   20.9851 N   0  0  0  0  0  0  0  0  0  0  0  0
    9.0831  -15.6252   22.4712 C   0  0  0  0  0  0  0  0  0  0  0  0
    9.2477  -16.3733   21.4630 O   0  0  0  0  0  0  0  0  0  0  0  0
    9.6709  -15.9531   23.7182 N   0  0  0  0  0  0  0  0  0  0  0  0
   10.6184  -17.0408   23.7765 C   0  0  1  0  0  0  0  0  0  0  0  0
   11.7416  -16.7304   22.8120 C   0  0  0  0  0  0  0  0  0  0  0  0
   12.8354  -17.7409   22.8513 C   0  0  0  0  0  0  0  0  0  0  0  0
   13.9316  -17.4023   21.8754 C   0  0  0  0  0  0  0  0  0  0  0  0
   14.9787  -18.4880   21.8835 C   0  0  0  0  0  0  0  0  0  0  0  0
   16.0774  -18.1648   20.9749 N   0  0  0  0  0  0  0  0  0  0  0  0
   11.0958  -17.2463   25.1534 C   0  0  0  0  0  0  0  0  0  0  0  0
   11.1756  -16.3513   26.0303 O   0  0  0  0  0  0  0  0  0  0  0  0
   11.4905  -18.5262   25.5196 O   0  0  0  0  0  0  0  0  0  0  0  0
  2  1  1  6
  2  7  1  0
  3  2  1  0
  4  3  1  0
  5  6  2  0
  5  4  1  0
  7  8  2  0
  9  5  1  0
 10 11  1  0
 12 11  1  1
 12 14  1  0
 13 12  1  0
 13  7  1  0
 14 15  2  0
 14 16  1  0
 16 17  1  0
 17 23  1  0
 18 19  1  0
 17 18  1  6
 20 21  1  0
 20 19  1  0
 21 22  1  0
 23 24  2  0
 23 25  1  0
M  END
$$$$
