ESK.pdb
     RDKit          3D

 25 24  0  0  1  0  0  0  0  0999 V2000
   13.8246  -14.0685   17.9146 N   0  0  0  0  0  0  0  0  0  0  0  0
   12.4665  -14.6126   17.7221 C   0  0  1  0  0  0  0  0  0  0  0  0
   12.6243  -16.0914   17.6759 C   0  0  0  0  0  0  0  0  0  0  0  0
   13.3721  -16.7219   18.7907 C   0  0  0  0  0  0  0  0  0  0  0  0
   13.5136  -18.1654   18.6051 C   0  0  0  0  0  0  0  0  0  0  0  0
   14.4215  -18.6050   17.8566 O   0  0  0  0  0  0  0  0  0  0  0  0
   11.6712  -14.1919   18.9041 C   0  0  0  0  0  0  0  0  0  0  0  0
   12.2529  -14.1431   20.0076 O   0  0  0  0  0  0  0  0  0  0  0  0
   12.6849  -19.1021   19.2213 O   0  0  0  0  0  0  0  0  0  0  0  0
    7.5207  -14.0875   18.8914 O   0  0  0  0  0  0  0  0  0  0  0  0
    8.1202  -13.0709   19.6003 C   0  0  0  0  0  0  0  0  0  0  0  0
    9.5119  -13.5210   19.9870 C   0  0  2  0  0  0  0  0  0  0  0  0
   10.3146  -13.8538   18.8259 N   0  0  0  0  0  0  0  0  0  0  0  0
    9.3749  -14.6974   20.8826 C   0  0  0  0  0  0  0  0  0  0  0  0
    9.9159  -15.7867   20.5308 O   0  0  0  0  0  0  0  0  0  0  0  0
    8.6574  -14.6071   22.1013 N   0  0  0  0  0  0  0  0  0  0  0  0
    8.6206  -15.7565   22.9741 C   0  0  1  0  0  0  0  0  0  0  0  0
   10.0475  -16.1320   23.3078 C   0  0  0  0  0  0  0  0  0  0  0  0
   10.1387  -17.2467   24.2918 C   0  0  0  0  0  0  0  0  0  0  0  0
   11.5708  -17.6324   24.5541 C   0  0  0  0  0  0  0  0  0  0  0  0
   11.6271  -18.7070   25.6110 C   0  0  0  0  0  0  0  0  0  0  0  0
   13.0100  -19.0368   25.9515 N   0  0  0  0  0  0  0  0  0  0  0  0
    7.8138  -15.4782   24.1731 C   0  0  0  0  0  0  0  0  0  0  0  0
    7.4098  -16.3439   24.9877 O   0  0  0  0  0  0  0  0  0  0  0  0
    7.4679  -14.1583   24.4309 O   0  0  0  0  0  0  0  0  0  0  0  0
  2  1  1  1
  2  7  1  0
  3  2  1  0
  4  3  1  0
  5  6  2  0
  5  4  1  0
  7  8  2  0
  9  5  1  0
 10 11  1  0
 12 11  1  6
 12 14  1  0
 13 12  1  0
 13  7  1  0
 14 15  2  0
 14 16  1  0
 16 17  1  0
 17 23  1  0
 18 19  1  0
 17 18  1  1
 20 21  1  0
 20 19  1  0
 21 22  1  0
 23 24  2  0
 23 25  1  0
M  END
$$$$
