ESK.pdb
     RDKit          3D

 25 24  0  0  1  0  0  0  0  0999 V2000
    8.7051  -18.8573   18.3687 N   0  0  0  0  0  0  0  0  0  0  0  0
    9.9444  -18.1126   18.6642 C   0  0  1  0  0  0  0  0  0  0  0  0
   10.4224  -17.5851   17.3576 C   0  0  0  0  0  0  0  0  0  0  0  0
    9.3866  -17.1492   16.3900 C   0  0  0  0  0  0  0  0  0  0  0  0
    9.9745  -16.5261   15.2051 C   0  0  0  0  0  0  0  0  0  0  0  0
    9.2310  -15.9218   14.3927 O   0  0  0  0  0  0  0  0  0  0  0  0
    9.5655  -17.0099   19.5847 C   0  0  0  0  0  0  0  0  0  0  0  0
   10.4426  -16.1715   19.8781 O   0  0  0  0  0  0  0  0  0  0  0  0
   11.3380  -16.5629   14.9166 O   0  0  0  0  0  0  0  0  0  0  0  0
    5.9236  -17.0367   21.5131 O   0  0  0  0  0  0  0  0  0  0  0  0
    6.4525  -15.7777   21.3389 C   0  0  0  0  0  0  0  0  0  0  0  0
    7.9481  -15.9144   21.1559 C   0  0  2  0  0  0  0  0  0  0  0  0
    8.2807  -16.8797   20.1260 N   0  0  0  0  0  0  0  0  0  0  0  0
    8.5287  -16.3207   22.4607 C   0  0  0  0  0  0  0  0  0  0  0  0
    8.9403  -17.5110   22.5907 O   0  0  0  0  0  0  0  0  0  0  0  0
    8.6215  -15.4023   23.5359 N   0  0  0  0  0  0  0  0  0  0  0  0
    9.1563  -15.8586   24.7969 C   0  0  1  0  0  0  0  0  0  0  0  0
    9.2702  -14.6609   25.7137 C   0  0  0  0  0  0  0  0  0  0  0  0
    9.8672  -14.9977   27.0362 C   0  0  0  0  0  0  0  0  0  0  0  0
    9.9563  -13.7843   27.9240 C   0  0  0  0  0  0  0  0  0  0  0  0
   10.5376  -14.1692   29.2617 C   0  0  0  0  0  0  0  0  0  0  0  0
   10.7054  -12.9966   30.1184 N   0  0  0  0  0  0  0  0  0  0  0  0
    8.3195  -16.9280   25.3645 C   0  0  0  0  0  0  0  0  0  0  0  0
    7.0744  -17.0178   25.2299 O   0  0  0  0  0  0  0  0  0  0  0  0
    8.9474  -17.9184   26.1080 O   0  0  0  0  0  0  0  0  0  0  0  0
  2  1  1  6
  2  7  1  0
  3  2  1  0
  4  3  1  0
  5  6  2  0
  5  4  1  0
  7  8  2  0
  9  5  1  0
 10 11  1  0
 12 11  1  1
 12 14  1  0
 13 12  1  0
 13  7  1  0
 14 15  2  0
 14 16  1  0
 16 17  1  0
 17 23  1  0
 18 19  1  0
 17 18  1  1
 20 21  1  0
 20 19  1  0
 21 22  1  0
 23 24  2  0
 23 25  1  0
M  END
$$$$
