ESK.pdb
     RDKit          3D

 25 24  0  0  1  0  0  0  0  0999 V2000
   10.1463  -16.3561   17.6060 N   0  0  0  0  0  0  0  0  0  0  0  0
    9.6046  -17.2961   18.6063 C   0  0  1  0  0  0  0  0  0  0  0  0
   10.4365  -18.5252   18.5008 C   0  0  0  0  0  0  0  0  0  0  0  0
   11.7009  -18.4163   17.7335 C   0  0  0  0  0  0  0  0  0  0  0  0
   12.4094  -19.6936   17.6653 C   0  0  0  0  0  0  0  0  0  0  0  0
   13.5963  -19.7631   18.0706 O   0  0  0  0  0  0  0  0  0  0  0  0
    9.7703  -16.6450   19.9312 C   0  0  0  0  0  0  0  0  0  0  0  0
   10.8869  -16.7281   20.4832 O   0  0  0  0  0  0  0  0  0  0  0  0
   11.8354  -20.8626   17.1676 O   0  0  0  0  0  0  0  0  0  0  0  0
    6.5558  -15.4317   22.0942 O   0  0  0  0  0  0  0  0  0  0  0  0
    7.6311  -14.5957   22.2947 C   0  0  0  0  0  0  0  0  0  0  0  0
    8.8853  -15.3293   21.8731 C   0  0  2  0  0  0  0  0  0  0  0  0
    8.7356  -15.9527   20.5723 N   0  0  0  0  0  0  0  0  0  0  0  0
    9.1838  -16.3489   22.9104 C   0  0  0  0  0  0  0  0  0  0  0  0
    8.8798  -17.5548   22.6728 O   0  0  0  0  0  0  0  0  0  0  0  0
    9.7935  -15.9854   24.1369 N   0  0  0  0  0  0  0  0  0  0  0  0
    9.9780  -16.9979   25.1494 C   0  0  1  0  0  0  0  0  0  0  0  0
   11.3059  -17.6752   24.8922 C   0  0  0  0  0  0  0  0  0  0  0  0
   11.6049  -18.7561   25.8728 C   0  0  0  0  0  0  0  0  0  0  0  0
   12.9157  -19.4308   25.5641 C   0  0  0  0  0  0  0  0  0  0  0  0
   13.1428  -20.5729   26.5229 C   0  0  0  0  0  0  0  0  0  0  0  0
   14.4178  -21.2366   26.2565 N   0  0  0  0  0  0  0  0  0  0  0  0
    9.8932  -16.4124   26.4971 C   0  0  0  0  0  0  0  0  0  0  0  0
    9.9828  -17.0573   27.5706 O   0  0  0  0  0  0  0  0  0  0  0  0
    9.6992  -15.0412   26.5983 O   0  0  0  0  0  0  0  0  0  0  0  0
  2  1  1  6
  2  7  1  0
  3  2  1  0
  4  3  1  0
  5  6  2  0
  5  4  1  0
  7  8  2  0
  9  5  1  0
 10 11  1  0
 12 11  1  1
 12 14  1  0
 13 12  1  0
 13  7  1  0
 14 15  2  0
 14 16  1  0
 16 17  1  0
 17 23  1  0
 18 19  1  0
 17 18  1  6
 20 21  1  0
 20 19  1  0
 21 22  1  0
 23 24  2  0
 23 25  1  0
M  END
$$$$
