ESK.pdb
     RDKit          3D

 25 24  0  0  1  0  0  0  0  0999 V2000
   15.3501  -13.3791   17.4357 N   0  0  0  0  0  0  0  0  0  0  0  0
   14.4393  -14.5339   17.5556 C   0  0  1  0  0  0  0  0  0  0  0  0
   15.2979  -15.7427   17.4316 C   0  0  0  0  0  0  0  0  0  0  0  0
   16.6639  -15.6574   18.0025 C   0  0  0  0  0  0  0  0  0  0  0  0
   17.4452  -16.8632   17.7306 C   0  0  0  0  0  0  0  0  0  0  0  0
   18.2223  -16.8853   16.7439 O   0  0  0  0  0  0  0  0  0  0  0  0
   13.8219  -14.4471   18.9039 C   0  0  0  0  0  0  0  0  0  0  0  0
   14.5509  -14.0964   19.8546 O   0  0  0  0  0  0  0  0  0  0  0  0
   17.3783  -18.0129   18.5163 O   0  0  0  0  0  0  0  0  0  0  0  0
   10.0220  -15.8912   19.6680 O   0  0  0  0  0  0  0  0  0  0  0  0
   10.3646  -14.7761   20.3991 C   0  0  0  0  0  0  0  0  0  0  0  0
   11.8742  -14.6977   20.4623 C   0  0  2  0  0  0  0  0  0  0  0  0
   12.4734  -14.7398   19.1423 N   0  0  0  0  0  0  0  0  0  0  0  0
   12.3523  -15.8338   21.2902 C   0  0  0  0  0  0  0  0  0  0  0  0
   13.0073  -16.7570   20.7228 O   0  0  0  0  0  0  0  0  0  0  0  0
   12.0844  -15.8871   22.6807 N   0  0  0  0  0  0  0  0  0  0  0  0
   12.6152  -16.9874   23.4501 C   0  0  1  0  0  0  0  0  0  0  0  0
   14.1075  -16.7810   23.5872 C   0  0  0  0  0  0  0  0  0  0  0  0
   14.7589  -17.8111   24.4437 C   0  0  0  0  0  0  0  0  0  0  0  0
   16.2363  -17.5539   24.5850 C   0  0  0  0  0  0  0  0  0  0  0  0
   16.8616  -18.6188   25.4511 C   0  0  0  0  0  0  0  0  0  0  0  0
   18.2817  -18.3501   25.6710 N   0  0  0  0  0  0  0  0  0  0  0  0
   11.9366  -17.0918   24.7519 C   0  0  0  0  0  0  0  0  0  0  0  0
   11.1924  -16.2117   25.2500 O   0  0  0  0  0  0  0  0  0  0  0  0
   12.1287  -18.2499   25.4933 O   0  0  0  0  0  0  0  0  0  0  0  0
  2  1  1  1
  2  7  1  0
  3  2  1  0
  4  3  1  0
  5  6  2  0
  5  4  1  0
  7  8  2  0
  9  5  1  0
 10 11  1  0
 12 11  1  6
 12 14  1  0
 13 12  1  0
 13  7  1  0
 14 15  2  0
 14 16  1  0
 16 17  1  0
 17 23  1  0
 18 19  1  0
 17 18  1  1
 20 21  1  0
 20 19  1  0
 21 22  1  0
 23 24  2  0
 23 25  1  0
M  END
$$$$
