ESK.pdb
     RDKit          3D

 25 24  0  0  1  0  0  0  0  0999 V2000
    9.6068  -17.4791   18.7383 N   0  0  0  0  0  0  0  0  0  0  0  0
   10.0400  -18.1882   19.9578 C   0  0  1  0  0  0  0  0  0  0  0  0
   11.2893  -18.9066   19.5876 C   0  0  0  0  0  0  0  0  0  0  0  0
   12.1785  -18.2435   18.6033 C   0  0  0  0  0  0  0  0  0  0  0  0
   13.3550  -19.0559   18.2969 C   0  0  0  0  0  0  0  0  0  0  0  0
   13.6131  -19.3416   17.1012 O   0  0  0  0  0  0  0  0  0  0  0  0
   10.3013  -17.1452   20.9828 C   0  0  0  0  0  0  0  0  0  0  0  0
   11.4673  -17.0354   21.4151 O   0  0  0  0  0  0  0  0  0  0  0  0
   14.2253  -19.5423   19.2715 O   0  0  0  0  0  0  0  0  0  0  0  0
    7.2076  -14.9609   22.5691 O   0  0  0  0  0  0  0  0  0  0  0  0
    8.4279  -14.3297   22.6568 C   0  0  0  0  0  0  0  0  0  0  0  0
    9.5115  -15.3829   22.5814 C   0  0  2  0  0  0  0  0  0  0  0  0
    9.3027  -16.2948   21.4732 N   0  0  0  0  0  0  0  0  0  0  0  0
    9.5176  -16.1193   23.8707 C   0  0  0  0  0  0  0  0  0  0  0  0
    8.6976  -17.0720   24.0225 O   0  0  0  0  0  0  0  0  0  0  0  0
   10.4171  -15.7677   24.9076 N   0  0  0  0  0  0  0  0  0  0  0  0
   10.3774  -16.5104   26.1450 C   0  0  1  0  0  0  0  0  0  0  0  0
   11.6954  -17.2380   26.2925 C   0  0  0  0  0  0  0  0  0  0  0  0
   11.8883  -18.3016   25.2675 C   0  0  0  0  0  0  0  0  0  0  0  0
   13.2281  -18.9731   25.4178 C   0  0  0  0  0  0  0  0  0  0  0  0
   13.4087  -20.0057   24.3332 C   0  0  0  0  0  0  0  0  0  0  0  0
   14.7218  -20.6413   24.4266 N   0  0  0  0  0  0  0  0  0  0  0  0
   10.0928  -15.6197   27.2816 C   0  0  0  0  0  0  0  0  0  0  0  0
    9.9786  -14.3714   27.2088 O   0  0  0  0  0  0  0  0  0  0  0  0
    9.9369  -16.1961   28.5352 O   0  0  0  0  0  0  0  0  0  0  0  0
  2  1  1  6
  2  7  1  0
  3  2  1  0
  4  3  1  0
  5  6  2  0
  5  4  1  0
  7  8  2  0
  9  5  1  0
 10 11  1  0
 12 11  1  1
 12 14  1  0
 13 12  1  0
 13  7  1  0
 14 15  2  0
 14 16  1  0
 16 17  1  0
 17 23  1  0
 18 19  1  0
 17 18  1  1
 20 21  1  0
 20 19  1  0
 21 22  1  0
 23 24  2  0
 23 25  1  0
M  END
$$$$
