ESK.pdb
     RDKit          3D

 25 24  0  0  1  0  0  0  0  0999 V2000
   11.1116  -15.5043   17.6569 N   0  0  0  0  0  0  0  0  0  0  0  0
   10.5761  -16.4710   18.6347 C   0  0  1  0  0  0  0  0  0  0  0  0
   11.6882  -17.4170   18.9213 C   0  0  0  0  0  0  0  0  0  0  0  0
   11.4317  -18.4668   19.9369 C   0  0  0  0  0  0  0  0  0  0  0  0
   11.1233  -19.7571   19.3220 C   0  0  0  0  0  0  0  0  0  0  0  0
   11.6214  -20.8048   19.8038 O   0  0  0  0  0  0  0  0  0  0  0  0
   10.2079  -15.6897   19.8432 C   0  0  0  0  0  0  0  0  0  0  0  0
   11.0747  -14.9376   20.3346 O   0  0  0  0  0  0  0  0  0  0  0  0
   10.2929  -19.8975   18.2110 O   0  0  0  0  0  0  0  0  0  0  0  0
    6.5169  -16.1137   21.5775 O   0  0  0  0  0  0  0  0  0  0  0  0
    7.0648  -14.8608   21.7367 C   0  0  0  0  0  0  0  0  0  0  0  0
    8.5669  -14.9810   21.6011 C   0  0  2  0  0  0  0  0  0  0  0  0
    8.9439  -15.7655   20.4411 N   0  0  0  0  0  0  0  0  0  0  0  0
    9.0854  -15.6042   22.8450 C   0  0  0  0  0  0  0  0  0  0  0  0
    9.5706  -16.7715   22.7751 O   0  0  0  0  0  0  0  0  0  0  0  0
    9.0401  -14.9130   24.0812 N   0  0  0  0  0  0  0  0  0  0  0  0
    9.6052  -15.5420   25.2515 C   0  0  1  0  0  0  0  0  0  0  0  0
    9.5465  -14.5458   26.3882 C   0  0  0  0  0  0  0  0  0  0  0  0
   10.1258  -15.0758   27.6541 C   0  0  0  0  0  0  0  0  0  0  0  0
    9.9936  -14.0814   28.7776 C   0  0  0  0  0  0  0  0  0  0  0  0
   10.6695  -14.6143   30.0163 C   0  0  0  0  0  0  0  0  0  0  0  0
   10.5392  -13.6767   31.1303 N   0  0  0  0  0  0  0  0  0  0  0  0
    8.9023  -16.7971   25.5624 C   0  0  0  0  0  0  0  0  0  0  0  0
    7.6769  -17.0018   25.3805 O   0  0  0  0  0  0  0  0  0  0  0  0
    9.6441  -17.8411   26.0988 O   0  0  0  0  0  0  0  0  0  0  0  0
  2  1  1  6
  2  7  1  0
  3  2  1  0
  4  3  1  0
  5  6  2  0
  5  4  1  0
  7  8  2  0
  9  5  1  0
 10 11  1  0
 12 11  1  1
 12 14  1  0
 13 12  1  0
 13  7  1  0
 14 15  2  0
 14 16  1  0
 16 17  1  0
 17 23  1  0
 18 19  1  0
 17 18  1  1
 20 21  1  0
 20 19  1  0
 21 22  1  0
 23 24  2  0
 23 25  1  0
M  END
$$$$
