ESK.pdb
     RDKit          3D

 25 24  0  0  1  0  0  0  0  0999 V2000
    9.4861  -17.2032   16.3740 N   0  0  0  0  0  0  0  0  0  0  0  0
    8.9538  -17.9089   17.5557 C   0  0  1  0  0  0  0  0  0  0  0  0
    9.7383  -19.1685   17.6639 C   0  0  0  0  0  0  0  0  0  0  0  0
   11.1934  -19.0787   17.3921 C   0  0  0  0  0  0  0  0  0  0  0  0
   11.8366  -20.3915   17.4247 C   0  0  0  0  0  0  0  0  0  0  0  0
   12.3715  -20.8424   16.3814 O   0  0  0  0  0  0  0  0  0  0  0  0
    9.1952  -17.0214   18.7222 C   0  0  0  0  0  0  0  0  0  0  0  0
   10.2867  -16.4181   18.7764 O   0  0  0  0  0  0  0  0  0  0  0  0
   11.8931  -21.1889   18.5668 O   0  0  0  0  0  0  0  0  0  0  0  0
    6.3010  -16.4736   21.5781 O   0  0  0  0  0  0  0  0  0  0  0  0
    7.1592  -15.4100   21.4121 C   0  0  0  0  0  0  0  0  0  0  0  0
    8.4659  -15.9383   20.8623 C   0  0  2  0  0  0  0  0  0  0  0  0
    8.2574  -16.8406   19.7462 N   0  0  0  0  0  0  0  0  0  0  0  0
    9.1760  -16.6295   21.9680 C   0  0  0  0  0  0  0  0  0  0  0  0
    9.0001  -17.8754   22.1091 O   0  0  0  0  0  0  0  0  0  0  0  0
   10.0300  -15.9162   22.8455 N   0  0  0  0  0  0  0  0  0  0  0  0
   10.7183  -16.6399   23.8880 C   0  0  1  0  0  0  0  0  0  0  0  0
   12.0858  -16.0167   24.0609 C   0  0  0  0  0  0  0  0  0  0  0  0
   13.1110  -16.6082   23.1564 C   0  0  0  0  0  0  0  0  0  0  0  0
   14.4434  -15.9238   23.3142 C   0  0  0  0  0  0  0  0  0  0  0  0
   15.4505  -16.5394   22.3750 C   0  0  0  0  0  0  0  0  0  0  0  0
   16.7206  -15.8169   22.4199 N   0  0  0  0  0  0  0  0  0  0  0  0
    9.9338  -16.6370   25.1333 C   0  0  0  0  0  0  0  0  0  0  0  0
    8.9754  -15.8645   25.3803 O   0  0  0  0  0  0  0  0  0  0  0  0
   10.2732  -17.5568   26.1166 O   0  0  0  0  0  0  0  0  0  0  0  0
  2  1  1  6
  2  7  1  0
  3  2  1  0
  4  3  1  0
  5  6  2  0
  5  4  1  0
  7  8  2  0
  9  5  1  0
 10 11  1  0
 12 11  1  1
 12 14  1  0
 13 12  1  0
 13  7  1  0
 14 15  2  0
 14 16  1  0
 16 17  1  0
 17 23  1  0
 18 19  1  0
 17 18  1  1
 20 21  1  0
 20 19  1  0
 21 22  1  0
 23 24  2  0
 23 25  1  0
M  END
$$$$
