ESK.pdb
     RDKit          3D

 25 24  0  0  1  0  0  0  0  0999 V2000
    6.9918  -18.4897   17.5951 N   0  0  0  0  0  0  0  0  0  0  0  0
    8.4571  -18.6231   17.7070 C   0  0  1  0  0  0  0  0  0  0  0  0
    8.9879  -18.4398   16.3292 C   0  0  0  0  0  0  0  0  0  0  0  0
    8.1309  -17.6981   15.3727 C   0  0  0  0  0  0  0  0  0  0  0  0
    8.7298  -17.6334   14.0403 C   0  0  0  0  0  0  0  0  0  0  0  0
    8.2686  -18.3545   13.1210 O   0  0  0  0  0  0  0  0  0  0  0  0
    8.9129  -17.5348   18.6095 C   0  0  0  0  0  0  0  0  0  0  0  0
   10.1428  -17.3665   18.7410 O   0  0  0  0  0  0  0  0  0  0  0  0
    9.8035  -16.8029   13.7223 O   0  0  0  0  0  0  0  0  0  0  0  0
    6.3320  -15.8144   21.3367 O   0  0  0  0  0  0  0  0  0  0  0  0
    7.2992  -14.9544   20.8673 C   0  0  0  0  0  0  0  0  0  0  0  0
    8.4517  -15.7812   20.3408 C   0  0  2  0  0  0  0  0  0  0  0  0
    8.0264  -16.7046   19.3066 N   0  0  0  0  0  0  0  0  0  0  0  0
    9.0427  -16.5163   21.4876 C   0  0  0  0  0  0  0  0  0  0  0  0
    8.6415  -17.6952   21.7166 O   0  0  0  0  0  0  0  0  0  0  0  0
   10.0310  -15.9170   22.3074 N   0  0  0  0  0  0  0  0  0  0  0  0
   10.6599  -16.7133   23.3344 C   0  0  1  0  0  0  0  0  0  0  0  0
   12.1578  -16.6075   23.1519 C   0  0  0  0  0  0  0  0  0  0  0  0
   12.9188  -17.4877   24.0821 C   0  0  0  0  0  0  0  0  0  0  0  0
   14.4012  -17.4025   23.8300 C   0  0  0  0  0  0  0  0  0  0  0  0
   15.1345  -18.3327   24.7639 C   0  0  0  0  0  0  0  0  0  0  0  0
   16.5678  -18.3435   24.4761 N   0  0  0  0  0  0  0  0  0  0  0  0
   10.2213  -16.2840   24.6721 C   0  0  0  0  0  0  0  0  0  0  0  0
    9.7376  -15.1582   24.9458 O   0  0  0  0  0  0  0  0  0  0  0  0
   10.3486  -17.1880   25.7183 O   0  0  0  0  0  0  0  0  0  0  0  0
  2  1  1  6
  2  7  1  0
  3  2  1  0
  4  3  1  0
  5  6  2  0
  5  4  1  0
  7  8  2  0
  9  5  1  0
 10 11  1  0
 12 11  1  1
 12 14  1  0
 13 12  1  0
 13  7  1  0
 14 15  2  0
 14 16  1  0
 16 17  1  0
 17 23  1  0
 18 19  1  0
 17 18  1  1
 20 21  1  0
 20 19  1  0
 21 22  1  0
 23 24  2  0
 23 25  1  0
M  END
$$$$
