ESK.pdb
     RDKit          3D

 25 24  0  0  1  0  0  0  0  0999 V2000
   11.0259  -14.0110   17.9066 N   0  0  0  0  0  0  0  0  0  0  0  0
   11.1406  -15.3032   18.6099 C   0  0  1  0  0  0  0  0  0  0  0  0
   12.5941  -15.5035   18.8568 C   0  0  0  0  0  0  0  0  0  0  0  0
   13.3906  -14.2982   19.1919 C   0  0  0  0  0  0  0  0  0  0  0  0
   14.8088  -14.6111   19.3613 C   0  0  0  0  0  0  0  0  0  0  0  0
   15.6122  -14.3566   18.4298 O   0  0  0  0  0  0  0  0  0  0  0  0
   10.3921  -15.1584   19.8848 C   0  0  0  0  0  0  0  0  0  0  0  0
   10.3061  -14.0161   20.3809 O   0  0  0  0  0  0  0  0  0  0  0  0
   15.3338  -15.1864   20.5176 O   0  0  0  0  0  0  0  0  0  0  0  0
    8.5736  -18.3993   21.7469 O   0  0  0  0  0  0  0  0  0  0  0  0
    7.9442  -17.1800   21.8578 C   0  0  0  0  0  0  0  0  0  0  0  0
    8.9919  -16.0948   21.7417 C   0  0  2  0  0  0  0  0  0  0  0  0
    9.7895  -16.2399   20.5391 N   0  0  0  0  0  0  0  0  0  0  0  0
    9.8513  -16.1638   22.9506 C   0  0  0  0  0  0  0  0  0  0  0  0
   11.0445  -16.5657   22.8175 O   0  0  0  0  0  0  0  0  0  0  0  0
    9.3521  -15.7901   24.2231 N   0  0  0  0  0  0  0  0  0  0  0  0
   10.2180  -15.9075   25.3723 C   0  0  1  0  0  0  0  0  0  0  0  0
    9.5891  -15.1319   26.5087 C   0  0  0  0  0  0  0  0  0  0  0  0
   10.3240  -15.2896   27.7948 C   0  0  0  0  0  0  0  0  0  0  0  0
    9.6718  -14.5018   28.9005 C   0  0  0  0  0  0  0  0  0  0  0  0
   10.3984  -14.7438   30.2000 C   0  0  0  0  0  0  0  0  0  0  0  0
    9.8697  -13.8919   31.2639 N   0  0  0  0  0  0  0  0  0  0  0  0
   10.4491  -17.3207   25.7118 C   0  0  0  0  0  0  0  0  0  0  0  0
   11.5293  -17.7909   26.1461 O   0  0  0  0  0  0  0  0  0  0  0  0
    9.3964  -18.2100   25.5416 O   0  0  0  0  0  0  0  0  0  0  0  0
  2  1  1  6
  2  7  1  0
  3  2  1  0
  4  3  1  0
  5  6  2  0
  5  4  1  0
  7  8  2  0
  9  5  1  0
 10 11  1  0
 12 11  1  1
 12 14  1  0
 13 12  1  0
 13  7  1  0
 14 15  2  0
 14 16  1  0
 16 17  1  0
 17 23  1  0
 18 19  1  0
 17 18  1  1
 20 21  1  0
 20 19  1  0
 21 22  1  0
 23 24  2  0
 23 25  1  0
M  END
$$$$
