SQR.pdb
     RDKit          3D

 27 26  0  0  1  0  0  0  0  0999 V2000
   28.2798  -20.1370  -17.4366 O   0  0  0  0  0  0  0  0  0  0  0  0
   27.1722  -19.8913  -16.6064 C   0  0  0  0  0  0  0  0  0  0  0  0
   26.4525  -18.6622  -17.1098 C   0  0  2  0  0  0  0  0  0  0  0  0
   27.3053  -17.5193  -17.0492 N   0  0  0  0  0  0  0  0  0  0  0  0
   25.2007  -18.4677  -16.2955 C   0  0  0  0  0  0  0  0  0  0  0  0
   25.2932  -18.2252  -15.0767 O   0  0  0  0  0  0  0  0  0  0  0  0
   20.5352  -14.6974  -17.0906 N   0  0  0  0  0  0  0  0  0  0  0  0
   20.0480  -15.5818  -16.0939 C   0  0  0  0  0  0  0  0  0  0  0  0
   19.0240  -15.2451  -15.4642 O   0  0  0  0  0  0  0  0  0  0  0  0
   20.7333  -16.8400  -15.8278 C   0  0  0  0  0  0  0  0  0  0  0  0
   21.9916  -17.0902  -16.5824 C   0  0  0  0  0  0  0  0  0  0  0  0
   22.6532  -18.3835  -16.2928 C   0  0  2  0  0  0  0  0  0  0  0  0
   23.9256  -18.5575  -16.8994 N   0  0  0  0  0  0  0  0  0  0  0  0
   21.7098  -19.5340  -16.4696 C   0  0  0  0  0  0  0  0  0  0  0  0
   21.4389  -20.0145  -17.5950 O   0  0  0  0  0  0  0  0  0  0  0  0
   16.6186  -22.3831  -12.6921 N   0  0  0  0  0  0  0  0  0  0  0  0
   16.5347  -23.8168  -12.7089 C   0  0  0  0  0  0  0  0  0  0  0  0
   15.3884  -24.3529  -12.5423 N   0  0  0  0  0  0  0  0  0  0  0  0
   17.6809  -24.6080  -12.9033 N   0  0  0  0  0  0  0  0  0  0  0  0
   18.9574  -23.9976  -13.1473 C   0  0  0  0  0  0  0  0  0  0  0  0
   19.0203  -23.2423  -14.4568 C   0  0  0  0  0  0  0  0  0  0  0  0
   19.8259  -21.9787  -14.2722 C   0  0  0  0  0  0  0  0  0  0  0  0
   20.1212  -21.2667  -15.5591 C   0  0  2  0  0  0  0  0  0  0  0  0
   21.0530  -20.1665  -15.3666 N   0  0  0  0  0  0  0  0  0  0  0  0
   18.9004  -20.7813  -16.2146 C   0  0  0  0  0  0  0  0  0  0  0  0
   18.4592  -19.4840  -16.0080 O   0  0  0  0  0  0  0  0  0  0  0  0
   18.2533  -21.5453  -16.9654 O   0  0  0  0  0  0  0  0  0  0  0  0
  2  1  1  0
  3  2  1  0
  3  4  1  1
  5  3  1  0
  6  5  2  0
  7  8  1  0
  8 10  1  0
  9  8  2  0
 10 11  1  0
 12 11  1  6
 12 13  1  0
 13  5  1  0
 14 15  2  0
 14 12  1  0
 17 16  1  0
 17 19  1  0
 18 17  2  0
 20 19  1  0
 21 22  1  0
 21 20  1  0
 23 22  1  1
 23 24  1  0
 24 14  1  0
 25 23  1  0
 26 25  1  0
 27 25  2  0
M  END
$$$$
