SQR.pdb
     RDKit          3D

 27 26  0  0  1  0  0  0  0  0999 V2000
   23.7717  -17.4061  -18.6496 O   0  0  0  0  0  0  0  0  0  0  0  0
   23.3132  -18.3123  -17.6775 C   0  0  0  0  0  0  0  0  0  0  0  0
   24.5038  -19.0225  -17.0773 C   0  0  2  0  0  0  0  0  0  0  0  0
   25.3153  -19.5979  -18.1009 N   0  0  0  0  0  0  0  0  0  0  0  0
   24.0079  -20.0630  -16.1081 C   0  0  0  0  0  0  0  0  0  0  0  0
   24.0786  -21.2690  -16.4134 O   0  0  0  0  0  0  0  0  0  0  0  0
   24.7630  -20.0180   -9.8946 N   0  0  0  0  0  0  0  0  0  0  0  0
   23.9127  -21.1270  -10.1393 C   0  0  0  0  0  0  0  0  0  0  0  0
   23.7143  -21.9287   -9.2031 O   0  0  0  0  0  0  0  0  0  0  0  0
   23.2978  -21.3082  -11.4479 C   0  0  0  0  0  0  0  0  0  0  0  0
   23.6940  -20.3472  -12.5132 C   0  0  0  0  0  0  0  0  0  0  0  0
   23.0038  -20.5264  -13.8116 C   0  0  2  0  0  0  0  0  0  0  0  0
   23.4644  -19.6849  -14.8590 N   0  0  0  0  0  0  0  0  0  0  0  0
   21.5156  -20.5615  -13.6417 C   0  0  0  0  0  0  0  0  0  0  0  0
   20.8560  -19.5579  -13.2835 O   0  0  0  0  0  0  0  0  0  0  0  0
   19.1837  -24.1187   -7.2485 N   0  0  0  0  0  0  0  0  0  0  0  0
   17.9469  -24.4660   -7.8910 C   0  0  0  0  0  0  0  0  0  0  0  0
   16.8906  -24.5094   -7.1758 N   0  0  0  0  0  0  0  0  0  0  0  0
   17.8996  -24.7499   -9.2674 N   0  0  0  0  0  0  0  0  0  0  0  0
   18.9937  -24.3915  -10.1255 C   0  0  0  0  0  0  0  0  0  0  0  0
   18.6462  -23.3034  -11.1176 C   0  0  0  0  0  0  0  0  0  0  0  0
   19.8369  -23.0309  -12.0051 C   0  0  0  0  0  0  0  0  0  0  0  0
   19.5514  -22.0457  -13.0997 C   0  0  2  0  0  0  0  0  0  0  0  0
   20.7422  -21.7422  -13.8779 N   0  0  0  0  0  0  0  0  0  0  0  0
   18.9585  -20.8049  -12.5853 C   0  0  0  0  0  0  0  0  0  0  0  0
   17.6139  -20.5334  -12.7823 O   0  0  0  0  0  0  0  0  0  0  0  0
   19.6730  -19.9864  -11.9643 O   0  0  0  0  0  0  0  0  0  0  0  0
  2  1  1  0
  3  2  1  0
  3  4  1  6
  5  3  1  0
  6  5  2  0
  7  8  1  0
  8 10  1  0
  9  8  2  0
 10 11  1  0
 12 11  1  1
 12 13  1  0
 13  5  1  0
 14 15  2  0
 14 12  1  0
 17 16  1  0
 17 19  1  0
 18 17  2  0
 20 19  1  0
 21 22  1  0
 21 20  1  0
 23 22  1  1
 23 24  1  0
 24 14  1  0
 25 23  1  0
 26 25  1  0
 27 25  2  0
M  END
$$$$
