SQR.pdb
     RDKit          3D

 27 26  0  0  1  0  0  0  0  0999 V2000
   17.7719  -19.5764  -15.6872 O   0  0  0  0  0  0  0  0  0  0  0  0
   18.6329  -18.4659  -15.7282 C   0  0  0  0  0  0  0  0  0  0  0  0
   18.1179  -17.4913  -16.7611 C   0  0  2  0  0  0  0  0  0  0  0  0
   18.0831  -18.0981  -18.0525 N   0  0  0  0  0  0  0  0  0  0  0  0
   18.9904  -16.2639  -16.7449 C   0  0  0  0  0  0  0  0  0  0  0  0
   19.1222  -15.6189  -15.6869 O   0  0  0  0  0  0  0  0  0  0  0  0
   22.8201  -14.3457  -21.6802 N   0  0  0  0  0  0  0  0  0  0  0  0
   22.7402  -13.2386  -20.7967 C   0  0  0  0  0  0  0  0  0  0  0  0
   23.3697  -12.2037  -21.0986 O   0  0  0  0  0  0  0  0  0  0  0  0
   21.9427  -13.3240  -19.5801 C   0  0  0  0  0  0  0  0  0  0  0  0
   21.1491  -14.5681  -19.3852 C   0  0  0  0  0  0  0  0  0  0  0  0
   20.3610  -14.6227  -18.1322 C   0  0  2  0  0  0  0  0  0  0  0  0
   19.6588  -15.8382  -17.9156 N   0  0  0  0  0  0  0  0  0  0  0  0
   19.5428  -13.3818  -17.9442 C   0  0  0  0  0  0  0  0  0  0  0  0
   18.4320  -13.2182  -18.5009 O   0  0  0  0  0  0  0  0  0  0  0  0
   21.0516   -7.1880  -12.2827 N   0  0  0  0  0  0  0  0  0  0  0  0
   21.3802   -6.9480  -13.6602 C   0  0  0  0  0  0  0  0  0  0  0  0
   22.3035   -6.1056  -13.9188 N   0  0  0  0  0  0  0  0  0  0  0  0
   20.7056   -7.6208  -14.6945 N   0  0  0  0  0  0  0  0  0  0  0  0
   19.4098   -8.1964  -14.4683 C   0  0  0  0  0  0  0  0  0  0  0  0
   18.8757   -8.9585  -15.6613 C   0  0  0  0  0  0  0  0  0  0  0  0
   19.7009  -10.2048  -15.8743 C   0  0  0  0  0  0  0  0  0  0  0  0
   19.1797  -11.0844  -16.9720 C   0  0  2  0  0  0  0  0  0  0  0  0
   19.9704  -12.2969  -17.1146 N   0  0  0  0  0  0  0  0  0  0  0  0
   19.1070  -10.3788  -18.2576 C   0  0  0  0  0  0  0  0  0  0  0  0
   20.2539  -10.1530  -19.0019 O   0  0  0  0  0  0  0  0  0  0  0  0
   18.0008   -9.9783  -18.6842 O   0  0  0  0  0  0  0  0  0  0  0  0
  2  1  1  0
  3  2  1  0
  3  4  1  6
  5  3  1  0
  6  5  2  0
  7  8  1  0
  8 10  1  0
  9  8  2  0
 10 11  1  0
 12 11  1  6
 12 13  1  0
 13  5  1  0
 14 15  2  0
 14 12  1  0
 17 16  1  0
 17 19  1  0
 18 17  2  0
 20 19  1  0
 21 22  1  0
 21 20  1  0
 23 22  1  1
 23 24  1  0
 24 14  1  0
 25 23  1  0
 26 25  1  0
 27 25  2  0
M  END
$$$$
