SQR.pdb
     RDKit          3D

 27 26  0  0  1  0  0  0  0  0999 V2000
   24.8662  -11.9187  -18.1945 O   0  0  0  0  0  0  0  0  0  0  0  0
   25.9003  -10.9684  -18.1313 C   0  0  0  0  0  0  0  0  0  0  0  0
   26.1888  -10.6619  -16.6805 C   0  0  2  0  0  0  0  0  0  0  0  0
   26.5873  -11.8434  -15.9859 N   0  0  0  0  0  0  0  0  0  0  0  0
   24.9632  -10.0397  -16.0650 C   0  0  0  0  0  0  0  0  0  0  0  0
   24.1711  -10.7534  -15.4200 O   0  0  0  0  0  0  0  0  0  0  0  0
   24.0059   -3.6047  -15.6211 N   0  0  0  0  0  0  0  0  0  0  0  0
   22.8076   -4.2041  -15.1547 C   0  0  0  0  0  0  0  0  0  0  0  0
   21.9120   -3.4540  -14.7145 O   0  0  0  0  0  0  0  0  0  0  0  0
   22.6440   -5.6515  -15.1966 C   0  0  0  0  0  0  0  0  0  0  0  0
   23.7788   -6.4382  -15.7523 C   0  0  0  0  0  0  0  0  0  0  0  0
   23.6147   -7.9092  -15.6923 C   0  0  2  0  0  0  0  0  0  0  0  0
   24.7041   -8.6578  -16.2121 N   0  0  0  0  0  0  0  0  0  0  0  0
   22.2666   -8.3315  -16.1914 C   0  0  0  0  0  0  0  0  0  0  0  0
   21.9784   -8.3555  -17.4108 O   0  0  0  0  0  0  0  0  0  0  0  0
   16.7240  -14.7034  -14.0831 N   0  0  0  0  0  0  0  0  0  0  0  0
   16.0257  -13.9871  -15.1138 C   0  0  0  0  0  0  0  0  0  0  0  0
   14.9580  -14.5033  -15.5855 N   0  0  0  0  0  0  0  0  0  0  0  0
   16.5031  -12.7531  -15.5900 N   0  0  0  0  0  0  0  0  0  0  0  0
   17.7649  -12.2353  -15.1412 C   0  0  0  0  0  0  0  0  0  0  0  0
   18.1063  -10.8875  -15.7378 C   0  0  0  0  0  0  0  0  0  0  0  0
   19.4884  -10.4741  -15.2921 C   0  0  0  0  0  0  0  0  0  0  0  0
   19.9059   -9.1308  -15.8132 C   0  0  2  0  0  0  0  0  0  0  0  0
   21.2139   -8.7391  -15.3118 N   0  0  0  0  0  0  0  0  0  0  0  0
   18.9184   -8.0883  -15.5068 C   0  0  0  0  0  0  0  0  0  0  0  0
   19.1922   -7.1173  -14.5568 O   0  0  0  0  0  0  0  0  0  0  0  0
   17.8210   -8.0767  -16.1082 O   0  0  0  0  0  0  0  0  0  0  0  0
  2  1  1  0
  3  2  1  0
  3  4  1  1
  5  3  1  0
  6  5  2  0
  7  8  1  0
  8 10  1  0
  9  8  2  0
 10 11  1  0
 12 11  1  6
 12 13  1  0
 13  5  1  0
 14 15  2  0
 14 12  1  0
 17 16  1  0
 17 19  1  0
 18 17  2  0
 20 19  1  0
 21 22  1  0
 21 20  1  0
 23 22  1  1
 23 24  1  0
 24 14  1  0
 25 23  1  0
 26 25  1  0
 27 25  2  0
M  END
$$$$
