SQR.pdb
     RDKit          3D

 27 26  0  0  1  0  0  0  0  0999 V2000
   29.0310  -18.8887  -16.7982 O   0  0  0  0  0  0  0  0  0  0  0  0
   27.9116  -19.5041  -16.2112 C   0  0  0  0  0  0  0  0  0  0  0  0
   28.3165  -20.8710  -15.7117 C   0  0  2  0  0  0  0  0  0  0  0  0
   28.6333  -21.7329  -16.8044 N   0  0  0  0  0  0  0  0  0  0  0  0
   27.2001  -21.4276  -14.8680 C   0  0  0  0  0  0  0  0  0  0  0  0
   26.3401  -22.1599  -15.3942 O   0  0  0  0  0  0  0  0  0  0  0  0
   26.6074  -20.8102   -8.3814 N   0  0  0  0  0  0  0  0  0  0  0  0
   25.3120  -21.1114   -8.8753 C   0  0  0  0  0  0  0  0  0  0  0  0
   24.4018  -21.3108   -8.0444 O   0  0  0  0  0  0  0  0  0  0  0  0
   25.0692  -21.1805  -10.3104 C   0  0  0  0  0  0  0  0  0  0  0  0
   26.2592  -21.0679  -11.1974 C   0  0  0  0  0  0  0  0  0  0  0  0
   25.9754  -21.1673  -12.6479 C   0  0  2  0  0  0  0  0  0  0  0  0
   27.1192  -21.1276  -13.4888 N   0  0  0  0  0  0  0  0  0  0  0  0
   24.8644  -20.2477  -13.0538 C   0  0  0  0  0  0  0  0  0  0  0  0
   25.0613  -19.0471  -13.3545 O   0  0  0  0  0  0  0  0  0  0  0  0
   22.9849  -18.6534  -20.4007 N   0  0  0  0  0  0  0  0  0  0  0  0
   21.8411  -18.0146  -19.8119 C   0  0  0  0  0  0  0  0  0  0  0  0
   21.1159  -17.2758  -20.5585 N   0  0  0  0  0  0  0  0  0  0  0  0
   21.5280  -18.1970  -18.4532 N   0  0  0  0  0  0  0  0  0  0  0  0
   22.3938  -18.9613  -17.6001 C   0  0  0  0  0  0  0  0  0  0  0  0
   21.8996  -19.0549  -16.1731 C   0  0  0  0  0  0  0  0  0  0  0  0
   22.9049  -19.8129  -15.3398 C   0  0  0  0  0  0  0  0  0  0  0  0
   22.5091  -19.9405  -13.8985 C   0  0  2  0  0  0  0  0  0  0  0  0
   23.5007  -20.6753  -13.1287 N   0  0  0  0  0  0  0  0  0  0  0  0
   21.1891  -20.5638  -13.7412 C   0  0  0  0  0  0  0  0  0  0  0  0
   20.0341  -19.8137  -13.8951 O   0  0  0  0  0  0  0  0  0  0  0  0
   21.1066  -21.7818  -13.4660 O   0  0  0  0  0  0  0  0  0  0  0  0
  2  1  1  0
  3  2  1  0
  3  4  1  6
  5  3  1  0
  6  5  2  0
  7  8  1  0
  8 10  1  0
  9  8  2  0
 10 11  1  0
 12 11  1  1
 12 13  1  0
 13  5  1  0
 14 15  2  0
 14 12  1  0
 17 16  1  0
 17 19  1  0
 18 17  2  0
 20 19  1  0
 21 22  1  0
 21 20  1  0
 23 22  1  6
 23 24  1  0
 24 14  1  0
 25 23  1  0
 26 25  1  0
 27 25  2  0
M  END
$$$$
