SQR.pdb
     RDKit          3D

 27 26  0  0  1  0  0  0  0  0999 V2000
   14.9390  -13.9636  -10.6455 O   0  0  0  0  0  0  0  0  0  0  0  0
   15.1671  -12.6987  -11.2151 C   0  0  0  0  0  0  0  0  0  0  0  0
   14.3917  -11.6669  -10.4300 C   0  0  2  0  0  0  0  0  0  0  0  0
   12.9875  -11.8896  -10.5553 N   0  0  0  0  0  0  0  0  0  0  0  0
   14.7843  -10.2959  -10.9141 C   0  0  0  0  0  0  0  0  0  0  0  0
   14.2593   -9.8364  -11.9466 O   0  0  0  0  0  0  0  0  0  0  0  0
   14.9325   -5.2497   -7.4897 N   0  0  0  0  0  0  0  0  0  0  0  0
   15.6149   -4.8258   -8.6591 C   0  0  0  0  0  0  0  0  0  0  0  0
   15.8294   -3.6040   -8.7997 O   0  0  0  0  0  0  0  0  0  0  0  0
   16.0456   -5.7998   -9.6537 C   0  0  0  0  0  0  0  0  0  0  0  0
   15.7325   -7.2275   -9.3727 C   0  0  0  0  0  0  0  0  0  0  0  0
   16.1227   -8.1796  -10.4384 C   0  0  2  0  0  0  0  0  0  0  0  0
   15.7400   -9.5281  -10.2101 N   0  0  0  0  0  0  0  0  0  0  0  0
   17.5524   -7.9920  -10.8450 C   0  0  0  0  0  0  0  0  0  0  0  0
   18.5084   -8.2255  -10.0689 O   0  0  0  0  0  0  0  0  0  0  0  0
   22.9045  -10.0798  -14.8099 N   0  0  0  0  0  0  0  0  0  0  0  0
   22.0818  -10.9433  -15.6102 C   0  0  0  0  0  0  0  0  0  0  0  0
   22.4844  -12.1374  -15.8127 N   0  0  0  0  0  0  0  0  0  0  0  0
   20.8682  -10.4879  -16.1553 N   0  0  0  0  0  0  0  0  0  0  0  0
   20.3369   -9.2060  -15.7864 C   0  0  0  0  0  0  0  0  0  0  0  0
   20.1136   -9.0553  -14.2976 C   0  0  0  0  0  0  0  0  0  0  0  0
   19.5030   -7.7041  -14.0132 C   0  0  0  0  0  0  0  0  0  0  0  0
   19.3217   -7.4279  -12.5499 C   0  0  2  0  0  0  0  0  0  0  0  0
   17.9278   -7.5350  -12.1483 N   0  0  0  0  0  0  0  0  0  0  0  0
   19.8551   -6.1151  -12.1653 C   0  0  0  0  0  0  0  0  0  0  0  0
   21.2192   -5.9290  -12.0073 O   0  0  0  0  0  0  0  0  0  0  0  0
   19.0718   -5.1572  -11.9787 O   0  0  0  0  0  0  0  0  0  0  0  0
  2  1  1  0
  3  2  1  0
  3  4  1  6
  5  3  1  0
  6  5  2  0
  7  8  1  0
  8 10  1  0
  9  8  2  0
 10 11  1  0
 12 11  1  1
 12 13  1  0
 13  5  1  0
 14 15  2  0
 14 12  1  0
 17 16  1  0
 17 19  1  0
 18 17  2  0
 20 19  1  0
 21 22  1  0
 21 20  1  0
 23 22  1  6
 23 24  1  0
 24 14  1  0
 25 23  1  0
 26 25  1  0
 27 25  2  0
M  END
$$$$
