SQR.pdb
     RDKit          3D

 27 26  0  0  1  0  0  0  0  0999 V2000
   30.5129  -23.0028   -9.2159 O   0  0  0  0  0  0  0  0  0  0  0  0
   29.5015  -22.1090   -9.6091 C   0  0  0  0  0  0  0  0  0  0  0  0
   29.7984  -21.6272  -11.0097 C   0  0  2  0  0  0  0  0  0  0  0  0
   31.1190  -21.0914  -11.0885 N   0  0  0  0  0  0  0  0  0  0  0  0
   28.7595  -20.6096  -11.4012 C   0  0  0  0  0  0  0  0  0  0  0  0
   28.6288  -19.5736  -10.7211 O   0  0  0  0  0  0  0  0  0  0  0  0
   28.2986  -17.5320  -16.3719 N   0  0  0  0  0  0  0  0  0  0  0  0
   28.0739  -18.9191  -16.5674 C   0  0  0  0  0  0  0  0  0  0  0  0
   28.2727  -19.3882  -17.7071 O   0  0  0  0  0  0  0  0  0  0  0  0
   27.6263  -19.7552  -15.4611 C   0  0  0  0  0  0  0  0  0  0  0  0
   27.3908  -19.0738  -14.1589 C   0  0  0  0  0  0  0  0  0  0  0  0
   26.9371  -19.9563  -13.0591 C   0  0  2  0  0  0  0  0  0  0  0  0
   27.9337  -20.8185  -12.5294 N   0  0  0  0  0  0  0  0  0  0  0  0
   25.6392  -20.6262  -13.3931 C   0  0  0  0  0  0  0  0  0  0  0  0
   25.5609  -21.5679  -14.2162 O   0  0  0  0  0  0  0  0  0  0  0  0
   18.5813  -23.3442  -11.4890 N   0  0  0  0  0  0  0  0  0  0  0  0
   19.1220  -22.7378  -10.3045 C   0  0  0  0  0  0  0  0  0  0  0  0
   19.1124  -23.4178   -9.2244 N   0  0  0  0  0  0  0  0  0  0  0  0
   19.6470  -21.4336  -10.3325 N   0  0  0  0  0  0  0  0  0  0  0  0
   19.6634  -20.6786  -11.5537 C   0  0  0  0  0  0  0  0  0  0  0  0
   20.7152  -21.1480  -12.5348 C   0  0  0  0  0  0  0  0  0  0  0  0
   22.0446  -20.5226  -12.1867 C   0  0  0  0  0  0  0  0  0  0  0  0
   23.1471  -20.9018  -13.1306 C   0  0  2  0  0  0  0  0  0  0  0  0
   24.3979  -20.2396  -12.7948 N   0  0  0  0  0  0  0  0  0  0  0  0
   22.7948  -20.6291  -14.5296 C   0  0  0  0  0  0  0  0  0  0  0  0
   23.0094  -19.3743  -15.0773 O   0  0  0  0  0  0  0  0  0  0  0  0
   22.2969  -21.5367  -15.2327 O   0  0  0  0  0  0  0  0  0  0  0  0
  2  1  1  0
  3  2  1  0
  3  4  1  1
  5  3  1  0
  6  5  2  0
  7  8  1  0
  8 10  1  0
  9  8  2  0
 10 11  1  0
 12 11  1  6
 12 13  1  0
 13  5  1  0
 14 15  2  0
 14 12  1  0
 17 16  1  0
 17 19  1  0
 18 17  2  0
 20 19  1  0
 21 22  1  0
 21 20  1  0
 23 22  1  1
 23 24  1  0
 24 14  1  0
 25 23  1  0
 26 25  1  0
 27 25  2  0
M  END
$$$$
