SQR.pdb
     RDKit          3D

 27 26  0  0  1  0  0  0  0  0999 V2000
   18.1437  -24.8551   -7.9078 O   0  0  0  0  0  0  0  0  0  0  0  0
   18.7111  -24.5496   -9.1572 C   0  0  0  0  0  0  0  0  0  0  0  0
   17.8330  -25.1270  -10.2424 C   0  0  2  0  0  0  0  0  0  0  0  0
   17.9823  -26.5450  -10.3095 N   0  0  0  0  0  0  0  0  0  0  0  0
   18.1832  -24.4669  -11.5499 C   0  0  0  0  0  0  0  0  0  0  0  0
   19.0394  -24.9880  -12.2902 O   0  0  0  0  0  0  0  0  0  0  0  0
   14.2481  -20.5768  -14.6611 N   0  0  0  0  0  0  0  0  0  0  0  0
   14.3770  -21.9875  -14.7386 C   0  0  0  0  0  0  0  0  0  0  0  0
   13.4480  -22.6308  -15.2692 O   0  0  0  0  0  0  0  0  0  0  0  0
   15.5641  -22.6481  -14.2113 C   0  0  0  0  0  0  0  0  0  0  0  0
   16.6243  -21.7696  -13.6460 C   0  0  0  0  0  0  0  0  0  0  0  0
   17.8043  -22.4785  -13.0988 C   0  0  2  0  0  0  0  0  0  0  0  0
   17.5513  -23.2651  -11.9436 N   0  0  0  0  0  0  0  0  0  0  0  0
   18.9901  -21.5690  -12.9927 C   0  0  0  0  0  0  0  0  0  0  0  0
   19.1542  -20.7880  -12.0263 O   0  0  0  0  0  0  0  0  0  0  0  0
   27.1216  -21.8808  -15.3616 N   0  0  0  0  0  0  0  0  0  0  0  0
   26.9235  -20.4658  -15.5076 C   0  0  0  0  0  0  0  0  0  0  0  0
   27.7602  -19.8127  -16.2166 N   0  0  0  0  0  0  0  0  0  0  0  0
   25.8400  -19.8175  -14.8885 N   0  0  0  0  0  0  0  0  0  0  0  0
   24.7570  -20.5766  -14.3294 C   0  0  0  0  0  0  0  0  0  0  0  0
   23.4129  -20.2413  -14.9376 C   0  0  0  0  0  0  0  0  0  0  0  0
   22.3956  -21.2731  -14.5132 C   0  0  0  0  0  0  0  0  0  0  0  0
   21.1934  -20.6823  -13.8379 C   0  0  2  0  0  0  0  0  0  0  0  0
   20.0199  -21.5288  -13.9858 N   0  0  0  0  0  0  0  0  0  0  0  0
   20.8987  -19.3274  -14.3209 C   0  0  0  0  0  0  0  0  0  0  0  0
   21.6363  -18.2441  -13.8704 O   0  0  0  0  0  0  0  0  0  0  0  0
   19.9744  -19.1496  -15.1455 O   0  0  0  0  0  0  0  0  0  0  0  0
  2  1  1  0
  3  2  1  0
  3  4  1  6
  5  3  1  0
  6  5  2  0
  7  8  1  0
  8 10  1  0
  9  8  2  0
 10 11  1  0
 12 11  1  1
 12 13  1  0
 13  5  1  0
 14 15  2  0
 14 12  1  0
 17 16  1  0
 17 19  1  0
 18 17  2  0
 20 19  1  0
 21 22  1  0
 21 20  1  0
 23 22  1  6
 23 24  1  0
 24 14  1  0
 25 23  1  0
 26 25  1  0
 27 25  2  0
M  END
$$$$
