SQR.pdb
     RDKit          3D

 27 26  0  0  1  0  0  0  0  0999 V2000
   19.1857  -23.4620  -14.3620 O   0  0  0  0  0  0  0  0  0  0  0  0
   19.0711  -23.7095  -12.9829 C   0  0  0  0  0  0  0  0  0  0  0  0
   18.5943  -22.4481  -12.3022 C   0  0  2  0  0  0  0  0  0  0  0  0
   17.3966  -21.9685  -12.9128 N   0  0  0  0  0  0  0  0  0  0  0  0
   19.6966  -21.4235  -12.3561 C   0  0  0  0  0  0  0  0  0  0  0  0
   19.5164  -20.3608  -12.9814 O   0  0  0  0  0  0  0  0  0  0  0  0
   24.8573  -21.2201   -8.4193 N   0  0  0  0  0  0  0  0  0  0  0  0
   25.1019  -20.2530   -9.4281 C   0  0  0  0  0  0  0  0  0  0  0  0
   26.1043  -19.5195   -9.3034 O   0  0  0  0  0  0  0  0  0  0  0  0
   24.2015  -20.1343  -10.5676 C   0  0  0  0  0  0  0  0  0  0  0  0
   22.9950  -21.0060  -10.5619 C   0  0  0  0  0  0  0  0  0  0  0  0
   22.1014  -20.8527  -11.7333 C   0  0  2  0  0  0  0  0  0  0  0  0
   20.9302  -21.6557  -11.7058 N   0  0  0  0  0  0  0  0  0  0  0  0
   22.8688  -20.9039  -13.0191 C   0  0  0  0  0  0  0  0  0  0  0  0
   23.0207  -21.9643  -13.6697 O   0  0  0  0  0  0  0  0  0  0  0  0
   29.5846  -23.5126  -15.9973 N   0  0  0  0  0  0  0  0  0  0  0  0
   29.0395  -22.9826  -17.2160 C   0  0  0  0  0  0  0  0  0  0  0  0
   29.6568  -23.2277  -18.3059 N   0  0  0  0  0  0  0  0  0  0  0  0
   27.8605  -22.2163  -17.2101 N   0  0  0  0  0  0  0  0  0  0  0  0
   27.1788  -21.9338  -15.9783 C   0  0  0  0  0  0  0  0  0  0  0  0
   26.0228  -20.9712  -16.1399 C   0  0  0  0  0  0  0  0  0  0  0  0
   25.3529  -20.7586  -14.8036 C   0  0  0  0  0  0  0  0  0  0  0  0
   24.1940  -19.8078  -14.8623 C   0  0  2  0  0  0  0  0  0  0  0  0
   23.4808  -19.7460  -13.5961 N   0  0  0  0  0  0  0  0  0  0  0  0
   23.2621  -20.1392  -15.9474 C   0  0  0  0  0  0  0  0  0  0  0  0
   23.1459  -19.3110  -17.0524 O   0  0  0  0  0  0  0  0  0  0  0  0
   22.5674  -21.1775  -15.8737 O   0  0  0  0  0  0  0  0  0  0  0  0
  2  1  1  0
  3  2  1  0
  3  4  1  6
  5  3  1  0
  6  5  2  0
  7  8  1  0
  8 10  1  0
  9  8  2  0
 10 11  1  0
 12 11  1  1
 12 13  1  0
 13  5  1  0
 14 15  2  0
 14 12  1  0
 17 16  1  0
 17 19  1  0
 18 17  2  0
 20 19  1  0
 21 22  1  0
 21 20  1  0
 23 22  1  1
 23 24  1  0
 24 14  1  0
 25 23  1  0
 26 25  1  0
 27 25  2  0
M  END
$$$$
