SQR.pdb
     RDKit          3D

 27 26  0  0  1  0  0  0  0  0999 V2000
   14.4753   -9.8705  -16.2126 O   0  0  0  0  0  0  0  0  0  0  0  0
   14.9294   -9.2556  -15.0329 C   0  0  0  0  0  0  0  0  0  0  0  0
   16.0610  -10.0778  -14.4624 C   0  0  2  0  0  0  0  0  0  0  0  0
   15.6512  -11.4310  -14.2669 N   0  0  0  0  0  0  0  0  0  0  0  0
   16.5194   -9.4426  -13.1762 C   0  0  0  0  0  0  0  0  0  0  0  0
   15.9929   -9.7867  -12.1004 O   0  0  0  0  0  0  0  0  0  0  0  0
   22.0923   -6.2518  -12.6147 N   0  0  0  0  0  0  0  0  0  0  0  0
   21.8326   -7.6363  -12.7836 C   0  0  0  0  0  0  0  0  0  0  0  0
   22.7992   -8.3857  -13.0340 O   0  0  0  0  0  0  0  0  0  0  0  0
   20.4744   -8.1502  -12.6639 C   0  0  0  0  0  0  0  0  0  0  0  0
   19.4181   -7.1710  -12.2884 C   0  0  0  0  0  0  0  0  0  0  0  0
   18.0715   -7.7489  -12.0721 C   0  0  2  0  0  0  0  0  0  0  0  0
   17.5382   -8.4625  -13.1783 N   0  0  0  0  0  0  0  0  0  0  0  0
   17.1379   -6.7502  -11.4591 C   0  0  0  0  0  0  0  0  0  0  0  0
   16.4636   -5.9492  -12.1478 O   0  0  0  0  0  0  0  0  0  0  0  0
   10.8937   -7.3686   -5.7989 N   0  0  0  0  0  0  0  0  0  0  0  0
   11.3613   -7.7520   -7.1017 C   0  0  0  0  0  0  0  0  0  0  0  0
   10.8490   -8.7886   -7.6422 N   0  0  0  0  0  0  0  0  0  0  0  0
   12.3542   -7.0081   -7.7638 N   0  0  0  0  0  0  0  0  0  0  0  0
   13.0926   -5.9926   -7.0672 C   0  0  0  0  0  0  0  0  0  0  0  0
   14.0916   -5.2698   -7.9439 C   0  0  0  0  0  0  0  0  0  0  0  0
   15.0235   -6.2732   -8.5799 C   0  0  0  0  0  0  0  0  0  0  0  0
   16.0595   -5.6466   -9.4655 C   0  0  2  0  0  0  0  0  0  0  0  0
   16.9487   -6.6414  -10.0447 N   0  0  0  0  0  0  0  0  0  0  0  0
   16.8424   -4.6233   -8.7613 C   0  0  0  0  0  0  0  0  0  0  0  0
   16.2958   -3.3775   -8.4975 O   0  0  0  0  0  0  0  0  0  0  0  0
   18.0120   -4.8783   -8.3968 O   0  0  0  0  0  0  0  0  0  0  0  0
  2  1  1  0
  3  2  1  0
  3  4  1  1
  5  3  1  0
  6  5  2  0
  7  8  1  0
  8 10  1  0
  9  8  2  0
 10 11  1  0
 12 11  1  6
 12 13  1  0
 13  5  1  0
 14 15  2  0
 14 12  1  0
 17 16  1  0
 17 19  1  0
 18 17  2  0
 20 19  1  0
 21 22  1  0
 21 20  1  0
 23 22  1  1
 23 24  1  0
 24 14  1  0
 25 23  1  0
 26 25  1  0
 27 25  2  0
M  END
$$$$
