SQR.pdb
     RDKit          3D

 27 26  0  0  1  0  0  0  0  0999 V2000
   26.2630  -15.3078  -16.4173 O   0  0  0  0  0  0  0  0  0  0  0  0
   27.6288  -15.6352  -16.3573 C   0  0  0  0  0  0  0  0  0  0  0  0
   27.9885  -16.4400  -17.5841 C   0  0  2  0  0  0  0  0  0  0  0  0
   27.7471  -15.6842  -18.7706 N   0  0  0  0  0  0  0  0  0  0  0  0
   27.1991  -17.7224  -17.5694 C   0  0  0  0  0  0  0  0  0  0  0  0
   26.1463  -17.8022  -18.2313 O   0  0  0  0  0  0  0  0  0  0  0  0
   29.5876  -23.5330  -16.1321 N   0  0  0  0  0  0  0  0  0  0  0  0
   28.1801  -23.7105  -16.1483 C   0  0  0  0  0  0  0  0  0  0  0  0
   27.7346  -24.8637  -15.9746 O   0  0  0  0  0  0  0  0  0  0  0  0
   27.2971  -22.5710  -16.3611 C   0  0  0  0  0  0  0  0  0  0  0  0
   27.9338  -21.2260  -16.3887 C   0  0  0  0  0  0  0  0  0  0  0  0
   27.0137  -20.0990  -16.6673 C   0  0  2  0  0  0  0  0  0  0  0  0
   27.6402  -18.8328  -16.8139 N   0  0  0  0  0  0  0  0  0  0  0  0
   25.8335  -20.1133  -15.7443 C   0  0  0  0  0  0  0  0  0  0  0  0
   25.9243  -19.8082  -14.5321 O   0  0  0  0  0  0  0  0  0  0  0  0
   17.6130  -22.3275  -16.3500 N   0  0  0  0  0  0  0  0  0  0  0  0
   17.4388  -21.3354  -15.3261 C   0  0  0  0  0  0  0  0  0  0  0  0
   16.3643  -21.3656  -14.6378 N   0  0  0  0  0  0  0  0  0  0  0  0
   18.4224  -20.3592  -15.0875 N   0  0  0  0  0  0  0  0  0  0  0  0
   19.6173  -20.3162  -15.8826 C   0  0  0  0  0  0  0  0  0  0  0  0
   20.8818  -20.5137  -15.0758 C   0  0  0  0  0  0  0  0  0  0  0  0
   22.0800  -20.4506  -15.9923 C   0  0  0  0  0  0  0  0  0  0  0  0
   23.3907  -20.5104  -15.2650 C   0  0  2  0  0  0  0  0  0  0  0  0
   24.5196  -20.4745  -16.1815 N   0  0  0  0  0  0  0  0  0  0  0  0
   23.4870  -21.6901  -14.3963 C   0  0  0  0  0  0  0  0  0  0  0  0
   23.0818  -21.6240  -13.0727 O   0  0  0  0  0  0  0  0  0  0  0  0
   23.9387  -22.7634  -14.8547 O   0  0  0  0  0  0  0  0  0  0  0  0
  2  1  1  0
  3  2  1  0
  3  4  1  6
  5  3  1  0
  6  5  2  0
  7  8  1  0
  8 10  1  0
  9  8  2  0
 10 11  1  0
 12 11  1  1
 12 13  1  0
 13  5  1  0
 14 15  2  0
 14 12  1  0
 17 16  1  0
 17 19  1  0
 18 17  2  0
 20 19  1  0
 21 22  1  0
 21 20  1  0
 23 22  1  6
 23 24  1  0
 24 14  1  0
 25 23  1  0
 26 25  1  0
 27 25  2  0
M  END
$$$$
