SQR.pdb
     RDKit          3D

 27 26  0  0  1  0  0  0  0  0999 V2000
   21.8162  -22.3284   -8.2831 O   0  0  0  0  0  0  0  0  0  0  0  0
   22.2852  -21.5700   -9.3698 C   0  0  0  0  0  0  0  0  0  0  0  0
   23.7150  -21.1658   -9.0974 C   0  0  2  0  0  0  0  0  0  0  0  0
   23.8023  -20.4049   -7.8930 N   0  0  0  0  0  0  0  0  0  0  0  0
   24.2337  -20.3951  -10.2827 C   0  0  0  0  0  0  0  0  0  0  0  0
   23.9600  -19.1845  -10.3947 O   0  0  0  0  0  0  0  0  0  0  0  0
   28.9364  -22.1871  -14.3904 N   0  0  0  0  0  0  0  0  0  0  0  0
   28.2265  -21.1495  -15.0477 C   0  0  0  0  0  0  0  0  0  0  0  0
   28.6638  -20.7471  -16.1457 O   0  0  0  0  0  0  0  0  0  0  0  0
   27.0259  -20.5838  -14.4463 C   0  0  0  0  0  0  0  0  0  0  0  0
   26.6396  -21.1029  -13.1059 C   0  0  0  0  0  0  0  0  0  0  0  0
   25.3836  -20.5456  -12.5524 C   0  0  2  0  0  0  0  0  0  0  0  0
   25.0255  -21.0306  -11.2665 N   0  0  0  0  0  0  0  0  0  0  0  0
   24.2790  -20.5718  -13.5644 C   0  0  0  0  0  0  0  0  0  0  0  0
   23.5867  -21.5945  -13.7776 O   0  0  0  0  0  0  0  0  0  0  0  0
   18.1309  -14.7270  -15.5968 N   0  0  0  0  0  0  0  0  0  0  0  0
   17.7654  -15.8976  -16.3446 C   0  0  0  0  0  0  0  0  0  0  0  0
   16.6156  -15.9212  -16.8983 N   0  0  0  0  0  0  0  0  0  0  0  0
   18.6473  -16.9864  -16.4642 N   0  0  0  0  0  0  0  0  0  0  0  0
   19.8450  -17.0466  -15.6746 C   0  0  0  0  0  0  0  0  0  0  0  0
   20.7034  -18.2549  -15.9785 C   0  0  0  0  0  0  0  0  0  0  0  0
   21.8714  -18.2972  -15.0227 C   0  0  0  0  0  0  0  0  0  0  0  0
   22.8030  -19.4466  -15.2703 C   0  0  2  0  0  0  0  0  0  0  0  0
   23.9352  -19.4311  -14.3574 N   0  0  0  0  0  0  0  0  0  0  0  0
   23.2787  -19.4828  -16.6589 C   0  0  0  0  0  0  0  0  0  0  0  0
   22.5172  -20.0849  -17.6479 O   0  0  0  0  0  0  0  0  0  0  0  0
   24.3803  -18.9661  -16.9514 O   0  0  0  0  0  0  0  0  0  0  0  0
  2  1  1  0
  3  2  1  0
  3  4  1  1
  5  3  1  0
  6  5  2  0
  7  8  1  0
  8 10  1  0
  9  8  2  0
 10 11  1  0
 12 11  1  6
 12 13  1  0
 13  5  1  0
 14 15  2  0
 14 12  1  0
 17 16  1  0
 17 19  1  0
 18 17  2  0
 20 19  1  0
 21 22  1  0
 21 20  1  0
 23 22  1  6
 23 24  1  0
 24 14  1  0
 25 23  1  0
 26 25  1  0
 27 25  2  0
M  END
$$$$
