SQR.pdb
     RDKit          3D

 27 26  0  0  1  0  0  0  0  0999 V2000
   28.6653  -19.0474  -18.7919 O   0  0  0  0  0  0  0  0  0  0  0  0
   28.0492  -18.8250  -20.0358 C   0  0  0  0  0  0  0  0  0  0  0  0
   27.4977  -17.4188  -20.0588 C   0  0  2  0  0  0  0  0  0  0  0  0
   28.5390  -16.4737  -20.3033 N   0  0  0  0  0  0  0  0  0  0  0  0
   26.7983  -17.1524  -18.7520 C   0  0  0  0  0  0  0  0  0  0  0  0
   27.1541  -16.1850  -18.0519 O   0  0  0  0  0  0  0  0  0  0  0  0
   20.7606  -16.7293  -17.1391 N   0  0  0  0  0  0  0  0  0  0  0  0
   21.6949  -15.7256  -16.7752 C   0  0  0  0  0  0  0  0  0  0  0  0
   21.2523  -14.6628  -16.2923 O   0  0  0  0  0  0  0  0  0  0  0  0
   23.1228  -15.9457  -16.9651 C   0  0  0  0  0  0  0  0  0  0  0  0
   23.5206  -17.1989  -17.6629 C   0  0  0  0  0  0  0  0  0  0  0  0
   24.8286  -17.7603  -17.2528 C   0  0  2  0  0  0  0  0  0  0  0  0
   25.7451  -17.9875  -18.3138 N   0  0  0  0  0  0  0  0  0  0  0  0
   24.6599  -18.9126  -16.3102 C   0  0  0  0  0  0  0  0  0  0  0  0
   24.2983  -20.0490  -16.6956 O   0  0  0  0  0  0  0  0  0  0  0  0
   22.8847  -19.7111   -9.4049 N   0  0  0  0  0  0  0  0  0  0  0  0
   23.7599  -20.5884   -8.6786 C   0  0  0  0  0  0  0  0  0  0  0  0
   23.3136  -21.1360   -7.6155 N   0  0  0  0  0  0  0  0  0  0  0  0
   25.0700  -20.8378   -9.1245 N   0  0  0  0  0  0  0  0  0  0  0  0
   25.5906  -20.1598  -10.2782 C   0  0  0  0  0  0  0  0  0  0  0  0
   24.8417  -20.4830  -11.5524 C   0  0  0  0  0  0  0  0  0  0  0  0
   25.4476  -19.7148  -12.7024 C   0  0  0  0  0  0  0  0  0  0  0  0
   24.7328  -19.9278  -14.0039 C   0  0  2  0  0  0  0  0  0  0  0  0
   24.9012  -18.7978  -14.9043 N   0  0  0  0  0  0  0  0  0  0  0  0
   23.3043  -20.2066  -13.8104 C   0  0  0  0  0  0  0  0  0  0  0  0
   22.3530  -19.2442  -14.1092 O   0  0  0  0  0  0  0  0  0  0  0  0
   22.9433  -21.3218  -13.3723 O   0  0  0  0  0  0  0  0  0  0  0  0
  2  1  1  0
  3  2  1  0
  3  4  1  1
  5  3  1  0
  6  5  2  0
  7  8  1  0
  8 10  1  0
  9  8  2  0
 10 11  1  0
 12 11  1  6
 12 13  1  0
 13  5  1  0
 14 15  2  0
 14 12  1  0
 17 16  1  0
 17 19  1  0
 18 17  2  0
 20 19  1  0
 21 22  1  0
 21 20  1  0
 23 22  1  1
 23 24  1  0
 24 14  1  0
 25 23  1  0
 26 25  1  0
 27 25  2  0
M  END
$$$$
