CST.pdb
     RDKit          3D

 20 19  0  0  1  0  0  0  0  0999 V2000
   24.9962  -12.5046  -15.7382 N   0  0  0  0  0  0  0  0  0  0  0  0
   25.2808  -11.7572  -16.9156 C   0  0  1  0  0  0  0  0  0  0  0  0
   25.1307  -12.6942  -18.1157 C   0  0  0  0  0  0  0  0  0  0  0  0
   26.0192  -14.2492  -17.8123 S   0  0  0  0  0  0  0  0  0  0  0  0
   24.3753  -10.6250  -17.1574 C   0  0  0  0  0  0  0  0  0  0  0  0
   24.5983   -9.9099  -18.1723 O   0  0  0  0  0  0  0  0  0  0  0  0
   21.0493  -10.1496  -14.9938 O   0  0  0  0  0  0  0  0  0  0  0  0
   20.9993   -9.5809  -16.2823 C   0  0  0  0  0  0  0  0  0  0  0  0
   22.4282   -9.1182  -16.5943 C   0  0  2  0  0  0  0  0  0  0  0  0
   23.2766  -10.2683  -16.3515 N   0  0  0  0  0  0  0  0  0  0  0  0
   22.8034   -7.9609  -15.7591 C   0  0  0  0  0  0  0  0  0  0  0  0
   23.4142   -8.1809  -14.6844 O   0  0  0  0  0  0  0  0  0  0  0  0
   22.9629   -3.0419  -15.3722 C   0  0  0  0  0  0  0  0  0  0  0  0
   22.5051   -4.2194  -16.1857 C   0  0  1  0  0  0  0  0  0  0  0  0
   23.1834   -4.1919  -17.4016 O   0  0  0  0  0  0  0  0  0  0  0  0
   22.8184   -5.4863  -15.4183 C   0  0  2  0  0  0  0  0  0  0  0  0
   22.4526   -6.6650  -16.2181 N   0  0  0  0  0  0  0  0  0  0  0  0
   22.0947   -5.5406  -14.1281 C   0  0  0  0  0  0  0  0  0  0  0  0
   20.8138   -6.0691  -14.0505 O   0  0  0  0  0  0  0  0  0  0  0  0
   22.5908   -5.1177  -13.0445 O   0  0  0  0  0  0  0  0  0  0  0  0
  2  5  1  0
  2  1  1  1
  3  2  1  0
  4  3  1  0
  5  6  2  0
  7  8  1  0
  9  8  1  1
 10  9  1  0
 10  5  1  0
 11  9  1  0
 12 11  2  0
 14 13  1  1
 14 15  1  0
 14 16  1  0
 16 18  1  0
 16 17  1  6
 17 11  1  0
 18 19  1  0
 20 18  2  0
M  END
$$$$
