CST.pdb
     RDKit          3D

 20 19  0  0  1  0  0  0  0  0999 V2000
   14.2950  -13.4247  -12.1429 N   0  0  0  0  0  0  0  0  0  0  0  0
   13.8152  -12.1049  -11.9104 C   0  0  1  0  0  0  0  0  0  0  0  0
   12.4586  -12.2136  -11.2114 C   0  0  0  0  0  0  0  0  0  0  0  0
   11.8129  -10.5582  -10.8343 S   0  0  0  0  0  0  0  0  0  0  0  0
   14.6681  -11.2872  -11.0362 C   0  0  0  0  0  0  0  0  0  0  0  0
   15.0285  -11.7934   -9.9385 O   0  0  0  0  0  0  0  0  0  0  0  0
   17.3597   -8.8670  -12.2066 O   0  0  0  0  0  0  0  0  0  0  0  0
   17.3472   -9.2836  -10.8604 C   0  0  0  0  0  0  0  0  0  0  0  0
   15.8890   -9.1705  -10.3978 C   0  0  2  0  0  0  0  0  0  0  0  0
   15.1192   -9.9833  -11.3189 N   0  0  0  0  0  0  0  0  0  0  0  0
   15.4448   -7.7632  -10.3891 C   0  0  0  0  0  0  0  0  0  0  0  0
   14.9380   -7.2970  -11.4390 O   0  0  0  0  0  0  0  0  0  0  0  0
   14.9137   -3.6185   -7.7570 C   0  0  0  0  0  0  0  0  0  0  0  0
   15.3083   -5.0683   -7.7478 C   0  0  1  0  0  0  0  0  0  0  0  0
   14.4205   -5.7505   -6.9198 O   0  0  0  0  0  0  0  0  0  0  0  0
   15.2414   -5.5949   -9.1656 C   0  0  2  0  0  0  0  0  0  0  0  0
   15.6156   -7.0169   -9.1946 N   0  0  0  0  0  0  0  0  0  0  0  0
   16.1394   -4.8456  -10.0732 C   0  0  0  0  0  0  0  0  0  0  0  0
   17.4097   -5.3191  -10.3705 O   0  0  0  0  0  0  0  0  0  0  0  0
   15.8084   -3.7539  -10.6188 O   0  0  0  0  0  0  0  0  0  0  0  0
  2  5  1  0
  2  1  1  1
  3  2  1  0
  4  3  1  0
  5  6  2  0
  7  8  1  0
  9  8  1  6
 10  9  1  0
 10  5  1  0
 11  9  1  0
 12 11  2  0
 14 13  1  6
 14 15  1  0
 14 16  1  0
 16 18  1  0
 16 17  1  1
 17 11  1  0
 18 19  1  0
 20 18  2  0
M  END
$$$$
