CST.pdb
     RDKit          3D

 20 19  0  0  1  0  0  0  0  0999 V2000
   19.2868  -12.7583  -17.0410 N   0  0  0  0  0  0  0  0  0  0  0  0
   20.1993  -12.0059  -16.2490 C   0  0  1  0  0  0  0  0  0  0  0  0
   21.5589  -12.0262  -16.9503 C   0  0  0  0  0  0  0  0  0  0  0  0
   22.4537  -13.5527  -16.5398 S   0  0  0  0  0  0  0  0  0  0  0  0
   19.8414  -10.5906  -16.0787 C   0  0  0  0  0  0  0  0  0  0  0  0
   19.5770   -9.9294  -17.1199 O   0  0  0  0  0  0  0  0  0  0  0  0
   18.2138   -7.0451  -13.3266 O   0  0  0  0  0  0  0  0  0  0  0  0
   18.5288   -8.4107  -13.4745 C   0  0  0  0  0  0  0  0  0  0  0  0
   19.4228   -8.5047  -14.7176 C   0  0  2  0  0  0  0  0  0  0  0  0
   19.7678   -9.9065  -14.8497 N   0  0  0  0  0  0  0  0  0  0  0  0
   20.6152   -7.6467  -14.5773 C   0  0  0  0  0  0  0  0  0  0  0  0
   21.5949   -8.0969  -13.9339 O   0  0  0  0  0  0  0  0  0  0  0  0
   22.9251   -3.5344  -15.9707 C   0  0  0  0  0  0  0  0  0  0  0  0
   21.6596   -4.3411  -16.0451 C   0  0  1  0  0  0  0  0  0  0  0  0
   21.5424   -4.8390  -17.3403 O   0  0  0  0  0  0  0  0  0  0  0  0
   21.7459   -5.4671  -15.0368 C   0  0  2  0  0  0  0  0  0  0  0  0
   20.5869   -6.3615  -15.1777 N   0  0  0  0  0  0  0  0  0  0  0  0
   21.7912   -4.9585  -13.6473 C   0  0  0  0  0  0  0  0  0  0  0  0
   22.9914   -4.8822  -12.9546 O   0  0  0  0  0  0  0  0  0  0  0  0
   20.7611   -4.5722  -13.0239 O   0  0  0  0  0  0  0  0  0  0  0  0
  2  5  1  0
  2  1  1  6
  3  2  1  0
  4  3  1  0
  5  6  2  0
  7  8  1  0
  9  8  1  1
 10  9  1  0
 10  5  1  0
 11  9  1  0
 12 11  2  0
 14 13  1  6
 14 15  1  0
 14 16  1  0
 16 18  1  0
 16 17  1  1
 17 11  1  0
 18 19  1  0
 20 18  2  0
M  END
$$$$
