CST.pdb
     RDKit          3D

 20 19  0  0  1  0  0  0  0  0999 V2000
   25.5845  -13.0108  -17.0786 N   0  0  0  0  0  0  0  0  0  0  0  0
   25.6663  -11.7454  -16.4321 C   0  0  1  0  0  0  0  0  0  0  0  0
   27.0549  -11.1651  -16.7073 C   0  0  0  0  0  0  0  0  0  0  0  0
   28.3301  -12.1865  -15.9136 S   0  0  0  0  0  0  0  0  0  0  0  0
   24.6978  -10.7485  -16.9102 C   0  0  0  0  0  0  0  0  0  0  0  0
   24.0902  -10.9994  -17.9868 O   0  0  0  0  0  0  0  0  0  0  0  0
   21.7928   -9.7102  -15.3151 O   0  0  0  0  0  0  0  0  0  0  0  0
   22.0455   -9.4353  -16.6740 C   0  0  0  0  0  0  0  0  0  0  0  0
   23.3472   -8.6243  -16.7049 C   0  0  2  0  0  0  0  0  0  0  0  0
   24.3884   -9.5336  -16.2684 N   0  0  0  0  0  0  0  0  0  0  0  0
   23.2480   -7.4323  -15.8406 C   0  0  0  0  0  0  0  0  0  0  0  0
   23.5791   -7.5473  -14.6349 O   0  0  0  0  0  0  0  0  0  0  0  0
   22.5703   -2.5494  -15.7089 C   0  0  0  0  0  0  0  0  0  0  0  0
   22.3366   -3.8192  -16.4776 C   0  0  1  0  0  0  0  0  0  0  0  0
   23.0772   -3.7518  -17.6549 O   0  0  0  0  0  0  0  0  0  0  0  0
   22.7802   -4.9881  -15.6237 C   0  0  2  0  0  0  0  0  0  0  0  0
   22.7841   -6.2237  -16.4213 N   0  0  0  0  0  0  0  0  0  0  0  0
   21.8970   -5.1787  -14.4511 C   0  0  0  0  0  0  0  0  0  0  0  0
   22.2689   -4.7179  -13.1958 O   0  0  0  0  0  0  0  0  0  0  0  0
   20.7763   -5.7599  -14.5232 O   0  0  0  0  0  0  0  0  0  0  0  0
  2  5  1  0
  2  1  1  6
  3  2  1  0
  4  3  1  0
  5  6  2  0
  7  8  1  0
  9  8  1  1
 10  9  1  0
 10  5  1  0
 11  9  1  0
 12 11  2  0
 14 13  1  1
 14 15  1  0
 14 16  1  0
 16 18  1  0
 16 17  1  6
 17 11  1  0
 18 19  1  0
 20 18  2  0
M  END
$$$$
