CST.pdb
     RDKit          3D

 20 19  0  0  1  0  0  0  0  0999 V2000
   19.8102  -13.1559  -16.1727 N   0  0  0  0  0  0  0  0  0  0  0  0
   20.3528  -12.0274  -16.8494 C   0  0  1  0  0  0  0  0  0  0  0  0
   19.9887  -12.1469  -18.3306 C   0  0  0  0  0  0  0  0  0  0  0  0
   20.8828  -13.5358  -19.0862 S   0  0  0  0  0  0  0  0  0  0  0  0
   19.8295  -10.7306  -16.3968 C   0  0  0  0  0  0  0  0  0  0  0  0
   18.5763  -10.5947  -16.3504 O   0  0  0  0  0  0  0  0  0  0  0  0
   21.9834   -8.4412  -14.1849 O   0  0  0  0  0  0  0  0  0  0  0  0
   20.5988   -8.1896  -14.1097 C   0  0  0  0  0  0  0  0  0  0  0  0
   20.0601   -8.3679  -15.5349 C   0  0  2  0  0  0  0  0  0  0  0  0
   20.6086   -9.6232  -16.0093 N   0  0  0  0  0  0  0  0  0  0  0  0
   20.4458   -7.2302  -16.3920 C   0  0  0  0  0  0  0  0  0  0  0  0
   21.5887   -7.2426  -16.9116 O   0  0  0  0  0  0  0  0  0  0  0  0
   19.0512   -6.0648  -19.5066 C   0  0  0  0  0  0  0  0  0  0  0  0
   18.8533   -4.9113  -18.5643 C   0  0  1  0  0  0  0  0  0  0  0  0
   17.5459   -4.9645  -18.0878 O   0  0  0  0  0  0  0  0  0  0  0  0
   19.8493   -5.0384  -17.4311 C   0  0  2  0  0  0  0  0  0  0  0  0
   19.5029   -6.1869  -16.5804 N   0  0  0  0  0  0  0  0  0  0  0  0
   19.8883   -3.8180  -16.5941 C   0  0  0  0  0  0  0  0  0  0  0  0
   19.4231   -3.8347  -15.2866 O   0  0  0  0  0  0  0  0  0  0  0  0
   20.3380   -2.7127  -17.0127 O   0  0  0  0  0  0  0  0  0  0  0  0
  2  5  1  0
  2  1  1  1
  3  2  1  0
  4  3  1  0
  5  6  2  0
  7  8  1  0
  9  8  1  1
 10  9  1  0
 10  5  1  0
 11  9  1  0
 12 11  2  0
 14 13  1  6
 14 15  1  0
 14 16  1  0
 16 18  1  0
 16 17  1  1
 17 11  1  0
 18 19  1  0
 20 18  2  0
M  END
$$$$
