CST.pdb
     RDKit          3D

 20 19  0  0  1  0  0  0  0  0999 V2000
   18.8437  -13.4036  -15.6267 N   0  0  0  0  0  0  0  0  0  0  0  0
   18.9517  -12.2331  -16.4294 C   0  0  1  0  0  0  0  0  0  0  0  0
   17.6940  -12.1387  -17.2955 C   0  0  0  0  0  0  0  0  0  0  0  0
   17.6692  -13.4852  -18.5144 S   0  0  0  0  0  0  0  0  0  0  0  0
   19.0299  -10.9755  -15.6729 C   0  0  0  0  0  0  0  0  0  0  0  0
   18.1226  -10.7502  -14.8260 O   0  0  0  0  0  0  0  0  0  0  0  0
   22.3184   -8.6612  -15.7594 O   0  0  0  0  0  0  0  0  0  0  0  0
   21.5340   -8.6122  -14.5897 C   0  0  0  0  0  0  0  0  0  0  0  0
   20.0789   -8.7637  -15.0515 C   0  0  2  0  0  0  0  0  0  0  0  0
   20.0334   -9.9970  -15.8121 N   0  0  0  0  0  0  0  0  0  0  0  0
   19.6539   -7.5983  -15.8508 C   0  0  0  0  0  0  0  0  0  0  0  0
   19.9731   -7.5662  -17.0647 O   0  0  0  0  0  0  0  0  0  0  0  0
   16.1039   -6.0232  -15.8544 C   0  0  0  0  0  0  0  0  0  0  0  0
   17.1009   -4.9579  -15.4952 C   0  0  1  0  0  0  0  0  0  0  0  0
   17.0763   -4.7944  -14.1126 O   0  0  0  0  0  0  0  0  0  0  0  0
   18.4702   -5.4015  -15.9647 C   0  0  2  0  0  0  0  0  0  0  0  0
   18.9085   -6.5802  -15.2021 N   0  0  0  0  0  0  0  0  0  0  0  0
   19.4787   -4.3291  -15.8090 C   0  0  0  0  0  0  0  0  0  0  0  0
   19.4162   -3.1744  -16.5764 O   0  0  0  0  0  0  0  0  0  0  0  0
   20.4356   -4.4010  -14.9854 O   0  0  0  0  0  0  0  0  0  0  0  0
  2  5  1  0
  2  1  1  1
  3  2  1  0
  4  3  1  0
  5  6  2  0
  7  8  1  0
  9  8  1  6
 10  9  1  0
 10  5  1  0
 11  9  1  0
 12 11  2  0
 14 13  1  1
 14 15  1  0
 14 16  1  0
 16 18  1  0
 16 17  1  1
 17 11  1  0
 18 19  1  0
 20 18  2  0
M  END
$$$$
