CST.pdb
     RDKit          3D

 20 19  0  0  1  0  0  0  0  0999 V2000
   20.0354  -12.5433  -17.6144 N   0  0  0  0  0  0  0  0  0  0  0  0
   20.9945  -11.5476  -17.2756 C   0  0  1  0  0  0  0  0  0  0  0  0
   21.8223  -11.2465  -18.5265 C   0  0  0  0  0  0  0  0  0  0  0  0
   22.8690  -12.6711  -18.9439 S   0  0  0  0  0  0  0  0  0  0  0  0
   20.4210  -10.2666  -16.8392 C   0  0  0  0  0  0  0  0  0  0  0  0
   19.3444   -9.8974  -17.3832 O   0  0  0  0  0  0  0  0  0  0  0  0
   20.3231   -9.2139  -13.3069 O   0  0  0  0  0  0  0  0  0  0  0  0
   19.4714   -8.5638  -14.2222 C   0  0  0  0  0  0  0  0  0  0  0  0
   20.3522   -8.1800  -15.4181 C   0  0  2  0  0  0  0  0  0  0  0  0
   20.9711   -9.4130  -15.8633 N   0  0  0  0  0  0  0  0  0  0  0  0
   21.3488   -7.1612  -15.0352 C   0  0  0  0  0  0  0  0  0  0  0  0
   22.4425   -7.5538  -14.5596 O   0  0  0  0  0  0  0  0  0  0  0  0
   21.6376   -3.9245  -17.3254 C   0  0  0  0  0  0  0  0  0  0  0  0
   21.6941   -3.5368  -15.8747 C   0  0  1  0  0  0  0  0  0  0  0  0
   20.4435   -3.0428  -15.5125 O   0  0  0  0  0  0  0  0  0  0  0  0
   22.0491   -4.7636  -15.0615 C   0  0  2  0  0  0  0  0  0  0  0  0
   21.0144   -5.7957  -15.2263 N   0  0  0  0  0  0  0  0  0  0  0  0
   22.1848   -4.4482  -13.6216 C   0  0  0  0  0  0  0  0  0  0  0  0
   21.3297   -5.0111  -12.6845 O   0  0  0  0  0  0  0  0  0  0  0  0
   23.0688   -3.6642  -13.1710 O   0  0  0  0  0  0  0  0  0  0  0  0
  2  5  1  0
  2  1  1  6
  3  2  1  0
  4  3  1  0
  5  6  2  0
  7  8  1  0
  9  8  1  1
 10  9  1  0
 10  5  1  0
 11  9  1  0
 12 11  2  0
 14 13  1  6
 14 15  1  0
 14 16  1  0
 16 18  1  0
 16 17  1  1
 17 11  1  0
 18 19  1  0
 20 18  2  0
M  END
$$$$
