CST.pdb
     RDKit          3D

 20 19  0  0  1  0  0  0  0  0999 V2000
   19.7370  -12.8388  -16.6192 N   0  0  0  0  0  0  0  0  0  0  0  0
   19.2471  -11.5030  -16.5810 C   0  0  1  0  0  0  0  0  0  0  0  0
   17.8415  -11.5343  -15.9776 C   0  0  0  0  0  0  0  0  0  0  0  0
   16.6907  -12.3654  -17.1110 S   0  0  0  0  0  0  0  0  0  0  0  0
   20.0357  -10.5839  -15.7482 C   0  0  0  0  0  0  0  0  0  0  0  0
   20.5792  -11.0593  -14.7139 O   0  0  0  0  0  0  0  0  0  0  0  0
   23.6150   -8.1876  -15.3402 O   0  0  0  0  0  0  0  0  0  0  0  0
   22.6044   -9.0433  -15.8223 C   0  0  0  0  0  0  0  0  0  0  0  0
   21.2754   -8.4136  -15.3860 C   0  0  2  0  0  0  0  0  0  0  0  0
   20.2378   -9.2141  -16.0058 N   0  0  0  0  0  0  0  0  0  0  0  0
   21.2040   -6.9961  -15.7905 C   0  0  0  0  0  0  0  0  0  0  0  0
   21.3774   -6.7180  -17.0026 O   0  0  0  0  0  0  0  0  0  0  0  0
   18.3010   -4.8587  -15.1737 C   0  0  0  0  0  0  0  0  0  0  0  0
   19.4494   -4.1033  -14.5668 C   0  0  1  0  0  0  0  0  0  0  0  0
   19.4213   -4.3108  -13.1901 O   0  0  0  0  0  0  0  0  0  0  0  0
   20.7387   -4.6223  -15.1674 C   0  0  2  0  0  0  0  0  0  0  0  0
   20.9435   -6.0280  -14.7866 N   0  0  0  0  0  0  0  0  0  0  0  0
   21.9089   -3.8315  -14.7243 C   0  0  0  0  0  0  0  0  0  0  0  0
   22.0535   -2.5022  -15.0960 O   0  0  0  0  0  0  0  0  0  0  0  0
   22.8255   -4.3107  -13.9968 O   0  0  0  0  0  0  0  0  0  0  0  0
  2  5  1  0
  2  1  1  1
  3  2  1  0
  4  3  1  0
  5  6  2  0
  7  8  1  0
  9  8  1  6
 10  9  1  0
 10  5  1  0
 11  9  1  0
 12 11  2  0
 14 13  1  6
 14 15  1  0
 14 16  1  0
 16 18  1  0
 16 17  1  1
 17 11  1  0
 18 19  1  0
 20 18  2  0
M  END
$$$$
