CST.pdb
     RDKit          3D

 20 19  0  0  1  0  0  0  0  0999 V2000
   18.2022  -13.1024  -15.8446 N   0  0  0  0  0  0  0  0  0  0  0  0
   17.4282  -11.9145  -15.7190 C   0  0  1  0  0  0  0  0  0  0  0  0
   15.9520  -12.3005  -15.8316 C   0  0  0  0  0  0  0  0  0  0  0  0
   15.5512  -12.7541  -17.5442 S   0  0  0  0  0  0  0  0  0  0  0  0
   17.5780  -11.2178  -14.4335 C   0  0  0  0  0  0  0  0  0  0  0  0
   17.6840  -11.9287  -13.3969 O   0  0  0  0  0  0  0  0  0  0  0  0
   18.4725   -7.3155  -14.3129 O   0  0  0  0  0  0  0  0  0  0  0  0
   18.9689   -8.1296  -13.2753 C   0  0  0  0  0  0  0  0  0  0  0  0
   17.8735   -9.1654  -12.9917 C   0  0  2  0  0  0  0  0  0  0  0  0
   17.6135   -9.8208  -14.2583 N   0  0  0  0  0  0  0  0  0  0  0  0
   16.6670   -8.5209  -12.4380 C   0  0  0  0  0  0  0  0  0  0  0  0
   15.7450   -8.2116  -13.2322 O   0  0  0  0  0  0  0  0  0  0  0  0
   14.2166   -7.1702   -8.3762 C   0  0  0  0  0  0  0  0  0  0  0  0
   15.4778   -7.7618   -8.9394 C   0  0  1  0  0  0  0  0  0  0  0  0
   15.5479   -9.0918   -8.5330 O   0  0  0  0  0  0  0  0  0  0  0  0
   15.4266   -7.6578  -10.4490 C   0  0  2  0  0  0  0  0  0  0  0  0
   16.6174   -8.2872  -11.0394 N   0  0  0  0  0  0  0  0  0  0  0  0
   15.3561   -6.2499  -10.9009 C   0  0  0  0  0  0  0  0  0  0  0  0
   14.1507   -5.6877  -11.2975 O   0  0  0  0  0  0  0  0  0  0  0  0
   16.3682   -5.4936  -10.9509 O   0  0  0  0  0  0  0  0  0  0  0  0
  2  5  1  0
  2  1  1  1
  3  2  1  0
  4  3  1  0
  5  6  2  0
  7  8  1  0
  9  8  1  6
 10  9  1  0
 10  5  1  0
 11  9  1  0
 12 11  2  0
 14 13  1  1
 14 15  1  0
 14 16  1  0
 16 18  1  0
 16 17  1  6
 17 11  1  0
 18 19  1  0
 20 18  2  0
M  END
$$$$
