CST.pdb
     RDKit          3D

 20 19  0  0  1  0  0  0  0  0999 V2000
   20.6218  -14.0009  -16.8689 N   0  0  0  0  0  0  0  0  0  0  0  0
   20.7876  -12.6950  -17.4104 C   0  0  1  0  0  0  0  0  0  0  0  0
   19.8721  -12.5714  -18.6299 C   0  0  0  0  0  0  0  0  0  0  0  0
   20.4154  -13.7067  -19.9397 S   0  0  0  0  0  0  0  0  0  0  0  0
   20.4166  -11.6020  -16.5005 C   0  0  0  0  0  0  0  0  0  0  0  0
   19.3188  -11.7044  -15.8877 O   0  0  0  0  0  0  0  0  0  0  0  0
   21.7589   -8.2564  -13.4651 O   0  0  0  0  0  0  0  0  0  0  0  0
   22.1246   -9.1328  -14.5063 C   0  0  0  0  0  0  0  0  0  0  0  0
   20.8336   -9.4311  -15.2792 C   0  0  2  0  0  0  0  0  0  0  0  0
   21.1830  -10.4466  -16.2529 N   0  0  0  0  0  0  0  0  0  0  0  0
   20.3023   -8.2087  -15.9127 C   0  0  0  0  0  0  0  0  0  0  0  0
   20.8218   -7.8282  -16.9906 O   0  0  0  0  0  0  0  0  0  0  0  0
   16.7805   -4.7761  -15.9651 C   0  0  0  0  0  0  0  0  0  0  0  0
   17.3055   -6.0294  -15.3235 C   0  0  1  0  0  0  0  0  0  0  0  0
   16.4423   -7.0728  -15.6480 O   0  0  0  0  0  0  0  0  0  0  0  0
   18.6992   -6.2940  -15.8522 C   0  0  2  0  0  0  0  0  0  0  0  0
   19.2345   -7.5328  -15.2677 N   0  0  0  0  0  0  0  0  0  0  0  0
   19.6248   -5.1807  -15.5434 C   0  0  0  0  0  0  0  0  0  0  0  0
   20.2570   -5.1000  -14.3105 O   0  0  0  0  0  0  0  0  0  0  0  0
   19.8878   -4.2582  -16.3673 O   0  0  0  0  0  0  0  0  0  0  0  0
  2  5  1  0
  2  1  1  1
  3  2  1  0
  4  3  1  0
  5  6  2  0
  7  8  1  0
  9  8  1  6
 10  9  1  0
 10  5  1  0
 11  9  1  0
 12 11  2  0
 14 13  1  6
 14 15  1  0
 14 16  1  0
 16 18  1  0
 16 17  1  1
 17 11  1  0
 18 19  1  0
 20 18  2  0
M  END
$$$$
