CST.pdb
     RDKit          3D

 20 19  0  0  1  0  0  0  0  0999 V2000
   13.1576  -21.6852   -4.3370 N   0  0  0  0  0  0  0  0  0  0  0  0
   12.8837  -21.4662   -2.9575 C   0  0  1  0  0  0  0  0  0  0  0  0
   11.4930  -22.0295   -2.6586 C   0  0  0  0  0  0  0  0  0  0  0  0
   10.2235  -21.0546   -3.5174 S   0  0  0  0  0  0  0  0  0  0  0  0
   13.8101  -22.1366   -2.0341 C   0  0  0  0  0  0  0  0  0  0  0  0
   14.3245  -23.2234   -2.4154 O   0  0  0  0  0  0  0  0  0  0  0  0
   14.5651  -20.4562    1.4171 O   0  0  0  0  0  0  0  0  0  0  0  0
   15.7045  -21.1711    0.9969 C   0  0  0  0  0  0  0  0  0  0  0  0
   15.1877  -22.2850    0.0774 C   0  0  2  0  0  0  0  0  0  0  0  0
   14.1743  -21.6692   -0.7564 N   0  0  0  0  0  0  0  0  0  0  0  0
   14.6540  -23.4142    0.8634 C   0  0  0  0  0  0  0  0  0  0  0  0
   13.4454  -23.3797    1.2019 O   0  0  0  0  0  0  0  0  0  0  0  0
   17.3295  -26.4866    2.0954 C   0  0  0  0  0  0  0  0  0  0  0  0
   15.9112  -26.8302    1.7376 C   0  0  1  0  0  0  0  0  0  0  0  0
   15.5117  -27.8966    2.5391 O   0  0  0  0  0  0  0  0  0  0  0  0
   15.0442  -25.6134    1.9819 C   0  0  2  0  0  0  0  0  0  0  0  0
   15.5370  -24.4749    1.1921 N   0  0  0  0  0  0  0  0  0  0  0  0
   15.0246  -25.2306    3.4118 C   0  0  0  0  0  0  0  0  0  0  0  0
   14.1753  -25.8641    4.3082 O   0  0  0  0  0  0  0  0  0  0  0  0
   15.7648  -24.3235    3.8896 O   0  0  0  0  0  0  0  0  0  0  0  0
  2  5  1  0
  2  1  1  6
  3  2  1  0
  4  3  1  0
  5  6  2  0
  7  8  1  0
  9  8  1  1
 10  9  1  0
 10  5  1  0
 11  9  1  0
 12 11  2  0
 14 13  1  1
 14 15  1  0
 14 16  1  0
 16 18  1  0
 16 17  1  6
 17 11  1  0
 18 19  1  0
 20 18  2  0
M  END
$$$$
