CST.pdb
     RDKit          3D

 20 19  0  0  1  0  0  0  0  0999 V2000
   20.4248  -14.1317  -16.7247 N   0  0  0  0  0  0  0  0  0  0  0  0
   20.7849  -12.8712  -17.2792 C   0  0  1  0  0  0  0  0  0  0  0  0
   19.9564  -12.6612  -18.5481 C   0  0  0  0  0  0  0  0  0  0  0  0
   20.5227  -13.7828  -19.8598 S   0  0  0  0  0  0  0  0  0  0  0  0
   20.5119  -11.7180  -16.4098 C   0  0  0  0  0  0  0  0  0  0  0  0
   19.3851  -11.6710  -15.8448 O   0  0  0  0  0  0  0  0  0  0  0  0
   23.4192   -9.6369  -14.9198 O   0  0  0  0  0  0  0  0  0  0  0  0
   22.2008   -9.5174  -14.2219 C   0  0  0  0  0  0  0  0  0  0  0  0
   21.1000   -9.5319  -15.2902 C   0  0  2  0  0  0  0  0  0  0  0  0
   21.4023  -10.6575  -16.1522 N   0  0  0  0  0  0  0  0  0  0  0  0
   21.0645   -8.2554  -16.0300 C   0  0  0  0  0  0  0  0  0  0  0  0
   21.9628   -8.0401  -16.8804 O   0  0  0  0  0  0  0  0  0  0  0  0
   18.4989   -7.1129  -18.2817 C   0  0  0  0  0  0  0  0  0  0  0  0
   18.5297   -6.0679  -17.2024 C   0  0  1  0  0  0  0  0  0  0  0  0
   17.5124   -6.3555  -16.2960 O   0  0  0  0  0  0  0  0  0  0  0  0
   19.8848   -6.1108  -16.5286 C   0  0  2  0  0  0  0  0  0  0  0  0
   20.0171   -7.3439  -15.7381 N   0  0  0  0  0  0  0  0  0  0  0  0
   20.0927   -4.9471  -15.6376 C   0  0  0  0  0  0  0  0  0  0  0  0
   20.3092   -3.6793  -16.1591 O   0  0  0  0  0  0  0  0  0  0  0  0
   20.0853   -5.0383  -14.3764 O   0  0  0  0  0  0  0  0  0  0  0  0
  2  5  1  0
  2  1  1  1
  3  2  1  0
  4  3  1  0
  5  6  2  0
  7  8  1  0
  9  8  1  1
 10  9  1  0
 10  5  1  0
 11  9  1  0
 12 11  2  0
 14 13  1  6
 14 15  1  0
 14 16  1  0
 16 18  1  0
 16 17  1  1
 17 11  1  0
 18 19  1  0
 20 18  2  0
M  END
$$$$
