IRF.pdb
     RDKit          3D

 31 31  0  0  1  0  0  0  0  0999 V2000
   26.7955  -14.2221  -15.4109 C   0  0  0  0  0  0  0  0  0  0  0  0
   26.3610  -15.4883  -16.1030 C   0  0  0  0  0  0  0  0  0  0  0  0
   26.0103  -16.5770  -15.1196 C   0  0  2  0  0  0  0  0  0  0  0  0
   27.2350  -16.9471  -14.3603 C   0  0  0  0  0  0  0  0  0  0  0  0
   25.4131  -17.7821  -15.8069 C   0  0  2  0  0  0  0  0  0  0  0  0
   24.1480  -17.3549  -16.4726 N   0  0  0  0  0  0  0  0  0  0  0  0
   24.9864  -18.8404  -14.8675 C   0  0  0  0  0  0  0  0  0  0  0  0
   23.9080  -18.7634  -14.1891 O   0  0  0  0  0  0  0  0  0  0  0  0
   23.1160  -26.6127  -14.0310 N   0  0  0  0  0  0  0  0  0  0  0  0
   23.2110  -25.9029  -15.2595 C   0  0  0  0  0  0  0  0  0  0  0  0
   22.2683  -25.9809  -16.1351 N   0  0  0  0  0  0  0  0  0  0  0  0
   24.3273  -25.0815  -15.5858 N   0  0  0  0  0  0  0  0  0  0  0  0
   25.4193  -24.8652  -14.6701 C   0  0  0  0  0  0  0  0  0  0  0  0
   25.2368  -23.6067  -13.8554 C   0  0  0  0  0  0  0  0  0  0  0  0
   25.6366  -22.3746  -14.6420 C   0  0  0  0  0  0  0  0  0  0  0  0
   25.3424  -21.1119  -13.8605 C   0  0  2  0  0  0  0  0  0  0  0  0
   25.7650  -19.9923  -14.6871 N   0  0  0  0  0  0  0  0  0  0  0  0
   26.0114  -21.0558  -12.5733 C   0  0  0  0  0  0  0  0  0  0  0  0
   27.2705  -20.8920  -12.5497 O   0  0  0  0  0  0  0  0  0  0  0  0
   22.3552  -25.4745  -17.0446 N   0  0  0  0  0  0  0  0  0  0  0  0
   25.3439  -21.1741  -11.3170 C   0  0  2  0  0  0  0  0  0  0  0  0
   26.1116  -21.0594  -10.0855 C   0  0  0  0  0  0  0  0  0  0  0  0
   26.7360  -19.6982   -9.9640 C   0  0  0  0  0  0  0  0  0  0  0  0
   27.3310  -19.4881   -8.6498 C   0  0  0  0  0  0  0  0  0  0  0  0
   28.5461  -20.0607   -8.2703 C   0  0  0  0  0  0  0  0  0  0  0  0
   29.0957  -19.8561   -7.0387 C   0  0  0  0  0  0  0  0  0  0  0  0
   28.4694  -19.0655   -6.1015 C   0  0  0  0  0  0  0  0  0  0  0  0
   27.2782  -18.4888   -6.4376 C   0  0  0  0  0  0  0  0  0  0  0  0
   26.7163  -18.6918   -7.6825 C   0  0  0  0  0  0  0  0  0  0  0  0
   25.2879  -21.4034   -8.9174 O   0  0  0  0  0  0  0  0  0  0  0  0
   25.7369  -21.9319   -7.7272 O   0  0  0  0  0  0  0  0  0  0  0  0
  2  1  1  0
  3  2  1  0
  3  4  1  6
  5  3  1  0
  5  6  1  1
  7  5  1  0
  8  7  2  0
  9 10  1  0
 10 12  1  0
 11 10  2  0
 12 13  1  0
 13 14  1  0
 14 15  1  0
 16 15  1  6
 16 18  1  0
 16 17  1  0
 17  7  1  0
 18 19  2  0
 20 21  1  0
 20 18  1  0
 21 22  1  6
 22 23  1  0
 23 28  2  0
 24 23  1  0
 24 25  2  0
 25 26  1  0
 26 27  2  0
 28 27  1  0
 29 30  1  0
 29 21  1  0
 31 29  2  0
M  END
$$$$
