IRF.pdb
     RDKit          3D

 31 31  0  0  1  0  0  0  0  0999 V2000
   20.7285  -18.1217  -14.2697 C   0  0  0  0  0  0  0  0  0  0  0  0
   20.5663  -19.6196  -14.3021 C   0  0  0  0  0  0  0  0  0  0  0  0
   21.6555  -20.3219  -13.5302 C   0  0  2  0  0  0  0  0  0  0  0  0
   21.5258  -19.9669  -12.0913 C   0  0  0  0  0  0  0  0  0  0  0  0
   23.0284  -19.9723  -14.0538 C   0  0  2  0  0  0  0  0  0  0  0  0
   23.0952  -20.3834  -15.4865 N   0  0  0  0  0  0  0  0  0  0  0  0
   24.1143  -20.7392  -13.4079 C   0  0  0  0  0  0  0  0  0  0  0  0
   23.9800  -21.9592  -13.0578 O   0  0  0  0  0  0  0  0  0  0  0  0
   29.4592  -24.2139  -15.6382 N   0  0  0  0  0  0  0  0  0  0  0  0
   28.8667  -23.3784  -16.6245 C   0  0  0  0  0  0  0  0  0  0  0  0
   28.2052  -23.8910  -17.6049 N   0  0  0  0  0  0  0  0  0  0  0  0
   28.9657  -21.9585  -16.5863 N   0  0  0  0  0  0  0  0  0  0  0  0
   28.9810  -21.2196  -15.3488 C   0  0  0  0  0  0  0  0  0  0  0  0
   27.7577  -21.4958  -14.5072 C   0  0  0  0  0  0  0  0  0  0  0  0
   27.6986  -20.5824  -13.2993 C   0  0  0  0  0  0  0  0  0  0  0  0
   26.4470  -20.8369  -12.4864 C   0  0  2  0  0  0  0  0  0  0  0  0
   25.3576  -20.1429  -13.1549 N   0  0  0  0  0  0  0  0  0  0  0  0
   26.5472  -20.3885  -11.1093 C   0  0  0  0  0  0  0  0  0  0  0  0
   27.2964  -19.3975  -10.8460 O   0  0  0  0  0  0  0  0  0  0  0  0
   27.7973  -23.2726  -18.3415 N   0  0  0  0  0  0  0  0  0  0  0  0
   25.8539  -20.9923  -10.0171 C   0  0  1  0  0  0  0  0  0  0  0  0
   26.4153  -20.9038   -8.6769 C   0  0  0  0  0  0  0  0  0  0  0  0
   26.8466  -19.4988   -8.3646 C   0  0  0  0  0  0  0  0  0  0  0  0
   27.5332  -19.4132   -7.0814 C   0  0  0  0  0  0  0  0  0  0  0  0
   26.9303  -19.7767   -5.8762 C   0  0  0  0  0  0  0  0  0  0  0  0
   27.5822  -19.6950   -4.6807 C   0  0  0  0  0  0  0  0  0  0  0  0
   28.8812  -19.2446   -4.6069 C   0  0  0  0  0  0  0  0  0  0  0  0
   29.5033  -18.8797   -5.7663 C   0  0  0  0  0  0  0  0  0  0  0  0
   28.8492  -18.9598   -6.9798 C   0  0  0  0  0  0  0  0  0  0  0  0
   25.4784  -21.4368   -7.6772 O   0  0  0  0  0  0  0  0  0  0  0  0
   25.8083  -22.1477   -6.5445 O   0  0  0  0  0  0  0  0  0  0  0  0
  2  1  1  0
  3  2  1  0
  3  4  1  1
  5  3  1  0
  5  6  1  6
  7  5  1  0
  8  7  2  0
  9 10  1  0
 10 12  1  0
 11 10  2  0
 12 13  1  0
 13 14  1  0
 14 15  1  0
 16 15  1  6
 16 18  1  0
 16 17  1  0
 17  7  1  0
 18 19  2  0
 20 21  1  0
 20 18  1  0
 21 22  1  1
 22 23  1  0
 23 28  2  0
 24 23  1  0
 24 25  2  0
 25 26  1  0
 26 27  2  0
 28 27  1  0
 29 30  1  0
 29 21  1  0
 31 29  2  0
M  END
$$$$
