IRF.pdb
     RDKit          3D

 31 31  0  0  1  0  0  0  0  0999 V2000
   30.4180  -22.0162  -18.7801 C   0  0  0  0  0  0  0  0  0  0  0  0
   29.0514  -21.3854  -18.7055 C   0  0  0  0  0  0  0  0  0  0  0  0
   27.9885  -22.3852  -18.3235 C   0  0  2  0  0  0  0  0  0  0  0  0
   26.6543  -21.8075  -18.6387 C   0  0  0  0  0  0  0  0  0  0  0  0
   28.0814  -22.7733  -16.8668 C   0  0  2  0  0  0  0  0  0  0  0  0
   28.0694  -24.2629  -16.7835 N   0  0  0  0  0  0  0  0  0  0  0  0
   26.9049  -22.3586  -16.0741 C   0  0  0  0  0  0  0  0  0  0  0  0
   25.7189  -22.7381  -16.3541 O   0  0  0  0  0  0  0  0  0  0  0  0
   23.8170  -21.4400   -8.5338 N   0  0  0  0  0  0  0  0  0  0  0  0
   23.1947  -21.4860   -9.8115 C   0  0  0  0  0  0  0  0  0  0  0  0
   22.0380  -22.0360   -9.9569 N   0  0  0  0  0  0  0  0  0  0  0  0
   23.7988  -20.9376  -10.9785 N   0  0  0  0  0  0  0  0  0  0  0  0
   24.9935  -20.1331  -10.9228 C   0  0  0  0  0  0  0  0  0  0  0  0
   25.3493  -19.5503  -12.2700 C   0  0  0  0  0  0  0  0  0  0  0  0
   26.4122  -20.3753  -12.9672 C   0  0  0  0  0  0  0  0  0  0  0  0
   25.9335  -20.8424  -14.3253 C   0  0  2  0  0  0  0  0  0  0  0  0
   27.0530  -21.5193  -14.9609 N   0  0  0  0  0  0  0  0  0  0  0  0
   25.4593  -19.7661  -15.1763 C   0  0  0  0  0  0  0  0  0  0  0  0
   26.1964  -18.7435  -15.3301 O   0  0  0  0  0  0  0  0  0  0  0  0
   21.5712  -22.0344  -10.8914 N   0  0  0  0  0  0  0  0  0  0  0  0
   24.2061  -19.7774  -15.8599 C   0  0  2  0  0  0  0  0  0  0  0  0
   23.3644  -18.5901  -15.8302 C   0  0  0  0  0  0  0  0  0  0  0  0
   23.1890  -18.0187  -17.2087 C   0  0  0  0  0  0  0  0  0  0  0  0
   23.4802  -19.0010  -18.2457 C   0  0  0  0  0  0  0  0  0  0  0  0
   22.4813  -19.6775  -18.9477 C   0  0  0  0  0  0  0  0  0  0  0  0
   22.7643  -20.5935  -19.9180 C   0  0  0  0  0  0  0  0  0  0  0  0
   24.0646  -20.8967  -20.2540 C   0  0  0  0  0  0  0  0  0  0  0  0
   25.0686  -20.2545  -19.5878 C   0  0  0  0  0  0  0  0  0  0  0  0
   24.7892  -19.3262  -18.6044 C   0  0  0  0  0  0  0  0  0  0  0  0
   22.0794  -18.8717  -15.1737 O   0  0  0  0  0  0  0  0  0  0  0  0
   21.6703  -20.0839  -14.6632 O   0  0  0  0  0  0  0  0  0  0  0  0
  2  1  1  0
  3  2  1  0
  3  4  1  1
  5  3  1  0
  5  6  1  6
  7  5  1  0
  8  7  2  0
  9 10  1  0
 10 12  1  0
 11 10  2  0
 12 13  1  0
 13 14  1  0
 14 15  1  0
 16 15  1  1
 16 18  1  0
 16 17  1  0
 17  7  1  0
 18 19  2  0
 20 21  1  0
 20 18  1  0
 21 22  1  1
 22 23  1  0
 23 28  2  0
 24 23  1  0
 24 25  2  0
 25 26  1  0
 26 27  2  0
 28 27  1  0
 29 30  1  0
 29 21  1  0
 31 29  2  0
M  END
$$$$
