IRF.pdb
     RDKit          3D

 31 31  0  0  1  0  0  0  0  0999 V2000
   27.4311  -15.3158  -15.8887 C   0  0  0  0  0  0  0  0  0  0  0  0
   27.6393  -16.8077  -15.8450 C   0  0  0  0  0  0  0  0  0  0  0  0
   27.0469  -17.4239  -14.6021 C   0  0  2  0  0  0  0  0  0  0  0  0
   28.1375  -17.6537  -13.6167 C   0  0  0  0  0  0  0  0  0  0  0  0
   26.3127  -18.7078  -14.9083 C   0  0  2  0  0  0  0  0  0  0  0  0
   25.1672  -18.3823  -15.8072 N   0  0  0  0  0  0  0  0  0  0  0  0
   25.6771  -19.3165  -13.7208 C   0  0  0  0  0  0  0  0  0  0  0  0
   24.6210  -18.8394  -13.1860 O   0  0  0  0  0  0  0  0  0  0  0  0
   23.1894  -26.2507  -12.5214 N   0  0  0  0  0  0  0  0  0  0  0  0
   22.5207  -25.4112  -13.4542 C   0  0  0  0  0  0  0  0  0  0  0  0
   21.2342  -25.4156  -13.5337 N   0  0  0  0  0  0  0  0  0  0  0  0
   23.2178  -24.5351  -14.3339 N   0  0  0  0  0  0  0  0  0  0  0  0
   24.6003  -24.1800  -14.1327 C   0  0  0  0  0  0  0  0  0  0  0  0
   24.7630  -22.7316  -13.7369 C   0  0  0  0  0  0  0  0  0  0  0  0
   25.4465  -22.5986  -12.3909 C   0  0  0  0  0  0  0  0  0  0  0  0
   25.6014  -21.1438  -12.0016 C   0  0  2  0  0  0  0  0  0  0  0  0
   26.2206  -20.4656  -13.1295 N   0  0  0  0  0  0  0  0  0  0  0  0
   26.4000  -20.9439  -10.8059 C   0  0  0  0  0  0  0  0  0  0  0  0
   27.6212  -21.2920  -10.8257 O   0  0  0  0  0  0  0  0  0  0  0  0
   20.7506  -24.8067  -14.2313 N   0  0  0  0  0  0  0  0  0  0  0  0
   25.9015  -20.3769   -9.5943 C   0  0  2  0  0  0  0  0  0  0  0  0
   26.6191  -20.6066   -8.3487 C   0  0  0  0  0  0  0  0  0  0  0  0
   27.4104  -19.3930   -7.9505 C   0  0  0  0  0  0  0  0  0  0  0  0
   28.0004  -19.5392   -6.6255 C   0  0  0  0  0  0  0  0  0  0  0  0
   29.1378  -20.3119   -6.3859 C   0  0  0  0  0  0  0  0  0  0  0  0
   29.6836  -20.4405   -5.1424 C   0  0  0  0  0  0  0  0  0  0  0  0
   29.1308  -19.8060   -4.0527 C   0  0  0  0  0  0  0  0  0  0  0  0
   28.0168  -19.0413   -4.2491 C   0  0  0  0  0  0  0  0  0  0  0  0
   27.4592  -18.9069   -5.5052 C   0  0  0  0  0  0  0  0  0  0  0  0
   25.7035  -21.0505   -7.2876 O   0  0  0  0  0  0  0  0  0  0  0  0
   26.0585  -21.6470   -6.0979 O   0  0  0  0  0  0  0  0  0  0  0  0
  2  1  1  0
  3  2  1  0
  3  4  1  1
  5  3  1  0
  5  6  1  6
  7  5  1  0
  8  7  2  0
  9 10  1  0
 10 12  1  0
 11 10  2  0
 12 13  1  0
 13 14  1  0
 14 15  1  0
 16 15  1  6
 16 18  1  0
 16 17  1  0
 17  7  1  0
 18 19  2  0
 20 21  1  0
 20 18  1  0
 21 22  1  6
 22 23  1  0
 23 28  2  0
 24 23  1  0
 24 25  2  0
 25 26  1  0
 26 27  2  0
 28 27  1  0
 29 30  1  0
 29 21  1  0
 31 29  2  0
M  END
$$$$
