IRF.pdb
     RDKit          3D

 31 31  0  0  1  0  0  0  0  0999 V2000
   19.2467  -17.7929  -13.8653 C   0  0  0  0  0  0  0  0  0  0  0  0
   20.6083  -18.1086  -14.4286 C   0  0  0  0  0  0  0  0  0  0  0  0
   21.3869  -19.0406  -13.5337 C   0  0  2  0  0  0  0  0  0  0  0  0
   21.4846  -18.4317  -12.1798 C   0  0  0  0  0  0  0  0  0  0  0  0
   22.7570  -19.3410  -14.0938 C   0  0  2  0  0  0  0  0  0  0  0  0
   22.5796  -20.0076  -15.4168 N   0  0  0  0  0  0  0  0  0  0  0  0
   23.5140  -20.3259  -13.2929 C   0  0  0  0  0  0  0  0  0  0  0  0
   22.9718  -21.3674  -12.7926 O   0  0  0  0  0  0  0  0  0  0  0  0
   26.1887  -24.4182  -14.9389 N   0  0  0  0  0  0  0  0  0  0  0  0
   26.8784  -23.9525  -16.0919 C   0  0  0  0  0  0  0  0  0  0  0  0
   26.4845  -24.2912  -17.2716 N   0  0  0  0  0  0  0  0  0  0  0  0
   28.0179  -23.1024  -16.0123 N   0  0  0  0  0  0  0  0  0  0  0  0
   28.0582  -21.9454  -15.1535 C   0  0  0  0  0  0  0  0  0  0  0  0
   26.7544  -21.7364  -14.4203 C   0  0  0  0  0  0  0  0  0  0  0  0
   26.9877  -21.2743  -12.9960 C   0  0  0  0  0  0  0  0  0  0  0  0
   25.6757  -21.0821  -12.2654 C   0  0  2  0  0  0  0  0  0  0  0  0
   24.8838  -20.1496  -13.0521 N   0  0  0  0  0  0  0  0  0  0  0  0
   25.8320  -20.5788  -10.9127 C   0  0  0  0  0  0  0  0  0  0  0  0
   26.2991  -19.4092  -10.7499 O   0  0  0  0  0  0  0  0  0  0  0  0
   27.0159  -23.9725  -18.1127 N   0  0  0  0  0  0  0  0  0  0  0  0
   25.4936  -21.3169   -9.7386 C   0  0  1  0  0  0  0  0  0  0  0  0
   26.2703  -21.1224   -8.5228 C   0  0  0  0  0  0  0  0  0  0  0  0
   26.3000  -19.6731   -8.1278 C   0  0  0  0  0  0  0  0  0  0  0  0
   27.0421  -19.4615   -6.8910 C   0  0  0  0  0  0  0  0  0  0  0  0
   27.7618  -18.2940   -6.6320 C   0  0  0  0  0  0  0  0  0  0  0  0
   28.4513  -18.1048   -5.4703 C   0  0  0  0  0  0  0  0  0  0  0  0
   28.4693  -19.0687   -4.4875 C   0  0  0  0  0  0  0  0  0  0  0  0
   27.7764  -20.2248   -4.7062 C   0  0  0  0  0  0  0  0  0  0  0  0
   27.0764  -20.4228   -5.8798 C   0  0  0  0  0  0  0  0  0  0  0  0
   25.7793  -21.9874   -7.4402 O   0  0  0  0  0  0  0  0  0  0  0  0
   26.5485  -22.7595   -6.5978 O   0  0  0  0  0  0  0  0  0  0  0  0
  2  1  1  0
  3  2  1  0
  3  4  1  1
  5  3  1  0
  5  6  1  6
  7  5  1  0
  8  7  2  0
  9 10  1  0
 10 12  1  0
 11 10  2  0
 12 13  1  0
 13 14  1  0
 14 15  1  0
 16 15  1  6
 16 18  1  0
 16 17  1  0
 17  7  1  0
 18 19  2  0
 20 21  1  0
 20 18  1  0
 21 22  1  1
 22 23  1  0
 23 28  2  0
 24 23  1  0
 24 25  2  0
 25 26  1  0
 26 27  2  0
 28 27  1  0
 29 30  1  0
 29 21  1  0
 31 29  2  0
M  END
$$$$
