IRF.pdb
     RDKit          3D

 31 31  0  0  1  0  0  0  0  0999 V2000
   27.2633  -14.3920  -15.4054 C   0  0  0  0  0  0  0  0  0  0  0  0
   26.6128  -15.5569  -16.1061 C   0  0  0  0  0  0  0  0  0  0  0  0
   26.2305  -16.6529  -15.1427 C   0  0  2  0  0  0  0  0  0  0  0  0
   27.4643  -17.1641  -14.4872 C   0  0  0  0  0  0  0  0  0  0  0  0
   25.4801  -17.7681  -15.8314 C   0  0  2  0  0  0  0  0  0  0  0  0
   24.2411  -17.1910  -16.4296 N   0  0  0  0  0  0  0  0  0  0  0  0
   24.9825  -18.8019  -14.8996 C   0  0  0  0  0  0  0  0  0  0  0  0
   23.9953  -18.6028  -14.1155 O   0  0  0  0  0  0  0  0  0  0  0  0
   23.0096  -26.7400  -13.3430 N   0  0  0  0  0  0  0  0  0  0  0  0
   22.7711  -26.2048  -14.6386 C   0  0  0  0  0  0  0  0  0  0  0  0
   21.6556  -26.4289  -15.2442 N   0  0  0  0  0  0  0  0  0  0  0  0
   23.7288  -25.4064  -15.3263 N   0  0  0  0  0  0  0  0  0  0  0  0
   24.9022  -24.8789  -14.6762 C   0  0  0  0  0  0  0  0  0  0  0  0
   24.6297  -23.5580  -13.9964 C   0  0  0  0  0  0  0  0  0  0  0  0
   25.4339  -22.4365  -14.6224 C   0  0  0  0  0  0  0  0  0  0  0  0
   25.1466  -21.1157  -13.9405 C   0  0  2  0  0  0  0  0  0  0  0  0
   25.5872  -20.0656  -14.8452 N   0  0  0  0  0  0  0  0  0  0  0  0
   25.8059  -20.9694  -12.6554 C   0  0  0  0  0  0  0  0  0  0  0  0
   27.0722  -20.8778  -12.6292 O   0  0  0  0  0  0  0  0  0  0  0  0
   21.4969  -26.0525  -16.2057 N   0  0  0  0  0  0  0  0  0  0  0  0
   25.1210  -20.9216  -11.4038 C   0  0  2  0  0  0  0  0  0  0  0  0
   25.8869  -20.9734  -10.1669 C   0  0  0  0  0  0  0  0  0  0  0  0
   26.9651  -19.9270  -10.1561 C   0  0  0  0  0  0  0  0  0  0  0  0
   27.6387  -19.8535   -8.8653 C   0  0  0  0  0  0  0  0  0  0  0  0
   28.5503  -20.8179   -8.4327 C   0  0  0  0  0  0  0  0  0  0  0  0
   29.1771  -20.7388   -7.2238 C   0  0  0  0  0  0  0  0  0  0  0  0
   28.9364  -19.6909   -6.3638 C   0  0  0  0  0  0  0  0  0  0  0  0
   28.0498  -18.7283   -6.7534 C   0  0  0  0  0  0  0  0  0  0  0  0
   27.4118  -18.8023   -7.9757 C   0  0  0  0  0  0  0  0  0  0  0  0
   25.0031  -20.8782   -8.9959 O   0  0  0  0  0  0  0  0  0  0  0  0
   25.2228  -21.4406   -7.7578 O   0  0  0  0  0  0  0  0  0  0  0  0
  2  1  1  0
  3  2  1  0
  3  4  1  6
  5  3  1  0
  5  6  1  1
  7  5  1  0
  8  7  2  0
  9 10  1  0
 10 12  1  0
 11 10  2  0
 12 13  1  0
 13 14  1  0
 14 15  1  0
 16 15  1  6
 16 18  1  0
 16 17  1  0
 17  7  1  0
 18 19  2  0
 20 21  1  0
 20 18  1  0
 21 22  1  1
 22 23  1  0
 23 28  2  0
 24 23  1  0
 24 25  2  0
 25 26  1  0
 26 27  2  0
 28 27  1  0
 29 30  1  0
 29 21  1  0
 31 29  2  0
M  END
$$$$
