IRF.pdb
     RDKit          3D

 31 31  0  0  1  0  0  0  0  0999 V2000
   20.4666  -16.0932  -14.2460 C   0  0  0  0  0  0  0  0  0  0  0  0
   20.4659  -15.7451  -15.7122 C   0  0  0  0  0  0  0  0  0  0  0  0
   20.8837  -14.3158  -15.9529 C   0  0  2  0  0  0  0  0  0  0  0  0
   19.9265  -13.4148  -15.2563 C   0  0  0  0  0  0  0  0  0  0  0  0
   20.9573  -13.9939  -17.4268 C   0  0  2  0  0  0  0  0  0  0  0  0
   22.0238  -14.8434  -18.0327 N   0  0  0  0  0  0  0  0  0  0  0  0
   21.3984  -12.6105  -17.7028 C   0  0  0  0  0  0  0  0  0  0  0  0
   22.6300  -12.2821  -17.7695 O   0  0  0  0  0  0  0  0  0  0  0  0
   16.8726   -8.9823  -23.4098 N   0  0  0  0  0  0  0  0  0  0  0  0
   16.7484   -9.8948  -22.3263 C   0  0  0  0  0  0  0  0  0  0  0  0
   15.6268  -10.4857  -22.0935 N   0  0  0  0  0  0  0  0  0  0  0  0
   17.8322  -10.2033  -21.4558 N   0  0  0  0  0  0  0  0  0  0  0  0
   19.1481   -9.6428  -21.6344 C   0  0  0  0  0  0  0  0  0  0  0  0
   20.1371  -10.1835  -20.6291 C   0  0  0  0  0  0  0  0  0  0  0  0
   19.8187   -9.7059  -19.2266 C   0  0  0  0  0  0  0  0  0  0  0  0
   20.8371  -10.2220  -18.2325 C   0  0  2  0  0  0  0  0  0  0  0  0
   20.4605  -11.5891  -17.9092 N   0  0  0  0  0  0  0  0  0  0  0  0
   20.9164   -9.4310  -17.0178 C   0  0  0  0  0  0  0  0  0  0  0  0
   19.9075   -9.3981  -16.2473 O   0  0  0  0  0  0  0  0  0  0  0  0
   14.7902  -10.2717  -22.6815 N   0  0  0  0  0  0  0  0  0  0  0  0
   22.0637   -8.6777  -16.6251 C   0  0  2  0  0  0  0  0  0  0  0  0
   22.0217   -7.8992  -15.3958 C   0  0  0  0  0  0  0  0  0  0  0  0
   22.7183   -8.6203  -14.2767 C   0  0  0  0  0  0  0  0  0  0  0  0
   23.9770   -9.2131  -14.7119 C   0  0  0  0  0  0  0  0  0  0  0  0
   24.3798  -10.4945  -14.3323 C   0  0  0  0  0  0  0  0  0  0  0  0
   25.5588  -11.0411  -14.7469 C   0  0  0  0  0  0  0  0  0  0  0  0
   26.4165  -10.3455  -15.5691 C   0  0  0  0  0  0  0  0  0  0  0  0
   26.0554   -9.0883  -15.9607 C   0  0  0  0  0  0  0  0  0  0  0  0
   24.8635   -8.5288  -15.5447 C   0  0  0  0  0  0  0  0  0  0  0  0
   22.5585   -6.5474  -15.6099 O   0  0  0  0  0  0  0  0  0  0  0  0
   23.1652   -6.0803  -16.7549 O   0  0  0  0  0  0  0  0  0  0  0  0
  2  1  1  0
  3  2  1  0
  3  4  1  1
  5  3  1  0
  5  6  1  6
  7  5  1  0
  8  7  2  0
  9 10  1  0
 10 12  1  0
 11 10  2  0
 12 13  1  0
 13 14  1  0
 14 15  1  0
 16 15  1  6
 16 18  1  0
 16 17  1  0
 17  7  1  0
 18 19  2  0
 20 21  1  0
 20 18  1  0
 21 22  1  1
 22 23  1  0
 23 28  2  0
 24 23  1  0
 24 25  2  0
 25 26  1  0
 26 27  2  0
 28 27  1  0
 29 30  1  0
 29 21  1  0
 31 29  2  0
M  END
$$$$
