IRF.pdb
     RDKit          3D

 31 31  0  0  1  0  0  0  0  0999 V2000
   26.7053  -14.0219  -15.2735 C   0  0  0  0  0  0  0  0  0  0  0  0
   27.2421  -15.2678  -15.9298 C   0  0  0  0  0  0  0  0  0  0  0  0
   26.2333  -16.3893  -15.9215 C   0  0  2  0  0  0  0  0  0  0  0  0
   25.9071  -16.7277  -14.5100 C   0  0  0  0  0  0  0  0  0  0  0  0
   26.7371  -17.6019  -16.6678 C   0  0  2  0  0  0  0  0  0  0  0  0
   26.8849  -17.2315  -18.1055 N   0  0  0  0  0  0  0  0  0  0  0  0
   25.7739  -18.7229  -16.6817 C   0  0  0  0  0  0  0  0  0  0  0  0
   24.7335  -18.7261  -17.4211 O   0  0  0  0  0  0  0  0  0  0  0  0
   24.4966  -26.2940  -14.7484 N   0  0  0  0  0  0  0  0  0  0  0  0
   24.2702  -26.4948  -16.1378 C   0  0  0  0  0  0  0  0  0  0  0  0
   23.4233  -27.3784  -16.5420 N   0  0  0  0  0  0  0  0  0  0  0  0
   24.9494  -25.7467  -17.1411 N   0  0  0  0  0  0  0  0  0  0  0  0
   25.8031  -24.6293  -16.8243 C   0  0  0  0  0  0  0  0  0  0  0  0
   25.0194  -23.4405  -16.3208 C   0  0  0  0  0  0  0  0  0  0  0  0
   25.8951  -22.2092  -16.2033 C   0  0  0  0  0  0  0  0  0  0  0  0
   25.0709  -20.9872  -15.8577 C   0  0  2  0  0  0  0  0  0  0  0  0
   25.9747  -19.8478  -15.8694 N   0  0  0  0  0  0  0  0  0  0  0  0
   24.4077  -21.0786  -14.5696 C   0  0  0  0  0  0  0  0  0  0  0  0
   25.1213  -21.1058  -13.5195 O   0  0  0  0  0  0  0  0  0  0  0  0
   23.2567  -27.5150  -17.5642 N   0  0  0  0  0  0  0  0  0  0  0  0
   22.9917  -21.1415  -14.3995 C   0  0  1  0  0  0  0  0  0  0  0  0
   22.4240  -20.9918  -13.0674 C   0  0  0  0  0  0  0  0  0  0  0  0
   22.9112  -19.7305  -12.4122 C   0  0  0  0  0  0  0  0  0  0  0  0
   24.0288  -19.9827  -11.5107 C   0  0  0  0  0  0  0  0  0  0  0  0
   25.3592  -19.9624  -11.9325 C   0  0  0  0  0  0  0  0  0  0  0  0
   26.3982  -20.1975  -11.0804 C   0  0  0  0  0  0  0  0  0  0  0  0
   26.1797  -20.4691   -9.7484 C   0  0  0  0  0  0  0  0  0  0  0  0
   24.8904  -20.4976   -9.2999 C   0  0  0  0  0  0  0  0  0  0  0  0
   23.8340  -20.2606  -10.1569 C   0  0  0  0  0  0  0  0  0  0  0  0
   20.9565  -21.0699  -13.1085 O   0  0  0  0  0  0  0  0  0  0  0  0
   20.1146  -21.2125  -12.0277 O   0  0  0  0  0  0  0  0  0  0  0  0
  2  1  1  0
  3  2  1  0
  3  4  1  1
  5  3  1  0
  5  6  1  6
  7  5  1  0
  8  7  2  0
  9 10  1  0
 10 12  1  0
 11 10  2  0
 12 13  1  0
 13 14  1  0
 14 15  1  0
 16 15  1  1
 16 18  1  0
 16 17  1  0
 17  7  1  0
 18 19  2  0
 20 21  1  0
 20 18  1  0
 21 22  1  1
 22 23  1  0
 23 28  2  0
 24 23  1  0
 24 25  2  0
 25 26  1  0
 26 27  2  0
 28 27  1  0
 29 30  1  0
 29 21  1  0
 31 29  2  0
M  END
$$$$
