IRF.pdb
     RDKit          3D

 31 31  0  0  1  0  0  0  0  0999 V2000
   24.4933  -16.0021  -21.6091 C   0  0  0  0  0  0  0  0  0  0  0  0
   24.0626  -15.7081  -20.1952 C   0  0  0  0  0  0  0  0  0  0  0  0
   23.3477  -14.3843  -20.0869 C   0  0  2  0  0  0  0  0  0  0  0  0
   24.2842  -13.3014  -20.4912 C   0  0  0  0  0  0  0  0  0  0  0  0
   22.8137  -14.1479  -18.6940 C   0  0  2  0  0  0  0  0  0  0  0  0
   22.0298  -15.3510  -18.2890 N   0  0  0  0  0  0  0  0  0  0  0  0
   21.8375  -13.0405  -18.6211 C   0  0  0  0  0  0  0  0  0  0  0  0
   22.1286  -11.8443  -18.9578 O   0  0  0  0  0  0  0  0  0  0  0  0
   14.1447  -12.0285  -16.0328 N   0  0  0  0  0  0  0  0  0  0  0  0
   14.4181  -10.7114  -16.4936 C   0  0  0  0  0  0  0  0  0  0  0  0
   13.8517   -9.6939  -15.9412 N   0  0  0  0  0  0  0  0  0  0  0  0
   15.3150  -10.4457  -17.5672 N   0  0  0  0  0  0  0  0  0  0  0  0
   16.1854  -11.4568  -18.1129 C   0  0  0  0  0  0  0  0  0  0  0  0
   17.2374  -11.8958  -17.1220 C   0  0  0  0  0  0  0  0  0  0  0  0
   18.2152  -12.8701  -17.7474 C   0  0  0  0  0  0  0  0  0  0  0  0
   19.5500  -12.2064  -18.0113 C   0  0  2  0  0  0  0  0  0  0  0  0
   20.5288  -13.2698  -18.1738 N   0  0  0  0  0  0  0  0  0  0  0  0
   19.9704  -11.3055  -16.9534 C   0  0  0  0  0  0  0  0  0  0  0  0
   20.2082  -11.7882  -15.8031 O   0  0  0  0  0  0  0  0  0  0  0  0
   14.0709   -8.7281  -16.2735 N   0  0  0  0  0  0  0  0  0  0  0  0
   20.1363   -9.8972  -17.1183 C   0  0  2  0  0  0  0  0  0  0  0  0
   20.3460   -9.0596  -15.9464 C   0  0  0  0  0  0  0  0  0  0  0  0
   21.8113   -8.8831  -15.6648 C   0  0  0  0  0  0  0  0  0  0  0  0
   22.0461   -7.9536  -14.5666 C   0  0  0  0  0  0  0  0  0  0  0  0
   22.0039   -8.3415  -13.2264 C   0  0  0  0  0  0  0  0  0  0  0  0
   22.2273   -7.4643  -12.2059 C   0  0  0  0  0  0  0  0  0  0  0  0
   22.5082   -6.1395  -12.4539 C   0  0  0  0  0  0  0  0  0  0  0  0
   22.5575   -5.7237  -13.7535 C   0  0  0  0  0  0  0  0  0  0  0  0
   22.3323   -6.6063  -14.7913 C   0  0  0  0  0  0  0  0  0  0  0  0
   19.6443   -7.7751  -16.0846 O   0  0  0  0  0  0  0  0  0  0  0  0
   19.1507   -6.9985  -15.0596 O   0  0  0  0  0  0  0  0  0  0  0  0
  2  1  1  0
  3  2  1  0
  3  4  1  1
  5  3  1  0
  5  6  1  6
  7  5  1  0
  8  7  2  0
  9 10  1  0
 10 12  1  0
 11 10  2  0
 12 13  1  0
 13 14  1  0
 14 15  1  0
 16 15  1  1
 16 18  1  0
 16 17  1  0
 17  7  1  0
 18 19  2  0
 20 21  1  0
 20 18  1  0
 21 22  1  6
 22 23  1  0
 23 28  2  0
 24 23  1  0
 24 25  2  0
 25 26  1  0
 26 27  2  0
 28 27  1  0
 29 30  1  0
 29 21  1  0
 31 29  2  0
M  END
$$$$
