IRF.pdb
     RDKit          3D

 31 31  0  0  1  0  0  0  0  0999 V2000
   16.1728  -33.8967  -12.9256 C   0  0  0  0  0  0  0  0  0  0  0  0
   17.3730  -32.9895  -13.0119 C   0  0  0  0  0  0  0  0  0  0  0  0
   17.1777  -31.7186  -12.2231 C   0  0  2  0  0  0  0  0  0  0  0  0
   16.0035  -30.9902  -12.7746 C   0  0  0  0  0  0  0  0  0  0  0  0
   18.4135  -30.8506  -12.2437 C   0  0  2  0  0  0  0  0  0  0  0  0
   19.4813  -31.5482  -11.4696 N   0  0  0  0  0  0  0  0  0  0  0  0
   18.2377  -29.5646  -11.5366 C   0  0  0  0  0  0  0  0  0  0  0  0
   18.2393  -29.4743  -10.2634 O   0  0  0  0  0  0  0  0  0  0  0  0
   20.9828  -28.1645  -15.4528 N   0  0  0  0  0  0  0  0  0  0  0  0
   21.9518  -27.2943  -14.8820 C   0  0  0  0  0  0  0  0  0  0  0  0
   23.0089  -26.9680  -15.5434 N   0  0  0  0  0  0  0  0  0  0  0  0
   21.8130  -26.7437  -13.5762 N   0  0  0  0  0  0  0  0  0  0  0  0
   20.6562  -26.9931  -12.7532 C   0  0  0  0  0  0  0  0  0  0  0  0
   19.8352  -25.7446  -12.5337 C   0  0  0  0  0  0  0  0  0  0  0  0
   18.3507  -26.0338  -12.6293 C   0  0  0  0  0  0  0  0  0  0  0  0
   17.9332  -27.0742  -11.6118 C   0  0  2  0  0  0  0  0  0  0  0  0
   18.0630  -28.3727  -12.2539 N   0  0  0  0  0  0  0  0  0  0  0  0
   16.5777  -26.8980  -11.1229 C   0  0  0  0  0  0  0  0  0  0  0  0
   15.6116  -27.2204  -11.8814 O   0  0  0  0  0  0  0  0  0  0  0  0
   23.6488  -26.2283  -15.1764 N   0  0  0  0  0  0  0  0  0  0  0  0
   16.2516  -26.3805   -9.8330 C   0  0  2  0  0  0  0  0  0  0  0  0
   14.8586  -26.3326   -9.4128 C   0  0  0  0  0  0  0  0  0  0  0  0
   14.7080  -26.7953   -7.9913 C   0  0  0  0  0  0  0  0  0  0  0  0
   15.5825  -26.0612   -7.0848 C   0  0  0  0  0  0  0  0  0  0  0  0
   16.8814  -26.4761   -6.7868 C   0  0  0  0  0  0  0  0  0  0  0  0
   17.6927  -25.7807   -5.9388 C   0  0  0  0  0  0  0  0  0  0  0  0
   17.2623  -24.6231   -5.3302 C   0  0  0  0  0  0  0  0  0  0  0  0
   15.9964  -24.1868   -5.5980 C   0  0  0  0  0  0  0  0  0  0  0  0
   15.1700  -24.8859   -6.4553 C   0  0  0  0  0  0  0  0  0  0  0  0
   14.2889  -24.9947   -9.6290 O   0  0  0  0  0  0  0  0  0  0  0  0
   12.9700  -24.6317   -9.4674 O   0  0  0  0  0  0  0  0  0  0  0  0
  2  1  1  0
  3  2  1  0
  3  4  1  6
  5  3  1  0
  5  6  1  1
  7  5  1  0
  8  7  2  0
  9 10  1  0
 10 12  1  0
 11 10  2  0
 12 13  1  0
 13 14  1  0
 14 15  1  0
 16 15  1  6
 16 18  1  0
 16 17  1  0
 17  7  1  0
 18 19  2  0
 20 21  1  0
 20 18  1  0
 21 22  1  1
 22 23  1  0
 23 28  2  0
 24 23  1  0
 24 25  2  0
 25 26  1  0
 26 27  2  0
 28 27  1  0
 29 30  1  0
 29 21  1  0
 31 29  2  0
M  END
$$$$
