IRF.pdb
     RDKit          3D

 31 31  0  0  1  0  0  0  0  0999 V2000
   27.6347  -18.3028  -17.7843 C   0  0  0  0  0  0  0  0  0  0  0  0
   27.8144  -19.3045  -16.6728 C   0  0  0  0  0  0  0  0  0  0  0  0
   27.0709  -18.9008  -15.4239 C   0  0  2  0  0  0  0  0  0  0  0  0
   27.6050  -17.5952  -14.9513 C   0  0  0  0  0  0  0  0  0  0  0  0
   27.1753  -19.9524  -14.3448 C   0  0  2  0  0  0  0  0  0  0  0  0
   26.5915  -21.2188  -14.8754 N   0  0  0  0  0  0  0  0  0  0  0  0
   26.3568  -19.6506  -13.1517 C   0  0  0  0  0  0  0  0  0  0  0  0
   26.4648  -18.5568  -12.5028 O   0  0  0  0  0  0  0  0  0  0  0  0
   20.0498  -23.4510   -9.4818 N   0  0  0  0  0  0  0  0  0  0  0  0
   20.3885  -22.4876   -8.4923 C   0  0  0  0  0  0  0  0  0  0  0  0
   20.3185  -22.7834   -7.2397 N   0  0  0  0  0  0  0  0  0  0  0  0
   20.8170  -21.1699   -8.8204 N   0  0  0  0  0  0  0  0  0  0  0  0
   21.3995  -20.8442  -10.0980 C   0  0  0  0  0  0  0  0  0  0  0  0
   22.7471  -21.4984  -10.2912 C   0  0  0  0  0  0  0  0  0  0  0  0
   23.3431  -21.1510  -11.6406 C   0  0  0  0  0  0  0  0  0  0  0  0
   24.6198  -20.3532  -11.4815 C   0  0  2  0  0  0  0  0  0  0  0  0
   25.4103  -20.5723  -12.6825 N   0  0  0  0  0  0  0  0  0  0  0  0
   25.3919  -20.7197  -10.3080 C   0  0  0  0  0  0  0  0  0  0  0  0
   25.8886  -21.8869  -10.2479 O   0  0  0  0  0  0  0  0  0  0  0  0
   20.6008  -22.0815   -6.5193 N   0  0  0  0  0  0  0  0  0  0  0  0
   25.6339  -19.8486   -9.2033 C   0  0  2  0  0  0  0  0  0  0  0  0
   26.4311  -20.3215   -8.0808 C   0  0  0  0  0  0  0  0  0  0  0  0
   27.1889  -19.1915   -7.4435 C   0  0  0  0  0  0  0  0  0  0  0  0
   27.8967  -19.6198   -6.2432 C   0  0  0  0  0  0  0  0  0  0  0  0
   27.4366  -19.3419   -4.9550 C   0  0  0  0  0  0  0  0  0  0  0  0
   28.1052  -19.7493   -3.8380 C   0  0  0  0  0  0  0  0  0  0  0  0
   29.2794  -20.4622   -3.9308 C   0  0  0  0  0  0  0  0  0  0  0  0
   29.7602  -20.7524   -5.1754 C   0  0  0  0  0  0  0  0  0  0  0  0
   29.0885  -20.3431   -6.3103 C   0  0  0  0  0  0  0  0  0  0  0  0
   25.5984  -21.0520   -7.1141 O   0  0  0  0  0  0  0  0  0  0  0  0
   26.0221  -22.0379   -6.2505 O   0  0  0  0  0  0  0  0  0  0  0  0
  2  1  1  0
  3  2  1  0
  3  4  1  1
  5  3  1  0
  5  6  1  6
  7  5  1  0
  8  7  2  0
  9 10  1  0
 10 12  1  0
 11 10  2  0
 12 13  1  0
 13 14  1  0
 14 15  1  0
 16 15  1  6
 16 18  1  0
 16 17  1  0
 17  7  1  0
 18 19  2  0
 20 21  1  0
 20 18  1  0
 21 22  1  1
 22 23  1  0
 23 28  2  0
 24 23  1  0
 24 25  2  0
 25 26  1  0
 26 27  2  0
 28 27  1  0
 29 30  1  0
 29 21  1  0
 31 29  2  0
M  END
$$$$
