IRF.pdb
     RDKit          3D

 31 31  0  0  1  0  0  0  0  0999 V2000
   23.3241  -13.0265  -18.2860 C   0  0  0  0  0  0  0  0  0  0  0  0
   24.0774  -14.3035  -18.0161 C   0  0  0  0  0  0  0  0  0  0  0  0
   23.1533  -15.4353  -17.6411 C   0  0  2  0  0  0  0  0  0  0  0  0
   22.4435  -15.0756  -16.3842 C   0  0  0  0  0  0  0  0  0  0  0  0
   23.8983  -16.7403  -17.4892 C   0  0  2  0  0  0  0  0  0  0  0  0
   24.5136  -17.0774  -18.8060 N   0  0  0  0  0  0  0  0  0  0  0  0
   23.0143  -17.8890  -17.2000 C   0  0  0  0  0  0  0  0  0  0  0  0
   22.0758  -18.2492  -17.9864 O   0  0  0  0  0  0  0  0  0  0  0  0
   25.3505  -22.7819  -15.9377 N   0  0  0  0  0  0  0  0  0  0  0  0
   24.7163  -23.9714  -15.4854 C   0  0  0  0  0  0  0  0  0  0  0  0
   25.4161  -25.0060  -15.1671 N   0  0  0  0  0  0  0  0  0  0  0  0
   23.3026  -24.0858  -15.3588 N   0  0  0  0  0  0  0  0  0  0  0  0
   22.4127  -22.9845  -15.6285 C   0  0  0  0  0  0  0  0  0  0  0  0
   22.4021  -21.9745  -14.5056 C   0  0  0  0  0  0  0  0  0  0  0  0
   23.1842  -20.7294  -14.8730 C   0  0  0  0  0  0  0  0  0  0  0  0
   22.3379  -19.7782  -15.6921 C   0  0  2  0  0  0  0  0  0  0  0  0
   23.1809  -18.6420  -16.0293 N   0  0  0  0  0  0  0  0  0  0  0  0
   21.1449  -19.3209  -15.0028 C   0  0  0  0  0  0  0  0  0  0  0  0
   21.2778  -18.7216  -13.8911 O   0  0  0  0  0  0  0  0  0  0  0  0
   24.9545  -25.8380  -14.7357 N   0  0  0  0  0  0  0  0  0  0  0  0
   19.8166  -19.5011  -15.4937 C   0  0  2  0  0  0  0  0  0  0  0  0
   18.6923  -19.0041  -14.7138 C   0  0  0  0  0  0  0  0  0  0  0  0
   18.1675  -17.7169  -15.2841 C   0  0  0  0  0  0  0  0  0  0  0  0
   17.6612  -17.8893  -16.6403 C   0  0  0  0  0  0  0  0  0  0  0  0
   17.0636  -19.0718  -17.0790 C   0  0  0  0  0  0  0  0  0  0  0  0
   16.5909  -19.2224  -18.3497 C   0  0  0  0  0  0  0  0  0  0  0  0
   16.6827  -18.2020  -19.2695 C   0  0  0  0  0  0  0  0  0  0  0  0
   17.2621  -17.0300  -18.8758 C   0  0  0  0  0  0  0  0  0  0  0  0
   17.7426  -16.8709  -17.5911 C   0  0  0  0  0  0  0  0  0  0  0  0
   17.6451  -20.0282  -14.5877 O   0  0  0  0  0  0  0  0  0  0  0  0
   16.4961  -19.9344  -13.8338 O   0  0  0  0  0  0  0  0  0  0  0  0
  2  1  1  0
  3  2  1  0
  3  4  1  1
  5  3  1  0
  5  6  1  6
  7  5  1  0
  8  7  2  0
  9 10  1  0
 10 12  1  0
 11 10  2  0
 12 13  1  0
 13 14  1  0
 14 15  1  0
 16 15  1  1
 16 18  1  0
 16 17  1  0
 17  7  1  0
 18 19  2  0
 20 21  1  0
 20 18  1  0
 21 22  1  1
 22 23  1  0
 23 28  2  0
 24 23  1  0
 24 25  2  0
 25 26  1  0
 26 27  2  0
 28 27  1  0
 29 30  1  0
 29 21  1  0
 31 29  2  0
M  END
$$$$
