IRF.pdb
     RDKit          3D

 31 31  0  0  1  0  0  0  0  0999 V2000
   28.2745  -26.4481  -22.6060 C   0  0  0  0  0  0  0  0  0  0  0  0
   28.6547  -27.0298  -21.2688 C   0  0  0  0  0  0  0  0  0  0  0  0
   27.5742  -27.9250  -20.7151 C   0  0  2  0  0  0  0  0  0  0  0  0
   26.3543  -27.1082  -20.4743 C   0  0  0  0  0  0  0  0  0  0  0  0
   28.0178  -28.6234  -19.4515 C   0  0  2  0  0  0  0  0  0  0  0  0
   29.1640  -29.5150  -19.7941 N   0  0  0  0  0  0  0  0  0  0  0  0
   26.9988  -29.5418  -18.9014 C   0  0  0  0  0  0  0  0  0  0  0  0
   26.7011  -30.6512  -19.4580 O   0  0  0  0  0  0  0  0  0  0  0  0
   29.2276  -32.9439  -14.8869 N   0  0  0  0  0  0  0  0  0  0  0  0
   28.0565  -33.5765  -14.3868 C   0  0  0  0  0  0  0  0  0  0  0  0
   27.9794  -33.9262  -13.1486 N   0  0  0  0  0  0  0  0  0  0  0  0
   26.9252  -33.8528  -15.2062 N   0  0  0  0  0  0  0  0  0  0  0  0
   26.5105  -32.9732  -16.2702 C   0  0  0  0  0  0  0  0  0  0  0  0
   27.0055  -31.5611  -16.0653 C   0  0  0  0  0  0  0  0  0  0  0  0
   25.8575  -30.6007  -15.8276 C   0  0  0  0  0  0  0  0  0  0  0  0
   25.2984  -30.0874  -17.1375 C   0  0  2  0  0  0  0  0  0  0  0  0
   26.3111  -29.2226  -17.7221 N   0  0  0  0  0  0  0  0  0  0  0  0
   24.0511  -29.3591  -16.9915 C   0  0  0  0  0  0  0  0  0  0  0  0
   24.0715  -28.2296  -16.4114 O   0  0  0  0  0  0  0  0  0  0  0  0
   27.1410  -34.4442  -12.8020 N   0  0  0  0  0  0  0  0  0  0  0  0
   22.7877  -29.8307  -17.4600 C   0  0  1  0  0  0  0  0  0  0  0  0
   21.6056  -28.9985  -17.2892 C   0  0  0  0  0  0  0  0  0  0  0  0
   21.8107  -27.6393  -17.8959 C   0  0  0  0  0  0  0  0  0  0  0  0
   20.6045  -26.8237  -17.8236 C   0  0  0  0  0  0  0  0  0  0  0  0
   19.7131  -26.6969  -18.8901 C   0  0  0  0  0  0  0  0  0  0  0  0
   18.5857  -25.9330  -18.8116 C   0  0  0  0  0  0  0  0  0  0  0  0
   18.2713  -25.2431  -17.6623 C   0  0  0  0  0  0  0  0  0  0  0  0
   19.1208  -25.3432  -16.5980 C   0  0  0  0  0  0  0  0  0  0  0  0
   20.2636  -26.1147  -16.6707 C   0  0  0  0  0  0  0  0  0  0  0  0
   20.4081  -29.6705  -17.8143 O   0  0  0  0  0  0  0  0  0  0  0  0
   20.3849  -30.7677  -18.6468 O   0  0  0  0  0  0  0  0  0  0  0  0
  2  1  1  0
  3  2  1  0
  3  4  1  1
  5  3  1  0
  5  6  1  6
  7  5  1  0
  8  7  2  0
  9 10  1  0
 10 12  1  0
 11 10  2  0
 12 13  1  0
 13 14  1  0
 14 15  1  0
 16 15  1  1
 16 18  1  0
 16 17  1  0
 17  7  1  0
 18 19  2  0
 20 21  1  0
 20 18  1  0
 21 22  1  1
 22 23  1  0
 23 28  2  0
 24 23  1  0
 24 25  2  0
 25 26  1  0
 26 27  2  0
 28 27  1  0
 29 30  1  0
 29 21  1  0
 31 29  2  0
M  END
$$$$
