IRF.pdb
     RDKit          3D

 31 31  0  0  1  0  0  0  0  0999 V2000
   28.2066  -18.9869   -6.6077 C   0  0  0  0  0  0  0  0  0  0  0  0
   27.1877  -19.9978   -7.0671 C   0  0  0  0  0  0  0  0  0  0  0  0
   26.6358  -19.6631   -8.4305 C   0  0  2  0  0  0  0  0  0  0  0  0
   26.0452  -18.2984   -8.3845 C   0  0  0  0  0  0  0  0  0  0  0  0
   25.6172  -20.6801   -8.8881 C   0  0  2  0  0  0  0  0  0  0  0  0
   26.3185  -21.9832   -9.0787 N   0  0  0  0  0  0  0  0  0  0  0  0
   25.0467  -20.3800  -10.2181 C   0  0  0  0  0  0  0  0  0  0  0  0
   24.3556  -19.3322  -10.4492 O   0  0  0  0  0  0  0  0  0  0  0  0
   27.8217  -22.2299  -15.6692 N   0  0  0  0  0  0  0  0  0  0  0  0
   27.0852  -22.2920  -16.8840 C   0  0  0  0  0  0  0  0  0  0  0  0
   27.5930  -21.8444  -17.9809 N   0  0  0  0  0  0  0  0  0  0  0  0
   25.7738  -22.8418  -16.9580 N   0  0  0  0  0  0  0  0  0  0  0  0
   25.0078  -23.1700  -15.7819 C   0  0  0  0  0  0  0  0  0  0  0  0
   24.7141  -21.9528  -14.9374 C   0  0  0  0  0  0  0  0  0  0  0  0
   25.1859  -22.1422  -13.5097 C   0  0  0  0  0  0  0  0  0  0  0  0
   24.7294  -20.9977  -12.6302 C   0  0  2  0  0  0  0  0  0  0  0  0
   25.2516  -21.2518  -11.2968 N   0  0  0  0  0  0  0  0  0  0  0  0
   23.2866  -20.8465  -12.5753 C   0  0  0  0  0  0  0  0  0  0  0  0
   22.6154  -21.6713  -11.8811 O   0  0  0  0  0  0  0  0  0  0  0  0
   27.0995  -22.0005  -18.8883 N   0  0  0  0  0  0  0  0  0  0  0  0
   22.5612  -19.8228  -13.2563 C   0  0  2  0  0  0  0  0  0  0  0  0
   21.1371  -19.6639  -12.9998 C   0  0  0  0  0  0  0  0  0  0  0  0
   20.6877  -18.2626  -13.3028 C   0  0  0  0  0  0  0  0  0  0  0  0
   20.7598  -17.9645  -14.7280 C   0  0  0  0  0  0  0  0  0  0  0  0
   21.9351  -17.5462  -15.3540 C   0  0  0  0  0  0  0  0  0  0  0  0
   21.9928  -17.2719  -16.6890 C   0  0  0  0  0  0  0  0  0  0  0  0
   20.8803  -17.3966  -17.4905 C   0  0  0  0  0  0  0  0  0  0  0  0
   19.7122  -17.8034  -16.9125 C   0  0  0  0  0  0  0  0  0  0  0  0
   19.6468  -18.0827  -15.5618 C   0  0  0  0  0  0  0  0  0  0  0  0
   20.3548  -20.6724  -13.7293 O   0  0  0  0  0  0  0  0  0  0  0  0
   19.0428  -21.0185  -13.4918 O   0  0  0  0  0  0  0  0  0  0  0  0
  2  1  1  0
  3  2  1  0
  3  4  1  1
  5  3  1  0
  5  6  1  6
  7  5  1  0
  8  7  2  0
  9 10  1  0
 10 12  1  0
 11 10  2  0
 12 13  1  0
 13 14  1  0
 14 15  1  0
 16 15  1  6
 16 18  1  0
 16 17  1  0
 17  7  1  0
 18 19  2  0
 20 21  1  0
 20 18  1  0
 21 22  1  1
 22 23  1  0
 23 28  2  0
 24 23  1  0
 24 25  2  0
 25 26  1  0
 26 27  2  0
 28 27  1  0
 29 30  1  0
 29 21  1  0
 31 29  2  0
M  END
$$$$
