IRF.pdb
     RDKit          3D

 31 31  0  0  1  0  0  0  0  0999 V2000
   26.6704  -14.6998  -17.1809 C   0  0  0  0  0  0  0  0  0  0  0  0
   27.4820  -15.5462  -16.2345 C   0  0  0  0  0  0  0  0  0  0  0  0
   26.6093  -16.4260  -15.3744 C   0  0  2  0  0  0  0  0  0  0  0  0
   25.6833  -15.5624  -14.5933 C   0  0  0  0  0  0  0  0  0  0  0  0
   27.4285  -17.3078  -14.4620 C   0  0  2  0  0  0  0  0  0  0  0  0
   28.3511  -18.1188  -15.3088 N   0  0  0  0  0  0  0  0  0  0  0  0
   26.6216  -18.3150  -13.7416 C   0  0  0  0  0  0  0  0  0  0  0  0
   25.6263  -18.0010  -13.0069 O   0  0  0  0  0  0  0  0  0  0  0  0
   23.4334  -25.3625  -15.0711 N   0  0  0  0  0  0  0  0  0  0  0  0
   23.1965  -25.2737  -13.6718 C   0  0  0  0  0  0  0  0  0  0  0  0
   22.7975  -26.3045  -13.0088 N   0  0  0  0  0  0  0  0  0  0  0  0
   23.3837  -24.0681  -12.9377 N   0  0  0  0  0  0  0  0  0  0  0  0
   24.1566  -22.9649  -13.4509 C   0  0  0  0  0  0  0  0  0  0  0  0
   25.6329  -23.1300  -13.1781 C   0  0  0  0  0  0  0  0  0  0  0  0
   26.4414  -22.0166  -13.8131 C   0  0  0  0  0  0  0  0  0  0  0  0
   26.2242  -20.7056  -13.0877 C   0  0  2  0  0  0  0  0  0  0  0  0
   26.9246  -19.6800  -13.8446 N   0  0  0  0  0  0  0  0  0  0  0  0
   26.6963  -20.7157  -11.7150 C   0  0  0  0  0  0  0  0  0  0  0  0
   27.8796  -21.1138  -11.4824 O   0  0  0  0  0  0  0  0  0  0  0  0
   22.6176  -26.2295  -11.9825 N   0  0  0  0  0  0  0  0  0  0  0  0
   25.9128  -20.3047  -10.5947 C   0  0  1  0  0  0  0  0  0  0  0  0
   26.3977  -20.5680   -9.2475 C   0  0  0  0  0  0  0  0  0  0  0  0
   27.3503  -19.4965   -8.7982 C   0  0  0  0  0  0  0  0  0  0  0  0
   27.7445  -19.6684   -7.4052 C   0  0  0  0  0  0  0  0  0  0  0  0
   27.1971  -18.9138   -6.3664 C   0  0  0  0  0  0  0  0  0  0  0  0
   27.5712  -19.0840   -5.0657 C   0  0  0  0  0  0  0  0  0  0  0  0
   28.5177  -20.0196   -4.7132 C   0  0  0  0  0  0  0  0  0  0  0  0
   29.0755  -20.7763   -5.7034 C   0  0  0  0  0  0  0  0  0  0  0  0
   28.7015  -20.6092   -7.0221 C   0  0  0  0  0  0  0  0  0  0  0  0
   25.2789  -20.7504   -8.3114 O   0  0  0  0  0  0  0  0  0  0  0  0
   25.3093  -21.4549   -7.1281 O   0  0  0  0  0  0  0  0  0  0  0  0
  2  1  1  0
  3  2  1  0
  3  4  1  1
  5  3  1  0
  5  6  1  6
  7  5  1  0
  8  7  2  0
  9 10  1  0
 10 12  1  0
 11 10  2  0
 12 13  1  0
 13 14  1  0
 14 15  1  0
 16 15  1  6
 16 18  1  0
 16 17  1  0
 17  7  1  0
 18 19  2  0
 20 21  1  0
 20 18  1  0
 21 22  1  1
 22 23  1  0
 23 28  2  0
 24 23  1  0
 24 25  2  0
 25 26  1  0
 26 27  2  0
 28 27  1  0
 29 30  1  0
 29 21  1  0
 31 29  2  0
M  END
$$$$
