IRF.pdb
     RDKit          3D

 31 31  0  0  1  0  0  0  0  0999 V2000
   23.5400  -13.6409  -15.9489 C   0  0  0  0  0  0  0  0  0  0  0  0
   23.1853  -15.0079  -16.4746 C   0  0  0  0  0  0  0  0  0  0  0  0
   23.7667  -16.1085  -15.6224 C   0  0  2  0  0  0  0  0  0  0  0  0
   25.2402  -15.9211  -15.5405 C   0  0  0  0  0  0  0  0  0  0  0  0
   23.4228  -17.4765  -16.1622 C   0  0  2  0  0  0  0  0  0  0  0  0
   21.9363  -17.6008  -16.1936 N   0  0  0  0  0  0  0  0  0  0  0  0
   23.8581  -18.5803  -15.2809 C   0  0  0  0  0  0  0  0  0  0  0  0
   23.2204  -18.9095  -14.2255 O   0  0  0  0  0  0  0  0  0  0  0  0
   25.0958  -25.4939  -15.0676 N   0  0  0  0  0  0  0  0  0  0  0  0
   24.4965  -25.4844  -16.3570 C   0  0  0  0  0  0  0  0  0  0  0  0
   23.5987  -26.3554  -16.6681 N   0  0  0  0  0  0  0  0  0  0  0  0
   24.8443  -24.5320  -17.3569 N   0  0  0  0  0  0  0  0  0  0  0  0
   25.7190  -23.4180  -17.0896 C   0  0  0  0  0  0  0  0  0  0  0  0
   25.1235  -22.4552  -16.0899 C   0  0  0  0  0  0  0  0  0  0  0  0
   26.1391  -21.4236  -15.6415 C   0  0  0  0  0  0  0  0  0  0  0  0
   25.5029  -20.3948  -14.7311 C   0  0  2  0  0  0  0  0  0  0  0  0
   25.0087  -19.3229  -15.5808 N   0  0  0  0  0  0  0  0  0  0  0  0
   26.4132  -19.8570  -13.7363 C   0  0  0  0  0  0  0  0  0  0  0  0
   26.4436  -18.6001  -13.5572 O   0  0  0  0  0  0  0  0  0  0  0  0
   23.2203  -26.3928  -17.6410 N   0  0  0  0  0  0  0  0  0  0  0  0
   27.2876  -20.6527  -12.9362 C   0  0  2  0  0  0  0  0  0  0  0  0
   27.0608  -20.7420  -11.5010 C   0  0  0  0  0  0  0  0  0  0  0  0
   26.4238  -19.4864  -10.9765 C   0  0  0  0  0  0  0  0  0  0  0  0
   26.3293  -19.4912   -9.5217 C   0  0  0  0  0  0  0  0  0  0  0  0
   25.5341  -20.3981   -8.8192 C   0  0  0  0  0  0  0  0  0  0  0  0
   25.4543  -20.3958   -7.4574 C   0  0  0  0  0  0  0  0  0  0  0  0
   26.1633  -19.4875   -6.7038 C   0  0  0  0  0  0  0  0  0  0  0  0
   26.9519  -18.5845   -7.3572 C   0  0  0  0  0  0  0  0  0  0  0  0
   27.0373  -18.5812   -8.7353 C   0  0  0  0  0  0  0  0  0  0  0  0
   26.2861  -21.9453  -11.1641 O   0  0  0  0  0  0  0  0  0  0  0  0
   26.6154  -22.8919  -10.2193 O   0  0  0  0  0  0  0  0  0  0  0  0
  2  1  1  0
  3  2  1  0
  3  4  1  6
  5  3  1  0
  5  6  1  1
  7  5  1  0
  8  7  2  0
  9 10  1  0
 10 12  1  0
 11 10  2  0
 12 13  1  0
 13 14  1  0
 14 15  1  0
 16 15  1  6
 16 18  1  0
 16 17  1  0
 17  7  1  0
 18 19  2  0
 20 21  1  0
 20 18  1  0
 21 22  1  6
 22 23  1  0
 23 28  2  0
 24 23  1  0
 24 25  2  0
 25 26  1  0
 26 27  2  0
 28 27  1  0
 29 30  1  0
 29 21  1  0
 31 29  2  0
M  END
$$$$
