IRF.pdb
     RDKit          3D

 31 31  0  0  1  0  0  0  0  0999 V2000
   26.1820  -12.8506  -17.4176 C   0  0  0  0  0  0  0  0  0  0  0  0
   26.7179  -14.2233  -17.7327 C   0  0  0  0  0  0  0  0  0  0  0  0
   25.7553  -15.3116  -17.3271 C   0  0  2  0  0  0  0  0  0  0  0  0
   25.5227  -15.2209  -15.8604 C   0  0  0  0  0  0  0  0  0  0  0  0
   26.2627  -16.6810  -17.7124 C   0  0  2  0  0  0  0  0  0  0  0  0
   26.5303  -16.6788  -19.1802 N   0  0  0  0  0  0  0  0  0  0  0  0
   25.2584  -17.7501  -17.5309 C   0  0  0  0  0  0  0  0  0  0  0  0
   24.2728  -17.9096  -18.3260 O   0  0  0  0  0  0  0  0  0  0  0  0
   29.4625  -24.1384  -17.2548 N   0  0  0  0  0  0  0  0  0  0  0  0
   28.6135  -23.2289  -16.5663 C   0  0  0  0  0  0  0  0  0  0  0  0
   28.9508  -21.9922  -16.4322 N   0  0  0  0  0  0  0  0  0  0  0  0
   27.3681  -23.6225  -15.9990 N   0  0  0  0  0  0  0  0  0  0  0  0
   26.5435  -22.7133  -15.2432 C   0  0  0  0  0  0  0  0  0  0  0  0
   25.8487  -21.7065  -16.1289 C   0  0  0  0  0  0  0  0  0  0  0  0
   25.0388  -20.7179  -15.3144 C   0  0  0  0  0  0  0  0  0  0  0  0
   24.3752  -19.6921  -16.2084 C   0  0  2  0  0  0  0  0  0  0  0  0
   25.3565  -18.6483  -16.4589 N   0  0  0  0  0  0  0  0  0  0  0  0
   23.1732  -19.1131  -15.6361 C   0  0  0  0  0  0  0  0  0  0  0  0
   23.2268  -18.6439  -14.4572 O   0  0  0  0  0  0  0  0  0  0  0  0
   28.2878  -21.3129  -15.9959 N   0  0  0  0  0  0  0  0  0  0  0  0
   21.9197  -19.0342  -16.3147 C   0  0  1  0  0  0  0  0  0  0  0  0
   20.7624  -18.4911  -15.6185 C   0  0  0  0  0  0  0  0  0  0  0  0
   20.1923  -17.3135  -16.3572 C   0  0  0  0  0  0  0  0  0  0  0  0
   20.9221  -16.0851  -16.0684 C   0  0  0  0  0  0  0  0  0  0  0  0
   20.7958  -15.3973  -14.8604 C   0  0  0  0  0  0  0  0  0  0  0  0
   21.4850  -14.2496  -14.5990 C   0  0  0  0  0  0  0  0  0  0  0  0
   22.3479  -13.7099  -15.5262 C   0  0  0  0  0  0  0  0  0  0  0  0
   22.4967  -14.3555  -16.7201 C   0  0  0  0  0  0  0  0  0  0  0  0
   21.8020  -15.5177  -16.9913 C   0  0  0  0  0  0  0  0  0  0  0  0
   19.7582  -19.5361  -15.3714 O   0  0  0  0  0  0  0  0  0  0  0  0
   18.5899  -19.3946  -14.6555 O   0  0  0  0  0  0  0  0  0  0  0  0
  2  1  1  0
  3  2  1  0
  3  4  1  1
  5  3  1  0
  5  6  1  6
  7  5  1  0
  8  7  2  0
  9 10  1  0
 10 12  1  0
 11 10  2  0
 12 13  1  0
 13 14  1  0
 14 15  1  0
 16 15  1  1
 16 18  1  0
 16 17  1  0
 17  7  1  0
 18 19  2  0
 20 21  1  0
 20 18  1  0
 21 22  1  1
 22 23  1  0
 23 28  2  0
 24 23  1  0
 24 25  2  0
 25 26  1  0
 26 27  2  0
 28 27  1  0
 29 30  1  0
 29 21  1  0
 31 29  2  0
M  END
$$$$
