IVE.pdb
     RDKit          3D

 25 24  0  0  1  0  0  0  0  0999 V2000
   18.8754   -9.7818  -22.4116 C   0  0  0  0  0  0  0  0  0  0  0  0
   19.6876  -10.7117  -21.5549 C   0  0  0  0  0  0  0  0  0  0  0  0
   19.7562  -10.2081  -20.1109 C   0  0  2  0  0  0  0  0  0  0  0  0
   20.5345   -8.9160  -20.1496 C   0  0  0  0  0  0  0  0  0  0  0  0
   20.5239  -11.2247  -19.2711 C   0  0  2  0  0  0  0  0  0  0  0  0
   19.7500  -12.4482  -19.3119 N   0  0  0  0  0  0  0  0  0  0  0  0
   20.6498  -10.7779  -17.8666 C   0  0  0  0  0  0  0  0  0  0  0  0
   19.6332  -10.8338  -17.1362 O   0  0  0  0  0  0  0  0  0  0  0  0
   22.5898  -12.0637  -15.0465 C   0  0  0  0  0  0  0  0  0  0  0  0
   23.0296  -10.6538  -15.2458 C   0  0  2  0  0  0  0  0  0  0  0  0
   23.2375  -10.0318  -13.8775 C   0  0  0  0  0  0  0  0  0  0  0  0
   21.9996   -9.8073  -15.9650 C   0  0  2  0  0  0  0  0  0  0  0  0
   21.8465  -10.2923  -17.3005 N   0  0  0  0  0  0  0  0  0  0  0  0
   22.2574   -8.3743  -15.8608 C   0  0  0  0  0  0  0  0  0  0  0  0
   23.2318   -7.8681  -16.4702 O   0  0  0  0  0  0  0  0  0  0  0  0
   21.4573   -7.4873  -15.0943 N   0  0  0  0  0  0  0  0  0  0  0  0
   21.8073   -6.0631  -14.9450 C   0  0  1  0  0  0  0  0  0  0  0  0
   20.7259   -5.2990  -15.6301 C   0  0  0  0  0  0  0  0  0  0  0  0
   20.8561   -3.8082  -15.5678 C   0  0  0  0  0  0  0  0  0  0  0  0
   19.7336   -3.1974  -16.3054 C   0  0  0  0  0  0  0  0  0  0  0  0
   18.8930   -3.9229  -16.8697 O   0  0  0  0  0  0  0  0  0  0  0  0
   21.9215   -5.7266  -13.5219 C   0  0  0  0  0  0  0  0  0  0  0  0
   22.6736   -4.6576  -13.0804 O   0  0  0  0  0  0  0  0  0  0  0  0
   19.6055   -1.8278  -16.3767 O   0  0  0  0  0  0  0  0  0  0  0  0
   21.3364   -6.3975  -12.6056 O   0  0  0  0  0  0  0  0  0  0  0  0
  1  2  1  0
  2  3  1  0
  3  5  1  0
  3  4  1  6
  5  6  1  1
  7  5  1  0
  7  8  2  0
 10  9  1  1
 10 12  1  0
 11 10  1  0
 12 13  1  6
 13  7  1  0
 14 12  1  0
 15 14  2  0
 16 14  1  0
 17 18  1  1
 17 16  1  0
 18 19  1  0
 20 21  2  0
 20 19  1  0
 22 17  1  0
 23 22  1  0
 24 20  1  0
 25 22  2  0
M  END
$$$$
