IVE.pdb
     RDKit          3D

 25 24  0  0  1  0  0  0  0  0999 V2000
   28.7750  -12.9404  -16.2333 C   0  0  0  0  0  0  0  0  0  0  0  0
   27.3670  -13.3177  -15.8678 C   0  0  0  0  0  0  0  0  0  0  0  0
   26.4144  -12.1349  -16.0607 C   0  0  2  0  0  0  0  0  0  0  0  0
   26.8874  -11.0527  -15.1218 C   0  0  0  0  0  0  0  0  0  0  0  0
   25.0079  -12.5647  -15.6543 C   0  0  2  0  0  0  0  0  0  0  0  0
   24.7059  -13.7466  -16.4348 N   0  0  0  0  0  0  0  0  0  0  0  0
   24.0136  -11.5137  -15.9624 C   0  0  0  0  0  0  0  0  0  0  0  0
   23.8090  -11.2294  -17.1655 O   0  0  0  0  0  0  0  0  0  0  0  0
   20.4765  -11.5546  -15.5705 C   0  0  0  0  0  0  0  0  0  0  0  0
   20.9320  -10.3770  -14.7788 C   0  0  2  0  0  0  0  0  0  0  0  0
   19.9159   -9.2660  -14.9678 C   0  0  0  0  0  0  0  0  0  0  0  0
   22.2704   -9.8356  -15.2376 C   0  0  2  0  0  0  0  0  0  0  0  0
   23.2818  -10.8124  -14.9821 N   0  0  0  0  0  0  0  0  0  0  0  0
   22.5618   -8.5033  -14.7172 C   0  0  0  0  0  0  0  0  0  0  0  0
   22.9432   -8.3656  -13.5287 O   0  0  0  0  0  0  0  0  0  0  0  0
   22.4396   -7.3169  -15.4866 N   0  0  0  0  0  0  0  0  0  0  0  0
   22.6740   -5.9858  -14.8981 C   0  0  1  0  0  0  0  0  0  0  0  0
   22.6391   -5.0210  -16.0341 C   0  0  0  0  0  0  0  0  0  0  0  0
   22.7398   -3.5764  -15.6516 C   0  0  0  0  0  0  0  0  0  0  0  0
   22.6774   -2.7511  -16.8731 C   0  0  0  0  0  0  0  0  0  0  0  0
   21.5761   -2.3554  -17.2998 O   0  0  0  0  0  0  0  0  0  0  0  0
   21.6506   -5.7033  -13.8861 C   0  0  0  0  0  0  0  0  0  0  0  0
   21.9319   -4.9883  -12.7401 O   0  0  0  0  0  0  0  0  0  0  0  0
   23.8289   -2.4127  -17.5489 O   0  0  0  0  0  0  0  0  0  0  0  0
   20.4412   -6.0990  -13.9993 O   0  0  0  0  0  0  0  0  0  0  0  0
  1  2  1  0
  2  3  1  0
  3  5  1  0
  3  4  1  1
  5  6  1  6
  7  5  1  0
  7  8  2  0
 10  9  1  6
 10 12  1  0
 11 10  1  0
 12 13  1  1
 13  7  1  0
 14 12  1  0
 15 14  2  0
 16 14  1  0
 17 18  1  6
 17 16  1  0
 18 19  1  0
 20 21  2  0
 20 19  1  0
 22 17  1  0
 23 22  1  0
 24 20  1  0
 25 22  2  0
M  END
$$$$
