IVE.pdb
     RDKit          3D

 25 24  0  0  1  0  0  0  0  0999 V2000
   26.8176  -19.4727   -7.0637 C   0  0  0  0  0  0  0  0  0  0  0  0
   27.0412  -20.4885   -8.1484 C   0  0  0  0  0  0  0  0  0  0  0  0
   26.1834  -20.1765   -9.3774 C   0  0  2  0  0  0  0  0  0  0  0  0
   24.7489  -20.3762   -8.9544 C   0  0  0  0  0  0  0  0  0  0  0  0
   26.5198  -21.1772  -10.4790 C   0  0  2  0  0  0  0  0  0  0  0  0
   27.9312  -21.0112  -10.7577 N   0  0  0  0  0  0  0  0  0  0  0  0
   25.7475  -20.9025  -11.7104 C   0  0  0  0  0  0  0  0  0  0  0  0
   26.0504  -19.8899  -12.3834 O   0  0  0  0  0  0  0  0  0  0  0  0
   25.4539  -22.9492  -14.6827 C   0  0  0  0  0  0  0  0  0  0  0  0
   24.0473  -22.6796  -14.2708 C   0  0  2  0  0  0  0  0  0  0  0  0
   23.2463  -22.3679  -15.5213 C   0  0  0  0  0  0  0  0  0  0  0  0
   23.9175  -21.4821  -13.3521 C   0  0  2  0  0  0  0  0  0  0  0  0
   24.6899  -21.7128  -12.1721 N   0  0  0  0  0  0  0  0  0  0  0  0
   22.5326  -21.0898  -13.1094 C   0  0  0  0  0  0  0  0  0  0  0  0
   21.8448  -21.7136  -12.2639 O   0  0  0  0  0  0  0  0  0  0  0  0
   21.8911  -20.0187  -13.7845 N   0  0  0  0  0  0  0  0  0  0  0  0
   20.4869  -19.6629  -13.5117 C   0  0  1  0  0  0  0  0  0  0  0  0
   20.2944  -18.2917  -14.0640 C   0  0  0  0  0  0  0  0  0  0  0  0
   20.2391  -17.1930  -13.0474 C   0  0  0  0  0  0  0  0  0  0  0  0
   19.2132  -16.2139  -13.4545 C   0  0  0  0  0  0  0  0  0  0  0  0
   19.3145  -15.6263  -14.5480 O   0  0  0  0  0  0  0  0  0  0  0  0
   19.5956  -20.6504  -14.1297 C   0  0  0  0  0  0  0  0  0  0  0  0
   18.4306  -21.0680  -13.5199 O   0  0  0  0  0  0  0  0  0  0  0  0
   18.1404  -15.9420  -12.6343 O   0  0  0  0  0  0  0  0  0  0  0  0
   19.8392  -21.1844  -15.2644 O   0  0  0  0  0  0  0  0  0  0  0  0
  1  2  1  0
  2  3  1  0
  3  5  1  0
  3  4  1  1
  5  6  1  6
  7  5  1  0
  7  8  2  0
 10  9  1  6
 10 12  1  0
 11 10  1  0
 12 13  1  1
 13  7  1  0
 14 12  1  0
 15 14  2  0
 16 14  1  0
 17 18  1  6
 17 16  1  0
 18 19  1  0
 20 21  2  0
 20 19  1  0
 22 17  1  0
 23 22  1  0
 24 20  1  0
 25 22  2  0
M  END
$$$$
