IVE.pdb
     RDKit          3D

 25 24  0  0  1  0  0  0  0  0999 V2000
   15.1933  -10.9199  -11.4499 C   0  0  0  0  0  0  0  0  0  0  0  0
   15.9540   -9.7004  -11.0113 C   0  0  0  0  0  0  0  0  0  0  0  0
   16.7501   -9.1027  -12.1743 C   0  0  2  0  0  0  0  0  0  0  0  0
   17.7758  -10.1390  -12.5624 C   0  0  0  0  0  0  0  0  0  0  0  0
   17.4709   -7.8501  -11.6848 C   0  0  2  0  0  0  0  0  0  0  0  0
   16.4369   -6.9311  -11.2564 N   0  0  0  0  0  0  0  0  0  0  0  0
   18.2574   -7.2228  -12.7693 C   0  0  0  0  0  0  0  0  0  0  0  0
   17.6353   -6.7003  -13.7232 O   0  0  0  0  0  0  0  0  0  0  0  0
   20.5559   -4.3498  -13.3024 C   0  0  0  0  0  0  0  0  0  0  0  0
   21.3335   -5.6055  -13.5012 C   0  0  2  0  0  0  0  0  0  0  0  0
   22.3201   -5.3699  -14.6298 C   0  0  0  0  0  0  0  0  0  0  0  0
   20.4684   -6.7808  -13.9077 C   0  0  2  0  0  0  0  0  0  0  0  0
   19.6666   -7.1779  -12.7934 N   0  0  0  0  0  0  0  0  0  0  0  0
   21.2231   -7.8620  -14.5341 C   0  0  0  0  0  0  0  0  0  0  0  0
   22.1889   -8.3851  -13.9254 O   0  0  0  0  0  0  0  0  0  0  0  0
   20.9304   -8.3778  -15.8236 N   0  0  0  0  0  0  0  0  0  0  0  0
   21.7091   -9.4842  -16.4090 C   0  0  1  0  0  0  0  0  0  0  0  0
   20.7393  -10.5920  -16.6429 C   0  0  0  0  0  0  0  0  0  0  0  0
   21.3065  -11.8125  -17.3001 C   0  0  0  0  0  0  0  0  0  0  0  0
   20.2495  -12.8368  -17.4037 C   0  0  0  0  0  0  0  0  0  0  0  0
   20.0369  -13.4022  -18.4930 O   0  0  0  0  0  0  0  0  0  0  0  0
   22.3601   -9.0340  -17.6438 C   0  0  0  0  0  0  0  0  0  0  0  0
   21.7651   -8.1269  -18.4964 O   0  0  0  0  0  0  0  0  0  0  0  0
   19.4926  -13.1754  -16.3038 O   0  0  0  0  0  0  0  0  0  0  0  0
   23.5118   -9.4503  -18.0075 O   0  0  0  0  0  0  0  0  0  0  0  0
  1  2  1  0
  2  3  1  0
  3  5  1  0
  3  4  1  1
  5  6  1  6
  7  5  1  0
  7  8  2  0
 10  9  1  6
 10 12  1  0
 11 10  1  0
 12 13  1  1
 13  7  1  0
 14 12  1  0
 15 14  2  0
 16 14  1  0
 17 18  1  6
 17 16  1  0
 18 19  1  0
 20 21  2  0
 20 19  1  0
 22 17  1  0
 23 22  1  0
 24 20  1  0
 25 22  2  0
M  END
$$$$
