IVE.pdb
     RDKit          3D

 25 24  0  0  1  0  0  0  0  0999 V2000
   27.3908  -18.4376  -18.3205 C   0  0  0  0  0  0  0  0  0  0  0  0
   28.0128  -19.1409  -17.1471 C   0  0  0  0  0  0  0  0  0  0  0  0
   26.9389  -19.6947  -16.2071 C   0  0  2  0  0  0  0  0  0  0  0  0
   26.1393  -18.5069  -15.7311 C   0  0  0  0  0  0  0  0  0  0  0  0
   27.6226  -20.3453  -15.0082 C   0  0  2  0  0  0  0  0  0  0  0  0
   28.4859  -21.3760  -15.5463 N   0  0  0  0  0  0  0  0  0  0  0  0
   26.6362  -20.9666  -14.0975 C   0  0  0  0  0  0  0  0  0  0  0  0
   26.1456  -22.0722  -14.4245 O   0  0  0  0  0  0  0  0  0  0  0  0
   26.9334  -20.8392  -10.0780 C   0  0  0  0  0  0  0  0  0  0  0  0
   25.5818  -20.4491  -10.5700 C   0  0  2  0  0  0  0  0  0  0  0  0
   24.5515  -21.0638   -9.6409 C   0  0  0  0  0  0  0  0  0  0  0  0
   25.2857  -20.9656  -11.9629 C   0  0  2  0  0  0  0  0  0  0  0  0
   26.2149  -20.3882  -12.8824 N   0  0  0  0  0  0  0  0  0  0  0  0
   23.8831  -20.8266  -12.3428 C   0  0  0  0  0  0  0  0  0  0  0  0
   22.9901  -21.3719  -11.6484 O   0  0  0  0  0  0  0  0  0  0  0  0
   23.4469  -20.0948  -13.4779 N   0  0  0  0  0  0  0  0  0  0  0  0
   22.0152  -19.9197  -13.7818 C   0  0  1  0  0  0  0  0  0  0  0  0
   21.9461  -18.9025  -14.8695 C   0  0  0  0  0  0  0  0  0  0  0  0
   20.5767  -18.6413  -15.4170 C   0  0  0  0  0  0  0  0  0  0  0  0
   20.4995  -17.2383  -15.8672 C   0  0  0  0  0  0  0  0  0  0  0  0
   21.5349  -16.6397  -16.2152 O   0  0  0  0  0  0  0  0  0  0  0  0
   21.4301  -21.2062  -14.1743 C   0  0  0  0  0  0  0  0  0  0  0  0
   20.1736  -21.5962  -13.7590 O   0  0  0  0  0  0  0  0  0  0  0  0
   19.2896  -16.5812  -15.9067 O   0  0  0  0  0  0  0  0  0  0  0  0
   22.0424  -22.0432  -14.9204 O   0  0  0  0  0  0  0  0  0  0  0  0
  1  2  1  0
  2  3  1  0
  3  5  1  0
  3  4  1  1
  5  6  1  6
  7  5  1  0
  7  8  2  0
 10  9  1  1
 10 12  1  0
 11 10  1  0
 12 13  1  6
 13  7  1  0
 14 12  1  0
 15 14  2  0
 16 14  1  0
 17 18  1  6
 17 16  1  0
 18 19  1  0
 20 21  2  0
 20 19  1  0
 22 17  1  0
 23 22  1  0
 24 20  1  0
 25 22  2  0
M  END
$$$$
