IVE.pdb
     RDKit          3D

 25 24  0  0  1  0  0  0  0  0999 V2000
   25.9053  -30.0765  -18.4016 C   0  0  0  0  0  0  0  0  0  0  0  0
   27.1289  -29.2326  -18.1801 C   0  0  0  0  0  0  0  0  0  0  0  0
   26.7742  -27.9315  -17.4555 C   0  0  2  0  0  0  0  0  0  0  0  0
   25.9114  -27.1390  -18.4062 C   0  0  0  0  0  0  0  0  0  0  0  0
   28.0585  -27.1534  -17.1848 C   0  0  2  0  0  0  0  0  0  0  0  0
   28.7802  -27.9036  -16.1781 N   0  0  0  0  0  0  0  0  0  0  0  0
   27.7682  -25.7994  -16.6644 C   0  0  0  0  0  0  0  0  0  0  0  0
   27.3946  -25.6926  -15.4732 O   0  0  0  0  0  0  0  0  0  0  0  0
   30.1429  -22.8315  -16.7869 C   0  0  0  0  0  0  0  0  0  0  0  0
   28.8433  -22.4219  -17.3904 C   0  0  2  0  0  0  0  0  0  0  0  0
   28.5392  -21.0086  -16.9292 C   0  0  0  0  0  0  0  0  0  0  0  0
   27.6839  -23.2910  -16.9482 C   0  0  2  0  0  0  0  0  0  0  0  0
   27.8870  -24.6210  -17.4297 N   0  0  0  0  0  0  0  0  0  0  0  0
   26.3799  -22.7176  -17.2672 C   0  0  0  0  0  0  0  0  0  0  0  0
   26.0127  -22.6265  -18.4646 O   0  0  0  0  0  0  0  0  0  0  0  0
   25.4713  -22.2418  -16.2861 N   0  0  0  0  0  0  0  0  0  0  0  0
   24.1695  -21.6577  -16.6562 C   0  0  1  0  0  0  0  0  0  0  0  0
   23.4154  -21.4905  -15.3812 C   0  0  0  0  0  0  0  0  0  0  0  0
   22.0288  -20.9423  -15.5236 C   0  0  0  0  0  0  0  0  0  0  0  0
   21.4294  -20.7992  -14.1829 C   0  0  0  0  0  0  0  0  0  0  0  0
   21.6506  -19.7749  -13.5097 O   0  0  0  0  0  0  0  0  0  0  0  0
   24.3774  -20.3875  -17.3596 C   0  0  0  0  0  0  0  0  0  0  0  0
   23.5866  -20.0010  -18.4221 O   0  0  0  0  0  0  0  0  0  0  0  0
   20.6246  -21.7906  -13.6664 O   0  0  0  0  0  0  0  0  0  0  0  0
   25.2981  -19.5630  -17.0365 O   0  0  0  0  0  0  0  0  0  0  0  0
  1  2  1  0
  2  3  1  0
  3  5  1  0
  3  4  1  6
  5  6  1  1
  7  5  1  0
  7  8  2  0
 10  9  1  1
 10 12  1  0
 11 10  1  0
 12 13  1  6
 13  7  1  0
 14 12  1  0
 15 14  2  0
 16 14  1  0
 17 18  1  1
 17 16  1  0
 18 19  1  0
 20 21  2  0
 20 19  1  0
 22 17  1  0
 23 22  1  0
 24 20  1  0
 25 22  2  0
M  END
$$$$
