IVE.pdb
     RDKit          3D

 25 24  0  0  1  0  0  0  0  0999 V2000
   18.4424  -22.0833  -11.1152 C   0  0  0  0  0  0  0  0  0  0  0  0
   19.7621  -21.9365  -10.4114 C   0  0  0  0  0  0  0  0  0  0  0  0
   20.7739  -21.1979  -11.2914 C   0  0  2  0  0  0  0  0  0  0  0  0
   20.9626  -22.0473  -12.5241 C   0  0  0  0  0  0  0  0  0  0  0  0
   22.1011  -21.1060  -10.5442 C   0  0  2  0  0  0  0  0  0  0  0  0
   21.8606  -20.2543   -9.3979 N   0  0  0  0  0  0  0  0  0  0  0  0
   23.1529  -20.4974  -11.3876 C   0  0  0  0  0  0  0  0  0  0  0  0
   23.1027  -19.2625  -11.5941 O   0  0  0  0  0  0  0  0  0  0  0  0
   26.9170  -21.0130  -11.0018 C   0  0  0  0  0  0  0  0  0  0  0  0
   26.5642  -21.2695  -12.4268 C   0  0  2  0  0  0  0  0  0  0  0  0
   27.6138  -20.6010  -13.2951 C   0  0  0  0  0  0  0  0  0  0  0  0
   25.2244  -20.6828  -12.8210 C   0  0  2  0  0  0  0  0  0  0  0  0
   24.2095  -21.2247  -11.9733 N   0  0  0  0  0  0  0  0  0  0  0  0
   24.9476  -20.7881  -14.2504 C   0  0  0  0  0  0  0  0  0  0  0  0
   24.9067  -21.9175  -14.7980 O   0  0  0  0  0  0  0  0  0  0  0  0
   24.7144  -19.6669  -15.0887 N   0  0  0  0  0  0  0  0  0  0  0  0
   24.3248  -19.8252  -16.5016 C   0  0  1  0  0  0  0  0  0  0  0  0
   22.9234  -19.3265  -16.6009 C   0  0  0  0  0  0  0  0  0  0  0  0
   22.7294  -17.8844  -16.2456 C   0  0  0  0  0  0  0  0  0  0  0  0
   21.3286  -17.5079  -16.5159 C   0  0  0  0  0  0  0  0  0  0  0  0
   20.6401  -18.1941  -17.2947 O   0  0  0  0  0  0  0  0  0  0  0  0
   25.2516  -19.0785  -17.3587 C   0  0  0  0  0  0  0  0  0  0  0  0
   26.1570  -18.1735  -16.8442 O   0  0  0  0  0  0  0  0  0  0  0  0
   20.7724  -16.4011  -15.9135 O   0  0  0  0  0  0  0  0  0  0  0  0
   25.2798  -19.2166  -18.6285 O   0  0  0  0  0  0  0  0  0  0  0  0
  1  2  1  0
  2  3  1  0
  3  5  1  0
  3  4  1  6
  5  6  1  1
  7  5  1  0
  7  8  2  0
 10  9  1  1
 10 12  1  0
 11 10  1  0
 12 13  1  1
 13  7  1  0
 14 12  1  0
 15 14  2  0
 16 14  1  0
 17 18  1  1
 17 16  1  0
 18 19  1  0
 20 21  2  0
 20 19  1  0
 22 17  1  0
 23 22  1  0
 24 20  1  0
 25 22  2  0
M  END
$$$$
