IVE.pdb
     RDKit          3D

 25 24  0  0  1  0  0  0  0  0999 V2000
   26.7449  -15.2378  -15.1246 C   0  0  0  0  0  0  0  0  0  0  0  0
   25.2471  -15.1539  -15.2133 C   0  0  0  0  0  0  0  0  0  0  0  0
   24.8074  -13.8198  -15.8221 C   0  0  2  0  0  0  0  0  0  0  0  0
   25.1737  -12.7549  -14.8179 C   0  0  0  0  0  0  0  0  0  0  0  0
   23.2919  -13.8352  -15.9985 C   0  0  2  0  0  0  0  0  0  0  0  0
   22.9974  -14.9620  -16.8594 N   0  0  0  0  0  0  0  0  0  0  0  0
   22.8123  -12.5939  -16.6445 C   0  0  0  0  0  0  0  0  0  0  0  0
   22.7920  -12.5500  -17.8965 O   0  0  0  0  0  0  0  0  0  0  0  0
   21.0362  -11.4793  -18.5965 C   0  0  0  0  0  0  0  0  0  0  0  0
   20.6059  -10.7317  -17.3812 C   0  0  2  0  0  0  0  0  0  0  0  0
   19.8978   -9.4691  -17.8361 C   0  0  0  0  0  0  0  0  0  0  0  0
   21.7665  -10.2986  -16.5093 C   0  0  2  0  0  0  0  0  0  0  0  0
   22.3763  -11.4562  -15.9345 N   0  0  0  0  0  0  0  0  0  0  0  0
   21.4099   -9.2562  -15.5517 C   0  0  0  0  0  0  0  0  0  0  0  0
   20.5897   -9.5042  -14.6336 O   0  0  0  0  0  0  0  0  0  0  0  0
   21.9434   -7.9415  -15.5888 N   0  0  0  0  0  0  0  0  0  0  0  0
   21.5646   -6.9246  -14.5911 C   0  0  1  0  0  0  0  0  0  0  0  0
   22.6571   -5.9104  -14.6010 C   0  0  0  0  0  0  0  0  0  0  0  0
   22.4754   -4.7631  -13.6555 C   0  0  0  0  0  0  0  0  0  0  0  0
   21.8062   -3.6568  -14.3664 C   0  0  0  0  0  0  0  0  0  0  0  0
   22.1962   -3.3213  -15.5008 O   0  0  0  0  0  0  0  0  0  0  0  0
   20.2595   -6.3516  -14.9373 C   0  0  0  0  0  0  0  0  0  0  0  0
   19.3047   -6.0740  -13.9807 O   0  0  0  0  0  0  0  0  0  0  0  0
   20.7505   -2.9888  -13.7862 O   0  0  0  0  0  0  0  0  0  0  0  0
   19.9246   -6.0752  -16.1387 O   0  0  0  0  0  0  0  0  0  0  0  0
  1  2  1  0
  2  3  1  0
  3  5  1  0
  3  4  1  1
  5  6  1  6
  7  5  1  0
  7  8  2  0
 10  9  1  6
 10 12  1  0
 11 10  1  0
 12 13  1  1
 13  7  1  0
 14 12  1  0
 15 14  2  0
 16 14  1  0
 17 18  1  6
 17 16  1  0
 18 19  1  0
 20 21  2  0
 20 19  1  0
 22 17  1  0
 23 22  1  0
 24 20  1  0
 25 22  2  0
M  END
$$$$
