IVE.pdb
     RDKit          3D

 25 24  0  0  1  0  0  0  0  0999 V2000
   19.3943  -17.3930  -17.1950 C   0  0  0  0  0  0  0  0  0  0  0  0
   20.8290  -17.4442  -16.7509 C   0  0  0  0  0  0  0  0  0  0  0  0
   21.3031  -16.0712  -16.2674 C   0  0  2  0  0  0  0  0  0  0  0  0
   21.1705  -15.1382  -17.4458 C   0  0  0  0  0  0  0  0  0  0  0  0
   22.7743  -16.1688  -15.8748 C   0  0  2  0  0  0  0  0  0  0  0  0
   22.8439  -17.1493  -14.8113 N   0  0  0  0  0  0  0  0  0  0  0  0
   23.2851  -14.8741  -15.3739 C   0  0  0  0  0  0  0  0  0  0  0  0
   22.8197  -14.4327  -14.2975 O   0  0  0  0  0  0  0  0  0  0  0  0
   26.9712  -13.7982  -14.9893 C   0  0  0  0  0  0  0  0  0  0  0  0
   26.2490  -12.7791  -15.8023 C   0  0  2  0  0  0  0  0  0  0  0  0
   26.7079  -11.4068  -15.3455 C   0  0  0  0  0  0  0  0  0  0  0  0
   24.7464  -12.8281  -15.6162 C   0  0  2  0  0  0  0  0  0  0  0  0
   24.2651  -14.1065  -16.0363 N   0  0  0  0  0  0  0  0  0  0  0  0
   24.0548  -11.6887  -16.2115 C   0  0  0  0  0  0  0  0  0  0  0  0
   24.0617  -11.5343  -17.4578 O   0  0  0  0  0  0  0  0  0  0  0  0
   23.3539  -10.7140  -15.4545 N   0  0  0  0  0  0  0  0  0  0  0  0
   22.6237   -9.6096  -16.1026 C   0  0  1  0  0  0  0  0  0  0  0  0
   21.6829   -9.0787  -15.0752 C   0  0  0  0  0  0  0  0  0  0  0  0
   20.8416   -7.9198  -15.5142 C   0  0  0  0  0  0  0  0  0  0  0  0
   19.9652   -7.5135  -14.3989 C   0  0  0  0  0  0  0  0  0  0  0  0
   20.0733   -8.0694  -13.2895 O   0  0  0  0  0  0  0  0  0  0  0  0
   23.5733   -8.5966  -16.5753 C   0  0  0  0  0  0  0  0  0  0  0  0
   23.4147   -7.9523  -17.7850 O   0  0  0  0  0  0  0  0  0  0  0  0
   19.0250   -6.5219  -14.5728 O   0  0  0  0  0  0  0  0  0  0  0  0
   24.6019   -8.2484  -15.9024 O   0  0  0  0  0  0  0  0  0  0  0  0
  1  2  1  0
  2  3  1  0
  3  5  1  0
  3  4  1  6
  5  6  1  1
  7  5  1  0
  7  8  2  0
 10  9  1  1
 10 12  1  0
 11 10  1  0
 12 13  1  6
 13  7  1  0
 14 12  1  0
 15 14  2  0
 16 14  1  0
 17 18  1  1
 17 16  1  0
 18 19  1  0
 20 21  2  0
 20 19  1  0
 22 17  1  0
 23 22  1  0
 24 20  1  0
 25 22  2  0
M  END
$$$$
