IVE.pdb
     RDKit          3D

 25 24  0  0  1  0  0  0  0  0999 V2000
   19.0054  -33.7841   -8.7712 C   0  0  0  0  0  0  0  0  0  0  0  0
   20.2559  -33.2724   -9.4290 C   0  0  0  0  0  0  0  0  0  0  0  0
   21.5044  -33.8619   -8.7677 C   0  0  2  0  0  0  0  0  0  0  0  0
   21.4434  -33.4605   -7.3145 C   0  0  0  0  0  0  0  0  0  0  0  0
   22.7411  -33.2346   -9.4042 C   0  0  2  0  0  0  0  0  0  0  0  0
   22.7239  -33.6324  -10.7966 N   0  0  0  0  0  0  0  0  0  0  0  0
   23.9829  -33.7329   -8.7735 C   0  0  0  0  0  0  0  0  0  0  0  0
   24.2552  -34.9506   -8.8876 O   0  0  0  0  0  0  0  0  0  0  0  0
   27.4568  -32.5823   -9.3528 C   0  0  0  0  0  0  0  0  0  0  0  0
   27.2358  -32.5072   -7.8809 C   0  0  2  0  0  0  0  0  0  0  0  0
   28.4825  -33.0334   -7.1942 C   0  0  0  0  0  0  0  0  0  0  0  0
   26.0771  -33.3623   -7.4108 C   0  0  2  0  0  0  0  0  0  0  0  0
   24.8791  -32.9184   -8.0511 N   0  0  0  0  0  0  0  0  0  0  0  0
   25.9909  -33.4666   -5.9573 C   0  0  0  0  0  0  0  0  0  0  0  0
   25.6428  -32.4693   -5.2781 O   0  0  0  0  0  0  0  0  0  0  0  0
   26.2825  -34.6548   -5.2378 N   0  0  0  0  0  0  0  0  0  0  0  0
   26.2260  -34.7009   -3.7655 C   0  0  1  0  0  0  0  0  0  0  0  0
   25.2874  -35.8075   -3.4236 C   0  0  0  0  0  0  0  0  0  0  0  0
   25.1693  -36.1199   -1.9635 C   0  0  0  0  0  0  0  0  0  0  0  0
   24.0966  -35.2912   -1.3808 C   0  0  0  0  0  0  0  0  0  0  0  0
   23.4308  -34.5333   -2.1113 O   0  0  0  0  0  0  0  0  0  0  0  0
   27.5720  -34.9149   -3.2235 C   0  0  0  0  0  0  0  0  0  0  0  0
   27.9837  -34.3414   -2.0381 O   0  0  0  0  0  0  0  0  0  0  0  0
   23.8230  -35.3473   -0.0320 O   0  0  0  0  0  0  0  0  0  0  0  0
   28.4444  -35.6405   -3.8104 O   0  0  0  0  0  0  0  0  0  0  0  0
  1  2  1  0
  2  3  1  0
  3  5  1  0
  3  4  1  1
  5  6  1  6
  7  5  1  0
  7  8  2  0
 10  9  1  6
 10 12  1  0
 11 10  1  0
 12 13  1  1
 13  7  1  0
 14 12  1  0
 15 14  2  0
 16 14  1  0
 17 18  1  6
 17 16  1  0
 18 19  1  0
 20 21  2  0
 20 19  1  0
 22 17  1  0
 23 22  1  0
 24 20  1  0
 25 22  2  0
M  END
$$$$
