IVE.pdb
     RDKit          3D

 25 24  0  0  1  0  0  0  0  0999 V2000
   21.3928  -17.3364  -16.9977 C   0  0  0  0  0  0  0  0  0  0  0  0
   22.8490  -17.0160  -16.8095 C   0  0  0  0  0  0  0  0  0  0  0  0
   23.0312  -15.6089  -16.2346 C   0  0  2  0  0  0  0  0  0  0  0  0
   22.4723  -14.6559  -17.2622 C   0  0  0  0  0  0  0  0  0  0  0  0
   24.5229  -15.3363  -16.0646 C   0  0  2  0  0  0  0  0  0  0  0  0
   25.0098  -16.3272  -15.1274 N   0  0  0  0  0  0  0  0  0  0  0  0
   24.7638  -13.9861  -15.5105 C   0  0  0  0  0  0  0  0  0  0  0  0
   24.4856  -13.7843  -14.3056 O   0  0  0  0  0  0  0  0  0  0  0  0
   27.8018  -11.9793  -15.0729 C   0  0  0  0  0  0  0  0  0  0  0  0
   26.8899  -11.1590  -15.9194 C   0  0  2  0  0  0  0  0  0  0  0  0
   26.9870   -9.7191  -15.4505 C   0  0  0  0  0  0  0  0  0  0  0  0
   25.4367  -11.5681  -15.7947 C   0  0  2  0  0  0  0  0  0  0  0  0
   25.2884  -12.9118  -16.2582 N   0  0  0  0  0  0  0  0  0  0  0  0
   24.5147  -10.6089  -16.3952 C   0  0  0  0  0  0  0  0  0  0  0  0
   24.5004  -10.4506  -17.6409 O   0  0  0  0  0  0  0  0  0  0  0  0
   23.6057   -9.8191  -15.6441 N   0  0  0  0  0  0  0  0  0  0  0  0
   22.6405   -8.9175  -16.2987 C   0  0  1  0  0  0  0  0  0  0  0  0
   21.5038   -8.7686  -15.3458 C   0  0  0  0  0  0  0  0  0  0  0  0
   20.4421   -7.7972  -15.7611 C   0  0  0  0  0  0  0  0  0  0  0  0
   19.4633   -7.6588  -14.6657 C   0  0  0  0  0  0  0  0  0  0  0  0
   19.6377   -8.2720  -13.5957 O   0  0  0  0  0  0  0  0  0  0  0  0
   23.2879   -7.6384  -16.6091 C   0  0  0  0  0  0  0  0  0  0  0  0
   22.9556   -6.9020  -17.7276 O   0  0  0  0  0  0  0  0  0  0  0  0
   18.3544   -6.8554  -14.8150 O   0  0  0  0  0  0  0  0  0  0  0  0
   24.1954   -7.1274  -15.8693 O   0  0  0  0  0  0  0  0  0  0  0  0
  1  2  1  0
  2  3  1  0
  3  5  1  0
  3  4  1  6
  5  6  1  1
  7  5  1  0
  7  8  2  0
 10  9  1  1
 10 12  1  0
 11 10  1  0
 12 13  1  6
 13  7  1  0
 14 12  1  0
 15 14  2  0
 16 14  1  0
 17 18  1  1
 17 16  1  0
 18 19  1  0
 20 21  2  0
 20 19  1  0
 22 17  1  0
 23 22  1  0
 24 20  1  0
 25 22  2  0
M  END
$$$$
