IVE.pdb
     RDKit          3D

 25 24  0  0  1  0  0  0  0  0999 V2000
   18.4475  -13.2247  -22.2700 C   0  0  0  0  0  0  0  0  0  0  0  0
   19.4652  -13.8336  -21.3471 C   0  0  0  0  0  0  0  0  0  0  0  0
   19.5473  -13.0559  -20.0311 C   0  0  2  0  0  0  0  0  0  0  0  0
   20.0573  -11.6802  -20.3832 C   0  0  0  0  0  0  0  0  0  0  0  0
   20.5586  -13.7411  -19.1169 C   0  0  2  0  0  0  0  0  0  0  0  0
   20.0113  -15.0480  -18.8176 N   0  0  0  0  0  0  0  0  0  0  0  0
   20.7386  -12.9908  -17.8548 C   0  0  0  0  0  0  0  0  0  0  0  0
   19.8147  -13.0281  -17.0092 O   0  0  0  0  0  0  0  0  0  0  0  0
   23.3440  -13.2150  -15.1568 C   0  0  0  0  0  0  0  0  0  0  0  0
   23.3684  -11.8287  -15.7033 C   0  0  2  0  0  0  0  0  0  0  0  0
   23.5738  -10.8730  -14.5427 C   0  0  0  0  0  0  0  0  0  0  0  0
   22.0705  -11.4340  -16.3775 C   0  0  2  0  0  0  0  0  0  0  0  0
   21.8888  -12.2356  -17.5465 N   0  0  0  0  0  0  0  0  0  0  0  0
   21.9497   -9.9960  -16.5973 C   0  0  0  0  0  0  0  0  0  0  0  0
   22.6930   -9.4266  -17.4342 O   0  0  0  0  0  0  0  0  0  0  0  0
   21.0212   -9.1727  -15.9085 N   0  0  0  0  0  0  0  0  0  0  0  0
   20.9250   -7.7259  -16.1739 C   0  0  1  0  0  0  0  0  0  0  0  0
   19.5480   -7.4934  -16.6959 C   0  0  0  0  0  0  0  0  0  0  0  0
   19.1444   -6.0565  -16.8221 C   0  0  0  0  0  0  0  0  0  0  0  0
   17.7585   -5.9898  -17.3241 C   0  0  0  0  0  0  0  0  0  0  0  0
   17.1464   -7.0390  -17.5995 O   0  0  0  0  0  0  0  0  0  0  0  0
   21.1958   -6.9762  -14.9426 C   0  0  0  0  0  0  0  0  0  0  0  0
   21.0572   -7.5454  -13.6935 O   0  0  0  0  0  0  0  0  0  0  0  0
   17.1325   -4.7744  -17.4920 O   0  0  0  0  0  0  0  0  0  0  0  0
   21.5743   -5.7561  -14.9473 O   0  0  0  0  0  0  0  0  0  0  0  0
  1  2  1  0
  2  3  1  0
  3  5  1  0
  3  4  1  6
  5  6  1  1
  7  5  1  0
  7  8  2  0
 10  9  1  1
 10 12  1  0
 11 10  1  0
 12 13  1  6
 13  7  1  0
 14 12  1  0
 15 14  2  0
 16 14  1  0
 17 18  1  1
 17 16  1  0
 18 19  1  0
 20 21  2  0
 20 19  1  0
 22 17  1  0
 23 22  1  0
 24 20  1  0
 25 22  2  0
M  END
$$$$
