IVE.pdb
     RDKit          3D

 25 24  0  0  1  0  0  0  0  0999 V2000
   18.4483  -17.1838  -17.2652 C   0  0  0  0  0  0  0  0  0  0  0  0
   19.9210  -17.2351  -16.9702 C   0  0  0  0  0  0  0  0  0  0  0  0
   20.3841  -15.9576  -16.2653 C   0  0  2  0  0  0  0  0  0  0  0  0
   20.0550  -14.8169  -17.1965 C   0  0  0  0  0  0  0  0  0  0  0  0
   21.8966  -16.0217  -16.0743 C   0  0  2  0  0  0  0  0  0  0  0  0
   22.1508  -17.1888  -15.2555 N   0  0  0  0  0  0  0  0  0  0  0  0
   22.4026  -14.8202  -15.3754 C   0  0  0  0  0  0  0  0  0  0  0  0
   22.0694  -14.6488  -14.1797 O   0  0  0  0  0  0  0  0  0  0  0  0
   25.9101  -13.4627  -14.7283 C   0  0  0  0  0  0  0  0  0  0  0  0
   25.1422  -12.4672  -15.5284 C   0  0  2  0  0  0  0  0  0  0  0  0
   25.4992  -11.0833  -15.0186 C   0  0  0  0  0  0  0  0  0  0  0  0
   23.6420  -12.6193  -15.3826 C   0  0  2  0  0  0  0  0  0  0  0  0
   23.2381  -13.8555  -15.9751 N   0  0  0  0  0  0  0  0  0  0  0  0
   22.8974  -11.4500  -15.8399 C   0  0  0  0  0  0  0  0  0  0  0  0
   22.8427  -11.1834  -17.0658 O   0  0  0  0  0  0  0  0  0  0  0  0
   22.2101  -10.5672  -14.9665 N   0  0  0  0  0  0  0  0  0  0  0  0
   21.5186   -9.3659  -15.4681 C   0  0  1  0  0  0  0  0  0  0  0  0
   20.0724   -9.5669  -15.1668 C   0  0  0  0  0  0  0  0  0  0  0  0
   19.1728   -8.4347  -15.5571 C   0  0  0  0  0  0  0  0  0  0  0  0
   17.7837   -8.7806  -15.1999 C   0  0  0  0  0  0  0  0  0  0  0  0
   17.4071   -9.9669  -15.2471 O   0  0  0  0  0  0  0  0  0  0  0  0
   22.0688   -8.1700  -14.8213 C   0  0  0  0  0  0  0  0  0  0  0  0
   22.6880   -8.2232  -13.5895 O   0  0  0  0  0  0  0  0  0  0  0  0
   16.8957   -7.8012  -14.8133 O   0  0  0  0  0  0  0  0  0  0  0  0
   22.0102   -7.0098  -15.3528 O   0  0  0  0  0  0  0  0  0  0  0  0
  1  2  1  0
  2  3  1  0
  3  5  1  0
  3  4  1  6
  5  6  1  1
  7  5  1  0
  7  8  2  0
 10  9  1  1
 10 12  1  0
 11 10  1  0
 12 13  1  6
 13  7  1  0
 14 12  1  0
 15 14  2  0
 16 14  1  0
 17 18  1  1
 17 16  1  0
 18 19  1  0
 20 21  2  0
 20 19  1  0
 22 17  1  0
 23 22  1  0
 24 20  1  0
 25 22  2  0
M  END
$$$$
