DHW.pdb
     RDKit          3D

 33 35  0  0  1  0  0  0  0  0999 V2000
   10.0718  -15.2681   18.4809 N   0  0  0  0  0  0  0  0  0  0  0  0
    9.1175  -14.6306   19.3659 C   0  0  1  0  0  0  0  0  0  0  0  0
    7.8690  -14.2430   18.6113 C   0  0  0  0  0  0  0  0  0  0  0  0
    8.2764  -13.5522   17.3635 C   0  0  0  0  0  0  0  0  0  0  0  0
    9.4944  -13.4270   17.0509 O   0  0  0  0  0  0  0  0  0  0  0  0
    8.8396  -15.5741   20.4788 C   0  0  0  0  0  0  0  0  0  0  0  0
    7.8861  -15.3888   21.2721 O   0  0  0  0  0  0  0  0  0  0  0  0
    7.3228  -13.0339   16.5215 O   0  0  0  0  0  0  0  0  0  0  0  0
    9.6471  -16.7316   20.6931 N   0  0  0  0  0  0  0  0  0  0  0  0
    9.5834  -17.5220   21.8791 C   0  0  1  0  0  0  0  0  0  0  0  0
   10.1279  -18.9139   21.7505 C   0  0  0  0  0  0  0  0  0  0  0  0
    9.5872  -19.6336   20.5787 C   0  0  0  0  0  0  0  0  0  0  0  0
    8.2800  -19.9732   20.3388 C   0  0  0  0  0  0  0  0  0  0  0  0
    8.2244  -20.6218   19.1396 N   0  0  0  0  0  0  0  0  0  0  0  0
    9.4761  -20.6678   18.6746 C   0  0  0  0  0  0  0  0  0  0  0  0
   10.3135  -20.0698   19.5410 N   0  0  0  0  0  0  0  0  0  0  0  0
   10.1426  -16.7855   23.0631 C   0  0  0  0  0  0  0  0  0  0  0  0
   10.9593  -15.8300   22.9005 O   0  0  0  0  0  0  0  0  0  0  0  0
    9.7925  -17.1185   24.3938 N   0  0  0  0  0  0  0  0  0  0  0  0
   10.2599  -16.3660   25.5534 C   0  0  1  0  0  0  0  0  0  0  0  0
    9.8948  -14.9237   25.4673 C   0  0  0  0  0  0  0  0  0  0  0  0
    8.4877  -14.5958   25.6934 C   0  0  0  0  0  0  0  0  0  0  0  0
    7.4703  -15.5212   25.6364 C   0  0  0  0  0  0  0  0  0  0  0  0
    6.3080  -14.9188   25.9197 N   0  0  0  0  0  0  0  0  0  0  0  0
    6.5223  -13.6090   26.1645 C   0  0  0  0  0  0  0  0  0  0  0  0
    5.6522  -12.5870   26.4914 C   0  0  0  0  0  0  0  0  0  0  0  0
    6.1392  -11.2986   26.6884 C   0  0  0  0  0  0  0  0  0  0  0  0
    7.4929  -11.0809   26.5497 C   0  0  0  0  0  0  0  0  0  0  0  0
    8.3342  -12.1151   26.2248 C   0  0  0  0  0  0  0  0  0  0  0  0
    7.8794  -13.4121   26.0223 C   0  0  0  0  0  0  0  0  0  0  0  0
    9.9736  -17.0513   26.8156 C   0  0  0  0  0  0  0  0  0  0  0  0
    9.2020  -18.1965   26.8759 O   0  0  0  0  0  0  0  0  0  0  0  0
   10.4250  -16.6111   27.9178 O   0  0  0  0  0  0  0  0  0  0  0  0
  2  1  1  6
  2  3  1  0
  3  4  1  0
  4  8  1  0
  5  4  2  0
  6  2  1  0
  6  7  2  0
  9  6  1  0
 10  9  1  0
 10 11  1  6
 12 11  1  0
 12 16  1  0
 13 14  1  0
 13 12  2  0
 14 15  1  0
 15 16  2  0
 17 10  1  0
 18 17  2  0
 19 17  1  0
 20 19  1  0
 21 22  1  0
 20 21  1  1
 22 30  1  0
 22 23  2  0
 23 24  1  0
 25 26  2  0
 25 24  1  0
 27 26  1  0
 28 27  2  0
 29 28  1  0
 29 30  2  0
 30 25  1  0
 31 20  1  0
 31 32  1  0
 33 31  2  0
M  END
$$$$
