DHW.pdb
     RDKit          3D

 33 35  0  0  1  0  0  0  0  0999 V2000
   11.4835  -15.7540   18.4527 N   0  0  0  0  0  0  0  0  0  0  0  0
   12.0834  -15.7581   19.7718 C   0  0  1  0  0  0  0  0  0  0  0  0
   12.8191  -14.4647   20.0256 C   0  0  0  0  0  0  0  0  0  0  0  0
   14.0631  -14.4720   19.2178 C   0  0  0  0  0  0  0  0  0  0  0  0
   14.9321  -15.3783   19.3601 O   0  0  0  0  0  0  0  0  0  0  0  0
   10.9977  -15.9975   20.7566 C   0  0  0  0  0  0  0  0  0  0  0  0
    9.9030  -15.3898   20.6856 O   0  0  0  0  0  0  0  0  0  0  0  0
   14.2886  -13.4816   18.2930 O   0  0  0  0  0  0  0  0  0  0  0  0
   11.1550  -16.9292   21.8267 N   0  0  0  0  0  0  0  0  0  0  0  0
   10.1284  -17.2113   22.7764 C   0  0  1  0  0  0  0  0  0  0  0  0
    9.4800  -18.5570   22.6372 C   0  0  0  0  0  0  0  0  0  0  0  0
    8.4215  -18.7886   23.6418 C   0  0  0  0  0  0  0  0  0  0  0  0
    8.4560  -19.6542   24.7053 C   0  0  0  0  0  0  0  0  0  0  0  0
    7.2739  -19.5455   25.3781 N   0  0  0  0  0  0  0  0  0  0  0  0
    6.5488  -18.6320   24.7263 C   0  0  0  0  0  0  0  0  0  0  0  0
    7.2363  -18.1645   23.6689 N   0  0  0  0  0  0  0  0  0  0  0  0
   10.5822  -16.9265   24.1799 C   0  0  0  0  0  0  0  0  0  0  0  0
   11.8119  -16.9796   24.4826 O   0  0  0  0  0  0  0  0  0  0  0  0
    9.6748  -16.5934   25.2141 N   0  0  0  0  0  0  0  0  0  0  0  0
   10.0886  -16.3626   26.5943 C   0  0  1  0  0  0  0  0  0  0  0  0
    8.9977  -15.7597   27.4111 C   0  0  0  0  0  0  0  0  0  0  0  0
    7.9071  -15.1262   26.6710 C   0  0  0  0  0  0  0  0  0  0  0  0
    6.8109  -15.8091   26.1947 C   0  0  0  0  0  0  0  0  0  0  0  0
    5.9805  -14.9478   25.5925 N   0  0  0  0  0  0  0  0  0  0  0  0
    6.4953  -13.7017   25.6530 C   0  0  0  0  0  0  0  0  0  0  0  0
    6.0212  -12.4941   25.1784 C   0  0  0  0  0  0  0  0  0  0  0  0
    6.7647  -11.3338   25.3708 C   0  0  0  0  0  0  0  0  0  0  0  0
    7.9665  -11.4282   26.0387 C   0  0  0  0  0  0  0  0  0  0  0  0
    8.4126  -12.6412   26.4998 C   0  0  0  0  0  0  0  0  0  0  0  0
    7.6940  -13.8170   26.3242 C   0  0  0  0  0  0  0  0  0  0  0  0
   10.7903  -17.5139   27.1663 C   0  0  0  0  0  0  0  0  0  0  0  0
   10.9556  -18.6977   26.4722 O   0  0  0  0  0  0  0  0  0  0  0  0
   11.2757  -17.4697   28.3388 O   0  0  0  0  0  0  0  0  0  0  0  0
  2  1  1  6
  2  3  1  0
  3  4  1  0
  4  8  1  0
  5  4  2  0
  6  2  1  0
  6  7  2  0
  9  6  1  0
 10  9  1  0
 10 11  1  1
 12 11  1  0
 12 16  1  0
 13 14  1  0
 13 12  2  0
 14 15  1  0
 15 16  2  0
 17 10  1  0
 18 17  2  0
 19 17  1  0
 20 19  1  0
 21 22  1  0
 20 21  1  1
 22 30  1  0
 22 23  2  0
 23 24  1  0
 25 26  2  0
 25 24  1  0
 27 26  1  0
 28 27  2  0
 29 28  1  0
 29 30  2  0
 30 25  1  0
 31 20  1  0
 31 32  1  0
 33 31  2  0
M  END
$$$$
