DHW.pdb
     RDKit          3D

 33 35  0  0  1  0  0  0  0  0999 V2000
    9.7087  -18.7620   20.1228 N   0  0  0  0  0  0  0  0  0  0  0  0
   10.8565  -17.9457   19.7818 C   0  0  1  0  0  0  0  0  0  0  0  0
   10.8639  -17.6283   18.3061 C   0  0  0  0  0  0  0  0  0  0  0  0
   11.0625  -18.8948   17.5599 C   0  0  0  0  0  0  0  0  0  0  0  0
   11.7697  -19.8299   18.0317 O   0  0  0  0  0  0  0  0  0  0  0  0
   10.8041  -16.7247   20.6258 C   0  0  0  0  0  0  0  0  0  0  0  0
   11.8027  -15.9783   20.7610 O   0  0  0  0  0  0  0  0  0  0  0  0
   10.4726  -19.0693   16.3317 O   0  0  0  0  0  0  0  0  0  0  0  0
    9.6143  -16.3497   21.3199 N   0  0  0  0  0  0  0  0  0  0  0  0
    9.4899  -15.1375   22.0620 C   0  0  1  0  0  0  0  0  0  0  0  0
    8.2005  -14.3964   21.8656 C   0  0  0  0  0  0  0  0  0  0  0  0
    7.8912  -14.1543   20.4411 C   0  0  0  0  0  0  0  0  0  0  0  0
    6.9166  -14.7548   19.6855 C   0  0  0  0  0  0  0  0  0  0  0  0
    6.9753  -14.2327   18.4263 N   0  0  0  0  0  0  0  0  0  0  0  0
    7.9675  -13.3379   18.4323 C   0  0  0  0  0  0  0  0  0  0  0  0
    8.5317  -13.2814   19.6521 N   0  0  0  0  0  0  0  0  0  0  0  0
    9.8291  -15.3412   23.5113 C   0  0  0  0  0  0  0  0  0  0  0  0
   10.6538  -14.5749   24.0938 O   0  0  0  0  0  0  0  0  0  0  0  0
    9.2563  -16.3813   24.2820 N   0  0  0  0  0  0  0  0  0  0  0  0
    9.6298  -16.6454   25.6677 C   0  0  1  0  0  0  0  0  0  0  0  0
    8.4497  -16.6266   26.5775 C   0  0  0  0  0  0  0  0  0  0  0  0
    7.4497  -15.5906   26.3221 C   0  0  0  0  0  0  0  0  0  0  0  0
    6.2334  -15.8350   25.7257 C   0  0  0  0  0  0  0  0  0  0  0  0
    5.5343  -14.6943   25.6627 N   0  0  0  0  0  0  0  0  0  0  0  0
    6.2548  -13.6889   26.2027 C   0  0  0  0  0  0  0  0  0  0  0  0
    5.9709  -12.3465   26.3639 C   0  0  0  0  0  0  0  0  0  0  0  0
    6.9079  -11.5064   26.9574 C   0  0  0  0  0  0  0  0  0  0  0  0
    8.1053  -12.0485   27.3717 C   0  0  0  0  0  0  0  0  0  0  0  0
    8.3602  -13.3858   27.1995 C   0  0  0  0  0  0  0  0  0  0  0  0
    7.4457  -14.2505   26.6113 C   0  0  0  0  0  0  0  0  0  0  0  0
   10.5482  -17.7795   25.7916 C   0  0  0  0  0  0  0  0  0  0  0  0
   11.1434  -18.1204   26.9916 O   0  0  0  0  0  0  0  0  0  0  0  0
   10.8405  -18.4993   24.7871 O   0  0  0  0  0  0  0  0  0  0  0  0
  2  1  1  6
  2  3  1  0
  3  4  1  0
  4  8  1  0
  5  4  2  0
  6  2  1  0
  6  7  2  0
  9  6  1  0
 10  9  1  0
 10 11  1  1
 12 11  1  0
 12 16  1  0
 13 14  1  0
 13 12  2  0
 14 15  1  0
 15 16  2  0
 17 10  1  0
 18 17  2  0
 19 17  1  0
 20 19  1  0
 21 22  1  0
 20 21  1  1
 22 30  1  0
 22 23  2  0
 23 24  1  0
 25 26  2  0
 25 24  1  0
 27 26  1  0
 28 27  2  0
 29 28  1  0
 29 30  2  0
 30 25  1  0
 31 20  1  0
 31 32  1  0
 33 31  2  0
M  END
$$$$
