DHW.pdb
     RDKit          3D

 33 35  0  0  1  0  0  0  0  0999 V2000
    9.5421  -12.8615   19.6369 N   0  0  0  0  0  0  0  0  0  0  0  0
    8.2527  -13.4916   19.8384 C   0  0  1  0  0  0  0  0  0  0  0  0
    7.5578  -13.7154   18.5172 C   0  0  0  0  0  0  0  0  0  0  0  0
    8.5240  -14.3469   17.5857 C   0  0  0  0  0  0  0  0  0  0  0  0
    9.6910  -14.6544   17.9604 O   0  0  0  0  0  0  0  0  0  0  0  0
    8.4839  -14.7569   20.5809 C   0  0  0  0  0  0  0  0  0  0  0  0
    7.5562  -15.5757   20.7849 O   0  0  0  0  0  0  0  0  0  0  0  0
    8.1574  -14.6091   16.2880 O   0  0  0  0  0  0  0  0  0  0  0  0
    9.7724  -15.0941   21.0948 N   0  0  0  0  0  0  0  0  0  0  0  0
   10.0320  -16.2839   21.8381 C   0  0  1  0  0  0  0  0  0  0  0  0
   11.0912  -17.1782   21.2647 C   0  0  0  0  0  0  0  0  0  0  0  0
   10.6451  -17.8844   20.0457 C   0  0  0  0  0  0  0  0  0  0  0  0
    9.5353  -18.6772   19.9001 C   0  0  0  0  0  0  0  0  0  0  0  0
    9.4997  -19.1230   18.6110 N   0  0  0  0  0  0  0  0  0  0  0  0
   10.5694  -18.6052   18.0007 C   0  0  0  0  0  0  0  0  0  0  0  0
   11.2734  -17.8500   18.8630 N   0  0  0  0  0  0  0  0  0  0  0  0
   10.2465  -15.9879   23.2952 C   0  0  0  0  0  0  0  0  0  0  0  0
   11.1224  -15.1474   23.6598 O   0  0  0  0  0  0  0  0  0  0  0  0
    9.4961  -16.6236   24.3134 N   0  0  0  0  0  0  0  0  0  0  0  0
    9.7481  -16.4182   25.7360 C   0  0  1  0  0  0  0  0  0  0  0  0
    8.4860  -16.3866   26.5279 C   0  0  0  0  0  0  0  0  0  0  0  0
    7.4480  -15.4698   26.0584 C   0  0  0  0  0  0  0  0  0  0  0  0
    6.3241  -15.8757   25.3750 C   0  0  0  0  0  0  0  0  0  0  0  0
    5.5560  -14.8098   25.1140 N   0  0  0  0  0  0  0  0  0  0  0  0
    6.1399  -13.6970   25.6062 C   0  0  0  0  0  0  0  0  0  0  0  0
    5.7448  -12.3734   25.5854 C   0  0  0  0  0  0  0  0  0  0  0  0
    6.5493  -11.4007   26.1708 C   0  0  0  0  0  0  0  0  0  0  0  0
    7.7305  -11.7950   26.7613 C   0  0  0  0  0  0  0  0  0  0  0  0
    8.0977  -13.1172   26.7675 C   0  0  0  0  0  0  0  0  0  0  0  0
    7.3167  -14.1118   26.1925 C   0  0  0  0  0  0  0  0  0  0  0  0
   10.8293  -17.2682   26.2396 C   0  0  0  0  0  0  0  0  0  0  0  0
   11.4283  -17.0521   27.4663 O   0  0  0  0  0  0  0  0  0  0  0  0
   11.2667  -18.2457   25.5573 O   0  0  0  0  0  0  0  0  0  0  0  0
  2  1  1  6
  2  3  1  0
  3  4  1  0
  4  8  1  0
  5  4  2  0
  6  2  1  0
  6  7  2  0
  9  6  1  0
 10  9  1  0
 10 11  1  6
 12 11  1  0
 12 16  1  0
 13 14  1  0
 13 12  2  0
 14 15  1  0
 15 16  2  0
 17 10  1  0
 18 17  2  0
 19 17  1  0
 20 19  1  0
 21 22  1  0
 20 21  1  1
 22 30  1  0
 22 23  2  0
 23 24  1  0
 25 26  2  0
 25 24  1  0
 27 26  1  0
 28 27  2  0
 29 28  1  0
 29 30  2  0
 30 25  1  0
 31 20  1  0
 31 32  1  0
 33 31  2  0
M  END
$$$$
