DHW.pdb
     RDKit          3D

 33 35  0  0  1  0  0  0  0  0999 V2000
    7.4788  -18.6970   20.7815 N   0  0  0  0  0  0  0  0  0  0  0  0
    8.5041  -18.5071   19.7751 C   0  0  1  0  0  0  0  0  0  0  0  0
    7.8829  -18.3088   18.4138 C   0  0  0  0  0  0  0  0  0  0  0  0
    8.1931  -19.4986   17.5842 C   0  0  0  0  0  0  0  0  0  0  0  0
    8.7977  -20.4967   18.0691 O   0  0  0  0  0  0  0  0  0  0  0  0
    9.3349  -17.3499   20.1952 C   0  0  0  0  0  0  0  0  0  0  0  0
   10.4705  -17.1459   19.7038 O   0  0  0  0  0  0  0  0  0  0  0  0
    7.8219  -19.5310   16.2620 O   0  0  0  0  0  0  0  0  0  0  0  0
    8.8759  -16.4211   21.1773 N   0  0  0  0  0  0  0  0  0  0  0  0
    9.6235  -15.2750   21.5810 C   0  0  1  0  0  0  0  0  0  0  0  0
    8.9596  -13.9546   21.3237 C   0  0  0  0  0  0  0  0  0  0  0  0
    8.4761  -13.8187   19.9340 C   0  0  0  0  0  0  0  0  0  0  0  0
    7.1745  -13.8044   19.5014 C   0  0  0  0  0  0  0  0  0  0  0  0
    7.1807  -13.6533   18.1454 N   0  0  0  0  0  0  0  0  0  0  0  0
    8.4630  -13.5795   17.7776 C   0  0  0  0  0  0  0  0  0  0  0  0
    9.2600  -13.6786   18.8567 N   0  0  0  0  0  0  0  0  0  0  0  0
   10.1219  -15.4106   22.9917 C   0  0  0  0  0  0  0  0  0  0  0  0
   11.3129  -15.0936   23.2875 O   0  0  0  0  0  0  0  0  0  0  0  0
    9.3011  -15.8927   24.0395 N   0  0  0  0  0  0  0  0  0  0  0  0
    9.8217  -16.2787   25.3470 C   0  0  1  0  0  0  0  0  0  0  0  0
    8.7361  -16.4391   26.3552 C   0  0  0  0  0  0  0  0  0  0  0  0
    7.6466  -15.4654   26.2963 C   0  0  0  0  0  0  0  0  0  0  0  0
    6.3369  -15.8010   26.0377 C   0  0  0  0  0  0  0  0  0  0  0  0
    5.5799  -14.6969   26.0836 N   0  0  0  0  0  0  0  0  0  0  0  0
    6.3526  -13.6271   26.3664 C   0  0  0  0  0  0  0  0  0  0  0  0
    6.0411  -12.2892   26.5134 C   0  0  0  0  0  0  0  0  0  0  0  0
    7.0459  -11.3715   26.8037 C   0  0  0  0  0  0  0  0  0  0  0  0
    8.3374  -11.8336   26.9376 C   0  0  0  0  0  0  0  0  0  0  0  0
    8.6178  -13.1684   26.7868 C   0  0  0  0  0  0  0  0  0  0  0  0
    7.6375  -14.1093   26.4975 C   0  0  0  0  0  0  0  0  0  0  0  0
   10.8120  -17.3540   25.2578 C   0  0  0  0  0  0  0  0  0  0  0  0
   12.0727  -17.2451   25.8141 O   0  0  0  0  0  0  0  0  0  0  0  0
   10.5487  -18.4395   24.6540 O   0  0  0  0  0  0  0  0  0  0  0  0
  2  1  1  1
  2  3  1  0
  3  4  1  0
  4  8  1  0
  5  4  2  0
  6  2  1  0
  6  7  2  0
  9  6  1  0
 10  9  1  0
 10 11  1  1
 12 11  1  0
 12 16  1  0
 13 14  1  0
 13 12  2  0
 14 15  1  0
 15 16  2  0
 17 10  1  0
 18 17  2  0
 19 17  1  0
 20 19  1  0
 21 22  1  0
 20 21  1  1
 22 30  1  0
 22 23  2  0
 23 24  1  0
 25 26  2  0
 25 24  1  0
 27 26  1  0
 28 27  2  0
 29 28  1  0
 29 30  2  0
 30 25  1  0
 31 20  1  0
 31 32  1  0
 33 31  2  0
M  END
$$$$
