DHW.pdb
     RDKit          3D

 33 35  0  0  1  0  0  0  0  0999 V2000
    9.7917  -18.4242   20.1076 N   0  0  0  0  0  0  0  0  0  0  0  0
   11.0171  -17.6593   19.9912 C   0  0  1  0  0  0  0  0  0  0  0  0
   11.4192  -17.5163   18.5433 C   0  0  0  0  0  0  0  0  0  0  0  0
   11.9480  -18.8214   18.0773 C   0  0  0  0  0  0  0  0  0  0  0  0
   11.1761  -19.7903   17.8274 O   0  0  0  0  0  0  0  0  0  0  0  0
   10.7906  -16.3479   20.6507 C   0  0  0  0  0  0  0  0  0  0  0  0
   11.7153  -15.5106   20.7786 O   0  0  0  0  0  0  0  0  0  0  0  0
   13.3003  -18.9952   17.9091 O   0  0  0  0  0  0  0  0  0  0  0  0
    9.5104  -15.9857   21.1681 N   0  0  0  0  0  0  0  0  0  0  0  0
    9.2396  -14.7230   21.7743 C   0  0  1  0  0  0  0  0  0  0  0  0
    7.9997  -14.0324   21.2882 C   0  0  0  0  0  0  0  0  0  0  0  0
    7.9482  -13.9189   19.8158 C   0  0  0  0  0  0  0  0  0  0  0  0
    8.3206  -12.8445   19.0487 C   0  0  0  0  0  0  0  0  0  0  0  0
    8.1152  -13.1679   17.7391 N   0  0  0  0  0  0  0  0  0  0  0  0
    7.6288  -14.4122   17.7273 C   0  0  0  0  0  0  0  0  0  0  0  0
    7.5230  -14.8793   18.9843 N   0  0  0  0  0  0  0  0  0  0  0  0
    9.3110  -14.8042   23.2727 C   0  0  0  0  0  0  0  0  0  0  0  0
    8.9697  -13.8154   23.9885 O   0  0  0  0  0  0  0  0  0  0  0  0
    9.7572  -15.9671   23.9456 N   0  0  0  0  0  0  0  0  0  0  0  0
    9.9017  -16.0432   25.3957 C   0  0  1  0  0  0  0  0  0  0  0  0
    8.6221  -16.4092   26.0661 C   0  0  0  0  0  0  0  0  0  0  0  0
    7.5171  -15.4633   25.9158 C   0  0  0  0  0  0  0  0  0  0  0  0
    6.2923  -15.7993   25.3847 C   0  0  0  0  0  0  0  0  0  0  0  0
    5.4890  -14.7278   25.4125 N   0  0  0  0  0  0  0  0  0  0  0  0
    6.1477  -13.6794   25.9497 C   0  0  0  0  0  0  0  0  0  0  0  0
    5.7530  -12.3764   26.1843 C   0  0  0  0  0  0  0  0  0  0  0  0
    6.6454  -11.4740   26.7547 C   0  0  0  0  0  0  0  0  0  0  0  0
    7.9117  -11.9158   27.0722 C   0  0  0  0  0  0  0  0  0  0  0  0
    8.2763  -13.2160   26.8285 C   0  0  0  0  0  0  0  0  0  0  0  0
    7.4089  -14.1409   26.2611 C   0  0  0  0  0  0  0  0  0  0  0  0
   11.1000  -16.7826   25.7988 C   0  0  0  0  0  0  0  0  0  0  0  0
   11.4945  -16.8864   27.1194 O   0  0  0  0  0  0  0  0  0  0  0  0
   11.8347  -17.3597   24.9388 O   0  0  0  0  0  0  0  0  0  0  0  0
  2  1  1  6
  2  3  1  0
  3  4  1  0
  4  8  1  0
  5  4  2  0
  6  2  1  0
  6  7  2  0
  9  6  1  0
 10  9  1  0
 10 11  1  1
 12 11  1  0
 12 16  1  0
 13 14  1  0
 13 12  2  0
 14 15  1  0
 15 16  2  0
 17 10  1  0
 18 17  2  0
 19 17  1  0
 20 19  1  0
 21 22  1  0
 20 21  1  1
 22 30  1  0
 22 23  2  0
 23 24  1  0
 25 26  2  0
 25 24  1  0
 27 26  1  0
 28 27  2  0
 29 28  1  0
 29 30  2  0
 30 25  1  0
 31 20  1  0
 31 32  1  0
 33 31  2  0
M  END
$$$$
