DHW.pdb
     RDKit          3D

 33 35  0  0  1  0  0  0  0  0999 V2000
    8.4597  -17.5466   18.5373 N   0  0  0  0  0  0  0  0  0  0  0  0
    8.0240  -18.3251   19.6793 C   0  0  1  0  0  0  0  0  0  0  0  0
    7.7306  -19.7485   19.2720 C   0  0  0  0  0  0  0  0  0  0  0  0
    6.9294  -19.7185   18.0241 C   0  0  0  0  0  0  0  0  0  0  0  0
    7.4124  -19.2716   16.9452 O   0  0  0  0  0  0  0  0  0  0  0  0
    9.0870  -18.2369   20.7129 C   0  0  0  0  0  0  0  0  0  0  0  0
    9.0360  -18.9177   21.7649 O   0  0  0  0  0  0  0  0  0  0  0  0
    5.6363  -20.1822   18.0255 O   0  0  0  0  0  0  0  0  0  0  0  0
   10.2116  -17.3723   20.5528 N   0  0  0  0  0  0  0  0  0  0  0  0
   11.2620  -17.2681   21.5126 C   0  0  1  0  0  0  0  0  0  0  0  0
   12.6203  -16.9777   20.9458 C   0  0  0  0  0  0  0  0  0  0  0  0
   13.1173  -18.0585   20.0693 C   0  0  0  0  0  0  0  0  0  0  0  0
   13.8246  -19.1739   20.4398 C   0  0  0  0  0  0  0  0  0  0  0  0
   14.0743  -19.9088   19.3176 N   0  0  0  0  0  0  0  0  0  0  0  0
   13.5259  -19.2424   18.2977 C   0  0  0  0  0  0  0  0  0  0  0  0
   12.9409  -18.1158   18.7426 N   0  0  0  0  0  0  0  0  0  0  0  0
   10.8912  -16.3442   22.6376 C   0  0  0  0  0  0  0  0  0  0  0  0
   10.8238  -15.0928   22.4480 O   0  0  0  0  0  0  0  0  0  0  0  0
   10.6066  -16.8176   23.9411 N   0  0  0  0  0  0  0  0  0  0  0  0
    9.7540  -16.0985   24.8821 C   0  0  1  0  0  0  0  0  0  0  0  0
    8.5925  -15.4558   24.2048 C   0  0  0  0  0  0  0  0  0  0  0  0
    7.6510  -14.7433   25.0675 C   0  0  0  0  0  0  0  0  0  0  0  0
    6.4823  -15.2955   25.5409 C   0  0  0  0  0  0  0  0  0  0  0  0
    5.8593  -14.4068   26.3259 N   0  0  0  0  0  0  0  0  0  0  0  0
    6.5834  -13.2697   26.3894 C   0  0  0  0  0  0  0  0  0  0  0  0
    6.3598  -12.0810   27.0568 C   0  0  0  0  0  0  0  0  0  0  0  0
    7.2784  -11.0416   26.9480 C   0  0  0  0  0  0  0  0  0  0  0  0
    8.3977  -11.2347   26.1675 C   0  0  0  0  0  0  0  0  0  0  0  0
    8.5945  -12.4264   25.5162 C   0  0  0  0  0  0  0  0  0  0  0  0
    7.6969  -13.4829   25.6049 C   0  0  0  0  0  0  0  0  0  0  0  0
    9.4729  -16.8791   26.0890 C   0  0  0  0  0  0  0  0  0  0  0  0
    9.6037  -16.3489   27.3588 O   0  0  0  0  0  0  0  0  0  0  0  0
    9.0981  -18.0901   26.0142 O   0  0  0  0  0  0  0  0  0  0  0  0
  2  1  1  6
  2  3  1  0
  3  4  1  0
  4  8  1  0
  5  4  2  0
  6  2  1  0
  6  7  2  0
  9  6  1  0
 10  9  1  0
 10 11  1  6
 12 11  1  0
 12 16  1  0
 13 14  1  0
 13 12  2  0
 14 15  1  0
 15 16  2  0
 17 10  1  0
 18 17  2  0
 19 17  1  0
 20 19  1  0
 21 22  1  0
 20 21  1  6
 22 30  1  0
 22 23  2  0
 23 24  1  0
 25 26  2  0
 25 24  1  0
 27 26  1  0
 28 27  2  0
 29 28  1  0
 29 30  2  0
 30 25  1  0
 31 20  1  0
 31 32  1  0
 33 31  2  0
M  END
$$$$
