DHW.pdb
     RDKit          3D

 33 35  0  0  1  0  0  0  0  0999 V2000
   11.4633  -18.0190   18.8365 N   0  0  0  0  0  0  0  0  0  0  0  0
   12.4240  -17.2789   19.6298 C   0  0  1  0  0  0  0  0  0  0  0  0
   13.3307  -16.4622   18.7414 C   0  0  0  0  0  0  0  0  0  0  0  0
   14.1412  -17.3957   17.9218 C   0  0  0  0  0  0  0  0  0  0  0  0
   14.3364  -17.1874   16.6907 O   0  0  0  0  0  0  0  0  0  0  0  0
   11.6609  -16.4397   20.5887 C   0  0  0  0  0  0  0  0  0  0  0  0
   12.1205  -15.3558   21.0206 O   0  0  0  0  0  0  0  0  0  0  0  0
   14.6971  -18.5120   18.4979 O   0  0  0  0  0  0  0  0  0  0  0  0
   10.3719  -16.8323   21.0600 N   0  0  0  0  0  0  0  0  0  0  0  0
    9.6464  -16.1069   22.0514 C   0  0  1  0  0  0  0  0  0  0  0  0
    8.1967  -15.8758   21.7424 C   0  0  0  0  0  0  0  0  0  0  0  0
    7.9944  -15.0002   20.5695 C   0  0  0  0  0  0  0  0  0  0  0  0
    8.3347  -13.6770   20.4479 C   0  0  0  0  0  0  0  0  0  0  0  0
    7.9758  -13.2606   19.1991 N   0  0  0  0  0  0  0  0  0  0  0  0
    7.4312  -14.3170   18.5887 C   0  0  0  0  0  0  0  0  0  0  0  0
    7.4372  -15.3807   19.4121 N   0  0  0  0  0  0  0  0  0  0  0  0
    9.8650  -16.6788   23.4233 C   0  0  0  0  0  0  0  0  0  0  0  0
   10.1253  -17.9101   23.5740 O   0  0  0  0  0  0  0  0  0  0  0  0
    9.7900  -15.8851   24.5931 N   0  0  0  0  0  0  0  0  0  0  0  0
    9.8523  -16.4426   25.9403 C   0  0  1  0  0  0  0  0  0  0  0  0
    9.3802  -15.4727   26.9685 C   0  0  0  0  0  0  0  0  0  0  0  0
    8.0755  -14.8569   26.7293 C   0  0  0  0  0  0  0  0  0  0  0  0
    6.9090  -15.5733   26.5847 C   0  0  0  0  0  0  0  0  0  0  0  0
    5.8874  -14.7247   26.4106 N   0  0  0  0  0  0  0  0  0  0  0  0
    6.3423  -13.4543   26.4341 C   0  0  0  0  0  0  0  0  0  0  0  0
    5.6856  -12.2468   26.2961 C   0  0  0  0  0  0  0  0  0  0  0  0
    6.4041  -11.0566   26.3536 C   0  0  0  0  0  0  0  0  0  0  0  0
    7.7667  -11.1219   26.5498 C   0  0  0  0  0  0  0  0  0  0  0  0
    8.3927  -12.3356   26.6843 C   0  0  0  0  0  0  0  0  0  0  0  0
    7.7039  -13.5409   26.6321 C   0  0  0  0  0  0  0  0  0  0  0  0
    9.3096  -17.8013   26.0074 C   0  0  0  0  0  0  0  0  0  0  0  0
    9.7553  -18.7300   26.9290 O   0  0  0  0  0  0  0  0  0  0  0  0
    8.4007  -18.1846   25.2079 O   0  0  0  0  0  0  0  0  0  0  0  0
  2  1  1  6
  2  3  1  0
  3  4  1  0
  4  8  1  0
  5  4  2  0
  6  2  1  0
  6  7  2  0
  9  6  1  0
 10  9  1  0
 10 11  1  6
 12 11  1  0
 12 16  1  0
 13 14  1  0
 13 12  2  0
 14 15  1  0
 15 16  2  0
 17 10  1  0
 18 17  2  0
 19 17  1  0
 20 19  1  0
 21 22  1  0
 20 21  1  1
 22 30  1  0
 22 23  2  0
 23 24  1  0
 25 26  2  0
 25 24  1  0
 27 26  1  0
 28 27  2  0
 29 28  1  0
 29 30  2  0
 30 25  1  0
 31 20  1  0
 31 32  1  0
 33 31  2  0
M  END
$$$$
