DHW.pdb
     RDKit          3D

 33 35  0  0  1  0  0  0  0  0999 V2000
   10.3322  -14.9247   18.2995 N   0  0  0  0  0  0  0  0  0  0  0  0
    9.1631  -14.4314   18.9996 C   0  0  1  0  0  0  0  0  0  0  0  0
    7.9879  -14.3192   18.0590 C   0  0  0  0  0  0  0  0  0  0  0  0
    8.4710  -13.7471   16.7786 C   0  0  0  0  0  0  0  0  0  0  0  0
    9.7033  -13.5655   16.5650 O   0  0  0  0  0  0  0  0  0  0  0  0
    8.8980  -15.3535   20.1334 C   0  0  0  0  0  0  0  0  0  0  0  0
    7.8591  -15.2551   20.8288 O   0  0  0  0  0  0  0  0  0  0  0  0
    7.5739  -13.4036   15.7967 O   0  0  0  0  0  0  0  0  0  0  0  0
    9.8158  -16.3905   20.4801 N   0  0  0  0  0  0  0  0  0  0  0  0
    9.6439  -17.2420   21.6118 C   0  0  1  0  0  0  0  0  0  0  0  0
   10.0124  -18.6797   21.3929 C   0  0  0  0  0  0  0  0  0  0  0  0
    9.1410  -19.3494   20.4051 C   0  0  0  0  0  0  0  0  0  0  0  0
    7.9897  -20.0534   20.6504 C   0  0  0  0  0  0  0  0  0  0  0  0
    7.5011  -20.4955   19.4556 N   0  0  0  0  0  0  0  0  0  0  0  0
    8.3469  -20.0628   18.5162 C   0  0  0  0  0  0  0  0  0  0  0  0
    9.3480  -19.3644   19.0816 N   0  0  0  0  0  0  0  0  0  0  0  0
   10.2797  -16.6592   22.8419 C   0  0  0  0  0  0  0  0  0  0  0  0
   11.4714  -16.2287   22.8088 O   0  0  0  0  0  0  0  0  0  0  0  0
    9.5919  -16.5664   24.0757 N   0  0  0  0  0  0  0  0  0  0  0  0
   10.1818  -15.9815   25.2755 C   0  0  1  0  0  0  0  0  0  0  0  0
    9.7118  -14.5862   25.5057 C   0  0  0  0  0  0  0  0  0  0  0  0
    8.2708  -14.4069   25.6783 C   0  0  0  0  0  0  0  0  0  0  0  0
    7.3651  -15.4432   25.6549 C   0  0  0  0  0  0  0  0  0  0  0  0
    6.1349  -14.9606   25.8733 N   0  0  0  0  0  0  0  0  0  0  0  0
    6.1944  -13.6229   26.0419 C   0  0  0  0  0  0  0  0  0  0  0  0
    5.2063  -12.6885   26.2850 C   0  0  0  0  0  0  0  0  0  0  0  0
    5.5404  -11.3439   26.4135 C   0  0  0  0  0  0  0  0  0  0  0  0
    6.8650  -10.9830   26.2932 C   0  0  0  0  0  0  0  0  0  0  0  0
    7.8257  -11.9327   26.0523 C   0  0  0  0  0  0  0  0  0  0  0  0
    7.5247  -13.2823   25.9195 C   0  0  0  0  0  0  0  0  0  0  0  0
   10.1414  -16.8952   26.4194 C   0  0  0  0  0  0  0  0  0  0  0  0
    9.4510  -18.0922   26.3846 O   0  0  0  0  0  0  0  0  0  0  0  0
   10.7427  -16.6168   27.5025 O   0  0  0  0  0  0  0  0  0  0  0  0
  2  1  1  6
  2  3  1  0
  3  4  1  0
  4  8  1  0
  5  4  2  0
  6  2  1  0
  6  7  2  0
  9  6  1  0
 10  9  1  0
 10 11  1  6
 12 11  1  0
 12 16  1  0
 13 14  1  0
 13 12  2  0
 14 15  1  0
 15 16  2  0
 17 10  1  0
 18 17  2  0
 19 17  1  0
 20 19  1  0
 21 22  1  0
 20 21  1  1
 22 30  1  0
 22 23  2  0
 23 24  1  0
 25 26  2  0
 25 24  1  0
 27 26  1  0
 28 27  2  0
 29 28  1  0
 29 30  2  0
 30 25  1  0
 31 20  1  0
 31 32  1  0
 33 31  2  0
M  END
$$$$
