DHW.pdb
     RDKit          3D

 33 35  0  0  1  0  0  0  0  0999 V2000
    8.8603  -17.2182   17.6418 N   0  0  0  0  0  0  0  0  0  0  0  0
    9.0237  -16.1434   18.6001 C   0  0  1  0  0  0  0  0  0  0  0  0
    8.2183  -14.9355   18.1870 C   0  0  0  0  0  0  0  0  0  0  0  0
    8.7616  -14.4328   16.9017 C   0  0  0  0  0  0  0  0  0  0  0  0
    8.0071  -14.2123   15.9122 O   0  0  0  0  0  0  0  0  0  0  0  0
    8.6229  -16.6660   19.9314 C   0  0  0  0  0  0  0  0  0  0  0  0
    7.4269  -16.6512   20.3081 O   0  0  0  0  0  0  0  0  0  0  0  0
   10.1085  -14.1972   16.7693 O   0  0  0  0  0  0  0  0  0  0  0  0
    9.5831  -17.2065   20.8391 N   0  0  0  0  0  0  0  0  0  0  0  0
    9.2320  -17.8019   22.0872 C   0  0  1  0  0  0  0  0  0  0  0  0
    9.4518  -19.2834   22.1738 C   0  0  0  0  0  0  0  0  0  0  0  0
    8.5452  -20.0485   21.2928 C   0  0  0  0  0  0  0  0  0  0  0  0
    7.5801  -19.5507   20.4548 C   0  0  0  0  0  0  0  0  0  0  0  0
    6.9834  -20.6032   19.8239 N   0  0  0  0  0  0  0  0  0  0  0  0
    7.5824  -21.7075   20.2788 C   0  0  0  0  0  0  0  0  0  0  0  0
    8.5339  -21.3827   21.1724 N   0  0  0  0  0  0  0  0  0  0  0  0
    9.8352  -17.0556   23.2431 C   0  0  0  0  0  0  0  0  0  0  0  0
   10.9099  -16.3998   23.0962 O   0  0  0  0  0  0  0  0  0  0  0  0
    9.2446  -17.0507   24.5296 N   0  0  0  0  0  0  0  0  0  0  0  0
    9.8701  -16.4281   25.6918 C   0  0  1  0  0  0  0  0  0  0  0  0
    8.8641  -15.9939   26.7019 C   0  0  0  0  0  0  0  0  0  0  0  0
    7.7213  -15.2351   26.1951 C   0  0  0  0  0  0  0  0  0  0  0  0
    6.5908  -15.8189   25.6697 C   0  0  0  0  0  0  0  0  0  0  0  0
    5.7182  -14.8626   25.3257 N   0  0  0  0  0  0  0  0  0  0  0  0
    6.2383  -13.6496   25.6076 C   0  0  0  0  0  0  0  0  0  0  0  0
    5.7314  -12.3762   25.4340 C   0  0  0  0  0  0  0  0  0  0  0  0
    6.4894  -11.2714   25.8094 C   0  0  0  0  0  0  0  0  0  0  0  0
    7.7385  -11.4864   26.3506 C   0  0  0  0  0  0  0  0  0  0  0  0
    8.2165  -12.7625   26.5120 C   0  0  0  0  0  0  0  0  0  0  0  0
    7.4845  -13.8856   26.1479 C   0  0  0  0  0  0  0  0  0  0  0  0
   11.0199  -17.1912   26.1823 C   0  0  0  0  0  0  0  0  0  0  0  0
   11.9157  -16.6709   27.0973 O   0  0  0  0  0  0  0  0  0  0  0  0
   11.2435  -18.3735   25.7766 O   0  0  0  0  0  0  0  0  0  0  0  0
  2  1  1  6
  2  3  1  0
  3  4  1  0
  4  8  1  0
  5  4  2  0
  6  2  1  0
  6  7  2  0
  9  6  1  0
 10  9  1  0
 10 11  1  6
 12 11  1  0
 12 16  1  0
 13 14  1  0
 13 12  2  0
 14 15  1  0
 15 16  2  0
 17 10  1  0
 18 17  2  0
 19 17  1  0
 20 19  1  0
 21 22  1  0
 20 21  1  1
 22 30  1  0
 22 23  2  0
 23 24  1  0
 25 26  2  0
 25 24  1  0
 27 26  1  0
 28 27  2  0
 29 28  1  0
 29 30  2  0
 30 25  1  0
 31 20  1  0
 31 32  1  0
 33 31  2  0
M  END
$$$$
