DHW.pdb
     RDKit          3D

 33 35  0  0  1  0  0  0  0  0999 V2000
    9.6135  -18.4079   19.9507 N   0  0  0  0  0  0  0  0  0  0  0  0
   10.9048  -17.7512   19.9140 C   0  0  1  0  0  0  0  0  0  0  0  0
   11.3961  -17.6230   18.4925 C   0  0  0  0  0  0  0  0  0  0  0  0
   11.7975  -18.9694   18.0169 C   0  0  0  0  0  0  0  0  0  0  0  0
   11.3589  -19.4380   16.9283 O   0  0  0  0  0  0  0  0  0  0  0  0
   10.7567  -16.4347   20.5855 C   0  0  0  0  0  0  0  0  0  0  0  0
   11.7042  -15.6147   20.6360 O   0  0  0  0  0  0  0  0  0  0  0  0
   12.6622  -19.7329   18.7628 O   0  0  0  0  0  0  0  0  0  0  0  0
    9.5292  -16.0475   21.2029 N   0  0  0  0  0  0  0  0  0  0  0  0
    9.3196  -14.7653   21.7923 C   0  0  1  0  0  0  0  0  0  0  0  0
    8.0806  -14.0490   21.3425 C   0  0  0  0  0  0  0  0  0  0  0  0
    7.9957  -13.9210   19.8728 C   0  0  0  0  0  0  0  0  0  0  0  0
    8.3883  -12.8546   19.1045 C   0  0  0  0  0  0  0  0  0  0  0  0
    8.1376  -13.1590   17.7982 N   0  0  0  0  0  0  0  0  0  0  0  0
    7.6048  -14.3843   17.7895 C   0  0  0  0  0  0  0  0  0  0  0  0
    7.5139  -14.8578   19.0453 N   0  0  0  0  0  0  0  0  0  0  0  0
    9.4506  -14.8180   23.2880 C   0  0  0  0  0  0  0  0  0  0  0  0
    9.3418  -13.7629   23.9818 O   0  0  0  0  0  0  0  0  0  0  0  0
    9.7000  -16.0264   23.9821 N   0  0  0  0  0  0  0  0  0  0  0  0
    9.9684  -16.0818   25.4154 C   0  0  1  0  0  0  0  0  0  0  0  0
    8.7370  -16.3705   26.2034 C   0  0  0  0  0  0  0  0  0  0  0  0
    7.6151  -15.4518   26.0143 C   0  0  0  0  0  0  0  0  0  0  0  0
    6.3949  -15.8330   25.5038 C   0  0  0  0  0  0  0  0  0  0  0  0
    5.5730  -14.7755   25.4856 N   0  0  0  0  0  0  0  0  0  0  0  0
    6.2148  -13.6923   25.9717 C   0  0  0  0  0  0  0  0  0  0  0  0
    5.7981  -12.3870   26.1479 C   0  0  0  0  0  0  0  0  0  0  0  0
    6.6763  -11.4440   26.6730 C   0  0  0  0  0  0  0  0  0  0  0  0
    7.9511  -11.8487   27.0055 C   0  0  0  0  0  0  0  0  0  0  0  0
    8.3377  -13.1522   26.8202 C   0  0  0  0  0  0  0  0  0  0  0  0
    7.4849  -14.1171   26.2990 C   0  0  0  0  0  0  0  0  0  0  0  0
   11.1608  -16.8721   25.7295 C   0  0  0  0  0  0  0  0  0  0  0  0
   11.6601  -16.9770   27.0141 O   0  0  0  0  0  0  0  0  0  0  0  0
   11.7925  -17.4952   24.8212 O   0  0  0  0  0  0  0  0  0  0  0  0
  2  1  1  6
  2  3  1  0
  3  4  1  0
  4  8  1  0
  5  4  2  0
  6  2  1  0
  6  7  2  0
  9  6  1  0
 10  9  1  0
 10 11  1  1
 12 11  1  0
 12 16  1  0
 13 14  1  0
 13 12  2  0
 14 15  1  0
 15 16  2  0
 17 10  1  0
 18 17  2  0
 19 17  1  0
 20 19  1  0
 21 22  1  0
 20 21  1  1
 22 30  1  0
 22 23  2  0
 23 24  1  0
 25 26  2  0
 25 24  1  0
 27 26  1  0
 28 27  2  0
 29 28  1  0
 29 30  2  0
 30 25  1  0
 31 20  1  0
 31 32  1  0
 33 31  2  0
M  END
$$$$
