DHW.pdb
     RDKit          3D

 33 35  0  0  1  0  0  0  0  0999 V2000
   10.4058  -19.6328   20.5602 N   0  0  0  0  0  0  0  0  0  0  0  0
   11.8327  -19.3851   20.6136 C   0  0  1  0  0  0  0  0  0  0  0  0
   12.4940  -19.8049   19.3233 C   0  0  0  0  0  0  0  0  0  0  0  0
   12.1672  -21.2305   19.0765 C   0  0  0  0  0  0  0  0  0  0  0  0
   12.1779  -22.0776   20.0142 O   0  0  0  0  0  0  0  0  0  0  0  0
   12.0258  -17.9423   20.9085 C   0  0  0  0  0  0  0  0  0  0  0  0
   13.1704  -17.4339   20.9713 O   0  0  0  0  0  0  0  0  0  0  0  0
   11.8444  -21.6529   17.8098 O   0  0  0  0  0  0  0  0  0  0  0  0
   10.9159  -17.0733   21.1342 N   0  0  0  0  0  0  0  0  0  0  0  0
   11.0507  -15.6671   21.3345 C   0  0  1  0  0  0  0  0  0  0  0  0
   10.0838  -14.8157   20.5659 C   0  0  0  0  0  0  0  0  0  0  0  0
    8.6744  -15.1822   20.8166 C   0  0  0  0  0  0  0  0  0  0  0  0
    7.6680  -14.3664   21.2672 C   0  0  0  0  0  0  0  0  0  0  0  0
    6.5264  -15.1091   21.3506 N   0  0  0  0  0  0  0  0  0  0  0  0
    6.8479  -16.3448   20.9573 C   0  0  0  0  0  0  0  0  0  0  0  0
    8.1514  -16.4014   20.6299 N   0  0  0  0  0  0  0  0  0  0  0  0
   11.0977  -15.3204   22.7954 C   0  0  0  0  0  0  0  0  0  0  0  0
   11.2940  -14.1248   23.1679 O   0  0  0  0  0  0  0  0  0  0  0  0
   10.9304  -16.2948   23.8086 N   0  0  0  0  0  0  0  0  0  0  0  0
    9.8785  -16.2235   24.8176 C   0  0  1  0  0  0  0  0  0  0  0  0
    8.5594  -15.8635   24.2248 C   0  0  0  0  0  0  0  0  0  0  0  0
    7.5890  -15.2456   25.1275 C   0  0  0  0  0  0  0  0  0  0  0  0
    6.4745  -15.8944   25.6090 C   0  0  0  0  0  0  0  0  0  0  0  0
    5.8073  -15.0755   26.4326 N   0  0  0  0  0  0  0  0  0  0  0  0
    6.4486  -13.8908   26.5140 C   0  0  0  0  0  0  0  0  0  0  0  0
    6.1551  -12.7405   27.2205 C   0  0  0  0  0  0  0  0  0  0  0  0
    6.9935  -11.6343   27.1229 C   0  0  0  0  0  0  0  0  0  0  0  0
    8.1055  -11.7237   26.3137 C   0  0  0  0  0  0  0  0  0  0  0  0
    8.3727  -12.8793   25.6237 C   0  0  0  0  0  0  0  0  0  0  0  0
    7.5562  -14.0006   25.7004 C   0  0  0  0  0  0  0  0  0  0  0  0
    9.9072  -17.3647   25.7351 C   0  0  0  0  0  0  0  0  0  0  0  0
    9.7326  -17.2208   27.0986 O   0  0  0  0  0  0  0  0  0  0  0  0
   10.1010  -18.5447   25.3080 O   0  0  0  0  0  0  0  0  0  0  0  0
  2  1  1  6
  2  3  1  0
  3  4  1  0
  4  8  1  0
  5  4  2  0
  6  2  1  0
  6  7  2  0
  9  6  1  0
 10  9  1  0
 10 11  1  1
 12 11  1  0
 12 16  1  0
 13 14  1  0
 13 12  2  0
 14 15  1  0
 15 16  2  0
 17 10  1  0
 18 17  2  0
 19 17  1  0
 20 19  1  0
 21 22  1  0
 20 21  1  6
 22 30  1  0
 22 23  2  0
 23 24  1  0
 25 26  2  0
 25 24  1  0
 27 26  1  0
 28 27  2  0
 29 28  1  0
 29 30  2  0
 30 25  1  0
 31 20  1  0
 31 32  1  0
 33 31  2  0
M  END
$$$$
