DHW.pdb
     RDKit          3D

 33 35  0  0  1  0  0  0  0  0999 V2000
    7.8217  -20.5372   21.2299 N   0  0  0  0  0  0  0  0  0  0  0  0
    9.1353  -20.4227   20.6285 C   0  0  1  0  0  0  0  0  0  0  0  0
    9.1945  -21.1898   19.3299 C   0  0  0  0  0  0  0  0  0  0  0  0
    8.8225  -22.5989   19.6057 C   0  0  0  0  0  0  0  0  0  0  0  0
    9.3377  -23.2370   20.5672 O   0  0  0  0  0  0  0  0  0  0  0  0
    9.4204  -18.9762   20.4482 C   0  0  0  0  0  0  0  0  0  0  0  0
   10.5528  -18.5710   20.0929 O   0  0  0  0  0  0  0  0  0  0  0  0
    7.9016  -23.2357   18.8098 O   0  0  0  0  0  0  0  0  0  0  0  0
    8.4172  -17.9858   20.6729 N   0  0  0  0  0  0  0  0  0  0  0  0
    8.6598  -16.5848   20.5542 C   0  0  1  0  0  0  0  0  0  0  0  0
    7.4601  -15.7551   20.2036 C   0  0  0  0  0  0  0  0  0  0  0  0
    7.8051  -14.3510   19.8989 C   0  0  0  0  0  0  0  0  0  0  0  0
    8.1283  -13.8179   18.6770 C   0  0  0  0  0  0  0  0  0  0  0  0
    8.3688  -12.4856   18.8467 N   0  0  0  0  0  0  0  0  0  0  0  0
    8.1924  -12.2306   20.1463 C   0  0  0  0  0  0  0  0  0  0  0  0
    7.8492  -13.3572   20.7962 N   0  0  0  0  0  0  0  0  0  0  0  0
    9.4084  -16.0523   21.7429 C   0  0  0  0  0  0  0  0  0  0  0  0
   10.1286  -15.0146   21.6386 O   0  0  0  0  0  0  0  0  0  0  0  0
    9.3486  -16.6738   23.0134 N   0  0  0  0  0  0  0  0  0  0  0  0
   10.0115  -16.1351   24.1966 C   0  0  1  0  0  0  0  0  0  0  0  0
    9.6558  -14.7077   24.4348 C   0  0  0  0  0  0  0  0  0  0  0  0
    8.3070  -14.4502   24.9377 C   0  0  0  0  0  0  0  0  0  0  0  0
    7.3235  -15.4106   25.0096 C   0  0  0  0  0  0  0  0  0  0  0  0
    6.2180  -14.8728   25.5413 N   0  0  0  0  0  0  0  0  0  0  0  0
    6.4371  -13.5721   25.8270 C   0  0  0  0  0  0  0  0  0  0  0  0
    5.6147  -12.6067   26.3749 C   0  0  0  0  0  0  0  0  0  0  0  0
    6.0931  -11.3136   26.5620 C   0  0  0  0  0  0  0  0  0  0  0  0
    7.3904  -11.0341   26.1901 C   0  0  0  0  0  0  0  0  0  0  0  0
    8.1852  -12.0131   25.6488 C   0  0  0  0  0  0  0  0  0  0  0  0
    7.7375  -13.3130   25.4497 C   0  0  0  0  0  0  0  0  0  0  0  0
    9.9298  -17.0423   25.3435 C   0  0  0  0  0  0  0  0  0  0  0  0
    9.1769  -18.2011   25.3165 O   0  0  0  0  0  0  0  0  0  0  0  0
   10.5516  -16.7931   26.4222 O   0  0  0  0  0  0  0  0  0  0  0  0
  2  1  1  6
  2  3  1  0
  3  4  1  0
  4  8  1  0
  5  4  2  0
  6  2  1  0
  6  7  2  0
  9  6  1  0
 10  9  1  0
 10 11  1  1
 12 11  1  0
 12 16  1  0
 13 14  1  0
 13 12  2  0
 14 15  1  0
 15 16  2  0
 17 10  1  0
 18 17  2  0
 19 17  1  0
 20 19  1  0
 21 22  1  0
 20 21  1  1
 22 30  1  0
 22 23  2  0
 23 24  1  0
 25 26  2  0
 25 24  1  0
 27 26  1  0
 28 27  2  0
 29 28  1  0
 29 30  2  0
 30 25  1  0
 31 20  1  0
 31 32  1  0
 33 31  2  0
M  END
$$$$
