MEQ.pdb
     RDKit          3D

 27 26  0  0  1  0  0  0  0  0999 V2000
    7.3636  -11.8644   25.7862 C   0  0  0  0  0  0  0  0  0  0  0  0
    6.9113  -13.1292   26.9981 S   0  0  0  0  0  0  0  0  0  0  0  0
    7.1906  -14.7443   26.2644 C   0  0  0  0  0  0  0  0  0  0  0  0
    6.0531  -15.2346   25.4435 C   0  0  0  0  0  0  0  0  0  0  0  0
    6.2659  -16.5416   24.7597 C   0  0  2  0  0  0  0  0  0  0  0  0
    5.6969  -17.5473   25.7194 N   0  0  0  0  0  0  0  0  0  0  0  0
    7.6761  -16.8942   24.5108 C   0  0  0  0  0  0  0  0  0  0  0  0
    8.4126  -17.5167   25.3337 O   0  0  0  0  0  0  0  0  0  0  0  0
    8.3209  -16.5486   23.2954 N   0  0  0  0  0  0  0  0  0  0  0  0
    9.6986  -16.9927   23.0394 C   0  0  1  0  0  0  0  0  0  0  0  0
    9.7925  -16.9190   21.5272 C   0  0  0  0  0  0  0  0  0  0  0  0
   11.0854  -17.2692   20.9168 C   0  0  0  0  0  0  0  0  0  0  0  0
   11.0926  -17.3252   19.4518 C   0  0  0  0  0  0  0  0  0  0  0  0
   11.8072  -18.1514   18.8446 O   0  0  0  0  0  0  0  0  0  0  0  0
   10.6578  -16.0277   23.6120 C   0  0  0  0  0  0  0  0  0  0  0  0
   10.3435  -14.8279   23.7965 O   0  0  0  0  0  0  0  0  0  0  0  0
   10.3090  -16.4651   18.7093 O   0  0  0  0  0  0  0  0  0  0  0  0
   11.3881  -16.4623   28.9895 N   0  0  0  0  0  0  0  0  0  0  0  0
   11.0759  -15.1900   28.4483 C   0  0  0  0  0  0  0  0  0  0  0  0
   10.5957  -14.2976   29.1686 O   0  0  0  0  0  0  0  0  0  0  0  0
   11.3280  -14.9369   27.0170 C   0  0  0  0  0  0  0  0  0  0  0  0
   11.8018  -16.1994   26.3575 C   0  0  0  0  0  0  0  0  0  0  0  0
   12.6385  -15.8263   25.1395 C   0  0  2  0  0  0  0  0  0  0  0  0
   11.9556  -16.4317   23.9726 N   0  0  0  0  0  0  0  0  0  0  0  0
   13.9730  -16.4173   25.3609 C   0  0  0  0  0  0  0  0  0  0  0  0
   14.2860  -17.6148   24.7455 O   0  0  0  0  0  0  0  0  0  0  0  0
   14.8351  -15.8762   26.0856 O   0  0  0  0  0  0  0  0  0  0  0  0
  2  3  1  0
  2  1  1  0
  4  5  1  0
  4  3  1  0
  5  6  1  1
  7  5  1  0
  7  8  2  0
  9  7  1  0
 10  9  1  0
 10 11  1  6
 12 11  1  0
 13 12  1  0
 14 13  2  0
 15 10  1  0
 16 15  2  0
 17 13  1  0
 19 18  1  0
 20 19  2  0
 21 19  1  0
 22 21  1  0
 23 22  1  1
 23 24  1  0
 24 15  1  0
 25 23  1  0
 26 25  1  0
 27 25  2  0
M  END
$$$$
