MEQ.pdb
     RDKit          3D

 27 26  0  0  1  0  0  0  0  0999 V2000
    5.0827  -11.1270   26.7036 C   0  0  0  0  0  0  0  0  0  0  0  0
    6.6367  -11.9022   26.1968 S   0  0  0  0  0  0  0  0  0  0  0  0
    6.2532  -13.4098   25.2998 C   0  0  0  0  0  0  0  0  0  0  0  0
    7.4225  -14.3064   25.1068 C   0  0  0  0  0  0  0  0  0  0  0  0
    7.1715  -15.5293   24.2927 C   0  0  2  0  0  0  0  0  0  0  0  0
    6.2191  -16.3320   25.1324 N   0  0  0  0  0  0  0  0  0  0  0  0
    8.3613  -16.3601   24.0302 C   0  0  0  0  0  0  0  0  0  0  0  0
    8.8039  -17.2446   24.8232 O   0  0  0  0  0  0  0  0  0  0  0  0
    9.1121  -16.2192   22.8348 N   0  0  0  0  0  0  0  0  0  0  0  0
   10.3323  -17.0135   22.6324 C   0  0  1  0  0  0  0  0  0  0  0  0
   10.6618  -16.7453   21.1763 C   0  0  0  0  0  0  0  0  0  0  0  0
   10.4378  -17.8450   20.2235 C   0  0  0  0  0  0  0  0  0  0  0  0
    9.6889  -17.4853   19.0156 C   0  0  0  0  0  0  0  0  0  0  0  0
   10.0499  -16.5278   18.2980 O   0  0  0  0  0  0  0  0  0  0  0  0
   11.4295  -16.4793   23.4631 C   0  0  0  0  0  0  0  0  0  0  0  0
   11.5055  -15.2575   23.7350 O   0  0  0  0  0  0  0  0  0  0  0  0
    8.5666  -18.1974   18.6432 O   0  0  0  0  0  0  0  0  0  0  0  0
   10.2066  -17.8585   28.3389 N   0  0  0  0  0  0  0  0  0  0  0  0
   11.4480  -17.2857   28.7130 C   0  0  0  0  0  0  0  0  0  0  0  0
   11.6364  -16.8907   29.8767 O   0  0  0  0  0  0  0  0  0  0  0  0
   12.5161  -17.1637   27.7028 C   0  0  0  0  0  0  0  0  0  0  0  0
   11.9290  -17.3061   26.3285 C   0  0  0  0  0  0  0  0  0  0  0  0
   13.0310  -17.0682   25.3029 C   0  0  2  0  0  0  0  0  0  0  0  0
   12.4218  -17.3320   23.9787 N   0  0  0  0  0  0  0  0  0  0  0  0
   14.1005  -18.0361   25.6168 C   0  0  0  0  0  0  0  0  0  0  0  0
   15.0584  -17.6961   26.5535 O   0  0  0  0  0  0  0  0  0  0  0  0
   14.1751  -19.1558   25.0671 O   0  0  0  0  0  0  0  0  0  0  0  0
  2  3  1  0
  2  1  1  0
  4  5  1  0
  4  3  1  0
  5  6  1  1
  7  5  1  0
  7  8  2  0
  9  7  1  0
 10  9  1  0
 10 11  1  6
 12 11  1  0
 13 12  1  0
 14 13  2  0
 15 10  1  0
 16 15  2  0
 17 13  1  0
 19 18  1  0
 20 19  2  0
 21 19  1  0
 22 21  1  0
 23 22  1  1
 23 24  1  0
 24 15  1  0
 25 23  1  0
 26 25  1  0
 27 25  2  0
M  END
$$$$
