MEQ.pdb
     RDKit          3D

 27 26  0  0  1  0  0  0  0  0999 V2000
    6.2993  -12.0543   25.8678 C   0  0  0  0  0  0  0  0  0  0  0  0
    7.1258  -11.8837   24.2676 S   0  0  0  0  0  0  0  0  0  0  0  0
    6.5370  -13.1877   23.1824 C   0  0  0  0  0  0  0  0  0  0  0  0
    7.1266  -14.5206   23.4723 C   0  0  0  0  0  0  0  0  0  0  0  0
    8.6139  -14.5642   23.5592 C   0  0  2  0  0  0  0  0  0  0  0  0
    9.0648  -14.3104   22.1491 N   0  0  0  0  0  0  0  0  0  0  0  0
    9.1767  -15.8561   23.9937 C   0  0  0  0  0  0  0  0  0  0  0  0
    8.7863  -16.4980   25.0148 O   0  0  0  0  0  0  0  0  0  0  0  0
   10.2253  -16.4849   23.2743 N   0  0  0  0  0  0  0  0  0  0  0  0
   10.8316  -17.7225   23.7857 C   0  0  1  0  0  0  0  0  0  0  0  0
   11.9336  -17.9898   22.7782 C   0  0  0  0  0  0  0  0  0  0  0  0
   11.5222  -18.4104   21.4288 C   0  0  0  0  0  0  0  0  0  0  0  0
   12.5669  -18.3360   20.4030 C   0  0  0  0  0  0  0  0  0  0  0  0
   13.0615  -19.3745   19.9141 O   0  0  0  0  0  0  0  0  0  0  0  0
   11.4545  -17.4768   25.1014 C   0  0  0  0  0  0  0  0  0  0  0  0
   12.4079  -16.6726   25.2310 O   0  0  0  0  0  0  0  0  0  0  0  0
   13.0285  -17.1153   19.9535 O   0  0  0  0  0  0  0  0  0  0  0  0
   10.8753  -13.6608   28.3709 N   0  0  0  0  0  0  0  0  0  0  0  0
   10.4041  -14.9100   28.8468 C   0  0  0  0  0  0  0  0  0  0  0  0
   10.2217  -15.0947   30.0627 O   0  0  0  0  0  0  0  0  0  0  0  0
   10.1323  -15.9907   27.8802 C   0  0  0  0  0  0  0  0  0  0  0  0
   10.5576  -17.3072   28.4628 C   0  0  0  0  0  0  0  0  0  0  0  0
   11.6329  -17.9099   27.5666 C   0  0  2  0  0  0  0  0  0  0  0  0
   10.9894  -18.1382   26.2519 N   0  0  0  0  0  0  0  0  0  0  0  0
   12.0378  -19.1774   28.2059 C   0  0  0  0  0  0  0  0  0  0  0  0
   11.7078  -20.3720   27.5940 O   0  0  0  0  0  0  0  0  0  0  0  0
   12.6700  -19.2140   29.2831 O   0  0  0  0  0  0  0  0  0  0  0  0
  2  3  1  0
  2  1  1  0
  4  5  1  0
  4  3  1  0
  5  6  1  6
  7  5  1  0
  7  8  2  0
  9  7  1  0
 10  9  1  0
 10 11  1  6
 12 11  1  0
 13 12  1  0
 14 13  2  0
 15 10  1  0
 16 15  2  0
 17 13  1  0
 19 18  1  0
 20 19  2  0
 21 19  1  0
 22 21  1  0
 23 22  1  1
 23 24  1  0
 24 15  1  0
 25 23  1  0
 26 25  1  0
 27 25  2  0
M  END
$$$$
