MEQ.pdb
     RDKit          3D

 27 26  0  0  1  0  0  0  0  0999 V2000
    7.0519  -11.7605   24.6134 C   0  0  0  0  0  0  0  0  0  0  0  0
    5.9434  -12.9088   25.4652 S   0  0  0  0  0  0  0  0  0  0  0  0
    6.9054  -14.3191   26.0223 C   0  0  0  0  0  0  0  0  0  0  0  0
    6.2344  -15.6267   25.8030 C   0  0  0  0  0  0  0  0  0  0  0  0
    6.4452  -16.2444   24.4631 C   0  0  2  0  0  0  0  0  0  0  0  0
    5.6695  -17.5288   24.5325 N   0  0  0  0  0  0  0  0  0  0  0  0
    7.8461  -16.5732   24.1402 C   0  0  0  0  0  0  0  0  0  0  0  0
    8.5344  -17.4444   24.7519 O   0  0  0  0  0  0  0  0  0  0  0  0
    8.5366  -15.9149   23.0904 N   0  0  0  0  0  0  0  0  0  0  0  0
    9.9017  -16.3271   22.7334 C   0  0  1  0  0  0  0  0  0  0  0  0
   10.0170  -15.8703   21.2915 C   0  0  0  0  0  0  0  0  0  0  0  0
    9.5196  -16.7889   20.2543 C   0  0  0  0  0  0  0  0  0  0  0  0
   10.4920  -17.7731   19.7697 C   0  0  0  0  0  0  0  0  0  0  0  0
   10.1475  -18.6834   18.9856 O   0  0  0  0  0  0  0  0  0  0  0  0
   10.8855  -15.5768   23.5386 C   0  0  0  0  0  0  0  0  0  0  0  0
   10.7068  -14.3696   23.8268 O   0  0  0  0  0  0  0  0  0  0  0  0
   11.8119  -17.7164   20.1693 O   0  0  0  0  0  0  0  0  0  0  0  0
   10.0363  -17.2129   28.3474 N   0  0  0  0  0  0  0  0  0  0  0  0
   11.1860  -16.4918   28.7565 C   0  0  0  0  0  0  0  0  0  0  0  0
   11.3808  -16.2430   29.9590 O   0  0  0  0  0  0  0  0  0  0  0  0
   12.1507  -16.0393   27.7364 C   0  0  0  0  0  0  0  0  0  0  0  0
   11.6046  -16.3197   26.3664 C   0  0  0  0  0  0  0  0  0  0  0  0
   12.6191  -15.8447   25.3330 C   0  0  2  0  0  0  0  0  0  0  0  0
   12.0540  -16.2009   24.0108 N   0  0  0  0  0  0  0  0  0  0  0  0
   13.8667  -16.5826   25.6124 C   0  0  0  0  0  0  0  0  0  0  0  0
   14.0895  -17.7883   24.9742 O   0  0  0  0  0  0  0  0  0  0  0  0
   14.7336  -16.1593   26.4065 O   0  0  0  0  0  0  0  0  0  0  0  0
  2  3  1  0
  2  1  1  0
  4  5  1  0
  4  3  1  0
  5  6  1  1
  7  5  1  0
  7  8  2  0
  9  7  1  0
 10  9  1  0
 10 11  1  6
 12 11  1  0
 13 12  1  0
 14 13  2  0
 15 10  1  0
 16 15  2  0
 17 13  1  0
 19 18  1  0
 20 19  2  0
 21 19  1  0
 22 21  1  0
 23 22  1  1
 23 24  1  0
 24 15  1  0
 25 23  1  0
 26 25  1  0
 27 25  2  0
M  END
$$$$
