MEQ.pdb
     RDKit          3D

 27 26  0  0  1  0  0  0  0  0999 V2000
    7.9802  -11.6656   27.1863 C   0  0  0  0  0  0  0  0  0  0  0  0
    6.7058  -11.6769   25.9023 S   0  0  0  0  0  0  0  0  0  0  0  0
    5.9861  -13.3206   25.8309 C   0  0  0  0  0  0  0  0  0  0  0  0
    6.9875  -14.4070   25.6726 C   0  0  0  0  0  0  0  0  0  0  0  0
    6.7828  -15.3092   24.5041 C   0  0  2  0  0  0  0  0  0  0  0  0
    5.4890  -16.0080   24.8107 N   0  0  0  0  0  0  0  0  0  0  0  0
    7.8244  -16.3364   24.3178 C   0  0  0  0  0  0  0  0  0  0  0  0
    7.9592  -17.3586   25.0553 O   0  0  0  0  0  0  0  0  0  0  0  0
    8.7735  -16.2445   23.2676 N   0  0  0  0  0  0  0  0  0  0  0  0
    9.8036  -17.2816   23.1118 C   0  0  1  0  0  0  0  0  0  0  0  0
   10.5446  -16.8256   21.8693 C   0  0  0  0  0  0  0  0  0  0  0  0
   11.7236  -17.6089   21.4650 C   0  0  0  0  0  0  0  0  0  0  0  0
   12.3842  -17.1588   20.2361 C   0  0  0  0  0  0  0  0  0  0  0  0
   12.3528  -15.9573   19.8936 O   0  0  0  0  0  0  0  0  0  0  0  0
   10.7404  -17.2421   24.2521 C   0  0  0  0  0  0  0  0  0  0  0  0
   11.1564  -16.1540   24.7163 O   0  0  0  0  0  0  0  0  0  0  0  0
   13.0567  -18.0536   19.4285 O   0  0  0  0  0  0  0  0  0  0  0  0
   12.0340  -19.0188   30.5758 N   0  0  0  0  0  0  0  0  0  0  0  0
   11.6373  -19.7325   29.4172 C   0  0  0  0  0  0  0  0  0  0  0  0
   10.6406  -20.4753   29.4432 O   0  0  0  0  0  0  0  0  0  0  0  0
   12.4228  -19.5830   28.1775 C   0  0  0  0  0  0  0  0  0  0  0  0
   11.4945  -19.4557   27.0046 C   0  0  0  0  0  0  0  0  0  0  0  0
   12.0425  -18.3877   26.0656 C   0  0  2  0  0  0  0  0  0  0  0  0
   11.1899  -18.4304   24.8550 N   0  0  0  0  0  0  0  0  0  0  0  0
   13.4353  -18.7767   25.7690 C   0  0  0  0  0  0  0  0  0  0  0  0
   14.4076  -18.5714   26.7298 O   0  0  0  0  0  0  0  0  0  0  0  0
   13.7724  -19.2865   24.6792 O   0  0  0  0  0  0  0  0  0  0  0  0
  2  3  1  0
  2  1  1  0
  4  5  1  0
  4  3  1  0
  5  6  1  1
  7  5  1  0
  7  8  2  0
  9  7  1  0
 10  9  1  0
 10 11  1  6
 12 11  1  0
 13 12  1  0
 14 13  2  0
 15 10  1  0
 16 15  2  0
 17 13  1  0
 19 18  1  0
 20 19  2  0
 21 19  1  0
 22 21  1  0
 23 22  1  1
 23 24  1  0
 24 15  1  0
 25 23  1  0
 26 25  1  0
 27 25  2  0
M  END
$$$$
