MEQ.pdb
     RDKit          3D

 27 26  0  0  1  0  0  0  0  0999 V2000
    7.0382  -11.0666   24.9909 C   0  0  0  0  0  0  0  0  0  0  0  0
    5.9765  -11.9271   26.1763 S   0  0  0  0  0  0  0  0  0  0  0  0
    5.6977  -13.5980   25.5804 C   0  0  0  0  0  0  0  0  0  0  0  0
    6.9464  -14.3326   25.2497 C   0  0  0  0  0  0  0  0  0  0  0  0
    6.7612  -15.6789   24.6378 C   0  0  2  0  0  0  0  0  0  0  0  0
    5.9463  -16.4274   25.6536 N   0  0  0  0  0  0  0  0  0  0  0  0
    8.0055  -16.4349   24.4029 C   0  0  0  0  0  0  0  0  0  0  0  0
    8.5391  -17.2129   25.2497 O   0  0  0  0  0  0  0  0  0  0  0  0
    8.7087  -16.3376   23.1748 N   0  0  0  0  0  0  0  0  0  0  0  0
    9.9522  -17.0957   22.9751 C   0  0  1  0  0  0  0  0  0  0  0  0
   10.1707  -16.9811   21.4784 C   0  0  0  0  0  0  0  0  0  0  0  0
   11.3572  -17.6500   20.9198 C   0  0  0  0  0  0  0  0  0  0  0  0
   11.4717  -17.6068   19.4589 C   0  0  0  0  0  0  0  0  0  0  0  0
   10.8731  -18.4384   18.7433 O   0  0  0  0  0  0  0  0  0  0  0  0
   11.0729  -16.4227   23.6611 C   0  0  0  0  0  0  0  0  0  0  0  0
   11.5701  -15.3629   23.2116 O   0  0  0  0  0  0  0  0  0  0  0  0
   12.2446  -16.6451   18.8401 O   0  0  0  0  0  0  0  0  0  0  0  0
   10.4266  -14.4654   29.2040 N   0  0  0  0  0  0  0  0  0  0  0  0
   10.7243  -15.6988   28.5722 C   0  0  0  0  0  0  0  0  0  0  0  0
   10.6814  -16.7634   29.2129 O   0  0  0  0  0  0  0  0  0  0  0  0
   11.0865  -15.7042   27.1421 C   0  0  0  0  0  0  0  0  0  0  0  0
   12.4742  -16.2521   26.9754 C   0  0  0  0  0  0  0  0  0  0  0  0
   12.7918  -16.3246   25.4866 C   0  0  2  0  0  0  0  0  0  0  0  0
   11.6126  -16.9526   24.8466 N   0  0  0  0  0  0  0  0  0  0  0  0
   13.9964  -17.1689   25.3640 C   0  0  0  0  0  0  0  0  0  0  0  0
   13.8851  -18.4137   24.7735 O   0  0  0  0  0  0  0  0  0  0  0  0
   15.1181  -16.8019   25.7745 O   0  0  0  0  0  0  0  0  0  0  0  0
  2  3  1  0
  2  1  1  0
  4  5  1  0
  4  3  1  0
  5  6  1  1
  7  5  1  0
  7  8  2  0
  9  7  1  0
 10  9  1  0
 10 11  1  6
 12 11  1  0
 13 12  1  0
 14 13  2  0
 15 10  1  0
 16 15  2  0
 17 13  1  0
 19 18  1  0
 20 19  2  0
 21 19  1  0
 22 21  1  0
 23 22  1  1
 23 24  1  0
 24 15  1  0
 25 23  1  0
 26 25  1  0
 27 25  2  0
M  END
$$$$
