MEQ.pdb
     RDKit          3D

 27 26  0  0  1  0  0  0  0  0999 V2000
    7.3338  -11.5680   25.3662 C   0  0  0  0  0  0  0  0  0  0  0  0
    6.6281  -13.2079   25.6588 S   0  0  0  0  0  0  0  0  0  0  0  0
    6.8154  -14.1821   24.1619 C   0  0  0  0  0  0  0  0  0  0  0  0
    7.6992  -13.5549   23.1452 C   0  0  0  0  0  0  0  0  0  0  0  0
    8.7715  -14.4303   22.5929 C   0  0  2  0  0  0  0  0  0  0  0  0
    8.1550  -15.0185   21.3559 N   0  0  0  0  0  0  0  0  0  0  0  0
    9.1847  -15.5413   23.4703 C   0  0  0  0  0  0  0  0  0  0  0  0
    9.6604  -15.3918   24.6358 O   0  0  0  0  0  0  0  0  0  0  0  0
    9.0733  -16.8927   23.0539 N   0  0  0  0  0  0  0  0  0  0  0  0
    9.3590  -17.9816   23.9992 C   0  0  1  0  0  0  0  0  0  0  0  0
    9.7696  -19.1162   23.0800 C   0  0  0  0  0  0  0  0  0  0  0  0
   10.2339  -20.3605   23.7151 C   0  0  0  0  0  0  0  0  0  0  0  0
   10.6237  -21.4289   22.7901 C   0  0  0  0  0  0  0  0  0  0  0  0
    9.7613  -22.0869   22.1693 O   0  0  0  0  0  0  0  0  0  0  0  0
   10.5152  -17.6282   24.8463 C   0  0  0  0  0  0  0  0  0  0  0  0
   11.6116  -17.2862   24.3428 O   0  0  0  0  0  0  0  0  0  0  0  0
   11.9543  -21.7327   22.5838 O   0  0  0  0  0  0  0  0  0  0  0  0
   11.1041  -13.7767   28.9841 N   0  0  0  0  0  0  0  0  0  0  0  0
   10.0016  -14.6675   28.9991 C   0  0  0  0  0  0  0  0  0  0  0  0
    8.9370  -14.3457   29.5548 O   0  0  0  0  0  0  0  0  0  0  0  0
   10.1329  -15.9838   28.3462 C   0  0  0  0  0  0  0  0  0  0  0  0
   11.4944  -16.1052   27.7255 C   0  0  0  0  0  0  0  0  0  0  0  0
   11.6190  -17.4873   27.0954 C   0  0  2  0  0  0  0  0  0  0  0  0
   10.4160  -17.6612   26.2487 N   0  0  0  0  0  0  0  0  0  0  0  0
   11.6445  -18.4487   28.2153 C   0  0  0  0  0  0  0  0  0  0  0  0
   12.7413  -18.4691   29.0563 O   0  0  0  0  0  0  0  0  0  0  0  0
   10.7101  -19.2487   28.4348 O   0  0  0  0  0  0  0  0  0  0  0  0
  2  3  1  0
  2  1  1  0
  4  5  1  0
  4  3  1  0
  5  6  1  6
  7  5  1  0
  7  8  2  0
  9  7  1  0
 10  9  1  0
 10 11  1  6
 12 11  1  0
 13 12  1  0
 14 13  2  0
 15 10  1  0
 16 15  2  0
 17 13  1  0
 19 18  1  0
 20 19  2  0
 21 19  1  0
 22 21  1  0
 23 22  1  1
 23 24  1  0
 24 15  1  0
 25 23  1  0
 26 25  1  0
 27 25  2  0
M  END
$$$$
