MEQ.pdb
     RDKit          3D

 27 26  0  0  1  0  0  0  0  0999 V2000
    8.5179  -12.6487   27.0343 C   0  0  0  0  0  0  0  0  0  0  0  0
    7.2453  -12.2725   25.8047 S   0  0  0  0  0  0  0  0  0  0  0  0
    7.1116  -13.6668   24.6809 C   0  0  0  0  0  0  0  0  0  0  0  0
    6.5004  -14.8745   25.2942 C   0  0  0  0  0  0  0  0  0  0  0  0
    6.2735  -16.0230   24.3719 C   0  0  2  0  0  0  0  0  0  0  0  0
    5.5841  -17.0443   25.2309 N   0  0  0  0  0  0  0  0  0  0  0  0
    7.4981  -16.6369   23.8255 C   0  0  0  0  0  0  0  0  0  0  0  0
    7.5379  -17.3277   22.7633 O   0  0  0  0  0  0  0  0  0  0  0  0
    8.7513  -16.4895   24.4736 N   0  0  0  0  0  0  0  0  0  0  0  0
    9.9463  -17.1481   23.9267 C   0  0  1  0  0  0  0  0  0  0  0  0
   10.0863  -16.4968   22.5639 C   0  0  0  0  0  0  0  0  0  0  0  0
   11.2947  -16.8182   21.7870 C   0  0  0  0  0  0  0  0  0  0  0  0
   11.3538  -16.2277   20.4465 C   0  0  0  0  0  0  0  0  0  0  0  0
   12.4451  -15.8819   19.9450 O   0  0  0  0  0  0  0  0  0  0  0  0
   11.1325  -16.7984   24.7329 C   0  0  0  0  0  0  0  0  0  0  0  0
   11.4895  -15.6058   24.8837 O   0  0  0  0  0  0  0  0  0  0  0  0
   10.2035  -16.0402   19.7070 O   0  0  0  0  0  0  0  0  0  0  0  0
    9.9977  -16.6749   29.7526 N   0  0  0  0  0  0  0  0  0  0  0  0
   10.4661  -15.5720   28.9954 C   0  0  0  0  0  0  0  0  0  0  0  0
   10.1268  -14.4131   29.2911 O   0  0  0  0  0  0  0  0  0  0  0  0
   11.3628  -15.8164   27.8498 C   0  0  0  0  0  0  0  0  0  0  0  0
   11.5821  -17.2925   27.6870 C   0  0  0  0  0  0  0  0  0  0  0  0
   12.6381  -17.5104   26.6098 C   0  0  2  0  0  0  0  0  0  0  0  0
   11.8954  -17.7989   25.3610 N   0  0  0  0  0  0  0  0  0  0  0  0
   13.4411  -18.6684   27.0498 C   0  0  0  0  0  0  0  0  0  0  0  0
   14.3747  -18.4937   28.0540 O   0  0  0  0  0  0  0  0  0  0  0  0
   13.3102  -19.8054   26.5486 O   0  0  0  0  0  0  0  0  0  0  0  0
  2  3  1  0
  2  1  1  0
  4  5  1  0
  4  3  1  0
  5  6  1  1
  7  5  1  0
  7  8  2  0
  9  7  1  0
 10  9  1  0
 10 11  1  6
 12 11  1  0
 13 12  1  0
 14 13  2  0
 15 10  1  0
 16 15  2  0
 17 13  1  0
 19 18  1  0
 20 19  2  0
 21 19  1  0
 22 21  1  0
 23 22  1  1
 23 24  1  0
 24 15  1  0
 25 23  1  0
 26 25  1  0
 27 25  2  0
M  END
$$$$
