MEQ.pdb
     RDKit          3D

 27 26  0  0  1  0  0  0  0  0999 V2000
    7.4440  -11.2810   25.7080 C   0  0  0  0  0  0  0  0  0  0  0  0
    5.9969  -12.0564   26.4679 S   0  0  0  0  0  0  0  0  0  0  0  0
    5.6998  -13.6277   25.6507 C   0  0  0  0  0  0  0  0  0  0  0  0
    6.9361  -14.4080   25.3844 C   0  0  0  0  0  0  0  0  0  0  0  0
    6.7481  -15.6780   24.6275 C   0  0  2  0  0  0  0  0  0  0  0  0
    5.8661  -16.5027   25.5210 N   0  0  0  0  0  0  0  0  0  0  0  0
    7.9834  -16.4423   24.3728 C   0  0  0  0  0  0  0  0  0  0  0  0
    8.5883  -17.1337   25.2463 O   0  0  0  0  0  0  0  0  0  0  0  0
    8.5946  -16.4538   23.0927 N   0  0  0  0  0  0  0  0  0  0  0  0
    9.8931  -17.1159   22.9016 C   0  0  1  0  0  0  0  0  0  0  0  0
   10.0617  -17.0807   21.3945 C   0  0  0  0  0  0  0  0  0  0  0  0
   11.3332  -17.5836   20.8491 C   0  0  0  0  0  0  0  0  0  0  0  0
   11.4727  -17.4871   19.3929 C   0  0  0  0  0  0  0  0  0  0  0  0
   10.9863  -16.5228   18.7641 O   0  0  0  0  0  0  0  0  0  0  0  0
   10.9692  -16.3079   23.5085 C   0  0  0  0  0  0  0  0  0  0  0  0
   11.2754  -15.1814   23.0509 O   0  0  0  0  0  0  0  0  0  0  0  0
   12.1456  -18.4608   18.6828 O   0  0  0  0  0  0  0  0  0  0  0  0
   10.9846  -14.1811   28.5402 N   0  0  0  0  0  0  0  0  0  0  0  0
   11.2389  -15.5740   28.6061 C   0  0  0  0  0  0  0  0  0  0  0  0
   11.0241  -16.2064   29.6548 O   0  0  0  0  0  0  0  0  0  0  0  0
   11.7625  -16.2658   27.4130 C   0  0  0  0  0  0  0  0  0  0  0  0
   12.2129  -15.2533   26.4002 C   0  0  0  0  0  0  0  0  0  0  0  0
   12.7948  -15.9922   25.2009 C   0  0  2  0  0  0  0  0  0  0  0  0
   11.6804  -16.7807   24.6258 N   0  0  0  0  0  0  0  0  0  0  0  0
   13.8636  -16.8608   25.7324 C   0  0  0  0  0  0  0  0  0  0  0  0
   13.6415  -18.2226   25.8148 O   0  0  0  0  0  0  0  0  0  0  0  0
   14.9661  -16.4125   26.1126 O   0  0  0  0  0  0  0  0  0  0  0  0
  2  3  1  0
  2  1  1  0
  4  5  1  0
  4  3  1  0
  5  6  1  1
  7  5  1  0
  7  8  2  0
  9  7  1  0
 10  9  1  0
 10 11  1  6
 12 11  1  0
 13 12  1  0
 14 13  2  0
 15 10  1  0
 16 15  2  0
 17 13  1  0
 19 18  1  0
 20 19  2  0
 21 19  1  0
 22 21  1  0
 23 22  1  1
 23 24  1  0
 24 15  1  0
 25 23  1  0
 26 25  1  0
 27 25  2  0
M  END
$$$$
