MEQ.pdb
     RDKit          3D

 27 26  0  0  1  0  0  0  0  0999 V2000
    7.3892  -11.6686   25.3848 C   0  0  0  0  0  0  0  0  0  0  0  0
    6.8381  -12.7308   26.7417 S   0  0  0  0  0  0  0  0  0  0  0  0
    6.6860  -14.4097   26.1229 C   0  0  0  0  0  0  0  0  0  0  0  0
    6.6874  -14.5043   24.6399 C   0  0  0  0  0  0  0  0  0  0  0  0
    6.5781  -15.8813   24.0803 C   0  0  2  0  0  0  0  0  0  0  0  0
    5.6605  -16.5874   25.0372 N   0  0  0  0  0  0  0  0  0  0  0  0
    7.8448  -16.6342   24.0216 C   0  0  0  0  0  0  0  0  0  0  0  0
    8.1745  -17.5423   24.8424 O   0  0  0  0  0  0  0  0  0  0  0  0
    8.8076  -16.3833   23.0105 N   0  0  0  0  0  0  0  0  0  0  0  0
   10.0197  -17.2106   22.9248 C   0  0  1  0  0  0  0  0  0  0  0  0
   10.7366  -16.6206   21.7253 C   0  0  0  0  0  0  0  0  0  0  0  0
   12.0403  -17.2039   21.3684 C   0  0  0  0  0  0  0  0  0  0  0  0
   12.6364  -16.6958   20.1292 C   0  0  0  0  0  0  0  0  0  0  0  0
   13.8700  -16.5181   20.0362 O   0  0  0  0  0  0  0  0  0  0  0  0
   10.8624  -17.0018   24.1187 C   0  0  0  0  0  0  0  0  0  0  0  0
   10.7501  -15.9707   24.8235 O   0  0  0  0  0  0  0  0  0  0  0  0
   11.8473  -16.4018   19.0356 O   0  0  0  0  0  0  0  0  0  0  0  0
    9.0888  -19.5443   28.2377 N   0  0  0  0  0  0  0  0  0  0  0  0
   10.3252  -19.3230   28.8944 C   0  0  0  0  0  0  0  0  0  0  0  0
   10.4363  -19.5241   30.1163 O   0  0  0  0  0  0  0  0  0  0  0  0
   11.4810  -18.8501   28.1092 C   0  0  0  0  0  0  0  0  0  0  0  0
   11.0631  -18.6193   26.6859 C   0  0  0  0  0  0  0  0  0  0  0  0
   12.2554  -18.0674   25.9134 C   0  0  2  0  0  0  0  0  0  0  0  0
   11.8158  -17.9616   24.5027 N   0  0  0  0  0  0  0  0  0  0  0  0
   13.3424  -19.0529   26.0762 C   0  0  0  0  0  0  0  0  0  0  0  0
   14.0584  -19.0718   27.2584 O   0  0  0  0  0  0  0  0  0  0  0  0
   13.6427  -19.8747   25.1841 O   0  0  0  0  0  0  0  0  0  0  0  0
  2  3  1  0
  2  1  1  0
  4  5  1  0
  4  3  1  0
  5  6  1  1
  7  5  1  0
  7  8  2  0
  9  7  1  0
 10  9  1  0
 10 11  1  6
 12 11  1  0
 13 12  1  0
 14 13  2  0
 15 10  1  0
 16 15  2  0
 17 13  1  0
 19 18  1  0
 20 19  2  0
 21 19  1  0
 22 21  1  0
 23 22  1  1
 23 24  1  0
 24 15  1  0
 25 23  1  0
 26 25  1  0
 27 25  2  0
M  END
$$$$
