MEQ.pdb
     RDKit          3D

 27 26  0  0  1  0  0  0  0  0999 V2000
    6.5475  -12.2402   20.9890 C   0  0  0  0  0  0  0  0  0  0  0  0
    7.1290  -12.8924   19.4049 S   0  0  0  0  0  0  0  0  0  0  0  0
    8.7481  -13.6282   19.6536 C   0  0  0  0  0  0  0  0  0  0  0  0
    8.8155  -14.5490   20.8180 C   0  0  0  0  0  0  0  0  0  0  0  0
   10.1730  -15.0617   21.1585 C   0  0  2  0  0  0  0  0  0  0  0  0
   10.6882  -15.6088   19.8579 N   0  0  0  0  0  0  0  0  0  0  0  0
   10.1984  -16.1493   22.1541 C   0  0  0  0  0  0  0  0  0  0  0  0
    9.5310  -16.1466   23.2319 O   0  0  0  0  0  0  0  0  0  0  0  0
   10.9969  -17.3063   21.9645 N   0  0  0  0  0  0  0  0  0  0  0  0
   11.1423  -18.2878   23.0492 C   0  0  1  0  0  0  0  0  0  0  0  0
   12.2863  -19.1543   22.5578 C   0  0  0  0  0  0  0  0  0  0  0  0
   11.9950  -20.0930   21.4619 C   0  0  0  0  0  0  0  0  0  0  0  0
   12.9228  -21.2215   21.3396 C   0  0  0  0  0  0  0  0  0  0  0  0
   13.4710  -21.4863   20.2481 O   0  0  0  0  0  0  0  0  0  0  0  0
   11.5704  -17.6131   24.2904 C   0  0  0  0  0  0  0  0  0  0  0  0
   12.6581  -16.9922   24.3528 O   0  0  0  0  0  0  0  0  0  0  0  0
   13.2120  -22.0181   22.4291 O   0  0  0  0  0  0  0  0  0  0  0  0
    9.9398  -13.0024   29.3639 N   0  0  0  0  0  0  0  0  0  0  0  0
    9.6831  -13.9069   28.3031 C   0  0  0  0  0  0  0  0  0  0  0  0
    8.7695  -13.6839   27.4899 O   0  0  0  0  0  0  0  0  0  0  0  0
   10.5149  -15.1185   28.1753 C   0  0  0  0  0  0  0  0  0  0  0  0
   10.1611  -15.8416   26.9082 C   0  0  0  0  0  0  0  0  0  0  0  0
   11.1839  -16.9480   26.6789 C   0  0  2  0  0  0  0  0  0  0  0  0
   10.7629  -17.6447   25.4413 N   0  0  0  0  0  0  0  0  0  0  0  0
   11.1051  -17.8314   27.8590 C   0  0  0  0  0  0  0  0  0  0  0  0
   10.5129  -19.0735   27.7279 O   0  0  0  0  0  0  0  0  0  0  0  0
   11.5543  -17.5001   28.9769 O   0  0  0  0  0  0  0  0  0  0  0  0
  2  3  1  0
  2  1  1  0
  4  5  1  0
  4  3  1  0
  5  6  1  6
  7  5  1  0
  7  8  2  0
  9  7  1  0
 10  9  1  0
 10 11  1  6
 12 11  1  0
 13 12  1  0
 14 13  2  0
 15 10  1  0
 16 15  2  0
 17 13  1  0
 19 18  1  0
 20 19  2  0
 21 19  1  0
 22 21  1  0
 23 22  1  1
 23 24  1  0
 24 15  1  0
 25 23  1  0
 26 25  1  0
 27 25  2  0
M  END
$$$$
