MEQ.pdb
     RDKit          3D

 27 26  0  0  1  0  0  0  0  0999 V2000
    8.4572  -11.2366   20.5539 C   0  0  0  0  0  0  0  0  0  0  0  0
    6.9889  -11.8633   19.7029 S   0  0  0  0  0  0  0  0  0  0  0  0
    7.1461  -13.6443   19.5359 C   0  0  0  0  0  0  0  0  0  0  0  0
    7.7465  -14.3070   20.7228 C   0  0  0  0  0  0  0  0  0  0  0  0
    7.8897  -15.7877   20.6325 C   0  0  2  0  0  0  0  0  0  0  0  0
    6.4740  -16.2820   20.5445 N   0  0  0  0  0  0  0  0  0  0  0  0
    8.5251  -16.4263   21.8002 C   0  0  0  0  0  0  0  0  0  0  0  0
    7.8895  -16.8955   22.7915 O   0  0  0  0  0  0  0  0  0  0  0  0
    9.9342  -16.5612   21.8930 N   0  0  0  0  0  0  0  0  0  0  0  0
   10.5355  -17.2369   23.0518 C   0  0  1  0  0  0  0  0  0  0  0  0
   12.0052  -17.2837   22.6793 C   0  0  0  0  0  0  0  0  0  0  0  0
   12.9201  -17.9283   23.6356 C   0  0  0  0  0  0  0  0  0  0  0  0
   14.3336  -17.9309   23.2468 C   0  0  0  0  0  0  0  0  0  0  0  0
   15.2193  -18.2968   24.0491 O   0  0  0  0  0  0  0  0  0  0  0  0
   10.3887  -16.4008   24.2596 C   0  0  0  0  0  0  0  0  0  0  0  0
   10.7883  -15.2124   24.2820 O   0  0  0  0  0  0  0  0  0  0  0  0
   14.7185  -17.5287   21.9837 O   0  0  0  0  0  0  0  0  0  0  0  0
    6.1068  -13.9792   26.6500 N   0  0  0  0  0  0  0  0  0  0  0  0
    7.2958  -13.2360   26.4427 C   0  0  0  0  0  0  0  0  0  0  0  0
    7.2467  -12.0122   26.2294 O   0  0  0  0  0  0  0  0  0  0  0  0
    8.5951  -13.9335   26.4832 C   0  0  0  0  0  0  0  0  0  0  0  0
    8.3703  -15.4095   26.6401 C   0  0  0  0  0  0  0  0  0  0  0  0
    9.7251  -16.1072   26.6617 C   0  0  2  0  0  0  0  0  0  0  0  0
    9.7888  -16.9162   25.4224 N   0  0  0  0  0  0  0  0  0  0  0  0
    9.7317  -16.9548   27.8703 C   0  0  0  0  0  0  0  0  0  0  0  0
    9.9995  -16.3731   29.0953 O   0  0  0  0  0  0  0  0  0  0  0  0
    9.5039  -18.1827   27.8304 O   0  0  0  0  0  0  0  0  0  0  0  0
  2  3  1  0
  2  1  1  0
  4  5  1  0
  4  3  1  0
  5  6  1  1
  7  5  1  0
  7  8  2  0
  9  7  1  0
 10  9  1  0
 10 11  1  6
 12 11  1  0
 13 12  1  0
 14 13  2  0
 15 10  1  0
 16 15  2  0
 17 13  1  0
 19 18  1  0
 20 19  2  0
 21 19  1  0
 22 21  1  0
 23 22  1  6
 23 24  1  0
 24 15  1  0
 25 23  1  0
 26 25  1  0
 27 25  2  0
M  END
$$$$
