MEQ.pdb
     RDKit          3D

 27 26  0  0  1  0  0  0  0  0999 V2000
    6.8913  -11.2402   24.8760 C   0  0  0  0  0  0  0  0  0  0  0  0
    6.3926  -12.2257   26.3088 S   0  0  0  0  0  0  0  0  0  0  0  0
    6.5573  -13.9636   25.8878 C   0  0  0  0  0  0  0  0  0  0  0  0
    5.9621  -14.3211   24.5740 C   0  0  0  0  0  0  0  0  0  0  0  0
    6.0487  -15.7601   24.1955 C   0  0  2  0  0  0  0  0  0  0  0  0
    5.3382  -16.4699   25.3125 N   0  0  0  0  0  0  0  0  0  0  0  0
    7.4176  -16.3016   24.1073 C   0  0  0  0  0  0  0  0  0  0  0  0
    8.0410  -16.8286   25.0772 O   0  0  0  0  0  0  0  0  0  0  0  0
    8.1492  -16.2670   22.8925 N   0  0  0  0  0  0  0  0  0  0  0  0
    9.4815  -16.8834   22.8162 C   0  0  1  0  0  0  0  0  0  0  0  0
    9.8734  -16.6424   21.3708 C   0  0  0  0  0  0  0  0  0  0  0  0
   11.2040  -17.1099   20.9489 C   0  0  0  0  0  0  0  0  0  0  0  0
   11.5292  -16.8850   19.5372 C   0  0  0  0  0  0  0  0  0  0  0  0
   11.3214  -15.7760   18.9995 O   0  0  0  0  0  0  0  0  0  0  0  0
   10.4288  -16.1541   23.6823 C   0  0  0  0  0  0  0  0  0  0  0  0
   10.4733  -14.9009   23.6890 O   0  0  0  0  0  0  0  0  0  0  0  0
   12.0729  -17.8947   18.7690 O   0  0  0  0  0  0  0  0  0  0  0  0
   10.5342  -17.2790   29.3390 N   0  0  0  0  0  0  0  0  0  0  0  0
   11.6041  -16.3493   29.3299 C   0  0  0  0  0  0  0  0  0  0  0  0
   12.0274  -15.8630   30.3930 O   0  0  0  0  0  0  0  0  0  0  0  0
   12.2106  -15.9649   28.0414 C   0  0  0  0  0  0  0  0  0  0  0  0
   11.4569  -16.6124   26.9161 C   0  0  0  0  0  0  0  0  0  0  0  0
   12.0516  -16.1363   25.5961 C   0  0  2  0  0  0  0  0  0  0  0  0
   11.3083  -16.8491   24.5314 N   0  0  0  0  0  0  0  0  0  0  0  0
   13.4758  -16.5236   25.6236 C   0  0  0  0  0  0  0  0  0  0  0  0
   13.8929  -17.5980   24.8606 O   0  0  0  0  0  0  0  0  0  0  0  0
   14.3235  -15.9164   26.3121 O   0  0  0  0  0  0  0  0  0  0  0  0
  2  3  1  0
  2  1  1  0
  4  5  1  0
  4  3  1  0
  5  6  1  1
  7  5  1  0
  7  8  2  0
  9  7  1  0
 10  9  1  0
 10 11  1  6
 12 11  1  0
 13 12  1  0
 14 13  2  0
 15 10  1  0
 16 15  2  0
 17 13  1  0
 19 18  1  0
 20 19  2  0
 21 19  1  0
 22 21  1  0
 23 22  1  1
 23 24  1  0
 24 15  1  0
 25 23  1  0
 26 25  1  0
 27 25  2  0
M  END
$$$$
