TSP.pdb
     RDKit          3D

 21 21  0  0  1  0  0  0  0  0999 V2000
   26.7986  -10.7277  -15.1904 C   0  0  0  0  0  0  0  0  0  0  0  0
   26.7504  -11.0934  -16.6586 C   0  0  1  0  0  0  0  0  0  0  0  0
   27.7241  -12.0662  -16.8773 O   0  0  0  0  0  0  0  0  0  0  0  0
   25.4064  -11.7090  -16.9605 C   0  0  2  0  0  0  0  0  0  0  0  0
   25.5060  -12.3209  -18.2733 N   0  0  0  0  0  0  0  0  0  0  0  0
   24.2973  -10.7594  -16.8789 C   0  0  0  0  0  0  0  0  0  0  0  0
   24.1020   -9.9860  -17.8650 O   0  0  0  0  0  0  0  0  0  0  0  0
   21.0485  -11.7157  -14.9662 O   0  0  0  0  0  0  0  0  0  0  0  0
   21.4927  -10.4875  -14.5073 C   0  0  0  0  0  0  0  0  0  0  0  0
   22.3369   -9.8490  -15.5877 C   0  0  2  0  0  0  0  0  0  0  0  0
   23.4836  -10.7283  -15.7205 N   0  0  0  0  0  0  0  0  0  0  0  0
   22.7499   -8.4706  -15.3381 C   0  0  0  0  0  0  0  0  0  0  0  0
   23.8941   -8.3601  -14.7576 O   0  0  0  0  0  0  0  0  0  0  0  0
   22.0813   -7.2806  -15.6418 N   0  0  0  0  0  0  0  0  0  0  0  0
   20.7612   -6.9844  -16.1616 C   0  0  0  0  0  0  0  0  0  0  0  0
   20.9245   -5.6937  -16.9776 C   0  0  0  0  0  0  0  0  0  0  0  0
   22.3828   -5.3212  -16.8144 C   0  0  0  0  0  0  0  0  0  0  0  0
   22.6567   -5.9401  -15.4622 C   0  0  1  0  0  0  0  0  0  0  0  0
   22.0211   -5.2172  -14.3616 C   0  0  0  0  0  0  0  0  0  0  0  0
   20.9742   -5.5990  -13.7886 O   0  0  0  0  0  0  0  0  0  0  0  0
   22.6144   -4.0397  -13.9287 O   0  0  0  0  0  0  0  0  0  0  0  0
  2  4  1  0
  2  1  1  1
  3  2  1  0
  4  5  1  6
  6  4  1  0
  6 11  1  0
  7  6  2  0
  9  8  1  0
 10 12  1  0
 10 11  1  0
 10  9  1  1
 12 14  1  0
 13 12  2  0
 14 15  1  0
 14 18  1  0
 15 16  1  0
 17 16  1  0
 17 18  1  0
 18 19  1  1
 19 20  2  0
 19 21  1  0
M  END
$$$$
