TSP.pdb
     RDKit          3D

 21 21  0  0  1  0  0  0  0  0999 V2000
   15.5869  -11.0691  -17.3936 C   0  0  0  0  0  0  0  0  0  0  0  0
   16.6408  -10.2631  -16.6645 C   0  0  1  0  0  0  0  0  0  0  0  0
   16.0103   -9.6174  -15.6026 O   0  0  0  0  0  0  0  0  0  0  0  0
   17.6626  -11.2115  -16.0874 C   0  0  2  0  0  0  0  0  0  0  0  0
   16.9371  -12.1754  -15.2796 N   0  0  0  0  0  0  0  0  0  0  0  0
   18.7184  -10.5418  -15.3288 C   0  0  0  0  0  0  0  0  0  0  0  0
   18.5098  -10.3043  -14.1006 O   0  0  0  0  0  0  0  0  0  0  0  0
   22.2933   -9.9868  -17.1983 O   0  0  0  0  0  0  0  0  0  0  0  0
   22.2646  -10.1366  -15.8224 C   0  0  0  0  0  0  0  0  0  0  0  0
   21.0042   -9.4870  -15.2959 C   0  0  2  0  0  0  0  0  0  0  0  0
   19.9261  -10.1819  -15.9744 N   0  0  0  0  0  0  0  0  0  0  0  0
   20.9085   -8.0421  -15.4863 C   0  0  0  0  0  0  0  0  0  0  0  0
   20.1093   -7.6869  -16.4316 O   0  0  0  0  0  0  0  0  0  0  0  0
   21.5552   -7.0159  -14.7907 N   0  0  0  0  0  0  0  0  0  0  0  0
   22.4902   -6.9983  -13.6833 C   0  0  0  0  0  0  0  0  0  0  0  0
   22.1963   -5.6972  -12.9222 C   0  0  0  0  0  0  0  0  0  0  0  0
   21.0949   -5.0299  -13.7185 C   0  0  0  0  0  0  0  0  0  0  0  0
   21.3974   -5.5859  -15.0918 C   0  0  1  0  0  0  0  0  0  0  0  0
   22.6060   -5.0176  -15.6869 C   0  0  0  0  0  0  0  0  0  0  0  0
   23.7209   -5.5897  -15.6831 O   0  0  0  0  0  0  0  0  0  0  0  0
   22.5095   -3.7717  -16.2904 O   0  0  0  0  0  0  0  0  0  0  0  0
  2  4  1  0
  2  1  1  1
  3  2  1  0
  4  5  1  1
  6  4  1  0
  6 11  1  0
  7  6  2  0
  9  8  1  0
 10 12  1  0
 10 11  1  0
 10  9  1  6
 12 14  1  0
 13 12  2  0
 14 15  1  0
 14 18  1  0
 15 16  1  0
 17 16  1  0
 17 18  1  0
 18 19  1  1
 19 20  2  0
 19 21  1  0
M  END
$$$$
