TSP.pdb
     RDKit          3D

 21 21  0  0  1  0  0  0  0  0999 V2000
   15.3834   -9.0734  -14.5481 C   0  0  0  0  0  0  0  0  0  0  0  0
   15.3769  -10.5873  -14.5496 C   0  0  1  0  0  0  0  0  0  0  0  0
   14.0543  -10.9977  -14.7063 O   0  0  0  0  0  0  0  0  0  0  0  0
   16.1564  -11.0738  -15.7463 C   0  0  2  0  0  0  0  0  0  0  0  0
   16.0440  -12.5212  -15.7652 N   0  0  0  0  0  0  0  0  0  0  0  0
   17.5498  -10.6300  -15.7556 C   0  0  0  0  0  0  0  0  0  0  0  0
   18.3737  -11.2396  -15.0084 O   0  0  0  0  0  0  0  0  0  0  0  0
   20.6315   -7.9591  -18.2996 O   0  0  0  0  0  0  0  0  0  0  0  0
   19.3236   -8.3071  -18.0084 C   0  0  0  0  0  0  0  0  0  0  0  0
   19.3182   -9.1336  -16.7418 C   0  0  2  0  0  0  0  0  0  0  0  0
   17.9369   -9.5495  -16.5848 N   0  0  0  0  0  0  0  0  0  0  0  0
   19.8102   -8.4600  -15.5430 C   0  0  0  0  0  0  0  0  0  0  0  0
   18.8943   -7.8693  -14.8569 O   0  0  0  0  0  0  0  0  0  0  0  0
   21.1168   -8.3756  -15.0519 N   0  0  0  0  0  0  0  0  0  0  0  0
   22.3960   -8.8547  -15.5365 C   0  0  0  0  0  0  0  0  0  0  0  0
   23.2236   -9.1518  -14.2775 C   0  0  0  0  0  0  0  0  0  0  0  0
   22.3209   -8.7610  -13.1266 C   0  0  0  0  0  0  0  0  0  0  0  0
   21.4882   -7.6953  -13.8031 C   0  0  1  0  0  0  0  0  0  0  0  0
   22.2310   -6.4614  -14.0548 C   0  0  0  0  0  0  0  0  0  0  0  0
   22.6352   -5.6936  -13.1507 O   0  0  0  0  0  0  0  0  0  0  0  0
   22.5027   -6.1235  -15.3731 O   0  0  0  0  0  0  0  0  0  0  0  0
  2  4  1  0
  2  1  1  6
  3  2  1  0
  4  5  1  1
  6  4  1  0
  6 11  1  0
  7  6  2  0
  9  8  1  0
 10 12  1  0
 10 11  1  0
 10  9  1  6
 12 14  1  0
 13 12  2  0
 14 15  1  0
 14 18  1  0
 15 16  1  0
 17 16  1  0
 17 18  1  0
 18 19  1  6
 19 20  2  0
 19 21  1  0
M  END
$$$$
