TSP.pdb
     RDKit          3D

 21 21  0  0  1  0  0  0  0  0999 V2000
   21.5273  -21.7679  -15.3245 C   0  0  0  0  0  0  0  0  0  0  0  0
   20.6167  -21.2957  -14.2111 C   0  0  1  0  0  0  0  0  0  0  0  0
   19.5197  -22.1546  -14.1781 O   0  0  0  0  0  0  0  0  0  0  0  0
   21.3477  -21.4294  -12.8980 C   0  0  2  0  0  0  0  0  0  0  0  0
   20.3923  -21.1240  -11.8483 N   0  0  0  0  0  0  0  0  0  0  0  0
   22.5469  -20.5971  -12.8096 C   0  0  0  0  0  0  0  0  0  0  0  0
   22.4022  -19.3379  -12.8545 O   0  0  0  0  0  0  0  0  0  0  0  0
   26.1270  -22.5588  -12.6941 O   0  0  0  0  0  0  0  0  0  0  0  0
   26.0703  -21.3375  -12.0448 C   0  0  0  0  0  0  0  0  0  0  0  0
   25.0605  -20.4636  -12.7550 C   0  0  2  0  0  0  0  0  0  0  0  0
   23.8174  -21.2082  -12.6782 N   0  0  0  0  0  0  0  0  0  0  0  0
   25.3854  -20.1120  -14.1347 C   0  0  0  0  0  0  0  0  0  0  0  0
   24.7500  -20.8011  -15.0179 O   0  0  0  0  0  0  0  0  0  0  0  0
   26.2753  -19.1450  -14.6125 N   0  0  0  0  0  0  0  0  0  0  0  0
   27.3108  -18.3478  -13.9857 C   0  0  0  0  0  0  0  0  0  0  0  0
   27.3366  -17.0258  -14.7669 C   0  0  0  0  0  0  0  0  0  0  0  0
   26.2937  -17.2025  -15.8501 C   0  0  0  0  0  0  0  0  0  0  0  0
   26.3441  -18.7050  -16.0132 C   0  0  1  0  0  0  0  0  0  0  0  0
   27.5644  -19.1695  -16.6711 C   0  0  0  0  0  0  0  0  0  0  0  0
   27.8506  -18.9218  -17.8657 O   0  0  0  0  0  0  0  0  0  0  0  0
   28.4558  -19.9288  -15.9263 O   0  0  0  0  0  0  0  0  0  0  0  0
  2  4  1  0
  2  1  1  6
  3  2  1  0
  4  5  1  1
  6  4  1  0
  6 11  1  0
  7  6  2  0
  9  8  1  0
 10 12  1  0
 10 11  1  0
 10  9  1  6
 12 14  1  0
 13 12  2  0
 14 15  1  0
 14 18  1  0
 15 16  1  0
 17 16  1  0
 17 18  1  0
 18 19  1  1
 19 20  2  0
 19 21  1  0
M  END
$$$$
