TSP.pdb
     RDKit          3D

 21 21  0  0  1  0  0  0  0  0999 V2000
   22.5279  -22.6689  -17.2775 C   0  0  0  0  0  0  0  0  0  0  0  0
   22.9307  -22.2404  -18.6724 C   0  0  1  0  0  0  0  0  0  0  0  0
   21.8265  -22.4301  -19.5012 O   0  0  0  0  0  0  0  0  0  0  0  0
   23.2462  -20.7650  -18.6537 C   0  0  2  0  0  0  0  0  0  0  0  0
   23.5775  -20.3853  -20.0153 N   0  0  0  0  0  0  0  0  0  0  0  0
   24.3037  -20.4057  -17.7096 C   0  0  0  0  0  0  0  0  0  0  0  0
   25.4766  -20.8296  -17.9400 O   0  0  0  0  0  0  0  0  0  0  0  0
   23.8247  -17.7843  -14.1498 O   0  0  0  0  0  0  0  0  0  0  0  0
   24.6836  -17.8161  -15.2351 C   0  0  0  0  0  0  0  0  0  0  0  0
   24.9781  -19.2612  -15.5709 C   0  0  2  0  0  0  0  0  0  0  0  0
   23.9960  -19.6071  -16.5816 N   0  0  0  0  0  0  0  0  0  0  0  0
   24.9369  -20.1942  -14.4481 C   0  0  0  0  0  0  0  0  0  0  0  0
   23.9368  -21.0051  -14.4731 O   0  0  0  0  0  0  0  0  0  0  0  0
   25.8227  -20.3211  -13.3736 N   0  0  0  0  0  0  0  0  0  0  0  0
   26.9460  -19.5312  -12.9099 C   0  0  0  0  0  0  0  0  0  0  0  0
   27.9137  -20.5361  -12.2680 C   0  0  0  0  0  0  0  0  0  0  0  0
   27.2114  -21.8720  -12.3878 C   0  0  0  0  0  0  0  0  0  0  0  0
   25.7724  -21.4072  -12.3846 C   0  0  1  0  0  0  0  0  0  0  0  0
   25.3263  -20.9323  -11.0757 C   0  0  0  0  0  0  0  0  0  0  0  0
   25.1388  -21.6811  -10.0886 O   0  0  0  0  0  0  0  0  0  0  0  0
   25.0982  -19.5722  -10.9208 O   0  0  0  0  0  0  0  0  0  0  0  0
  2  4  1  0
  2  1  1  1
  3  2  1  0
  4  5  1  6
  6  4  1  0
  6 11  1  0
  7  6  2  0
  9  8  1  0
 10 12  1  0
 10 11  1  0
 10  9  1  1
 12 14  1  0
 13 12  2  0
 14 15  1  0
 14 18  1  0
 15 16  1  0
 17 16  1  0
 17 18  1  0
 18 19  1  1
 19 20  2  0
 19 21  1  0
M  END
$$$$
