TSP.pdb
     RDKit          3D

 21 21  0  0  1  0  0  0  0  0999 V2000
   21.4814  -12.6628  -21.2368 C   0  0  0  0  0  0  0  0  0  0  0  0
   20.6452  -11.8693  -20.2554 C   0  0  1  0  0  0  0  0  0  0  0  0
   20.1721  -12.7616  -19.2951 O   0  0  0  0  0  0  0  0  0  0  0  0
   21.5349  -10.8696  -19.5586 C   0  0  2  0  0  0  0  0  0  0  0  0
   22.5822  -11.6249  -18.8949 N   0  0  0  0  0  0  0  0  0  0  0  0
   20.8169   -9.9942  -18.6329 C   0  0  0  0  0  0  0  0  0  0  0  0
   19.8942   -9.2611  -19.1015 O   0  0  0  0  0  0  0  0  0  0  0  0
   21.5911  -10.3786  -14.5970 O   0  0  0  0  0  0  0  0  0  0  0  0
   20.3288  -10.0662  -15.0720 C   0  0  0  0  0  0  0  0  0  0  0  0
   20.4798   -9.1672  -16.2789 C   0  0  2  0  0  0  0  0  0  0  0  0
   21.1646   -9.9880  -17.2603 N   0  0  0  0  0  0  0  0  0  0  0  0
   21.1881   -7.9109  -16.0491 C   0  0  0  0  0  0  0  0  0  0  0  0
   22.4207   -7.9249  -16.4220 O   0  0  0  0  0  0  0  0  0  0  0  0
   20.7135   -6.7198  -15.4911 N   0  0  0  0  0  0  0  0  0  0  0  0
   19.4439   -6.3275  -14.9123 C   0  0  0  0  0  0  0  0  0  0  0  0
   19.2963   -4.8320  -15.2289 C   0  0  0  0  0  0  0  0  0  0  0  0
   20.5714   -4.4693  -15.9602 C   0  0  0  0  0  0  0  0  0  0  0  0
   21.5110   -5.4920  -15.3619 C   0  0  1  0  0  0  0  0  0  0  0  0
   21.8545   -5.2091  -13.9692 C   0  0  0  0  0  0  0  0  0  0  0  0
   21.4276   -5.8739  -12.9965 O   0  0  0  0  0  0  0  0  0  0  0  0
   22.7030   -4.1414  -13.7128 O   0  0  0  0  0  0  0  0  0  0  0  0
  2  4  1  0
  2  1  1  6
  3  2  1  0
  4  5  1  1
  6  4  1  0
  6 11  1  0
  7  6  2  0
  9  8  1  0
 10 12  1  0
 10 11  1  0
 10  9  1  1
 12 14  1  0
 13 12  2  0
 14 15  1  0
 14 18  1  0
 15 16  1  0
 17 16  1  0
 17 18  1  0
 18 19  1  1
 19 20  2  0
 19 21  1  0
M  END
$$$$
