TSP.pdb
     RDKit          3D

 21 21  0  0  1  0  0  0  0  0999 V2000
   15.1631  -27.2542   -2.7079 C   0  0  0  0  0  0  0  0  0  0  0  0
   16.2108  -26.6437   -3.6140 C   0  0  1  0  0  0  0  0  0  0  0  0
   16.3399  -27.4784   -4.7225 O   0  0  0  0  0  0  0  0  0  0  0  0
   15.7110  -25.3053   -4.0994 C   0  0  2  0  0  0  0  0  0  0  0  0
   16.5720  -24.9044   -5.1974 N   0  0  0  0  0  0  0  0  0  0  0  0
   15.6490  -24.2892   -3.0495 C   0  0  0  0  0  0  0  0  0  0  0  0
   16.7334  -23.9462   -2.4883 O   0  0  0  0  0  0  0  0  0  0  0  0
   12.6531  -21.2066   -0.8636 O   0  0  0  0  0  0  0  0  0  0  0  0
   12.8509  -22.2129   -1.7935 C   0  0  0  0  0  0  0  0  0  0  0  0
   14.2533  -22.7533   -1.6239 C   0  0  2  0  0  0  0  0  0  0  0  0
   14.4009  -23.7238   -2.6926 N   0  0  0  0  0  0  0  0  0  0  0  0
   14.5516  -23.3457   -0.3227 C   0  0  0  0  0  0  0  0  0  0  0  0
   14.4202  -24.6262   -0.2841 O   0  0  0  0  0  0  0  0  0  0  0  0
   14.9541  -22.7188    0.8606 N   0  0  0  0  0  0  0  0  0  0  0  0
   15.2190  -21.3390    1.2167 C   0  0  0  0  0  0  0  0  0  0  0  0
   16.3156  -21.3983    2.2901 C   0  0  0  0  0  0  0  0  0  0  0  0
   16.5682  -22.8768    2.4962 C   0  0  0  0  0  0  0  0  0  0  0  0
   15.2084  -23.4243    2.1247 C   0  0  1  0  0  0  0  0  0  0  0  0
   14.1818  -23.1368    3.1253 C   0  0  0  0  0  0  0  0  0  0  0  0
   13.3112  -22.2450    2.9954 O   0  0  0  0  0  0  0  0  0  0  0  0
   14.1738  -23.8979    4.2857 O   0  0  0  0  0  0  0  0  0  0  0  0
  2  4  1  0
  2  1  1  1
  3  2  1  0
  4  5  1  6
  6  4  1  0
  6 11  1  0
  7  6  2  0
  9  8  1  0
 10 12  1  0
 10 11  1  0
 10  9  1  1
 12 14  1  0
 13 12  2  0
 14 15  1  0
 14 18  1  0
 15 16  1  0
 17 16  1  0
 17 18  1  0
 18 19  1  1
 19 20  2  0
 19 21  1  0
M  END
$$$$
