TSP.pdb
     RDKit          3D

 21 21  0  0  1  0  0  0  0  0999 V2000
   19.5146   -7.6457  -20.9360 C   0  0  0  0  0  0  0  0  0  0  0  0
   18.9143   -9.0237  -20.7556 C   0  0  1  0  0  0  0  0  0  0  0  0
   19.5780   -9.8842  -21.6282 O   0  0  0  0  0  0  0  0  0  0  0  0
   19.1892   -9.4913  -19.3477 C   0  0  2  0  0  0  0  0  0  0  0  0
   18.8409  -10.8997  -19.2934 N   0  0  0  0  0  0  0  0  0  0  0  0
   18.4905   -8.7119  -18.3264 C   0  0  0  0  0  0  0  0  0  0  0  0
   17.2589   -8.4666  -18.5039 O   0  0  0  0  0  0  0  0  0  0  0  0
   18.9553   -8.6844  -14.1889 O   0  0  0  0  0  0  0  0  0  0  0  0
   19.4645   -7.6393  -14.9405 C   0  0  0  0  0  0  0  0  0  0  0  0
   18.5806   -7.4453  -16.1524 C   0  0  2  0  0  0  0  0  0  0  0  0
   19.1951   -8.2590  -17.1848 N   0  0  0  0  0  0  0  0  0  0  0  0
   18.4071   -6.0648  -16.5963 C   0  0  0  0  0  0  0  0  0  0  0  0
   19.2702   -5.6802  -17.4713 O   0  0  0  0  0  0  0  0  0  0  0  0
   17.4466   -5.1266  -16.2057 N   0  0  0  0  0  0  0  0  0  0  0  0
   16.3464   -5.1608  -15.2628 C   0  0  0  0  0  0  0  0  0  0  0  0
   15.2783   -4.2256  -15.8485 C   0  0  0  0  0  0  0  0  0  0  0  0
   15.9031   -3.6786  -17.1146 C   0  0  0  0  0  0  0  0  0  0  0  0
   17.3647   -3.7579  -16.7352 C   0  0  1  0  0  0  0  0  0  0  0  0
   17.7525   -2.7631  -15.7365 C   0  0  0  0  0  0  0  0  0  0  0  0
   17.9849   -3.0341  -14.5353 O   0  0  0  0  0  0  0  0  0  0  0  0
   17.8692   -1.4422  -16.1458 O   0  0  0  0  0  0  0  0  0  0  0  0
  2  4  1  0
  2  1  1  1
  3  2  1  0
  4  5  1  6
  6  4  1  0
  6 11  1  0
  7  6  2  0
  9  8  1  0
 10 12  1  0
 10 11  1  0
 10  9  1  1
 12 14  1  0
 13 12  2  0
 14 15  1  0
 14 18  1  0
 15 16  1  0
 17 16  1  0
 17 18  1  0
 18 19  1  1
 19 20  2  0
 19 21  1  0
M  END
$$$$
