TSP.pdb
     RDKit          3D

 21 21  0  0  1  0  0  0  0  0999 V2000
   22.1651  -12.4028    7.7072 C   0  0  0  0  0  0  0  0  0  0  0  0
   21.7198  -11.1797    8.4802 C   0  0  1  0  0  0  0  0  0  0  0  0
   22.8137  -10.3206    8.5663 O   0  0  0  0  0  0  0  0  0  0  0  0
   20.6408  -10.4763    7.6943 C   0  0  2  0  0  0  0  0  0  0  0  0
   20.2814   -9.2844    8.4413 N   0  0  0  0  0  0  0  0  0  0  0  0
   19.4798  -11.3196    7.4120 C   0  0  0  0  0  0  0  0  0  0  0  0
   18.6805  -11.5703    8.3643 O   0  0  0  0  0  0  0  0  0  0  0  0
   17.1057  -13.5328    3.8507 O   0  0  0  0  0  0  0  0  0  0  0  0
   18.1865  -12.7707    4.2602 C   0  0  0  0  0  0  0  0  0  0  0  0
   18.2123  -12.7491    5.7723 C   0  0  2  0  0  0  0  0  0  0  0  0
   19.2813  -11.8258    6.1047 N   0  0  0  0  0  0  0  0  0  0  0  0
   18.4060  -14.0428    6.4217 C   0  0  0  0  0  0  0  0  0  0  0  0
   19.6390  -14.3431    6.6410 O   0  0  0  0  0  0  0  0  0  0  0  0
   17.4490  -14.9773    6.8294 N   0  0  0  0  0  0  0  0  0  0  0  0
   16.0044  -15.0337    6.7259 C   0  0  0  0  0  0  0  0  0  0  0  0
   15.5364  -15.8038    7.9695 C   0  0  0  0  0  0  0  0  0  0  0  0
   16.8143  -16.1753    8.6915 C   0  0  0  0  0  0  0  0  0  0  0  0
   17.7646  -16.2375    7.5169 C   0  0  1  0  0  0  0  0  0  0  0  0
   17.5385  -17.3986    6.6575 C   0  0  0  0  0  0  0  0  0  0  0  0
   17.8326  -18.5732    6.9802 O   0  0  0  0  0  0  0  0  0  0  0  0
   16.9645  -17.1840    5.4124 O   0  0  0  0  0  0  0  0  0  0  0  0
  2  4  1  0
  2  1  1  6
  3  2  1  0
  4  5  1  1
  6  4  1  0
  6 11  1  0
  7  6  2  0
  9  8  1  0
 10 12  1  0
 10 11  1  0
 10  9  1  6
 12 14  1  0
 13 12  2  0
 14 15  1  0
 14 18  1  0
 15 16  1  0
 17 16  1  0
 17 18  1  0
 18 19  1  6
 19 20  2  0
 19 21  1  0
M  END
$$$$
