TSP.pdb
     RDKit          3D

 21 21  0  0  1  0  0  0  0  0999 V2000
   16.6857   -8.8678  -16.9971 C   0  0  0  0  0  0  0  0  0  0  0  0
   16.4416  -10.3469  -16.7860 C   0  0  1  0  0  0  0  0  0  0  0  0
   15.7014  -10.8060  -17.8739 O   0  0  0  0  0  0  0  0  0  0  0  0
   17.7695  -11.0631  -16.7955 C   0  0  2  0  0  0  0  0  0  0  0  0
   17.4841  -12.4853  -16.7335 N   0  0  0  0  0  0  0  0  0  0  0  0
   18.6713  -10.6359  -15.7265 C   0  0  0  0  0  0  0  0  0  0  0  0
   18.2867  -10.7868  -14.5274 O   0  0  0  0  0  0  0  0  0  0  0  0
   22.4020   -9.4978  -16.8111 O   0  0  0  0  0  0  0  0  0  0  0  0
   22.2127   -9.9856  -15.5294 C   0  0  0  0  0  0  0  0  0  0  0  0
   20.8435   -9.5569  -15.0508 C   0  0  2  0  0  0  0  0  0  0  0  0
   19.9296  -10.0743  -16.0523 N   0  0  0  0  0  0  0  0  0  0  0  0
   20.6608   -8.1211  -14.8555 C   0  0  0  0  0  0  0  0  0  0  0  0
   20.1509   -7.5120  -15.8691 O   0  0  0  0  0  0  0  0  0  0  0  0
   20.9589   -7.3381  -13.7360 N   0  0  0  0  0  0  0  0  0  0  0  0
   21.5680   -7.6259  -12.4527 C   0  0  0  0  0  0  0  0  0  0  0  0
   20.9110   -6.6533  -11.4623 C   0  0  0  0  0  0  0  0  0  0  0  0
   19.9678   -5.8256  -12.3093 C   0  0  0  0  0  0  0  0  0  0  0  0
   20.6856   -5.8973  -13.6383 C   0  0  1  0  0  0  0  0  0  0  0  0
   21.9147   -5.1060  -13.6695 C   0  0  0  0  0  0  0  0  0  0  0  0
   21.9378   -3.8532  -13.6833 O   0  0  0  0  0  0  0  0  0  0  0  0
   23.1248   -5.7851  -13.6846 O   0  0  0  0  0  0  0  0  0  0  0  0
  2  4  1  0
  2  1  1  6
  3  2  1  0
  4  5  1  1
  6  4  1  0
  6 11  1  0
  7  6  2  0
  9  8  1  0
 10 12  1  0
 10 11  1  0
 10  9  1  6
 12 14  1  0
 13 12  2  0
 14 15  1  0
 14 18  1  0
 15 16  1  0
 17 16  1  0
 17 18  1  0
 18 19  1  1
 19 20  2  0
 19 21  1  0
M  END
$$$$
