TSP.pdb
     RDKit          3D

 21 21  0  0  1  0  0  0  0  0999 V2000
   17.5837  -19.2975  -14.4819 C   0  0  0  0  0  0  0  0  0  0  0  0
   18.8799  -18.5250  -14.3606 C   0  0  1  0  0  0  0  0  0  0  0  0
   18.8466  -17.8442  -13.1451 O   0  0  0  0  0  0  0  0  0  0  0  0
   20.0253  -19.5059  -14.3095 C   0  0  2  0  0  0  0  0  0  0  0  0
   19.8766  -20.2672  -13.0823 N   0  0  0  0  0  0  0  0  0  0  0  0
   21.3404  -18.8740  -14.4091 C   0  0  0  0  0  0  0  0  0  0  0  0
   21.9529  -18.6014  -13.3325 O   0  0  0  0  0  0  0  0  0  0  0  0
   23.1007  -18.3382  -18.1723 O   0  0  0  0  0  0  0  0  0  0  0  0
   23.8119  -18.6269  -17.0202 C   0  0  0  0  0  0  0  0  0  0  0  0
   23.1574  -17.9095  -15.8606 C   0  0  2  0  0  0  0  0  0  0  0  0
   21.8870  -18.5878  -15.6835 N   0  0  0  0  0  0  0  0  0  0  0  0
   22.9730  -16.4704  -16.0280 C   0  0  0  0  0  0  0  0  0  0  0  0
   21.7549  -16.1177  -16.2524 O   0  0  0  0  0  0  0  0  0  0  0  0
   23.9246  -15.4471  -15.9759 N   0  0  0  0  0  0  0  0  0  0  0  0
   25.3729  -15.4355  -15.9197 C   0  0  0  0  0  0  0  0  0  0  0  0
   25.7395  -14.1810  -15.1133 C   0  0  0  0  0  0  0  0  0  0  0  0
   24.4102  -13.5290  -14.7967 C   0  0  0  0  0  0  0  0  0  0  0  0
   23.5983  -14.0140  -15.9767 C   0  0  1  0  0  0  0  0  0  0  0  0
   23.9741  -13.3701  -17.2344 C   0  0  0  0  0  0  0  0  0  0  0  0
   24.5670  -13.9576  -18.1691 O   0  0  0  0  0  0  0  0  0  0  0  0
   23.6542  -12.0299  -17.3997 O   0  0  0  0  0  0  0  0  0  0  0  0
  2  4  1  0
  2  1  1  1
  3  2  1  0
  4  5  1  1
  6  4  1  0
  6 11  1  0
  7  6  2  0
  9  8  1  0
 10 12  1  0
 10 11  1  0
 10  9  1  6
 12 14  1  0
 13 12  2  0
 14 15  1  0
 14 18  1  0
 15 16  1  0
 17 16  1  0
 17 18  1  0
 18 19  1  6
 19 20  2  0
 19 21  1  0
M  END
$$$$
