TSP.pdb
     RDKit          3D

 21 21  0  0  1  0  0  0  0  0999 V2000
   25.0520   -9.8623  -14.8368 C   0  0  0  0  0  0  0  0  0  0  0  0
   25.4053  -10.9138  -15.8670 C   0  0  1  0  0  0  0  0  0  0  0  0
   26.3143  -11.7883  -15.2744 O   0  0  0  0  0  0  0  0  0  0  0  0
   24.1616  -11.6988  -16.2039 C   0  0  2  0  0  0  0  0  0  0  0  0
   24.5766  -12.8130  -17.0371 N   0  0  0  0  0  0  0  0  0  0  0  0
   23.1180  -10.8954  -16.8396 C   0  0  0  0  0  0  0  0  0  0  0  0
   23.1941  -10.7031  -18.0910 O   0  0  0  0  0  0  0  0  0  0  0  0
   19.6448  -10.5576  -14.9422 O   0  0  0  0  0  0  0  0  0  0  0  0
   19.7380  -10.3999  -16.3144 C   0  0  0  0  0  0  0  0  0  0  0  0
   20.9772   -9.5885  -16.6204 C   0  0  2  0  0  0  0  0  0  0  0  0
   22.0671  -10.3618  -16.0549 N   0  0  0  0  0  0  0  0  0  0  0  0
   20.9790   -8.2184  -16.1147 C   0  0  0  0  0  0  0  0  0  0  0  0
   21.6253   -8.0647  -15.0114 O   0  0  0  0  0  0  0  0  0  0  0  0
   20.3854   -7.0759  -16.6602 N   0  0  0  0  0  0  0  0  0  0  0  0
   19.5844   -6.8384  -17.8445 C   0  0  0  0  0  0  0  0  0  0  0  0
   19.9238   -5.4072  -18.2860 C   0  0  0  0  0  0  0  0  0  0  0  0
   20.9047   -4.9096  -17.2456 C   0  0  0  0  0  0  0  0  0  0  0  0
   20.4632   -5.7368  -16.0593 C   0  0  1  0  0  0  0  0  0  0  0  0
   19.1770   -5.3104  -15.5100 C   0  0  0  0  0  0  0  0  0  0  0  0
   18.1091   -5.9492  -15.6575 O   0  0  0  0  0  0  0  0  0  0  0  0
   19.1401   -4.1286  -14.7834 O   0  0  0  0  0  0  0  0  0  0  0  0
  2  4  1  0
  2  1  1  1
  3  2  1  0
  4  5  1  6
  6  4  1  0
  6 11  1  0
  7  6  2  0
  9  8  1  0
 10 12  1  0
 10 11  1  0
 10  9  1  1
 12 14  1  0
 13 12  2  0
 14 15  1  0
 14 18  1  0
 15 16  1  0
 17 16  1  0
 17 18  1  0
 18 19  1  6
 19 20  2  0
 19 21  1  0
M  END
$$$$
