REC.pdb
     RDKit          3D

 27 26  0  0  1  0  0  0  0  0999 V2000
    8.4120  -15.6714   16.7287 N   0  0  0  0  0  0  0  0  0  0  0  0
    8.0830  -14.3457   16.3585 C   0  0  0  0  0  0  0  0  0  0  0  0
    7.8718  -14.0560   15.1314 N   0  0  0  0  0  0  0  0  0  0  0  0
    7.9976  -13.3466   17.3632 N   0  0  0  0  0  0  0  0  0  0  0  0
    8.2902  -13.6106   18.7435 C   0  0  0  0  0  0  0  0  0  0  0  0
    7.0350  -13.7109   19.5842 C   0  0  0  0  0  0  0  0  0  0  0  0
    7.3544  -14.0024   21.0416 C   0  0  0  0  0  0  0  0  0  0  0  0
    7.7997  -15.4286   21.1009 C   0  0  2  0  0  0  0  0  0  0  0  0
    6.7279  -16.2790   20.6528 N   0  0  0  0  0  0  0  0  0  0  0  0
    8.2865  -15.8735   22.4035 C   0  0  0  0  0  0  0  0  0  0  0  0
    7.4389  -16.2245   23.2606 O   0  0  0  0  0  0  0  0  0  0  0  0
    7.7486  -13.0602   14.8418 N   0  0  0  0  0  0  0  0  0  0  0  0
    9.6672  -15.9352   22.7675 C   0  0  2  0  0  0  0  0  0  0  0  0
   10.0431  -16.4453   24.0718 C   0  0  0  0  0  0  0  0  0  0  0  0
   11.3116  -17.2306   23.9436 C   0  0  0  0  0  0  0  0  0  0  0  0
   11.1465  -18.4462   23.0618 C   0  0  0  0  0  0  0  0  0  0  0  0
   12.4640  -18.7773   22.4763 O   0  0  0  0  0  0  0  0  0  0  0  0
   13.4508  -18.9880   23.2446 C   0  0  0  0  0  0  0  0  0  0  0  0
   10.1650  -15.3261   25.0452 O   0  0  0  0  0  0  0  0  0  0  0  0
   11.0144  -14.4373   24.8351 O   0  0  0  0  0  0  0  0  0  0  0  0
   12.6790  -18.8674   21.1174 N   0  0  0  0  0  0  0  0  0  0  0  0
    9.3471  -15.2411   26.1980 C   0  0  1  0  0  0  0  0  0  0  0  0
    9.5292  -14.2315   27.2194 C   0  0  0  0  0  0  0  0  0  0  0  0
    8.1824  -13.6210   27.5607 S   0  0  0  0  0  0  0  0  0  0  0  0
    7.4362  -13.0056   26.0341 C   0  0  0  0  0  0  0  0  0  0  0  0
   10.0941  -14.8618   28.4290 O   0  0  0  0  0  0  0  0  0  0  0  0
   10.4771  -14.1645   29.5733 O   0  0  0  0  0  0  0  0  0  0  0  0
  2  1  1  0
  3  2  2  0
  4  2  1  0
  5  4  1  0
  6  5  1  0
  7  6  1  0
  8  9  1  1
  8 10  1  0
  8  7  1  0
 10 12  1  0
 11 10  2  0
 12 13  1  0
 13 14  1  6
 14 15  1  0
 15 16  1  0
 16 20  1  0
 17 16  2  0
 18 19  2  0
 18 13  1  0
 21 18  1  0
 22 21  1  0
 22 23  1  1
 24 23  1  0
 25 22  1  0
 26 25  1  0
 27 25  2  0
M  END
$$$$
