REC.pdb
     RDKit          3D

 27 26  0  0  1  0  0  0  0  0999 V2000
    8.0498  -13.3494   14.2591 N   0  0  0  0  0  0  0  0  0  0  0  0
    7.8152  -13.8182   15.5736 C   0  0  0  0  0  0  0  0  0  0  0  0
    7.2927  -14.9700   15.7602 N   0  0  0  0  0  0  0  0  0  0  0  0
    8.1608  -12.9930   16.6757 N   0  0  0  0  0  0  0  0  0  0  0  0
    7.8293  -13.3328   18.0304 C   0  0  0  0  0  0  0  0  0  0  0  0
    8.2408  -14.7469   18.3813 C   0  0  0  0  0  0  0  0  0  0  0  0
    7.7195  -15.1632   19.7473 C   0  0  0  0  0  0  0  0  0  0  0  0
    8.9062  -15.2179   20.6553 C   0  0  2  0  0  0  0  0  0  0  0  0
    9.8140  -16.2333   20.1886 N   0  0  0  0  0  0  0  0  0  0  0  0
    8.5987  -15.4259   22.0674 C   0  0  0  0  0  0  0  0  0  0  0  0
    7.7198  -14.6990   22.5921 O   0  0  0  0  0  0  0  0  0  0  0  0
    7.0602  -15.2896   16.7269 N   0  0  0  0  0  0  0  0  0  0  0  0
    9.2343  -16.4043   22.8929 C   0  0  1  0  0  0  0  0  0  0  0  0
    8.7693  -16.6082   24.2512 C   0  0  0  0  0  0  0  0  0  0  0  0
    9.3475  -17.8841   24.7804 C   0  0  0  0  0  0  0  0  0  0  0  0
   10.8457  -17.9529   24.5997 C   0  0  0  0  0  0  0  0  0  0  0  0
   11.3231  -19.2338   25.1650 O   0  0  0  0  0  0  0  0  0  0  0  0
   12.5341  -19.5731   25.0011 C   0  0  0  0  0  0  0  0  0  0  0  0
    9.1195  -15.4337   25.0956 O   0  0  0  0  0  0  0  0  0  0  0  0
   10.3068  -15.0538   25.1330 O   0  0  0  0  0  0  0  0  0  0  0  0
   10.5065  -20.0927   25.8696 N   0  0  0  0  0  0  0  0  0  0  0  0
    8.1473  -14.7374   25.8539 C   0  0  2  0  0  0  0  0  0  0  0  0
    8.4828  -13.6748   26.7779 C   0  0  0  0  0  0  0  0  0  0  0  0
    7.2131  -12.9502   27.1847 S   0  0  0  0  0  0  0  0  0  0  0  0
    6.4565  -12.2551   25.6978 C   0  0  0  0  0  0  0  0  0  0  0  0
    9.1121  -14.2578   27.9795 O   0  0  0  0  0  0  0  0  0  0  0  0
    9.6703  -13.5114   29.0157 O   0  0  0  0  0  0  0  0  0  0  0  0
  2  1  1  0
  3  2  2  0
  4  2  1  0
  5  4  1  0
  6  5  1  0
  7  6  1  0
  8  9  1  6
  8 10  1  0
  8  7  1  0
 10 12  1  0
 11 10  2  0
 12 13  1  0
 13 14  1  1
 14 15  1  0
 15 16  1  0
 16 20  1  0
 17 16  2  0
 18 19  2  0
 18 13  1  0
 21 18  1  0
 22 21  1  0
 22 23  1  6
 24 23  1  0
 25 22  1  0
 26 25  1  0
 27 25  2  0
M  END
$$$$
