REC.pdb
     RDKit          3D

 27 26  0  0  1  0  0  0  0  0999 V2000
    8.0315  -13.0833   16.5047 N   0  0  0  0  0  0  0  0  0  0  0  0
    7.9480  -12.8811   17.9030 C   0  0  0  0  0  0  0  0  0  0  0  0
    8.9348  -12.3735   18.5378 N   0  0  0  0  0  0  0  0  0  0  0  0
    6.7616  -13.2539   18.5874 N   0  0  0  0  0  0  0  0  0  0  0  0
    6.7698  -13.7583   19.9313 C   0  0  0  0  0  0  0  0  0  0  0  0
    7.4920  -15.0846   20.0389 C   0  0  0  0  0  0  0  0  0  0  0  0
    7.3719  -15.6805   21.4323 C   0  0  0  0  0  0  0  0  0  0  0  0
    8.1281  -16.9702   21.4084 C   0  0  2  0  0  0  0  0  0  0  0  0
    7.1973  -18.0636   21.3033 N   0  0  0  0  0  0  0  0  0  0  0  0
    9.0305  -17.1820   22.5364 C   0  0  0  0  0  0  0  0  0  0  0  0
    8.5302  -17.5304   23.6339 O   0  0  0  0  0  0  0  0  0  0  0  0
    8.9461  -12.3818   19.5821 N   0  0  0  0  0  0  0  0  0  0  0  0
   10.4489  -17.0177   22.4729 C   0  0  2  0  0  0  0  0  0  0  0  0
   11.2333  -17.0785   23.6911 C   0  0  0  0  0  0  0  0  0  0  0  0
   12.6881  -17.0305   23.3396 C   0  0  0  0  0  0  0  0  0  0  0  0
   13.5750  -17.0810   24.5615 C   0  0  0  0  0  0  0  0  0  0  0  0
   14.9836  -17.0040   24.1161 O   0  0  0  0  0  0  0  0  0  0  0  0
   15.5282  -15.8681   23.9692 C   0  0  0  0  0  0  0  0  0  0  0  0
   10.8360  -15.9799   24.6131 O   0  0  0  0  0  0  0  0  0  0  0  0
   11.0755  -14.8017   24.2816 O   0  0  0  0  0  0  0  0  0  0  0  0
   15.7462  -18.1203   23.8457 N   0  0  0  0  0  0  0  0  0  0  0  0
   10.1956  -16.2327   25.8505 C   0  0  1  0  0  0  0  0  0  0  0  0
   10.0249  -15.2191   26.8698 C   0  0  0  0  0  0  0  0  0  0  0  0
    8.5490  -14.8923   27.0036 S   0  0  0  0  0  0  0  0  0  0  0  0
    7.9890  -14.1551   25.4515 C   0  0  0  0  0  0  0  0  0  0  0  0
   10.5232  -15.7387   28.1587 O   0  0  0  0  0  0  0  0  0  0  0  0
   10.5558  -15.0046   29.3429 O   0  0  0  0  0  0  0  0  0  0  0  0
  2  1  1  0
  3  2  2  0
  4  2  1  0
  5  4  1  0
  6  5  1  0
  7  6  1  0
  8  9  1  1
  8 10  1  0
  8  7  1  0
 10 12  1  0
 11 10  2  0
 12 13  1  0
 13 14  1  6
 14 15  1  0
 15 16  1  0
 16 20  1  0
 17 16  2  0
 18 19  2  0
 18 13  1  0
 21 18  1  0
 22 21  1  0
 22 23  1  1
 24 23  1  0
 25 22  1  0
 26 25  1  0
 27 25  2  0
M  END
$$$$
