REC.pdb
     RDKit          3D

 27 26  0  0  1  0  0  0  0  0999 V2000
   12.7849  -20.1004   30.3611 N   0  0  0  0  0  0  0  0  0  0  0  0
   11.7284  -21.0421   30.3571 C   0  0  0  0  0  0  0  0  0  0  0  0
   10.5890  -20.7299   30.8454 N   0  0  0  0  0  0  0  0  0  0  0  0
   11.9531  -22.3332   29.8115 N   0  0  0  0  0  0  0  0  0  0  0  0
   11.6919  -22.6476   28.4355 C   0  0  0  0  0  0  0  0  0  0  0  0
   12.6328  -21.9237   27.4958 C   0  0  0  0  0  0  0  0  0  0  0  0
   11.9682  -21.6071   26.1658 C   0  0  0  0  0  0  0  0  0  0  0  0
   11.8250  -20.1199   26.1068 C   0  0  2  0  0  0  0  0  0  0  0  0
   10.6858  -19.7217   26.8919 N   0  0  0  0  0  0  0  0  0  0  0  0
   11.7331  -19.5577   24.7625 C   0  0  0  0  0  0  0  0  0  0  0  0
   12.4313  -20.0773   23.8576 O   0  0  0  0  0  0  0  0  0  0  0  0
    9.8333  -21.4477   30.9128 N   0  0  0  0  0  0  0  0  0  0  0  0
   10.8992  -18.4521   24.4088 C   0  0  1  0  0  0  0  0  0  0  0  0
   10.8334  -18.0164   23.0272 C   0  0  0  0  0  0  0  0  0  0  0  0
    9.7947  -16.9452   22.9006 C   0  0  0  0  0  0  0  0  0  0  0  0
    9.7181  -16.3838   21.5002 C   0  0  0  0  0  0  0  0  0  0  0  0
    8.5567  -15.4703   21.4292 O   0  0  0  0  0  0  0  0  0  0  0  0
    7.8738  -15.2501   22.4750 C   0  0  0  0  0  0  0  0  0  0  0  0
   12.1744  -17.5634   22.5673 O   0  0  0  0  0  0  0  0  0  0  0  0
   12.8074  -16.7507   23.2704 O   0  0  0  0  0  0  0  0  0  0  0  0
    8.1705  -14.8379   20.2665 N   0  0  0  0  0  0  0  0  0  0  0  0
   12.7503  -18.0272   21.3597 C   0  0  1  0  0  0  0  0  0  0  0  0
   14.0412  -17.5801   20.8809 C   0  0  0  0  0  0  0  0  0  0  0  0
   15.1252  -18.1227   21.7938 S   0  0  0  0  0  0  0  0  0  0  0  0
   16.7230  -17.8721   20.9873 C   0  0  0  0  0  0  0  0  0  0  0  0
   14.2571  -18.0967   19.5148 O   0  0  0  0  0  0  0  0  0  0  0  0
   15.2019  -17.5917   18.6233 O   0  0  0  0  0  0  0  0  0  0  0  0
  2  1  1  0
  3  2  2  0
  4  2  1  0
  5  4  1  0
  6  5  1  0
  7  6  1  0
  8  9  1  1
  8 10  1  0
  8  7  1  0
 10 12  1  0
 11 10  2  0
 12 13  1  0
 13 14  1  6
 14 15  1  0
 15 16  1  0
 16 20  1  0
 17 16  2  0
 18 19  2  0
 18 13  1  0
 21 18  1  0
 22 21  1  0
 22 23  1  6
 24 23  1  0
 25 22  1  0
 26 25  1  0
 27 25  2  0
M  END
$$$$
