REC.pdb
     RDKit          3D

 27 26  0  0  1  0  0  0  0  0999 V2000
    7.3962  -14.1134   15.5304 N   0  0  0  0  0  0  0  0  0  0  0  0
    8.5462  -14.6122   16.1874 C   0  0  0  0  0  0  0  0  0  0  0  0
    9.2002  -15.5882   15.6833 N   0  0  0  0  0  0  0  0  0  0  0  0
    8.9569  -14.0205   17.4106 N   0  0  0  0  0  0  0  0  0  0  0  0
    8.0692  -13.2479   18.2325 C   0  0  0  0  0  0  0  0  0  0  0  0
    6.8758  -14.0544   18.6990 C   0  0  0  0  0  0  0  0  0  0  0  0
    6.9374  -14.3413   20.1905 C   0  0  0  0  0  0  0  0  0  0  0  0
    7.5412  -15.7015   20.3360 C   0  0  2  0  0  0  0  0  0  0  0  0
    6.5971  -16.6901   19.8844 N   0  0  0  0  0  0  0  0  0  0  0  0
    8.0143  -16.0307   21.6775 C   0  0  0  0  0  0  0  0  0  0  0  0
    7.1573  -16.2946   22.5561 O   0  0  0  0  0  0  0  0  0  0  0  0
   10.0458  -15.9598   16.1709 N   0  0  0  0  0  0  0  0  0  0  0  0
    9.3918  -16.0715   22.0566 C   0  0  2  0  0  0  0  0  0  0  0  0
    9.7477  -16.3086   23.4422 C   0  0  0  0  0  0  0  0  0  0  0  0
   11.2016  -16.6584   23.5214 C   0  0  0  0  0  0  0  0  0  0  0  0
   11.6346  -16.9939   24.9292 C   0  0  0  0  0  0  0  0  0  0  0  0
   12.5768  -18.1326   24.8661 O   0  0  0  0  0  0  0  0  0  0  0  0
   12.8155  -18.6810   23.7478 C   0  0  0  0  0  0  0  0  0  0  0  0
    9.4041  -15.1212   24.2710 O   0  0  0  0  0  0  0  0  0  0  0  0
    9.5214  -13.9851   23.7701 O   0  0  0  0  0  0  0  0  0  0  0  0
   13.2169  -18.6382   25.9777 N   0  0  0  0  0  0  0  0  0  0  0  0
    8.9488  -15.2437   25.6062 C   0  0  2  0  0  0  0  0  0  0  0  0
    8.6596  -14.1013   26.4470 C   0  0  0  0  0  0  0  0  0  0  0  0
    7.1904  -13.7453   26.3139 S   0  0  0  0  0  0  0  0  0  0  0  0
    6.8229  -12.4122   27.4775 C   0  0  0  0  0  0  0  0  0  0  0  0
    8.9468  -14.4489   27.8528 O   0  0  0  0  0  0  0  0  0  0  0  0
    8.9115  -13.5416   28.9102 O   0  0  0  0  0  0  0  0  0  0  0  0
  2  1  1  0
  3  2  2  0
  4  2  1  0
  5  4  1  0
  6  5  1  0
  7  6  1  0
  8  9  1  1
  8 10  1  0
  8  7  1  0
 10 12  1  0
 11 10  2  0
 12 13  1  0
 13 14  1  6
 14 15  1  0
 15 16  1  0
 16 20  1  0
 17 16  2  0
 18 19  2  0
 18 13  1  0
 21 18  1  0
 22 21  1  0
 22 23  1  1
 24 23  1  0
 25 22  1  0
 26 25  1  0
 27 25  2  0
M  END
$$$$
