REC.pdb
     RDKit          3D

 27 26  0  0  1  0  0  0  0  0999 V2000
    7.3707  -14.5875   15.4456 N   0  0  0  0  0  0  0  0  0  0  0  0
    8.4621  -13.7245   15.7042 C   0  0  0  0  0  0  0  0  0  0  0  0
    9.3836  -13.5761   14.8306 N   0  0  0  0  0  0  0  0  0  0  0  0
    8.5216  -13.0348   16.9435 N   0  0  0  0  0  0  0  0  0  0  0  0
    7.5112  -13.1712   17.9539 C   0  0  0  0  0  0  0  0  0  0  0  0
    7.4742  -14.5668   18.5397 C   0  0  0  0  0  0  0  0  0  0  0  0
    8.3632  -14.6869   19.7670 C   0  0  0  0  0  0  0  0  0  0  0  0
    8.2786  -16.1113   20.2139 C   0  0  2  0  0  0  0  0  0  0  0  0
    7.2601  -16.7873   19.4532 N   0  0  0  0  0  0  0  0  0  0  0  0
    8.0505  -16.3011   21.6435 C   0  0  0  0  0  0  0  0  0  0  0  0
    6.8739  -16.2043   22.0703 O   0  0  0  0  0  0  0  0  0  0  0  0
   10.1583  -12.8956   14.9965 N   0  0  0  0  0  0  0  0  0  0  0  0
    9.0813  -16.5899   22.5906 C   0  0  2  0  0  0  0  0  0  0  0  0
    8.7659  -16.6254   24.0055 C   0  0  0  0  0  0  0  0  0  0  0  0
    9.7849  -17.4639   24.7134 C   0  0  0  0  0  0  0  0  0  0  0  0
    9.5883  -17.4620   26.2113 C   0  0  0  0  0  0  0  0  0  0  0  0
   10.6391  -18.3078   26.8184 O   0  0  0  0  0  0  0  0  0  0  0  0
   10.3170  -19.4115   27.3538 C   0  0  0  0  0  0  0  0  0  0  0  0
    8.6922  -15.2423   24.5501 O   0  0  0  0  0  0  0  0  0  0  0  0
    9.6372  -14.4589   24.3292 O   0  0  0  0  0  0  0  0  0  0  0  0
   11.9711  -17.9519   26.8350 N   0  0  0  0  0  0  0  0  0  0  0  0
    7.5843  -14.7917   25.3080 C   0  0  2  0  0  0  0  0  0  0  0  0
    7.5113  -13.4652   25.8829 C   0  0  0  0  0  0  0  0  0  0  0  0
    6.0549  -13.0585   26.0115 S   0  0  0  0  0  0  0  0  0  0  0  0
    5.9856  -11.4569   26.8458 C   0  0  0  0  0  0  0  0  0  0  0  0
    8.1278  -13.4834   27.2242 O   0  0  0  0  0  0  0  0  0  0  0  0
    8.6618  -12.3638   27.8597 O   0  0  0  0  0  0  0  0  0  0  0  0
  2  1  1  0
  3  2  2  0
  4  2  1  0
  5  4  1  0
  6  5  1  0
  7  6  1  0
  8  9  1  6
  8 10  1  0
  8  7  1  0
 10 12  1  0
 11 10  2  0
 12 13  1  0
 13 14  1  6
 14 15  1  0
 15 16  1  0
 16 20  1  0
 17 16  2  0
 18 19  2  0
 18 13  1  0
 21 18  1  0
 22 21  1  0
 22 23  1  1
 24 23  1  0
 25 22  1  0
 26 25  1  0
 27 25  2  0
M  END
$$$$
