REC.pdb
     RDKit          3D

 27 26  0  0  1  0  0  0  0  0999 V2000
    8.1937  -11.8986   19.1373 N   0  0  0  0  0  0  0  0  0  0  0  0
    9.1962  -12.8813   18.9576 C   0  0  0  0  0  0  0  0  0  0  0  0
   10.3727  -12.6893   19.4194 N   0  0  0  0  0  0  0  0  0  0  0  0
    8.8797  -14.0738   18.2556 N   0  0  0  0  0  0  0  0  0  0  0  0
    8.8107  -15.3550   18.8991 C   0  0  0  0  0  0  0  0  0  0  0  0
    7.3826  -15.8035   19.1268 C   0  0  0  0  0  0  0  0  0  0  0  0
    6.9609  -15.6278   20.5767 C   0  0  0  0  0  0  0  0  0  0  0  0
    7.1285  -16.9616   21.2315 C   0  0  2  0  0  0  0  0  0  0  0  0
    6.0216  -17.8090   20.8713 N   0  0  0  0  0  0  0  0  0  0  0  0
    7.2856  -16.9257   22.6826 C   0  0  0  0  0  0  0  0  0  0  0  0
    6.2481  -16.9613   23.3886 O   0  0  0  0  0  0  0  0  0  0  0  0
   11.1138  -13.4123   19.2825 N   0  0  0  0  0  0  0  0  0  0  0  0
    8.5457  -16.8520   23.3531 C   0  0  2  0  0  0  0  0  0  0  0  0
    8.5858  -16.8095   24.8020 C   0  0  0  0  0  0  0  0  0  0  0  0
    9.7529  -17.6150   25.2833 C   0  0  0  0  0  0  0  0  0  0  0  0
    9.5850  -19.0903   25.0050 C   0  0  0  0  0  0  0  0  0  0  0  0
   10.7922  -19.7944   25.4900 O   0  0  0  0  0  0  0  0  0  0  0  0
   10.8089  -20.2598   26.6697 C   0  0  0  0  0  0  0  0  0  0  0  0
    8.6375  -15.3988   25.2732 O   0  0  0  0  0  0  0  0  0  0  0  0
    9.4516  -14.6177   24.7417 O   0  0  0  0  0  0  0  0  0  0  0  0
   11.9187  -19.9716   24.7151 N   0  0  0  0  0  0  0  0  0  0  0  0
    7.7917  -14.9195   26.3027 C   0  0  1  0  0  0  0  0  0  0  0  0
    7.9165  -13.5937   26.8705 C   0  0  0  0  0  0  0  0  0  0  0  0
    6.5630  -13.1462   27.3908 S   0  0  0  0  0  0  0  0  0  0  0  0
    5.4569  -12.9283   25.9783 C   0  0  0  0  0  0  0  0  0  0  0  0
    8.8755  -13.6349   27.9922 O   0  0  0  0  0  0  0  0  0  0  0  0
    9.3553  -12.5087   28.6585 O   0  0  0  0  0  0  0  0  0  0  0  0
  2  1  1  0
  3  2  2  0
  4  2  1  0
  5  4  1  0
  6  5  1  0
  7  6  1  0
  8  9  1  1
  8 10  1  0
  8  7  1  0
 10 12  1  0
 11 10  2  0
 12 13  1  0
 13 14  1  6
 14 15  1  0
 15 16  1  0
 16 20  1  0
 17 16  2  0
 18 19  2  0
 18 13  1  0
 21 18  1  0
 22 21  1  0
 22 23  1  6
 24 23  1  0
 25 22  1  0
 26 25  1  0
 27 25  2  0
M  END
$$$$
