REC.pdb
     RDKit          3D

 27 26  0  0  1  0  0  0  0  0999 V2000
    7.9748  -12.9169   16.9480 N   0  0  0  0  0  0  0  0  0  0  0  0
    8.0587  -12.9834   18.3592 C   0  0  0  0  0  0  0  0  0  0  0  0
    8.0643  -11.9095   19.0528 N   0  0  0  0  0  0  0  0  0  0  0  0
    8.1423  -14.2527   18.9894 N   0  0  0  0  0  0  0  0  0  0  0  0
    6.9970  -15.0952   19.1867 C   0  0  0  0  0  0  0  0  0  0  0  0
    7.3621  -16.4113   19.8400 C   0  0  0  0  0  0  0  0  0  0  0  0
    8.6260  -16.2941   20.6765 C   0  0  0  0  0  0  0  0  0  0  0  0
    8.8723  -17.6467   21.2644 C   0  0  2  0  0  0  0  0  0  0  0  0
    7.6637  -18.4251   21.1855 N   0  0  0  0  0  0  0  0  0  0  0  0
    9.3838  -17.6456   22.6319 C   0  0  0  0  0  0  0  0  0  0  0  0
    8.5651  -17.8214   23.5673 O   0  0  0  0  0  0  0  0  0  0  0  0
    8.2103  -11.9538   20.0861 N   0  0  0  0  0  0  0  0  0  0  0  0
   10.7582  -17.4567   22.9759 C   0  0  2  0  0  0  0  0  0  0  0  0
   11.1556  -17.4607   24.3705 C   0  0  0  0  0  0  0  0  0  0  0  0
   12.6348  -17.6774   24.4574 C   0  0  0  0  0  0  0  0  0  0  0  0
   13.0329  -19.0800   24.0622 C   0  0  0  0  0  0  0  0  0  0  0  0
   14.3185  -19.0098   23.3338 O   0  0  0  0  0  0  0  0  0  0  0  0
   14.3317  -19.1830   22.0774 C   0  0  0  0  0  0  0  0  0  0  0  0
   10.7278  -16.1970   25.0300 O   0  0  0  0  0  0  0  0  0  0  0  0
   10.8467  -15.1238   24.4057 O   0  0  0  0  0  0  0  0  0  0  0  0
   15.5222  -18.7647   23.9598 N   0  0  0  0  0  0  0  0  0  0  0  0
   10.1910  -16.1781   26.3401 C   0  0  1  0  0  0  0  0  0  0  0  0
    9.8699  -14.9531   27.0414 C   0  0  0  0  0  0  0  0  0  0  0  0
    8.3998  -14.6354   26.8398 S   0  0  0  0  0  0  0  0  0  0  0  0
    7.9922  -13.1835   27.8357 C   0  0  0  0  0  0  0  0  0  0  0  0
   10.1310  -15.1369   28.4829 O   0  0  0  0  0  0  0  0  0  0  0  0
   10.1769  -14.0994   29.4124 O   0  0  0  0  0  0  0  0  0  0  0  0
  2  1  1  0
  3  2  2  0
  4  2  1  0
  5  4  1  0
  6  5  1  0
  7  6  1  0
  8  9  1  1
  8 10  1  0
  8  7  1  0
 10 12  1  0
 11 10  2  0
 12 13  1  0
 13 14  1  6
 14 15  1  0
 15 16  1  0
 16 20  1  0
 17 16  2  0
 18 19  2  0
 18 13  1  0
 21 18  1  0
 22 21  1  0
 22 23  1  1
 24 23  1  0
 25 22  1  0
 26 25  1  0
 27 25  2  0
M  END
$$$$
