REC.pdb
     RDKit          3D

 27 26  0  0  1  0  0  0  0  0999 V2000
    8.0293  -12.7143   16.7195 N   0  0  0  0  0  0  0  0  0  0  0  0
    8.5088  -14.0375   16.8676 C   0  0  0  0  0  0  0  0  0  0  0  0
    8.5965  -14.8058   15.8496 N   0  0  0  0  0  0  0  0  0  0  0  0
    8.8830  -14.4987   18.1569 N   0  0  0  0  0  0  0  0  0  0  0  0
    8.7158  -13.7048   19.3411 C   0  0  0  0  0  0  0  0  0  0  0  0
    7.3222  -13.8290   19.9197 C   0  0  0  0  0  0  0  0  0  0  0  0
    7.3541  -14.2312   21.3854 C   0  0  0  0  0  0  0  0  0  0  0  0
    7.7337  -15.6771   21.4200 C   0  0  2  0  0  0  0  0  0  0  0  0
    6.6245  -16.4697   20.9571 N   0  0  0  0  0  0  0  0  0  0  0  0
    8.1984  -16.1664   22.7148 C   0  0  0  0  0  0  0  0  0  0  0  0
    7.3380  -16.4073   23.5968 O   0  0  0  0  0  0  0  0  0  0  0  0
    8.9988  -15.7644   15.9496 N   0  0  0  0  0  0  0  0  0  0  0  0
    9.5712  -16.3887   23.0446 C   0  0  1  0  0  0  0  0  0  0  0  0
    9.9265  -16.8215   24.3822 C   0  0  0  0  0  0  0  0  0  0  0  0
   11.0980  -17.7508   24.3012 C   0  0  0  0  0  0  0  0  0  0  0  0
   11.5442  -18.2307   25.6623 C   0  0  0  0  0  0  0  0  0  0  0  0
   12.7030  -19.1319   25.4798 O   0  0  0  0  0  0  0  0  0  0  0  0
   13.2995  -19.5925   26.4999 C   0  0  0  0  0  0  0  0  0  0  0  0
   10.1971  -15.6421   25.2486 O   0  0  0  0  0  0  0  0  0  0  0  0
   11.2112  -14.9518   25.0237 O   0  0  0  0  0  0  0  0  0  0  0  0
   13.1774  -19.5009   24.2389 N   0  0  0  0  0  0  0  0  0  0  0  0
    9.3393  -15.2820   26.3162 C   0  0  1  0  0  0  0  0  0  0  0  0
    9.6174  -14.1788   27.2113 C   0  0  0  0  0  0  0  0  0  0  0  0
    8.3190  -13.4644   27.5383 S   0  0  0  0  0  0  0  0  0  0  0  0
    7.5614  -12.9282   25.9877 C   0  0  0  0  0  0  0  0  0  0  0  0
   10.2073  -14.7035   28.4588 O   0  0  0  0  0  0  0  0  0  0  0  0
   10.4636  -16.0518   28.7013 O   0  0  0  0  0  0  0  0  0  0  0  0
  2  1  1  0
  3  2  2  0
  4  2  1  0
  5  4  1  0
  6  5  1  0
  7  6  1  0
  8  9  1  1
  8 10  1  0
  8  7  1  0
 10 12  1  0
 11 10  2  0
 12 13  1  0
 13 14  1  6
 14 15  1  0
 15 16  1  0
 16 20  1  0
 17 16  2  0
 18 19  2  0
 18 13  1  0
 21 18  1  0
 22 21  1  0
 22 23  1  1
 24 23  1  0
 25 22  1  0
 26 25  1  0
 27 25  2  0
M  END
$$$$
