REC.pdb
     RDKit          3D

 27 26  0  0  1  0  0  0  0  0999 V2000
    8.3212  -15.4610   17.0688 N   0  0  0  0  0  0  0  0  0  0  0  0
    8.1469  -14.1178   16.6585 C   0  0  0  0  0  0  0  0  0  0  0  0
    8.1508  -13.8213   15.4149 N   0  0  0  0  0  0  0  0  0  0  0  0
    7.9748  -13.1094   17.6426 N   0  0  0  0  0  0  0  0  0  0  0  0
    8.2782  -13.3222   19.0294 C   0  0  0  0  0  0  0  0  0  0  0  0
    7.1015  -13.8962   19.7898 C   0  0  0  0  0  0  0  0  0  0  0  0
    7.4428  -14.1493   21.2494 C   0  0  0  0  0  0  0  0  0  0  0  0
    7.8479  -15.5853   21.3471 C   0  0  2  0  0  0  0  0  0  0  0  0
    6.7610  -16.4162   20.8988 N   0  0  0  0  0  0  0  0  0  0  0  0
    8.3002  -16.0145   22.6673 C   0  0  0  0  0  0  0  0  0  0  0  0
    7.4352  -16.1752   23.5629 O   0  0  0  0  0  0  0  0  0  0  0  0
    8.1874  -12.8216   15.1147 N   0  0  0  0  0  0  0  0  0  0  0  0
    9.6659  -16.2636   23.0075 C   0  0  2  0  0  0  0  0  0  0  0  0
    9.9986  -16.7422   24.3353 C   0  0  0  0  0  0  0  0  0  0  0  0
   11.1749  -17.6643   24.2429 C   0  0  0  0  0  0  0  0  0  0  0  0
   11.5884  -18.2028   25.5924 C   0  0  0  0  0  0  0  0  0  0  0  0
   12.7256  -19.1280   25.3943 O   0  0  0  0  0  0  0  0  0  0  0  0
   12.9771  -20.0025   26.2777 C   0  0  0  0  0  0  0  0  0  0  0  0
   10.2488  -15.5933   25.2476 O   0  0  0  0  0  0  0  0  0  0  0  0
   11.0787  -14.7265   24.9078 O   0  0  0  0  0  0  0  0  0  0  0  0
   13.5406  -19.0867   24.2829 N   0  0  0  0  0  0  0  0  0  0  0  0
    9.5740  -15.4560   26.4848 C   0  0  1  0  0  0  0  0  0  0  0  0
    9.8249  -14.3638   27.4011 C   0  0  0  0  0  0  0  0  0  0  0  0
    8.5085  -13.6929   27.7473 S   0  0  0  0  0  0  0  0  0  0  0  0
    7.9412  -12.7761   26.2969 C   0  0  0  0  0  0  0  0  0  0  0  0
   10.4346  -14.8968   28.6355 O   0  0  0  0  0  0  0  0  0  0  0  0
   10.8548  -14.1117   29.7076 O   0  0  0  0  0  0  0  0  0  0  0  0
  2  1  1  0
  3  2  2  0
  4  2  1  0
  5  4  1  0
  6  5  1  0
  7  6  1  0
  8  9  1  1
  8 10  1  0
  8  7  1  0
 10 12  1  0
 11 10  2  0
 12 13  1  0
 13 14  1  6
 14 15  1  0
 15 16  1  0
 16 20  1  0
 17 16  2  0
 18 19  2  0
 18 13  1  0
 21 18  1  0
 22 21  1  0
 22 23  1  1
 24 23  1  0
 25 22  1  0
 26 25  1  0
 27 25  2  0
M  END
$$$$
