REC.pdb
     RDKit          3D

 27 26  0  0  1  0  0  0  0  0999 V2000
    8.0114  -13.6999   17.7134 N   0  0  0  0  0  0  0  0  0  0  0  0
    8.2522  -12.8518   18.8204 C   0  0  0  0  0  0  0  0  0  0  0  0
    8.8455  -11.7318   18.6533 N   0  0  0  0  0  0  0  0  0  0  0  0
    7.8332  -13.2633   20.1127 N   0  0  0  0  0  0  0  0  0  0  0  0
    6.8645  -14.3027   20.3172 C   0  0  0  0  0  0  0  0  0  0  0  0
    7.5108  -15.6628   20.4739 C   0  0  0  0  0  0  0  0  0  0  0  0
    9.0095  -15.6068   20.2259 C   0  0  0  0  0  0  0  0  0  0  0  0
    9.5574  -16.9357   20.6381 C   0  0  2  0  0  0  0  0  0  0  0  0
    8.7729  -17.9803   20.0328 N   0  0  0  0  0  0  0  0  0  0  0  0
    9.6542  -17.1475   22.0794 C   0  0  0  0  0  0  0  0  0  0  0  0
    8.5871  -17.2338   22.7351 O   0  0  0  0  0  0  0  0  0  0  0  0
    9.0374  -11.1131   19.4726 N   0  0  0  0  0  0  0  0  0  0  0  0
   10.8866  -17.2627   22.7940 C   0  0  2  0  0  0  0  0  0  0  0  0
   10.8669  -17.4965   24.2250 C   0  0  0  0  0  0  0  0  0  0  0  0
   12.1773  -18.0891   24.6424 C   0  0  0  0  0  0  0  0  0  0  0  0
   13.3375  -17.1585   24.3778 C   0  0  0  0  0  0  0  0  0  0  0  0
   14.5904  -17.8750   24.7018 O   0  0  0  0  0  0  0  0  0  0  0  0
   15.2075  -17.5952   25.7739 C   0  0  0  0  0  0  0  0  0  0  0  0
   10.5603  -16.2322   24.9477 O   0  0  0  0  0  0  0  0  0  0  0  0
   10.8666  -15.1468   24.4152 O   0  0  0  0  0  0  0  0  0  0  0  0
   15.1321  -18.8445   23.8848 N   0  0  0  0  0  0  0  0  0  0  0  0
    9.9326  -16.2260   26.2169 C   0  0  1  0  0  0  0  0  0  0  0  0
    9.7513  -15.0216   26.9993 C   0  0  0  0  0  0  0  0  0  0  0  0
    8.2741  -14.6772   27.0468 S   0  0  0  0  0  0  0  0  0  0  0  0
    8.0657  -13.2195   28.0945 C   0  0  0  0  0  0  0  0  0  0  0  0
   10.2363  -15.2584   28.3735 O   0  0  0  0  0  0  0  0  0  0  0  0
   10.3637  -14.2668   29.3444 O   0  0  0  0  0  0  0  0  0  0  0  0
  2  1  1  0
  3  2  2  0
  4  2  1  0
  5  4  1  0
  6  5  1  0
  7  6  1  0
  8  9  1  1
  8 10  1  0
  8  7  1  0
 10 12  1  0
 11 10  2  0
 12 13  1  0
 13 14  1  6
 14 15  1  0
 15 16  1  0
 16 20  1  0
 17 16  2  0
 18 19  2  0
 18 13  1  0
 21 18  1  0
 22 21  1  0
 22 23  1  1
 24 23  1  0
 25 22  1  0
 26 25  1  0
 27 25  2  0
M  END
$$$$
