KGS.pdb
     RDKit          3D

 20 19  0  0  1  0  0  0  0  0999 V2000
    8.7289  -17.2446   19.6220 N   0  0  0  0  0  0  0  0  0  0  0  0
    9.2657  -16.1852   20.4403 C   0  0  1  0  0  0  0  0  0  0  0  0
    9.1514  -14.8369   19.7223 C   0  0  0  0  0  0  0  0  0  0  0  0
    8.4620  -15.1181   18.4069 C   0  0  0  0  0  0  0  0  0  0  0  0
    8.3546  -13.8915   17.5487 C   0  0  0  0  0  0  0  0  0  0  0  0
    7.7234  -14.3061   16.2337 C   0  0  0  0  0  0  0  0  0  0  0  0
    7.5352  -13.2011   15.3430 N   0  0  0  0  0  0  0  0  0  0  0  0
    8.5688  -16.0399   21.7263 C   0  0  0  0  0  0  0  0  0  0  0  0
    7.3508  -16.2656   21.7999 O   0  0  0  0  0  0  0  0  0  0  0  0
    9.2907  -15.6450   22.8657 N   0  0  0  0  0  0  0  0  0  0  0  0
    8.6121  -15.5450   24.1320 C   0  0  0  0  0  0  0  0  0  0  0  0
    9.5770  -15.0778   25.1469 C   0  0  0  0  0  0  0  0  0  0  0  0
   10.8158  -15.0407   24.9726 O   0  0  0  0  0  0  0  0  0  0  0  0
    8.2503  -12.4816   27.4988 O   0  0  0  0  0  0  0  0  0  0  0  0
    9.1547  -13.1584   28.2895 C   0  0  0  0  0  0  0  0  0  0  0  0
    9.9759  -14.0890   27.4186 C   0  0  2  0  0  0  0  0  0  0  0  0
    9.0897  -14.6371   26.4104 N   0  0  0  0  0  0  0  0  0  0  0  0
   10.5089  -15.2290   28.2072 C   0  0  0  0  0  0  0  0  0  0  0  0
   11.4796  -15.0544   29.2014 O   0  0  0  0  0  0  0  0  0  0  0  0
   10.1167  -16.4093   28.0234 O   0  0  0  0  0  0  0  0  0  0  0  0
  2  1  1  6
  3  2  1  0
  4  3  1  0
  5  4  1  0
  6  5  1  0
  7  6  1  0
  8  2  1  0
  9  8  2  0
 10  8  1  0
 11 10  1  0
 11 12  1  0
 12 17  1  0
 13 12  2  0
 15 14  1  0
 16 15  1  1
 16 18  1  0
 17 16  1  0
 18 20  2  0
 18 19  1  0
M  END
$$$$
