KGS.pdb
     RDKit          3D

 20 19  0  0  1  0  0  0  0  0999 V2000
    5.9799  -16.7859   21.7482 N   0  0  0  0  0  0  0  0  0  0  0  0
    7.3984  -16.9885   21.5843 C   0  0  1  0  0  0  0  0  0  0  0  0
    8.1367  -15.6466   21.5599 C   0  0  0  0  0  0  0  0  0  0  0  0
    7.8293  -15.0219   20.2183 C   0  0  0  0  0  0  0  0  0  0  0  0
    8.4938  -13.6869   20.0481 C   0  0  0  0  0  0  0  0  0  0  0  0
    8.0619  -13.1278   18.7063 C   0  0  0  0  0  0  0  0  0  0  0  0
    8.6031  -11.8265   18.4543 N   0  0  0  0  0  0  0  0  0  0  0  0
    7.9971  -17.7809   22.6680 C   0  0  0  0  0  0  0  0  0  0  0  0
    7.6462  -17.5888   23.8427 O   0  0  0  0  0  0  0  0  0  0  0  0
    8.9654  -18.7529   22.3632 N   0  0  0  0  0  0  0  0  0  0  0  0
    9.5743  -19.5025   23.4315 C   0  0  0  0  0  0  0  0  0  0  0  0
   10.9399  -18.9859   23.6494 C   0  0  0  0  0  0  0  0  0  0  0  0
   11.7488  -19.4672   24.4743 O   0  0  0  0  0  0  0  0  0  0  0  0
   14.0865  -15.5725   22.2457 O   0  0  0  0  0  0  0  0  0  0  0  0
   12.8609  -16.1770   22.0615 C   0  0  0  0  0  0  0  0  0  0  0  0
   12.7069  -17.3021   23.0662 C   0  0  2  0  0  0  0  0  0  0  0  0
   11.3855  -17.8706   22.8841 N   0  0  0  0  0  0  0  0  0  0  0  0
   12.7814  -16.7906   24.4584 C   0  0  0  0  0  0  0  0  0  0  0  0
   13.9888  -16.7367   25.1658 O   0  0  0  0  0  0  0  0  0  0  0  0
   11.7650  -16.3797   25.0741 O   0  0  0  0  0  0  0  0  0  0  0  0
  2  1  1  1
  3  2  1  0
  4  3  1  0
  5  4  1  0
  6  5  1  0
  7  6  1  0
  8  2  1  0
  9  8  2  0
 10  8  1  0
 11 10  1  0
 11 12  1  0
 12 17  1  0
 13 12  2  0
 15 14  1  0
 16 15  1  6
 16 18  1  0
 17 16  1  0
 18 20  2  0
 18 19  1  0
M  END
$$$$
