KGS.pdb
     RDKit          3D

 20 19  0  0  1  0  0  0  0  0999 V2000
    7.4462  -16.2038   20.8583 N   0  0  0  0  0  0  0  0  0  0  0  0
    7.6035  -15.4642   22.0864 C   0  0  1  0  0  0  0  0  0  0  0  0
    7.1147  -14.0226   21.9156 C   0  0  0  0  0  0  0  0  0  0  0  0
    8.1584  -13.3213   21.0771 C   0  0  0  0  0  0  0  0  0  0  0  0
    7.9511  -13.5460   19.6077 C   0  0  0  0  0  0  0  0  0  0  0  0
    9.1316  -12.9335   18.8793 C   0  0  0  0  0  0  0  0  0  0  0  0
    9.0095  -13.0321   17.4563 N   0  0  0  0  0  0  0  0  0  0  0  0
    6.8446  -16.0382   23.2068 C   0  0  0  0  0  0  0  0  0  0  0  0
    5.6357  -15.7863   23.3299 O   0  0  0  0  0  0  0  0  0  0  0  0
    7.4971  -16.8705   24.1325 N   0  0  0  0  0  0  0  0  0  0  0  0
    6.7574  -17.4028   25.2476 C   0  0  0  0  0  0  0  0  0  0  0  0
    7.6303  -18.3338   25.9895 C   0  0  0  0  0  0  0  0  0  0  0  0
    7.4112  -19.5608   26.1037 O   0  0  0  0  0  0  0  0  0  0  0  0
   11.1829  -16.8559   26.0990 O   0  0  0  0  0  0  0  0  0  0  0  0
   11.0874  -18.2306   26.0508 C   0  0  0  0  0  0  0  0  0  0  0  0
    9.9329  -18.6786   26.9257 C   0  0  2  0  0  0  0  0  0  0  0  0
    8.8003  -17.8256   26.6227 N   0  0  0  0  0  0  0  0  0  0  0  0
   10.2508  -18.4984   28.3652 C   0  0  0  0  0  0  0  0  0  0  0  0
   11.2945  -19.1944   28.9876 O   0  0  0  0  0  0  0  0  0  0  0  0
    9.5999  -17.7123   29.0994 O   0  0  0  0  0  0  0  0  0  0  0  0
  2  1  1  6
  3  2  1  0
  4  3  1  0
  5  4  1  0
  6  5  1  0
  7  6  1  0
  8  2  1  0
  9  8  2  0
 10  8  1  0
 11 10  1  0
 11 12  1  0
 12 17  1  0
 13 12  2  0
 15 14  1  0
 16 15  1  6
 16 18  1  0
 17 16  1  0
 18 20  2  0
 18 19  1  0
M  END
$$$$
