KGS.pdb
     RDKit          3D

 20 19  0  0  1  0  0  0  0  0999 V2000
    7.3188  -18.3301   20.4441 N   0  0  0  0  0  0  0  0  0  0  0  0
    8.1886  -17.9106   19.3729 C   0  0  1  0  0  0  0  0  0  0  0  0
    7.4271  -17.0416   18.3673 C   0  0  0  0  0  0  0  0  0  0  0  0
    7.0389  -17.9573   17.2293 C   0  0  0  0  0  0  0  0  0  0  0  0
    8.1816  -18.2112   16.2898 C   0  0  0  0  0  0  0  0  0  0  0  0
    7.6334  -18.9673   15.0952 C   0  0  0  0  0  0  0  0  0  0  0  0
    8.6254  -19.1967   14.0887 N   0  0  0  0  0  0  0  0  0  0  0  0
    9.3338  -17.1149   19.8375 C   0  0  0  0  0  0  0  0  0  0  0  0
   10.2376  -16.8080   19.0444 O   0  0  0  0  0  0  0  0  0  0  0  0
    9.3956  -16.7070   21.1810 N   0  0  0  0  0  0  0  0  0  0  0  0
   10.4504  -15.8215   21.6024 C   0  0  0  0  0  0  0  0  0  0  0  0
   11.4629  -16.6101   22.3318 C   0  0  0  0  0  0  0  0  0  0  0  0
   11.3439  -17.8263   22.6021 O   0  0  0  0  0  0  0  0  0  0  0  0
   15.9697  -16.4730   24.0915 O   0  0  0  0  0  0  0  0  0  0  0  0
   14.9477  -15.8168   23.4386 C   0  0  0  0  0  0  0  0  0  0  0  0
   13.7128  -16.6966   23.4399 C   0  0  2  0  0  0  0  0  0  0  0  0
   12.6577  -15.9670   22.7642 N   0  0  0  0  0  0  0  0  0  0  0  0
   13.2488  -16.9659   24.8247 C   0  0  0  0  0  0  0  0  0  0  0  0
   13.8253  -17.9643   25.6198 O   0  0  0  0  0  0  0  0  0  0  0  0
   12.3149  -16.3121   25.3551 O   0  0  0  0  0  0  0  0  0  0  0  0
  2  1  1  1
  3  2  1  0
  4  3  1  0
  5  4  1  0
  6  5  1  0
  7  6  1  0
  8  2  1  0
  9  8  2  0
 10  8  1  0
 11 10  1  0
 11 12  1  0
 12 17  1  0
 13 12  2  0
 15 14  1  0
 16 15  1  1
 16 18  1  0
 17 16  1  0
 18 20  2  0
 18 19  1  0
M  END
$$$$
