KGS.pdb
     RDKit          3D

 20 19  0  0  1  0  0  0  0  0999 V2000
    9.5245  -17.1087   20.1987 N   0  0  0  0  0  0  0  0  0  0  0  0
    9.3345  -15.9586   21.0479 C   0  0  1  0  0  0  0  0  0  0  0  0
    8.2297  -15.0540   20.4936 C   0  0  0  0  0  0  0  0  0  0  0  0
    8.5901  -14.7862   19.0504 C   0  0  0  0  0  0  0  0  0  0  0  0
    7.6238  -13.8475   18.3887 C   0  0  0  0  0  0  0  0  0  0  0  0
    8.0280  -13.7253   16.9323 C   0  0  0  0  0  0  0  0  0  0  0  0
    7.1272  -12.9055   16.1798 N   0  0  0  0  0  0  0  0  0  0  0  0
    8.9426  -16.3127   22.4197 C   0  0  0  0  0  0  0  0  0  0  0  0
    7.8799  -16.9203   22.6231 O   0  0  0  0  0  0  0  0  0  0  0  0
    9.7780  -15.9587   23.4931 N   0  0  0  0  0  0  0  0  0  0  0  0
    9.4019  -16.3296   24.8328 C   0  0  0  0  0  0  0  0  0  0  0  0
   10.3321  -15.6819   25.7786 C   0  0  0  0  0  0  0  0  0  0  0  0
   11.4013  -15.1258   25.4413 O   0  0  0  0  0  0  0  0  0  0  0  0
    8.9903  -13.9544   28.7548 O   0  0  0  0  0  0  0  0  0  0  0  0
   10.3614  -13.8428   28.6605 C   0  0  0  0  0  0  0  0  0  0  0  0
   10.9323  -15.1543   28.1574 C   0  0  2  0  0  0  0  0  0  0  0  0
   10.0126  -15.6780   27.1664 N   0  0  0  0  0  0  0  0  0  0  0  0
   11.0214  -16.1543   29.2517 C   0  0  0  0  0  0  0  0  0  0  0  0
   11.8885  -15.9897   30.3390 O   0  0  0  0  0  0  0  0  0  0  0  0
   10.3234  -17.2000   29.2591 O   0  0  0  0  0  0  0  0  0  0  0  0
  2  1  1  6
  3  2  1  0
  4  3  1  0
  5  4  1  0
  6  5  1  0
  7  6  1  0
  8  2  1  0
  9  8  2  0
 10  8  1  0
 11 10  1  0
 11 12  1  0
 12 17  1  0
 13 12  2  0
 15 14  1  0
 16 15  1  1
 16 18  1  0
 17 16  1  0
 18 20  2  0
 18 19  1  0
M  END
$$$$
