KGS.pdb
     RDKit          3D

 20 19  0  0  1  0  0  0  0  0999 V2000
    8.0948  -16.3047   19.7293 N   0  0  0  0  0  0  0  0  0  0  0  0
    8.4251  -15.3055   20.7155 C   0  0  1  0  0  0  0  0  0  0  0  0
    7.6406  -14.0147   20.4609 C   0  0  0  0  0  0  0  0  0  0  0  0
    8.2194  -13.4124   19.2013 C   0  0  0  0  0  0  0  0  0  0  0  0
    7.5754  -13.9612   17.9617 C   0  0  0  0  0  0  0  0  0  0  0  0
    8.1918  -13.2509   16.7722 C   0  0  0  0  0  0  0  0  0  0  0  0
    7.6723  -13.7202   15.5233 N   0  0  0  0  0  0  0  0  0  0  0  0
    8.1137  -15.7256   22.0893 C   0  0  0  0  0  0  0  0  0  0  0  0
    7.0976  -16.4011   22.3153 O   0  0  0  0  0  0  0  0  0  0  0  0
    8.9729  -15.3573   23.1388 N   0  0  0  0  0  0  0  0  0  0  0  0
    8.7053  -15.8345   24.4710 C   0  0  0  0  0  0  0  0  0  0  0  0
    9.7691  -15.3434   25.3689 C   0  0  0  0  0  0  0  0  0  0  0  0
   10.8652  -14.8862   24.9738 O   0  0  0  0  0  0  0  0  0  0  0  0
    8.6826  -13.9604   28.7659 O   0  0  0  0  0  0  0  0  0  0  0  0
    9.9961  -13.7103   28.4289 C   0  0  0  0  0  0  0  0  0  0  0  0
   10.5630  -14.9198   27.7115 C   0  0  2  0  0  0  0  0  0  0  0  0
    9.5563  -15.3830   26.7764 N   0  0  0  0  0  0  0  0  0  0  0  0
   10.8294  -16.0297   28.6617 C   0  0  0  0  0  0  0  0  0  0  0  0
   11.8438  -15.9554   29.6243 O   0  0  0  0  0  0  0  0  0  0  0  0
   10.1586  -17.0930   28.6514 O   0  0  0  0  0  0  0  0  0  0  0  0
  2  1  1  6
  3  2  1  0
  4  3  1  0
  5  4  1  0
  6  5  1  0
  7  6  1  0
  8  2  1  0
  9  8  2  0
 10  8  1  0
 11 10  1  0
 11 12  1  0
 12 17  1  0
 13 12  2  0
 15 14  1  0
 16 15  1  1
 16 18  1  0
 17 16  1  0
 18 20  2  0
 18 19  1  0
M  END
$$$$
