KGS.pdb
     RDKit          3D

 20 19  0  0  1  0  0  0  0  0999 V2000
    9.3858  -15.5896   19.7862 N   0  0  0  0  0  0  0  0  0  0  0  0
    8.9390  -14.2509   20.0832 C   0  0  1  0  0  0  0  0  0  0  0  0
    8.0266  -13.7262   18.9703 C   0  0  0  0  0  0  0  0  0  0  0  0
    8.4867  -14.3987   17.6973 C   0  0  0  0  0  0  0  0  0  0  0  0
    7.6664  -13.9874   16.5096 C   0  0  0  0  0  0  0  0  0  0  0  0
    8.2916  -14.6180   15.2804 C   0  0  0  0  0  0  0  0  0  0  0  0
    7.5771  -14.3053   14.0797 N   0  0  0  0  0  0  0  0  0  0  0  0
    8.1732  -14.1626   21.3348 C   0  0  0  0  0  0  0  0  0  0  0  0
    7.7631  -13.0615   21.7339 O   0  0  0  0  0  0  0  0  0  0  0  0
    7.9111  -15.3305   22.0715 N   0  0  0  0  0  0  0  0  0  0  0  0
    7.0903  -15.2514   23.2521 C   0  0  0  0  0  0  0  0  0  0  0  0
    7.8267  -14.4993   24.2872 C   0  0  0  0  0  0  0  0  0  0  0  0
    9.0738  -14.4884   24.3926 O   0  0  0  0  0  0  0  0  0  0  0  0
    5.5226  -12.5684   26.9161 O   0  0  0  0  0  0  0  0  0  0  0  0
    6.7495  -11.9508   26.7953 C   0  0  0  0  0  0  0  0  0  0  0  0
    7.7568  -12.9494   26.2595 C   0  0  2  0  0  0  0  0  0  0  0  0
    7.0923  -13.7315   25.2354 N   0  0  0  0  0  0  0  0  0  0  0  0
    8.1947  -13.8905   27.3216 C   0  0  0  0  0  0  0  0  0  0  0  0
    8.9762  -13.4739   28.4065 O   0  0  0  0  0  0  0  0  0  0  0  0
    7.8869  -15.1093   27.3022 O   0  0  0  0  0  0  0  0  0  0  0  0
  2  1  1  6
  3  2  1  0
  4  3  1  0
  5  4  1  0
  6  5  1  0
  7  6  1  0
  8  2  1  0
  9  8  2  0
 10  8  1  0
 11 10  1  0
 11 12  1  0
 12 17  1  0
 13 12  2  0
 15 14  1  0
 16 15  1  1
 16 18  1  0
 17 16  1  0
 18 20  2  0
 18 19  1  0
M  END
$$$$
