KGS.pdb
     RDKit          3D

 20 19  0  0  1  0  0  0  0  0999 V2000
    8.5945  -16.4993   20.6460 N   0  0  0  0  0  0  0  0  0  0  0  0
    8.6557  -15.3069   21.4550 C   0  0  1  0  0  0  0  0  0  0  0  0
    8.5723  -14.0538   20.5779 C   0  0  0  0  0  0  0  0  0  0  0  0
    8.4536  -14.5448   19.1534 C   0  0  0  0  0  0  0  0  0  0  0  0
    8.3096  -13.4164   18.1742 C   0  0  0  0  0  0  0  0  0  0  0  0
    8.2735  -14.0188   16.7831 C   0  0  0  0  0  0  0  0  0  0  0  0
    8.0839  -13.0323   15.7629 N   0  0  0  0  0  0  0  0  0  0  0  0
    7.5596  -15.2143   22.4300 C   0  0  0  0  0  0  0  0  0  0  0  0
    6.4658  -15.7467   22.1850 O   0  0  0  0  0  0  0  0  0  0  0  0
    7.7606  -14.5210   23.6360 N   0  0  0  0  0  0  0  0  0  0  0  0
    6.7170  -14.5129   24.6284 C   0  0  0  0  0  0  0  0  0  0  0  0
    6.9573  -15.6221   25.5723 C   0  0  0  0  0  0  0  0  0  0  0  0
    6.2015  -15.9056   26.5288 O   0  0  0  0  0  0  0  0  0  0  0  0
    6.8389  -18.9893   25.3168 O   0  0  0  0  0  0  0  0  0  0  0  0
    8.1902  -18.8206   25.5328 C   0  0  0  0  0  0  0  0  0  0  0  0
    8.4128  -17.5322   26.3006 C   0  0  2  0  0  0  0  0  0  0  0  0
    8.1155  -16.4333   25.4028 N   0  0  0  0  0  0  0  0  0  0  0  0
    9.8322  -17.3944   26.7151 C   0  0  0  0  0  0  0  0  0  0  0  0
   10.4373  -18.2937   27.6018 O   0  0  0  0  0  0  0  0  0  0  0  0
   10.5641  -16.4638   26.2918 O   0  0  0  0  0  0  0  0  0  0  0  0
  2  1  1  6
  3  2  1  0
  4  3  1  0
  5  4  1  0
  6  5  1  0
  7  6  1  0
  8  2  1  0
  9  8  2  0
 10  8  1  0
 11 10  1  0
 11 12  1  0
 12 17  1  0
 13 12  2  0
 15 14  1  0
 16 15  1  6
 16 18  1  0
 17 16  1  0
 18 20  2  0
 18 19  1  0
M  END
$$$$
