KGS.pdb
     RDKit          3D

 20 19  0  0  1  0  0  0  0  0999 V2000
   10.7281  -16.0658   19.9403 N   0  0  0  0  0  0  0  0  0  0  0  0
    9.7801  -15.1755   20.5637 C   0  0  1  0  0  0  0  0  0  0  0  0
    8.4778  -15.1231   19.7589 C   0  0  0  0  0  0  0  0  0  0  0  0
    8.8491  -14.5953   18.3922 C   0  0  0  0  0  0  0  0  0  0  0  0
    7.6860  -14.6080   17.4436 C   0  0  0  0  0  0  0  0  0  0  0  0
    8.1914  -14.1398   16.0927 C   0  0  0  0  0  0  0  0  0  0  0  0
    7.1536  -14.0838   15.1080 N   0  0  0  0  0  0  0  0  0  0  0  0
    9.4175  -15.5826   21.9288 C   0  0  0  0  0  0  0  0  0  0  0  0
    9.4257  -16.7839   22.2399 O   0  0  0  0  0  0  0  0  0  0  0  0
    9.0634  -14.6041   22.8736 N   0  0  0  0  0  0  0  0  0  0  0  0
    8.5931  -15.0134   24.1717 C   0  0  0  0  0  0  0  0  0  0  0  0
    9.7484  -15.0911   25.0874 C   0  0  0  0  0  0  0  0  0  0  0  0
   10.9418  -15.0072   24.7199 O   0  0  0  0  0  0  0  0  0  0  0  0
    9.1078  -13.8635   28.6904 O   0  0  0  0  0  0  0  0  0  0  0  0
   10.4127  -13.9402   28.2514 C   0  0  0  0  0  0  0  0  0  0  0  0
   10.5916  -15.2134   27.4478 C   0  0  2  0  0  0  0  0  0  0  0  0
    9.5134  -15.2728   26.4802 N   0  0  0  0  0  0  0  0  0  0  0  0
   10.4762  -16.4140   28.3142 C   0  0  0  0  0  0  0  0  0  0  0  0
   11.4501  -16.7384   29.2668 O   0  0  0  0  0  0  0  0  0  0  0  0
    9.4988  -17.2012   28.2377 O   0  0  0  0  0  0  0  0  0  0  0  0
  2  1  1  6
  3  2  1  0
  4  3  1  0
  5  4  1  0
  6  5  1  0
  7  6  1  0
  8  2  1  0
  9  8  2  0
 10  8  1  0
 11 10  1  0
 11 12  1  0
 12 17  1  0
 13 12  2  0
 15 14  1  0
 16 15  1  1
 16 18  1  0
 17 16  1  0
 18 20  2  0
 18 19  1  0
M  END
$$$$
