KGS.pdb
     RDKit          3D

 20 19  0  0  1  0  0  0  0  0999 V2000
    7.7667  -14.0943   22.2930 N   0  0  0  0  0  0  0  0  0  0  0  0
    8.3106  -15.1760   21.5093 C   0  0  1  0  0  0  0  0  0  0  0  0
    8.9690  -14.6414   20.2337 C   0  0  0  0  0  0  0  0  0  0  0  0
    7.8393  -14.2171   19.3236 C   0  0  0  0  0  0  0  0  0  0  0  0
    8.3177  -13.8922   17.9386 C   0  0  0  0  0  0  0  0  0  0  0  0
    7.0958  -13.6090   17.0864 C   0  0  0  0  0  0  0  0  0  0  0  0
    7.4337  -13.2839   15.7337 N   0  0  0  0  0  0  0  0  0  0  0  0
    9.3379  -15.9468   22.2243 C   0  0  0  0  0  0  0  0  0  0  0  0
    9.7546  -17.0144   21.7484 O   0  0  0  0  0  0  0  0  0  0  0  0
    9.8412  -15.4662   23.4454 N   0  0  0  0  0  0  0  0  0  0  0  0
   10.9009  -16.1850   24.1044 C   0  0  0  0  0  0  0  0  0  0  0  0
   10.3557  -16.8123   25.3244 C   0  0  0  0  0  0  0  0  0  0  0  0
    9.5799  -16.2387   26.1216 O   0  0  0  0  0  0  0  0  0  0  0  0
   11.1043  -20.7773   25.8730 O   0  0  0  0  0  0  0  0  0  0  0  0
   10.0273  -20.2492   26.5531 C   0  0  0  0  0  0  0  0  0  0  0  0
   10.3046  -18.7917   26.8661 C   0  0  2  0  0  0  0  0  0  0  0  0
   10.7223  -18.1534   25.6331 N   0  0  0  0  0  0  0  0  0  0  0  0
   11.4209  -18.6554   27.8360 C   0  0  0  0  0  0  0  0  0  0  0  0
   12.6274  -18.0309   27.4962 O   0  0  0  0  0  0  0  0  0  0  0  0
   11.3411  -19.0932   29.0119 O   0  0  0  0  0  0  0  0  0  0  0  0
  2  1  1  1
  3  2  1  0
  4  3  1  0
  5  4  1  0
  6  5  1  0
  7  6  1  0
  8  2  1  0
  9  8  2  0
 10  8  1  0
 11 10  1  0
 11 12  1  0
 12 17  1  0
 13 12  2  0
 15 14  1  0
 16 15  1  6
 16 18  1  0
 17 16  1  0
 18 20  2  0
 18 19  1  0
M  END
$$$$
