KGS.pdb
     RDKit          3D

 20 19  0  0  1  0  0  0  0  0999 V2000
    9.8797  -15.4154   20.5030 N   0  0  0  0  0  0  0  0  0  0  0  0
    9.2573  -14.2242   21.0260 C   0  0  1  0  0  0  0  0  0  0  0  0
    8.0749  -13.8023   20.1484 C   0  0  0  0  0  0  0  0  0  0  0  0
    8.5481  -13.9247   18.7182 C   0  0  0  0  0  0  0  0  0  0  0  0
    7.4599  -13.6154   17.7318 C   0  0  0  0  0  0  0  0  0  0  0  0
    8.0575  -13.7209   16.3421 C   0  0  0  0  0  0  0  0  0  0  0  0
    7.0785  -13.5587   15.3101 N   0  0  0  0  0  0  0  0  0  0  0  0
    8.7323  -14.3979   22.3880 C   0  0  0  0  0  0  0  0  0  0  0  0
    8.1258  -13.4675   22.9416 O   0  0  0  0  0  0  0  0  0  0  0  0
    8.9226  -15.6208   23.0540 N   0  0  0  0  0  0  0  0  0  0  0  0
    8.4081  -15.7854   24.3890 C   0  0  0  0  0  0  0  0  0  0  0  0
    9.5313  -15.6845   25.3415 C   0  0  0  0  0  0  0  0  0  0  0  0
   10.7323  -15.8485   25.0300 O   0  0  0  0  0  0  0  0  0  0  0  0
    8.6482  -14.0199   28.8561 O   0  0  0  0  0  0  0  0  0  0  0  0
    9.9779  -13.9699   28.4948 C   0  0  0  0  0  0  0  0  0  0  0  0
   10.3159  -15.2001   27.6755 C   0  0  2  0  0  0  0  0  0  0  0  0
    9.2539  -15.3824   26.7053 N   0  0  0  0  0  0  0  0  0  0  0  0
   10.3524  -16.4167   28.5264 C   0  0  0  0  0  0  0  0  0  0  0  0
   11.3527  -16.6225   29.4847 O   0  0  0  0  0  0  0  0  0  0  0  0
    9.4879  -17.3246   28.4309 O   0  0  0  0  0  0  0  0  0  0  0  0
  2  1  1  6
  3  2  1  0
  4  3  1  0
  5  4  1  0
  6  5  1  0
  7  6  1  0
  8  2  1  0
  9  8  2  0
 10  8  1  0
 11 10  1  0
 11 12  1  0
 12 17  1  0
 13 12  2  0
 15 14  1  0
 16 15  1  1
 16 18  1  0
 17 16  1  0
 18 20  2  0
 18 19  1  0
M  END
$$$$
