KGS.pdb
     RDKit          3D

 20 19  0  0  1  0  0  0  0  0999 V2000
    7.6558  -16.7480   20.0522 N   0  0  0  0  0  0  0  0  0  0  0  0
    8.2583  -15.5540   20.5921 C   0  0  1  0  0  0  0  0  0  0  0  0
    7.7863  -14.3156   19.8238 C   0  0  0  0  0  0  0  0  0  0  0  0
    8.1151  -14.5715   18.3710 C   0  0  0  0  0  0  0  0  0  0  0  0
    7.6565  -13.4543   17.4798 C   0  0  0  0  0  0  0  0  0  0  0  0
    8.0265  -13.8224   16.0561 C   0  0  0  0  0  0  0  0  0  0  0  0
    7.6658  -12.8055   15.1151 N   0  0  0  0  0  0  0  0  0  0  0  0
    7.9241  -15.3275   22.0055 C   0  0  0  0  0  0  0  0  0  0  0  0
    6.8059  -15.6490   22.4370 O   0  0  0  0  0  0  0  0  0  0  0  0
    8.8777  -14.7468   22.8593 N   0  0  0  0  0  0  0  0  0  0  0  0
    8.6110  -14.6779   24.2728 C   0  0  0  0  0  0  0  0  0  0  0  0
    9.2681  -15.8239   24.9316 C   0  0  0  0  0  0  0  0  0  0  0  0
    9.2317  -16.9976   24.4985 O   0  0  0  0  0  0  0  0  0  0  0  0
   11.7410  -14.8591   27.9436 O   0  0  0  0  0  0  0  0  0  0  0  0
   12.0499  -16.0295   27.2833 C   0  0  0  0  0  0  0  0  0  0  0  0
   10.7721  -16.6559   26.7601 C   0  0  2  0  0  0  0  0  0  0  0  0
    9.9945  -15.6030   26.1365 N   0  0  0  0  0  0  0  0  0  0  0  0
    9.9557  -17.2126   27.8688 C   0  0  0  0  0  0  0  0  0  0  0  0
   10.3906  -18.2991   28.6378 O   0  0  0  0  0  0  0  0  0  0  0  0
    8.8324  -16.7377   28.1745 O   0  0  0  0  0  0  0  0  0  0  0  0
  2  1  1  6
  3  2  1  0
  4  3  1  0
  5  4  1  0
  6  5  1  0
  7  6  1  0
  8  2  1  0
  9  8  2  0
 10  8  1  0
 11 10  1  0
 11 12  1  0
 12 17  1  0
 13 12  2  0
 15 14  1  0
 16 15  1  1
 16 18  1  0
 17 16  1  0
 18 20  2  0
 18 19  1  0
M  END
$$$$
