KGS.pdb
     RDKit          3D

 20 19  0  0  1  0  0  0  0  0999 V2000
    8.3396  -16.7622   19.4312 N   0  0  0  0  0  0  0  0  0  0  0  0
    8.4242  -15.4345   19.9881 C   0  0  1  0  0  0  0  0  0  0  0  0
    7.8087  -14.4075   19.0327 C   0  0  0  0  0  0  0  0  0  0  0  0
    8.1933  -14.8468   17.6386 C   0  0  0  0  0  0  0  0  0  0  0  0
    7.7139  -13.8874   16.5886 C   0  0  0  0  0  0  0  0  0  0  0  0
    8.2056  -14.3938   15.2464 C   0  0  0  0  0  0  0  0  0  0  0  0
    7.8202  -13.5403   14.1634 N   0  0  0  0  0  0  0  0  0  0  0  0
    7.7147  -15.2995   21.2684 C   0  0  0  0  0  0  0  0  0  0  0  0
    6.8657  -16.1424   21.5982 O   0  0  0  0  0  0  0  0  0  0  0  0
    8.0050  -14.2128   22.1110 N   0  0  0  0  0  0  0  0  0  0  0  0
    7.3773  -14.1351   23.4049 C   0  0  0  0  0  0  0  0  0  0  0  0
    8.4300  -14.1483   24.4397 C   0  0  0  0  0  0  0  0  0  0  0  0
    9.6257  -14.4465   24.2205 O   0  0  0  0  0  0  0  0  0  0  0  0
    7.2597  -12.3428   27.4998 O   0  0  0  0  0  0  0  0  0  0  0  0
    8.5395  -12.7111   27.8570 C   0  0  0  0  0  0  0  0  0  0  0  0
    9.0946  -13.6557   26.8089 C   0  0  2  0  0  0  0  0  0  0  0  0
    8.0860  -13.8035   25.7779 N   0  0  0  0  0  0  0  0  0  0  0  0
    9.3443  -15.0032   27.3811 C   0  0  0  0  0  0  0  0  0  0  0  0
   10.3724  -15.2398   28.3020 O   0  0  0  0  0  0  0  0  0  0  0  0
    8.6461  -16.0011   27.0687 O   0  0  0  0  0  0  0  0  0  0  0  0
  2  1  1  6
  3  2  1  0
  4  3  1  0
  5  4  1  0
  6  5  1  0
  7  6  1  0
  8  2  1  0
  9  8  2  0
 10  8  1  0
 11 10  1  0
 11 12  1  0
 12 17  1  0
 13 12  2  0
 15 14  1  0
 16 15  1  1
 16 18  1  0
 17 16  1  0
 18 20  2  0
 18 19  1  0
M  END
$$$$
