KGS.pdb
     RDKit          3D

 20 19  0  0  1  0  0  0  0  0999 V2000
    8.7794  -15.2437   18.9708 N   0  0  0  0  0  0  0  0  0  0  0  0
    8.8929  -13.9233   19.5397 C   0  0  1  0  0  0  0  0  0  0  0  0
    8.0708  -12.9143   18.7319 C   0  0  0  0  0  0  0  0  0  0  0  0
    7.4487  -13.6926   17.5955 C   0  0  0  0  0  0  0  0  0  0  0  0
    8.4809  -14.2829   16.6796 C   0  0  0  0  0  0  0  0  0  0  0  0
    7.7467  -15.0031   15.5653 C   0  0  0  0  0  0  0  0  0  0  0  0
    8.6349  -15.5282   14.5728 N   0  0  0  0  0  0  0  0  0  0  0  0
    8.4100  -13.8489   20.9261 C   0  0  0  0  0  0  0  0  0  0  0  0
    8.4642  -12.7742   21.5442 O   0  0  0  0  0  0  0  0  0  0  0  0
    7.8890  -14.9999   21.5418 N   0  0  0  0  0  0  0  0  0  0  0  0
    7.2311  -14.8819   22.8175 C   0  0  0  0  0  0  0  0  0  0  0  0
    8.2400  -14.5307   23.8362 C   0  0  0  0  0  0  0  0  0  0  0  0
    9.4724  -14.6907   23.6875 O   0  0  0  0  0  0  0  0  0  0  0  0
    6.7935  -12.8884   27.2273 O   0  0  0  0  0  0  0  0  0  0  0  0
    8.0889  -12.5104   26.9441 C   0  0  0  0  0  0  0  0  0  0  0  0
    8.7481  -13.5882   26.1058 C   0  0  2  0  0  0  0  0  0  0  0  0
    7.8063  -13.9734   25.0729 N   0  0  0  0  0  0  0  0  0  0  0  0
    9.0344  -14.7981   26.9181 C   0  0  0  0  0  0  0  0  0  0  0  0
   10.0165  -14.8066   27.9163 O   0  0  0  0  0  0  0  0  0  0  0  0
    8.4104  -15.8769   26.7520 O   0  0  0  0  0  0  0  0  0  0  0  0
  2  1  1  6
  3  2  1  0
  4  3  1  0
  5  4  1  0
  6  5  1  0
  7  6  1  0
  8  2  1  0
  9  8  2  0
 10  8  1  0
 11 10  1  0
 11 12  1  0
 12 17  1  0
 13 12  2  0
 15 14  1  0
 16 15  1  1
 16 18  1  0
 17 16  1  0
 18 20  2  0
 18 19  1  0
M  END
$$$$
