WME.pdb
     RDKit          3D

 32 33  0  0  1  0  0  0  0  0999 V2000
    6.5629  -18.6000   25.0284 N   0  0  0  0  0  0  0  0  0  0  0  0
    6.9670  -17.2530   24.5907 C   0  0  1  0  0  0  0  0  0  0  0  0
    7.9068  -16.7399   25.6522 C   0  0  0  0  0  0  0  0  0  0  0  0
    7.2300  -15.7159   26.4787 C   0  0  0  0  0  0  0  0  0  0  0  0
    6.4745  -15.9508   27.6161 C   0  0  0  0  0  0  0  0  0  0  0  0
    6.0165  -14.7907   28.0901 N   0  0  0  0  0  0  0  0  0  0  0  0
    6.4586  -13.7893   27.2813 C   0  0  0  0  0  0  0  0  0  0  0  0
    6.2728  -12.4107   27.3303 C   0  0  0  0  0  0  0  0  0  0  0  0
    6.8405  -11.5920   26.3761 C   0  0  0  0  0  0  0  0  0  0  0  0
    7.5988  -12.1881   25.3726 C   0  0  0  0  0  0  0  0  0  0  0  0
    7.7888  -13.5402   25.3133 C   0  0  0  0  0  0  0  0  0  0  0  0
    7.2121  -14.3530   26.2795 C   0  0  0  0  0  0  0  0  0  0  0  0
    7.6433  -17.3394   23.2645 C   0  0  0  0  0  0  0  0  0  0  0  0
    8.1031  -18.4588   22.8544 O   0  0  0  0  0  0  0  0  0  0  0  0
    8.7435  -11.7000   20.1718 C   0  0  0  0  0  0  0  0  0  0  0  0
    7.4015  -12.7394   19.5343 S   0  0  0  0  0  0  0  0  0  0  0  0
    7.2812  -14.2599   20.5473 C   0  0  0  0  0  0  0  0  0  0  0  0
    8.4998  -15.0912   20.3637 C   0  0  0  0  0  0  0  0  0  0  0  0
    8.5127  -16.3901   21.1062 C   0  0  2  0  0  0  0  0  0  0  0  0
    7.8188  -16.2351   22.3979 N   0  0  0  0  0  0  0  0  0  0  0  0
    9.8792  -16.9061   21.3136 C   0  0  0  0  0  0  0  0  0  0  0  0
   10.1842  -18.0846   21.6033 O   0  0  0  0  0  0  0  0  0  0  0  0
   11.0233  -16.0320   21.1876 N   0  0  0  0  0  0  0  0  0  0  0  0
   12.3570  -16.4552   21.4154 C   0  0  1  0  0  0  0  0  0  0  0  0
   13.3818  -15.7367   20.5710 C   0  0  0  0  0  0  0  0  0  0  0  0
   13.0007  -15.6886   19.1137 C   0  0  0  0  0  0  0  0  0  0  0  0
   14.1442  -15.1686   18.3000 C   0  0  0  0  0  0  0  0  0  0  0  0
   14.5199  -13.9779   18.3286 O   0  0  0  0  0  0  0  0  0  0  0  0
   12.8161  -16.3832   22.8142 C   0  0  0  0  0  0  0  0  0  0  0  0
   14.0730  -16.8903   23.0973 O   0  0  0  0  0  0  0  0  0  0  0  0
   14.8299  -16.0641   17.4609 O   0  0  0  0  0  0  0  0  0  0  0  0
   12.1647  -15.9024   23.7645 O   0  0  0  0  0  0  0  0  0  0  0  0
  2  1  1  1
  2  3  1  0
  4  5  2  0
  4  3  1  0
  6  5  1  0
  7 12  2  0
  7  6  1  0
  8  7  1  0
  9 10  1  0
  9  8  2  0
 10 11  2  0
 11 12  1  0
 12  4  1  0
 13  2  1  0
 13 14  2  0
 16 15  1  0
 17 16  1  0
 18 17  1  0
 19 18  1  1
 20 19  1  0
 20 13  1  0
 21 19  1  0
 22 21  2  0
 23 21  1  0
 24 23  1  0
 24 25  1  6
 25 26  1  0
 26 27  1  0
 27 31  1  0
 27 28  2  0
 29 30  1  0
 29 24  1  0
 32 29  2  0
M  END
$$$$
