WME.pdb
     RDKit          3D

 32 33  0  0  1  0  0  0  0  0999 V2000
    7.1775  -18.4891   26.1883 N   0  0  0  0  0  0  0  0  0  0  0  0
    7.8616  -17.2100   25.9334 C   0  0  1  0  0  0  0  0  0  0  0  0
    9.3358  -17.4987   26.0631 C   0  0  0  0  0  0  0  0  0  0  0  0
    9.8234  -17.0682   27.3923 C   0  0  0  0  0  0  0  0  0  0  0  0
   10.2180  -17.8996   28.4278 C   0  0  0  0  0  0  0  0  0  0  0  0
   10.5888  -17.1583   29.4734 N   0  0  0  0  0  0  0  0  0  0  0  0
   10.4451  -15.8456   29.1443 C   0  0  0  0  0  0  0  0  0  0  0  0
   10.6928  -14.6795   29.8629 C   0  0  0  0  0  0  0  0  0  0  0  0
   10.4664  -13.4433   29.2939 C   0  0  0  0  0  0  0  0  0  0  0  0
    9.9865  -13.4043   27.9879 C   0  0  0  0  0  0  0  0  0  0  0  0
    9.7394  -14.5418   27.2717 C   0  0  0  0  0  0  0  0  0  0  0  0
    9.9713  -15.7794   27.8558 C   0  0  0  0  0  0  0  0  0  0  0  0
    7.5230  -16.7252   24.5645 C   0  0  0  0  0  0  0  0  0  0  0  0
    6.6637  -17.3549   23.8590 O   0  0  0  0  0  0  0  0  0  0  0  0
    5.8379  -12.0828   26.0432 C   0  0  0  0  0  0  0  0  0  0  0  0
    7.1741  -12.7459   25.0122 S   0  0  0  0  0  0  0  0  0  0  0  0
    6.5144  -13.1464   23.3517 C   0  0  0  0  0  0  0  0  0  0  0  0
    7.5922  -13.7131   22.4993 C   0  0  0  0  0  0  0  0  0  0  0  0
    7.7709  -15.1961   22.5858 C   0  0  2  0  0  0  0  0  0  0  0  0
    8.1033  -15.5802   23.9700 N   0  0  0  0  0  0  0  0  0  0  0  0
    8.7981  -15.6945   21.6515 C   0  0  0  0  0  0  0  0  0  0  0  0
    8.6830  -15.7780   20.4083 O   0  0  0  0  0  0  0  0  0  0  0  0
   10.0813  -16.1455   22.1402 N   0  0  0  0  0  0  0  0  0  0  0  0
   10.8926  -17.0827   21.4522 C   0  0  1  0  0  0  0  0  0  0  0  0
   12.2901  -16.5899   21.1636 C   0  0  0  0  0  0  0  0  0  0  0  0
   12.3001  -15.2781   20.4217 C   0  0  0  0  0  0  0  0  0  0  0  0
   13.6996  -14.9185   20.0318 C   0  0  0  0  0  0  0  0  0  0  0  0
   14.4724  -14.2728   20.7706 O   0  0  0  0  0  0  0  0  0  0  0  0
   11.0193  -18.4041   22.0929 C   0  0  0  0  0  0  0  0  0  0  0  0
   10.3406  -19.4607   21.5096 O   0  0  0  0  0  0  0  0  0  0  0  0
   14.1687  -15.3269   18.7711 O   0  0  0  0  0  0  0  0  0  0  0  0
   11.6884  -18.6488   23.1180 O   0  0  0  0  0  0  0  0  0  0  0  0
  2  1  1  6
  2  3  1  0
  4  5  2  0
  4  3  1  0
  6  5  1  0
  7 12  2  0
  7  6  1  0
  8  7  1  0
  9 10  1  0
  9  8  2  0
 10 11  2  0
 11 12  1  0
 12  4  1  0
 13  2  1  0
 13 14  2  0
 16 15  1  0
 17 16  1  0
 18 17  1  0
 19 18  1  1
 20 19  1  0
 20 13  1  0
 21 19  1  0
 22 21  2  0
 23 21  1  0
 24 23  1  0
 24 25  1  1
 25 26  1  0
 26 27  1  0
 27 31  1  0
 27 28  2  0
 29 30  1  0
 29 24  1  0
 32 29  2  0
M  END
$$$$
