WME.pdb
     RDKit          3D

 32 33  0  0  1  0  0  0  0  0999 V2000
    6.6030  -18.5789   24.7070 N   0  0  0  0  0  0  0  0  0  0  0  0
    7.0272  -17.2330   24.2853 C   0  0  1  0  0  0  0  0  0  0  0  0
    7.6553  -16.5996   25.5009 C   0  0  0  0  0  0  0  0  0  0  0  0
    6.7913  -15.5123   26.0117 C   0  0  0  0  0  0  0  0  0  0  0  0
    5.4636  -15.6312   26.3892 C   0  0  0  0  0  0  0  0  0  0  0  0
    5.0097  -14.4424   26.7906 N   0  0  0  0  0  0  0  0  0  0  0  0
    6.0198  -13.5365   26.6840 C   0  0  0  0  0  0  0  0  0  0  0  0
    6.0763  -12.1759   26.9725 C   0  0  0  0  0  0  0  0  0  0  0  0
    7.2429  -11.4656   26.7791 C   0  0  0  0  0  0  0  0  0  0  0  0
    8.3511  -12.1516   26.2903 C   0  0  0  0  0  0  0  0  0  0  0  0
    8.3087  -13.4871   26.0032 C   0  0  0  0  0  0  0  0  0  0  0  0
    7.1287  -14.1904   26.2022 C   0  0  0  0  0  0  0  0  0  0  0  0
    8.0059  -17.3443   23.1658 C   0  0  0  0  0  0  0  0  0  0  0  0
    8.1441  -18.4536   22.5470 O   0  0  0  0  0  0  0  0  0  0  0  0
    7.9197  -11.6488   21.0930 C   0  0  0  0  0  0  0  0  0  0  0  0
    7.4839  -12.8218   19.7807 S   0  0  0  0  0  0  0  0  0  0  0  0
    7.6169  -14.5295   20.4277 C   0  0  0  0  0  0  0  0  0  0  0  0
    9.0293  -14.8320   20.7786 C   0  0  0  0  0  0  0  0  0  0  0  0
    9.2792  -16.2025   21.3246 C   0  0  2  0  0  0  0  0  0  0  0  0
    8.8200  -16.2751   22.7239 N   0  0  0  0  0  0  0  0  0  0  0  0
   10.6972  -16.5974   21.2261 C   0  0  0  0  0  0  0  0  0  0  0  0
   11.3872  -16.6065   20.1823 O   0  0  0  0  0  0  0  0  0  0  0  0
   11.4257  -17.0248   22.3990 N   0  0  0  0  0  0  0  0  0  0  0  0
   12.8060  -17.3480   22.3851 C   0  0  1  0  0  0  0  0  0  0  0  0
   13.3072  -17.8435   21.0500 C   0  0  0  0  0  0  0  0  0  0  0  0
   12.5537  -19.0539   20.5614 C   0  0  0  0  0  0  0  0  0  0  0  0
   13.1617  -19.5598   19.2908 C   0  0  0  0  0  0  0  0  0  0  0  0
   14.2190  -19.1031   18.8078 O   0  0  0  0  0  0  0  0  0  0  0  0
   13.7146  -16.2721   22.8204 C   0  0  0  0  0  0  0  0  0  0  0  0
   15.0695  -16.5562   22.8456 O   0  0  0  0  0  0  0  0  0  0  0  0
   12.5110  -20.6008   18.6058 O   0  0  0  0  0  0  0  0  0  0  0  0
   13.3628  -15.1258   23.1679 O   0  0  0  0  0  0  0  0  0  0  0  0
  2  1  1  1
  2  3  1  0
  4  5  2  0
  4  3  1  0
  6  5  1  0
  7 12  2  0
  7  6  1  0
  8  7  1  0
  9 10  1  0
  9  8  2  0
 10 11  2  0
 11 12  1  0
 12  4  1  0
 13  2  1  0
 13 14  2  0
 16 15  1  0
 17 16  1  0
 18 17  1  0
 19 18  1  1
 20 19  1  0
 20 13  1  0
 21 19  1  0
 22 21  2  0
 23 21  1  0
 24 23  1  0
 24 25  1  6
 25 26  1  0
 26 27  1  0
 27 31  1  0
 27 28  2  0
 29 30  1  0
 29 24  1  0
 32 29  2  0
M  END
$$$$
