WME.pdb
     RDKit          3D

 32 33  0  0  1  0  0  0  0  0999 V2000
   11.0836  -17.6703   20.9297 N   0  0  0  0  0  0  0  0  0  0  0  0
   10.1311  -16.6078   21.2943 C   0  0  1  0  0  0  0  0  0  0  0  0
    8.8096  -17.0159   20.6940 C   0  0  0  0  0  0  0  0  0  0  0  0
    8.2257  -15.8877   19.9349 C   0  0  0  0  0  0  0  0  0  0  0  0
    7.8175  -15.9162   18.6113 C   0  0  0  0  0  0  0  0  0  0  0  0
    7.3497  -14.7151   18.2668 N   0  0  0  0  0  0  0  0  0  0  0  0
    7.4426  -13.8902   19.3453 C   0  0  0  0  0  0  0  0  0  0  0  0
    7.0938  -12.5541   19.5206 C   0  0  0  0  0  0  0  0  0  0  0  0
    7.2867  -11.9325   20.7369 C   0  0  0  0  0  0  0  0  0  0  0  0
    7.8369  -12.6820   21.7728 C   0  0  0  0  0  0  0  0  0  0  0  0
    8.1835  -13.9944   21.6136 C   0  0  0  0  0  0  0  0  0  0  0  0
    7.9843  -14.6082   20.3846 C   0  0  0  0  0  0  0  0  0  0  0  0
   10.0422  -16.5030   22.7791 C   0  0  0  0  0  0  0  0  0  0  0  0
   10.8064  -17.2142   23.5159 O   0  0  0  0  0  0  0  0  0  0  0  0
    8.5537  -12.5682   29.1360 C   0  0  0  0  0  0  0  0  0  0  0  0
    8.6715  -12.7483   27.3355 S   0  0  0  0  0  0  0  0  0  0  0  0
    8.0074  -14.3831   26.8468 C   0  0  0  0  0  0  0  0  0  0  0  0
    8.1219  -14.5595   25.3753 C   0  0  0  0  0  0  0  0  0  0  0  0
    9.2060  -15.4842   24.9187 C   0  0  2  0  0  0  0  0  0  0  0  0
    9.1432  -15.6445   23.4543 N   0  0  0  0  0  0  0  0  0  0  0  0
    9.1416  -16.7991   25.5846 C   0  0  0  0  0  0  0  0  0  0  0  0
    8.3674  -17.7363   25.2882 O   0  0  0  0  0  0  0  0  0  0  0  0
   10.0214  -17.1092   26.6885 N   0  0  0  0  0  0  0  0  0  0  0  0
   10.4824  -18.4191   26.9743 C   0  0  1  0  0  0  0  0  0  0  0  0
   11.3190  -19.0289   25.8755 C   0  0  0  0  0  0  0  0  0  0  0  0
   11.6533  -20.4751   26.1368 C   0  0  0  0  0  0  0  0  0  0  0  0
   12.4784  -21.0230   25.0148 C   0  0  0  0  0  0  0  0  0  0  0  0
   12.8889  -20.3268   24.0626 O   0  0  0  0  0  0  0  0  0  0  0  0
   11.2383  -18.5662   28.2312 C   0  0  0  0  0  0  0  0  0  0  0  0
   11.5858  -19.8498   28.6170 O   0  0  0  0  0  0  0  0  0  0  0  0
   12.8082  -22.3895   25.0321 O   0  0  0  0  0  0  0  0  0  0  0  0
   11.5910  -17.6286   28.9761 O   0  0  0  0  0  0  0  0  0  0  0  0
  2  1  1  1
  2  3  1  0
  4  5  2  0
  4  3  1  0
  6  5  1  0
  7 12  2  0
  7  6  1  0
  8  7  1  0
  9 10  1  0
  9  8  2  0
 10 11  2  0
 11 12  1  0
 12  4  1  0
 13  2  1  0
 13 14  2  0
 16 15  1  0
 17 16  1  0
 18 17  1  0
 19 18  1  1
 20 19  1  0
 20 13  1  0
 21 19  1  0
 22 21  2  0
 23 21  1  0
 24 23  1  0
 24 25  1  6
 25 26  1  0
 26 27  1  0
 27 31  1  0
 27 28  2  0
 29 30  1  0
 29 24  1  0
 32 29  2  0
M  END
$$$$
