WME.pdb
     RDKit          3D

 32 33  0  0  1  0  0  0  0  0999 V2000
    5.2730  -18.8994   23.6125 N   0  0  0  0  0  0  0  0  0  0  0  0
    6.6840  -18.9717   23.1967 C   0  0  1  0  0  0  0  0  0  0  0  0
    6.6791  -19.6182   21.8346 C   0  0  0  0  0  0  0  0  0  0  0  0
    5.9818  -20.9221   21.8931 C   0  0  0  0  0  0  0  0  0  0  0  0
    5.0212  -21.3769   21.0043 C   0  0  0  0  0  0  0  0  0  0  0  0
    4.6132  -22.5913   21.3774 N   0  0  0  0  0  0  0  0  0  0  0  0
    5.2911  -22.9476   22.5025 C   0  0  0  0  0  0  0  0  0  0  0  0
    5.2460  -24.0986   23.2839 C   0  0  0  0  0  0  0  0  0  0  0  0
    6.0526  -24.2235   24.3960 C   0  0  0  0  0  0  0  0  0  0  0  0
    6.9054  -23.1678   24.7054 C   0  0  0  0  0  0  0  0  0  0  0  0
    6.9591  -22.0325   23.9464 C   0  0  0  0  0  0  0  0  0  0  0  0
    6.1423  -21.9193   22.8299 C   0  0  0  0  0  0  0  0  0  0  0  0
    7.2608  -17.5976   23.1418 C   0  0  0  0  0  0  0  0  0  0  0  0
    8.3100  -17.3733   22.4479 O   0  0  0  0  0  0  0  0  0  0  0  0
    7.2962  -11.1761   27.8639 C   0  0  0  0  0  0  0  0  0  0  0  0
    6.3554  -12.4660   27.0043 S   0  0  0  0  0  0  0  0  0  0  0  0
    7.5147  -13.5644   26.1086 C   0  0  0  0  0  0  0  0  0  0  0  0
    6.7564  -14.5866   25.3408 C   0  0  0  0  0  0  0  0  0  0  0  0
    7.5844  -15.5123   24.5062 C   0  0  2  0  0  0  0  0  0  0  0  0
    6.7125  -16.4869   23.8250 N   0  0  0  0  0  0  0  0  0  0  0  0
    8.6183  -16.2085   25.2953 C   0  0  0  0  0  0  0  0  0  0  0  0
    8.4253  -17.1642   26.0797 O   0  0  0  0  0  0  0  0  0  0  0  0
   10.0045  -15.8088   25.2083 N   0  0  0  0  0  0  0  0  0  0  0  0
   11.0566  -16.4936   25.8672 C   0  0  1  0  0  0  0  0  0  0  0  0
   12.3478  -16.5327   25.0859 C   0  0  0  0  0  0  0  0  0  0  0  0
   12.2253  -15.8827   23.7317 C   0  0  0  0  0  0  0  0  0  0  0  0
   13.5646  -15.8246   23.0661 C   0  0  0  0  0  0  0  0  0  0  0  0
   13.7142  -15.6096   21.8449 O   0  0  0  0  0  0  0  0  0  0  0  0
   11.3801  -16.0088   27.2211 C   0  0  0  0  0  0  0  0  0  0  0  0
   10.6833  -14.9056   27.6842 O   0  0  0  0  0  0  0  0  0  0  0  0
   14.7122  -16.0224   23.8536 O   0  0  0  0  0  0  0  0  0  0  0  0
   12.2305  -16.5114   27.9843 O   0  0  0  0  0  0  0  0  0  0  0  0
  2  1  1  6
  2  3  1  0
  4  5  2  0
  4  3  1  0
  6  5  1  0
  7 12  2  0
  7  6  1  0
  8  7  1  0
  9 10  1  0
  9  8  2  0
 10 11  2  0
 11 12  1  0
 12  4  1  0
 13  2  1  0
 13 14  2  0
 16 15  1  0
 17 16  1  0
 18 17  1  0
 19 18  1  1
 20 19  1  0
 20 13  1  0
 21 19  1  0
 22 21  2  0
 23 21  1  0
 24 23  1  0
 24 25  1  6
 25 26  1  0
 26 27  1  0
 27 31  1  0
 27 28  2  0
 29 30  1  0
 29 24  1  0
 32 29  2  0
M  END
$$$$
