WME.pdb
     RDKit          3D

 32 33  0  0  1  0  0  0  0  0999 V2000
    6.4968  -17.5168   25.1099 N   0  0  0  0  0  0  0  0  0  0  0  0
    7.1435  -16.4740   24.2953 C   0  0  1  0  0  0  0  0  0  0  0  0
    8.2749  -15.9380   25.1354 C   0  0  0  0  0  0  0  0  0  0  0  0
    7.7408  -15.1080   26.2380 C   0  0  0  0  0  0  0  0  0  0  0  0
    7.4173  -15.5485   27.5111 C   0  0  0  0  0  0  0  0  0  0  0  0
    6.9594  -14.5226   28.2310 N   0  0  0  0  0  0  0  0  0  0  0  0
    6.9750  -13.4073   27.4512 C   0  0  0  0  0  0  0  0  0  0  0  0
    6.6090  -12.0901   27.7136 C   0  0  0  0  0  0  0  0  0  0  0  0
    6.7250  -11.1221   26.7377 C   0  0  0  0  0  0  0  0  0  0  0  0
    7.2169  -11.5057   25.4934 C   0  0  0  0  0  0  0  0  0  0  0  0
    7.5798  -12.7954   25.2231 C   0  0  0  0  0  0  0  0  0  0  0  0
    7.4582  -13.7600   26.2138 C   0  0  0  0  0  0  0  0  0  0  0  0
    7.6477  -17.0715   23.0255 C   0  0  0  0  0  0  0  0  0  0  0  0
    7.7274  -18.3411   22.9052 O   0  0  0  0  0  0  0  0  0  0  0  0
    6.8130  -12.3362   19.7071 C   0  0  0  0  0  0  0  0  0  0  0  0
    8.1143  -13.4591   20.2847 S   0  0  0  0  0  0  0  0  0  0  0  0
    8.1206  -14.9642   19.2420 C   0  0  0  0  0  0  0  0  0  0  0  0
    9.1242  -15.9337   19.7542 C   0  0  0  0  0  0  0  0  0  0  0  0
    8.5992  -16.9656   20.7021 C   0  0  2  0  0  0  0  0  0  0  0  0
    8.0579  -16.3095   21.9065 N   0  0  0  0  0  0  0  0  0  0  0  0
    9.6227  -17.9613   21.0731 C   0  0  0  0  0  0  0  0  0  0  0  0
    9.5126  -19.2033   20.9679 O   0  0  0  0  0  0  0  0  0  0  0  0
   10.8956  -17.5421   21.6144 N   0  0  0  0  0  0  0  0  0  0  0  0
   12.1430  -17.9238   21.0593 C   0  0  1  0  0  0  0  0  0  0  0  0
   12.3270  -17.5089   19.6194 C   0  0  0  0  0  0  0  0  0  0  0  0
   13.6338  -17.9877   19.0411 C   0  0  0  0  0  0  0  0  0  0  0  0
   13.4063  -18.6016   17.6952 C   0  0  0  0  0  0  0  0  0  0  0  0
   12.3612  -19.2128   17.3887 O   0  0  0  0  0  0  0  0  0  0  0  0
   13.3335  -17.4693   21.8001 C   0  0  0  0  0  0  0  0  0  0  0  0
   13.3381  -16.1613   22.2543 O   0  0  0  0  0  0  0  0  0  0  0  0
   14.4189  -18.4854   16.7271 O   0  0  0  0  0  0  0  0  0  0  0  0
   14.3378  -18.1669   22.0516 O   0  0  0  0  0  0  0  0  0  0  0  0
  2  1  1  1
  2  3  1  0
  4  5  2  0
  4  3  1  0
  6  5  1  0
  7 12  2  0
  7  6  1  0
  8  7  1  0
  9 10  1  0
  9  8  2  0
 10 11  2  0
 11 12  1  0
 12  4  1  0
 13  2  1  0
 13 14  2  0
 16 15  1  0
 17 16  1  0
 18 17  1  0
 19 18  1  6
 20 19  1  0
 20 13  1  0
 21 19  1  0
 22 21  2  0
 23 21  1  0
 24 23  1  0
 24 25  1  6
 25 26  1  0
 26 27  1  0
 27 31  1  0
 27 28  2  0
 29 30  1  0
 29 24  1  0
 32 29  2  0
M  END
$$$$
