WME.pdb
     RDKit          3D

 32 33  0  0  1  0  0  0  0  0999 V2000
    7.8613  -17.4695   22.5253 N   0  0  0  0  0  0  0  0  0  0  0  0
    8.7146  -16.2858   22.3250 C   0  0  1  0  0  0  0  0  0  0  0  0
    7.7808  -15.1021   22.3154 C   0  0  0  0  0  0  0  0  0  0  0  0
    7.1990  -14.9022   23.6613 C   0  0  0  0  0  0  0  0  0  0  0  0
    6.6280  -15.8802   24.4593 C   0  0  0  0  0  0  0  0  0  0  0  0
    6.2058  -15.3300   25.5992 N   0  0  0  0  0  0  0  0  0  0  0  0
    6.4897  -13.9994   25.5672 C   0  0  0  0  0  0  0  0  0  0  0  0
    6.2667  -12.9836   26.4924 C   0  0  0  0  0  0  0  0  0  0  0  0
    6.6594  -11.6892   26.2214 C   0  0  0  0  0  0  0  0  0  0  0  0
    7.2811  -11.4379   25.0016 C   0  0  0  0  0  0  0  0  0  0  0  0
    7.5059  -12.4262   24.0849 C   0  0  0  0  0  0  0  0  0  0  0  0
    7.1059  -13.7245   24.3697 C   0  0  0  0  0  0  0  0  0  0  0  0
    9.7028  -16.1870   23.4373 C   0  0  0  0  0  0  0  0  0  0  0  0
   10.2983  -15.0797   23.6653 O   0  0  0  0  0  0  0  0  0  0  0  0
   10.6857  -12.9683   28.6546 C   0  0  0  0  0  0  0  0  0  0  0  0
    9.6908  -14.4829   28.5910 S   0  0  0  0  0  0  0  0  0  0  0  0
   10.6372  -15.7920   27.7288 C   0  0  0  0  0  0  0  0  0  0  0  0
   10.0843  -16.0055   26.3657 C   0  0  0  0  0  0  0  0  0  0  0  0
   10.7845  -17.0382   25.5398 C   0  0  2  0  0  0  0  0  0  0  0  0
   10.0404  -17.2662   24.2874 N   0  0  0  0  0  0  0  0  0  0  0  0
   10.9715  -18.3082   26.2669 C   0  0  0  0  0  0  0  0  0  0  0  0
   10.7048  -18.5115   27.4724 O   0  0  0  0  0  0  0  0  0  0  0  0
   11.5066  -19.4700   25.5940 N   0  0  0  0  0  0  0  0  0  0  0  0
   12.7885  -20.0092   25.8690 C   0  0  1  0  0  0  0  0  0  0  0  0
   13.9269  -19.2299   25.2558 C   0  0  0  0  0  0  0  0  0  0  0  0
   14.0010  -19.3935   23.7594 C   0  0  0  0  0  0  0  0  0  0  0  0
   15.2202  -18.7080   23.2269 C   0  0  0  0  0  0  0  0  0  0  0  0
   15.9250  -17.9352   23.9095 O   0  0  0  0  0  0  0  0  0  0  0  0
   13.1062  -20.1958   27.2963 C   0  0  0  0  0  0  0  0  0  0  0  0
   12.7390  -19.1833   28.1665 O   0  0  0  0  0  0  0  0  0  0  0  0
   15.5915  -18.9446   21.8919 O   0  0  0  0  0  0  0  0  0  0  0  0
   13.6788  -21.1917   27.7848 O   0  0  0  0  0  0  0  0  0  0  0  0
  2  1  1  1
  2  3  1  0
  4  5  2  0
  4  3  1  0
  6  5  1  0
  7 12  2  0
  7  6  1  0
  8  7  1  0
  9 10  1  0
  9  8  2  0
 10 11  2  0
 11 12  1  0
 12  4  1  0
 13  2  1  0
 13 14  2  0
 16 15  1  0
 17 16  1  0
 18 17  1  0
 19 18  1  1
 20 19  1  0
 20 13  1  0
 21 19  1  0
 22 21  2  0
 23 21  1  0
 24 23  1  0
 24 25  1  1
 25 26  1  0
 26 27  1  0
 27 31  1  0
 27 28  2  0
 29 30  1  0
 29 24  1  0
 32 29  2  0
M  END
$$$$
