WME.pdb
     RDKit          3D

 32 33  0  0  1  0  0  0  0  0999 V2000
    7.2438  -16.9110   25.0499 N   0  0  0  0  0  0  0  0  0  0  0  0
    7.7205  -15.5807   24.6349 C   0  0  1  0  0  0  0  0  0  0  0  0
    9.0006  -15.3462   25.3962 C   0  0  0  0  0  0  0  0  0  0  0  0
    8.7460  -14.4705   26.5617 C   0  0  0  0  0  0  0  0  0  0  0  0
    9.1590  -14.7008   27.8639 C   0  0  0  0  0  0  0  0  0  0  0  0
    8.7417  -13.7016   28.6435 N   0  0  0  0  0  0  0  0  0  0  0  0
    8.0571  -12.8114   27.8746 C   0  0  0  0  0  0  0  0  0  0  0  0
    7.4273  -11.6105   28.1886 C   0  0  0  0  0  0  0  0  0  0  0  0
    6.7924  -10.8744   27.2098 C   0  0  0  0  0  0  0  0  0  0  0  0
    6.8045  -11.3705   25.9093 C   0  0  0  0  0  0  0  0  0  0  0  0
    7.4193  -12.5481   25.5880 C   0  0  0  0  0  0  0  0  0  0  0  0
    8.0546  -13.2793   26.5822 C   0  0  0  0  0  0  0  0  0  0  0  0
    7.9564  -15.5703   23.1625 C   0  0  0  0  0  0  0  0  0  0  0  0
    8.8015  -14.7558   22.6574 O   0  0  0  0  0  0  0  0  0  0  0  0
    8.5409  -11.9089   19.4141 C   0  0  0  0  0  0  0  0  0  0  0  0
    8.7508  -13.5712   18.7208 S   0  0  0  0  0  0  0  0  0  0  0  0
    7.2097  -14.5285   18.9684 C   0  0  0  0  0  0  0  0  0  0  0  0
    7.0442  -14.8629   20.4072 C   0  0  0  0  0  0  0  0  0  0  0  0
    7.4463  -16.2502   20.7977 C   0  0  2  0  0  0  0  0  0  0  0  0
    7.2905  -16.4254   22.2534 N   0  0  0  0  0  0  0  0  0  0  0  0
    8.8249  -16.5739   20.3840 C   0  0  0  0  0  0  0  0  0  0  0  0
    9.1828  -16.9431   19.2432 O   0  0  0  0  0  0  0  0  0  0  0  0
    9.9175  -16.4796   21.3254 N   0  0  0  0  0  0  0  0  0  0  0  0
   11.2719  -16.7076   20.9739 C   0  0  1  0  0  0  0  0  0  0  0  0
   12.0006  -15.4717   20.5040 C   0  0  0  0  0  0  0  0  0  0  0  0
   13.4390  -15.7474   20.1485 C   0  0  0  0  0  0  0  0  0  0  0  0
   14.1057  -14.4885   19.6897 C   0  0  0  0  0  0  0  0  0  0  0  0
   14.9511  -13.8727   20.3725 O   0  0  0  0  0  0  0  0  0  0  0  0
   12.1025  -17.3334   22.0184 C   0  0  0  0  0  0  0  0  0  0  0  0
   13.3648  -17.7677   21.6510 O   0  0  0  0  0  0  0  0  0  0  0  0
   13.7639  -13.9719   18.4278 O   0  0  0  0  0  0  0  0  0  0  0  0
   11.7612  -17.5038   23.2071 O   0  0  0  0  0  0  0  0  0  0  0  0
  2  1  1  1
  2  3  1  0
  4  5  2  0
  4  3  1  0
  6  5  1  0
  7 12  2  0
  7  6  1  0
  8  7  1  0
  9 10  1  0
  9  8  2  0
 10 11  2  0
 11 12  1  0
 12  4  1  0
 13  2  1  0
 13 14  2  0
 16 15  1  0
 17 16  1  0
 18 17  1  0
 19 18  1  1
 20 19  1  0
 20 13  1  0
 21 19  1  0
 22 21  2  0
 23 21  1  0
 24 23  1  0
 24 25  1  1
 25 26  1  0
 26 27  1  0
 27 31  1  0
 27 28  2  0
 29 30  1  0
 29 24  1  0
 32 29  2  0
M  END
$$$$
