WME.pdb
     RDKit          3D

 32 33  0  0  1  0  0  0  0  0999 V2000
   11.0858  -16.2399   20.6567 N   0  0  0  0  0  0  0  0  0  0  0  0
    9.9170  -15.6938   21.3674 C   0  0  1  0  0  0  0  0  0  0  0  0
    8.7541  -16.5736   20.9841 C   0  0  0  0  0  0  0  0  0  0  0  0
    8.1265  -16.0738   19.7407 C   0  0  0  0  0  0  0  0  0  0  0  0
    7.5932  -16.8497   18.7242 C   0  0  0  0  0  0  0  0  0  0  0  0
    7.1223  -16.0546   17.7616 N   0  0  0  0  0  0  0  0  0  0  0  0
    7.3367  -14.7612   18.1269 C   0  0  0  0  0  0  0  0  0  0  0  0
    7.0369  -13.5591   17.4924 C   0  0  0  0  0  0  0  0  0  0  0  0
    7.3593  -12.3547   18.0827 C   0  0  0  0  0  0  0  0  0  0  0  0
    7.9885  -12.3843   19.3240 C   0  0  0  0  0  0  0  0  0  0  0  0
    8.2882  -13.5577   19.9574 C   0  0  0  0  0  0  0  0  0  0  0  0
    7.9585  -14.7628   19.3527 C   0  0  0  0  0  0  0  0  0  0  0  0
   10.1628  -15.7311   22.8377 C   0  0  0  0  0  0  0  0  0  0  0  0
   11.0604  -16.5049   23.3153 O   0  0  0  0  0  0  0  0  0  0  0  0
    5.7632  -12.7931   28.1141 C   0  0  0  0  0  0  0  0  0  0  0  0
    7.5468  -12.9446   27.8249 S   0  0  0  0  0  0  0  0  0  0  0  0
    7.8304  -13.7506   26.2055 C   0  0  0  0  0  0  0  0  0  0  0  0
    9.2813  -13.7470   25.8826 C   0  0  0  0  0  0  0  0  0  0  0  0
    9.7952  -14.9795   25.2073 C   0  0  2  0  0  0  0  0  0  0  0  0
    9.4506  -14.9454   23.7741 N   0  0  0  0  0  0  0  0  0  0  0  0
    9.2867  -16.2161   25.8307 C   0  0  0  0  0  0  0  0  0  0  0  0
    8.4416  -16.9952   25.3362 O   0  0  0  0  0  0  0  0  0  0  0  0
    9.7603  -16.6338   27.1308 N   0  0  0  0  0  0  0  0  0  0  0  0
   10.2290  -17.9431   27.4065 C   0  0  1  0  0  0  0  0  0  0  0  0
   11.3216  -18.4126   26.4765 C   0  0  0  0  0  0  0  0  0  0  0  0
   10.7993  -19.2809   25.3608 C   0  0  0  0  0  0  0  0  0  0  0  0
   11.9328  -19.9857   24.6839 C   0  0  0  0  0  0  0  0  0  0  0  0
   12.7451  -20.7160   25.2895 O   0  0  0  0  0  0  0  0  0  0  0  0
   10.7003  -18.1719   28.7843 C   0  0  0  0  0  0  0  0  0  0  0  0
   11.0904  -19.4581   29.1169 O   0  0  0  0  0  0  0  0  0  0  0  0
   12.0926  -19.8177   23.2974 O   0  0  0  0  0  0  0  0  0  0  0  0
   10.7767  -17.3012   29.6756 O   0  0  0  0  0  0  0  0  0  0  0  0
  2  1  1  6
  2  3  1  0
  4  5  2  0
  4  3  1  0
  6  5  1  0
  7 12  2  0
  7  6  1  0
  8  7  1  0
  9 10  1  0
  9  8  2  0
 10 11  2  0
 11 12  1  0
 12  4  1  0
 13  2  1  0
 13 14  2  0
 16 15  1  0
 17 16  1  0
 18 17  1  0
 19 18  1  1
 20 19  1  0
 20 13  1  0
 21 19  1  0
 22 21  2  0
 23 21  1  0
 24 23  1  0
 24 25  1  6
 25 26  1  0
 26 27  1  0
 27 31  1  0
 27 28  2  0
 29 30  1  0
 29 24  1  0
 32 29  2  0
M  END
$$$$
