WME.pdb
     RDKit          3D

 32 33  0  0  1  0  0  0  0  0999 V2000
    6.6932  -16.8995   25.9057 N   0  0  0  0  0  0  0  0  0  0  0  0
    7.1196  -16.1148   24.7345 C   0  0  1  0  0  0  0  0  0  0  0  0
    8.4733  -15.5520   25.0867 C   0  0  0  0  0  0  0  0  0  0  0  0
    8.3679  -14.6821   26.2792 C   0  0  0  0  0  0  0  0  0  0  0  0
    9.0146  -14.8712   27.4897 C   0  0  0  0  0  0  0  0  0  0  0  0
    8.6744  -13.8927   28.3305 N   0  0  0  0  0  0  0  0  0  0  0  0
    7.8099  -13.0570   27.6928 C   0  0  0  0  0  0  0  0  0  0  0  0
    7.1668  -11.8960   28.1123 C   0  0  0  0  0  0  0  0  0  0  0  0
    6.3249  -11.2130   27.2591 C   0  0  0  0  0  0  0  0  0  0  0  0
    6.1437  -11.7213   25.9760 C   0  0  0  0  0  0  0  0  0  0  0  0
    6.7693  -12.8601   25.5520 C   0  0  0  0  0  0  0  0  0  0  0  0
    7.6140  -13.5379   26.4202 C   0  0  0  0  0  0  0  0  0  0  0  0
    7.1964  -17.0020   23.5384 C   0  0  0  0  0  0  0  0  0  0  0  0
    6.2797  -17.8662   23.3250 O   0  0  0  0  0  0  0  0  0  0  0  0
    7.9384  -11.9641   18.4647 C   0  0  0  0  0  0  0  0  0  0  0  0
    8.4149  -12.9188   19.9308 S   0  0  0  0  0  0  0  0  0  0  0  0
    7.1143  -14.1545   20.2965 C   0  0  0  0  0  0  0  0  0  0  0  0
    7.4648  -14.9135   21.5256 C   0  0  0  0  0  0  0  0  0  0  0  0
    8.0682  -16.2640   21.3000 C   0  0  2  0  0  0  0  0  0  0  0  0
    8.2455  -16.9548   22.5906 N   0  0  0  0  0  0  0  0  0  0  0  0
    9.3498  -16.1933   20.5727 C   0  0  0  0  0  0  0  0  0  0  0  0
    9.5076  -16.3619   19.3429 O   0  0  0  0  0  0  0  0  0  0  0  0
   10.5802  -15.9072   21.2750 N   0  0  0  0  0  0  0  0  0  0  0  0
   11.7096  -16.7638   21.2506 C   0  0  1  0  0  0  0  0  0  0  0  0
   12.9231  -16.1611   20.5848 C   0  0  0  0  0  0  0  0  0  0  0  0
   12.5845  -14.9568   19.7444 C   0  0  0  0  0  0  0  0  0  0  0  0
   13.8361  -14.3362   19.2073 C   0  0  0  0  0  0  0  0  0  0  0  0
   14.8628  -14.1583   19.8958 O   0  0  0  0  0  0  0  0  0  0  0  0
   12.1425  -17.2813   22.5611 C   0  0  0  0  0  0  0  0  0  0  0  0
   13.1817  -18.1963   22.5710 O   0  0  0  0  0  0  0  0  0  0  0  0
   13.8581  -13.9326   17.8609 O   0  0  0  0  0  0  0  0  0  0  0  0
   11.6493  -16.9622   23.6626 O   0  0  0  0  0  0  0  0  0  0  0  0
  2  1  1  1
  2  3  1  0
  4  5  2  0
  4  3  1  0
  6  5  1  0
  7 12  2  0
  7  6  1  0
  8  7  1  0
  9 10  1  0
  9  8  2  0
 10 11  2  0
 11 12  1  0
 12  4  1  0
 13  2  1  0
 13 14  2  0
 16 15  1  0
 17 16  1  0
 18 17  1  0
 19 18  1  1
 20 19  1  0
 20 13  1  0
 21 19  1  0
 22 21  2  0
 23 21  1  0
 24 23  1  0
 24 25  1  1
 25 26  1  0
 26 27  1  0
 27 31  1  0
 27 28  2  0
 29 30  1  0
 29 24  1  0
 32 29  2  0
M  END
$$$$
