WME.pdb
     RDKit          3D

 32 33  0  0  1  0  0  0  0  0999 V2000
    8.9284  -15.9649   20.0768 N   0  0  0  0  0  0  0  0  0  0  0  0
    8.0073  -16.3817   21.1478 C   0  0  1  0  0  0  0  0  0  0  0  0
    8.1852  -17.8725   21.2867 C   0  0  0  0  0  0  0  0  0  0  0  0
    7.1403  -18.5834   20.5171 C   0  0  0  0  0  0  0  0  0  0  0  0
    7.3370  -19.3314   19.3677 C   0  0  0  0  0  0  0  0  0  0  0  0
    6.1663  -19.8163   18.9498 N   0  0  0  0  0  0  0  0  0  0  0  0
    5.1955  -19.3992   19.8076 C   0  0  0  0  0  0  0  0  0  0  0  0
    3.8221  -19.6243   19.8301 C   0  0  0  0  0  0  0  0  0  0  0  0
    3.0389  -19.0839   20.8289 C   0  0  0  0  0  0  0  0  0  0  0  0
    3.6653  -18.3133   21.8043 C   0  0  0  0  0  0  0  0  0  0  0  0
    5.0127  -18.0849   21.7935 C   0  0  0  0  0  0  0  0  0  0  0  0
    5.7896  -18.6344   20.7829 C   0  0  0  0  0  0  0  0  0  0  0  0
    8.3575  -15.6742   22.4128 C   0  0  0  0  0  0  0  0  0  0  0  0
    9.5447  -15.2371   22.5919 O   0  0  0  0  0  0  0  0  0  0  0  0
    7.2974  -10.6513   27.3515 C   0  0  0  0  0  0  0  0  0  0  0  0
    7.9915  -12.0817   26.4796 S   0  0  0  0  0  0  0  0  0  0  0  0
    6.8673  -13.5135   26.6764 C   0  0  0  0  0  0  0  0  0  0  0  0
    6.6243  -14.1544   25.3575 C   0  0  0  0  0  0  0  0  0  0  0  0
    7.8396  -14.6844   24.6638 C   0  0  2  0  0  0  0  0  0  0  0  0
    7.4401  -15.4438   23.4647 N   0  0  0  0  0  0  0  0  0  0  0  0
    8.6733  -15.5196   25.5491 C   0  0  0  0  0  0  0  0  0  0  0  0
    9.2122  -15.1496   26.6161 O   0  0  0  0  0  0  0  0  0  0  0  0
    8.9377  -16.9025   25.2225 N   0  0  0  0  0  0  0  0  0  0  0  0
    9.6984  -17.7675   26.0489 C   0  0  1  0  0  0  0  0  0  0  0  0
   10.6518  -18.6596   25.2910 C   0  0  0  0  0  0  0  0  0  0  0  0
   10.1347  -19.0321   23.9252 C   0  0  0  0  0  0  0  0  0  0  0  0
   11.2595  -19.5137   23.0633 C   0  0  0  0  0  0  0  0  0  0  0  0
   12.4308  -19.6460   23.4759 O   0  0  0  0  0  0  0  0  0  0  0  0
   10.4724  -17.1082   27.1160 C   0  0  0  0  0  0  0  0  0  0  0  0
   11.1323  -17.9243   28.0192 O   0  0  0  0  0  0  0  0  0  0  0  0
   10.9852  -19.8329   21.7220 O   0  0  0  0  0  0  0  0  0  0  0  0
   10.5820  -15.8744   27.2722 O   0  0  0  0  0  0  0  0  0  0  0  0
  2  1  1  6
  2  3  1  0
  4  5  2  0
  4  3  1  0
  6  5  1  0
  7 12  2  0
  7  6  1  0
  8  7  1  0
  9 10  1  0
  9  8  2  0
 10 11  2  0
 11 12  1  0
 12  4  1  0
 13  2  1  0
 13 14  2  0
 16 15  1  0
 17 16  1  0
 18 17  1  0
 19 18  1  1
 20 19  1  0
 20 13  1  0
 21 19  1  0
 22 21  2  0
 23 21  1  0
 24 23  1  0
 24 25  1  6
 25 26  1  0
 26 27  1  0
 27 31  1  0
 27 28  2  0
 29 30  1  0
 29 24  1  0
 32 29  2  0
M  END
$$$$
