VKA.pdb
     RDKit          3D

 22 21  0  0  1  0  0  0  0  0999 V2000
    7.6568  -15.0588   17.2827 C   0  0  0  0  0  0  0  0  0  0  0  0
    8.1018  -15.0240   18.7082 C   0  0  2  0  0  0  0  0  0  0  0  0
    7.5954  -16.1948   19.5224 C   0  0  0  0  0  0  0  0  0  0  0  0
    7.7780  -13.7068   19.3817 C   0  0  2  0  0  0  0  0  0  0  0  0
    8.4323  -12.6678   18.6051 N   0  0  0  0  0  0  0  0  0  0  0  0
    8.3178  -13.7181   20.7637 C   0  0  0  0  0  0  0  0  0  0  0  0
    9.5501  -13.7262   20.9506 O   0  0  0  0  0  0  0  0  0  0  0  0
    7.4521  -13.7199   21.9013 N   0  0  0  0  0  0  0  0  0  0  0  0
    7.9282  -13.6864   23.2487 C   0  0  1  0  0  0  0  0  0  0  0  0
    6.8822  -13.0353   24.1409 C   0  0  0  0  0  0  0  0  0  0  0  0
    7.2895  -13.0199   25.5705 C   0  0  0  0  0  0  0  0  0  0  0  0
    6.2703  -12.2985   26.4022 C   0  0  0  0  0  0  0  0  0  0  0  0
    6.6386  -12.2488   27.8530 C   0  0  0  0  0  0  0  0  0  0  0  0
    5.6276  -11.5054   28.6064 N   0  0  0  0  0  0  0  0  0  0  0  0
    8.2281  -15.0645   23.6932 C   0  0  0  0  0  0  0  0  0  0  0  0
    7.3357  -15.9393   23.6871 O   0  0  0  0  0  0  0  0  0  0  0  0
   11.1596  -17.1606   23.8570 C   0  0  0  0  0  0  0  0  0  0  0  0
    9.8682  -16.7801   24.5520 C   0  0  2  0  0  0  0  0  0  0  0  0
    9.5312  -15.4474   24.1413 N   0  0  0  0  0  0  0  0  0  0  0  0
    9.9707  -16.8543   26.0130 C   0  0  0  0  0  0  0  0  0  0  0  0
   10.2253  -18.0377   26.7035 O   0  0  0  0  0  0  0  0  0  0  0  0
    9.8269  -15.8157   26.7084 O   0  0  0  0  0  0  0  0  0  0  0  0
  2  3  1  1
  2  1  1  0
  4  2  1  0
  4  6  1  0
  4  5  1  6
  6  7  2  0
  8  6  1  0
  8  9  1  0
  9 10  1  1
 10 11  1  0
 12 11  1  0
 13 12  1  0
 14 13  1  0
 15 19  1  0
 15  9  1  0
 16 15  2  0
 18 17  1  6
 18 20  1  0
 18 19  1  0
 20 21  1  0
 22 20  2  0
M  END
$$$$
