VKA.pdb
     RDKit          3D

 22 21  0  0  1  0  0  0  0  0999 V2000
    7.2802  -12.6776   21.2691 C   0  0  0  0  0  0  0  0  0  0  0  0
    8.5452  -13.1050   20.5996 C   0  0  2  0  0  0  0  0  0  0  0  0
    8.7809  -12.4194   19.2713 C   0  0  0  0  0  0  0  0  0  0  0  0
    8.6469  -14.6100   20.4655 C   0  0  2  0  0  0  0  0  0  0  0  0
    7.6236  -15.0156   19.5172 N   0  0  0  0  0  0  0  0  0  0  0  0
    8.3881  -15.2375   21.7848 C   0  0  0  0  0  0  0  0  0  0  0  0
    7.2162  -15.4214   22.1675 O   0  0  0  0  0  0  0  0  0  0  0  0
    9.4597  -15.6422   22.6400 N   0  0  0  0  0  0  0  0  0  0  0  0
    9.2565  -16.2761   23.9050 C   0  0  1  0  0  0  0  0  0  0  0  0
    9.8428  -17.6794   23.8698 C   0  0  0  0  0  0  0  0  0  0  0  0
    9.1551  -18.5545   22.8844 C   0  0  0  0  0  0  0  0  0  0  0  0
    9.7956  -19.9106   22.8452 C   0  0  0  0  0  0  0  0  0  0  0  0
    9.2021  -20.8000   21.7964 C   0  0  0  0  0  0  0  0  0  0  0  0
    9.8234  -22.1244   21.8456 N   0  0  0  0  0  0  0  0  0  0  0  0
    9.8857  -15.4594   24.9651 C   0  0  0  0  0  0  0  0  0  0  0  0
   11.1179  -15.2512   24.9556 O   0  0  0  0  0  0  0  0  0  0  0  0
    8.6637  -13.2147   27.6636 C   0  0  0  0  0  0  0  0  0  0  0  0
    9.7075  -14.1750   27.1306 C   0  0  2  0  0  0  0  0  0  0  0  0
    9.1225  -14.8830   26.0284 N   0  0  0  0  0  0  0  0  0  0  0  0
   10.1803  -15.1170   28.1502 C   0  0  0  0  0  0  0  0  0  0  0  0
   11.0891  -14.7718   29.1486 O   0  0  0  0  0  0  0  0  0  0  0  0
    9.7646  -16.3044   28.1523 O   0  0  0  0  0  0  0  0  0  0  0  0
  2  3  1  6
  2  1  1  0
  4  2  1  0
  4  6  1  0
  4  5  1  6
  6  7  2  0
  8  6  1  0
  8  9  1  0
  9 10  1  6
 10 11  1  0
 12 11  1  0
 13 12  1  0
 14 13  1  0
 15 19  1  0
 15  9  1  0
 16 15  2  0
 18 17  1  1
 18 20  1  0
 18 19  1  0
 20 21  1  0
 22 20  2  0
M  END
$$$$
