VKA.pdb
     RDKit          3D

 22 21  0  0  1  0  0  0  0  0999 V2000
    7.3178  -12.6489   20.2305 C   0  0  0  0  0  0  0  0  0  0  0  0
    8.5339  -13.4778   19.9746 C   0  0  2  0  0  0  0  0  0  0  0  0
    9.2322  -13.1318   18.6775 C   0  0  0  0  0  0  0  0  0  0  0  0
    8.2497  -14.9625   20.0653 C   0  0  2  0  0  0  0  0  0  0  0  0
    7.3848  -15.2921   18.9455 N   0  0  0  0  0  0  0  0  0  0  0  0
    7.5516  -15.2500   21.3426 C   0  0  0  0  0  0  0  0  0  0  0  0
    6.3075  -15.1982   21.3973 O   0  0  0  0  0  0  0  0  0  0  0  0
    8.2761  -15.5891   22.5273 N   0  0  0  0  0  0  0  0  0  0  0  0
    7.6433  -15.9178   23.7661 C   0  0  1  0  0  0  0  0  0  0  0  0
    7.9260  -17.3723   24.1107 C   0  0  0  0  0  0  0  0  0  0  0  0
    7.3683  -17.7582   25.4335 C   0  0  0  0  0  0  0  0  0  0  0  0
    7.7425  -19.1710   25.7725 C   0  0  0  0  0  0  0  0  0  0  0  0
    7.2309  -19.5986   27.1135 C   0  0  0  0  0  0  0  0  0  0  0  0
    7.7256  -20.9367   27.4405 N   0  0  0  0  0  0  0  0  0  0  0  0
    8.1412  -15.0108   24.8225 C   0  0  0  0  0  0  0  0  0  0  0  0
    9.3581  -14.9767   25.1049 O   0  0  0  0  0  0  0  0  0  0  0  0
    6.5505  -12.3265   26.9087 C   0  0  0  0  0  0  0  0  0  0  0  0
    7.7137  -13.2339   26.5634 C   0  0  2  0  0  0  0  0  0  0  0  0
    7.2649  -14.1486   25.5533 N   0  0  0  0  0  0  0  0  0  0  0  0
    8.2224  -13.9667   27.7272 C   0  0  0  0  0  0  0  0  0  0  0  0
    8.0846  -15.3444   27.8845 O   0  0  0  0  0  0  0  0  0  0  0  0
    8.8182  -13.3509   28.6485 O   0  0  0  0  0  0  0  0  0  0  0  0
  2  3  1  6
  2  1  1  0
  4  2  1  0
  4  6  1  0
  4  5  1  6
  6  7  2  0
  8  6  1  0
  8  9  1  0
  9 10  1  1
 10 11  1  0
 12 11  1  0
 13 12  1  0
 14 13  1  0
 15 19  1  0
 15  9  1  0
 16 15  2  0
 18 17  1  1
 18 20  1  0
 18 19  1  0
 20 21  1  0
 22 20  2  0
M  END
$$$$
