VKA.pdb
     RDKit          3D

 22 21  0  0  1  0  0  0  0  0999 V2000
    7.0599  -12.8118   20.3289 C   0  0  0  0  0  0  0  0  0  0  0  0
    8.3410  -13.5185   20.0281 C   0  0  2  0  0  0  0  0  0  0  0  0
    8.9225  -13.1558   18.6789 C   0  0  0  0  0  0  0  0  0  0  0  0
    8.2234  -15.0197   20.1888 C   0  0  2  0  0  0  0  0  0  0  0  0
    7.3706  -15.4903   19.1108 N   0  0  0  0  0  0  0  0  0  0  0  0
    7.5947  -15.3240   21.4978 C   0  0  0  0  0  0  0  0  0  0  0  0
    6.3612  -15.2113   21.6371 O   0  0  0  0  0  0  0  0  0  0  0  0
    8.3749  -15.7482   22.6180 N   0  0  0  0  0  0  0  0  0  0  0  0
    7.8169  -16.0106   23.9076 C   0  0  1  0  0  0  0  0  0  0  0  0
    8.0530  -17.4674   24.2763 C   0  0  0  0  0  0  0  0  0  0  0  0
    7.5006  -17.8084   25.6137 C   0  0  0  0  0  0  0  0  0  0  0  0
    7.6698  -19.2719   25.8973 C   0  0  0  0  0  0  0  0  0  0  0  0
    6.9469  -19.7083   27.1343 C   0  0  0  0  0  0  0  0  0  0  0  0
    7.1473  -21.1407   27.3586 N   0  0  0  0  0  0  0  0  0  0  0  0
    8.4322  -15.1012   24.8981 C   0  0  0  0  0  0  0  0  0  0  0  0
    9.6712  -15.0883   25.0607 O   0  0  0  0  0  0  0  0  0  0  0  0
    7.1144  -12.3533   27.0861 C   0  0  0  0  0  0  0  0  0  0  0  0
    8.2074  -13.3158   26.6681 C   0  0  2  0  0  0  0  0  0  0  0  0
    7.6475  -14.2128   25.6983 N   0  0  0  0  0  0  0  0  0  0  0  0
    8.7609  -14.0667   27.7995 C   0  0  0  0  0  0  0  0  0  0  0  0
    9.7310  -13.5531   28.6580 O   0  0  0  0  0  0  0  0  0  0  0  0
    8.3618  -15.2363   28.0353 O   0  0  0  0  0  0  0  0  0  0  0  0
  2  3  1  6
  2  1  1  0
  4  2  1  0
  4  6  1  0
  4  5  1  6
  6  7  2  0
  8  6  1  0
  8  9  1  0
  9 10  1  1
 10 11  1  0
 12 11  1  0
 13 12  1  0
 14 13  1  0
 15 19  1  0
 15  9  1  0
 16 15  2  0
 18 17  1  1
 18 20  1  0
 18 19  1  0
 20 21  1  0
 22 20  2  0
M  END
$$$$
