VKA.pdb
     RDKit          3D

 22 21  0  0  1  0  0  0  0  0999 V2000
    7.2007  -12.6652   20.7954 C   0  0  0  0  0  0  0  0  0  0  0  0
    8.3444  -13.5107   20.3389 C   0  0  2  0  0  0  0  0  0  0  0  0
    8.8352  -13.1557   18.9522 C   0  0  0  0  0  0  0  0  0  0  0  0
    8.0490  -14.9915   20.4537 C   0  0  2  0  0  0  0  0  0  0  0  0
    6.9981  -15.2841   19.4940 N   0  0  0  0  0  0  0  0  0  0  0  0
    7.5744  -15.2909   21.8272 C   0  0  0  0  0  0  0  0  0  0  0  0
    6.3720  -15.1374   22.1176 O   0  0  0  0  0  0  0  0  0  0  0  0
    8.4699  -15.7564   22.8395 N   0  0  0  0  0  0  0  0  0  0  0  0
    8.0508  -16.0852   24.1660 C   0  0  1  0  0  0  0  0  0  0  0  0
    7.9829  -17.5975   24.3169 C   0  0  0  0  0  0  0  0  0  0  0  0
    7.6588  -18.0124   25.7072 C   0  0  0  0  0  0  0  0  0  0  0  0
    7.6923  -19.5070   25.8335 C   0  0  0  0  0  0  0  0  0  0  0  0
    7.1732  -19.9873   27.1537 C   0  0  0  0  0  0  0  0  0  0  0  0
    7.2581  -21.4465   27.2300 N   0  0  0  0  0  0  0  0  0  0  0  0
    8.9964  -15.4923   25.1360 C   0  0  0  0  0  0  0  0  0  0  0  0
   10.2142  -15.7670   25.0809 O   0  0  0  0  0  0  0  0  0  0  0  0
    8.7800  -12.7572   27.6601 C   0  0  0  0  0  0  0  0  0  0  0  0
    9.4477  -14.0087   27.1275 C   0  0  2  0  0  0  0  0  0  0  0  0
    8.5634  -14.5942   26.1613 N   0  0  0  0  0  0  0  0  0  0  0  0
    9.7609  -14.9748   28.1854 C   0  0  0  0  0  0  0  0  0  0  0  0
    9.2028  -16.2502   28.2471 O   0  0  0  0  0  0  0  0  0  0  0  0
   10.5702  -14.6689   29.0988 O   0  0  0  0  0  0  0  0  0  0  0  0
  2  3  1  6
  2  1  1  0
  4  2  1  0
  4  6  1  0
  4  5  1  6
  6  7  2  0
  8  6  1  0
  8  9  1  0
  9 10  1  6
 10 11  1  0
 12 11  1  0
 13 12  1  0
 14 13  1  0
 15 19  1  0
 15  9  1  0
 16 15  2  0
 18 17  1  1
 18 20  1  0
 18 19  1  0
 20 21  1  0
 22 20  2  0
M  END
$$$$
