VKA.pdb
     RDKit          3D

 22 21  0  0  1  0  0  0  0  0999 V2000
   10.2984  -21.7330   19.7478 C   0  0  0  0  0  0  0  0  0  0  0  0
    8.9331  -21.4482   19.2129 C   0  0  2  0  0  0  0  0  0  0  0  0
    8.1956  -22.6903   18.7620 C   0  0  0  0  0  0  0  0  0  0  0  0
    8.9477  -20.3942   18.1256 C   0  0  2  0  0  0  0  0  0  0  0  0
    9.7110  -20.9452   17.0190 N   0  0  0  0  0  0  0  0  0  0  0  0
    9.6144  -19.1717   18.6381 C   0  0  0  0  0  0  0  0  0  0  0  0
   10.8552  -19.0686   18.5801 O   0  0  0  0  0  0  0  0  0  0  0  0
    8.8630  -18.0952   19.2037 N   0  0  0  0  0  0  0  0  0  0  0  0
    9.4644  -16.9054   19.7194 C   0  0  1  0  0  0  0  0  0  0  0  0
    8.4606  -15.7637   19.6636 C   0  0  0  0  0  0  0  0  0  0  0  0
    9.0271  -14.4879   20.1750 C   0  0  0  0  0  0  0  0  0  0  0  0
    8.0499  -13.3647   19.9902 C   0  0  0  0  0  0  0  0  0  0  0  0
    8.6022  -12.0411   20.4217 C   0  0  0  0  0  0  0  0  0  0  0  0
    7.6227  -10.9809   20.1793 N   0  0  0  0  0  0  0  0  0  0  0  0
    9.9192  -17.1513   21.1048 C   0  0  0  0  0  0  0  0  0  0  0  0
    9.1524  -17.6806   21.9376 O   0  0  0  0  0  0  0  0  0  0  0  0
   13.1462  -16.5364   22.9365 C   0  0  0  0  0  0  0  0  0  0  0  0
   11.7136  -17.0260   22.8755 C   0  0  2  0  0  0  0  0  0  0  0  0
   11.2344  -16.7990   21.5423 N   0  0  0  0  0  0  0  0  0  0  0  0
   10.8468  -16.3572   23.8511 C   0  0  0  0  0  0  0  0  0  0  0  0
   10.0816  -15.2320   23.5507 O   0  0  0  0  0  0  0  0  0  0  0  0
   10.7668  -16.7956   25.0277 O   0  0  0  0  0  0  0  0  0  0  0  0
  2  3  1  6
  2  1  1  0
  4  2  1  0
  4  6  1  0
  4  5  1  6
  6  7  2  0
  8  6  1  0
  8  9  1  0
  9 10  1  1
 10 11  1  0
 12 11  1  0
 13 12  1  0
 14 13  1  0
 15 19  1  0
 15  9  1  0
 16 15  2  0
 18 17  1  6
 18 20  1  0
 18 19  1  0
 20 21  1  0
 22 20  2  0
M  END
$$$$
