VKA.pdb
     RDKit          3D

 22 21  0  0  1  0  0  0  0  0999 V2000
    6.5211  -20.4676   26.8678 C   0  0  0  0  0  0  0  0  0  0  0  0
    7.3429  -19.3020   26.4237 C   0  0  2  0  0  0  0  0  0  0  0  0
    7.4700  -18.2230   27.4772 C   0  0  0  0  0  0  0  0  0  0  0  0
    6.8656  -18.7281   25.1060 C   0  0  2  0  0  0  0  0  0  0  0  0
    6.6610  -19.8530   24.2095 N   0  0  0  0  0  0  0  0  0  0  0  0
    7.9107  -17.8297   24.5564 C   0  0  0  0  0  0  0  0  0  0  0  0
    9.0058  -18.2992   24.1907 O   0  0  0  0  0  0  0  0  0  0  0  0
    7.6930  -16.4222   24.4331 N   0  0  0  0  0  0  0  0  0  0  0  0
    8.6669  -15.5222   23.8997 C   0  0  1  0  0  0  0  0  0  0  0  0
    7.9707  -14.4541   23.0698 C   0  0  0  0  0  0  0  0  0  0  0  0
    7.6856  -14.9118   21.6844 C   0  0  0  0  0  0  0  0  0  0  0  0
    7.7304  -13.7574   20.7272 C   0  0  0  0  0  0  0  0  0  0  0  0
    7.4691  -14.1700   19.3114 C   0  0  0  0  0  0  0  0  0  0  0  0
    7.5708  -13.0132   18.4204 N   0  0  0  0  0  0  0  0  0  0  0  0
    9.4341  -14.9206   25.0116 C   0  0  0  0  0  0  0  0  0  0  0  0
   10.4610  -14.2474   24.7799 O   0  0  0  0  0  0  0  0  0  0  0  0
    8.6468  -13.5620   28.1666 C   0  0  0  0  0  0  0  0  0  0  0  0
    9.6856  -14.4191   27.4725 C   0  0  2  0  0  0  0  0  0  0  0  0
    9.0389  -15.0818   26.3766 N   0  0  0  0  0  0  0  0  0  0  0  0
   10.3001  -15.4003   28.3725 C   0  0  0  0  0  0  0  0  0  0  0  0
   11.0169  -15.0482   29.5145 O   0  0  0  0  0  0  0  0  0  0  0  0
   10.1940  -16.6305   28.1306 O   0  0  0  0  0  0  0  0  0  0  0  0
  2  3  1  1
  2  1  1  0
  4  2  1  0
  4  6  1  0
  4  5  1  6
  6  7  2  0
  8  6  1  0
  8  9  1  0
  9 10  1  1
 10 11  1  0
 12 11  1  0
 13 12  1  0
 14 13  1  0
 15 19  1  0
 15  9  1  0
 16 15  2  0
 18 17  1  1
 18 20  1  0
 18 19  1  0
 20 21  1  0
 22 20  2  0
M  END
$$$$
