VKA.pdb
     RDKit          3D

 22 21  0  0  1  0  0  0  0  0999 V2000
    7.8614  -11.8610   18.5351 C   0  0  0  0  0  0  0  0  0  0  0  0
    8.0752  -13.0200   19.4528 C   0  0  2  0  0  0  0  0  0  0  0  0
    9.0056  -12.7079   20.6048 C   0  0  0  0  0  0  0  0  0  0  0  0
    8.5155  -14.2669   18.7148 C   0  0  2  0  0  0  0  0  0  0  0  0
    7.5077  -14.5315   17.7023 N   0  0  0  0  0  0  0  0  0  0  0  0
    8.5821  -15.4020   19.6680 C   0  0  0  0  0  0  0  0  0  0  0  0
    7.5312  -15.9220   20.0909 O   0  0  0  0  0  0  0  0  0  0  0  0
    9.8344  -15.9221   20.1202 N   0  0  0  0  0  0  0  0  0  0  0  0
    9.9496  -17.0921   20.9334 C   0  0  1  0  0  0  0  0  0  0  0  0
   10.6967  -18.1724   20.1660 C   0  0  0  0  0  0  0  0  0  0  0  0
    9.9330  -18.6583   18.9867 C   0  0  0  0  0  0  0  0  0  0  0  0
   10.6894  -19.7432   18.2783 C   0  0  0  0  0  0  0  0  0  0  0  0
    9.9102  -20.3510   17.1530 C   0  0  0  0  0  0  0  0  0  0  0  0
   10.7365  -21.3193   16.4305 N   0  0  0  0  0  0  0  0  0  0  0  0
   10.6504  -16.7451   22.1884 C   0  0  0  0  0  0  0  0  0  0  0  0
   11.7223  -16.1035   22.1577 O   0  0  0  0  0  0  0  0  0  0  0  0
    9.7387  -16.8934   25.8048 C   0  0  0  0  0  0  0  0  0  0  0  0
   10.7798  -16.7904   24.7088 C   0  0  2  0  0  0  0  0  0  0  0  0
   10.1388  -17.1235   23.4692 N   0  0  0  0  0  0  0  0  0  0  0  0
   11.9317  -17.6677   24.9406 C   0  0  0  0  0  0  0  0  0  0  0  0
   12.9517  -17.3698   25.8422 O   0  0  0  0  0  0  0  0  0  0  0  0
   12.0353  -18.7516   24.3103 O   0  0  0  0  0  0  0  0  0  0  0  0
  2  3  1  1
  2  1  1  0
  4  2  1  0
  4  6  1  0
  4  5  1  6
  6  7  2  0
  8  6  1  0
  8  9  1  0
  9 10  1  6
 10 11  1  0
 12 11  1  0
 13 12  1  0
 14 13  1  0
 15 19  1  0
 15  9  1  0
 16 15  2  0
 18 17  1  1
 18 20  1  0
 18 19  1  0
 20 21  1  0
 22 20  2  0
M  END
$$$$
