VKA.pdb
     RDKit          3D

 22 21  0  0  1  0  0  0  0  0999 V2000
    7.9109  -12.8013   27.1228 C   0  0  0  0  0  0  0  0  0  0  0  0
    7.2409  -12.1076   25.9821 C   0  0  2  0  0  0  0  0  0  0  0  0
    6.6996  -10.7422   26.3463 C   0  0  0  0  0  0  0  0  0  0  0  0
    6.1751  -12.9644   25.3316 C   0  0  2  0  0  0  0  0  0  0  0  0
    5.1982  -13.2711   26.3624 N   0  0  0  0  0  0  0  0  0  0  0  0
    6.7919  -14.2184   24.8332 C   0  0  0  0  0  0  0  0  0  0  0  0
    6.8579  -15.2175   25.5755 O   0  0  0  0  0  0  0  0  0  0  0  0
    7.3194  -14.3133   23.5080 N   0  0  0  0  0  0  0  0  0  0  0  0
    7.9359  -15.4954   22.9924 C   0  0  1  0  0  0  0  0  0  0  0  0
    8.1329  -15.3518   21.4908 C   0  0  0  0  0  0  0  0  0  0  0  0
    8.6509  -16.5980   20.8673 C   0  0  0  0  0  0  0  0  0  0  0  0
    8.7123  -16.4557   19.3751 C   0  0  0  0  0  0  0  0  0  0  0  0
    9.1796  -17.7051   18.6941 C   0  0  0  0  0  0  0  0  0  0  0  0
    9.3276  -17.4726   17.2566 N   0  0  0  0  0  0  0  0  0  0  0  0
    9.2252  -15.7126   23.6832 C   0  0  0  0  0  0  0  0  0  0  0  0
   10.0353  -14.7712   23.8211 O   0  0  0  0  0  0  0  0  0  0  0  0
   10.4821  -17.9624   26.1958 C   0  0  0  0  0  0  0  0  0  0  0  0
   10.8220  -17.2326   24.9123 C   0  0  2  0  0  0  0  0  0  0  0  0
    9.5928  -16.9889   24.2137 N   0  0  0  0  0  0  0  0  0  0  0  0
   11.7513  -17.9859   24.0642 C   0  0  0  0  0  0  0  0  0  0  0  0
   13.0988  -18.1617   24.3731 O   0  0  0  0  0  0  0  0  0  0  0  0
   11.3443  -18.5131   22.9967 O   0  0  0  0  0  0  0  0  0  0  0  0
  2  3  1  1
  2  1  1  0
  4  2  1  0
  4  6  1  0
  4  5  1  1
  6  7  2  0
  8  6  1  0
  8  9  1  0
  9 10  1  6
 10 11  1  0
 12 11  1  0
 13 12  1  0
 14 13  1  0
 15 19  1  0
 15  9  1  0
 16 15  2  0
 18 17  1  1
 18 20  1  0
 18 19  1  0
 20 21  1  0
 22 20  2  0
M  END
$$$$
