VKA.pdb
     RDKit          3D

 22 21  0  0  1  0  0  0  0  0999 V2000
    2.6150  -18.5741   21.3334 C   0  0  0  0  0  0  0  0  0  0  0  0
    3.8744  -18.9240   22.0564 C   0  0  2  0  0  0  0  0  0  0  0  0
    5.0155  -17.9735   21.7657 C   0  0  0  0  0  0  0  0  0  0  0  0
    4.2885  -20.3631   21.8307 C   0  0  2  0  0  0  0  0  0  0  0  0
    4.5293  -20.5105   20.4055 N   0  0  0  0  0  0  0  0  0  0  0  0
    3.1848  -21.2615   22.2506 C   0  0  0  0  0  0  0  0  0  0  0  0
    2.1280  -21.2995   21.5909 O   0  0  0  0  0  0  0  0  0  0  0  0
    3.3019  -22.0952   23.4059 N   0  0  0  0  0  0  0  0  0  0  0  0
    2.2899  -23.0197   23.8112 C   0  0  1  0  0  0  0  0  0  0  0  0
    2.9430  -24.2718   24.3770 C   0  0  0  0  0  0  0  0  0  0  0  0
    1.9459  -25.3076   24.7547 C   0  0  0  0  0  0  0  0  0  0  0  0
    2.6322  -26.5379   25.2707 C   0  0  0  0  0  0  0  0  0  0  0  0
    1.6705  -27.6269   25.6340 C   0  0  0  0  0  0  0  0  0  0  0  0
    2.3982  -28.8225   26.0621 N   0  0  0  0  0  0  0  0  0  0  0  0
    1.4138  -22.3740   24.8122 C   0  0  0  0  0  0  0  0  0  0  0  0
    1.8914  -21.9301   25.8783 O   0  0  0  0  0  0  0  0  0  0  0  0
   -1.6722  -20.5495   24.7428 C   0  0  0  0  0  0  0  0  0  0  0  0
   -0.8681  -21.5661   25.5274 C   0  0  2  0  0  0  0  0  0  0  0  0
    0.0057  -22.2329   24.6053 N   0  0  0  0  0  0  0  0  0  0  0  0
   -1.7153  -22.5396   26.2238 C   0  0  0  0  0  0  0  0  0  0  0  0
   -2.3051  -22.2936   27.4622 O   0  0  0  0  0  0  0  0  0  0  0  0
   -1.9415  -23.6632   25.7050 O   0  0  0  0  0  0  0  0  0  0  0  0
  2  3  1  6
  2  1  1  0
  4  2  1  0
  4  6  1  0
  4  5  1  6
  6  7  2  0
  8  6  1  0
  8  9  1  0
  9 10  1  1
 10 11  1  0
 12 11  1  0
 13 12  1  0
 14 13  1  0
 15 19  1  0
 15  9  1  0
 16 15  2  0
 18 17  1  6
 18 20  1  0
 18 19  1  0
 20 21  1  0
 22 20  2  0
M  END
$$$$
