VKA.pdb
     RDKit          3D

 22 21  0  0  1  0  0  0  0  0999 V2000
    7.4620  -12.6112   20.9875 C   0  0  0  0  0  0  0  0  0  0  0  0
    8.4891  -13.5688   20.4783 C   0  0  2  0  0  0  0  0  0  0  0  0
    8.9166  -13.2869   19.0542 C   0  0  0  0  0  0  0  0  0  0  0  0
    8.0661  -15.0129   20.6481 C   0  0  2  0  0  0  0  0  0  0  0  0
    6.9637  -15.2368   19.7287 N   0  0  0  0  0  0  0  0  0  0  0  0
    7.6100  -15.2284   22.0435 C   0  0  0  0  0  0  0  0  0  0  0  0
    6.4876  -14.8212   22.4013 O   0  0  0  0  0  0  0  0  0  0  0  0
    8.4331  -15.8988   23.0008 N   0  0  0  0  0  0  0  0  0  0  0  0
    8.0124  -16.1765   24.3384 C   0  0  1  0  0  0  0  0  0  0  0  0
    7.8667  -17.6795   24.5233 C   0  0  0  0  0  0  0  0  0  0  0  0
    7.5311  -18.0465   25.9242 C   0  0  0  0  0  0  0  0  0  0  0  0
    7.5304  -19.5371   26.0938 C   0  0  0  0  0  0  0  0  0  0  0  0
    7.0198  -19.9660   27.4349 C   0  0  0  0  0  0  0  0  0  0  0  0
    7.1481  -21.4163   27.5848 N   0  0  0  0  0  0  0  0  0  0  0  0
    8.9990  -15.6138   25.2854 C   0  0  0  0  0  0  0  0  0  0  0  0
   10.2121  -15.8927   25.1749 O   0  0  0  0  0  0  0  0  0  0  0  0
    8.9040  -12.9791   27.9244 C   0  0  0  0  0  0  0  0  0  0  0  0
    9.5303  -14.2202   27.3216 C   0  0  2  0  0  0  0  0  0  0  0  0
    8.6119  -14.7410   26.3502 N   0  0  0  0  0  0  0  0  0  0  0  0
    9.8428  -15.2400   28.3280 C   0  0  0  0  0  0  0  0  0  0  0  0
   10.9644  -15.1829   29.1531 O   0  0  0  0  0  0  0  0  0  0  0  0
    9.0809  -16.2295   28.4801 O   0  0  0  0  0  0  0  0  0  0  0  0
  2  3  1  6
  2  1  1  0
  4  2  1  0
  4  6  1  0
  4  5  1  6
  6  7  2  0
  8  6  1  0
  8  9  1  0
  9 10  1  6
 10 11  1  0
 12 11  1  0
 13 12  1  0
 14 13  1  0
 15 19  1  0
 15  9  1  0
 16 15  2  0
 18 17  1  1
 18 20  1  0
 18 19  1  0
 20 21  1  0
 22 20  2  0
M  END
$$$$
