IWH.pdb
     RDKit          3D

 33 35  0  0  1  0  0  0  0  0999 V2000
   25.9552  -14.7034  -19.5479 C   0  0  0  0  0  0  0  0  0  0  0  0
   27.1312  -15.5393  -19.0327 C   0  0  0  0  0  0  0  0  0  0  0  0
   26.5721  -16.5067  -18.0383 C   0  0  2  0  0  0  0  0  0  0  0  0
   26.1150  -15.6741  -16.8332 C   0  0  0  0  0  0  0  0  0  0  0  0
   27.5481  -17.5195  -17.5393 C   0  0  2  0  0  0  0  0  0  0  0  0
   28.2138  -18.2612  -18.5772 N   0  0  0  0  0  0  0  0  0  0  0  0
   26.9566  -18.4815  -16.5885 C   0  0  0  0  0  0  0  0  0  0  0  0
   26.1758  -19.4141  -16.9827 O   0  0  0  0  0  0  0  0  0  0  0  0
   27.1961  -18.4564  -15.1879 N   0  0  0  0  0  0  0  0  0  0  0  0
   26.6018  -19.3413  -14.2441 C   0  0  1  0  0  0  0  0  0  0  0  0
   27.3281  -19.4894  -12.9457 C   0  0  0  0  0  0  0  0  0  0  0  0
   26.7116  -20.5323  -12.0841 C   0  0  0  0  0  0  0  0  0  0  0  0
   26.5357  -21.8787  -12.4358 C   0  0  0  0  0  0  0  0  0  0  0  0
   25.9713  -22.5266  -11.4071 N   0  0  0  0  0  0  0  0  0  0  0  0
   25.7640  -21.6682  -10.3867 C   0  0  0  0  0  0  0  0  0  0  0  0
   25.2020  -21.8824   -9.1258 C   0  0  0  0  0  0  0  0  0  0  0  0
   25.0982  -20.8187   -8.2619 C   0  0  0  0  0  0  0  0  0  0  0  0
   25.5529  -19.5872   -8.6776 C   0  0  0  0  0  0  0  0  0  0  0  0
   26.1065  -19.3763   -9.9191 C   0  0  0  0  0  0  0  0  0  0  0  0
   26.2181  -20.4407  -10.8006 C   0  0  0  0  0  0  0  0  0  0  0  0
   25.1568  -19.1089  -14.0456 C   0  0  0  0  0  0  0  0  0  0  0  0
   24.7425  -18.0138  -13.6201 O   0  0  0  0  0  0  0  0  0  0  0  0
   24.2457  -20.1429  -14.3433 N   0  0  0  0  0  0  0  0  0  0  0  0
   22.8173  -19.9603  -14.0846 C   0  0  1  0  0  0  0  0  0  0  0  0
   21.9969  -20.6581  -15.1407 C   0  0  0  0  0  0  0  0  0  0  0  0
   21.3343  -19.7358  -16.0808 C   0  0  0  0  0  0  0  0  0  0  0  0
   21.3029  -18.3590  -16.0926 C   0  0  0  0  0  0  0  0  0  0  0  0
   20.5517  -17.9505  -17.1432 N   0  0  0  0  0  0  0  0  0  0  0  0
   20.1194  -19.0301  -17.7782 C   0  0  0  0  0  0  0  0  0  0  0  0
   20.5839  -20.1215  -17.1483 N   0  0  0  0  0  0  0  0  0  0  0  0
   22.4900  -20.5508  -12.7657 C   0  0  0  0  0  0  0  0  0  0  0  0
   21.5242  -20.0836  -11.9124 O   0  0  0  0  0  0  0  0  0  0  0  0
   23.1371  -21.5750  -12.3555 O   0  0  0  0  0  0  0  0  0  0  0  0
  2  1  1  0
  3  2  1  0
  3  4  1  1
  5  3  1  0
  5  6  1  6
  7  5  1  0
  7  8  2  0
  9  7  1  0
 10  9  1  0
 11 12  1  0
 10 11  1  1
 12 20  1  0
 13 12  2  0
 13 14  1  0
 14 15  1  0
 15 16  1  0
 16 17  2  0
 18 17  1  0
 19 18  2  0
 20 15  2  0
 20 19  1  0
 21 23  1  0
 21 10  1  0
 22 21  2  0
 24 23  1  0
 24 25  1  6
 25 26  1  0
 26 27  2  0
 27 28  1  0
 29 28  1  0
 30 26  1  0
 30 29  2  0
 31 24  1  0
 32 31  1  0
 33 31  2  0
M  END
$$$$
