IWH.pdb
     RDKit          3D

 33 35  0  0  1  0  0  0  0  0999 V2000
   13.6665   -9.2723  -17.6661 C   0  0  0  0  0  0  0  0  0  0  0  0
   15.1137   -8.7699  -17.6863 C   0  0  0  0  0  0  0  0  0  0  0  0
   15.6015   -8.7981  -16.2725 C   0  0  2  0  0  0  0  0  0  0  0  0
   14.7439   -7.7887  -15.4978 C   0  0  0  0  0  0  0  0  0  0  0  0
   17.0293   -8.3995  -16.0992 C   0  0  2  0  0  0  0  0  0  0  0  0
   17.9689   -9.2586  -16.7698 N   0  0  0  0  0  0  0  0  0  0  0  0
   17.4354   -8.2830  -14.6847 C   0  0  0  0  0  0  0  0  0  0  0  0
   17.5419   -9.3130  -13.9347 O   0  0  0  0  0  0  0  0  0  0  0  0
   17.7355   -7.0482  -14.0484 N   0  0  0  0  0  0  0  0  0  0  0  0
   18.1055   -6.9055  -12.6811 C   0  0  1  0  0  0  0  0  0  0  0  0
   19.3467   -6.1129  -12.4232 C   0  0  0  0  0  0  0  0  0  0  0  0
   20.5215   -6.6789  -13.1369 C   0  0  0  0  0  0  0  0  0  0  0  0
   21.2278   -6.0464  -14.1708 C   0  0  0  0  0  0  0  0  0  0  0  0
   22.2371   -6.8396  -14.5563 N   0  0  0  0  0  0  0  0  0  0  0  0
   22.2316   -7.9726  -13.8234 C   0  0  0  0  0  0  0  0  0  0  0  0
   23.0784   -9.0827  -13.8698 C   0  0  0  0  0  0  0  0  0  0  0  0
   22.8461  -10.1245  -13.0042 C   0  0  0  0  0  0  0  0  0  0  0  0
   21.7877  -10.0284  -12.1286 C   0  0  0  0  0  0  0  0  0  0  0  0
   20.9540   -8.9353  -12.0827 C   0  0  0  0  0  0  0  0  0  0  0  0
   21.1771   -7.8765  -12.9498 C   0  0  0  0  0  0  0  0  0  0  0  0
   16.9904   -6.4853  -11.8085 C   0  0  0  0  0  0  0  0  0  0  0  0
   16.3835   -5.4188  -12.0231 O   0  0  0  0  0  0  0  0  0  0  0  0
   16.6168   -7.3063  -10.7248 N   0  0  0  0  0  0  0  0  0  0  0  0
   15.4713   -6.9443   -9.8898 C   0  0  1  0  0  0  0  0  0  0  0  0
   14.8981   -8.1691   -9.2215 C   0  0  0  0  0  0  0  0  0  0  0  0
   13.6677   -7.9034   -8.4540 C   0  0  0  0  0  0  0  0  0  0  0  0
   12.9859   -6.7228   -8.2597 C   0  0  0  0  0  0  0  0  0  0  0  0
   11.9158   -6.9647   -7.4651 N   0  0  0  0  0  0  0  0  0  0  0  0
   11.9166   -8.2549   -7.1635 C   0  0  0  0  0  0  0  0  0  0  0  0
   12.9713   -8.8399   -7.7542 N   0  0  0  0  0  0  0  0  0  0  0  0
   15.9227   -6.0011   -8.8400 C   0  0  0  0  0  0  0  0  0  0  0  0
   15.1924   -4.9417   -8.3674 O   0  0  0  0  0  0  0  0  0  0  0  0
   17.0770   -6.1527   -8.3105 O   0  0  0  0  0  0  0  0  0  0  0  0
  2  1  1  0
  3  2  1  0
  3  4  1  1
  5  3  1  0
  5  6  1  1
  7  5  1  0
  7  8  2  0
  9  7  1  0
 10  9  1  0
 11 12  1  0
 10 11  1  6
 12 20  1  0
 13 12  2  0
 13 14  1  0
 14 15  1  0
 15 16  1  0
 16 17  2  0
 18 17  1  0
 19 18  2  0
 20 15  2  0
 20 19  1  0
 21 23  1  0
 21 10  1  0
 22 21  2  0
 24 23  1  0
 24 25  1  1
 25 26  1  0
 26 27  2  0
 27 28  1  0
 29 28  1  0
 30 26  1  0
 30 29  2  0
 31 24  1  0
 32 31  1  0
 33 31  2  0
M  END
$$$$
