IWH.pdb
     RDKit          3D

 33 35  0  0  1  0  0  0  0  0999 V2000
   27.6875  -17.2796  -16.8235 C   0  0  0  0  0  0  0  0  0  0  0  0
   28.5199  -18.1221  -15.8517 C   0  0  0  0  0  0  0  0  0  0  0  0
   27.5536  -18.8976  -15.0138 C   0  0  2  0  0  0  0  0  0  0  0  0
   26.7246  -17.8642  -14.2396 C   0  0  0  0  0  0  0  0  0  0  0  0
   28.1874  -19.8050  -14.0126 C   0  0  2  0  0  0  0  0  0  0  0  0
   29.0914  -20.7711  -14.5784 N   0  0  0  0  0  0  0  0  0  0  0  0
   27.2081  -20.5228  -13.1728 C   0  0  0  0  0  0  0  0  0  0  0  0
   26.6635  -21.6107  -13.5659 O   0  0  0  0  0  0  0  0  0  0  0  0
   26.7948  -20.0794  -11.8874 N   0  0  0  0  0  0  0  0  0  0  0  0
   25.7695  -20.6855  -11.1076 C   0  0  1  0  0  0  0  0  0  0  0  0
   25.7643  -20.3332   -9.6546 C   0  0  0  0  0  0  0  0  0  0  0  0
   27.0713  -20.6274   -9.0104 C   0  0  0  0  0  0  0  0  0  0  0  0
   28.0942  -21.4104   -9.5656 C   0  0  0  0  0  0  0  0  0  0  0  0
   29.1310  -21.4369   -8.7166 N   0  0  0  0  0  0  0  0  0  0  0  0
   28.8408  -20.7054   -7.6204 C   0  0  0  0  0  0  0  0  0  0  0  0
   29.6021  -20.4499   -6.4772 C   0  0  0  0  0  0  0  0  0  0  0  0
   29.0603  -19.6659   -5.4871 C   0  0  0  0  0  0  0  0  0  0  0  0
   27.7895  -19.1664   -5.6653 C   0  0  0  0  0  0  0  0  0  0  0  0
   27.0400  -19.4179   -6.7910 C   0  0  0  0  0  0  0  0  0  0  0  0
   27.5744  -20.2067   -7.7984 C   0  0  0  0  0  0  0  0  0  0  0  0
   24.4252  -20.5714  -11.7086 C   0  0  0  0  0  0  0  0  0  0  0  0
   23.9787  -19.4626  -12.0594 O   0  0  0  0  0  0  0  0  0  0  0  0
   23.6476  -21.7346  -11.8828 N   0  0  0  0  0  0  0  0  0  0  0  0
   22.4039  -21.6785  -12.6512 C   0  0  1  0  0  0  0  0  0  0  0  0
   22.0130  -23.0569  -13.1228 C   0  0  0  0  0  0  0  0  0  0  0  0
   22.8415  -23.5592  -14.2340 C   0  0  0  0  0  0  0  0  0  0  0  0
   23.7671  -22.9010  -15.0130 C   0  0  0  0  0  0  0  0  0  0  0  0
   24.2656  -23.7710  -15.9239 N   0  0  0  0  0  0  0  0  0  0  0  0
   23.6773  -24.9425  -15.7318 C   0  0  0  0  0  0  0  0  0  0  0  0
   22.8108  -24.8330  -14.7115 N   0  0  0  0  0  0  0  0  0  0  0  0
   21.3260  -21.1541  -11.7802 C   0  0  0  0  0  0  0  0  0  0  0  0
   20.1144  -20.6889  -12.2214 O   0  0  0  0  0  0  0  0  0  0  0  0
   21.5018  -21.1147  -10.5139 O   0  0  0  0  0  0  0  0  0  0  0  0
  2  1  1  0
  3  2  1  0
  3  4  1  1
  5  3  1  0
  5  6  1  6
  7  5  1  0
  7  8  2  0
  9  7  1  0
 10  9  1  0
 11 12  1  0
 10 11  1  1
 12 20  1  0
 13 12  2  0
 13 14  1  0
 14 15  1  0
 15 16  1  0
 16 17  2  0
 18 17  1  0
 19 18  2  0
 20 15  2  0
 20 19  1  0
 21 23  1  0
 21 10  1  0
 22 21  2  0
 24 23  1  0
 24 25  1  1
 25 26  1  0
 26 27  2  0
 27 28  1  0
 29 28  1  0
 30 26  1  0
 30 29  2  0
 31 24  1  0
 32 31  1  0
 33 31  2  0
M  END
$$$$
