IWH.pdb
     RDKit          3D

 33 35  0  0  1  0  0  0  0  0999 V2000
   28.0266  -18.7990  -17.9461 C   0  0  0  0  0  0  0  0  0  0  0  0
   28.6710  -19.6034  -16.8125 C   0  0  0  0  0  0  0  0  0  0  0  0
   27.5696  -19.9955  -15.8795 C   0  0  2  0  0  0  0  0  0  0  0  0
   26.9993  -18.6901  -15.3092 C   0  0  0  0  0  0  0  0  0  0  0  0
   28.0022  -20.8376  -14.7258 C   0  0  2  0  0  0  0  0  0  0  0  0
   28.6381  -22.0729  -15.1006 N   0  0  0  0  0  0  0  0  0  0  0  0
   26.9069  -21.1468  -13.7854 C   0  0  0  0  0  0  0  0  0  0  0  0
   26.0385  -22.0481  -14.0466 O   0  0  0  0  0  0  0  0  0  0  0  0
   26.7255  -20.4869  -12.5399 N   0  0  0  0  0  0  0  0  0  0  0  0
   25.6655  -20.7488  -11.6264 C   0  0  1  0  0  0  0  0  0  0  0  0
   25.8502  -20.2082  -10.2447 C   0  0  0  0  0  0  0  0  0  0  0  0
   27.1542  -20.6190   -9.6608 C   0  0  0  0  0  0  0  0  0  0  0  0
   28.1063  -21.4350  -10.2895 C   0  0  0  0  0  0  0  0  0  0  0  0
   29.1643  -21.5728   -9.4783 N   0  0  0  0  0  0  0  0  0  0  0  0
   28.9560  -20.8838   -8.3369 C   0  0  0  0  0  0  0  0  0  0  0  0
   29.7666  -20.7387   -7.2085 C   0  0  0  0  0  0  0  0  0  0  0  0
   29.3075  -19.9756   -6.1618 C   0  0  0  0  0  0  0  0  0  0  0  0
   28.0674  -19.3873   -6.2713 C   0  0  0  0  0  0  0  0  0  0  0  0
   27.2692  -19.5300   -7.3825 C   0  0  0  0  0  0  0  0  0  0  0  0
   27.7201  -20.2965   -8.4464 C   0  0  0  0  0  0  0  0  0  0  0  0
   24.3280  -20.4346  -12.1683 C   0  0  0  0  0  0  0  0  0  0  0  0
   24.0030  -19.2574  -12.4140 O   0  0  0  0  0  0  0  0  0  0  0  0
   23.4174  -21.4844  -12.4064 N   0  0  0  0  0  0  0  0  0  0  0  0
   22.1264  -21.2081  -13.0368 C   0  0  1  0  0  0  0  0  0  0  0  0
   21.7703  -22.3032  -14.0111 C   0  0  0  0  0  0  0  0  0  0  0  0
   20.5065  -22.0659  -14.7322 C   0  0  0  0  0  0  0  0  0  0  0  0
   20.0589  -20.9369  -15.3815 C   0  0  0  0  0  0  0  0  0  0  0  0
   18.8255  -21.1847  -15.8839 N   0  0  0  0  0  0  0  0  0  0  0  0
   18.4990  -22.4286  -15.5651 C   0  0  0  0  0  0  0  0  0  0  0  0
   19.5059  -22.9782  -14.8668 N   0  0  0  0  0  0  0  0  0  0  0  0
   21.0825  -21.1527  -11.9866 C   0  0  0  0  0  0  0  0  0  0  0  0
   19.9163  -20.4376  -12.0735 O   0  0  0  0  0  0  0  0  0  0  0  0
   21.2460  -21.8076  -10.9002 O   0  0  0  0  0  0  0  0  0  0  0  0
  2  1  1  0
  3  2  1  0
  3  4  1  1
  5  3  1  0
  5  6  1  6
  7  5  1  0
  7  8  2  0
  9  7  1  0
 10  9  1  0
 11 12  1  0
 10 11  1  1
 12 20  1  0
 13 12  2  0
 13 14  1  0
 14 15  1  0
 15 16  1  0
 16 17  2  0
 18 17  1  0
 19 18  2  0
 20 15  2  0
 20 19  1  0
 21 23  1  0
 21 10  1  0
 22 21  2  0
 24 23  1  0
 24 25  1  6
 25 26  1  0
 26 27  2  0
 27 28  1  0
 29 28  1  0
 30 26  1  0
 30 29  2  0
 31 24  1  0
 32 31  1  0
 33 31  2  0
M  END
$$$$
