IWH.pdb
     RDKit          3D

 33 35  0  0  1  0  0  0  0  0999 V2000
   30.0724  -20.5689  -19.1561 C   0  0  0  0  0  0  0  0  0  0  0  0
   28.7279  -19.9104  -18.8307 C   0  0  0  0  0  0  0  0  0  0  0  0
   28.3449  -20.3637  -17.4576 C   0  0  2  0  0  0  0  0  0  0  0  0
   28.2582  -21.8946  -17.5150 C   0  0  0  0  0  0  0  0  0  0  0  0
   27.0242  -19.8574  -16.9814 C   0  0  2  0  0  0  0  0  0  0  0  0
   26.8994  -18.4239  -16.9975 N   0  0  0  0  0  0  0  0  0  0  0  0
   26.6662  -20.3387  -15.6325 C   0  0  0  0  0  0  0  0  0  0  0  0
   26.6343  -21.5867  -15.3567 O   0  0  0  0  0  0  0  0  0  0  0  0
   26.3339  -19.4799  -14.5500 N   0  0  0  0  0  0  0  0  0  0  0  0
   25.8700  -19.9166  -13.2769 C   0  0  1  0  0  0  0  0  0  0  0  0
   26.4087  -19.1709  -12.0983 C   0  0  0  0  0  0  0  0  0  0  0  0
   27.0971  -20.0755  -11.1402 C   0  0  0  0  0  0  0  0  0  0  0  0
   27.9654  -21.1207  -11.4884 C   0  0  0  0  0  0  0  0  0  0  0  0
   28.4155  -21.7033  -10.3684 N   0  0  0  0  0  0  0  0  0  0  0  0
   27.8831  -21.0903   -9.2905 C   0  0  0  0  0  0  0  0  0  0  0  0
   28.0531  -21.3492   -7.9283 C   0  0  0  0  0  0  0  0  0  0  0  0
   27.3785  -20.5685   -7.0205 C   0  0  0  0  0  0  0  0  0  0  0  0
   26.5636  -19.5646   -7.4941 C   0  0  0  0  0  0  0  0  0  0  0  0
   26.3963  -19.3095   -8.8355 C   0  0  0  0  0  0  0  0  0  0  0  0
   27.0715  -20.0889   -9.7624 C   0  0  0  0  0  0  0  0  0  0  0  0
   24.4034  -20.0768  -13.2060 C   0  0  0  0  0  0  0  0  0  0  0  0
   23.6559  -19.0804  -13.1931 O   0  0  0  0  0  0  0  0  0  0  0  0
   23.8541  -21.3743  -13.1530 N   0  0  0  0  0  0  0  0  0  0  0  0
   22.4062  -21.5550  -13.0456 C   0  0  1  0  0  0  0  0  0  0  0  0
   22.0558  -23.0221  -13.0580 C   0  0  0  0  0  0  0  0  0  0  0  0
   20.6055  -23.2845  -13.0218 C   0  0  0  0  0  0  0  0  0  0  0  0
   19.5508  -22.4036  -12.9305 C   0  0  0  0  0  0  0  0  0  0  0  0
   18.3950  -23.1098  -12.9142 N   0  0  0  0  0  0  0  0  0  0  0  0
   18.7032  -24.3961  -12.9920 C   0  0  0  0  0  0  0  0  0  0  0  0
   20.0387  -24.5210  -13.0579 N   0  0  0  0  0  0  0  0  0  0  0  0
   21.9441  -20.9700  -11.7651 C   0  0  0  0  0  0  0  0  0  0  0  0
   20.8437  -20.1655  -11.6194 O   0  0  0  0  0  0  0  0  0  0  0  0
   22.5960  -21.2093  -10.6910 O   0  0  0  0  0  0  0  0  0  0  0  0
  2  1  1  0
  3  2  1  0
  3  4  1  6
  5  3  1  0
  5  6  1  1
  7  5  1  0
  7  8  2  0
  9  7  1  0
 10  9  1  0
 11 12  1  0
 10 11  1  1
 12 20  1  0
 13 12  2  0
 13 14  1  0
 14 15  1  0
 15 16  1  0
 16 17  2  0
 18 17  1  0
 19 18  2  0
 20 15  2  0
 20 19  1  0
 21 23  1  0
 21 10  1  0
 22 21  2  0
 24 23  1  0
 24 25  1  1
 25 26  1  0
 26 27  2  0
 27 28  1  0
 29 28  1  0
 30 26  1  0
 30 29  2  0
 31 24  1  0
 32 31  1  0
 33 31  2  0
M  END
$$$$
