IWH.pdb
     RDKit          3D

 33 35  0  0  1  0  0  0  0  0999 V2000
   25.2702  -10.3937  -16.2409 C   0  0  0  0  0  0  0  0  0  0  0  0
   26.5854   -9.6316  -16.4320 C   0  0  0  0  0  0  0  0  0  0  0  0
   27.4737  -10.5025  -17.2626 C   0  0  2  0  0  0  0  0  0  0  0  0
   27.6716  -11.8013  -16.4699 C   0  0  0  0  0  0  0  0  0  0  0  0
   28.8260   -9.9325  -17.5342 C   0  0  2  0  0  0  0  0  0  0  0  0
   28.8077   -8.6602  -18.2061 N   0  0  0  0  0  0  0  0  0  0  0  0
   29.7027  -10.8454  -18.2940 C   0  0  0  0  0  0  0  0  0  0  0  0
   29.6106  -10.9544  -19.5646 O   0  0  0  0  0  0  0  0  0  0  0  0
   30.6998  -11.6627  -17.6960 N   0  0  0  0  0  0  0  0  0  0  0  0
   31.4171  -12.6939  -18.3660 C   0  0  1  0  0  0  0  0  0  0  0  0
   32.7232  -13.0820  -17.7506 C   0  0  0  0  0  0  0  0  0  0  0  0
   33.4072  -14.1458  -18.5319 C   0  0  0  0  0  0  0  0  0  0  0  0
   34.2445  -13.9329  -19.6371 C   0  0  0  0  0  0  0  0  0  0  0  0
   34.7007  -15.1161  -20.0712 N   0  0  0  0  0  0  0  0  0  0  0  0
   34.2021  -16.1065  -19.3022 C   0  0  0  0  0  0  0  0  0  0  0  0
   34.3901  -17.4888  -19.3753 C   0  0  0  0  0  0  0  0  0  0  0  0
   33.7501  -18.2897  -18.4600 C   0  0  0  0  0  0  0  0  0  0  0  0
   32.9506  -17.6937  -17.5103 C   0  0  0  0  0  0  0  0  0  0  0  0
   32.7656  -16.3326  -17.4383 C   0  0  0  0  0  0  0  0  0  0  0  0
   33.4058  -15.5125  -18.3549 C   0  0  0  0  0  0  0  0  0  0  0  0
   30.5890  -13.8721  -18.6937 C   0  0  0  0  0  0  0  0  0  0  0  0
   29.8964  -14.4247  -17.8180 O   0  0  0  0  0  0  0  0  0  0  0  0
   30.5891  -14.3685  -20.0134 N   0  0  0  0  0  0  0  0  0  0  0  0
   29.8107  -15.5607  -20.3498 C   0  0  1  0  0  0  0  0  0  0  0  0
   28.8131  -15.2493  -21.4375 C   0  0  0  0  0  0  0  0  0  0  0  0
   27.5803  -14.6087  -20.9442 C   0  0  0  0  0  0  0  0  0  0  0  0
   27.1717  -14.3572  -19.6534 C   0  0  0  0  0  0  0  0  0  0  0  0
   25.9549  -13.7629  -19.6908 N   0  0  0  0  0  0  0  0  0  0  0  0
   25.6009  -13.6407  -20.9617 C   0  0  0  0  0  0  0  0  0  0  0  0
   26.5740  -14.1481  -21.7359 N   0  0  0  0  0  0  0  0  0  0  0  0
   30.7324  -16.6117  -20.8412 C   0  0  0  0  0  0  0  0  0  0  0  0
   31.8410  -16.3867  -21.6154 O   0  0  0  0  0  0  0  0  0  0  0  0
   30.5096  -17.8353  -20.5426 O   0  0  0  0  0  0  0  0  0  0  0  0
  2  1  1  0
  3  2  1  0
  3  4  1  1
  5  3  1  0
  5  6  1  6
  7  5  1  0
  7  8  2  0
  9  7  1  0
 10  9  1  0
 11 12  1  0
 10 11  1  1
 12 20  1  0
 13 12  2  0
 13 14  1  0
 14 15  1  0
 15 16  1  0
 16 17  2  0
 18 17  1  0
 19 18  2  0
 20 15  2  0
 20 19  1  0
 21 23  1  0
 21 10  1  0
 22 21  2  0
 24 23  1  0
 24 25  1  6
 25 26  1  0
 26 27  2  0
 27 28  1  0
 29 28  1  0
 30 26  1  0
 30 29  2  0
 31 24  1  0
 32 31  1  0
 33 31  2  0
M  END
$$$$
