IWH.pdb
     RDKit          3D

 33 35  0  0  1  0  0  0  0  0999 V2000
   30.2654  -18.1455  -15.0154 C   0  0  0  0  0  0  0  0  0  0  0  0
   28.7966  -17.7131  -15.0698 C   0  0  0  0  0  0  0  0  0  0  0  0
   27.9806  -18.9003  -14.6675 C   0  0  2  0  0  0  0  0  0  0  0  0
   28.2991  -20.0085  -15.6800 C   0  0  0  0  0  0  0  0  0  0  0  0
   26.5049  -18.6788  -14.6946 C   0  0  2  0  0  0  0  0  0  0  0  0
   26.0605  -17.5575  -13.9099 N   0  0  0  0  0  0  0  0  0  0  0  0
   25.7286  -19.8665  -14.2872 C   0  0  0  0  0  0  0  0  0  0  0  0
   25.7400  -20.9405  -14.9807 O   0  0  0  0  0  0  0  0  0  0  0  0
   24.9208  -19.9194  -13.1191 N   0  0  0  0  0  0  0  0  0  0  0  0
   24.0380  -20.9857  -12.7871 C   0  0  1  0  0  0  0  0  0  0  0  0
   24.2347  -21.5953  -11.4361 C   0  0  0  0  0  0  0  0  0  0  0  0
   25.3707  -20.9707  -10.7086 C   0  0  0  0  0  0  0  0  0  0  0  0
   25.2556  -20.0543   -9.6529 C   0  0  0  0  0  0  0  0  0  0  0  0
   26.4831  -19.7249   -9.2273 N   0  0  0  0  0  0  0  0  0  0  0  0
   27.4094  -20.3827   -9.9555 C   0  0  0  0  0  0  0  0  0  0  0  0
   28.8042  -20.3543   -9.8812 C   0  0  0  0  0  0  0  0  0  0  0  0
   29.5261  -21.1265  -10.7593 C   0  0  0  0  0  0  0  0  0  0  0  0
   28.8423  -21.8948  -11.6749 C   0  0  0  0  0  0  0  0  0  0  0  0
   27.4690  -21.9230  -11.7479 C   0  0  0  0  0  0  0  0  0  0  0  0
   26.7279  -21.1494  -10.8675 C   0  0  0  0  0  0  0  0  0  0  0  0
   22.6177  -20.6813  -13.0544 C   0  0  0  0  0  0  0  0  0  0  0  0
   22.0955  -19.6433  -12.6052 O   0  0  0  0  0  0  0  0  0  0  0  0
   21.8540  -21.5805  -13.8265 N   0  0  0  0  0  0  0  0  0  0  0  0
   20.4466  -21.2961  -14.1069 C   0  0  1  0  0  0  0  0  0  0  0  0
   20.0920  -21.7225  -15.5097 C   0  0  0  0  0  0  0  0  0  0  0  0
   20.6888  -20.8718  -16.5555 C   0  0  0  0  0  0  0  0  0  0  0  0
   20.7861  -19.5000  -16.6288 C   0  0  0  0  0  0  0  0  0  0  0  0
   21.4024  -19.1696  -17.7890 N   0  0  0  0  0  0  0  0  0  0  0  0
   21.6872  -20.2923  -18.4323 C   0  0  0  0  0  0  0  0  0  0  0  0
   21.2619  -21.3344  -17.6996 N   0  0  0  0  0  0  0  0  0  0  0  0
   19.6050  -22.0582  -13.1548 C   0  0  0  0  0  0  0  0  0  0  0  0
   18.2775  -21.8179  -12.9116 O   0  0  0  0  0  0  0  0  0  0  0  0
   20.1204  -23.0206  -12.4884 O   0  0  0  0  0  0  0  0  0  0  0  0
  2  1  1  0
  3  2  1  0
  3  4  1  6
  5  3  1  0
  5  6  1  1
  7  5  1  0
  7  8  2  0
  9  7  1  0
 10  9  1  0
 11 12  1  0
 10 11  1  1
 12 20  1  0
 13 12  2  0
 13 14  1  0
 14 15  1  0
 15 16  1  0
 16 17  2  0
 18 17  1  0
 19 18  2  0
 20 15  2  0
 20 19  1  0
 21 23  1  0
 21 10  1  0
 22 21  2  0
 24 23  1  0
 24 25  1  6
 25 26  1  0
 26 27  2  0
 27 28  1  0
 29 28  1  0
 30 26  1  0
 30 29  2  0
 31 24  1  0
 32 31  1  0
 33 31  2  0
M  END
$$$$
