IWH.pdb
     RDKit          3D

 33 35  0  0  1  0  0  0  0  0999 V2000
   20.0391  -29.2471  -17.5306 C   0  0  0  0  0  0  0  0  0  0  0  0
   21.2702  -29.4860  -16.6506 C   0  0  0  0  0  0  0  0  0  0  0  0
   20.9564  -28.9172  -15.3032 C   0  0  2  0  0  0  0  0  0  0  0  0
   19.5712  -29.4535  -14.9182 C   0  0  0  0  0  0  0  0  0  0  0  0
   20.8887  -27.4270  -15.2577 C   0  0  2  0  0  0  0  0  0  0  0  0
   22.1129  -26.7676  -15.6283 N   0  0  0  0  0  0  0  0  0  0  0  0
   20.4578  -26.9019  -13.9470 C   0  0  0  0  0  0  0  0  0  0  0  0
   21.2747  -26.7984  -12.9689 O   0  0  0  0  0  0  0  0  0  0  0  0
   19.1316  -26.4766  -13.6639 N   0  0  0  0  0  0  0  0  0  0  0  0
   18.7027  -25.9154  -12.4279 C   0  0  1  0  0  0  0  0  0  0  0  0
   17.9444  -24.6306  -12.5260 C   0  0  0  0  0  0  0  0  0  0  0  0
   18.7330  -23.5753  -13.2148 C   0  0  0  0  0  0  0  0  0  0  0  0
   20.0550  -23.2182  -12.9104 C   0  0  0  0  0  0  0  0  0  0  0  0
   20.4478  -22.2495  -13.7493 N   0  0  0  0  0  0  0  0  0  0  0  0
   19.4432  -21.9468  -14.5979 C   0  0  0  0  0  0  0  0  0  0  0  0
   19.3849  -21.0077  -15.6305 C   0  0  0  0  0  0  0  0  0  0  0  0
   18.2201  -20.8924  -16.3505 C   0  0  0  0  0  0  0  0  0  0  0  0
   17.1604  -21.7081  -16.0220 C   0  0  0  0  0  0  0  0  0  0  0  0
   17.2179  -22.6330  -15.0054 C   0  0  0  0  0  0  0  0  0  0  0  0
   18.3872  -22.7606  -14.2712 C   0  0  0  0  0  0  0  0  0  0  0  0
   18.0318  -26.8864  -11.5398 C   0  0  0  0  0  0  0  0  0  0  0  0
   16.9955  -27.4720  -11.9072 O   0  0  0  0  0  0  0  0  0  0  0  0
   18.5776  -27.1461  -10.2660 N   0  0  0  0  0  0  0  0  0  0  0  0
   17.9159  -28.0862   -9.3611 C   0  0  1  0  0  0  0  0  0  0  0  0
   18.8967  -28.6217   -8.3480 C   0  0  0  0  0  0  0  0  0  0  0  0
   18.7571  -30.0675   -8.0959 C   0  0  0  0  0  0  0  0  0  0  0  0
   17.8670  -30.9745   -8.6268 C   0  0  0  0  0  0  0  0  0  0  0  0
   18.1095  -32.1910   -8.0823 N   0  0  0  0  0  0  0  0  0  0  0  0
   19.1189  -32.0628   -7.2337 C   0  0  0  0  0  0  0  0  0  0  0  0
   19.5243  -30.7824   -7.2288 N   0  0  0  0  0  0  0  0  0  0  0  0
   16.8331  -27.3762   -8.6407 C   0  0  0  0  0  0  0  0  0  0  0  0
   15.6721  -27.9548   -8.1973 O   0  0  0  0  0  0  0  0  0  0  0  0
   16.9527  -26.1265   -8.3960 O   0  0  0  0  0  0  0  0  0  0  0  0
  2  1  1  0
  3  2  1  0
  3  4  1  6
  5  3  1  0
  5  6  1  1
  7  5  1  0
  7  8  2  0
  9  7  1  0
 10  9  1  0
 11 12  1  0
 10 11  1  6
 12 20  1  0
 13 12  2  0
 13 14  1  0
 14 15  1  0
 15 16  1  0
 16 17  2  0
 18 17  1  0
 19 18  2  0
 20 15  2  0
 20 19  1  0
 21 23  1  0
 21 10  1  0
 22 21  2  0
 24 23  1  0
 24 25  1  1
 25 26  1  0
 26 27  2  0
 27 28  1  0
 29 28  1  0
 30 26  1  0
 30 29  2  0
 31 24  1  0
 32 31  1  0
 33 31  2  0
M  END
$$$$
