IWH.pdb
     RDKit          3D

 33 35  0  0  1  0  0  0  0  0999 V2000
   15.4289  -26.6437   -3.1050 C   0  0  0  0  0  0  0  0  0  0  0  0
   14.4561  -25.5262   -2.7152 C   0  0  0  0  0  0  0  0  0  0  0  0
   15.0628  -24.8110   -1.5499 C   0  0  2  0  0  0  0  0  0  0  0  0
   14.9937  -25.7804   -0.3625 C   0  0  0  0  0  0  0  0  0  0  0  0
   14.3532  -23.5605   -1.1497 C   0  0  2  0  0  0  0  0  0  0  0  0
   14.2291  -22.5878   -2.2028 N   0  0  0  0  0  0  0  0  0  0  0  0
   14.9547  -22.8981    0.0246 C   0  0  0  0  0  0  0  0  0  0  0  0
   15.9432  -22.0963   -0.0960 O   0  0  0  0  0  0  0  0  0  0  0  0
   14.5004  -23.0887    1.3576 N   0  0  0  0  0  0  0  0  0  0  0  0
   15.0962  -22.5065    2.5121 C   0  0  1  0  0  0  0  0  0  0  0  0
   14.1771  -21.7206    3.3913 C   0  0  0  0  0  0  0  0  0  0  0  0
   14.0057  -20.3264    2.9047 C   0  0  0  0  0  0  0  0  0  0  0  0
   13.0769  -19.9097    1.9396 C   0  0  0  0  0  0  0  0  0  0  0  0
   13.1906  -18.5851    1.7701 N   0  0  0  0  0  0  0  0  0  0  0  0
   14.1557  -18.1033    2.5809 C   0  0  0  0  0  0  0  0  0  0  0  0
   14.6287  -16.7993    2.7468 C   0  0  0  0  0  0  0  0  0  0  0  0
   15.6420  -16.5762    3.6479 C   0  0  0  0  0  0  0  0  0  0  0  0
   16.1474  -17.6488    4.3480 C   0  0  0  0  0  0  0  0  0  0  0  0
   15.6816  -18.9328    4.1848 C   0  0  0  0  0  0  0  0  0  0  0  0
   14.6590  -19.1723    3.2796 C   0  0  0  0  0  0  0  0  0  0  0  0
   15.9288  -23.4494    3.2859 C   0  0  0  0  0  0  0  0  0  0  0  0
   15.8818  -24.6731    3.0571 O   0  0  0  0  0  0  0  0  0  0  0  0
   16.7820  -22.9499    4.2912 N   0  0  0  0  0  0  0  0  0  0  0  0
   17.5762  -23.8705    5.1049 C   0  0  1  0  0  0  0  0  0  0  0  0
   18.6261  -24.5487    4.2606 C   0  0  0  0  0  0  0  0  0  0  0  0
   18.1471  -25.7706    3.5890 C   0  0  0  0  0  0  0  0  0  0  0  0
   16.8955  -26.3451    3.5887 C   0  0  0  0  0  0  0  0  0  0  0  0
   16.9358  -27.4742    2.8414 N   0  0  0  0  0  0  0  0  0  0  0  0
   18.1707  -27.6140    2.3821 C   0  0  0  0  0  0  0  0  0  0  0  0
   18.9190  -26.5906    2.8252 N   0  0  0  0  0  0  0  0  0  0  0  0
   18.2546  -23.1014    6.1744 C   0  0  0  0  0  0  0  0  0  0  0  0
   18.3083  -21.7336    6.2467 O   0  0  0  0  0  0  0  0  0  0  0  0
   18.8485  -23.7255    7.1198 O   0  0  0  0  0  0  0  0  0  0  0  0
  2  1  1  0
  3  2  1  0
  3  4  1  1
  5  3  1  0
  5  6  1  6
  7  5  1  0
  7  8  2  0
  9  7  1  0
 10  9  1  0
 11 12  1  0
 10 11  1  1
 12 20  1  0
 13 12  2  0
 13 14  1  0
 14 15  1  0
 15 16  1  0
 16 17  2  0
 18 17  1  0
 19 18  2  0
 20 15  2  0
 20 19  1  0
 21 23  1  0
 21 10  1  0
 22 21  2  0
 24 23  1  0
 24 25  1  6
 25 26  1  0
 26 27  2  0
 27 28  1  0
 29 28  1  0
 30 26  1  0
 30 29  2  0
 31 24  1  0
 32 31  1  0
 33 31  2  0
M  END
$$$$
