IWH.pdb
     RDKit          3D

 33 35  0  0  1  0  0  0  0  0999 V2000
   27.5417  -16.7068  -16.8398 C   0  0  0  0  0  0  0  0  0  0  0  0
   28.4184  -17.8164  -16.2503 C   0  0  0  0  0  0  0  0  0  0  0  0
   27.5386  -18.6376  -15.3621 C   0  0  2  0  0  0  0  0  0  0  0  0
   27.1871  -17.7506  -14.1603 C   0  0  0  0  0  0  0  0  0  0  0  0
   28.1750  -19.8791  -14.8322 C   0  0  2  0  0  0  0  0  0  0  0  0
   28.7528  -20.7253  -15.8425 N   0  0  0  0  0  0  0  0  0  0  0  0
   27.2628  -20.6971  -14.0086 C   0  0  0  0  0  0  0  0  0  0  0  0
   26.3694  -21.4405  -14.5414 O   0  0  0  0  0  0  0  0  0  0  0  0
   27.2960  -20.7292  -12.5881 N   0  0  0  0  0  0  0  0  0  0  0  0
   26.4044  -21.4787  -11.7695 C   0  0  1  0  0  0  0  0  0  0  0  0
   26.9948  -22.0509  -10.5207 C   0  0  0  0  0  0  0  0  0  0  0  0
   26.8441  -21.1277   -9.3654 C   0  0  0  0  0  0  0  0  0  0  0  0
   25.7566  -20.2691   -9.1463 C   0  0  0  0  0  0  0  0  0  0  0  0
   25.9502  -19.6069   -7.9972 N   0  0  0  0  0  0  0  0  0  0  0  0
   27.1201  -19.9882   -7.4432 C   0  0  0  0  0  0  0  0  0  0  0  0
   27.7383  -19.5720   -6.2616 C   0  0  0  0  0  0  0  0  0  0  0  0
   28.9520  -20.1214   -5.9247 C   0  0  0  0  0  0  0  0  0  0  0  0
   29.5062  -21.0587   -6.7677 C   0  0  0  0  0  0  0  0  0  0  0  0
   28.8974  -21.4687   -7.9311 C   0  0  0  0  0  0  0  0  0  0  0  0
   27.6721  -20.9232   -8.2829 C   0  0  0  0  0  0  0  0  0  0  0  0
   25.1226  -20.7923  -11.5105 C   0  0  0  0  0  0  0  0  0  0  0  0
   25.0947  -19.7124  -10.8901 O   0  0  0  0  0  0  0  0  0  0  0  0
   23.9243  -21.3732  -11.9740 N   0  0  0  0  0  0  0  0  0  0  0  0
   22.8561  -20.5274  -12.5067 C   0  0  1  0  0  0  0  0  0  0  0  0
   23.3124  -19.8319  -13.7650 C   0  0  0  0  0  0  0  0  0  0  0  0
   22.3146  -18.8998  -14.3211 C   0  0  0  0  0  0  0  0  0  0  0  0
   21.0474  -18.5946  -13.8767 C   0  0  0  0  0  0  0  0  0  0  0  0
   20.4959  -17.6918  -14.7229 N   0  0  0  0  0  0  0  0  0  0  0  0
   21.3813  -17.4317  -15.6735 C   0  0  0  0  0  0  0  0  0  0  0  0
   22.4899  -18.1549  -15.4463 N   0  0  0  0  0  0  0  0  0  0  0  0
   21.6890  -21.3793  -12.8348 C   0  0  0  0  0  0  0  0  0  0  0  0
   21.7398  -22.7304  -13.0603 O   0  0  0  0  0  0  0  0  0  0  0  0
   20.5280  -20.8503  -12.9250 O   0  0  0  0  0  0  0  0  0  0  0  0
  2  1  1  0
  3  2  1  0
  3  4  1  1
  5  3  1  0
  5  6  1  6
  7  5  1  0
  7  8  2  0
  9  7  1  0
 10  9  1  0
 11 12  1  0
 10 11  1  1
 12 20  1  0
 13 12  2  0
 13 14  1  0
 14 15  1  0
 15 16  1  0
 16 17  2  0
 18 17  1  0
 19 18  2  0
 20 15  2  0
 20 19  1  0
 21 23  1  0
 21 10  1  0
 22 21  2  0
 24 23  1  0
 24 25  1  6
 25 26  1  0
 26 27  2  0
 27 28  1  0
 29 28  1  0
 30 26  1  0
 30 29  2  0
 31 24  1  0
 32 31  1  0
 33 31  2  0
M  END
$$$$
