IWH.pdb
     RDKit          3D

 33 35  0  0  1  0  0  0  0  0999 V2000
   29.2839  -21.6906   -8.6756 C   0  0  0  0  0  0  0  0  0  0  0  0
   29.2619  -21.7108  -10.2074 C   0  0  0  0  0  0  0  0  0  0  0  0
   27.9291  -21.1782  -10.6283 C   0  0  2  0  0  0  0  0  0  0  0  0
   26.8758  -22.1029  -10.0038 C   0  0  0  0  0  0  0  0  0  0  0  0
   27.7003  -21.1696  -12.1031 C   0  0  2  0  0  0  0  0  0  0  0  0
   28.7323  -20.5094  -12.8580 N   0  0  0  0  0  0  0  0  0  0  0  0
   26.3995  -20.5878  -12.4888 C   0  0  0  0  0  0  0  0  0  0  0  0
   25.9687  -19.5074  -11.9580 O   0  0  0  0  0  0  0  0  0  0  0  0
   25.5338  -21.1624  -13.4584 N   0  0  0  0  0  0  0  0  0  0  0  0
   24.2999  -20.5956  -13.8862 C   0  0  1  0  0  0  0  0  0  0  0  0
   24.2952  -20.0137  -15.2634 C   0  0  0  0  0  0  0  0  0  0  0  0
   25.0673  -18.7451  -15.3294 C   0  0  0  0  0  0  0  0  0  0  0  0
   26.4496  -18.6442  -15.5452 C   0  0  0  0  0  0  0  0  0  0  0  0
   26.7929  -17.3487  -15.5668 N   0  0  0  0  0  0  0  0  0  0  0  0
   25.6978  -16.5841  -15.3739 C   0  0  0  0  0  0  0  0  0  0  0  0
   25.5655  -15.1948  -15.3119 C   0  0  0  0  0  0  0  0  0  0  0  0
   24.3179  -14.6613  -15.0939 C   0  0  0  0  0  0  0  0  0  0  0  0
   23.2521  -15.5206  -14.9459 C   0  0  0  0  0  0  0  0  0  0  0  0
   23.3823  -16.8886  -15.0072 C   0  0  0  0  0  0  0  0  0  0  0  0
   24.6351  -17.4405  -15.2273 C   0  0  0  0  0  0  0  0  0  0  0  0
   23.1349  -21.4730  -13.6531 C   0  0  0  0  0  0  0  0  0  0  0  0
   23.1362  -22.6510  -14.0582 O   0  0  0  0  0  0  0  0  0  0  0  0
   22.0153  -20.9628  -12.9644 N   0  0  0  0  0  0  0  0  0  0  0  0
   20.8672  -21.8263  -12.6876 C   0  0  1  0  0  0  0  0  0  0  0  0
   20.0522  -21.2700  -11.5466 C   0  0  0  0  0  0  0  0  0  0  0  0
   18.9098  -22.1204  -11.1655 C   0  0  0  0  0  0  0  0  0  0  0  0
   18.8516  -23.1792  -10.2868 C   0  0  0  0  0  0  0  0  0  0  0  0
   17.5870  -23.6645  -10.2744 N   0  0  0  0  0  0  0  0  0  0  0  0
   16.8650  -22.9399  -11.1165 C   0  0  0  0  0  0  0  0  0  0  0  0
   17.6503  -21.9992  -11.6660 N   0  0  0  0  0  0  0  0  0  0  0  0
   20.0103  -21.8857  -13.8949 C   0  0  0  0  0  0  0  0  0  0  0  0
   19.6040  -20.7993  -14.6256 O   0  0  0  0  0  0  0  0  0  0  0  0
   19.5961  -23.0191  -14.3188 O   0  0  0  0  0  0  0  0  0  0  0  0
  2  1  1  0
  3  2  1  0
  3  4  1  1
  5  3  1  0
  5  6  1  6
  7  5  1  0
  7  8  2  0
  9  7  1  0
 10  9  1  0
 11 12  1  0
 10 11  1  6
 12 20  1  0
 13 12  2  0
 13 14  1  0
 14 15  1  0
 15 16  1  0
 16 17  2  0
 18 17  1  0
 19 18  2  0
 20 15  2  0
 20 19  1  0
 21 23  1  0
 21 10  1  0
 22 21  2  0
 24 23  1  0
 24 25  1  1
 25 26  1  0
 26 27  2  0
 27 28  1  0
 29 28  1  0
 30 26  1  0
 30 29  2  0
 31 24  1  0
 32 31  1  0
 33 31  2  0
M  END
$$$$
