IWH.pdb
     RDKit          3D

 33 35  0  0  1  0  0  0  0  0999 V2000
   27.9952  -17.3477  -18.4299 C   0  0  0  0  0  0  0  0  0  0  0  0
   28.6687  -18.5834  -17.8242 C   0  0  0  0  0  0  0  0  0  0  0  0
   27.8170  -19.0212  -16.6752 C   0  0  2  0  0  0  0  0  0  0  0  0
   27.8718  -17.8904  -15.6394 C   0  0  0  0  0  0  0  0  0  0  0  0
   28.2774  -20.2701  -16.0002 C   0  0  2  0  0  0  0  0  0  0  0  0
   28.4003  -21.4052  -16.8762 N   0  0  0  0  0  0  0  0  0  0  0  0
   27.4334  -20.6591  -14.8532 C   0  0  0  0  0  0  0  0  0  0  0  0
   26.2251  -21.0445  -15.0149 O   0  0  0  0  0  0  0  0  0  0  0  0
   27.8775  -20.6395  -13.5033 N   0  0  0  0  0  0  0  0  0  0  0  0
   27.0673  -20.9506  -12.3748 C   0  0  1  0  0  0  0  0  0  0  0  0
   27.7880  -21.0684  -11.0702 C   0  0  0  0  0  0  0  0  0  0  0  0
   26.8540  -21.0035   -9.9156 C   0  0  0  0  0  0  0  0  0  0  0  0
   25.6249  -21.6735   -9.8246 C   0  0  0  0  0  0  0  0  0  0  0  0
   25.0685  -21.4015   -8.6359 N   0  0  0  0  0  0  0  0  0  0  0  0
   25.8748  -20.5789   -7.9331 C   0  0  0  0  0  0  0  0  0  0  0  0
   25.7137  -20.0267   -6.6600 C   0  0  0  0  0  0  0  0  0  0  0  0
   26.6970  -19.2001   -6.1716 C   0  0  0  0  0  0  0  0  0  0  0  0
   27.7987  -18.9520   -6.9595 C   0  0  0  0  0  0  0  0  0  0  0  0
   27.9575  -19.4958   -8.2130 C   0  0  0  0  0  0  0  0  0  0  0  0
   26.9736  -20.3322   -8.7180 C   0  0  0  0  0  0  0  0  0  0  0  0
   25.8597  -20.1075  -12.2647 C   0  0  0  0  0  0  0  0  0  0  0  0
   25.9507  -18.8651  -12.2639 O   0  0  0  0  0  0  0  0  0  0  0  0
   24.5961  -20.7244  -12.1600 N   0  0  0  0  0  0  0  0  0  0  0  0
   23.3780  -19.9467  -12.3871 C   0  0  1  0  0  0  0  0  0  0  0  0
   23.1968  -19.6686  -13.8586 C   0  0  0  0  0  0  0  0  0  0  0  0
   22.0297  -18.8201  -14.1612 C   0  0  0  0  0  0  0  0  0  0  0  0
   21.1002  -18.2616  -13.3123 C   0  0  0  0  0  0  0  0  0  0  0  0
   20.1969  -17.5723  -14.0499 N   0  0  0  0  0  0  0  0  0  0  0  0
   20.5394  -17.6883  -15.3245 C   0  0  0  0  0  0  0  0  0  0  0  0
   21.6480  -18.4414  -15.4112 N   0  0  0  0  0  0  0  0  0  0  0  0
   22.2141  -20.7283  -11.9075 C   0  0  0  0  0  0  0  0  0  0  0  0
   21.1828  -20.2243  -11.1582 O   0  0  0  0  0  0  0  0  0  0  0  0
   22.1296  -21.9723  -12.1925 O   0  0  0  0  0  0  0  0  0  0  0  0
  2  1  1  0
  3  2  1  0
  3  4  1  1
  5  3  1  0
  5  6  1  6
  7  5  1  0
  7  8  2  0
  9  7  1  0
 10  9  1  0
 11 12  1  0
 10 11  1  1
 12 20  1  0
 13 12  2  0
 13 14  1  0
 14 15  1  0
 15 16  1  0
 16 17  2  0
 18 17  1  0
 19 18  2  0
 20 15  2  0
 20 19  1  0
 21 23  1  0
 21 10  1  0
 22 21  2  0
 24 23  1  0
 24 25  1  6
 25 26  1  0
 26 27  2  0
 27 28  1  0
 29 28  1  0
 30 26  1  0
 30 29  2  0
 31 24  1  0
 32 31  1  0
 33 31  2  0
M  END
$$$$
