IWH.pdb
     RDKit          3D

 33 35  0  0  1  0  0  0  0  0999 V2000
   29.4420  -18.3995  -15.5949 C   0  0  0  0  0  0  0  0  0  0  0  0
   28.3233  -19.0255  -16.4340 C   0  0  0  0  0  0  0  0  0  0  0  0
   27.3413  -19.6176  -15.4736 C   0  0  2  0  0  0  0  0  0  0  0  0
   26.6100  -18.4380  -14.8190 C   0  0  0  0  0  0  0  0  0  0  0  0
   27.9526  -20.4287  -14.3800 C   0  0  2  0  0  0  0  0  0  0  0  0
   28.7021  -21.5688  -14.8372 N   0  0  0  0  0  0  0  0  0  0  0  0
   26.9721  -20.8902  -13.3774 C   0  0  0  0  0  0  0  0  0  0  0  0
   26.2386  -21.9166  -13.5855 O   0  0  0  0  0  0  0  0  0  0  0  0
   26.7622  -20.2510  -12.1256 N   0  0  0  0  0  0  0  0  0  0  0  0
   25.6875  -20.5352  -11.2362 C   0  0  1  0  0  0  0  0  0  0  0  0
   25.8456  -20.0214   -9.8411 C   0  0  0  0  0  0  0  0  0  0  0  0
   27.0757  -20.5492   -9.1944 C   0  0  0  0  0  0  0  0  0  0  0  0
   28.0420  -21.3526   -9.8176 C   0  0  0  0  0  0  0  0  0  0  0  0
   29.0196  -21.6168   -8.9397 N   0  0  0  0  0  0  0  0  0  0  0  0
   28.7443  -21.0238   -7.7592 C   0  0  0  0  0  0  0  0  0  0  0  0
   29.4608  -21.0225   -6.5599 C   0  0  0  0  0  0  0  0  0  0  0  0
   28.9472  -20.3345   -5.4869 C   0  0  0  0  0  0  0  0  0  0  0  0
   27.7475  -19.6763   -5.6410 C   0  0  0  0  0  0  0  0  0  0  0  0
   27.0421  -19.6773   -6.8220 C   0  0  0  0  0  0  0  0  0  0  0  0
   27.5490  -20.3667   -7.9130 C   0  0  0  0  0  0  0  0  0  0  0  0
   24.3583  -20.2159  -11.7953 C   0  0  0  0  0  0  0  0  0  0  0  0
   24.1148  -19.0797  -12.2445 O   0  0  0  0  0  0  0  0  0  0  0  0
   23.3622  -21.2135  -11.8164 N   0  0  0  0  0  0  0  0  0  0  0  0
   22.0521  -20.9311  -12.4032 C   0  0  1  0  0  0  0  0  0  0  0  0
   21.6081  -22.0772  -13.2777 C   0  0  0  0  0  0  0  0  0  0  0  0
   22.2545  -22.0956  -14.6026 C   0  0  0  0  0  0  0  0  0  0  0  0
   22.6722  -21.0502  -15.3959 C   0  0  0  0  0  0  0  0  0  0  0  0
   23.1961  -21.5544  -16.5388 N   0  0  0  0  0  0  0  0  0  0  0  0
   23.1143  -22.8753  -16.4756 C   0  0  0  0  0  0  0  0  0  0  0  0
   22.5461  -23.2214  -15.3090 N   0  0  0  0  0  0  0  0  0  0  0  0
   21.0649  -20.7602  -11.3116 C   0  0  0  0  0  0  0  0  0  0  0  0
   19.9071  -20.0323  -11.4048 O   0  0  0  0  0  0  0  0  0  0  0  0
   21.2739  -21.3177  -10.1796 O   0  0  0  0  0  0  0  0  0  0  0  0
  2  1  1  0
  3  2  1  0
  3  4  1  1
  5  3  1  0
  5  6  1  6
  7  5  1  0
  7  8  2  0
  9  7  1  0
 10  9  1  0
 11 12  1  0
 10 11  1  1
 12 20  1  0
 13 12  2  0
 13 14  1  0
 14 15  1  0
 15 16  1  0
 16 17  2  0
 18 17  1  0
 19 18  2  0
 20 15  2  0
 20 19  1  0
 21 23  1  0
 21 10  1  0
 22 21  2  0
 24 23  1  0
 24 25  1  6
 25 26  1  0
 26 27  2  0
 27 28  1  0
 29 28  1  0
 30 26  1  0
 30 29  2  0
 31 24  1  0
 32 31  1  0
 33 31  2  0
M  END
$$$$
