IWH.pdb
     RDKit          3D

 33 35  0  0  1  0  0  0  0  0999 V2000
   14.5511   -9.7720  -19.8528 C   0  0  0  0  0  0  0  0  0  0  0  0
   15.9623  -10.3681  -19.8361 C   0  0  0  0  0  0  0  0  0  0  0  0
   16.6109   -9.9098  -18.5686 C   0  0  2  0  0  0  0  0  0  0  0  0
   16.8010   -8.3931  -18.7027 C   0  0  0  0  0  0  0  0  0  0  0  0
   17.9525  -10.5082  -18.3048 C   0  0  2  0  0  0  0  0  0  0  0  0
   17.9756  -11.9466  -18.3383 N   0  0  0  0  0  0  0  0  0  0  0  0
   18.5492  -10.0645  -17.0294 C   0  0  0  0  0  0  0  0  0  0  0  0
   18.0041  -10.3411  -15.9065 O   0  0  0  0  0  0  0  0  0  0  0  0
   19.7503   -9.3102  -16.9397 N   0  0  0  0  0  0  0  0  0  0  0  0
   20.2885   -8.7764  -15.7347 C   0  0  1  0  0  0  0  0  0  0  0  0
   21.2347   -9.6671  -14.9952 C   0  0  0  0  0  0  0  0  0  0  0  0
   22.4546   -9.9600  -15.7926 C   0  0  0  0  0  0  0  0  0  0  0  0
   22.4957  -10.1299  -17.1844 C   0  0  0  0  0  0  0  0  0  0  0  0
   23.7630  -10.3556  -17.5576 N   0  0  0  0  0  0  0  0  0  0  0  0
   24.5662  -10.3436  -16.4733 C   0  0  0  0  0  0  0  0  0  0  0  0
   25.9460  -10.5353  -16.3690 C   0  0  0  0  0  0  0  0  0  0  0  0
   26.5263  -10.4793  -15.1245 C   0  0  0  0  0  0  0  0  0  0  0  0
   25.7212  -10.2367  -14.0340 C   0  0  0  0  0  0  0  0  0  0  0  0
   24.3625  -10.0478  -14.1367 C   0  0  0  0  0  0  0  0  0  0  0  0
   23.7639  -10.1008  -15.3863 C   0  0  0  0  0  0  0  0  0  0  0  0
   20.8201   -7.4063  -15.8816 C   0  0  0  0  0  0  0  0  0  0  0  0
   21.3626   -7.0463  -16.9437 O   0  0  0  0  0  0  0  0  0  0  0  0
   20.7075   -6.5045  -14.8036 N   0  0  0  0  0  0  0  0  0  0  0  0
   21.0828   -5.1012  -14.9776 C   0  0  1  0  0  0  0  0  0  0  0  0
   21.4739   -4.8339  -16.4096 C   0  0  0  0  0  0  0  0  0  0  0  0
   22.8628   -5.2150  -16.7248 C   0  0  0  0  0  0  0  0  0  0  0  0
   23.8867   -5.5936  -15.8853 C   0  0  0  0  0  0  0  0  0  0  0  0
   24.9927   -5.8338  -16.6297 N   0  0  0  0  0  0  0  0  0  0  0  0
   24.6836   -5.6152  -17.8994 C   0  0  0  0  0  0  0  0  0  0  0  0
   23.3966   -5.2393  -17.9762 N   0  0  0  0  0  0  0  0  0  0  0  0
   19.9194   -4.2486  -14.6387 C   0  0  0  0  0  0  0  0  0  0  0  0
   19.9084   -2.8785  -14.6837 O   0  0  0  0  0  0  0  0  0  0  0  0
   18.8234   -4.7951  -14.2701 O   0  0  0  0  0  0  0  0  0  0  0  0
  2  1  1  0
  3  2  1  0
  3  4  1  6
  5  3  1  0
  5  6  1  1
  7  5  1  0
  7  8  2  0
  9  7  1  0
 10  9  1  0
 11 12  1  0
 10 11  1  6
 12 20  1  0
 13 12  2  0
 13 14  1  0
 14 15  1  0
 15 16  1  0
 16 17  2  0
 18 17  1  0
 19 18  2  0
 20 15  2  0
 20 19  1  0
 21 23  1  0
 21 10  1  0
 22 21  2  0
 24 23  1  0
 24 25  1  6
 25 26  1  0
 26 27  2  0
 27 28  1  0
 29 28  1  0
 30 26  1  0
 30 29  2  0
 31 24  1  0
 32 31  1  0
 33 31  2  0
M  END
$$$$
