IWH.pdb
     RDKit          3D

 33 35  0  0  1  0  0  0  0  0999 V2000
   26.7910  -19.1239  -17.6405 C   0  0  0  0  0  0  0  0  0  0  0  0
   27.5502  -20.1536  -16.7976 C   0  0  0  0  0  0  0  0  0  0  0  0
   26.8646  -20.2164  -15.4697 C   0  0  2  0  0  0  0  0  0  0  0  0
   26.9506  -18.8065  -14.8703 C   0  0  0  0  0  0  0  0  0  0  0  0
   27.4863  -21.1578  -14.4926 C   0  0  2  0  0  0  0  0  0  0  0  0
   27.6079  -22.5101  -14.9692 N   0  0  0  0  0  0  0  0  0  0  0  0
   26.7952  -21.1863  -13.1884 C   0  0  0  0  0  0  0  0  0  0  0  0
   25.6547  -21.7473  -13.0504 O   0  0  0  0  0  0  0  0  0  0  0  0
   27.3225  -20.6074  -12.0024 N   0  0  0  0  0  0  0  0  0  0  0  0
   26.6371  -20.5361  -10.7567 C   0  0  1  0  0  0  0  0  0  0  0  0
   27.3885  -19.8888   -9.6378 C   0  0  0  0  0  0  0  0  0  0  0  0
   26.8269  -20.2550   -8.3110 C   0  0  0  0  0  0  0  0  0  0  0  0
   25.5997  -20.8996   -8.0967 C   0  0  0  0  0  0  0  0  0  0  0  0
   25.4325  -21.0898   -6.7805 N   0  0  0  0  0  0  0  0  0  0  0  0
   26.4960  -20.5987   -6.1106 C   0  0  0  0  0  0  0  0  0  0  0  0
   26.7630  -20.5643   -4.7398 C   0  0  0  0  0  0  0  0  0  0  0  0
   27.9360  -19.9904   -4.3118 C   0  0  0  0  0  0  0  0  0  0  0  0
   28.7972  -19.4735   -5.2537 C   0  0  0  0  0  0  0  0  0  0  0  0
   28.5343  -19.5074   -6.6035 C   0  0  0  0  0  0  0  0  0  0  0  0
   27.3550  -20.0842   -7.0496 C   0  0  0  0  0  0  0  0  0  0  0  0
   25.2591  -20.0167  -10.8699 C   0  0  0  0  0  0  0  0  0  0  0  0
   25.0516  -18.8359  -11.2086 O   0  0  0  0  0  0  0  0  0  0  0  0
   24.1749  -20.8735  -10.5900 N   0  0  0  0  0  0  0  0  0  0  0  0
   22.8180  -20.4939  -10.9838 C   0  0  1  0  0  0  0  0  0  0  0  0
   22.4135  -21.2164  -12.2446 C   0  0  0  0  0  0  0  0  0  0  0  0
   22.3657  -20.3480  -13.4350 C   0  0  0  0  0  0  0  0  0  0  0  0
   22.5621  -18.9894  -13.5453 C   0  0  0  0  0  0  0  0  0  0  0  0
   22.3999  -18.6307  -14.8415 N   0  0  0  0  0  0  0  0  0  0  0  0
   22.1098  -19.7233  -15.5325 C   0  0  0  0  0  0  0  0  0  0  0  0
   22.0847  -20.7740  -14.6964 N   0  0  0  0  0  0  0  0  0  0  0  0
   21.8809  -20.8734   -9.9007 C   0  0  0  0  0  0  0  0  0  0  0  0
   20.6346  -20.3339   -9.7136 O   0  0  0  0  0  0  0  0  0  0  0  0
   22.2250  -21.7683   -9.0541 O   0  0  0  0  0  0  0  0  0  0  0  0
  2  1  1  0
  3  2  1  0
  3  4  1  1
  5  3  1  0
  5  6  1  6
  7  5  1  0
  7  8  2  0
  9  7  1  0
 10  9  1  0
 11 12  1  0
 10 11  1  1
 12 20  1  0
 13 12  2  0
 13 14  1  0
 14 15  1  0
 15 16  1  0
 16 17  2  0
 18 17  1  0
 19 18  2  0
 20 15  2  0
 20 19  1  0
 21 23  1  0
 21 10  1  0
 22 21  2  0
 24 23  1  0
 24 25  1  6
 25 26  1  0
 26 27  2  0
 27 28  1  0
 29 28  1  0
 30 26  1  0
 30 29  2  0
 31 24  1  0
 32 31  1  0
 33 31  2  0
M  END
$$$$
