IWH.pdb
     RDKit          3D

 33 35  0  0  1  0  0  0  0  0999 V2000
   35.0529  -27.0366    6.6810 C   0  0  0  0  0  0  0  0  0  0  0  0
   35.8569  -25.7473    6.8774 C   0  0  0  0  0  0  0  0  0  0  0  0
   35.8579  -25.0332    5.5631 C   0  0  2  0  0  0  0  0  0  0  0  0
   36.6420  -25.9212    4.5879 C   0  0  0  0  0  0  0  0  0  0  0  0
   36.5197  -23.6956    5.5826 C   0  0  2  0  0  0  0  0  0  0  0  0
   37.8705  -23.7110    6.0785 N   0  0  0  0  0  0  0  0  0  0  0  0
   35.7603  -22.6794    6.3377 C   0  0  0  0  0  0  0  0  0  0  0  0
   36.1064  -22.3288    7.5175 O   0  0  0  0  0  0  0  0  0  0  0  0
   34.6074  -22.0189    5.8333 N   0  0  0  0  0  0  0  0  0  0  0  0
   33.7623  -21.1616    6.5932 C   0  0  1  0  0  0  0  0  0  0  0  0
   32.8153  -20.3162    5.8034 C   0  0  0  0  0  0  0  0  0  0  0  0
   32.4080  -19.0975    6.5509 C   0  0  0  0  0  0  0  0  0  0  0  0
   33.2301  -17.9920    6.8146 C   0  0  0  0  0  0  0  0  0  0  0  0
   32.5221  -17.0745    7.4880 N   0  0  0  0  0  0  0  0  0  0  0  0
   31.2646  -17.5231    7.6837 C   0  0  0  0  0  0  0  0  0  0  0  0
   30.1825  -16.9240    8.3331 C   0  0  0  0  0  0  0  0  0  0  0  0
   28.9933  -17.6095    8.4002 C   0  0  0  0  0  0  0  0  0  0  0  0
   28.9206  -18.8581    7.8240 C   0  0  0  0  0  0  0  0  0  0  0  0
   29.9861  -19.4480    7.1845 C   0  0  0  0  0  0  0  0  0  0  0  0
   31.1918  -18.7674    7.1086 C   0  0  0  0  0  0  0  0  0  0  0  0
   33.0891  -21.8420    7.7180 C   0  0  0  0  0  0  0  0  0  0  0  0
   32.7338  -23.0319    7.6192 O   0  0  0  0  0  0  0  0  0  0  0  0
   32.8508  -21.1291    8.9110 N   0  0  0  0  0  0  0  0  0  0  0  0
   32.3848  -21.8324   10.1062 C   0  0  1  0  0  0  0  0  0  0  0  0
   33.5505  -22.4286   10.8552 C   0  0  0  0  0  0  0  0  0  0  0  0
   33.6654  -23.8906   10.7044 C   0  0  0  0  0  0  0  0  0  0  0  0
   32.8510  -24.7759   10.0338 C   0  0  0  0  0  0  0  0  0  0  0  0
   33.3486  -26.0263   10.1877 N   0  0  0  0  0  0  0  0  0  0  0  0
   34.4420  -25.9402   10.9311 C   0  0  0  0  0  0  0  0  0  0  0  0
   34.6495  -24.6532   11.2537 N   0  0  0  0  0  0  0  0  0  0  0  0
   31.6981  -20.8651   10.9941 C   0  0  0  0  0  0  0  0  0  0  0  0
   31.0797  -21.1832   12.1754 O   0  0  0  0  0  0  0  0  0  0  0  0
   31.6561  -19.6293   10.6672 O   0  0  0  0  0  0  0  0  0  0  0  0
  2  1  1  0
  3  2  1  0
  3  4  1  6
  5  3  1  0
  5  6  1  1
  7  5  1  0
  7  8  2  0
  9  7  1  0
 10  9  1  0
 11 12  1  0
 10 11  1  6
 12 20  1  0
 13 12  2  0
 13 14  1  0
 14 15  1  0
 15 16  1  0
 16 17  2  0
 18 17  1  0
 19 18  2  0
 20 15  2  0
 20 19  1  0
 21 23  1  0
 21 10  1  0
 22 21  2  0
 24 23  1  0
 24 25  1  1
 25 26  1  0
 26 27  2  0
 27 28  1  0
 29 28  1  0
 30 26  1  0
 30 29  2  0
 31 24  1  0
 32 31  1  0
 33 31  2  0
M  END
$$$$
