LPR.pdb
     RDKit          3D

 27 27  0  0  1  0  0  0  0  0999 V2000
   27.2912  -18.3578   -6.5612 C   0  0  0  0  0  0  0  0  0  0  0  0
   27.3710  -19.5605   -7.4805 C   0  0  1  0  0  0  0  0  0  0  0  0
   27.4243  -20.7802   -6.5485 C   0  0  0  0  0  0  0  0  0  0  0  0
   26.1408  -19.7243   -8.3110 C   0  0  0  0  0  0  0  0  0  0  0  0
   26.0155  -21.0700   -8.9843 C   0  0  2  0  0  0  0  0  0  0  0  0
   26.8580  -21.0157  -10.1604 N   0  0  0  0  0  0  0  0  0  0  0  0
   24.6167  -21.4052   -9.3454 C   0  0  0  0  0  0  0  0  0  0  0  0
   24.3609  -21.3686  -10.6023 O   0  0  0  0  0  0  0  0  0  0  0  0
   23.6046  -21.7454   -8.4072 N   0  0  0  0  0  0  0  0  0  0  0  0
   23.6832  -21.5683   -6.9978 C   0  0  0  0  0  0  0  0  0  0  0  0
   22.4102  -22.1828   -6.4472 C   0  0  0  0  0  0  0  0  0  0  0  0
   21.9477  -23.1192   -7.5653 C   0  0  0  0  0  0  0  0  0  0  0  0
   22.3491  -22.3234   -8.7743 C   0  0  1  0  0  0  0  0  0  0  0  0
   21.3594  -21.2751   -9.1183 C   0  0  0  0  0  0  0  0  0  0  0  0
   21.6443  -20.0718   -8.9229 O   0  0  0  0  0  0  0  0  0  0  0  0
   19.0926  -22.6762  -15.5428 N   0  0  0  0  0  0  0  0  0  0  0  0
   18.8508  -21.3366  -15.9473 C   0  0  0  0  0  0  0  0  0  0  0  0
   18.1237  -21.1424  -17.0163 N   0  0  0  0  0  0  0  0  0  0  0  0
   19.3519  -20.2133  -15.2582 N   0  0  0  0  0  0  0  0  0  0  0  0
   20.5708  -20.3272  -14.4169 C   0  0  0  0  0  0  0  0  0  0  0  0
   20.2959  -21.4064  -13.4535 C   0  0  0  0  0  0  0  0  0  0  0  0
   20.6662  -21.2844  -12.0499 C   0  0  0  0  0  0  0  0  0  0  0  0
   19.6610  -21.1766  -10.9739 C   0  0  2  0  0  0  0  0  0  0  0  0
   20.0929  -21.5986   -9.6650 N   0  0  0  0  0  0  0  0  0  0  0  0
   18.3300  -21.6938  -11.3271 C   0  0  0  0  0  0  0  0  0  0  0  0
   17.4946  -20.9575  -11.8796 O   0  0  0  0  0  0  0  0  0  0  0  0
   18.0116  -23.0001  -11.0431 O   0  0  0  0  0  0  0  0  0  0  0  0
  2  3  1  1
  2  1  1  0
  4  2  1  0
  4  5  1  0
  5  7  1  0
  5  6  1  6
  7  8  2  0
  9 13  1  0
  9  7  1  0
 10  9  1  0
 11 10  1  0
 11 12  1  0
 12 13  1  0
 13 14  1  1
 14 15  2  0
 16 17  1  0
 17 19  1  0
 18 17  2  0
 19 20  1  0
 21 20  1  0
 21 22  1  0
 23 22  1  6
 23 24  1  0
 23 25  1  0
 24 14  1  0
 25 27  1  0
 26 25  2  0
M  END
$$$$
