LPR.pdb
     RDKit          3D

 27 27  0  0  1  0  0  0  0  0999 V2000
   25.4021  -15.1445  -15.9461 C   0  0  0  0  0  0  0  0  0  0  0  0
   26.3532  -16.3249  -15.9410 C   0  0  1  0  0  0  0  0  0  0  0  0
   27.4310  -15.9726  -14.9050 C   0  0  0  0  0  0  0  0  0  0  0  0
   25.7021  -17.5779  -15.4554 C   0  0  0  0  0  0  0  0  0  0  0  0
   26.5383  -18.8236  -15.6259 C   0  0  2  0  0  0  0  0  0  0  0  0
   26.8583  -18.9081  -17.0353 N   0  0  0  0  0  0  0  0  0  0  0  0
   25.8455  -20.0501  -15.1619 C   0  0  0  0  0  0  0  0  0  0  0  0
   25.2016  -20.6831  -16.0736 O   0  0  0  0  0  0  0  0  0  0  0  0
   25.8644  -20.5251  -13.8223 N   0  0  0  0  0  0  0  0  0  0  0  0
   26.4744  -19.8708  -12.7161 C   0  0  0  0  0  0  0  0  0  0  0  0
   26.3141  -20.8270  -11.5495 C   0  0  0  0  0  0  0  0  0  0  0  0
   26.0688  -22.1794  -12.2214 C   0  0  0  0  0  0  0  0  0  0  0  0
   25.2568  -21.7525  -13.4108 C   0  0  1  0  0  0  0  0  0  0  0  0
   23.8257  -21.5545  -13.0796 C   0  0  0  0  0  0  0  0  0  0  0  0
   23.4500  -20.4594  -12.6033 O   0  0  0  0  0  0  0  0  0  0  0  0
   21.2136  -20.0265  -10.2854 N   0  0  0  0  0  0  0  0  0  0  0  0
   20.2674  -19.0656  -10.7301 C   0  0  0  0  0  0  0  0  0  0  0  0
   19.9025  -18.1325   -9.8902 N   0  0  0  0  0  0  0  0  0  0  0  0
   19.7058  -19.0672  -12.0233 N   0  0  0  0  0  0  0  0  0  0  0  0
   19.4834  -20.3454  -12.7468 C   0  0  0  0  0  0  0  0  0  0  0  0
   20.1554  -20.1937  -14.0483 C   0  0  0  0  0  0  0  0  0  0  0  0
   21.3306  -20.9825  -14.3928 C   0  0  0  0  0  0  0  0  0  0  0  0
   21.5604  -22.3364  -13.8507 C   0  0  2  0  0  0  0  0  0  0  0  0
   22.8658  -22.5756  -13.2881 N   0  0  0  0  0  0  0  0  0  0  0  0
   21.1100  -23.4295  -14.7260 C   0  0  0  0  0  0  0  0  0  0  0  0
   19.9444  -23.8555  -14.6525 O   0  0  0  0  0  0  0  0  0  0  0  0
   21.9862  -23.9809  -15.6296 O   0  0  0  0  0  0  0  0  0  0  0  0
  2  3  1  1
  2  1  1  0
  4  2  1  0
  4  5  1  0
  5  7  1  0
  5  6  1  6
  7  8  2  0
  9 13  1  0
  9  7  1  0
 10  9  1  0
 11 10  1  0
 11 12  1  0
 12 13  1  0
 13 14  1  1
 14 15  2  0
 16 17  1  0
 17 19  1  0
 18 17  2  0
 19 20  1  0
 21 20  1  0
 21 22  1  0
 23 22  1  6
 23 24  1  0
 23 25  1  0
 24 14  1  0
 25 27  1  0
 26 25  2  0
M  END
$$$$
