LPR.pdb
     RDKit          3D

 27 27  0  0  1  0  0  0  0  0999 V2000
   26.5993  -16.7741  -16.5557 C   0  0  0  0  0  0  0  0  0  0  0  0
   27.2623  -17.8446  -15.7116 C   0  0  1  0  0  0  0  0  0  0  0  0
   27.9621  -17.0874  -14.5732 C   0  0  0  0  0  0  0  0  0  0  0  0
   26.2702  -18.7513  -15.0608 C   0  0  0  0  0  0  0  0  0  0  0  0
   26.8544  -20.0380  -14.5285 C   0  0  2  0  0  0  0  0  0  0  0  0
   27.4188  -20.7298  -15.6680 N   0  0  0  0  0  0  0  0  0  0  0  0
   25.8513  -20.8823  -13.8354 C   0  0  0  0  0  0  0  0  0  0  0  0
   25.2484  -21.7298  -14.5869 O   0  0  0  0  0  0  0  0  0  0  0  0
   25.5474  -20.7944  -12.4496 N   0  0  0  0  0  0  0  0  0  0  0  0
   26.2767  -20.0464  -11.4838 C   0  0  0  0  0  0  0  0  0  0  0  0
   25.6223  -20.3678  -10.1536 C   0  0  0  0  0  0  0  0  0  0  0  0
   24.8862  -21.6822  -10.4208 C   0  0  0  0  0  0  0  0  0  0  0  0
   24.4418  -21.4652  -11.8392 C   0  0  1  0  0  0  0  0  0  0  0  0
   23.2074  -20.6498  -11.9289 C   0  0  0  0  0  0  0  0  0  0  0  0
   23.2696  -19.4152  -11.7308 O   0  0  0  0  0  0  0  0  0  0  0  0
   19.5119  -20.5926  -18.5115 N   0  0  0  0  0  0  0  0  0  0  0  0
   19.5236  -19.1817  -18.3511 C   0  0  0  0  0  0  0  0  0  0  0  0
   18.5956  -18.4895  -18.9585 N   0  0  0  0  0  0  0  0  0  0  0  0
   20.4792  -18.4948  -17.5747 N   0  0  0  0  0  0  0  0  0  0  0  0
   21.5232  -19.2432  -16.8288 C   0  0  0  0  0  0  0  0  0  0  0  0
   20.8842  -19.6880  -15.5788 C   0  0  0  0  0  0  0  0  0  0  0  0
   21.6693  -20.2094  -14.4680 C   0  0  0  0  0  0  0  0  0  0  0  0
   21.0475  -20.6975  -13.2211 C   0  0  2  0  0  0  0  0  0  0  0  0
   21.9521  -21.2316  -12.2341 N   0  0  0  0  0  0  0  0  0  0  0  0
   19.8606  -21.5432  -13.4207 C   0  0  0  0  0  0  0  0  0  0  0  0
   19.9851  -22.7571  -13.6585 O   0  0  0  0  0  0  0  0  0  0  0  0
   18.6076  -20.9844  -13.3431 O   0  0  0  0  0  0  0  0  0  0  0  0
  2  3  1  1
  2  1  1  0
  4  2  1  0
  4  5  1  0
  5  7  1  0
  5  6  1  6
  7  8  2  0
  9 13  1  0
  9  7  1  0
 10  9  1  0
 11 10  1  0
 11 12  1  0
 12 13  1  0
 13 14  1  1
 14 15  2  0
 16 17  1  0
 17 19  1  0
 18 17  2  0
 19 20  1  0
 21 20  1  0
 21 22  1  0
 23 22  1  6
 23 24  1  0
 23 25  1  0
 24 14  1  0
 25 27  1  0
 26 25  2  0
M  END
$$$$
