LPR.pdb
     RDKit          3D

 27 27  0  0  1  0  0  0  0  0999 V2000
   25.5102  -14.9360  -15.9433 C   0  0  0  0  0  0  0  0  0  0  0  0
   25.9510  -16.3499  -16.2668 C   0  0  1  0  0  0  0  0  0  0  0  0
   27.4788  -16.3441  -16.1098 C   0  0  0  0  0  0  0  0  0  0  0  0
   25.4347  -17.3462  -15.2815 C   0  0  0  0  0  0  0  0  0  0  0  0
   25.7239  -18.7849  -15.6370 C   0  0  2  0  0  0  0  0  0  0  0  0
   24.8190  -19.1268  -16.7141 N   0  0  0  0  0  0  0  0  0  0  0  0
   25.5570  -19.7068  -14.4874 C   0  0  0  0  0  0  0  0  0  0  0  0
   24.3760  -20.1894  -14.3504 O   0  0  0  0  0  0  0  0  0  0  0  0
   26.5948  -20.0568  -13.5813 N   0  0  0  0  0  0  0  0  0  0  0  0
   27.9436  -19.6091  -13.6481 C   0  0  0  0  0  0  0  0  0  0  0  0
   28.6637  -20.3459  -12.5348 C   0  0  0  0  0  0  0  0  0  0  0  0
   27.7578  -21.5455  -12.2499 C   0  0  0  0  0  0  0  0  0  0  0  0
   26.4060  -20.9256  -12.4613 C   0  0  1  0  0  0  0  0  0  0  0  0
   25.9351  -20.1721  -11.2750 C   0  0  0  0  0  0  0  0  0  0  0  0
   25.8500  -18.9245  -11.3323 O   0  0  0  0  0  0  0  0  0  0  0  0
   18.3762  -22.7048   -9.0775 N   0  0  0  0  0  0  0  0  0  0  0  0
   19.4502  -22.5876   -8.1559 C   0  0  0  0  0  0  0  0  0  0  0  0
   19.3746  -23.2637   -7.0395 N   0  0  0  0  0  0  0  0  0  0  0  0
   20.5863  -21.7843   -8.3833 N   0  0  0  0  0  0  0  0  0  0  0  0
   20.6647  -20.9118   -9.5829 C   0  0  0  0  0  0  0  0  0  0  0  0
   21.8727  -20.0888   -9.4040 C   0  0  0  0  0  0  0  0  0  0  0  0
   23.1342  -20.4428  -10.0406 C   0  0  0  0  0  0  0  0  0  0  0  0
   24.4093  -20.4872   -9.2977 C   0  0  2  0  0  0  0  0  0  0  0  0
   25.5767  -20.8281  -10.0714 N   0  0  0  0  0  0  0  0  0  0  0  0
   24.3455  -21.2087   -8.0174 C   0  0  0  0  0  0  0  0  0  0  0  0
   24.5085  -22.4405   -7.9799 O   0  0  0  0  0  0  0  0  0  0  0  0
   24.1042  -20.5131   -6.8570 O   0  0  0  0  0  0  0  0  0  0  0  0
  2  3  1  1
  2  1  1  0
  4  2  1  0
  4  5  1  0
  5  7  1  0
  5  6  1  6
  7  8  2  0
  9 13  1  0
  9  7  1  0
 10  9  1  0
 11 10  1  0
 11 12  1  0
 12 13  1  0
 13 14  1  1
 14 15  2  0
 16 17  1  0
 17 19  1  0
 18 17  2  0
 19 20  1  0
 21 20  1  0
 21 22  1  0
 23 22  1  6
 23 24  1  0
 23 25  1  0
 24 14  1  0
 25 27  1  0
 26 25  2  0
M  END
$$$$
