LPR.pdb
     RDKit          3D

 27 27  0  0  1  0  0  0  0  0999 V2000
   21.0769  -18.0170  -15.4084 C   0  0  0  0  0  0  0  0  0  0  0  0
   22.2926  -18.8286  -15.0068 C   0  0  1  0  0  0  0  0  0  0  0  0
   23.3845  -17.7950  -14.6932 C   0  0  0  0  0  0  0  0  0  0  0  0
   22.0721  -19.5974  -13.7457 C   0  0  0  0  0  0  0  0  0  0  0  0
   23.2112  -20.5119  -13.3636 C   0  0  2  0  0  0  0  0  0  0  0  0
   23.3670  -21.4460  -14.4586 N   0  0  0  0  0  0  0  0  0  0  0  0
   22.9735  -21.2242  -12.0847 C   0  0  0  0  0  0  0  0  0  0  0  0
   22.2364  -22.2703  -12.1793 O   0  0  0  0  0  0  0  0  0  0  0  0
   23.4995  -20.8167  -10.8286 N   0  0  0  0  0  0  0  0  0  0  0  0
   24.3185  -19.6761  -10.6002 C   0  0  0  0  0  0  0  0  0  0  0  0
   24.6996  -19.7463   -9.1336 C   0  0  0  0  0  0  0  0  0  0  0  0
   24.4736  -21.2154   -8.7710 C   0  0  0  0  0  0  0  0  0  0  0  0
   23.2640  -21.5222   -9.6072 C   0  0  1  0  0  0  0  0  0  0  0  0
   22.0037  -21.0757   -8.9677 C   0  0  0  0  0  0  0  0  0  0  0  0
   21.4304  -20.0459   -9.3899 O   0  0  0  0  0  0  0  0  0  0  0  0
   16.3651  -27.1847   -8.8375 N   0  0  0  0  0  0  0  0  0  0  0  0
   15.7261  -25.9965   -9.2808 C   0  0  0  0  0  0  0  0  0  0  0  0
   14.4636  -26.0685   -9.6127 N   0  0  0  0  0  0  0  0  0  0  0  0
   16.3806  -24.7517   -9.3800 N   0  0  0  0  0  0  0  0  0  0  0  0
   17.8166  -24.6245   -9.0222 C   0  0  0  0  0  0  0  0  0  0  0  0
   18.1913  -23.2380   -9.3473 C   0  0  0  0  0  0  0  0  0  0  0  0
   19.5573  -22.7608   -9.1784 C   0  0  0  0  0  0  0  0  0  0  0  0
   20.0668  -22.2644   -7.8846 C   0  0  2  0  0  0  0  0  0  0  0  0
   21.4264  -21.7856   -7.8859 N   0  0  0  0  0  0  0  0  0  0  0  0
   19.7725  -23.1363   -6.7371 C   0  0  0  0  0  0  0  0  0  0  0  0
   18.7513  -22.9530   -6.0524 O   0  0  0  0  0  0  0  0  0  0  0  0
   20.6345  -24.1594   -6.4228 O   0  0  0  0  0  0  0  0  0  0  0  0
  2  3  1  1
  2  1  1  0
  4  2  1  0
  4  5  1  0
  5  7  1  0
  5  6  1  6
  7  8  2  0
  9 13  1  0
  9  7  1  0
 10  9  1  0
 11 10  1  0
 11 12  1  0
 12 13  1  0
 13 14  1  1
 14 15  2  0
 16 17  1  0
 17 19  1  0
 18 17  2  0
 19 20  1  0
 21 20  1  0
 21 22  1  0
 23 22  1  6
 23 24  1  0
 23 25  1  0
 24 14  1  0
 25 27  1  0
 26 25  2  0
M  END
$$$$
