LPR.pdb
     RDKit          3D

 27 27  0  0  1  0  0  0  0  0999 V2000
   29.2014  -19.4226   -4.9431 C   0  0  0  0  0  0  0  0  0  0  0  0
   27.7587  -19.5981   -5.3741 C   0  0  1  0  0  0  0  0  0  0  0  0
   27.1765  -18.1779   -5.4295 C   0  0  0  0  0  0  0  0  0  0  0  0
   27.6411  -20.1508   -6.7563 C   0  0  0  0  0  0  0  0  0  0  0  0
   26.2332  -20.5067   -7.1698 C   0  0  2  0  0  0  0  0  0  0  0  0
   25.7477  -21.4516   -6.1863 N   0  0  0  0  0  0  0  0  0  0  0  0
   26.1612  -21.0761   -8.5373 C   0  0  0  0  0  0  0  0  0  0  0  0
   26.8572  -22.1392   -8.7159 O   0  0  0  0  0  0  0  0  0  0  0  0
   25.3956  -20.5216   -9.5988 N   0  0  0  0  0  0  0  0  0  0  0  0
   24.4159  -19.4979   -9.4715 C   0  0  0  0  0  0  0  0  0  0  0  0
   23.8178  -19.3441  -10.8570 C   0  0  0  0  0  0  0  0  0  0  0  0
   24.1630  -20.6644  -11.5487 C   0  0  0  0  0  0  0  0  0  0  0  0
   25.5189  -20.9360  -10.9619 C   0  0  1  0  0  0  0  0  0  0  0  0
   26.5963  -20.1875  -11.6517 C   0  0  0  0  0  0  0  0  0  0  0  0
   27.3751  -19.4722  -10.9816 O   0  0  0  0  0  0  0  0  0  0  0  0
   33.6848  -22.9612  -10.7571 N   0  0  0  0  0  0  0  0  0  0  0  0
   33.2420  -23.2317  -12.0790 C   0  0  0  0  0  0  0  0  0  0  0  0
   34.0508  -23.8825  -12.8737 N   0  0  0  0  0  0  0  0  0  0  0  0
   31.9824  -22.8366  -12.5738 N   0  0  0  0  0  0  0  0  0  0  0  0
   31.0467  -22.0608  -11.7198 C   0  0  0  0  0  0  0  0  0  0  0  0
   30.2862  -21.1963  -12.6379 C   0  0  0  0  0  0  0  0  0  0  0  0
   28.9086  -21.4999  -13.0011 C   0  0  0  0  0  0  0  0  0  0  0  0
   28.0388  -20.5240  -13.6873 C   0  0  2  0  0  0  0  0  0  0  0  0
   26.7702  -20.2591  -13.0560 N   0  0  0  0  0  0  0  0  0  0  0  0
   27.9195  -20.7270  -15.1393 C   0  0  0  0  0  0  0  0  0  0  0  0
   28.5846  -20.0344  -15.9287 O   0  0  0  0  0  0  0  0  0  0  0  0
   27.0662  -21.6897  -15.6226 O   0  0  0  0  0  0  0  0  0  0  0  0
  2  3  1  6
  2  1  1  0
  4  2  1  0
  4  5  1  0
  5  7  1  0
  5  6  1  1
  7  8  2  0
  9 13  1  0
  9  7  1  0
 10  9  1  0
 11 10  1  0
 11 12  1  0
 12 13  1  0
 13 14  1  6
 14 15  2  0
 16 17  1  0
 17 19  1  0
 18 17  2  0
 19 20  1  0
 21 20  1  0
 21 22  1  0
 23 22  1  1
 23 24  1  0
 23 25  1  0
 24 14  1  0
 25 27  1  0
 26 25  2  0
M  END
$$$$
