LPR.pdb
     RDKit          3D

 27 27  0  0  1  0  0  0  0  0999 V2000
   23.7595  -25.2967  -18.4532 C   0  0  0  0  0  0  0  0  0  0  0  0
   24.3243  -24.1962  -17.5770 C   0  0  1  0  0  0  0  0  0  0  0  0
   24.3624  -22.9468  -18.4695 C   0  0  0  0  0  0  0  0  0  0  0  0
   23.4256  -23.8630  -16.4319 C   0  0  0  0  0  0  0  0  0  0  0  0
   24.0753  -23.0385  -15.3465 C   0  0  2  0  0  0  0  0  0  0  0  0
   25.2692  -23.7557  -14.9515 N   0  0  0  0  0  0  0  0  0  0  0  0
   23.1821  -22.8094  -14.1850 C   0  0  0  0  0  0  0  0  0  0  0  0
   23.2379  -23.7129  -13.2755 O   0  0  0  0  0  0  0  0  0  0  0  0
   22.3145  -21.6919  -14.0471 N   0  0  0  0  0  0  0  0  0  0  0  0
   22.1023  -20.6782  -15.0225 C   0  0  0  0  0  0  0  0  0  0  0  0
   21.1859  -19.6696  -14.3563 C   0  0  0  0  0  0  0  0  0  0  0  0
   21.3656  -19.9488  -12.8628 C   0  0  0  0  0  0  0  0  0  0  0  0
   21.5275  -21.4421  -12.8796 C   0  0  1  0  0  0  0  0  0  0  0  0
   20.2288  -22.1531  -12.9495 C   0  0  0  0  0  0  0  0  0  0  0  0
   19.7257  -22.4073  -14.0673 O   0  0  0  0  0  0  0  0  0  0  0  0
   18.3423  -24.8845   -5.3319 N   0  0  0  0  0  0  0  0  0  0  0  0
   17.1317  -24.4354   -5.9228 C   0  0  0  0  0  0  0  0  0  0  0  0
   16.1619  -24.0683   -5.1265 N   0  0  0  0  0  0  0  0  0  0  0  0
   16.9247  -24.3659   -7.3156 N   0  0  0  0  0  0  0  0  0  0  0  0
   18.0445  -24.6207   -8.2577 C   0  0  0  0  0  0  0  0  0  0  0  0
   17.4913  -24.4131   -9.6065 C   0  0  0  0  0  0  0  0  0  0  0  0
   18.3354  -24.4774  -10.7920 C   0  0  0  0  0  0  0  0  0  0  0  0
   18.3677  -23.3978  -11.7987 C   0  0  2  0  0  0  0  0  0  0  0  0
   19.5372  -22.5553  -11.7802 N   0  0  0  0  0  0  0  0  0  0  0  0
   17.1172  -22.6317  -11.9133 C   0  0  0  0  0  0  0  0  0  0  0  0
   17.0680  -21.4470  -11.5399 O   0  0  0  0  0  0  0  0  0  0  0  0
   15.9981  -23.2328  -12.4373 O   0  0  0  0  0  0  0  0  0  0  0  0
  2  3  1  6
  2  1  1  0
  4  2  1  0
  4  5  1  0
  5  7  1  0
  5  6  1  1
  7  8  2  0
  9 13  1  0
  9  7  1  0
 10  9  1  0
 11 10  1  0
 11 12  1  0
 12 13  1  0
 13 14  1  6
 14 15  2  0
 16 17  1  0
 17 19  1  0
 18 17  2  0
 19 20  1  0
 21 20  1  0
 21 22  1  0
 23 22  1  1
 23 24  1  0
 23 25  1  0
 24 14  1  0
 25 27  1  0
 26 25  2  0
M  END
$$$$
