LPR.pdb
     RDKit          3D

 27 27  0  0  1  0  0  0  0  0999 V2000
   19.9540  -26.9868   -0.6521 C   0  0  0  0  0  0  0  0  0  0  0  0
   19.5429  -27.2350    0.7858 C   0  0  1  0  0  0  0  0  0  0  0  0
   20.8460  -27.5648    1.5288 C   0  0  0  0  0  0  0  0  0  0  0  0
   18.9893  -26.0113    1.4385 C   0  0  0  0  0  0  0  0  0  0  0  0
   18.3458  -26.2562    2.7823 C   0  0  2  0  0  0  0  0  0  0  0  0
   17.4300  -27.3623    2.5985 N   0  0  0  0  0  0  0  0  0  0  0  0
   17.6411  -25.0625    3.3094 C   0  0  0  0  0  0  0  0  0  0  0  0
   16.3829  -25.0255    3.0602 O   0  0  0  0  0  0  0  0  0  0  0  0
   18.2689  -24.0158    4.0379 N   0  0  0  0  0  0  0  0  0  0  0  0
   19.6537  -23.9370    4.3545 C   0  0  0  0  0  0  0  0  0  0  0  0
   19.7936  -22.7039    5.2269 C   0  0  0  0  0  0  0  0  0  0  0  0
   18.3760  -22.4705    5.7531 C   0  0  0  0  0  0  0  0  0  0  0  0
   17.5670  -22.8831    4.5567 C   0  0  1  0  0  0  0  0  0  0  0  0
   17.4655  -21.8077    3.5417 C   0  0  0  0  0  0  0  0  0  0  0  0
   17.9260  -21.9996    2.3935 O   0  0  0  0  0  0  0  0  0  0  0  0
   12.0952  -21.1920   -1.7322 N   0  0  0  0  0  0  0  0  0  0  0  0
   13.3012  -21.9230   -1.8988 C   0  0  0  0  0  0  0  0  0  0  0  0
   13.7433  -22.1041   -3.1158 N   0  0  0  0  0  0  0  0  0  0  0  0
   14.0407  -22.4593   -0.8250 N   0  0  0  0  0  0  0  0  0  0  0  0
   13.6696  -22.1429    0.5781 C   0  0  0  0  0  0  0  0  0  0  0  0
   14.7557  -21.2971    1.1010 C   0  0  0  0  0  0  0  0  0  0  0  0
   14.8044  -20.9037    2.5028 C   0  0  0  0  0  0  0  0  0  0  0  0
   15.8222  -19.9714    3.0271 C   0  0  2  0  0  0  0  0  0  0  0  0
   16.8587  -20.5617    3.8364 N   0  0  0  0  0  0  0  0  0  0  0  0
   15.2762  -18.7380    3.6140 C   0  0  0  0  0  0  0  0  0  0  0  0
   15.0355  -17.7520    2.8962 O   0  0  0  0  0  0  0  0  0  0  0  0
   15.0319  -18.6790    4.9650 O   0  0  0  0  0  0  0  0  0  0  0  0
  2  3  1  1
  2  1  1  0
  4  2  1  0
  4  5  1  0
  5  7  1  0
  5  6  1  6
  7  8  2  0
  9 13  1  0
  9  7  1  0
 10  9  1  0
 11 10  1  0
 11 12  1  0
 12 13  1  0
 13 14  1  6
 14 15  2  0
 16 17  1  0
 17 19  1  0
 18 17  2  0
 19 20  1  0
 21 20  1  0
 21 22  1  0
 23 22  1  1
 23 24  1  0
 23 25  1  0
 24 14  1  0
 25 27  1  0
 26 25  2  0
M  END
$$$$
