LPR.pdb
     RDKit          3D

 27 27  0  0  1  0  0  0  0  0999 V2000
   25.7581  -14.9032  -14.8492 C   0  0  0  0  0  0  0  0  0  0  0  0
   26.4700  -16.0650  -15.5136 C   0  0  1  0  0  0  0  0  0  0  0  0
   27.7268  -16.3090  -14.6651 C   0  0  0  0  0  0  0  0  0  0  0  0
   25.6755  -17.3280  -15.4542 C   0  0  0  0  0  0  0  0  0  0  0  0
   26.4951  -18.5891  -15.5875 C   0  0  2  0  0  0  0  0  0  0  0  0
   26.7650  -18.7506  -17.0007 N   0  0  0  0  0  0  0  0  0  0  0  0
   25.8091  -19.7827  -15.0360 C   0  0  0  0  0  0  0  0  0  0  0  0
   24.9479  -20.3202  -15.8208 O   0  0  0  0  0  0  0  0  0  0  0  0
   26.0530  -20.3240  -13.7445 N   0  0  0  0  0  0  0  0  0  0  0  0
   26.9482  -19.7922  -12.7750 C   0  0  0  0  0  0  0  0  0  0  0  0
   26.9287  -20.7844  -11.6278 C   0  0  0  0  0  0  0  0  0  0  0  0
   26.4006  -22.0690  -12.2695 C   0  0  0  0  0  0  0  0  0  0  0  0
   25.4117  -21.5016  -13.2475 C   0  0  1  0  0  0  0  0  0  0  0  0
   24.1117  -21.1746  -12.6152 C   0  0  0  0  0  0  0  0  0  0  0  0
   23.9516  -21.3866  -11.3918 O   0  0  0  0  0  0  0  0  0  0  0  0
   18.1496  -21.5002   -7.5734 N   0  0  0  0  0  0  0  0  0  0  0  0
   19.2023  -22.1518   -8.2690 C   0  0  0  0  0  0  0  0  0  0  0  0
   19.6498  -23.2801   -7.7832 N   0  0  0  0  0  0  0  0  0  0  0  0
   19.7848  -21.6465   -9.4492 N   0  0  0  0  0  0  0  0  0  0  0  0
   18.9466  -20.9768  -10.4766 C   0  0  0  0  0  0  0  0  0  0  0  0
   19.6079  -21.2351  -11.7668 C   0  0  0  0  0  0  0  0  0  0  0  0
   21.0215  -20.9461  -11.9672 C   0  0  0  0  0  0  0  0  0  0  0  0
   21.6836  -21.1089  -13.2767 C   0  0  2  0  0  0  0  0  0  0  0  0
   23.0391  -20.6258  -13.3608 N   0  0  0  0  0  0  0  0  0  0  0  0
   20.8642  -20.7058  -14.4299 C   0  0  0  0  0  0  0  0  0  0  0  0
   21.2436  -19.7930  -15.1837 O   0  0  0  0  0  0  0  0  0  0  0  0
   19.6720  -21.3447  -14.6725 O   0  0  0  0  0  0  0  0  0  0  0  0
  2  3  1  1
  2  1  1  0
  4  2  1  0
  4  5  1  0
  5  7  1  0
  5  6  1  6
  7  8  2  0
  9 13  1  0
  9  7  1  0
 10  9  1  0
 11 10  1  0
 11 12  1  0
 12 13  1  0
 13 14  1  1
 14 15  2  0
 16 17  1  0
 17 19  1  0
 18 17  2  0
 19 20  1  0
 21 20  1  0
 21 22  1  0
 23 22  1  1
 23 24  1  0
 23 25  1  0
 24 14  1  0
 25 27  1  0
 26 25  2  0
M  END
$$$$
