LPR.pdb
     RDKit          3D

 27 27  0  0  1  0  0  0  0  0999 V2000
   24.4723  -21.9113  -14.6448 C   0  0  0  0  0  0  0  0  0  0  0  0
   25.3833  -22.9010  -13.9458 C   0  0  1  0  0  0  0  0  0  0  0  0
   26.7166  -22.8306  -14.7048 C   0  0  0  0  0  0  0  0  0  0  0  0
   25.6834  -22.5020  -12.5384 C   0  0  0  0  0  0  0  0  0  0  0  0
   26.4199  -21.1907  -12.4038 C   0  0  2  0  0  0  0  0  0  0  0  0
   26.6013  -20.9707  -10.9844 N   0  0  0  0  0  0  0  0  0  0  0  0
   25.6975  -20.0576  -13.0310 C   0  0  0  0  0  0  0  0  0  0  0  0
   24.5435  -19.8093  -12.5279 O   0  0  0  0  0  0  0  0  0  0  0  0
   26.2037  -19.2797  -14.1076 N   0  0  0  0  0  0  0  0  0  0  0  0
   27.4507  -19.4781  -14.7631 C   0  0  0  0  0  0  0  0  0  0  0  0
   27.5681  -18.3333  -15.7514 C   0  0  0  0  0  0  0  0  0  0  0  0
   26.5944  -17.2855  -15.2086 C   0  0  0  0  0  0  0  0  0  0  0  0
   25.5032  -18.1719  -14.6796 C   0  0  1  0  0  0  0  0  0  0  0  0
   24.5714  -18.6206  -15.7413 C   0  0  0  0  0  0  0  0  0  0  0  0
   24.9494  -19.4807  -16.5687 O   0  0  0  0  0  0  0  0  0  0  0  0
   19.8826  -22.1992  -11.7378 N   0  0  0  0  0  0  0  0  0  0  0  0
   19.2913  -22.1630  -13.0283 C   0  0  0  0  0  0  0  0  0  0  0  0
   18.1920  -22.8452  -13.2166 N   0  0  0  0  0  0  0  0  0  0  0  0
   19.8265  -21.4330  -14.1092 N   0  0  0  0  0  0  0  0  0  0  0  0
   21.0839  -20.6590  -13.9470 C   0  0  0  0  0  0  0  0  0  0  0  0
   20.9155  -19.4421  -14.7590 C   0  0  0  0  0  0  0  0  0  0  0  0
   21.2043  -19.4356  -16.1868 C   0  0  0  0  0  0  0  0  0  0  0  0
   22.2750  -18.6048  -16.7727 C   0  0  2  0  0  0  0  0  0  0  0  0
   23.2578  -18.1003  -15.8467 N   0  0  0  0  0  0  0  0  0  0  0  0
   21.8051  -17.5796  -17.7171 C   0  0  0  0  0  0  0  0  0  0  0  0
   22.1380  -16.3906  -17.5727 O   0  0  0  0  0  0  0  0  0  0  0  0
   20.9930  -17.9422  -18.7646 O   0  0  0  0  0  0  0  0  0  0  0  0
  2  3  1  6
  2  1  1  0
  4  2  1  0
  4  5  1  0
  5  7  1  0
  5  6  1  1
  7  8  2  0
  9 13  1  0
  9  7  1  0
 10  9  1  0
 11 10  1  0
 11 12  1  0
 12 13  1  0
 13 14  1  6
 14 15  2  0
 16 17  1  0
 17 19  1  0
 18 17  2  0
 19 20  1  0
 21 20  1  0
 21 22  1  0
 23 22  1  1
 23 24  1  0
 23 25  1  0
 24 14  1  0
 25 27  1  0
 26 25  2  0
M  END
$$$$
