LPR.pdb
     RDKit          3D

 27 27  0  0  1  0  0  0  0  0999 V2000
   25.3445  -21.9003  -19.8531 C   0  0  0  0  0  0  0  0  0  0  0  0
   26.5378  -21.8892  -18.9183 C   0  0  1  0  0  0  0  0  0  0  0  0
   27.2904  -20.5888  -19.2370 C   0  0  0  0  0  0  0  0  0  0  0  0
   26.1353  -21.7966  -17.4832 C   0  0  0  0  0  0  0  0  0  0  0  0
   27.2825  -21.8838  -16.5053 C   0  0  2  0  0  0  0  0  0  0  0  0
   27.8350  -23.2147  -16.6451 N   0  0  0  0  0  0  0  0  0  0  0  0
   26.8669  -21.6233  -15.1057 C   0  0  0  0  0  0  0  0  0  0  0  0
   26.6707  -22.6749  -14.3970 O   0  0  0  0  0  0  0  0  0  0  0  0
   26.6866  -20.3278  -14.5493 N   0  0  0  0  0  0  0  0  0  0  0  0
   26.8057  -19.0966  -15.2522 C   0  0  0  0  0  0  0  0  0  0  0  0
   26.6318  -18.0182  -14.1996 C   0  0  0  0  0  0  0  0  0  0  0  0
   26.9359  -18.7421  -12.8865 C   0  0  0  0  0  0  0  0  0  0  0  0
   26.3546  -20.0962  -13.1778 C   0  0  1  0  0  0  0  0  0  0  0  0
   24.8879  -20.1412  -12.9690 C   0  0  0  0  0  0  0  0  0  0  0  0
   24.1218  -19.9526  -13.9409 O   0  0  0  0  0  0  0  0  0  0  0  0
   19.7218  -24.0967   -6.7582 N   0  0  0  0  0  0  0  0  0  0  0  0
   18.9395  -23.4151   -7.7276 C   0  0  0  0  0  0  0  0  0  0  0  0
   17.7226  -23.8425   -7.9418 N   0  0  0  0  0  0  0  0  0  0  0  0
   19.4060  -22.3079   -8.4653 N   0  0  0  0  0  0  0  0  0  0  0  0
   20.8377  -21.9157   -8.4118 C   0  0  0  0  0  0  0  0  0  0  0  0
   21.2038  -21.5393   -9.7877 C   0  0  0  0  0  0  0  0  0  0  0  0
   22.5512  -21.0975  -10.1213 C   0  0  0  0  0  0  0  0  0  0  0  0
   22.9245  -20.6560  -11.4798 C   0  0  2  0  0  0  0  0  0  0  0  0
   24.3256  -20.3930  -11.6931 N   0  0  0  0  0  0  0  0  0  0  0  0
   22.0579  -19.6085  -12.0415 C   0  0  0  0  0  0  0  0  0  0  0  0
   22.2915  -18.4089  -11.8139 O   0  0  0  0  0  0  0  0  0  0  0  0
   20.9840  -19.9620  -12.8226 O   0  0  0  0  0  0  0  0  0  0  0  0
  2  3  1  6
  2  1  1  0
  4  2  1  0
  4  5  1  0
  5  7  1  0
  5  6  1  1
  7  8  2  0
  9 13  1  0
  9  7  1  0
 10  9  1  0
 11 10  1  0
 11 12  1  0
 12 13  1  0
 13 14  1  6
 14 15  2  0
 16 17  1  0
 17 19  1  0
 18 17  2  0
 19 20  1  0
 21 20  1  0
 21 22  1  0
 23 22  1  1
 23 24  1  0
 23 25  1  0
 24 14  1  0
 25 27  1  0
 26 25  2  0
M  END
$$$$
