LPR.pdb
     RDKit          3D

 27 27  0  0  1  0  0  0  0  0999 V2000
   18.5582  -16.6900    0.8301 C   0  0  0  0  0  0  0  0  0  0  0  0
   17.9939  -18.0138    1.3066 C   0  0  1  0  0  0  0  0  0  0  0  0
   18.9327  -19.0850    0.7321 C   0  0  0  0  0  0  0  0  0  0  0  0
   18.0570  -18.1575    2.7916 C   0  0  0  0  0  0  0  0  0  0  0  0
   17.3684  -19.3885    3.3305 C   0  0  2  0  0  0  0  0  0  0  0  0
   15.9894  -19.3046    2.8980 N   0  0  0  0  0  0  0  0  0  0  0  0
   17.4585  -19.4989    4.8067 C   0  0  0  0  0  0  0  0  0  0  0  0
   16.4191  -19.0953    5.4418 O   0  0  0  0  0  0  0  0  0  0  0  0
   18.5874  -20.0048    5.5069 N   0  0  0  0  0  0  0  0  0  0  0  0
   19.7083  -20.6545    4.9191 C   0  0  0  0  0  0  0  0  0  0  0  0
   20.5708  -21.0953    6.0865 C   0  0  0  0  0  0  0  0  0  0  0  0
   19.6014  -21.1020    7.2702 C   0  0  0  0  0  0  0  0  0  0  0  0
   18.7391  -19.9210    6.9263 C   0  0  1  0  0  0  0  0  0  0  0  0
   19.3567  -18.6330    7.3217 C   0  0  0  0  0  0  0  0  0  0  0  0
   19.9542  -17.9472    6.4616 O   0  0  0  0  0  0  0  0  0  0  0  0
   19.2589  -11.4365    5.6299 N   0  0  0  0  0  0  0  0  0  0  0  0
   18.2665  -12.4380    5.4605 C   0  0  0  0  0  0  0  0  0  0  0  0
   17.5910  -12.4464    4.3411 N   0  0  0  0  0  0  0  0  0  0  0  0
   17.9753  -13.4170    6.4323 N   0  0  0  0  0  0  0  0  0  0  0  0
   18.7259  -13.4539    7.7136 C   0  0  0  0  0  0  0  0  0  0  0  0
   18.0949  -14.5126    8.5196 C   0  0  0  0  0  0  0  0  0  0  0  0
   18.3121  -15.9226    8.2255 C   0  0  0  0  0  0  0  0  0  0  0  0
   19.2610  -16.7531    8.9934 C   0  0  2  0  0  0  0  0  0  0  0  0
   19.2894  -18.1536    8.6533 N   0  0  0  0  0  0  0  0  0  0  0  0
   19.2389  -16.5214   10.4459 C   0  0  0  0  0  0  0  0  0  0  0  0
   18.7205  -17.3549   11.2087 O   0  0  0  0  0  0  0  0  0  0  0  0
   19.7961  -15.3750   10.9593 O   0  0  0  0  0  0  0  0  0  0  0  0
  2  3  1  6
  2  1  1  0
  4  2  1  0
  4  5  1  0
  5  7  1  0
  5  6  1  1
  7  8  2  0
  9 13  1  0
  9  7  1  0
 10  9  1  0
 11 10  1  0
 11 12  1  0
 12 13  1  0
 13 14  1  6
 14 15  2  0
 16 17  1  0
 17 19  1  0
 18 17  2  0
 19 20  1  0
 21 20  1  0
 21 22  1  0
 23 22  1  6
 23 24  1  0
 23 25  1  0
 24 14  1  0
 25 27  1  0
 26 25  2  0
M  END
$$$$
