LPR.pdb
     RDKit          3D

 27 27  0  0  1  0  0  0  0  0999 V2000
   23.9792  -16.5091  -19.2254 C   0  0  0  0  0  0  0  0  0  0  0  0
   25.1458  -16.1112  -18.3429 C   0  0  1  0  0  0  0  0  0  0  0  0
   26.3137  -15.8540  -19.3066 C   0  0  0  0  0  0  0  0  0  0  0  0
   24.9044  -14.8228  -17.6276 C   0  0  0  0  0  0  0  0  0  0  0  0
   25.9028  -14.5166  -16.5369 C   0  0  2  0  0  0  0  0  0  0  0  0
   25.9664  -15.6972  -15.7015 N   0  0  0  0  0  0  0  0  0  0  0  0
   25.5374  -13.3195  -15.7414 C   0  0  0  0  0  0  0  0  0  0  0  0
   24.6104  -13.5104  -14.8749 O   0  0  0  0  0  0  0  0  0  0  0  0
   26.1387  -12.0404  -15.8927 N   0  0  0  0  0  0  0  0  0  0  0  0
   27.1915  -11.7174  -16.7934 C   0  0  0  0  0  0  0  0  0  0  0  0
   27.5445  -10.2732  -16.4925 C   0  0  0  0  0  0  0  0  0  0  0  0
   26.9954  -10.0531  -15.0815 C   0  0  0  0  0  0  0  0  0  0  0  0
   25.7494  -10.8902  -15.1375 C   0  0  1  0  0  0  0  0  0  0  0  0
   24.6195  -10.1835  -15.7862 C   0  0  0  0  0  0  0  0  0  0  0  0
   24.5007  -10.2258  -17.0317 O   0  0  0  0  0  0  0  0  0  0  0  0
   15.8820   -9.9470  -16.2732 N   0  0  0  0  0  0  0  0  0  0  0  0
   16.6032   -8.8625  -16.8390 C   0  0  0  0  0  0  0  0  0  0  0  0
   16.1070   -8.2869  -17.9029 N   0  0  0  0  0  0  0  0  0  0  0  0
   17.8191   -8.3786  -16.3145 N   0  0  0  0  0  0  0  0  0  0  0  0
   18.8678   -9.3221  -15.8492 C   0  0  0  0  0  0  0  0  0  0  0  0
   19.9680   -8.4839  -15.3435 C   0  0  0  0  0  0  0  0  0  0  0  0
   21.2262   -9.0685  -14.8997 C   0  0  0  0  0  0  0  0  0  0  0  0
   22.4993   -8.8375  -15.6108 C   0  0  2  0  0  0  0  0  0  0  0  0
   23.6648   -9.4575  -15.0319 N   0  0  0  0  0  0  0  0  0  0  0  0
   22.7351   -7.4395  -16.0030 C   0  0  0  0  0  0  0  0  0  0  0  0
   23.5373   -6.7339  -15.3674 O   0  0  0  0  0  0  0  0  0  0  0  0
   22.0625   -6.9135  -17.0796 O   0  0  0  0  0  0  0  0  0  0  0  0
  2  3  1  6
  2  1  1  0
  4  2  1  0
  4  5  1  0
  5  7  1  0
  5  6  1  1
  7  8  2  0
  9 13  1  0
  9  7  1  0
 10  9  1  0
 11 10  1  0
 11 12  1  0
 12 13  1  0
 13 14  1  6
 14 15  2  0
 16 17  1  0
 17 19  1  0
 18 17  2  0
 19 20  1  0
 21 20  1  0
 21 22  1  0
 23 22  1  1
 23 24  1  0
 23 25  1  0
 24 14  1  0
 25 27  1  0
 26 25  2  0
M  END
$$$$
