LPR.pdb
     RDKit          3D

 27 27  0  0  1  0  0  0  0  0999 V2000
   17.0118  -14.6691  -19.2468 C   0  0  0  0  0  0  0  0  0  0  0  0
   18.4425  -14.4376  -19.6912 C   0  0  1  0  0  0  0  0  0  0  0  0
   18.3379  -13.8680  -21.1138 C   0  0  0  0  0  0  0  0  0  0  0  0
   19.1302  -13.3939  -18.8741 C   0  0  0  0  0  0  0  0  0  0  0  0
   20.6304  -13.3571  -19.0411 C   0  0  2  0  0  0  0  0  0  0  0  0
   21.1152  -14.6625  -18.6452 N   0  0  0  0  0  0  0  0  0  0  0  0
   21.2725  -12.2851  -18.2423 C   0  0  0  0  0  0  0  0  0  0  0  0
   21.5862  -12.6201  -17.0440 O   0  0  0  0  0  0  0  0  0  0  0  0
   21.5384  -10.9745  -18.7239 N   0  0  0  0  0  0  0  0  0  0  0  0
   21.2506  -10.4944  -20.0319 C   0  0  0  0  0  0  0  0  0  0  0  0
   21.8208   -9.0894  -20.0753 C   0  0  0  0  0  0  0  0  0  0  0  0
   22.8429   -9.0785  -18.9369 C   0  0  0  0  0  0  0  0  0  0  0  0
   22.1447   -9.9497  -17.9319 C   0  0  1  0  0  0  0  0  0  0  0  0
   21.1276   -9.2093  -17.1482 C   0  0  0  0  0  0  0  0  0  0  0  0
   19.9246   -9.5463  -17.2271 O   0  0  0  0  0  0  0  0  0  0  0  0
   15.7588  -11.8690  -13.2026 N   0  0  0  0  0  0  0  0  0  0  0  0
   15.7486  -11.4105  -14.5465 C   0  0  0  0  0  0  0  0  0  0  0  0
   14.8270  -11.8804  -15.3460 N   0  0  0  0  0  0  0  0  0  0  0  0
   16.6760  -10.4800  -15.0582 N   0  0  0  0  0  0  0  0  0  0  0  0
   17.7916   -9.9844  -14.2118 C   0  0  0  0  0  0  0  0  0  0  0  0
   18.5332   -9.0232  -15.0452 C   0  0  0  0  0  0  0  0  0  0  0  0
   19.7466   -8.3775  -14.5630 C   0  0  0  0  0  0  0  0  0  0  0  0
   20.5546   -7.4792  -15.4116 C   0  0  2  0  0  0  0  0  0  0  0  0
   21.4809   -8.1248  -16.3076 N   0  0  0  0  0  0  0  0  0  0  0  0
   21.1537   -6.3405  -14.6987 C   0  0  0  0  0  0  0  0  0  0  0  0
   20.4369   -5.5457  -14.0663 O   0  0  0  0  0  0  0  0  0  0  0  0
   22.5152   -6.1573  -14.7341 O   0  0  0  0  0  0  0  0  0  0  0  0
  2  3  1  6
  2  1  1  0
  4  2  1  0
  4  5  1  0
  5  7  1  0
  5  6  1  1
  7  8  2  0
  9 13  1  0
  9  7  1  0
 10  9  1  0
 11 10  1  0
 11 12  1  0
 12 13  1  0
 13 14  1  6
 14 15  2  0
 16 17  1  0
 17 19  1  0
 18 17  2  0
 19 20  1  0
 21 20  1  0
 21 22  1  0
 23 22  1  1
 23 24  1  0
 23 25  1  0
 24 14  1  0
 25 27  1  0
 26 25  2  0
M  END
$$$$
