LPR.pdb
     RDKit          3D

 27 27  0  0  1  0  0  0  0  0999 V2000
   25.3292  -23.2728  -13.5217 C   0  0  0  0  0  0  0  0  0  0  0  0
   25.5054  -22.3508  -12.3314 C   0  0  1  0  0  0  0  0  0  0  0  0
   26.4563  -23.0930  -11.3808 C   0  0  0  0  0  0  0  0  0  0  0  0
   26.1921  -21.0759  -12.6962 C   0  0  0  0  0  0  0  0  0  0  0  0
   25.4927  -19.8283  -12.2123 C   0  0  2  0  0  0  0  0  0  0  0  0
   24.4563  -20.2704  -11.3032 N   0  0  0  0  0  0  0  0  0  0  0  0
   24.9229  -19.0218  -13.3188 C   0  0  0  0  0  0  0  0  0  0  0  0
   23.6450  -18.9069  -13.2996 O   0  0  0  0  0  0  0  0  0  0  0  0
   25.6927  -18.4061  -14.3429 N   0  0  0  0  0  0  0  0  0  0  0  0
   27.1134  -18.3591  -14.4014 C   0  0  0  0  0  0  0  0  0  0  0  0
   27.4344  -17.5052  -15.6133 C   0  0  0  0  0  0  0  0  0  0  0  0
   26.1470  -16.7127  -15.8486 C   0  0  0  0  0  0  0  0  0  0  0  0
   25.1185  -17.7401  -15.4706 C   0  0  1  0  0  0  0  0  0  0  0  0
   24.8396  -18.6951  -16.5692 C   0  0  0  0  0  0  0  0  0  0  0  0
   25.0246  -19.9191  -16.3825 O   0  0  0  0  0  0  0  0  0  0  0  0
   19.6082  -20.5180  -14.3302 N   0  0  0  0  0  0  0  0  0  0  0  0
   20.6679  -21.4576  -14.2270 C   0  0  0  0  0  0  0  0  0  0  0  0
   20.9888  -21.8890  -13.0353 N   0  0  0  0  0  0  0  0  0  0  0  0
   21.3862  -21.9453  -15.3378 N   0  0  0  0  0  0  0  0  0  0  0  0
   21.2667  -21.2836  -16.6623 C   0  0  0  0  0  0  0  0  0  0  0  0
   22.0223  -20.0243  -16.5529 C   0  0  0  0  0  0  0  0  0  0  0  0
   22.0314  -19.0476  -17.6336 C   0  0  0  0  0  0  0  0  0  0  0  0
   23.2149  -18.8250  -18.4878 C   0  0  2  0  0  0  0  0  0  0  0  0
   24.3669  -18.2590  -17.8317 N   0  0  0  0  0  0  0  0  0  0  0  0
   22.9244  -18.1835  -19.7793 C   0  0  0  0  0  0  0  0  0  0  0  0
   22.3556  -17.0789  -19.8199 O   0  0  0  0  0  0  0  0  0  0  0  0
   23.2856  -18.8124  -20.9465 O   0  0  0  0  0  0  0  0  0  0  0  0
  2  3  1  1
  2  1  1  0
  4  2  1  0
  4  5  1  0
  5  7  1  0
  5  6  1  1
  7  8  2  0
  9 13  1  0
  9  7  1  0
 10  9  1  0
 11 10  1  0
 11 12  1  0
 12 13  1  0
 13 14  1  6
 14 15  2  0
 16 17  1  0
 17 19  1  0
 18 17  2  0
 19 20  1  0
 21 20  1  0
 21 22  1  0
 23 22  1  1
 23 24  1  0
 23 25  1  0
 24 14  1  0
 25 27  1  0
 26 25  2  0
M  END
$$$$
