LPR.pdb
     RDKit          3D

 27 27  0  0  1  0  0  0  0  0999 V2000
   21.1905  -21.6887   -9.0423 C   0  0  0  0  0  0  0  0  0  0  0  0
   22.6912  -21.5721   -8.8627 C   0  0  1  0  0  0  0  0  0  0  0  0
   23.2199  -23.0128   -8.9228 C   0  0  0  0  0  0  0  0  0  0  0  0
   23.3439  -20.8413   -9.9896 C   0  0  0  0  0  0  0  0  0  0  0  0
   24.8414  -20.6984   -9.8581 C   0  0  2  0  0  0  0  0  0  0  0  0
   25.0743  -19.9906   -8.6169 N   0  0  0  0  0  0  0  0  0  0  0  0
   25.4541  -19.9826  -11.0033 C   0  0  0  0  0  0  0  0  0  0  0  0
   25.4316  -18.7028  -10.9135 O   0  0  0  0  0  0  0  0  0  0  0  0
   26.0322  -20.6219  -12.1336 N   0  0  0  0  0  0  0  0  0  0  0  0
   26.2275  -22.0226  -12.2878 C   0  0  0  0  0  0  0  0  0  0  0  0
   26.9710  -22.1794  -13.6006 C   0  0  0  0  0  0  0  0  0  0  0  0
   27.5868  -20.7985  -13.8347 C   0  0  0  0  0  0  0  0  0  0  0  0
   26.5017  -19.9167  -13.2857 C   0  0  1  0  0  0  0  0  0  0  0  0
   25.4055  -19.6934  -14.2580 C   0  0  0  0  0  0  0  0  0  0  0  0
   24.5140  -20.5623  -14.3907 O   0  0  0  0  0  0  0  0  0  0  0  0
   27.3121  -13.7169  -15.1753 N   0  0  0  0  0  0  0  0  0  0  0  0
   26.8572  -13.7064  -16.5205 C   0  0  0  0  0  0  0  0  0  0  0  0
   27.7331  -13.4641  -17.4604 N   0  0  0  0  0  0  0  0  0  0  0  0
   25.5175  -13.9429  -16.8906 N   0  0  0  0  0  0  0  0  0  0  0  0
   24.5064  -14.3111  -15.8666 C   0  0  0  0  0  0  0  0  0  0  0  0
   24.7545  -15.7269  -15.5465 C   0  0  0  0  0  0  0  0  0  0  0  0
   23.9032  -16.7853  -16.0731 C   0  0  0  0  0  0  0  0  0  0  0  0
   24.2406  -18.2155  -15.9302 C   0  0  2  0  0  0  0  0  0  0  0  0
   25.3380  -18.5177  -15.0458 N   0  0  0  0  0  0  0  0  0  0  0  0
   24.3131  -18.9559  -17.1992 C   0  0  0  0  0  0  0  0  0  0  0  0
   25.3983  -19.4075  -17.6037 O   0  0  0  0  0  0  0  0  0  0  0  0
   23.1715  -19.1478  -17.9397 O   0  0  0  0  0  0  0  0  0  0  0  0
  2  3  1  6
  2  1  1  0
  4  2  1  0
  4  5  1  0
  5  7  1  0
  5  6  1  1
  7  8  2  0
  9 13  1  0
  9  7  1  0
 10  9  1  0
 11 10  1  0
 11 12  1  0
 12 13  1  0
 13 14  1  6
 14 15  2  0
 16 17  1  0
 17 19  1  0
 18 17  2  0
 19 20  1  0
 21 20  1  0
 21 22  1  0
 23 22  1  6
 23 24  1  0
 23 25  1  0
 24 14  1  0
 25 27  1  0
 26 25  2  0
M  END
$$$$
