YCP.pdb
     RDKit          3D

 26 27  0  0  1  0  0  0  0  0999 V2000
   23.3011  -21.1181   -7.3841 O   0  0  0  0  0  0  0  0  0  0  0  0
   23.8696  -20.9006   -8.6396 C   0  0  0  0  0  0  0  0  0  0  0  0
   25.2144  -21.0272   -8.8400 C   0  0  0  0  0  0  0  0  0  0  0  0
   25.7844  -20.8118  -10.0873 C   0  0  0  0  0  0  0  0  0  0  0  0
   25.0002  -20.4621  -11.1622 C   0  0  0  0  0  0  0  0  0  0  0  0
   25.5867  -20.2273  -12.5020 C   0  0  0  0  0  0  0  0  0  0  0  0
   24.9581  -21.1563  -13.5456 C   0  0  2  0  0  0  0  0  0  0  0  0
   25.3766  -22.5194  -13.3498 N   0  0  0  0  0  0  0  0  0  0  0  0
   25.3947  -20.6375  -14.8743 C   0  0  0  0  0  0  0  0  0  0  0  0
   26.6339  -20.7341  -15.1243 O   0  0  0  0  0  0  0  0  0  0  0  0
   23.6357  -20.3288  -10.9794 C   0  0  0  0  0  0  0  0  0  0  0  0
   23.0944  -20.5480   -9.7321 C   0  0  0  0  0  0  0  0  0  0  0  0
   24.4940  -20.0679  -15.8133 N   0  0  0  0  0  0  0  0  0  0  0  0
   24.9929  -19.5366  -17.0793 C   0  0  1  0  0  0  0  0  0  0  0  0
   23.7510  -19.4400  -17.9661 C   0  0  0  0  0  0  0  0  0  0  0  0
   24.2199  -18.6652  -19.5561 S   0  0  0  0  0  0  0  0  0  0  0  0
   25.5938  -18.1981  -16.8979 C   0  0  0  0  0  0  0  0  0  0  0  0
   25.0423  -17.4110  -16.0882 O   0  0  0  0  0  0  0  0  0  0  0  0
   26.7381  -17.8189  -17.6018 N   0  0  0  0  0  0  0  0  0  0  0  0
   27.4258  -18.5786  -18.6043 C   0  0  0  0  0  0  0  0  0  0  0  0
   28.8752  -18.2592  -18.2885 C   0  0  0  0  0  0  0  0  0  0  0  0
   28.8908  -17.0890  -17.3495 C   0  0  0  0  0  0  0  0  0  0  0  0
   27.4591  -16.5767  -17.4591 C   0  0  1  0  0  0  0  0  0  0  0  0
   27.3301  -15.6921  -18.6192 C   0  0  0  0  0  0  0  0  0  0  0  0
   26.6408  -16.0357  -19.7708 O   0  0  0  0  0  0  0  0  0  0  0  0
   27.8655  -14.5567  -18.5892 O   0  0  0  0  0  0  0  0  0  0  0  0
  2  3  2  0
  2  1  1  0
  4  3  1  0
  5  4  2  0
  6  5  1  0
  7  9  1  0
  7  6  1  0
  7  8  1  1
  9 10  2  0
 11  5  1  0
 11 12  2  0
 12  2  1  0
 13 14  1  0
 13  9  1  0
 14 15  1  6
 15 16  1  0
 17 19  1  0
 17 14  1  0
 18 17  2  0
 19 20  1  0
 21 20  1  0
 22 21  1  0
 23 22  1  0
 23 19  1  0
 23 24  1  6
 25 24  1  0
 26 24  2  0
M  END
$$$$
