YCP.pdb
     RDKit          3D

 26 27  0  0  1  0  0  0  0  0999 V2000
   18.6490  -12.6426  -16.0870 O   0  0  0  0  0  0  0  0  0  0  0  0
   19.4737  -13.7478  -15.8745 C   0  0  0  0  0  0  0  0  0  0  0  0
   20.7780  -13.5970  -15.4996 C   0  0  0  0  0  0  0  0  0  0  0  0
   21.6022  -14.6936  -15.2870 C   0  0  0  0  0  0  0  0  0  0  0  0
   21.1197  -15.9715  -15.4506 C   0  0  0  0  0  0  0  0  0  0  0  0
   21.9809  -17.1563  -15.2293 C   0  0  0  0  0  0  0  0  0  0  0  0
   22.8822  -17.4126  -16.4413 C   0  0  2  0  0  0  0  0  0  0  0  0
   22.1213  -17.8922  -17.5649 N   0  0  0  0  0  0  0  0  0  0  0  0
   23.8919  -18.4171  -15.9980 C   0  0  0  0  0  0  0  0  0  0  0  0
   23.4716  -19.6077  -15.8818 O   0  0  0  0  0  0  0  0  0  0  0  0
   19.8010  -16.1452  -15.8300 C   0  0  0  0  0  0  0  0  0  0  0  0
   19.0037  -15.0410  -16.0348 C   0  0  0  0  0  0  0  0  0  0  0  0
   25.2433  -18.0804  -15.7189 N   0  0  0  0  0  0  0  0  0  0  0  0
   26.0950  -19.0127  -14.9846 C   0  0  1  0  0  0  0  0  0  0  0  0
   27.4188  -18.2660  -14.8170 C   0  0  0  0  0  0  0  0  0  0  0  0
   28.4656  -19.1802  -13.6267 S   0  0  0  0  0  0  0  0  0  0  0  0
   25.5204  -19.3330  -13.6606 C   0  0  0  0  0  0  0  0  0  0  0  0
   24.8291  -18.4515  -13.0911 O   0  0  0  0  0  0  0  0  0  0  0  0
   25.7367  -20.5747  -13.0608 N   0  0  0  0  0  0  0  0  0  0  0  0
   26.5258  -21.6555  -13.5748 C   0  0  0  0  0  0  0  0  0  0  0  0
   25.6949  -22.8593  -13.1708 C   0  0  0  0  0  0  0  0  0  0  0  0
   24.6735  -22.3953  -12.1744 C   0  0  0  0  0  0  0  0  0  0  0  0
   25.2056  -21.0182  -11.7941 C   0  0  1  0  0  0  0  0  0  0  0  0
   26.2231  -21.1447  -10.7484 C   0  0  0  0  0  0  0  0  0  0  0  0
   25.9255  -21.2488   -9.3993 O   0  0  0  0  0  0  0  0  0  0  0  0
   27.4367  -21.1618  -11.0702 O   0  0  0  0  0  0  0  0  0  0  0  0
  2  3  2  0
  2  1  1  0
  4  3  1  0
  5  4  2  0
  6  5  1  0
  7  9  1  0
  7  6  1  0
  7  8  1  6
  9 10  2  0
 11  5  1  0
 11 12  2  0
 12  2  1  0
 13 14  1  0
 13  9  1  0
 14 15  1  1
 15 16  1  0
 17 19  1  0
 17 14  1  0
 18 17  2  0
 19 20  1  0
 21 20  1  0
 22 21  1  0
 23 22  1  0
 23 19  1  0
 23 24  1  1
 25 24  1  0
 26 24  2  0
M  END
$$$$
