YCP.pdb
     RDKit          3D

 26 27  0  0  1  0  0  0  0  0999 V2000
   28.5632  -19.2884   -5.5157 O   0  0  0  0  0  0  0  0  0  0  0  0
   28.1515  -19.5093   -6.8304 C   0  0  0  0  0  0  0  0  0  0  0  0
   26.8505  -19.3314   -7.2050 C   0  0  0  0  0  0  0  0  0  0  0  0
   26.4364  -19.5500   -8.5119 C   0  0  0  0  0  0  0  0  0  0  0  0
   27.3360  -19.9553   -9.4705 C   0  0  0  0  0  0  0  0  0  0  0  0
   26.9167  -20.1946  -10.8710 C   0  0  0  0  0  0  0  0  0  0  0  0
   26.2004  -21.5420  -11.0058 C   0  0  2  0  0  0  0  0  0  0  0  0
   27.1421  -22.6224  -11.1373 N   0  0  0  0  0  0  0  0  0  0  0  0
   25.3309  -21.4268  -12.2124 C   0  0  0  0  0  0  0  0  0  0  0  0
   25.9271  -21.4860  -13.3298 O   0  0  0  0  0  0  0  0  0  0  0  0
   28.6586  -20.1411   -9.1108 C   0  0  0  0  0  0  0  0  0  0  0  0
   29.0443  -19.9176   -7.8078 C   0  0  0  0  0  0  0  0  0  0  0  0
   23.9224  -21.2608  -12.1346 N   0  0  0  0  0  0  0  0  0  0  0  0
   23.1143  -21.2702  -13.3515 C   0  0  1  0  0  0  0  0  0  0  0  0
   21.7330  -21.7325  -12.8863 C   0  0  0  0  0  0  0  0  0  0  0  0
   20.5729  -21.6393  -14.2983 S   0  0  0  0  0  0  0  0  0  0  0  0
   23.0254  -19.9190  -13.9450 C   0  0  0  0  0  0  0  0  0  0  0  0
   23.0736  -18.9319  -13.1688 O   0  0  0  0  0  0  0  0  0  0  0  0
   22.8932  -19.7430  -15.3234 N   0  0  0  0  0  0  0  0  0  0  0  0
   22.8111  -20.7699  -16.3204 C   0  0  0  0  0  0  0  0  0  0  0  0
   23.6220  -20.1636  -17.4506 C   0  0  0  0  0  0  0  0  0  0  0  0
   23.8226  -18.7094  -17.1396 C   0  0  0  0  0  0  0  0  0  0  0  0
   22.8107  -18.4827  -16.0220 C   0  0  1  0  0  0  0  0  0  0  0  0
   21.4871  -18.2173  -16.5898 C   0  0  0  0  0  0  0  0  0  0  0  0
   21.0871  -16.9732  -17.0500 O   0  0  0  0  0  0  0  0  0  0  0  0
   20.6548  -19.1538  -16.6732 O   0  0  0  0  0  0  0  0  0  0  0  0
  2  3  2  0
  2  1  1  0
  4  3  1  0
  5  4  2  0
  6  5  1  0
  7  9  1  0
  7  6  1  0
  7  8  1  6
  9 10  2  0
 11  5  1  0
 11 12  2  0
 12  2  1  0
 13 14  1  0
 13  9  1  0
 14 15  1  1
 15 16  1  0
 17 19  1  0
 17 14  1  0
 18 17  2  0
 19 20  1  0
 21 20  1  0
 22 21  1  0
 23 22  1  0
 23 19  1  0
 23 24  1  6
 25 24  1  0
 26 24  2  0
M  END
$$$$
