YCP.pdb
     RDKit          3D

 26 27  0  0  1  0  0  0  0  0999 V2000
   17.3997  -24.0273  -17.6459 O   0  0  0  0  0  0  0  0  0  0  0  0
   18.3922  -23.2984  -16.9898 C   0  0  0  0  0  0  0  0  0  0  0  0
   19.3710  -23.9222  -16.2705 C   0  0  0  0  0  0  0  0  0  0  0  0
   20.3604  -23.2011  -15.6161 C   0  0  0  0  0  0  0  0  0  0  0  0
   20.3786  -21.8269  -15.6773 C   0  0  0  0  0  0  0  0  0  0  0  0
   21.4245  -21.0370  -14.9871 C   0  0  0  0  0  0  0  0  0  0  0  0
   21.4008  -21.2971  -13.4775 C   0  0  2  0  0  0  0  0  0  0  0  0
   20.2357  -20.7139  -12.8661 N   0  0  0  0  0  0  0  0  0  0  0  0
   22.6565  -20.7001  -12.9374 C   0  0  0  0  0  0  0  0  0  0  0  0
   22.5473  -19.5366  -12.4456 O   0  0  0  0  0  0  0  0  0  0  0  0
   19.3956  -21.1764  -16.4011 C   0  0  0  0  0  0  0  0  0  0  0  0
   18.4251  -21.9145  -17.0413 C   0  0  0  0  0  0  0  0  0  0  0  0
   23.9051  -21.3767  -12.9634 N   0  0  0  0  0  0  0  0  0  0  0  0
   25.1489  -20.6176  -13.0675 C   0  0  1  0  0  0  0  0  0  0  0  0
   26.0003  -21.1224  -11.9020 C   0  0  0  0  0  0  0  0  0  0  0  0
   25.9577  -22.9517  -11.8889 S   0  0  0  0  0  0  0  0  0  0  0  0
   25.8329  -20.8850  -14.3505 C   0  0  0  0  0  0  0  0  0  0  0  0
   25.4088  -21.8345  -15.0560 O   0  0  0  0  0  0  0  0  0  0  0  0
   26.9150  -20.1080  -14.7676 N   0  0  0  0  0  0  0  0  0  0  0  0
   27.8192  -19.3701  -13.9350 C   0  0  0  0  0  0  0  0  0  0  0  0
   28.0398  -18.1161  -14.7604 C   0  0  0  0  0  0  0  0  0  0  0  0
   27.5125  -18.3790  -16.1403 C   0  0  0  0  0  0  0  0  0  0  0  0
   27.3412  -19.8939  -16.1299 C   0  0  1  0  0  0  0  0  0  0  0  0
   28.6131  -20.5450  -16.4511 C   0  0  0  0  0  0  0  0  0  0  0  0
   29.2129  -20.4796  -17.6983 O   0  0  0  0  0  0  0  0  0  0  0  0
   29.2086  -21.2029  -15.5628 O   0  0  0  0  0  0  0  0  0  0  0  0
  2  3  2  0
  2  1  1  0
  4  3  1  0
  5  4  2  0
  6  5  1  0
  7  9  1  0
  7  6  1  0
  7  8  1  1
  9 10  2  0
 11  5  1  0
 11 12  2  0
 12  2  1  0
 13 14  1  0
 13  9  1  0
 14 15  1  1
 15 16  1  0
 17 19  1  0
 17 14  1  0
 18 17  2  0
 19 20  1  0
 21 20  1  0
 22 21  1  0
 23 22  1  0
 23 19  1  0
 23 24  1  1
 25 24  1  0
 26 24  2  0
M  END
$$$$
