YCP.pdb
     RDKit          3D

 26 27  0  0  1  0  0  0  0  0999 V2000
   17.7838  -20.7761   -9.3644 O   0  0  0  0  0  0  0  0  0  0  0  0
   18.8256  -20.7634  -10.2925 C   0  0  0  0  0  0  0  0  0  0  0  0
   19.2381  -21.9090  -10.9105 C   0  0  0  0  0  0  0  0  0  0  0  0
   20.2741  -21.9011  -11.8345 C   0  0  0  0  0  0  0  0  0  0  0  0
   20.9164  -20.7270  -12.1529 C   0  0  0  0  0  0  0  0  0  0  0  0
   22.0242  -20.6948  -13.1358 C   0  0  0  0  0  0  0  0  0  0  0  0
   21.5435  -20.1524  -14.4855 C   0  0  2  0  0  0  0  0  0  0  0  0
   20.5199  -20.9918  -15.0503 N   0  0  0  0  0  0  0  0  0  0  0  0
   22.7500  -20.0999  -15.3611 C   0  0  0  0  0  0  0  0  0  0  0  0
   23.1949  -21.2199  -15.7553 O   0  0  0  0  0  0  0  0  0  0  0  0
   20.5131  -19.5557  -11.5376 C   0  0  0  0  0  0  0  0  0  0  0  0
   19.4828  -19.5900  -10.6243 C   0  0  0  0  0  0  0  0  0  0  0  0
   23.3751  -18.8821  -15.7401 N   0  0  0  0  0  0  0  0  0  0  0  0
   24.4895  -18.8923  -16.6846 C   0  0  1  0  0  0  0  0  0  0  0  0
   24.6245  -17.4352  -17.1281 C   0  0  0  0  0  0  0  0  0  0  0  0
   25.4363  -16.4843  -15.7921 S   0  0  0  0  0  0  0  0  0  0  0  0
   25.7379  -19.3439  -16.0341 C   0  0  0  0  0  0  0  0  0  0  0  0
   25.8394  -19.1956  -14.7903 O   0  0  0  0  0  0  0  0  0  0  0  0
   26.7719  -19.9179  -16.7757 N   0  0  0  0  0  0  0  0  0  0  0  0
   26.7807  -20.1793  -18.1852 C   0  0  0  0  0  0  0  0  0  0  0  0
   27.5052  -21.5112  -18.2441 C   0  0  0  0  0  0  0  0  0  0  0  0
   28.1432  -21.7436  -16.9060 C   0  0  0  0  0  0  0  0  0  0  0  0
   28.0466  -20.3633  -16.2659 C   0  0  1  0  0  0  0  0  0  0  0  0
   29.1702  -19.5297  -16.6988 C   0  0  0  0  0  0  0  0  0  0  0  0
   29.0727  -18.5701  -17.6934 O   0  0  0  0  0  0  0  0  0  0  0  0
   30.2911  -19.6764  -16.1522 O   0  0  0  0  0  0  0  0  0  0  0  0
  2  3  2  0
  2  1  1  0
  4  3  1  0
  5  4  2  0
  6  5  1  0
  7  9  1  0
  7  6  1  0
  7  8  1  6
  9 10  2  0
 11  5  1  0
 11 12  2  0
 12  2  1  0
 13 14  1  0
 13  9  1  0
 14 15  1  1
 15 16  1  0
 17 19  1  0
 17 14  1  0
 18 17  2  0
 19 20  1  0
 21 20  1  0
 22 21  1  0
 23 22  1  0
 23 19  1  0
 23 24  1  6
 25 24  1  0
 26 24  2  0
M  END
$$$$
