YCP.pdb
     RDKit          3D

 26 27  0  0  1  0  0  0  0  0999 V2000
   16.6644  -24.0185  -16.5164 O   0  0  0  0  0  0  0  0  0  0  0  0
   17.6950  -23.2025  -16.0487 C   0  0  0  0  0  0  0  0  0  0  0  0
   17.4443  -21.9486  -15.5697 C   0  0  0  0  0  0  0  0  0  0  0  0
   18.4665  -21.1333  -15.1033 C   0  0  0  0  0  0  0  0  0  0  0  0
   19.7698  -21.5737  -15.1126 C   0  0  0  0  0  0  0  0  0  0  0  0
   20.8765  -20.7212  -14.6199 C   0  0  0  0  0  0  0  0  0  0  0  0
   21.3114  -21.1462  -13.2138 C   0  0  2  0  0  0  0  0  0  0  0  0
   20.4021  -20.6503  -12.2145 N   0  0  0  0  0  0  0  0  0  0  0  0
   22.6842  -20.5948  -13.0234 C   0  0  0  0  0  0  0  0  0  0  0  0
   22.7637  -19.3329  -12.9291 O   0  0  0  0  0  0  0  0  0  0  0  0
   20.0443  -22.8411  -15.5939 C   0  0  0  0  0  0  0  0  0  0  0  0
   19.0125  -23.6305  -16.0510 C   0  0  0  0  0  0  0  0  0  0  0  0
   23.8413  -21.4153  -12.9500 N   0  0  0  0  0  0  0  0  0  0  0  0
   25.1638  -20.8413  -13.1852 C   0  0  1  0  0  0  0  0  0  0  0  0
   26.1318  -21.9916  -12.9062 C   0  0  0  0  0  0  0  0  0  0  0  0
   27.7929  -21.5265  -13.5171 S   0  0  0  0  0  0  0  0  0  0  0  0
   25.3073  -20.3834  -14.5835 C   0  0  0  0  0  0  0  0  0  0  0  0
   24.5789  -20.9204  -15.4555 O   0  0  0  0  0  0  0  0  0  0  0  0
   26.2213  -19.3856  -14.9265 N   0  0  0  0  0  0  0  0  0  0  0  0
   27.2018  -18.7829  -14.0718 C   0  0  0  0  0  0  0  0  0  0  0  0
   27.1555  -17.3361  -14.5270 C   0  0  0  0  0  0  0  0  0  0  0  0
   26.3999  -17.2890  -15.8224 C   0  0  0  0  0  0  0  0  0  0  0  0
   26.3616  -18.7603  -16.2198 C   0  0  1  0  0  0  0  0  0  0  0  0
   27.5996  -19.1256  -16.9117 C   0  0  0  0  0  0  0  0  0  0  0  0
   27.9825  -18.5884  -18.1301 O   0  0  0  0  0  0  0  0  0  0  0  0
   28.3697  -19.9691  -16.3902 O   0  0  0  0  0  0  0  0  0  0  0  0
  2  3  2  0
  2  1  1  0
  4  3  1  0
  5  4  2  0
  6  5  1  0
  7  9  1  0
  7  6  1  0
  7  8  1  1
  9 10  2  0
 11  5  1  0
 11 12  2  0
 12  2  1  0
 13 14  1  0
 13  9  1  0
 14 15  1  6
 15 16  1  0
 17 19  1  0
 17 14  1  0
 18 17  2  0
 19 20  1  0
 21 20  1  0
 22 21  1  0
 23 22  1  0
 23 19  1  0
 23 24  1  1
 25 24  1  0
 26 24  2  0
M  END
$$$$
