YCP.pdb
     RDKit          3D

 26 27  0  0  1  0  0  0  0  0999 V2000
   25.4612    0.3016  -16.9347 O   0  0  0  0  0  0  0  0  0  0  0  0
   24.8354   -0.9439  -16.8726 C   0  0  0  0  0  0  0  0  0  0  0  0
   25.1494   -1.8470  -15.8977 C   0  0  0  0  0  0  0  0  0  0  0  0
   24.5294   -3.0873  -15.8321 C   0  0  0  0  0  0  0  0  0  0  0  0
   23.5740   -3.4398  -16.7570 C   0  0  0  0  0  0  0  0  0  0  0  0
   22.8993   -4.7576  -16.7064 C   0  0  0  0  0  0  0  0  0  0  0  0
   23.8610   -5.8812  -17.1064 C   0  0  2  0  0  0  0  0  0  0  0  0
   24.3377   -5.7049  -18.4529 N   0  0  0  0  0  0  0  0  0  0  0  0
   23.0924   -7.1514  -16.9620 C   0  0  0  0  0  0  0  0  0  0  0  0
   22.3626   -7.4698  -17.9487 O   0  0  0  0  0  0  0  0  0  0  0  0
   23.2419   -2.5387  -17.7524 C   0  0  0  0  0  0  0  0  0  0  0  0
   23.8715   -1.3145  -17.7959 C   0  0  0  0  0  0  0  0  0  0  0  0
   23.1607   -7.9661  -15.8006 N   0  0  0  0  0  0  0  0  0  0  0  0
   22.3639   -9.1873  -15.7131 C   0  0  1  0  0  0  0  0  0  0  0  0
   22.9451   -9.9345  -14.5123 C   0  0  0  0  0  0  0  0  0  0  0  0
   24.5893  -10.5958  -14.9681 S   0  0  0  0  0  0  0  0  0  0  0  0
   20.9370   -8.8794  -15.4786 C   0  0  0  0  0  0  0  0  0  0  0  0
   20.6509   -7.7604  -14.9833 O   0  0  0  0  0  0  0  0  0  0  0  0
   19.9376   -9.8003  -15.7976 N   0  0  0  0  0  0  0  0  0  0  0  0
   20.1179  -11.1209  -16.3254 C   0  0  0  0  0  0  0  0  0  0  0  0
   18.9622  -11.2190  -17.3038 C   0  0  0  0  0  0  0  0  0  0  0  0
   18.0240  -10.0835  -17.0176 C   0  0  0  0  0  0  0  0  0  0  0  0
   18.5147   -9.6034  -15.6564 C   0  0  1  0  0  0  0  0  0  0  0  0
   17.9176  -10.4143  -14.5931 C   0  0  0  0  0  0  0  0  0  0  0  0
   16.6110  -10.2635  -14.1576 O   0  0  0  0  0  0  0  0  0  0  0  0
   18.6096  -11.2996  -14.0327 O   0  0  0  0  0  0  0  0  0  0  0  0
  2  3  2  0
  2  1  1  0
  4  3  1  0
  5  4  2  0
  6  5  1  0
  7  9  1  0
  7  6  1  0
  7  8  1  6
  9 10  2  0
 11  5  1  0
 11 12  2  0
 12  2  1  0
 13 14  1  0
 13  9  1  0
 14 15  1  1
 15 16  1  0
 17 19  1  0
 17 14  1  0
 18 17  2  0
 19 20  1  0
 21 20  1  0
 22 21  1  0
 23 22  1  0
 23 19  1  0
 23 24  1  1
 25 24  1  0
 26 24  2  0
M  END
$$$$
