YCP.pdb
     RDKit          3D

 26 27  0  0  1  0  0  0  0  0999 V2000
   26.5472  -12.2680  -17.4530 O   0  0  0  0  0  0  0  0  0  0  0  0
   26.3530  -13.5565  -16.9542 C   0  0  0  0  0  0  0  0  0  0  0  0
   26.8150  -13.9159  -15.7205 C   0  0  0  0  0  0  0  0  0  0  0  0
   26.6240  -15.1967  -15.2202 C   0  0  0  0  0  0  0  0  0  0  0  0
   25.9581  -16.1441  -15.9628 C   0  0  0  0  0  0  0  0  0  0  0  0
   25.7428  -17.5167  -15.4492 C   0  0  0  0  0  0  0  0  0  0  0  0
   27.0687  -18.2773  -15.3461 C   0  0  2  0  0  0  0  0  0  0  0  0
   27.6390  -18.5099  -16.6469 N   0  0  0  0  0  0  0  0  0  0  0  0
   26.7545  -19.5595  -14.6514 C   0  0  0  0  0  0  0  0  0  0  0  0
   26.1969  -20.4496  -15.3616 O   0  0  0  0  0  0  0  0  0  0  0  0
   25.4824  -15.7994  -17.2151 C   0  0  0  0  0  0  0  0  0  0  0  0
   25.6847  -14.5222  -17.6889 C   0  0  0  0  0  0  0  0  0  0  0  0
   27.0534  -19.7875  -13.2818 N   0  0  0  0  0  0  0  0  0  0  0  0
   26.2792  -20.7595  -12.5138 C   0  0  1  0  0  0  0  0  0  0  0  0
   26.6079  -20.4394  -11.0552 C   0  0  0  0  0  0  0  0  0  0  0  0
   25.4307  -21.3319   -9.9753 S   0  0  0  0  0  0  0  0  0  0  0  0
   24.8295  -20.5998  -12.7555 C   0  0  0  0  0  0  0  0  0  0  0  0
   24.3729  -19.4320  -12.8400 O   0  0  0  0  0  0  0  0  0  0  0  0
   23.9927  -21.7093  -12.8872 N   0  0  0  0  0  0  0  0  0  0  0  0
   24.3370  -23.0817  -12.6572 C   0  0  0  0  0  0  0  0  0  0  0  0
   23.5743  -23.7783  -13.7688 C   0  0  0  0  0  0  0  0  0  0  0  0
   22.5959  -22.7932  -14.3380 C   0  0  0  0  0  0  0  0  0  0  0  0
   22.6046  -21.6932  -13.2825 C   0  0  1  0  0  0  0  0  0  0  0  0
   21.6855  -22.0344  -12.1946 C   0  0  0  0  0  0  0  0  0  0  0  0
   22.1040  -22.4557  -10.9428 O   0  0  0  0  0  0  0  0  0  0  0  0
   20.4475  -21.9473  -12.3854 O   0  0  0  0  0  0  0  0  0  0  0  0
  2  3  2  0
  2  1  1  0
  4  3  1  0
  5  4  2  0
  6  5  1  0
  7  9  1  0
  7  6  1  0
  7  8  1  6
  9 10  2  0
 11  5  1  0
 11 12  2  0
 12  2  1  0
 13 14  1  0
 13  9  1  0
 14 15  1  1
 15 16  1  0
 17 19  1  0
 17 14  1  0
 18 17  2  0
 19 20  1  0
 21 20  1  0
 22 21  1  0
 23 22  1  0
 23 19  1  0
 23 24  1  1
 25 24  1  0
 26 24  2  0
M  END
$$$$
