YCP.pdb
     RDKit          3D

 26 27  0  0  1  0  0  0  0  0999 V2000
   16.5627  -22.5941  -10.6018 O   0  0  0  0  0  0  0  0  0  0  0  0
   17.7541  -21.9587  -10.9535 C   0  0  0  0  0  0  0  0  0  0  0  0
   18.9659  -22.5362  -10.7030 C   0  0  0  0  0  0  0  0  0  0  0  0
   20.1538  -21.9078  -11.0512 C   0  0  0  0  0  0  0  0  0  0  0  0
   20.1384  -20.6757  -11.6631 C   0  0  0  0  0  0  0  0  0  0  0  0
   21.3933  -19.9867  -12.0434 C   0  0  0  0  0  0  0  0  0  0  0  0
   21.9505  -20.5479  -13.3555 C   0  0  2  0  0  0  0  0  0  0  0  0
   21.9882  -21.9864  -13.3331 N   0  0  0  0  0  0  0  0  0  0  0  0
   23.3173  -19.9689  -13.5031 C   0  0  0  0  0  0  0  0  0  0  0  0
   23.3845  -18.7028  -13.4911 O   0  0  0  0  0  0  0  0  0  0  0  0
   18.9207  -20.0743  -11.9253 C   0  0  0  0  0  0  0  0  0  0  0  0
   17.7563  -20.7182  -11.5701 C   0  0  0  0  0  0  0  0  0  0  0  0
   24.4818  -20.7689  -13.6488 N   0  0  0  0  0  0  0  0  0  0  0  0
   25.7666  -20.1454  -13.9560 C   0  0  1  0  0  0  0  0  0  0  0  0
   26.7765  -21.2894  -13.8592 C   0  0  0  0  0  0  0  0  0  0  0  0
   28.2352  -20.8774  -14.8842 S   0  0  0  0  0  0  0  0  0  0  0  0
   25.7722  -19.5760  -15.3204 C   0  0  0  0  0  0  0  0  0  0  0  0
   25.0963  -20.1605  -16.2040 O   0  0  0  0  0  0  0  0  0  0  0  0
   26.5034  -18.4252  -15.6196 N   0  0  0  0  0  0  0  0  0  0  0  0
   27.4480  -17.7584  -14.7720 C   0  0  0  0  0  0  0  0  0  0  0  0
   27.1583  -16.3010  -15.0794 C   0  0  0  0  0  0  0  0  0  0  0  0
   26.3080  -16.2551  -16.3149 C   0  0  0  0  0  0  0  0  0  0  0  0
   26.4534  -17.6747  -16.8515 C   0  0  1  0  0  0  0  0  0  0  0  0
   27.6753  -17.7862  -17.6511 C   0  0  0  0  0  0  0  0  0  0  0  0
   28.7340  -18.6161  -17.3194 O   0  0  0  0  0  0  0  0  0  0  0  0
   27.7901  -17.1015  -18.6974 O   0  0  0  0  0  0  0  0  0  0  0  0
  2  3  2  0
  2  1  1  0
  4  3  1  0
  5  4  2  0
  6  5  1  0
  7  9  1  0
  7  6  1  0
  7  8  1  1
  9 10  2  0
 11  5  1  0
 11 12  2  0
 12  2  1  0
 13 14  1  0
 13  9  1  0
 14 15  1  6
 15 16  1  0
 17 19  1  0
 17 14  1  0
 18 17  2  0
 19 20  1  0
 21 20  1  0
 22 21  1  0
 23 22  1  0
 23 19  1  0
 23 24  1  1
 25 24  1  0
 26 24  2  0
M  END
$$$$
