YCP.pdb
     RDKit          3D

 26 27  0  0  1  0  0  0  0  0999 V2000
   17.3660  -25.3591  -16.1953 O   0  0  0  0  0  0  0  0  0  0  0  0
   18.3862  -24.4591  -15.8859 C   0  0  0  0  0  0  0  0  0  0  0  0
   19.4631  -24.8386  -15.1369 C   0  0  0  0  0  0  0  0  0  0  0  0
   20.4805  -23.9466  -14.8266 C   0  0  0  0  0  0  0  0  0  0  0  0
   20.4276  -22.6456  -15.2708 C   0  0  0  0  0  0  0  0  0  0  0  0
   21.5016  -21.6765  -14.9519 C   0  0  0  0  0  0  0  0  0  0  0  0
   21.4772  -21.3006  -13.4670 C   0  0  2  0  0  0  0  0  0  0  0  0
   20.3297  -20.4907  -13.1528 N   0  0  0  0  0  0  0  0  0  0  0  0
   22.7498  -20.5670  -13.2074 C   0  0  0  0  0  0  0  0  0  0  0  0
   22.8306  -19.4067  -13.7121 O   0  0  0  0  0  0  0  0  0  0  0  0
   19.3449  -22.2417  -16.0309 C   0  0  0  0  0  0  0  0  0  0  0  0
   18.3485  -23.1458  -16.3251 C   0  0  0  0  0  0  0  0  0  0  0  0
   23.8150  -21.1168  -12.4454 N   0  0  0  0  0  0  0  0  0  0  0  0
   25.1716  -20.5974  -12.5994 C   0  0  1  0  0  0  0  0  0  0  0  0
   25.9704  -21.2886  -11.4939 C   0  0  0  0  0  0  0  0  0  0  0  0
   25.3086  -20.7631   -9.8708 S   0  0  0  0  0  0  0  0  0  0  0  0
   25.7301  -20.9445  -13.9236 C   0  0  0  0  0  0  0  0  0  0  0  0
   25.1380  -21.8233  -14.5992 O   0  0  0  0  0  0  0  0  0  0  0  0
   26.8778  -20.3165  -14.4104 N   0  0  0  0  0  0  0  0  0  0  0  0
   27.7998  -19.5080  -13.6678 C   0  0  0  0  0  0  0  0  0  0  0  0
   28.1365  -18.4250  -14.6758 C   0  0  0  0  0  0  0  0  0  0  0  0
   27.6431  -18.8806  -16.0176 C   0  0  0  0  0  0  0  0  0  0  0  0
   27.3671  -20.3590  -15.7676 C   0  0  1  0  0  0  0  0  0  0  0  0
   28.6019  -21.1322  -15.9173 C   0  0  0  0  0  0  0  0  0  0  0  0
   29.2162  -21.3648  -17.1371 O   0  0  0  0  0  0  0  0  0  0  0  0
   29.1496  -21.6194  -14.8979 O   0  0  0  0  0  0  0  0  0  0  0  0
  2  3  2  0
  2  1  1  0
  4  3  1  0
  5  4  2  0
  6  5  1  0
  7  9  1  0
  7  6  1  0
  7  8  1  6
  9 10  2  0
 11  5  1  0
 11 12  2  0
 12  2  1  0
 13 14  1  0
 13  9  1  0
 14 15  1  1
 15 16  1  0
 17 19  1  0
 17 14  1  0
 18 17  2  0
 19 20  1  0
 21 20  1  0
 22 21  1  0
 23 22  1  0
 23 19  1  0
 23 24  1  1
 25 24  1  0
 26 24  2  0
M  END
$$$$
