YCP.pdb
     RDKit          3D

 26 27  0  0  1  0  0  0  0  0999 V2000
   20.0369  -16.0853  -18.8061 O   0  0  0  0  0  0  0  0  0  0  0  0
   19.9797  -14.7330  -18.4670 C   0  0  0  0  0  0  0  0  0  0  0  0
   18.9388  -13.9454  -18.8680 C   0  0  0  0  0  0  0  0  0  0  0  0
   18.8776  -12.5996  -18.5330 C   0  0  0  0  0  0  0  0  0  0  0  0
   19.8743  -12.0214  -17.7814 C   0  0  0  0  0  0  0  0  0  0  0  0
   19.8299  -10.5875  -17.4122 C   0  0  0  0  0  0  0  0  0  0  0  0
   19.5138  -10.4148  -15.9231 C   0  0  2  0  0  0  0  0  0  0  0  0
   18.1935  -10.8955  -15.6112 N   0  0  0  0  0  0  0  0  0  0  0  0
   19.6433   -8.9556  -15.6417 C   0  0  0  0  0  0  0  0  0  0  0  0
   18.5614   -8.2945  -15.6469 O   0  0  0  0  0  0  0  0  0  0  0  0
   20.9373  -12.8027  -17.3656 C   0  0  0  0  0  0  0  0  0  0  0  0
   20.9747  -14.1353  -17.7110 C   0  0  0  0  0  0  0  0  0  0  0  0
   20.8909   -8.3284  -15.3819 N   0  0  0  0  0  0  0  0  0  0  0  0
   20.9404   -6.9117  -15.0294 C   0  0  1  0  0  0  0  0  0  0  0  0
   21.4377   -6.8975  -13.5835 C   0  0  0  0  0  0  0  0  0  0  0  0
   21.8902   -5.1830  -13.1317 S   0  0  0  0  0  0  0  0  0  0  0  0
   21.8835   -6.1767  -15.8990 C   0  0  0  0  0  0  0  0  0  0  0  0
   22.9790   -6.7271  -16.1753 O   0  0  0  0  0  0  0  0  0  0  0  0
   21.5688   -4.9121  -16.3992 N   0  0  0  0  0  0  0  0  0  0  0  0
   20.3590   -4.1745  -16.1812 C   0  0  0  0  0  0  0  0  0  0  0  0
   20.1428   -3.5343  -17.5398 C   0  0  0  0  0  0  0  0  0  0  0  0
   21.4136   -3.6856  -18.3233 C   0  0  0  0  0  0  0  0  0  0  0  0
   22.4066   -4.0907  -17.2398 C   0  0  1  0  0  0  0  0  0  0  0  0
   22.9225   -2.8997  -16.5614 C   0  0  0  0  0  0  0  0  0  0  0  0
   22.5596   -2.5338  -15.2753 O   0  0  0  0  0  0  0  0  0  0  0  0
   23.7389   -2.1565  -17.1595 O   0  0  0  0  0  0  0  0  0  0  0  0
  2  3  2  0
  2  1  1  0
  4  3  1  0
  5  4  2  0
  6  5  1  0
  7  9  1  0
  7  6  1  0
  7  8  1  6
  9 10  2  0
 11  5  1  0
 11 12  2  0
 12  2  1  0
 13 14  1  0
 13  9  1  0
 14 15  1  1
 15 16  1  0
 17 19  1  0
 17 14  1  0
 18 17  2  0
 19 20  1  0
 21 20  1  0
 22 21  1  0
 23 22  1  0
 23 19  1  0
 23 24  1  1
 25 24  1  0
 26 24  2  0
M  END
$$$$
