YCP.pdb
     RDKit          3D

 26 27  0  0  1  0  0  0  0  0999 V2000
   28.2073  -29.8221  -17.6583 O   0  0  0  0  0  0  0  0  0  0  0  0
   28.3666  -28.5223  -17.1768 C   0  0  0  0  0  0  0  0  0  0  0  0
   27.3049  -27.8082  -16.6999 C   0  0  0  0  0  0  0  0  0  0  0  0
   27.4587  -26.5147  -16.2200 C   0  0  0  0  0  0  0  0  0  0  0  0
   28.6969  -25.9153  -16.2132 C   0  0  0  0  0  0  0  0  0  0  0  0
   28.8845  -24.5363  -15.7059 C   0  0  0  0  0  0  0  0  0  0  0  0
   28.3954  -23.5052  -16.7280 C   0  0  2  0  0  0  0  0  0  0  0  0
   29.3937  -23.2538  -17.7338 N   0  0  0  0  0  0  0  0  0  0  0  0
   28.0825  -22.2714  -15.9502 C   0  0  0  0  0  0  0  0  0  0  0  0
   29.0230  -21.4266  -15.8537 O   0  0  0  0  0  0  0  0  0  0  0  0
   29.7850  -26.6223  -16.6922 C   0  0  0  0  0  0  0  0  0  0  0  0
   29.6062  -27.9042  -17.1630 C   0  0  0  0  0  0  0  0  0  0  0  0
   26.8169  -22.0397  -15.3484 N   0  0  0  0  0  0  0  0  0  0  0  0
   26.6256  -20.8967  -14.4591 C   0  0  1  0  0  0  0  0  0  0  0  0
   26.8714  -19.6780  -15.3492 C   0  0  0  0  0  0  0  0  0  0  0  0
   26.0566  -18.2230  -14.5959 S   0  0  0  0  0  0  0  0  0  0  0  0
   25.2496  -20.8633  -13.9194 C   0  0  0  0  0  0  0  0  0  0  0  0
   24.3153  -21.2457  -14.6678 O   0  0  0  0  0  0  0  0  0  0  0  0
   24.9942  -20.4226  -12.6198 N   0  0  0  0  0  0  0  0  0  0  0  0
   25.8167  -19.5589  -11.8243 C   0  0  0  0  0  0  0  0  0  0  0  0
   25.6645  -20.1763  -10.4466 C   0  0  0  0  0  0  0  0  0  0  0  0
   24.5122  -21.1359  -10.5010 C   0  0  0  0  0  0  0  0  0  0  0  0
   23.8419  -20.7508  -11.8149 C   0  0  1  0  0  0  0  0  0  0  0  0
   22.9376  -19.6183  -11.6039 C   0  0  0  0  0  0  0  0  0  0  0  0
   23.1499  -18.3589  -12.1408 O   0  0  0  0  0  0  0  0  0  0  0  0
   21.9085  -19.7757  -10.9018 O   0  0  0  0  0  0  0  0  0  0  0  0
  2  3  2  0
  2  1  1  0
  4  3  1  0
  5  4  2  0
  6  5  1  0
  7  9  1  0
  7  6  1  0
  7  8  1  6
  9 10  2  0
 11  5  1  0
 11 12  2  0
 12  2  1  0
 13 14  1  0
 13  9  1  0
 14 15  1  6
 15 16  1  0
 17 19  1  0
 17 14  1  0
 18 17  2  0
 19 20  1  0
 21 20  1  0
 22 21  1  0
 23 22  1  0
 23 19  1  0
 23 24  1  1
 25 24  1  0
 26 24  2  0
M  END
$$$$
