YCP.pdb
     RDKit          3D

 26 27  0  0  1  0  0  0  0  0999 V2000
   19.6554  -22.2983   -9.6678 O   0  0  0  0  0  0  0  0  0  0  0  0
   21.0254  -22.0360   -9.7016 C   0  0  0  0  0  0  0  0  0  0  0  0
   21.7200  -22.0464  -10.8772 C   0  0  0  0  0  0  0  0  0  0  0  0
   23.0830  -21.7861  -10.9157 C   0  0  0  0  0  0  0  0  0  0  0  0
   23.7736  -21.5086   -9.7587 C   0  0  0  0  0  0  0  0  0  0  0  0
   25.2279  -21.2278   -9.7758 C   0  0  0  0  0  0  0  0  0  0  0  0
   25.4956  -19.7377  -10.0107 C   0  0  2  0  0  0  0  0  0  0  0  0
   24.8851  -19.2845  -11.2326 N   0  0  0  0  0  0  0  0  0  0  0  0
   26.9791  -19.5881  -10.0542 C   0  0  0  0  0  0  0  0  0  0  0  0
   27.4311  -18.8360  -10.9695 O   0  0  0  0  0  0  0  0  0  0  0  0
   23.0877  -21.4933   -8.5576 C   0  0  0  0  0  0  0  0  0  0  0  0
   21.7356  -21.7549   -8.5460 C   0  0  0  0  0  0  0  0  0  0  0  0
   27.8468  -20.2388   -9.1371 N   0  0  0  0  0  0  0  0  0  0  0  0
   28.2954  -19.5445   -7.9327 C   0  0  1  0  0  0  0  0  0  0  0  0
   27.0157  -19.3162   -7.1274 C   0  0  0  0  0  0  0  0  0  0  0  0
   27.4437  -18.4544   -5.5710 S   0  0  0  0  0  0  0  0  0  0  0  0
   29.2426  -20.3744   -7.1583 C   0  0  0  0  0  0  0  0  0  0  0  0
   29.3673  -20.1340   -5.9311 O   0  0  0  0  0  0  0  0  0  0  0  0
   29.9753  -21.3939   -7.7685 N   0  0  0  0  0  0  0  0  0  0  0  0
   30.3380  -22.6572   -7.1961 C   0  0  0  0  0  0  0  0  0  0  0  0
   31.7400  -22.8493   -7.7439 C   0  0  0  0  0  0  0  0  0  0  0  0
   31.9407  -21.8503   -8.8454 C   0  0  0  0  0  0  0  0  0  0  0  0
   30.5151  -21.3776   -9.1070 C   0  0  1  0  0  0  0  0  0  0  0  0
   29.8389  -22.3032  -10.0186 C   0  0  0  0  0  0  0  0  0  0  0  0
   30.2738  -22.5616  -11.3084 O   0  0  0  0  0  0  0  0  0  0  0  0
   28.8078  -22.9054   -9.6303 O   0  0  0  0  0  0  0  0  0  0  0  0
  2  3  2  0
  2  1  1  0
  4  3  1  0
  5  4  2  0
  6  5  1  0
  7  9  1  0
  7  6  1  0
  7  8  1  6
  9 10  2  0
 11  5  1  0
 11 12  2  0
 12  2  1  0
 13 14  1  0
 13  9  1  0
 14 15  1  1
 15 16  1  0
 17 19  1  0
 17 14  1  0
 18 17  2  0
 19 20  1  0
 21 20  1  0
 22 21  1  0
 23 22  1  0
 23 19  1  0
 23 24  1  6
 25 24  1  0
 26 24  2  0
M  END
$$$$
