YCP.pdb
     RDKit          3D

 26 27  0  0  1  0  0  0  0  0999 V2000
   15.6479  -15.6775  -20.3378 O   0  0  0  0  0  0  0  0  0  0  0  0
   16.3417  -14.7498  -19.5601 C   0  0  0  0  0  0  0  0  0  0  0  0
   17.6290  -14.4011  -19.8532 C   0  0  0  0  0  0  0  0  0  0  0  0
   18.3231  -13.4785  -19.0823 C   0  0  0  0  0  0  0  0  0  0  0  0
   17.7246  -12.8875  -17.9937 C   0  0  0  0  0  0  0  0  0  0  0  0
   18.4459  -11.9006  -17.1570 C   0  0  0  0  0  0  0  0  0  0  0  0
   19.4968  -12.5894  -16.2806 C   0  0  2  0  0  0  0  0  0  0  0  0
   18.8898  -13.5464  -15.3933 N   0  0  0  0  0  0  0  0  0  0  0  0
   20.1790  -11.5002  -15.5234 C   0  0  0  0  0  0  0  0  0  0  0  0
   19.5777  -11.0897  -14.4853 O   0  0  0  0  0  0  0  0  0  0  0  0
   16.4210  -13.2276  -17.6804 C   0  0  0  0  0  0  0  0  0  0  0  0
   15.7539  -14.1455  -18.4609 C   0  0  0  0  0  0  0  0  0  0  0  0
   21.4234  -10.9451  -15.9242 N   0  0  0  0  0  0  0  0  0  0  0  0
   22.0203   -9.8533  -15.1590 C   0  0  1  0  0  0  0  0  0  0  0  0
   23.4991  -10.2275  -15.0540 C   0  0  0  0  0  0  0  0  0  0  0  0
   24.2065  -10.3167  -16.7392 S   0  0  0  0  0  0  0  0  0  0  0  0
   21.8710   -8.5622  -15.8635 C   0  0  0  0  0  0  0  0  0  0  0  0
   21.6248   -8.5900  -17.0956 O   0  0  0  0  0  0  0  0  0  0  0  0
   21.9979   -7.3496  -15.1837 N   0  0  0  0  0  0  0  0  0  0  0  0
   22.3013   -7.1669  -13.7946 C   0  0  0  0  0  0  0  0  0  0  0  0
   21.4138   -5.9880  -13.4408 C   0  0  0  0  0  0  0  0  0  0  0  0
   20.9267   -5.3819  -14.7241 C   0  0  0  0  0  0  0  0  0  0  0  0
   21.8492   -6.0304  -15.7502 C   0  0  1  0  0  0  0  0  0  0  0  0
   23.1084   -5.2873  -15.8334 C   0  0  0  0  0  0  0  0  0  0  0  0
   23.2412   -4.0783  -16.4969 O   0  0  0  0  0  0  0  0  0  0  0  0
   24.1350   -5.7531  -15.2806 O   0  0  0  0  0  0  0  0  0  0  0  0
  2  3  2  0
  2  1  1  0
  4  3  1  0
  5  4  2  0
  6  5  1  0
  7  9  1  0
  7  6  1  0
  7  8  1  1
  9 10  2  0
 11  5  1  0
 11 12  2  0
 12  2  1  0
 13 14  1  0
 13  9  1  0
 14 15  1  6
 15 16  1  0
 17 19  1  0
 17 14  1  0
 18 17  2  0
 19 20  1  0
 21 20  1  0
 22 21  1  0
 23 22  1  0
 23 19  1  0
 23 24  1  1
 25 24  1  0
 26 24  2  0
M  END
$$$$
