PMM.pdb
     RDKit          3D

 24 24  0  0  1  0  0  0  0  0999 V2000
   28.0937  -20.4837  -15.4324 N   0  0  0  0  0  0  0  0  0  0  0  0
   28.8025  -19.4071  -16.1006 C   0  0  0  0  0  0  0  0  0  0  0  0
   28.2580  -18.1032  -15.5577 C   0  0  0  0  0  0  0  0  0  0  0  0
   27.1662  -18.5678  -14.5804 C   0  0  0  0  0  0  0  0  0  0  0  0
   27.7421  -19.9038  -14.1845 C   0  0  1  0  0  0  0  0  0  0  0  0
   26.8856  -20.7057  -13.3282 C   0  0  0  0  0  0  0  0  0  0  0  0
   26.3623  -21.7579  -13.8270 O   0  0  0  0  0  0  0  0  0  0  0  0
   26.7403  -18.9991   -7.1334 C   0  0  0  0  0  0  0  0  0  0  0  0
   26.8077  -20.7964   -7.3557 S   0  0  0  0  0  0  0  0  0  0  0  0
   26.7550  -21.2795   -9.0679 C   0  0  0  0  0  0  0  0  0  0  0  0
   25.6573  -20.6730   -9.8267 C   0  0  0  0  0  0  0  0  0  0  0  0
   25.4326  -21.0261  -11.2603 C   0  0  2  0  0  0  0  0  0  0  0  0
   26.5704  -20.4320  -11.9784 N   0  0  0  0  0  0  0  0  0  0  0  0
   24.1622  -20.5409  -11.7648 C   0  0  0  0  0  0  0  0  0  0  0  0
   24.0426  -19.3338  -12.0909 O   0  0  0  0  0  0  0  0  0  0  0  0
   22.0098  -22.0762  -16.9498 C   0  0  0  0  0  0  0  0  0  0  0  0
   20.3635  -21.6487  -16.3449 S   0  0  0  0  0  0  0  0  0  0  0  0
   20.4570  -20.9066  -14.6862 C   0  0  0  0  0  0  0  0  0  0  0  0
   21.6975  -21.4308  -13.9949 C   0  0  0  0  0  0  0  0  0  0  0  0
   21.8569  -20.8094  -12.6149 C   0  0  2  0  0  0  0  0  0  0  0  0
   23.0009  -21.3455  -11.9267 N   0  0  0  0  0  0  0  0  0  0  0  0
   20.6060  -21.1909  -11.8749 C   0  0  0  0  0  0  0  0  0  0  0  0
   19.3925  -20.5798  -12.1226 O   0  0  0  0  0  0  0  0  0  0  0  0
   20.6558  -22.0929  -11.0018 O   0  0  0  0  0  0  0  0  0  0  0  0
  1  2  1  0
  2  3  1  0
  4  3  1  0
  5  1  1  0
  5  4  1  0
  6  7  2  0
  5  6  1  6
  8  9  1  0
 10  9  1  0
 10 11  1  0
 12 11  1  1
 12 13  1  0
 12 14  1  0
 13  6  1  0
 14 15  2  0
 14 21  1  0
 16 17  1  0
 17 18  1  0
 19 18  1  0
 20 19  1  6
 20 22  1  0
 21 20  1  0
 22 24  2  0
 22 23  1  0
M  END
$$$$
