PMM.pdb
     RDKit          3D

 24 24  0  0  1  0  0  0  0  0999 V2000
   27.4807  -21.2845  -15.3178 N   0  0  0  0  0  0  0  0  0  0  0  0
   28.0671  -21.2157  -16.6442 C   0  0  0  0  0  0  0  0  0  0  0  0
   28.1568  -19.7527  -17.0224 C   0  0  0  0  0  0  0  0  0  0  0  0
   27.5261  -19.0461  -15.8117 C   0  0  0  0  0  0  0  0  0  0  0  0
   27.8667  -20.0472  -14.7371 C   0  0  1  0  0  0  0  0  0  0  0  0
   27.3029  -19.7532  -13.4310 C   0  0  0  0  0  0  0  0  0  0  0  0
   27.6143  -18.6422  -12.8846 O   0  0  0  0  0  0  0  0  0  0  0  0
   21.6162  -21.5293  -13.3436 C   0  0  0  0  0  0  0  0  0  0  0  0
   21.4779  -20.6235  -11.7801 S   0  0  0  0  0  0  0  0  0  0  0  0
   23.0617  -20.1698  -11.1064 C   0  0  0  0  0  0  0  0  0  0  0  0
   24.1931  -20.4580  -11.9925 C   0  0  0  0  0  0  0  0  0  0  0  0
   25.5896  -20.1237  -11.5824 C   0  0  2  0  0  0  0  0  0  0  0  0
   26.4314  -20.5875  -12.6957 N   0  0  0  0  0  0  0  0  0  0  0  0
   25.9678  -20.7407  -10.3254 C   0  0  0  0  0  0  0  0  0  0  0  0
   26.0697  -21.9905  -10.2518 O   0  0  0  0  0  0  0  0  0  0  0  0
   28.8738  -18.0127   -5.2567 C   0  0  0  0  0  0  0  0  0  0  0  0
   28.2311  -19.4693   -4.4055 S   0  0  0  0  0  0  0  0  0  0  0  0
   27.3951  -20.5848   -5.5749 C   0  0  0  0  0  0  0  0  0  0  0  0
   27.1924  -19.8468   -6.8810 C   0  0  0  0  0  0  0  0  0  0  0  0
   26.5428  -20.7476   -7.9215 C   0  0  2  0  0  0  0  0  0  0  0  0
   26.2426  -20.0240   -9.1282 N   0  0  0  0  0  0  0  0  0  0  0  0
   25.2621  -21.2085   -7.2848 C   0  0  0  0  0  0  0  0  0  0  0  0
   24.0257  -20.8066   -7.7504 O   0  0  0  0  0  0  0  0  0  0  0  0
   25.3078  -21.9840   -6.2973 O   0  0  0  0  0  0  0  0  0  0  0  0
  1  2  1  0
  2  3  1  0
  4  3  1  0
  5  1  1  0
  5  4  1  0
  6  7  2  0
  5  6  1  1
  8  9  1  0
 10  9  1  0
 10 11  1  0
 12 11  1  6
 12 13  1  0
 12 14  1  0
 13  6  1  0
 14 15  2  0
 14 21  1  0
 16 17  1  0
 17 18  1  0
 19 18  1  0
 20 19  1  1
 20 22  1  0
 21 20  1  0
 22 24  2  0
 22 23  1  0
M  END
$$$$
