PMM.pdb
     RDKit          3D

 24 24  0  0  1  0  0  0  0  0999 V2000
   27.0365  -19.5689  -13.6782 N   0  0  0  0  0  0  0  0  0  0  0  0
   27.9084  -19.5504  -14.8390 C   0  0  0  0  0  0  0  0  0  0  0  0
   28.8100  -20.7628  -14.7454 C   0  0  0  0  0  0  0  0  0  0  0  0
   28.3836  -21.4056  -13.4158 C   0  0  0  0  0  0  0  0  0  0  0  0
   26.9460  -20.9531  -13.3731 C   0  0  1  0  0  0  0  0  0  0  0  0
   26.2380  -21.2909  -12.1505 C   0  0  0  0  0  0  0  0  0  0  0  0
   25.9441  -22.5172  -11.9522 O   0  0  0  0  0  0  0  0  0  0  0  0
   27.7921  -18.9814   -5.6649 C   0  0  0  0  0  0  0  0  0  0  0  0
   26.7965  -20.3171   -6.3783 S   0  0  0  0  0  0  0  0  0  0  0  0
   26.9027  -20.3802   -8.1539 C   0  0  0  0  0  0  0  0  0  0  0  0
   25.6838  -19.9445   -8.8415 C   0  0  0  0  0  0  0  0  0  0  0  0
   25.0895  -20.7661   -9.9379 C   0  0  2  0  0  0  0  0  0  0  0  0
   25.8372  -20.3828  -11.1450 N   0  0  0  0  0  0  0  0  0  0  0  0
   23.6640  -20.5474  -10.0929 C   0  0  0  0  0  0  0  0  0  0  0  0
   23.2540  -19.5394  -10.7202 O   0  0  0  0  0  0  0  0  0  0  0  0
   19.2316  -25.1254   -9.1746 C   0  0  0  0  0  0  0  0  0  0  0  0
   18.1055  -23.8077   -9.6792 S   0  0  0  0  0  0  0  0  0  0  0  0
   19.0281  -22.3032  -10.1217 C   0  0  0  0  0  0  0  0  0  0  0  0
   20.4272  -22.4137   -9.5544 C   0  0  0  0  0  0  0  0  0  0  0  0
   21.2964  -21.2528  -10.0159 C   0  0  2  0  0  0  0  0  0  0  0  0
   22.6573  -21.4088   -9.5762 N   0  0  0  0  0  0  0  0  0  0  0  0
   20.6969  -20.0402   -9.3617 C   0  0  0  0  0  0  0  0  0  0  0  0
   19.6983  -19.3005   -9.9641 O   0  0  0  0  0  0  0  0  0  0  0  0
   21.1106  -19.6803   -8.2313 O   0  0  0  0  0  0  0  0  0  0  0  0
  1  2  1  0
  2  3  1  0
  4  3  1  0
  5  1  1  0
  5  4  1  0
  6  7  2  0
  5  6  1  1
  8  9  1  0
 10  9  1  0
 10 11  1  0
 12 11  1  1
 12 13  1  0
 12 14  1  0
 13  6  1  0
 14 15  2  0
 14 21  1  0
 16 17  1  0
 17 18  1  0
 19 18  1  0
 20 19  1  1
 20 22  1  0
 21 20  1  0
 22 24  2  0
 22 23  1  0
M  END
$$$$
