PMM.pdb
     RDKit          3D

 24 24  0  0  1  0  0  0  0  0999 V2000
   27.4493  -18.6083  -15.1846 N   0  0  0  0  0  0  0  0  0  0  0  0
   28.5216  -18.1613  -16.0555 C   0  0  0  0  0  0  0  0  0  0  0  0
   29.5959  -19.2274  -16.0320 C   0  0  0  0  0  0  0  0  0  0  0  0
   29.0342  -20.2588  -15.0402 C   0  0  0  0  0  0  0  0  0  0  0  0
   27.5597  -20.0229  -15.2480 C   0  0  1  0  0  0  0  0  0  0  0  0
   26.6921  -20.7702  -14.3542 C   0  0  0  0  0  0  0  0  0  0  0  0
   26.3561  -21.9520  -14.7008 O   0  0  0  0  0  0  0  0  0  0  0  0
   26.5364  -19.2680   -8.1064 C   0  0  0  0  0  0  0  0  0  0  0  0
   25.8136  -20.9296   -8.1341 S   0  0  0  0  0  0  0  0  0  0  0  0
   25.0487  -21.3204   -9.6929 C   0  0  0  0  0  0  0  0  0  0  0  0
   25.7598  -20.7868  -10.8583 C   0  0  0  0  0  0  0  0  0  0  0  0
   25.3051  -21.1077  -12.2441 C   0  0  2  0  0  0  0  0  0  0  0  0
   26.1764  -20.3113  -13.1214 N   0  0  0  0  0  0  0  0  0  0  0  0
   23.9024  -20.8066  -12.4578 C   0  0  0  0  0  0  0  0  0  0  0  0
   23.5280  -19.6102  -12.5363 O   0  0  0  0  0  0  0  0  0  0  0  0
   20.2224  -23.8838  -16.5910 C   0  0  0  0  0  0  0  0  0  0  0  0
   18.9070  -23.2514  -15.5286 S   0  0  0  0  0  0  0  0  0  0  0  0
   19.5541  -22.0061  -14.3705 C   0  0  0  0  0  0  0  0  0  0  0  0
   20.9465  -22.4222  -13.9467 C   0  0  0  0  0  0  0  0  0  0  0  0
   21.5664  -21.3876  -13.0186 C   0  0  2  0  0  0  0  0  0  0  0  0
   22.8806  -21.7867  -12.5907 N   0  0  0  0  0  0  0  0  0  0  0  0
   20.6484  -21.3387  -11.8300 C   0  0  0  0  0  0  0  0  0  0  0  0
   19.6105  -20.4320  -11.7420 O   0  0  0  0  0  0  0  0  0  0  0  0
   20.8228  -22.1441  -10.8816 O   0  0  0  0  0  0  0  0  0  0  0  0
  1  2  1  0
  2  3  1  0
  4  3  1  0
  5  1  1  0
  5  4  1  0
  6  7  2  0
  5  6  1  1
  8  9  1  0
 10  9  1  0
 10 11  1  0
 12 11  1  1
 12 13  1  0
 12 14  1  0
 13  6  1  0
 14 15  2  0
 14 21  1  0
 16 17  1  0
 17 18  1  0
 19 18  1  0
 20 19  1  6
 20 22  1  0
 21 20  1  0
 22 24  2  0
 22 23  1  0
M  END
$$$$
