PMM.pdb
     RDKit          3D

 24 24  0  0  1  0  0  0  0  0999 V2000
   27.5701  -19.9158  -15.8410 N   0  0  0  0  0  0  0  0  0  0  0  0
   28.6228  -19.9179  -16.8410 C   0  0  0  0  0  0  0  0  0  0  0  0
   29.4330  -21.1807  -16.6404 C   0  0  0  0  0  0  0  0  0  0  0  0
   28.7591  -21.8307  -15.4213 C   0  0  0  0  0  0  0  0  0  0  0  0
   27.3595  -21.2997  -15.6011 C   0  0  1  0  0  0  0  0  0  0  0  0
   26.4417  -21.6269  -14.5238 C   0  0  0  0  0  0  0  0  0  0  0  0
   25.9224  -22.7931  -14.5177 O   0  0  0  0  0  0  0  0  0  0  0  0
   27.3372  -21.0062   -7.9450 C   0  0  0  0  0  0  0  0  0  0  0  0
   25.9438  -19.9852   -8.4931 S   0  0  0  0  0  0  0  0  0  0  0  0
   25.0569  -20.7078   -9.8566 C   0  0  0  0  0  0  0  0  0  0  0  0
   25.7466  -20.5958  -11.1450 C   0  0  0  0  0  0  0  0  0  0  0  0
   25.1344  -21.1481  -12.3902 C   0  0  2  0  0  0  0  0  0  0  0  0
   26.0619  -20.7694  -13.4671 N   0  0  0  0  0  0  0  0  0  0  0  0
   23.7953  -20.6441  -12.6280 C   0  0  0  0  0  0  0  0  0  0  0  0
   23.5985  -19.4049  -12.6865 O   0  0  0  0  0  0  0  0  0  0  0  0
   20.8944  -23.5295  -16.2311 C   0  0  0  0  0  0  0  0  0  0  0  0
   19.4421  -22.4601  -16.1539 S   0  0  0  0  0  0  0  0  0  0  0  0
   19.6168  -21.2277  -14.8268 C   0  0  0  0  0  0  0  0  0  0  0  0
   20.4001  -21.8521  -13.6918 C   0  0  0  0  0  0  0  0  0  0  0  0
   21.3758  -20.8525  -13.0876 C   0  0  2  0  0  0  0  0  0  0  0  0
   22.6473  -21.4641  -12.8069 N   0  0  0  0  0  0  0  0  0  0  0  0
   20.7347  -20.4210  -11.7988 C   0  0  0  0  0  0  0  0  0  0  0  0
   19.8746  -19.3426  -11.7329 O   0  0  0  0  0  0  0  0  0  0  0  0
   20.9831  -21.0551  -10.7430 O   0  0  0  0  0  0  0  0  0  0  0  0
  1  2  1  0
  2  3  1  0
  4  3  1  0
  5  1  1  0
  5  4  1  0
  6  7  2  0
  5  6  1  1
  8  9  1  0
 10  9  1  0
 10 11  1  0
 12 11  1  1
 12 13  1  0
 12 14  1  0
 13  6  1  0
 14 15  2  0
 14 21  1  0
 16 17  1  0
 17 18  1  0
 19 18  1  0
 20 19  1  1
 20 22  1  0
 21 20  1  0
 22 24  2  0
 22 23  1  0
M  END
$$$$
