PMM.pdb
     RDKit          3D

 24 24  0  0  1  0  0  0  0  0999 V2000
   26.2711  -19.2794  -15.2148 N   0  0  0  0  0  0  0  0  0  0  0  0
   26.1912  -18.8808  -16.6086 C   0  0  0  0  0  0  0  0  0  0  0  0
   27.2536  -19.6538  -17.3604 C   0  0  0  0  0  0  0  0  0  0  0  0
   27.9412  -20.4623  -16.2485 C   0  0  0  0  0  0  0  0  0  0  0  0
   26.7831  -20.6019  -15.2932 C   0  0  1  0  0  0  0  0  0  0  0  0
   27.1116  -21.2338  -14.0272 C   0  0  0  0  0  0  0  0  0  0  0  0
   27.1879  -22.5078  -13.9998 O   0  0  0  0  0  0  0  0  0  0  0  0
   31.6450  -22.7500   -9.8251 C   0  0  0  0  0  0  0  0  0  0  0  0
   31.8918  -21.5538  -11.1640 S   0  0  0  0  0  0  0  0  0  0  0  0
   30.4520  -21.3684  -12.1938 C   0  0  0  0  0  0  0  0  0  0  0  0
   29.3390  -20.6691  -11.5451 C   0  0  0  0  0  0  0  0  0  0  0  0
   27.9488  -21.2092  -11.6212 C   0  0  2  0  0  0  0  0  0  0  0  0
   27.3587  -20.5677  -12.8059 N   0  0  0  0  0  0  0  0  0  0  0  0
   27.1775  -20.9431  -10.4219 C   0  0  0  0  0  0  0  0  0  0  0  0
   26.1737  -20.1903  -10.4823 O   0  0  0  0  0  0  0  0  0  0  0  0
   29.4962  -19.4276   -4.8543 C   0  0  0  0  0  0  0  0  0  0  0  0
   27.7836  -18.8760   -4.7071 S   0  0  0  0  0  0  0  0  0  0  0  0
   26.7057  -19.8045   -5.8415 C   0  0  0  0  0  0  0  0  0  0  0  0
   27.5131  -20.1908   -7.0624 C   0  0  0  0  0  0  0  0  0  0  0  0
   26.6974  -21.0685   -8.0006 C   0  0  2  0  0  0  0  0  0  0  0  0
   27.4729  -21.4821   -9.1396 N   0  0  0  0  0  0  0  0  0  0  0  0
   25.5658  -20.1927   -8.4593 C   0  0  0  0  0  0  0  0  0  0  0  0
   25.7163  -19.2751   -9.4803 O   0  0  0  0  0  0  0  0  0  0  0  0
   24.4439  -20.2911   -7.9023 O   0  0  0  0  0  0  0  0  0  0  0  0
  1  2  1  0
  2  3  1  0
  4  3  1  0
  5  1  1  0
  5  4  1  0
  6  7  2  0
  5  6  1  1
  8  9  1  0
 10  9  1  0
 10 11  1  0
 12 11  1  1
 12 13  1  0
 12 14  1  0
 13  6  1  0
 14 15  2  0
 14 21  1  0
 16 17  1  0
 17 18  1  0
 19 18  1  0
 20 19  1  1
 20 22  1  0
 21 20  1  0
 22 24  2  0
 22 23  1  0
M  END
$$$$
