PMM.pdb
     RDKit          3D

 24 24  0  0  1  0  0  0  0  0999 V2000
   27.6265  -19.0545  -15.3536 N   0  0  0  0  0  0  0  0  0  0  0  0
   28.6626  -18.8347  -16.3466 C   0  0  0  0  0  0  0  0  0  0  0  0
   29.5080  -20.0891  -16.4019 C   0  0  0  0  0  0  0  0  0  0  0  0
   28.8707  -20.9801  -15.3235 C   0  0  0  0  0  0  0  0  0  0  0  0
   27.4553  -20.4642  -15.3824 C   0  0  1  0  0  0  0  0  0  0  0  0
   26.5636  -21.0181  -14.3784 C   0  0  0  0  0  0  0  0  0  0  0  0
   26.1485  -22.2137  -14.5454 O   0  0  0  0  0  0  0  0  0  0  0  0
   27.7114  -20.8752   -8.1677 C   0  0  0  0  0  0  0  0  0  0  0  0
   25.9777  -20.3475   -8.1827 S   0  0  0  0  0  0  0  0  0  0  0  0
   25.1106  -20.8778   -9.6437 C   0  0  0  0  0  0  0  0  0  0  0  0
   25.7959  -20.5509  -10.8975 C   0  0  0  0  0  0  0  0  0  0  0  0
   25.2231  -20.9666  -12.2125 C   0  0  2  0  0  0  0  0  0  0  0  0
   26.1042  -20.3546  -13.2187 N   0  0  0  0  0  0  0  0  0  0  0  0
   23.8430  -20.5527  -12.3792 C   0  0  0  0  0  0  0  0  0  0  0  0
   23.5677  -19.3311  -12.4783 O   0  0  0  0  0  0  0  0  0  0  0  0
   19.0034  -24.3420  -14.2957 C   0  0  0  0  0  0  0  0  0  0  0  0
   18.1774  -22.7454  -14.4622 S   0  0  0  0  0  0  0  0  0  0  0  0
   19.1910  -21.4154  -13.7450 C   0  0  0  0  0  0  0  0  0  0  0  0
   20.5435  -21.9876  -13.3775 C   0  0  0  0  0  0  0  0  0  0  0  0
   21.4257  -20.9299  -12.7300 C   0  0  2  0  0  0  0  0  0  0  0  0
   22.7376  -21.4451  -12.4421 N   0  0  0  0  0  0  0  0  0  0  0  0
   20.7313  -20.5862  -11.4425 C   0  0  0  0  0  0  0  0  0  0  0  0
   19.7026  -19.6666  -11.3872 O   0  0  0  0  0  0  0  0  0  0  0  0
   21.0911  -21.1480  -10.3779 O   0  0  0  0  0  0  0  0  0  0  0  0
  1  2  1  0
  2  3  1  0
  4  3  1  0
  5  1  1  0
  5  4  1  0
  6  7  2  0
  5  6  1  1
  8  9  1  0
 10  9  1  0
 10 11  1  0
 12 11  1  1
 12 13  1  0
 12 14  1  0
 13  6  1  0
 14 15  2  0
 14 21  1  0
 16 17  1  0
 17 18  1  0
 19 18  1  0
 20 19  1  1
 20 22  1  0
 21 20  1  0
 22 24  2  0
 22 23  1  0
M  END
$$$$
