PMM.pdb
     RDKit          3D

 24 24  0  0  1  0  0  0  0  0999 V2000
   26.9667  -18.4749  -15.8398 N   0  0  0  0  0  0  0  0  0  0  0  0
   28.0542  -17.9783  -16.6636 C   0  0  0  0  0  0  0  0  0  0  0  0
   29.1823  -18.9839  -16.5758 C   0  0  0  0  0  0  0  0  0  0  0  0
   28.6297  -20.0350  -15.5996 C   0  0  0  0  0  0  0  0  0  0  0  0
   27.1563  -19.8819  -15.8807 C   0  0  1  0  0  0  0  0  0  0  0  0
   26.2881  -20.6668  -15.0204 C   0  0  0  0  0  0  0  0  0  0  0  0
   26.3439  -21.9384  -15.1191 O   0  0  0  0  0  0  0  0  0  0  0  0
   25.4863  -20.1226   -8.5114 C   0  0  0  0  0  0  0  0  0  0  0  0
   26.1659  -21.4786   -9.5032 S   0  0  0  0  0  0  0  0  0  0  0  0
   26.2440  -21.0890  -11.2381 C   0  0  0  0  0  0  0  0  0  0  0  0
   24.9801  -20.6033  -11.7993 C   0  0  0  0  0  0  0  0  0  0  0  0
   24.5577  -20.9894  -13.1787 C   0  0  2  0  0  0  0  0  0  0  0  0
   25.3752  -20.1543  -14.0717 N   0  0  0  0  0  0  0  0  0  0  0  0
   23.1384  -20.7948  -13.4058 C   0  0  0  0  0  0  0  0  0  0  0  0
   22.6577  -19.6347  -13.3794 O   0  0  0  0  0  0  0  0  0  0  0  0
   17.9288  -25.1988  -14.6019 C   0  0  0  0  0  0  0  0  0  0  0  0
   17.8757  -23.7563  -15.6860 S   0  0  0  0  0  0  0  0  0  0  0  0
   18.6735  -22.3244  -14.8961 C   0  0  0  0  0  0  0  0  0  0  0  0
   20.1238  -22.6684  -14.6314 C   0  0  0  0  0  0  0  0  0  0  0  0
   20.8340  -21.5267  -13.9186 C   0  0  2  0  0  0  0  0  0  0  0  0
   22.2141  -21.8440  -13.6648 N   0  0  0  0  0  0  0  0  0  0  0  0
   20.1078  -21.3789  -12.6115 C   0  0  0  0  0  0  0  0  0  0  0  0
   18.9636  -20.6151  -12.4908 O   0  0  0  0  0  0  0  0  0  0  0  0
   20.5478  -21.9648  -11.5909 O   0  0  0  0  0  0  0  0  0  0  0  0
  1  2  1  0
  2  3  1  0
  4  3  1  0
  5  1  1  0
  5  4  1  0
  6  7  2  0
  5  6  1  1
  8  9  1  0
 10  9  1  0
 10 11  1  0
 12 11  1  1
 12 13  1  0
 12 14  1  0
 13  6  1  0
 14 15  2  0
 14 21  1  0
 16 17  1  0
 17 18  1  0
 19 18  1  0
 20 19  1  6
 20 22  1  0
 21 20  1  0
 22 24  2  0
 22 23  1  0
M  END
$$$$
