PMM.pdb
     RDKit          3D

 24 24  0  0  1  0  0  0  0  0999 V2000
   27.2544  -19.3970  -15.4848 N   0  0  0  0  0  0  0  0  0  0  0  0
   28.2613  -19.2034  -16.5126 C   0  0  0  0  0  0  0  0  0  0  0  0
   29.4257  -20.1119  -16.1803 C   0  0  0  0  0  0  0  0  0  0  0  0
   28.9816  -20.7715  -14.8647 C   0  0  0  0  0  0  0  0  0  0  0  0
   27.4873  -20.7327  -15.0618 C   0  0  1  0  0  0  0  0  0  0  0  0
   26.7112  -21.1836  -13.9197 C   0  0  0  0  0  0  0  0  0  0  0  0
   26.0110  -22.2423  -14.0563 O   0  0  0  0  0  0  0  0  0  0  0  0
   26.1255  -20.5527   -6.0265 C   0  0  0  0  0  0  0  0  0  0  0  0
   26.8305  -20.1303   -7.6417 S   0  0  0  0  0  0  0  0  0  0  0  0
   25.8538  -20.7407   -8.9986 C   0  0  0  0  0  0  0  0  0  0  0  0
   26.4861  -20.5785  -10.3109 C   0  0  0  0  0  0  0  0  0  0  0  0
   25.7754  -20.9908  -11.5581 C   0  0  2  0  0  0  0  0  0  0  0  0
   26.6544  -20.5570  -12.6546 N   0  0  0  0  0  0  0  0  0  0  0  0
   24.4502  -20.4111  -11.6661 C   0  0  0  0  0  0  0  0  0  0  0  0
   24.3245  -19.1988  -11.9699 O   0  0  0  0  0  0  0  0  0  0  0  0
   22.1226  -20.6915  -16.6631 C   0  0  0  0  0  0  0  0  0  0  0  0
   20.8174  -21.6819  -15.9052 S   0  0  0  0  0  0  0  0  0  0  0  0
   20.6026  -21.2368  -14.1541 C   0  0  0  0  0  0  0  0  0  0  0  0
   21.8549  -21.6320  -13.4011 C   0  0  0  0  0  0  0  0  0  0  0  0
   22.0559  -20.7515  -12.1762 C   0  0  2  0  0  0  0  0  0  0  0  0
   23.2398  -21.1254  -11.4494 N   0  0  0  0  0  0  0  0  0  0  0  0
   20.8460  -21.0014  -11.3208 C   0  0  0  0  0  0  0  0  0  0  0  0
   19.7661  -20.1407  -11.3089 O   0  0  0  0  0  0  0  0  0  0  0  0
   20.8066  -22.0227  -10.5901 O   0  0  0  0  0  0  0  0  0  0  0  0
  1  2  1  0
  2  3  1  0
  4  3  1  0
  5  1  1  0
  5  4  1  0
  6  7  2  0
  5  6  1  1
  8  9  1  0
 10  9  1  0
 10 11  1  0
 12 11  1  1
 12 13  1  0
 12 14  1  0
 13  6  1  0
 14 15  2  0
 14 21  1  0
 16 17  1  0
 17 18  1  0
 19 18  1  0
 20 19  1  6
 20 22  1  0
 21 20  1  0
 22 24  2  0
 22 23  1  0
M  END
$$$$
