PMM.pdb
     RDKit          3D

 24 24  0  0  1  0  0  0  0  0999 V2000
   27.0966  -18.9383  -15.2335 N   0  0  0  0  0  0  0  0  0  0  0  0
   28.1918  -18.5249  -16.0923 C   0  0  0  0  0  0  0  0  0  0  0  0
   29.3863  -19.3883  -15.7473 C   0  0  0  0  0  0  0  0  0  0  0  0
   28.8566  -20.2644  -14.6006 C   0  0  0  0  0  0  0  0  0  0  0  0
   27.3963  -20.3020  -14.9736 C   0  0  1  0  0  0  0  0  0  0  0  0
   26.5392  -20.9700  -14.0095 C   0  0  0  0  0  0  0  0  0  0  0  0
   26.1471  -22.1540  -14.2815 O   0  0  0  0  0  0  0  0  0  0  0  0
   25.9868  -20.1024   -7.5248 C   0  0  0  0  0  0  0  0  0  0  0  0
   27.3457  -20.9043   -8.4162 S   0  0  0  0  0  0  0  0  0  0  0  0
   26.9022  -21.3607  -10.0784 C   0  0  0  0  0  0  0  0  0  0  0  0
   25.6081  -20.8318  -10.5186 C   0  0  0  0  0  0  0  0  0  0  0  0
   25.1101  -21.0849  -11.9037 C   0  0  2  0  0  0  0  0  0  0  0  0
   26.0908  -20.4306  -12.7830 N   0  0  0  0  0  0  0  0  0  0  0  0
   23.7684  -20.5775  -12.1186 C   0  0  0  0  0  0  0  0  0  0  0  0
   23.5964  -19.3573  -12.3620 O   0  0  0  0  0  0  0  0  0  0  0  0
   23.1528  -21.8147  -17.1188 C   0  0  0  0  0  0  0  0  0  0  0  0
   21.3663  -21.5584  -17.0783 S   0  0  0  0  0  0  0  0  0  0  0  0
   20.8140  -21.1212  -15.4007 C   0  0  0  0  0  0  0  0  0  0  0  0
   21.9226  -21.4592  -14.4269 C   0  0  0  0  0  0  0  0  0  0  0  0
   21.5218  -21.1096  -13.0010 C   0  0  2  0  0  0  0  0  0  0  0  0
   22.5909  -21.3738  -12.0754 N   0  0  0  0  0  0  0  0  0  0  0  0
   20.3622  -22.0150  -12.6950 C   0  0  0  0  0  0  0  0  0  0  0  0
   20.5405  -23.3023  -12.2280 O   0  0  0  0  0  0  0  0  0  0  0  0
   19.1900  -21.5965  -12.8665 O   0  0  0  0  0  0  0  0  0  0  0  0
  1  2  1  0
  2  3  1  0
  4  3  1  0
  5  1  1  0
  5  4  1  0
  6  7  2  0
  5  6  1  1
  8  9  1  0
 10  9  1  0
 10 11  1  0
 12 11  1  1
 12 13  1  0
 12 14  1  0
 13  6  1  0
 14 15  2  0
 14 21  1  0
 16 17  1  0
 17 18  1  0
 19 18  1  0
 20 19  1  6
 20 22  1  0
 21 20  1  0
 22 24  2  0
 22 23  1  0
M  END
$$$$
