PMM.pdb
     RDKit          3D

 24 24  0  0  1  0  0  0  0  0999 V2000
   27.0836  -23.3823  -17.3977 N   0  0  0  0  0  0  0  0  0  0  0  0
   26.3993  -24.4545  -18.0979 C   0  0  0  0  0  0  0  0  0  0  0  0
   25.6564  -25.2688  -17.0603 C   0  0  0  0  0  0  0  0  0  0  0  0
   26.0374  -24.5752  -15.7425 C   0  0  0  0  0  0  0  0  0  0  0  0
   26.2632  -23.1760  -16.2568 C   0  0  1  0  0  0  0  0  0  0  0  0
   26.7699  -22.2392  -15.2691 C   0  0  0  0  0  0  0  0  0  0  0  0
   28.0297  -22.2138  -15.0638 O   0  0  0  0  0  0  0  0  0  0  0  0
   24.8552  -16.7827  -15.6310 C   0  0  0  0  0  0  0  0  0  0  0  0
   26.5849  -16.6980  -15.0969 S   0  0  0  0  0  0  0  0  0  0  0  0
   27.2082  -18.2675  -14.5348 C   0  0  0  0  0  0  0  0  0  0  0  0
   26.2126  -19.0945  -13.8469 C   0  0  0  0  0  0  0  0  0  0  0  0
   26.5359  -20.4917  -13.4301 C   0  0  2  0  0  0  0  0  0  0  0  0
   25.9947  -21.3405  -14.5024 N   0  0  0  0  0  0  0  0  0  0  0  0
   25.9776  -20.8342  -12.1359 C   0  0  0  0  0  0  0  0  0  0  0  0
   24.8874  -21.4549  -12.0734 O   0  0  0  0  0  0  0  0  0  0  0  0
   28.5279  -19.4311   -6.3498 C   0  0  0  0  0  0  0  0  0  0  0  0
   27.0347  -20.2616   -5.7672 S   0  0  0  0  0  0  0  0  0  0  0  0
   25.9800  -20.7519   -7.1666 C   0  0  0  0  0  0  0  0  0  0  0  0
   26.6597  -20.3288   -8.4513 C   0  0  0  0  0  0  0  0  0  0  0  0
   25.9037  -20.8488   -9.6655 C   0  0  2  0  0  0  0  0  0  0  0  0
   26.5825  -20.5150  -10.8891 N   0  0  0  0  0  0  0  0  0  0  0  0
   24.5772  -20.1442   -9.6228 C   0  0  0  0  0  0  0  0  0  0  0  0
   23.5459  -20.5715   -8.8099 O   0  0  0  0  0  0  0  0  0  0  0  0
   24.3912  -19.1338  -10.3460 O   0  0  0  0  0  0  0  0  0  0  0  0
  1  2  1  0
  2  3  1  0
  4  3  1  0
  5  1  1  0
  5  4  1  0
  6  7  2  0
  5  6  1  1
  8  9  1  0
 10  9  1  0
 10 11  1  0
 12 11  1  6
 12 13  1  0
 12 14  1  0
 13  6  1  0
 14 15  2  0
 14 21  1  0
 16 17  1  0
 17 18  1  0
 19 18  1  0
 20 19  1  1
 20 22  1  0
 21 20  1  0
 22 24  2  0
 22 23  1  0
M  END
$$$$
