PMM.pdb
     RDKit          3D

 24 24  0  0  1  0  0  0  0  0999 V2000
   26.8886  -18.9690  -15.9795 N   0  0  0  0  0  0  0  0  0  0  0  0
   27.9777  -18.5819  -16.8581 C   0  0  0  0  0  0  0  0  0  0  0  0
   29.1335  -19.5203  -16.5844 C   0  0  0  0  0  0  0  0  0  0  0  0
   28.5925  -20.4103  -15.4539 C   0  0  0  0  0  0  0  0  0  0  0  0
   27.1215  -20.3558  -15.7798 C   0  0  1  0  0  0  0  0  0  0  0  0
   26.2595  -21.0136  -14.8133 C   0  0  0  0  0  0  0  0  0  0  0  0
   26.3581  -22.2807  -14.6930 O   0  0  0  0  0  0  0  0  0  0  0  0
   26.9372  -20.7011   -8.6954 C   0  0  0  0  0  0  0  0  0  0  0  0
   25.2227  -20.1717   -8.9498 S   0  0  0  0  0  0  0  0  0  0  0  0
   24.4707  -20.9371  -10.3698 C   0  0  0  0  0  0  0  0  0  0  0  0
   25.0088  -20.4759  -11.6528 C   0  0  0  0  0  0  0  0  0  0  0  0
   24.5356  -21.0706  -12.9383 C   0  0  2  0  0  0  0  0  0  0  0  0
   25.3093  -20.3801  -13.9813 N   0  0  0  0  0  0  0  0  0  0  0  0
   23.1067  -20.9173  -13.1347 C   0  0  0  0  0  0  0  0  0  0  0  0
   22.6228  -19.7721  -13.3139 O   0  0  0  0  0  0  0  0  0  0  0  0
   19.0835  -25.2965  -15.6045 C   0  0  0  0  0  0  0  0  0  0  0  0
   17.8542  -24.2460  -14.8019 S   0  0  0  0  0  0  0  0  0  0  0  0
   18.6169  -22.7127  -14.1871 C   0  0  0  0  0  0  0  0  0  0  0  0
   20.0547  -23.0069  -13.8160 C   0  0  0  0  0  0  0  0  0  0  0  0
   20.7925  -21.7309  -13.4370 C   0  0  2  0  0  0  0  0  0  0  0  0
   22.1759  -21.9925  -13.1416 N   0  0  0  0  0  0  0  0  0  0  0  0
   20.1013  -21.2419  -12.1956 C   0  0  0  0  0  0  0  0  0  0  0  0
   18.9706  -20.4510  -12.2493 O   0  0  0  0  0  0  0  0  0  0  0  0
   20.5593  -21.5574  -11.0690 O   0  0  0  0  0  0  0  0  0  0  0  0
  1  2  1  0
  2  3  1  0
  4  3  1  0
  5  1  1  0
  5  4  1  0
  6  7  2  0
  5  6  1  1
  8  9  1  0
 10  9  1  0
 10 11  1  0
 12 11  1  1
 12 13  1  0
 12 14  1  0
 13  6  1  0
 14 15  2  0
 14 21  1  0
 16 17  1  0
 17 18  1  0
 19 18  1  0
 20 19  1  1
 20 22  1  0
 21 20  1  0
 22 24  2  0
 22 23  1  0
M  END
$$$$
