MHW.pdb
     RDKit          3D

 33 35  0  0  1  0  0  0  0  0999 V2000
   33.5544  -16.6187  -17.7255 C   0  0  0  0  0  0  0  0  0  0  0  0
   32.4747  -17.3151  -19.0114 S   0  0  0  0  0  0  0  0  0  0  0  0
   30.7522  -16.7107  -18.7718 C   0  0  0  0  0  0  0  0  0  0  0  0
   30.3809  -16.9121  -17.3481 C   0  0  0  0  0  0  0  0  0  0  0  0
   29.6463  -18.1710  -17.0224 C   0  0  2  0  0  0  0  0  0  0  0  0
   29.0828  -18.7149  -18.2814 N   0  0  0  0  0  0  0  0  0  0  0  0
   28.5134  -18.0202  -16.0937 C   0  0  0  0  0  0  0  0  0  0  0  0
   27.9313  -16.8870  -15.9878 O   0  0  0  0  0  0  0  0  0  0  0  0
   27.9977  -19.0445  -15.2911 N   0  0  0  0  0  0  0  0  0  0  0  0
   26.6293  -19.0040  -14.7413 C   0  0  1  0  0  0  0  0  0  0  0  0
   25.7464  -19.0088  -15.9664 C   0  0  0  0  0  0  0  0  0  0  0  0
   24.3147  -19.0697  -15.7308 C   0  0  0  0  0  0  0  0  0  0  0  0
   23.7020  -19.0368  -14.4997 C   0  0  0  0  0  0  0  0  0  0  0  0
   22.3852  -19.1174  -14.7247 N   0  0  0  0  0  0  0  0  0  0  0  0
   22.1769  -19.1978  -16.0400 C   0  0  0  0  0  0  0  0  0  0  0  0
   23.3498  -19.1683  -16.6436 N   0  0  0  0  0  0  0  0  0  0  0  0
   26.5018  -20.1672  -13.8670 C   0  0  0  0  0  0  0  0  0  0  0  0
   27.3276  -21.1433  -13.9355 O   0  0  0  0  0  0  0  0  0  0  0  0
   25.4882  -20.3154  -12.8907 N   0  0  0  0  0  0  0  0  0  0  0  0
   25.4430  -21.5047  -12.0072 C   0  0  1  0  0  0  0  0  0  0  0  0
   26.7448  -21.5547  -11.2780 C   0  0  0  0  0  0  0  0  0  0  0  0
   26.6908  -20.8142  -10.0092 C   0  0  0  0  0  0  0  0  0  0  0  0
   25.5958  -20.1209   -9.5237 C   0  0  0  0  0  0  0  0  0  0  0  0
   25.8945  -19.5315   -8.3610 N   0  0  0  0  0  0  0  0  0  0  0  0
   27.1678  -19.8333   -8.0845 C   0  0  0  0  0  0  0  0  0  0  0  0
   27.9860  -19.5116   -7.0179 C   0  0  0  0  0  0  0  0  0  0  0  0
   29.2895  -19.9637   -6.9395 C   0  0  0  0  0  0  0  0  0  0  0  0
   29.8024  -20.7605   -7.9489 C   0  0  0  0  0  0  0  0  0  0  0  0
   28.9926  -21.0772   -9.0033 C   0  0  0  0  0  0  0  0  0  0  0  0
   27.6900  -20.6292   -9.0894 C   0  0  0  0  0  0  0  0  0  0  0  0
   24.2225  -21.5724  -11.2387 C   0  0  0  0  0  0  0  0  0  0  0  0
   23.3013  -20.5220  -11.1793 O   0  0  0  0  0  0  0  0  0  0  0  0
   23.9420  -22.6044  -10.5749 O   0  0  0  0  0  0  0  0  0  0  0  0
  1  2  1  0
  3  2  1  0
  4  3  1  0
  5  4  1  0
  5  6  1  6
  7  8  2  0
  7  5  1  0
  9  7  1  0
 10  9  1  0
 10 11  1  6
 12 11  1  0
 13 12  2  0
 14 13  1  0
 15 14  1  0
 15 16  2  0
 16 12  1  0
 17 19  1  0
 17 10  1  0
 18 17  2  0
 20 19  1  0
 20 31  1  0
 20 21  1  1
 22 30  1  0
 22 21  1  0
 23 22  2  0
 24 23  1  0
 24 25  1  0
 25 30  2  0
 26 25  1  0
 26 27  2  0
 27 28  1  0
 28 29  2  0
 30 29  1  0
 31 32  1  0
 33 31  2  0
M  END
$$$$
