MHW.pdb
     RDKit          3D

 33 35  0  0  1  0  0  0  0  0999 V2000
   26.9308  -16.7116  -19.4778 C   0  0  0  0  0  0  0  0  0  0  0  0
   28.2719  -16.8625  -20.6955 S   0  0  0  0  0  0  0  0  0  0  0  0
   29.0157  -18.5438  -20.5967 C   0  0  0  0  0  0  0  0  0  0  0  0
   27.9410  -19.5101  -20.2554 C   0  0  0  0  0  0  0  0  0  0  0  0
   28.3781  -20.8182  -19.6821 C   0  0  2  0  0  0  0  0  0  0  0  0
   29.2364  -21.4964  -20.6829 N   0  0  0  0  0  0  0  0  0  0  0  0
   27.2940  -21.7616  -19.3603 C   0  0  0  0  0  0  0  0  0  0  0  0
   26.8554  -22.5507  -20.2653 O   0  0  0  0  0  0  0  0  0  0  0  0
   26.6823  -21.8767  -18.1066 N   0  0  0  0  0  0  0  0  0  0  0  0
   25.5505  -22.7905  -17.8609 C   0  0  1  0  0  0  0  0  0  0  0  0
   25.9850  -23.5895  -16.6553 C   0  0  0  0  0  0  0  0  0  0  0  0
   26.8887  -24.6982  -16.9064 C   0  0  0  0  0  0  0  0  0  0  0  0
   27.3334  -25.1068  -18.1422 C   0  0  0  0  0  0  0  0  0  0  0  0
   28.1407  -26.1533  -17.9323 N   0  0  0  0  0  0  0  0  0  0  0  0
   28.2023  -26.3938  -16.6215 C   0  0  0  0  0  0  0  0  0  0  0  0
   27.4417  -25.5088  -16.0058 N   0  0  0  0  0  0  0  0  0  0  0  0
   24.3738  -21.9468  -17.6682 C   0  0  0  0  0  0  0  0  0  0  0  0
   24.4323  -20.8748  -16.9704 O   0  0  0  0  0  0  0  0  0  0  0  0
   23.1017  -22.2252  -18.2219 N   0  0  0  0  0  0  0  0  0  0  0  0
   21.9454  -21.3318  -17.9734 C   0  0  1  0  0  0  0  0  0  0  0  0
   21.0763  -21.3976  -19.1857 C   0  0  0  0  0  0  0  0  0  0  0  0
   19.8761  -20.5604  -19.0454 C   0  0  0  0  0  0  0  0  0  0  0  0
   19.8008  -19.2043  -19.3111 C   0  0  0  0  0  0  0  0  0  0  0  0
   18.5733  -18.7443  -19.0462 N   0  0  0  0  0  0  0  0  0  0  0  0
   17.8506  -19.7829  -18.6133 C   0  0  0  0  0  0  0  0  0  0  0  0
   16.5309  -19.8930  -18.2171 C   0  0  0  0  0  0  0  0  0  0  0  0
   15.9897  -21.1008  -17.8194 C   0  0  0  0  0  0  0  0  0  0  0  0
   16.7786  -22.2384  -17.8126 C   0  0  0  0  0  0  0  0  0  0  0  0
   18.0835  -22.1281  -18.2038 C   0  0  0  0  0  0  0  0  0  0  0  0
   18.6318  -20.9255  -18.6018 C   0  0  0  0  0  0  0  0  0  0  0  0
   21.3412  -21.5612  -16.6823 C   0  0  0  0  0  0  0  0  0  0  0  0
   20.7452  -20.5445  -15.9295 O   0  0  0  0  0  0  0  0  0  0  0  0
   21.3351  -22.7134  -16.1754 O   0  0  0  0  0  0  0  0  0  0  0  0
  1  2  1  0
  3  2  1  0
  4  3  1  0
  5  4  1  0
  5  6  1  6
  7  8  2  0
  7  5  1  0
  9  7  1  0
 10  9  1  0
 10 11  1  1
 12 11  1  0
 13 12  2  0
 14 13  1  0
 15 14  1  0
 15 16  2  0
 16 12  1  0
 17 19  1  0
 17 10  1  0
 18 17  2  0
 20 19  1  0
 20 31  1  0
 20 21  1  6
 22 30  1  0
 22 21  1  0
 23 22  2  0
 24 23  1  0
 24 25  1  0
 25 30  2  0
 26 25  1  0
 26 27  2  0
 27 28  1  0
 28 29  2  0
 30 29  1  0
 31 32  1  0
 33 31  2  0
M  END
$$$$
