MHW.pdb
     RDKit          3D

 33 35  0  0  1  0  0  0  0  0999 V2000
   27.6379  -18.6045   -4.7067 C   0  0  0  0  0  0  0  0  0  0  0  0
   27.4553  -18.8703   -6.4956 S   0  0  0  0  0  0  0  0  0  0  0  0
   27.0985  -20.6458   -6.8276 C   0  0  0  0  0  0  0  0  0  0  0  0
   27.1973  -20.8758   -8.2914 C   0  0  0  0  0  0  0  0  0  0  0  0
   26.1954  -20.1713   -9.1460 C   0  0  2  0  0  0  0  0  0  0  0  0
   24.8500  -20.6915   -8.8032 N   0  0  0  0  0  0  0  0  0  0  0  0
   26.3552  -20.3635  -10.5973 C   0  0  0  0  0  0  0  0  0  0  0  0
   27.4744  -20.0881  -11.1504 O   0  0  0  0  0  0  0  0  0  0  0  0
   25.3563  -20.8404  -11.4540 N   0  0  0  0  0  0  0  0  0  0  0  0
   25.5464  -20.9344  -12.9139 C   0  0  1  0  0  0  0  0  0  0  0  0
   25.2002  -22.3694  -13.2327 C   0  0  0  0  0  0  0  0  0  0  0  0
   25.1114  -22.7152  -14.6404 C   0  0  0  0  0  0  0  0  0  0  0  0
   25.2615  -21.8416  -15.6922 C   0  0  0  0  0  0  0  0  0  0  0  0
   25.1046  -22.5587  -16.8113 N   0  0  0  0  0  0  0  0  0  0  0  0
   24.8660  -23.8286  -16.4794 C   0  0  0  0  0  0  0  0  0  0  0  0
   24.8714  -23.9165  -15.1629 N   0  0  0  0  0  0  0  0  0  0  0  0
   24.6720  -19.9271  -13.5092 C   0  0  0  0  0  0  0  0  0  0  0  0
   23.4938  -19.7178  -13.0540 O   0  0  0  0  0  0  0  0  0  0  0  0
   25.0374  -19.1116  -14.6065 N   0  0  0  0  0  0  0  0  0  0  0  0
   24.1395  -18.0390  -15.0966 C   0  0  1  0  0  0  0  0  0  0  0  0
   24.9982  -16.8535  -15.3909 C   0  0  0  0  0  0  0  0  0  0  0  0
   24.2088  -15.7123  -15.8763 C   0  0  0  0  0  0  0  0  0  0  0  0
   23.7938  -14.6339  -15.1146 C   0  0  0  0  0  0  0  0  0  0  0  0
   23.0651  -13.7921  -15.8554 N   0  0  0  0  0  0  0  0  0  0  0  0
   23.0021  -14.3084  -17.0875 C   0  0  0  0  0  0  0  0  0  0  0  0
   22.4018  -13.8621  -18.2498 C   0  0  0  0  0  0  0  0  0  0  0  0
   22.4899  -14.5722  -19.4322 C   0  0  0  0  0  0  0  0  0  0  0  0
   23.1945  -15.7633  -19.4677 C   0  0  0  0  0  0  0  0  0  0  0  0
   23.7869  -16.2038  -18.3175 C   0  0  0  0  0  0  0  0  0  0  0  0
   23.7032  -15.5010  -17.1326 C   0  0  0  0  0  0  0  0  0  0  0  0
   23.2366  -18.5042  -16.1227 C   0  0  0  0  0  0  0  0  0  0  0  0
   21.8847  -18.1490  -16.1651 O   0  0  0  0  0  0  0  0  0  0  0  0
   23.6456  -19.2695  -17.0346 O   0  0  0  0  0  0  0  0  0  0  0  0
  1  2  1  0
  3  2  1  0
  4  3  1  0
  5  4  1  0
  5  6  1  1
  7  8  2  0
  7  5  1  0
  9  7  1  0
 10  9  1  0
 10 11  1  6
 12 11  1  0
 13 12  2  0
 14 13  1  0
 15 14  1  0
 15 16  2  0
 16 12  1  0
 17 19  1  0
 17 10  1  0
 18 17  2  0
 20 19  1  0
 20 31  1  0
 20 21  1  6
 22 30  1  0
 22 21  1  0
 23 22  2  0
 24 23  1  0
 24 25  1  0
 25 30  2  0
 26 25  1  0
 26 27  2  0
 27 28  1  0
 28 29  2  0
 30 29  1  0
 31 32  1  0
 33 31  2  0
M  END
$$$$
