MHW.pdb
     RDKit          3D

 33 35  0  0  1  0  0  0  0  0999 V2000
   31.6351  -17.6592  -19.0983 C   0  0  0  0  0  0  0  0  0  0  0  0
   30.1369  -17.6318  -18.0693 S   0  0  0  0  0  0  0  0  0  0  0  0
   28.7105  -17.0260  -19.0633 C   0  0  0  0  0  0  0  0  0  0  0  0
   27.5085  -17.0076  -18.1914 C   0  0  0  0  0  0  0  0  0  0  0  0
   26.9407  -18.3355  -17.8107 C   0  0  2  0  0  0  0  0  0  0  0  0
   26.6166  -19.0724  -19.0558 N   0  0  0  0  0  0  0  0  0  0  0  0
   25.6977  -18.2895  -17.0223 C   0  0  0  0  0  0  0  0  0  0  0  0
   25.6613  -17.6078  -15.9415 O   0  0  0  0  0  0  0  0  0  0  0  0
   24.5104  -18.9467  -17.3652 N   0  0  0  0  0  0  0  0  0  0  0  0
   23.2517  -18.7422  -16.6233 C   0  0  1  0  0  0  0  0  0  0  0  0
   22.2450  -18.4159  -17.7006 C   0  0  0  0  0  0  0  0  0  0  0  0
   21.9075  -17.0132  -17.8660 C   0  0  0  0  0  0  0  0  0  0  0  0
   21.5569  -16.1478  -16.8560 C   0  0  0  0  0  0  0  0  0  0  0  0
   21.3255  -14.9616  -17.4308 N   0  0  0  0  0  0  0  0  0  0  0  0
   21.5215  -15.0743  -18.7456 C   0  0  0  0  0  0  0  0  0  0  0  0
   21.8739  -16.3195  -19.0025 N   0  0  0  0  0  0  0  0  0  0  0  0
   23.0051  -19.9764  -15.8820 C   0  0  0  0  0  0  0  0  0  0  0  0
   23.3505  -21.1152  -16.3543 O   0  0  0  0  0  0  0  0  0  0  0  0
   22.3854  -20.0250  -14.6107 N   0  0  0  0  0  0  0  0  0  0  0  0
   22.1899  -21.3120  -13.9021 C   0  0  1  0  0  0  0  0  0  0  0  0
   23.5065  -22.0160  -13.9073 C   0  0  0  0  0  0  0  0  0  0  0  0
   24.4301  -21.4579  -12.9089 C   0  0  0  0  0  0  0  0  0  0  0  0
   24.0945  -21.0748  -11.6222 C   0  0  0  0  0  0  0  0  0  0  0  0
   25.1623  -20.5761  -10.9901 N   0  0  0  0  0  0  0  0  0  0  0  0
   26.1866  -20.6310  -11.8483 C   0  0  0  0  0  0  0  0  0  0  0  0
   27.5156  -20.2704  -11.7295 C   0  0  0  0  0  0  0  0  0  0  0  0
   28.4109  -20.4415  -12.7684 C   0  0  0  0  0  0  0  0  0  0  0  0
   27.9787  -20.9871  -13.9651 C   0  0  0  0  0  0  0  0  0  0  0  0
   26.6642  -21.3426  -14.0816 C   0  0  0  0  0  0  0  0  0  0  0  0
   25.7637  -21.1743  -13.0491 C   0  0  0  0  0  0  0  0  0  0  0  0
   21.5046  -21.1471  -12.6419 C   0  0  0  0  0  0  0  0  0  0  0  0
   20.8498  -22.1958  -11.9886 O   0  0  0  0  0  0  0  0  0  0  0  0
   21.4683  -20.0228  -12.0769 O   0  0  0  0  0  0  0  0  0  0  0  0
  1  2  1  0
  3  2  1  0
  4  3  1  0
  5  4  1  0
  5  6  1  6
  7  8  2  0
  7  5  1  0
  9  7  1  0
 10  9  1  0
 10 11  1  6
 12 11  1  0
 13 12  2  0
 14 13  1  0
 15 14  1  0
 15 16  2  0
 16 12  1  0
 17 19  1  0
 17 10  1  0
 18 17  2  0
 20 19  1  0
 20 31  1  0
 20 21  1  1
 22 30  1  0
 22 21  1  0
 23 22  2  0
 24 23  1  0
 24 25  1  0
 25 30  2  0
 26 25  1  0
 26 27  2  0
 27 28  1  0
 28 29  2  0
 30 29  1  0
 31 32  1  0
 33 31  2  0
M  END
$$$$
