MHW.pdb
     RDKit          3D

 33 35  0  0  1  0  0  0  0  0999 V2000
   28.9172  -19.8757   -5.1177 C   0  0  0  0  0  0  0  0  0  0  0  0
   27.8963  -19.3823   -6.5384 S   0  0  0  0  0  0  0  0  0  0  0  0
   27.9009  -20.7208   -7.8026 C   0  0  0  0  0  0  0  0  0  0  0  0
   27.0713  -20.2793   -8.9526 C   0  0  0  0  0  0  0  0  0  0  0  0
   27.0134  -21.2017  -10.1258 C   0  0  2  0  0  0  0  0  0  0  0  0
   28.4022  -21.4694  -10.5708 N   0  0  0  0  0  0  0  0  0  0  0  0
   26.2949  -20.6841  -11.3025 C   0  0  0  0  0  0  0  0  0  0  0  0
   26.7373  -19.6476  -11.9059 O   0  0  0  0  0  0  0  0  0  0  0  0
   25.1317  -21.2482  -11.8391 N   0  0  0  0  0  0  0  0  0  0  0  0
   24.5127  -20.7495  -13.0820 C   0  0  1  0  0  0  0  0  0  0  0  0
   24.9169  -21.7675  -14.1216 C   0  0  0  0  0  0  0  0  0  0  0  0
   26.2562  -21.6366  -14.6676 C   0  0  0  0  0  0  0  0  0  0  0  0
   26.6378  -20.7591  -15.6557 C   0  0  0  0  0  0  0  0  0  0  0  0
   27.9442  -20.9610  -15.8640 N   0  0  0  0  0  0  0  0  0  0  0  0
   28.3677  -21.9237  -15.0433 C   0  0  0  0  0  0  0  0  0  0  0  0
   27.3403  -22.3286  -14.3213 N   0  0  0  0  0  0  0  0  0  0  0  0
   23.0794  -20.6518  -12.8182 C   0  0  0  0  0  0  0  0  0  0  0  0
   22.5003  -21.4423  -11.9942 O   0  0  0  0  0  0  0  0  0  0  0  0
   22.2264  -19.7005  -13.4265 N   0  0  0  0  0  0  0  0  0  0  0  0
   20.7966  -19.6010  -13.0489 C   0  0  1  0  0  0  0  0  0  0  0  0
   20.3129  -18.2705  -13.5231 C   0  0  0  0  0  0  0  0  0  0  0  0
   20.2500  -18.2014  -14.9902 C   0  0  0  0  0  0  0  0  0  0  0  0
   19.3011  -18.8158  -15.7885 C   0  0  0  0  0  0  0  0  0  0  0  0
   19.5540  -18.5795  -17.0802 N   0  0  0  0  0  0  0  0  0  0  0  0
   20.6533  -17.8195  -17.1316 C   0  0  0  0  0  0  0  0  0  0  0  0
   21.3509  -17.2691  -18.1903 C   0  0  0  0  0  0  0  0  0  0  0  0
   22.4723  -16.4858  -17.9931 C   0  0  0  0  0  0  0  0  0  0  0  0
   22.9198  -16.2379  -16.7067 C   0  0  0  0  0  0  0  0  0  0  0  0
   22.2295  -16.7833  -15.6607 C   0  0  0  0  0  0  0  0  0  0  0  0
   21.1092  -17.5672  -15.8493 C   0  0  0  0  0  0  0  0  0  0  0  0
   20.0465  -20.7770  -13.4221 C   0  0  0  0  0  0  0  0  0  0  0  0
   20.4660  -21.6625  -14.4197 O   0  0  0  0  0  0  0  0  0  0  0  0
   18.9586  -21.0489  -12.8503 O   0  0  0  0  0  0  0  0  0  0  0  0
  1  2  1  0
  3  2  1  0
  4  3  1  0
  5  4  1  0
  5  6  1  6
  7  8  2  0
  7  5  1  0
  9  7  1  0
 10  9  1  0
 10 11  1  6
 12 11  1  0
 13 12  2  0
 14 13  1  0
 15 14  1  0
 15 16  2  0
 16 12  1  0
 17 19  1  0
 17 10  1  0
 18 17  2  0
 20 19  1  0
 20 31  1  0
 20 21  1  6
 22 30  1  0
 22 21  1  0
 23 22  2  0
 24 23  1  0
 24 25  1  0
 25 30  2  0
 26 25  1  0
 26 27  2  0
 27 28  1  0
 28 29  2  0
 30 29  1  0
 31 32  1  0
 33 31  2  0
M  END
$$$$
