MHW.pdb
     RDKit          3D

 33 35  0  0  1  0  0  0  0  0999 V2000
    7.2235   -7.1641  -12.3037 C   0  0  0  0  0  0  0  0  0  0  0  0
    8.8597   -7.9557  -12.2808 S   0  0  0  0  0  0  0  0  0  0  0  0
    9.8097   -7.4639  -13.7793 C   0  0  0  0  0  0  0  0  0  0  0  0
   11.1941   -7.9844  -13.6456 C   0  0  0  0  0  0  0  0  0  0  0  0
   12.1917   -7.4885  -14.6404 C   0  0  2  0  0  0  0  0  0  0  0  0
   12.3354   -8.5152  -15.7003 N   0  0  0  0  0  0  0  0  0  0  0  0
   13.5452   -7.2471  -14.1126 C   0  0  0  0  0  0  0  0  0  0  0  0
   14.3575   -8.2263  -13.9886 O   0  0  0  0  0  0  0  0  0  0  0  0
   14.0389   -5.9963  -13.7241 N   0  0  0  0  0  0  0  0  0  0  0  0
   15.4335   -5.7993  -13.2851 C   0  0  1  0  0  0  0  0  0  0  0  0
   15.9974   -4.8282  -14.2948 C   0  0  0  0  0  0  0  0  0  0  0  0
   16.5725   -5.4066  -15.4963 C   0  0  0  0  0  0  0  0  0  0  0  0
   16.1484   -5.1698  -16.7832 C   0  0  0  0  0  0  0  0  0  0  0  0
   16.9384   -5.8924  -17.5861 N   0  0  0  0  0  0  0  0  0  0  0  0
   17.8218   -6.5558  -16.8382 C   0  0  0  0  0  0  0  0  0  0  0  0
   17.5947   -6.2570  -15.5733 N   0  0  0  0  0  0  0  0  0  0  0  0
   15.3677   -5.3122  -11.9096 C   0  0  0  0  0  0  0  0  0  0  0  0
   14.4570   -4.4926  -11.5380 O   0  0  0  0  0  0  0  0  0  0  0  0
   16.2736   -5.6937  -10.8915 N   0  0  0  0  0  0  0  0  0  0  0  0
   16.1627   -5.1411   -9.5206 C   0  0  1  0  0  0  0  0  0  0  0  0
   14.7412   -5.3110   -9.0966 C   0  0  0  0  0  0  0  0  0  0  0  0
   14.3937   -6.7258   -8.8997 C   0  0  0  0  0  0  0  0  0  0  0  0
   15.2490   -7.8000   -9.0724 C   0  0  0  0  0  0  0  0  0  0  0  0
   14.6054   -8.9502   -8.8459 N   0  0  0  0  0  0  0  0  0  0  0  0
   13.3445   -8.6376   -8.5277 C   0  0  0  0  0  0  0  0  0  0  0  0
   12.2548   -9.4160   -8.1854 C   0  0  0  0  0  0  0  0  0  0  0  0
   11.0310   -8.8556   -7.8720 C   0  0  0  0  0  0  0  0  0  0  0  0
   10.8783   -7.4798   -7.8979 C   0  0  0  0  0  0  0  0  0  0  0  0
   11.9564   -6.7114   -8.2372 C   0  0  0  0  0  0  0  0  0  0  0  0
   13.1817   -7.2633   -8.5521 C   0  0  0  0  0  0  0  0  0  0  0  0
   17.2029   -5.6284   -8.6458 C   0  0  0  0  0  0  0  0  0  0  0  0
   17.4227   -5.1138   -7.3642 O   0  0  0  0  0  0  0  0  0  0  0  0
   17.9703   -6.5536   -9.0193 O   0  0  0  0  0  0  0  0  0  0  0  0
  1  2  1  0
  3  2  1  0
  4  3  1  0
  5  4  1  0
  5  6  1  6
  7  8  2  0
  7  5  1  0
  9  7  1  0
 10  9  1  0
 10 11  1  6
 12 11  1  0
 13 12  2  0
 14 13  1  0
 15 14  1  0
 15 16  2  0
 16 12  1  0
 17 19  1  0
 17 10  1  0
 18 17  2  0
 20 19  1  0
 20 31  1  0
 20 21  1  1
 22 30  1  0
 22 21  1  0
 23 22  2  0
 24 23  1  0
 24 25  1  0
 25 30  2  0
 26 25  1  0
 26 27  2  0
 27 28  1  0
 28 29  2  0
 30 29  1  0
 31 32  1  0
 33 31  2  0
M  END
$$$$
