MHW.pdb
     RDKit          3D

 33 35  0  0  1  0  0  0  0  0999 V2000
   24.4984  -15.7701  -21.7908 C   0  0  0  0  0  0  0  0  0  0  0  0
   24.1515  -17.4409  -21.1645 S   0  0  0  0  0  0  0  0  0  0  0  0
   24.5452  -17.5262  -19.3680 C   0  0  0  0  0  0  0  0  0  0  0  0
   24.2246  -18.8932  -18.8844 C   0  0  0  0  0  0  0  0  0  0  0  0
   25.3825  -19.7473  -18.4840 C   0  0  2  0  0  0  0  0  0  0  0  0
   26.1523  -20.0827  -19.7060 N   0  0  0  0  0  0  0  0  0  0  0  0
   25.0331  -21.0301  -17.8506 C   0  0  0  0  0  0  0  0  0  0  0  0
   24.6306  -22.0027  -18.5761 O   0  0  0  0  0  0  0  0  0  0  0  0
   25.1084  -21.2885  -16.4770 N   0  0  0  0  0  0  0  0  0  0  0  0
   24.6956  -22.5785  -15.8922 C   0  0  1  0  0  0  0  0  0  0  0  0
   25.9623  -23.1162  -15.2702 C   0  0  0  0  0  0  0  0  0  0  0  0
   26.9791  -23.5976  -16.1884 C   0  0  0  0  0  0  0  0  0  0  0  0
   26.8572  -23.6656  -17.5568 C   0  0  0  0  0  0  0  0  0  0  0  0
   28.0096  -24.1639  -18.0200 N   0  0  0  0  0  0  0  0  0  0  0  0
   28.8225  -24.3998  -16.9887 C   0  0  0  0  0  0  0  0  0  0  0  0
   28.1922  -24.0546  -15.8822 N   0  0  0  0  0  0  0  0  0  0  0  0
   23.6118  -22.2803  -14.9595 C   0  0  0  0  0  0  0  0  0  0  0  0
   23.6594  -21.2572  -14.1911 O   0  0  0  0  0  0  0  0  0  0  0  0
   22.4433  -23.0675  -14.8270 N   0  0  0  0  0  0  0  0  0  0  0  0
   21.4990  -22.8547  -13.7045 C   0  0  1  0  0  0  0  0  0  0  0  0
   20.8902  -21.5053  -13.8980 C   0  0  0  0  0  0  0  0  0  0  0  0
   19.9092  -21.1913  -12.8490 C   0  0  0  0  0  0  0  0  0  0  0  0
   18.5335  -21.2638  -12.9808 C   0  0  0  0  0  0  0  0  0  0  0  0
   17.9352  -20.8771  -11.8490 N   0  0  0  0  0  0  0  0  0  0  0  0
   18.9033  -20.5556  -10.9841 C   0  0  0  0  0  0  0  0  0  0  0  0
   18.8672  -20.1129   -9.6752 C   0  0  0  0  0  0  0  0  0  0  0  0
   20.0232  -19.8586   -8.9618 C   0  0  0  0  0  0  0  0  0  0  0  0
   21.2566  -20.0478   -9.5616 C   0  0  0  0  0  0  0  0  0  0  0  0
   21.2908  -20.4849  -10.8561 C   0  0  0  0  0  0  0  0  0  0  0  0
   20.1409  -20.7405  -11.5756 C   0  0  0  0  0  0  0  0  0  0  0  0
   20.6197  -23.9824  -13.5048 C   0  0  0  0  0  0  0  0  0  0  0  0
   20.7582  -25.1880  -14.1996 O   0  0  0  0  0  0  0  0  0  0  0  0
   19.6707  -23.9144  -12.6806 O   0  0  0  0  0  0  0  0  0  0  0  0
  1  2  1  0
  3  2  1  0
  4  3  1  0
  5  4  1  0
  5  6  1  6
  7  8  2  0
  7  5  1  0
  9  7  1  0
 10  9  1  0
 10 11  1  1
 12 11  1  0
 13 12  2  0
 14 13  1  0
 15 14  1  0
 15 16  2  0
 16 12  1  0
 17 19  1  0
 17 10  1  0
 18 17  2  0
 20 19  1  0
 20 31  1  0
 20 21  1  6
 22 30  1  0
 22 21  1  0
 23 22  2  0
 24 23  1  0
 24 25  1  0
 25 30  2  0
 26 25  1  0
 26 27  2  0
 27 28  1  0
 28 29  2  0
 30 29  1  0
 31 32  1  0
 33 31  2  0
M  END
$$$$
