MHW.pdb
     RDKit          3D

 33 35  0  0  1  0  0  0  0  0999 V2000
   23.4258  -11.4195  -14.2202 C   0  0  0  0  0  0  0  0  0  0  0  0
   23.2030  -12.6803  -15.5105 S   0  0  0  0  0  0  0  0  0  0  0  0
   21.4075  -12.9937  -15.7708 C   0  0  0  0  0  0  0  0  0  0  0  0
   20.7781  -11.7349  -16.2448 C   0  0  0  0  0  0  0  0  0  0  0  0
   19.3172  -11.7937  -16.5497 C   0  0  2  0  0  0  0  0  0  0  0  0
   19.1368  -12.5831  -17.7917 N   0  0  0  0  0  0  0  0  0  0  0  0
   18.6680  -10.4935  -16.7885 C   0  0  0  0  0  0  0  0  0  0  0  0
   18.8727   -9.8795  -17.8909 O   0  0  0  0  0  0  0  0  0  0  0  0
   17.8145   -9.8498  -15.8849 N   0  0  0  0  0  0  0  0  0  0  0  0
   17.2860   -8.4938  -16.1266 C   0  0  1  0  0  0  0  0  0  0  0  0
   15.9811   -8.4729  -15.3668 C   0  0  0  0  0  0  0  0  0  0  0  0
   15.3036   -7.1912  -15.2815 C   0  0  0  0  0  0  0  0  0  0  0  0
   15.7784   -5.9982  -15.7749 C   0  0  0  0  0  0  0  0  0  0  0  0
   14.8571   -5.0710  -15.4879 N   0  0  0  0  0  0  0  0  0  0  0  0
   13.8457   -5.6539  -14.8419 C   0  0  0  0  0  0  0  0  0  0  0  0
   14.1226   -6.9382  -14.7202 N   0  0  0  0  0  0  0  0  0  0  0  0
   18.3071   -7.5630  -15.6529 C   0  0  0  0  0  0  0  0  0  0  0  0
   18.9430   -7.7735  -14.5618 O   0  0  0  0  0  0  0  0  0  0  0  0
   18.6795   -6.3820  -16.3379 N   0  0  0  0  0  0  0  0  0  0  0  0
   19.7392   -5.4909  -15.8088 C   0  0  1  0  0  0  0  0  0  0  0  0
   20.9799   -6.3130  -15.6904 C   0  0  0  0  0  0  0  0  0  0  0  0
   22.1806   -5.4760  -15.5521 C   0  0  0  0  0  0  0  0  0  0  0  0
   22.3900   -4.5180  -14.5756 C   0  0  0  0  0  0  0  0  0  0  0  0
   23.5698   -3.9153  -14.7585 N   0  0  0  0  0  0  0  0  0  0  0  0
   24.1295   -4.4695  -15.8394 C   0  0  0  0  0  0  0  0  0  0  0  0
   25.3387   -4.2507  -16.4723 C   0  0  0  0  0  0  0  0  0  0  0  0
   25.7168   -4.9742  -17.5874 C   0  0  0  0  0  0  0  0  0  0  0  0
   24.8719   -5.9465  -18.0947 C   0  0  0  0  0  0  0  0  0  0  0  0
   23.6763   -6.1613  -17.4685 C   0  0  0  0  0  0  0  0  0  0  0  0
   23.2910   -5.4427  -16.3549 C   0  0  0  0  0  0  0  0  0  0  0  0
   19.8112   -4.2382  -16.5231 C   0  0  0  0  0  0  0  0  0  0  0  0
   20.1004   -3.0212  -15.8981 O   0  0  0  0  0  0  0  0  0  0  0  0
   19.6056   -4.1978  -17.7643 O   0  0  0  0  0  0  0  0  0  0  0  0
  1  2  1  0
  3  2  1  0
  4  3  1  0
  5  4  1  0
  5  6  1  6
  7  8  2  0
  7  5  1  0
  9  7  1  0
 10  9  1  0
 10 11  1  1
 12 11  1  0
 13 12  2  0
 14 13  1  0
 15 14  1  0
 15 16  2  0
 16 12  1  0
 17 19  1  0
 17 10  1  0
 18 17  2  0
 20 19  1  0
 20 31  1  0
 20 21  1  6
 22 30  1  0
 22 21  1  0
 23 22  2  0
 24 23  1  0
 24 25  1  0
 25 30  2  0
 26 25  1  0
 26 27  2  0
 27 28  1  0
 28 29  2  0
 30 29  1  0
 31 32  1  0
 33 31  2  0
M  END
$$$$
