MHW.pdb
     RDKit          3D

 33 35  0  0  1  0  0  0  0  0999 V2000
   23.7861  -31.8707  -12.3758 C   0  0  0  0  0  0  0  0  0  0  0  0
   23.5647  -33.6747  -12.3564 S   0  0  0  0  0  0  0  0  0  0  0  0
   25.2028  -34.5010  -12.2025 C   0  0  0  0  0  0  0  0  0  0  0  0
   25.5148  -34.6533  -10.7586 C   0  0  0  0  0  0  0  0  0  0  0  0
   26.8671  -35.1904  -10.4219 C   0  0  2  0  0  0  0  0  0  0  0  0
   26.9080  -36.6183  -10.8191 N   0  0  0  0  0  0  0  0  0  0  0  0
   27.2271  -35.1480   -8.9945 C   0  0  0  0  0  0  0  0  0  0  0  0
   26.9252  -36.1337   -8.2385 O   0  0  0  0  0  0  0  0  0  0  0  0
   27.8966  -34.0884   -8.3715 N   0  0  0  0  0  0  0  0  0  0  0  0
   28.2542  -34.1124   -6.9404 C   0  0  1  0  0  0  0  0  0  0  0  0
   29.6514  -33.5405   -6.9065 C   0  0  0  0  0  0  0  0  0  0  0  0
   30.7307  -34.4847   -6.6770 C   0  0  0  0  0  0  0  0  0  0  0  0
   30.5794  -35.8127   -6.3520 C   0  0  0  0  0  0  0  0  0  0  0  0
   31.8117  -36.3197   -6.2280 N   0  0  0  0  0  0  0  0  0  0  0  0
   32.7009  -35.3536   -6.4643 C   0  0  0  0  0  0  0  0  0  0  0  0
   32.0394  -34.2447   -6.7356 N   0  0  0  0  0  0  0  0  0  0  0  0
   27.2346  -33.3287   -6.2476 C   0  0  0  0  0  0  0  0  0  0  0  0
   26.8358  -32.2025   -6.7080 O   0  0  0  0  0  0  0  0  0  0  0  0
   26.6094  -33.7322   -5.0439 N   0  0  0  0  0  0  0  0  0  0  0  0
   25.1658  -33.4897   -4.8113 C   0  0  1  0  0  0  0  0  0  0  0  0
   24.4553  -33.8489   -6.0744 C   0  0  0  0  0  0  0  0  0  0  0  0
   23.4758  -32.8237   -6.4626 C   0  0  0  0  0  0  0  0  0  0  0  0
   22.1650  -32.7509   -6.0246 C   0  0  0  0  0  0  0  0  0  0  0  0
   21.5382  -31.7178   -6.5975 N   0  0  0  0  0  0  0  0  0  0  0  0
   22.4240  -31.1184   -7.4005 C   0  0  0  0  0  0  0  0  0  0  0  0
   22.3315  -30.0063   -8.2161 C   0  0  0  0  0  0  0  0  0  0  0  0
   23.4092  -29.5544   -8.9539 C   0  0  0  0  0  0  0  0  0  0  0  0
   24.6190  -30.2238   -8.8840 C   0  0  0  0  0  0  0  0  0  0  0  0
   24.7089  -31.3237   -8.0778 C   0  0  0  0  0  0  0  0  0  0  0  0
   23.6372  -31.7817   -7.3383 C   0  0  0  0  0  0  0  0  0  0  0  0
   24.7031  -34.0720   -3.5738 C   0  0  0  0  0  0  0  0  0  0  0  0
   25.3953  -35.0857   -2.9039 O   0  0  0  0  0  0  0  0  0  0  0  0
   23.6300  -33.6800   -3.0452 O   0  0  0  0  0  0  0  0  0  0  0  0
  1  2  1  0
  3  2  1  0
  4  3  1  0
  5  4  1  0
  5  6  1  1
  7  8  2  0
  7  5  1  0
  9  7  1  0
 10  9  1  0
 10 11  1  6
 12 11  1  0
 13 12  2  0
 14 13  1  0
 15 14  1  0
 15 16  2  0
 16 12  1  0
 17 19  1  0
 17 10  1  0
 18 17  2  0
 20 19  1  0
 20 31  1  0
 20 21  1  6
 22 30  1  0
 22 21  1  0
 23 22  2  0
 24 23  1  0
 24 25  1  0
 25 30  2  0
 26 25  1  0
 26 27  2  0
 27 28  1  0
 28 29  2  0
 30 29  1  0
 31 32  1  0
 33 31  2  0
M  END
$$$$
