MHW.pdb
     RDKit          3D

 33 35  0  0  1  0  0  0  0  0999 V2000
   21.1167  -23.4855  -18.9818 C   0  0  0  0  0  0  0  0  0  0  0  0
   21.3967  -24.1382  -20.6550 S   0  0  0  0  0  0  0  0  0  0  0  0
   23.1977  -24.4100  -20.9235 C   0  0  0  0  0  0  0  0  0  0  0  0
   23.9467  -23.4781  -20.0426 C   0  0  0  0  0  0  0  0  0  0  0  0
   25.4305  -23.4502  -20.2099 C   0  0  2  0  0  0  0  0  0  0  0  0
   25.9531  -24.8066  -19.9177 N   0  0  0  0  0  0  0  0  0  0  0  0
   26.1508  -22.5283  -19.3154 C   0  0  0  0  0  0  0  0  0  0  0  0
   26.7004  -22.9807  -18.2536 O   0  0  0  0  0  0  0  0  0  0  0  0
   26.2943  -21.1533  -19.5343 N   0  0  0  0  0  0  0  0  0  0  0  0
   27.0277  -20.2772  -18.6009 C   0  0  1  0  0  0  0  0  0  0  0  0
   28.0625  -19.6056  -19.4719 C   0  0  0  0  0  0  0  0  0  0  0  0
   29.2311  -20.3969  -19.8141 C   0  0  0  0  0  0  0  0  0  0  0  0
   30.1299  -20.9290  -18.9191 C   0  0  0  0  0  0  0  0  0  0  0  0
   31.0498  -21.5800  -19.6410 N   0  0  0  0  0  0  0  0  0  0  0  0
   30.7443  -21.4633  -20.9344 C   0  0  0  0  0  0  0  0  0  0  0  0
   29.6415  -20.7456  -21.0322 N   0  0  0  0  0  0  0  0  0  0  0  0
   26.0343  -19.3893  -18.0022 C   0  0  0  0  0  0  0  0  0  0  0  0
   25.0608  -18.9220  -18.6901 O   0  0  0  0  0  0  0  0  0  0  0  0
   26.0532  -18.9807  -16.6475 N   0  0  0  0  0  0  0  0  0  0  0  0
   24.9902  -18.1077  -16.0955 C   0  0  1  0  0  0  0  0  0  0  0  0
   23.8091  -18.9794  -15.8229 C   0  0  0  0  0  0  0  0  0  0  0  0
   24.0260  -19.8466  -14.6558 C   0  0  0  0  0  0  0  0  0  0  0  0
   24.1042  -19.4261  -13.3397 C   0  0  0  0  0  0  0  0  0  0  0  0
   24.3428  -20.4645  -12.5313 N   0  0  0  0  0  0  0  0  0  0  0  0
   24.4197  -21.5532  -13.3043 C   0  0  0  0  0  0  0  0  0  0  0  0
   24.6310  -22.8868  -13.0087 C   0  0  0  0  0  0  0  0  0  0  0  0
   24.6508  -23.8555  -13.9941 C   0  0  0  0  0  0  0  0  0  0  0  0
   24.4554  -23.4948  -15.3164 C   0  0  0  0  0  0  0  0  0  0  0  0
   24.2473  -22.1757  -15.6075 C   0  0  0  0  0  0  0  0  0  0  0  0
   24.2267  -21.2022  -14.6292 C   0  0  0  0  0  0  0  0  0  0  0  0
   25.4742  -17.2560  -15.0348 C   0  0  0  0  0  0  0  0  0  0  0  0
   24.7506  -16.1640  -14.5453 O   0  0  0  0  0  0  0  0  0  0  0  0
   26.5955  -17.4705  -14.5046 O   0  0  0  0  0  0  0  0  0  0  0  0
  1  2  1  0
  3  2  1  0
  4  3  1  0
  5  4  1  0
  5  6  1  1
  7  8  2  0
  7  5  1  0
  9  7  1  0
 10  9  1  0
 10 11  1  6
 12 11  1  0
 13 12  2  0
 14 13  1  0
 15 14  1  0
 15 16  2  0
 16 12  1  0
 17 19  1  0
 17 10  1  0
 18 17  2  0
 20 19  1  0
 20 31  1  0
 20 21  1  1
 22 30  1  0
 22 21  1  0
 23 22  2  0
 24 23  1  0
 24 25  1  0
 25 30  2  0
 26 25  1  0
 26 27  2  0
 27 28  1  0
 28 29  2  0
 30 29  1  0
 31 32  1  0
 33 31  2  0
M  END
$$$$
