MHW.pdb
     RDKit          3D

 33 35  0  0  1  0  0  0  0  0999 V2000
   26.8935  -15.7365  -14.3726 C   0  0  0  0  0  0  0  0  0  0  0  0
   26.8914  -14.7797  -15.9180 S   0  0  0  0  0  0  0  0  0  0  0  0
   27.5448  -15.8160  -17.2923 C   0  0  0  0  0  0  0  0  0  0  0  0
   26.7925  -17.0963  -17.3097 C   0  0  0  0  0  0  0  0  0  0  0  0
   27.3678  -18.1964  -18.1400 C   0  0  2  0  0  0  0  0  0  0  0  0
   27.1603  -17.8535  -19.5675 N   0  0  0  0  0  0  0  0  0  0  0  0
   26.7602  -19.5231  -17.9411 C   0  0  0  0  0  0  0  0  0  0  0  0
   25.6767  -19.8184  -18.5517 O   0  0  0  0  0  0  0  0  0  0  0  0
   27.2842  -20.5252  -17.1161 N   0  0  0  0  0  0  0  0  0  0  0  0
   26.5983  -21.8144  -16.9064 C   0  0  1  0  0  0  0  0  0  0  0  0
   27.7279  -22.8030  -16.7411 C   0  0  0  0  0  0  0  0  0  0  0  0
   27.3481  -24.1807  -16.4831 C   0  0  0  0  0  0  0  0  0  0  0  0
   26.0603  -24.6603  -16.4231 C   0  0  0  0  0  0  0  0  0  0  0  0
   26.1508  -25.9702  -16.1645 N   0  0  0  0  0  0  0  0  0  0  0  0
   27.4393  -26.3019  -16.0658 C   0  0  0  0  0  0  0  0  0  0  0  0
   28.1591  -25.2133  -16.2598 N   0  0  0  0  0  0  0  0  0  0  0  0
   25.7378  -21.6385  -15.7393 C   0  0  0  0  0  0  0  0  0  0  0  0
   26.1786  -21.1010  -14.6641 O   0  0  0  0  0  0  0  0  0  0  0  0
   24.3785  -22.0291  -15.6929 N   0  0  0  0  0  0  0  0  0  0  0  0
   23.5527  -21.7887  -14.4858 C   0  0  1  0  0  0  0  0  0  0  0  0
   23.7408  -20.3566  -14.1081 C   0  0  0  0  0  0  0  0  0  0  0  0
   22.9318  -19.4586  -14.9450 C   0  0  0  0  0  0  0  0  0  0  0  0
   21.5931  -19.6276  -15.2524 C   0  0  0  0  0  0  0  0  0  0  0  0
   21.1735  -18.6506  -16.0636 N   0  0  0  0  0  0  0  0  0  0  0  0
   22.2209  -17.8493  -16.2862 C   0  0  0  0  0  0  0  0  0  0  0  0
   22.3603  -16.6903  -17.0263 C   0  0  0  0  0  0  0  0  0  0  0  0
   23.5622  -16.0114  -17.0942 C   0  0  0  0  0  0  0  0  0  0  0  0
   24.6636  -16.4937  -16.4080 C   0  0  0  0  0  0  0  0  0  0  0  0
   24.5245  -17.6402  -15.6771 C   0  0  0  0  0  0  0  0  0  0  0  0
   23.3280  -18.3244  -15.6047 C   0  0  0  0  0  0  0  0  0  0  0  0
   22.2062  -22.2889  -14.6324 C   0  0  0  0  0  0  0  0  0  0  0  0
   21.3317  -22.4482  -13.5529 O   0  0  0  0  0  0  0  0  0  0  0  0
   21.7646  -22.6118  -15.7660 O   0  0  0  0  0  0  0  0  0  0  0  0
  1  2  1  0
  3  2  1  0
  4  3  1  0
  5  4  1  0
  5  6  1  6
  7  8  2  0
  7  5  1  0
  9  7  1  0
 10  9  1  0
 10 11  1  1
 12 11  1  0
 13 12  2  0
 14 13  1  0
 15 14  1  0
 15 16  2  0
 16 12  1  0
 17 19  1  0
 17 10  1  0
 18 17  2  0
 20 19  1  0
 20 31  1  0
 20 21  1  6
 22 30  1  0
 22 21  1  0
 23 22  2  0
 24 23  1  0
 24 25  1  0
 25 30  2  0
 26 25  1  0
 26 27  2  0
 27 28  1  0
 28 29  2  0
 30 29  1  0
 31 32  1  0
 33 31  2  0
M  END
$$$$
