MHW.pdb
     RDKit          3D

 33 35  0  0  1  0  0  0  0  0999 V2000
   32.8969  -23.2927  -12.8343 C   0  0  0  0  0  0  0  0  0  0  0  0
   32.7749  -24.3761  -14.2887 S   0  0  0  0  0  0  0  0  0  0  0  0
   31.3805  -23.8271  -15.3583 C   0  0  0  0  0  0  0  0  0  0  0  0
   30.5636  -22.8497  -14.5948 C   0  0  0  0  0  0  0  0  0  0  0  0
   29.3608  -22.3000  -15.2887 C   0  0  2  0  0  0  0  0  0  0  0  0
   29.8213  -21.5289  -16.4684 N   0  0  0  0  0  0  0  0  0  0  0  0
   28.5351  -21.3789  -14.4895 C   0  0  0  0  0  0  0  0  0  0  0  0
   28.8785  -20.1517  -14.3871 O   0  0  0  0  0  0  0  0  0  0  0  0
   27.3654  -21.7402  -13.8110 N   0  0  0  0  0  0  0  0  0  0  0  0
   26.5960  -20.7801  -12.9969 C   0  0  1  0  0  0  0  0  0  0  0  0
   25.2622  -20.6961  -13.7001 C   0  0  0  0  0  0  0  0  0  0  0  0
   25.1851  -19.7914  -14.8334 C   0  0  0  0  0  0  0  0  0  0  0  0
   26.1975  -18.9723  -15.2765 C   0  0  0  0  0  0  0  0  0  0  0  0
   25.7175  -18.3078  -16.3344 N   0  0  0  0  0  0  0  0  0  0  0  0
   24.4577  -18.6911  -16.5487 C   0  0  0  0  0  0  0  0  0  0  0  0
   24.1415  -19.5899  -15.6360 N   0  0  0  0  0  0  0  0  0  0  0  0
   26.5617  -21.3236  -11.6415 C   0  0  0  0  0  0  0  0  0  0  0  0
   27.0533  -22.4754  -11.3751 O   0  0  0  0  0  0  0  0  0  0  0  0
   26.0037  -20.6458  -10.5316 N   0  0  0  0  0  0  0  0  0  0  0  0
   25.9113  -21.2969   -9.2033 C   0  0  1  0  0  0  0  0  0  0  0  0
   27.2802  -21.2673   -8.6080 C   0  0  0  0  0  0  0  0  0  0  0  0
   27.4659  -20.1116   -7.7186 C   0  0  0  0  0  0  0  0  0  0  0  0
   26.9538  -18.8425   -7.9245 C   0  0  0  0  0  0  0  0  0  0  0  0
   27.3395  -18.0188   -6.9440 N   0  0  0  0  0  0  0  0  0  0  0  0
   28.0941  -18.7357   -6.1041 C   0  0  0  0  0  0  0  0  0  0  0  0
   28.7364  -18.4074   -4.9251 C   0  0  0  0  0  0  0  0  0  0  0  0
   29.4578  -19.3414   -4.2059 C   0  0  0  0  0  0  0  0  0  0  0  0
   29.5479  -20.6437   -4.6670 C   0  0  0  0  0  0  0  0  0  0  0  0
   28.9129  -20.9668   -5.8334 C   0  0  0  0  0  0  0  0  0  0  0  0
   28.1911  -20.0398   -6.5578 C   0  0  0  0  0  0  0  0  0  0  0  0
   24.8103  -20.7905   -8.4184 C   0  0  0  0  0  0  0  0  0  0  0  0
   23.9990  -19.7321   -8.8392 O   0  0  0  0  0  0  0  0  0  0  0  0
   24.5398  -21.2947   -7.2972 O   0  0  0  0  0  0  0  0  0  0  0  0
  1  2  1  0
  3  2  1  0
  4  3  1  0
  5  4  1  0
  5  6  1  6
  7  8  2  0
  7  5  1  0
  9  7  1  0
 10  9  1  0
 10 11  1  6
 12 11  1  0
 13 12  2  0
 14 13  1  0
 15 14  1  0
 15 16  2  0
 16 12  1  0
 17 19  1  0
 17 10  1  0
 18 17  2  0
 20 19  1  0
 20 31  1  0
 20 21  1  1
 22 30  1  0
 22 21  1  0
 23 22  2  0
 24 23  1  0
 24 25  1  0
 25 30  2  0
 26 25  1  0
 26 27  2  0
 27 28  1  0
 28 29  2  0
 30 29  1  0
 31 32  1  0
 33 31  2  0
M  END
$$$$
