MHW.pdb
     RDKit          3D

 33 35  0  0  1  0  0  0  0  0999 V2000
   33.3811  -22.0195  -10.9896 C   0  0  0  0  0  0  0  0  0  0  0  0
   31.7057  -21.3865  -11.3003 S   0  0  0  0  0  0  0  0  0  0  0  0
   31.3396  -21.4538  -13.1034 C   0  0  0  0  0  0  0  0  0  0  0  0
   29.9579  -20.9537  -13.3179 C   0  0  0  0  0  0  0  0  0  0  0  0
   29.4600  -20.9540  -14.7260 C   0  0  2  0  0  0  0  0  0  0  0  0
   30.3416  -20.0710  -15.5270 N   0  0  0  0  0  0  0  0  0  0  0  0
   28.0893  -20.4485  -14.9125 C   0  0  0  0  0  0  0  0  0  0  0  0
   27.8948  -19.1940  -15.0624 O   0  0  0  0  0  0  0  0  0  0  0  0
   26.9412  -21.2485  -14.9441 N   0  0  0  0  0  0  0  0  0  0  0  0
   25.5846  -20.6791  -15.0533 C   0  0  1  0  0  0  0  0  0  0  0  0
   25.0867  -21.1827  -16.3871 C   0  0  0  0  0  0  0  0  0  0  0  0
   25.6418  -20.5438  -17.5672 C   0  0  0  0  0  0  0  0  0  0  0  0
   26.5291  -21.1175  -18.4478 C   0  0  0  0  0  0  0  0  0  0  0  0
   26.7870  -20.1982  -19.3855 N   0  0  0  0  0  0  0  0  0  0  0  0
   26.0927  -19.0932  -19.1081 C   0  0  0  0  0  0  0  0  0  0  0  0
   25.4012  -19.3093  -18.0055 N   0  0  0  0  0  0  0  0  0  0  0  0
   24.8448  -21.1496  -13.8850 C   0  0  0  0  0  0  0  0  0  0  0  0
   24.8753  -22.3796  -13.5306 O   0  0  0  0  0  0  0  0  0  0  0  0
   24.0550  -20.3142  -13.0600 N   0  0  0  0  0  0  0  0  0  0  0  0
   23.2665  -20.8718  -11.9355 C   0  0  1  0  0  0  0  0  0  0  0  0
   24.2331  -21.5454  -11.0184 C   0  0  0  0  0  0  0  0  0  0  0  0
   25.0788  -20.5766  -10.3062 C   0  0  0  0  0  0  0  0  0  0  0  0
   25.6817  -19.4641  -10.8667 C   0  0  0  0  0  0  0  0  0  0  0  0
   26.4092  -18.8161   -9.9506 N   0  0  0  0  0  0  0  0  0  0  0  0
   26.2862  -19.4919   -8.8030 C   0  0  0  0  0  0  0  0  0  0  0  0
   26.8009  -19.2733   -7.5389 C   0  0  0  0  0  0  0  0  0  0  0  0
   26.5140  -20.1157   -6.4816 C   0  0  0  0  0  0  0  0  0  0  0  0
   25.6910  -21.2112   -6.6795 C   0  0  0  0  0  0  0  0  0  0  0  0
   25.1834  -21.4267   -7.9301 C   0  0  0  0  0  0  0  0  0  0  0  0
   25.4656  -20.5905   -8.9914 C   0  0  0  0  0  0  0  0  0  0  0  0
   22.3480  -19.9079  -11.3771 C   0  0  0  0  0  0  0  0  0  0  0  0
   21.2989  -20.2623  -10.5231 O   0  0  0  0  0  0  0  0  0  0  0  0
   22.4606  -18.6846  -11.6516 O   0  0  0  0  0  0  0  0  0  0  0  0
  1  2  1  0
  3  2  1  0
  4  3  1  0
  5  4  1  0
  5  6  1  6
  7  8  2  0
  7  5  1  0
  9  7  1  0
 10  9  1  0
 10 11  1  6
 12 11  1  0
 13 12  2  0
 14 13  1  0
 15 14  1  0
 15 16  2  0
 16 12  1  0
 17 19  1  0
 17 10  1  0
 18 17  2  0
 20 19  1  0
 20 31  1  0
 20 21  1  1
 22 30  1  0
 22 21  1  0
 23 22  2  0
 24 23  1  0
 24 25  1  0
 25 30  2  0
 26 25  1  0
 26 27  2  0
 27 28  1  0
 28 29  2  0
 30 29  1  0
 31 32  1  0
 33 31  2  0
M  END
$$$$
