MHW.pdb
     RDKit          3D

 33 35  0  0  1  0  0  0  0  0999 V2000
   30.0750  -21.5340  -11.5143 C   0  0  0  0  0  0  0  0  0  0  0  0
   31.4007  -21.4901  -12.7572 S   0  0  0  0  0  0  0  0  0  0  0  0
   30.6688  -21.4240  -14.4453 C   0  0  0  0  0  0  0  0  0  0  0  0
   29.3339  -20.7804  -14.3503 C   0  0  0  0  0  0  0  0  0  0  0  0
   28.5904  -20.5949  -15.6322 C   0  0  2  0  0  0  0  0  0  0  0  0
   29.3990  -19.7163  -16.5112 N   0  0  0  0  0  0  0  0  0  0  0  0
   27.2695  -19.9551  -15.5107 C   0  0  0  0  0  0  0  0  0  0  0  0
   27.1681  -18.6877  -15.6434 O   0  0  0  0  0  0  0  0  0  0  0  0
   26.0733  -20.6362  -15.2567 N   0  0  0  0  0  0  0  0  0  0  0  0
   24.7877  -19.9349  -15.0786 C   0  0  1  0  0  0  0  0  0  0  0  0
   23.9240  -20.4728  -16.1945 C   0  0  0  0  0  0  0  0  0  0  0  0
   24.3181  -20.1161  -17.5459 C   0  0  0  0  0  0  0  0  0  0  0  0
   24.8645  -20.9712  -18.4745 C   0  0  0  0  0  0  0  0  0  0  0  0
   25.0809  -20.2489  -19.5801 N   0  0  0  0  0  0  0  0  0  0  0  0
   24.6881  -18.9933  -19.3583 C   0  0  0  0  0  0  0  0  0  0  0  0
   24.2271  -18.9197  -18.1242 N   0  0  0  0  0  0  0  0  0  0  0  0
   24.3340  -20.2432  -13.7248 C   0  0  0  0  0  0  0  0  0  0  0  0
   23.1778  -19.8791  -13.3127 O   0  0  0  0  0  0  0  0  0  0  0  0
   25.1049  -20.9551  -12.7754 N   0  0  0  0  0  0  0  0  0  0  0  0
   24.6305  -21.1348  -11.3827 C   0  0  1  0  0  0  0  0  0  0  0  0
   25.8444  -21.2498  -10.5211 C   0  0  0  0  0  0  0  0  0  0  0  0
   25.5600  -20.8932   -9.1235 C   0  0  0  0  0  0  0  0  0  0  0  0
   24.3980  -21.1913   -8.4335 C   0  0  0  0  0  0  0  0  0  0  0  0
   24.4501  -20.6921   -7.1939 N   0  0  0  0  0  0  0  0  0  0  0  0
   25.6301  -20.0750   -7.0693 C   0  0  0  0  0  0  0  0  0  0  0  0
   26.2188  -19.4052   -6.0133 C   0  0  0  0  0  0  0  0  0  0  0  0
   27.4820  -18.8541   -6.1157 C   0  0  0  0  0  0  0  0  0  0  0  0
   28.1876  -18.9682   -7.3014 C   0  0  0  0  0  0  0  0  0  0  0  0
   27.6040  -19.6300   -8.3451 C   0  0  0  0  0  0  0  0  0  0  0  0
   26.3427  -20.1827   -8.2511 C   0  0  0  0  0  0  0  0  0  0  0  0
   23.6187  -20.1715  -11.0182 C   0  0  0  0  0  0  0  0  0  0  0  0
   23.6329  -18.8466  -11.4652 O   0  0  0  0  0  0  0  0  0  0  0  0
   22.6675  -20.4994  -10.2617 O   0  0  0  0  0  0  0  0  0  0  0  0
  1  2  1  0
  3  2  1  0
  4  3  1  0
  5  4  1  0
  5  6  1  6
  7  8  2  0
  7  5  1  0
  9  7  1  0
 10  9  1  0
 10 11  1  6
 12 11  1  0
 13 12  2  0
 14 13  1  0
 15 14  1  0
 15 16  2  0
 16 12  1  0
 17 19  1  0
 17 10  1  0
 18 17  2  0
 20 19  1  0
 20 31  1  0
 20 21  1  1
 22 30  1  0
 22 21  1  0
 23 22  2  0
 24 23  1  0
 24 25  1  0
 25 30  2  0
 26 25  1  0
 26 27  2  0
 27 28  1  0
 28 29  2  0
 30 29  1  0
 31 32  1  0
 33 31  2  0
M  END
$$$$
