MVM.pdb
     RDKit          3D

 24 23  0  0  1  0  0  0  0  0999 V2000
   27.7177  -18.1908   -6.5248 C   0  0  0  0  0  0  0  0  0  0  0  0
   27.6947  -19.9023   -5.9569 S   0  0  0  0  0  0  0  0  0  0  0  0
   27.1537  -20.9640   -7.3029 C   0  0  0  0  0  0  0  0  0  0  0  0
   26.5742  -20.0665   -8.3956 C   0  0  0  0  0  0  0  0  0  0  0  0
   26.1835  -21.0086   -9.5310 C   0  0  2  0  0  0  0  0  0  0  0  0
   27.2583  -21.9119   -9.8523 N   0  0  0  0  0  0  0  0  0  0  0  0
   25.8118  -20.2611  -10.7618 C   0  0  0  0  0  0  0  0  0  0  0  0
   24.8626  -19.4048  -10.7410 O   0  0  0  0  0  0  0  0  0  0  0  0
   27.6429  -21.0629  -14.5576 C   0  0  0  0  0  0  0  0  0  0  0  0
   27.2350  -19.7096  -14.1020 C   0  0  1  0  0  0  0  0  0  0  0  0
   26.8971  -18.8451  -15.3258 C   0  0  0  0  0  0  0  0  0  0  0  0
   26.0423  -19.6545  -13.1968 C   0  0  2  0  0  0  0  0  0  0  0  0
   26.4534  -20.4311  -12.0031 N   0  0  0  0  0  0  0  0  0  0  0  0
   24.8025  -20.2165  -13.7487 C   0  0  0  0  0  0  0  0  0  0  0  0
   24.6568  -21.4907  -13.8854 O   0  0  0  0  0  0  0  0  0  0  0  0
   19.2529  -18.9039  -11.5318 C   0  0  0  0  0  0  0  0  0  0  0  0
   18.6509  -19.4843  -13.1219 S   0  0  0  0  0  0  0  0  0  0  0  0
   20.0222  -20.0869  -14.1747 C   0  0  0  0  0  0  0  0  0  0  0  0
   21.3327  -19.5251  -13.7080 C   0  0  0  0  0  0  0  0  0  0  0  0
   22.4466  -19.9880  -14.5971 C   0  0  2  0  0  0  0  0  0  0  0  0
   23.7199  -19.4035  -14.1492 N   0  0  0  0  0  0  0  0  0  0  0  0
   22.2288  -19.5312  -15.9702 C   0  0  0  0  0  0  0  0  0  0  0  0
   22.6714  -18.4399  -16.3891 O   0  0  0  0  0  0  0  0  0  0  0  0
   21.5156  -20.2883  -16.8886 O   0  0  0  0  0  0  0  0  0  0  0  0
  1  2  1  0
  3  2  1  0
  4  3  1  0
  5  4  1  0
  5  6  1  6
  7  8  2  0
  7  5  1  0
 10  9  1  6
 10 12  1  0
 10 11  1  0
 12 13  1  1
 13  7  1  0
 14 15  2  0
 14 12  1  0
 16 17  1  0
 18 17  1  0
 19 18  1  0
 20 19  1  1
 20 21  1  0
 21 14  1  0
 22 20  1  0
 23 22  2  0
 24 22  1  0
M  END
$$$$
