MVM.pdb
     RDKit          3D

 24 23  0  0  1  0  0  0  0  0999 V2000
   20.1266  -18.4165  -11.2965 C   0  0  0  0  0  0  0  0  0  0  0  0
   19.3883  -19.0990  -12.7936 S   0  0  0  0  0  0  0  0  0  0  0  0
   20.6591  -19.9370  -13.7498 C   0  0  0  0  0  0  0  0  0  0  0  0
   21.6298  -20.5837  -12.7625 C   0  0  0  0  0  0  0  0  0  0  0  0
   22.7605  -21.1510  -13.6161 C   0  0  2  0  0  0  0  0  0  0  0  0
   22.3125  -22.2782  -14.3927 N   0  0  0  0  0  0  0  0  0  0  0  0
   23.9150  -21.5812  -12.7832 C   0  0  0  0  0  0  0  0  0  0  0  0
   23.8971  -22.7078  -12.1789 O   0  0  0  0  0  0  0  0  0  0  0  0
   27.6628  -19.4269  -12.5924 C   0  0  0  0  0  0  0  0  0  0  0  0
   27.4215  -20.8798  -12.4020 C   0  0  1  0  0  0  0  0  0  0  0  0
   28.5775  -21.4817  -11.5891 C   0  0  0  0  0  0  0  0  0  0  0  0
   26.1581  -21.2459  -11.6846 C   0  0  2  0  0  0  0  0  0  0  0  0
   25.0779  -20.8093  -12.6010 N   0  0  0  0  0  0  0  0  0  0  0  0
   25.9729  -20.6193  -10.3691 C   0  0  0  0  0  0  0  0  0  0  0  0
   25.2408  -19.5660  -10.2348 O   0  0  0  0  0  0  0  0  0  0  0  0
   29.1203  -22.0323   -4.1542 C   0  0  0  0  0  0  0  0  0  0  0  0
   29.2723  -20.3830   -4.8500 S   0  0  0  0  0  0  0  0  0  0  0  0
   27.8032  -19.9430   -5.8503 C   0  0  0  0  0  0  0  0  0  0  0  0
   27.7572  -20.7590   -7.1085 C   0  0  0  0  0  0  0  0  0  0  0  0
   26.5717  -20.3725   -7.9394 C   0  0  2  0  0  0  0  0  0  0  0  0
   26.5749  -21.1317   -9.1992 N   0  0  0  0  0  0  0  0  0  0  0  0
   26.6378  -18.9550   -8.2972 C   0  0  0  0  0  0  0  0  0  0  0  0
   27.3491  -18.5355   -9.2355 O   0  0  0  0  0  0  0  0  0  0  0  0
   25.9103  -17.9928   -7.6116 O   0  0  0  0  0  0  0  0  0  0  0  0
  1  2  1  0
  3  2  1  0
  4  3  1  0
  5  4  1  0
  5  6  1  1
  7  8  2  0
  7  5  1  0
 10  9  1  1
 10 12  1  0
 10 11  1  0
 12 13  1  6
 13  7  1  0
 14 15  2  0
 14 12  1  0
 16 17  1  0
 18 17  1  0
 19 18  1  0
 20 19  1  1
 20 21  1  0
 21 14  1  0
 22 20  1  0
 23 22  2  0
 24 22  1  0
M  END
$$$$
