MVM.pdb
     RDKit          3D

 24 23  0  0  1  0  0  0  0  0999 V2000
   19.8896   -9.3529  -22.3007 C   0  0  0  0  0  0  0  0  0  0  0  0
   18.7020  -10.7089  -22.2442 S   0  0  0  0  0  0  0  0  0  0  0  0
   19.1095  -11.7940  -20.8701 C   0  0  0  0  0  0  0  0  0  0  0  0
   19.3232  -10.9178  -19.6365 C   0  0  0  0  0  0  0  0  0  0  0  0
   19.7137  -11.8792  -18.5174 C   0  0  2  0  0  0  0  0  0  0  0  0
   18.6605  -12.8248  -18.2511 N   0  0  0  0  0  0  0  0  0  0  0  0
   20.0280  -11.1560  -17.2565 C   0  0  0  0  0  0  0  0  0  0  0  0
   19.1047  -10.8854  -16.4144 O   0  0  0  0  0  0  0  0  0  0  0  0
   23.8804  -10.9878  -15.7181 C   0  0  0  0  0  0  0  0  0  0  0  0
   22.6328  -10.7483  -14.9492 C   0  0  1  0  0  0  0  0  0  0  0  0
   22.9703   -9.9720  -13.6675 C   0  0  0  0  0  0  0  0  0  0  0  0
   21.5676   -9.9661  -15.6551 C   0  0  2  0  0  0  0  0  0  0  0  0
   21.3213  -10.7275  -16.9028 N   0  0  0  0  0  0  0  0  0  0  0  0
   21.9155   -8.5775  -15.9846 C   0  0  0  0  0  0  0  0  0  0  0  0
   22.6347   -8.3031  -17.0195 O   0  0  0  0  0  0  0  0  0  0  0  0
   20.4088   -3.9338  -19.5750 C   0  0  0  0  0  0  0  0  0  0  0  0
   20.0548   -3.3349  -17.9186 S   0  0  0  0  0  0  0  0  0  0  0  0
   21.2126   -4.0451  -16.6909 C   0  0  0  0  0  0  0  0  0  0  0  0
   20.8079   -5.4442  -16.3309 C   0  0  0  0  0  0  0  0  0  0  0  0
   21.8801   -6.1066  -15.5203 C   0  0  2  0  0  0  0  0  0  0  0  0
   21.4842   -7.4863  -15.1993 N   0  0  0  0  0  0  0  0  0  0  0  0
   22.0631   -5.4095  -14.2467 C   0  0  0  0  0  0  0  0  0  0  0  0
   21.5411   -5.8114  -13.1844 O   0  0  0  0  0  0  0  0  0  0  0  0
   22.8307   -4.2580  -14.1466 O   0  0  0  0  0  0  0  0  0  0  0  0
  1  2  1  0
  3  2  1  0
  4  3  1  0
  5  4  1  0
  5  6  1  1
  7  8  2  0
  7  5  1  0
 10  9  1  6
 10 12  1  0
 10 11  1  0
 12 13  1  6
 13  7  1  0
 14 15  2  0
 14 12  1  0
 16 17  1  0
 18 17  1  0
 19 18  1  0
 20 19  1  6
 20 21  1  0
 21 14  1  0
 22 20  1  0
 23 22  2  0
 24 22  1  0
M  END
$$$$
