MVM.pdb
     RDKit          3D

 24 23  0  0  1  0  0  0  0  0999 V2000
   27.3957  -27.7672  -15.9678 C   0  0  0  0  0  0  0  0  0  0  0  0
   27.3464  -27.6770  -17.7682 S   0  0  0  0  0  0  0  0  0  0  0  0
   27.8398  -26.0292  -18.2907 C   0  0  0  0  0  0  0  0  0  0  0  0
   28.1003  -25.2034  -17.0316 C   0  0  0  0  0  0  0  0  0  0  0  0
   28.5811  -23.8432  -17.5295 C   0  0  2  0  0  0  0  0  0  0  0  0
   29.9330  -23.9159  -18.0209 N   0  0  0  0  0  0  0  0  0  0  0  0
   28.5237  -22.8140  -16.4575 C   0  0  0  0  0  0  0  0  0  0  0  0
   29.5069  -22.6542  -15.6560 O   0  0  0  0  0  0  0  0  0  0  0  0
   28.3374  -19.2520  -16.8676 C   0  0  0  0  0  0  0  0  0  0  0  0
   27.2435  -19.6381  -15.9405 C   0  0  1  0  0  0  0  0  0  0  0  0
   25.9373  -19.7877  -16.7348 C   0  0  0  0  0  0  0  0  0  0  0  0
   27.4395  -20.9223  -15.1940 C   0  0  2  0  0  0  0  0  0  0  0  0
   27.4214  -21.9642  -16.2482 N   0  0  0  0  0  0  0  0  0  0  0  0
   26.4206  -21.2272  -14.1808 C   0  0  0  0  0  0  0  0  0  0  0  0
   25.4758  -22.0705  -14.4251 O   0  0  0  0  0  0  0  0  0  0  0  0
   26.9459  -19.9485   -7.6938 C   0  0  0  0  0  0  0  0  0  0  0  0
   25.1656  -19.9328   -7.9340 S   0  0  0  0  0  0  0  0  0  0  0  0
   24.7055  -20.6393   -9.5592 C   0  0  0  0  0  0  0  0  0  0  0  0
   25.7588  -20.3370  -10.5839 C   0  0  0  0  0  0  0  0  0  0  0  0
   25.3872  -20.9333  -11.9074 C   0  0  2  0  0  0  0  0  0  0  0  0
   26.4242  -20.6247  -12.9039 N   0  0  0  0  0  0  0  0  0  0  0  0
   24.1384  -20.3501  -12.3990 C   0  0  0  0  0  0  0  0  0  0  0  0
   24.1167  -19.3341  -13.1269 O   0  0  0  0  0  0  0  0  0  0  0  0
   22.9022  -20.8955  -12.0833 O   0  0  0  0  0  0  0  0  0  0  0  0
  1  2  1  0
  3  2  1  0
  4  3  1  0
  5  4  1  0
  5  6  1  1
  7  8  2  0
  7  5  1  0
 10  9  1  6
 10 12  1  0
 10 11  1  0
 12 13  1  6
 13  7  1  0
 14 15  2  0
 14 12  1  0
 16 17  1  0
 18 17  1  0
 19 18  1  0
 20 19  1  1
 20 21  1  0
 21 14  1  0
 22 20  1  0
 23 22  2  0
 24 22  1  0
M  END
$$$$
