MVM.pdb
     RDKit          3D

 24 23  0  0  1  0  0  0  0  0999 V2000
   17.1631  -24.3842  -15.9593 C   0  0  0  0  0  0  0  0  0  0  0  0
   17.6539  -23.1246  -17.1528 S   0  0  0  0  0  0  0  0  0  0  0  0
   19.0623  -22.2142  -16.5054 C   0  0  0  0  0  0  0  0  0  0  0  0
   19.3575  -22.7529  -15.1062 C   0  0  0  0  0  0  0  0  0  0  0  0
   20.4887  -21.8825  -14.5655 C   0  0  2  0  0  0  0  0  0  0  0  0
   21.7110  -22.1041  -15.2943 N   0  0  0  0  0  0  0  0  0  0  0  0
   20.7443  -22.1465  -13.1245 C   0  0  0  0  0  0  0  0  0  0  0  0
   21.5376  -23.0827  -12.7654 O   0  0  0  0  0  0  0  0  0  0  0  0
   21.8812  -19.7155  -10.3246 C   0  0  0  0  0  0  0  0  0  0  0  0
   20.6155  -20.4193   -9.9959 C   0  0  1  0  0  0  0  0  0  0  0  0
   19.4263  -19.5384  -10.4070 C   0  0  0  0  0  0  0  0  0  0  0  0
   20.4130  -21.7478  -10.6583 C   0  0  2  0  0  0  0  0  0  0  0  0
   20.1541  -21.4121  -12.0787 N   0  0  0  0  0  0  0  0  0  0  0  0
   19.3045  -22.5550  -10.1318 C   0  0  0  0  0  0  0  0  0  0  0  0
   18.2234  -22.7208  -10.8154 O   0  0  0  0  0  0  0  0  0  0  0  0
   16.6792  -27.3428   -4.3419 C   0  0  0  0  0  0  0  0  0  0  0  0
   18.0167  -26.3393   -4.9991 S   0  0  0  0  0  0  0  0  0  0  0  0
   17.5261  -25.5111   -6.5565 C   0  0  0  0  0  0  0  0  0  0  0  0
   18.6333  -24.6321   -7.0588 C   0  0  0  0  0  0  0  0  0  0  0  0
   18.2697  -24.0400   -8.3864 C   0  0  2  0  0  0  0  0  0  0  0  0
   19.3649  -23.1855   -8.8700 N   0  0  0  0  0  0  0  0  0  0  0  0
   17.0883  -23.1858   -8.2595 C   0  0  0  0  0  0  0  0  0  0  0  0
   15.9275  -23.6249   -8.4084 O   0  0  0  0  0  0  0  0  0  0  0  0
   17.1913  -21.8339   -7.9646 O   0  0  0  0  0  0  0  0  0  0  0  0
  1  2  1  0
  3  2  1  0
  4  3  1  0
  5  4  1  0
  5  6  1  6
  7  8  2  0
  7  5  1  0
 10  9  1  6
 10 12  1  0
 10 11  1  0
 12 13  1  6
 13  7  1  0
 14 15  2  0
 14 12  1  0
 16 17  1  0
 18 17  1  0
 19 18  1  0
 20 19  1  1
 20 21  1  0
 21 14  1  0
 22 20  1  0
 23 22  2  0
 24 22  1  0
M  END
$$$$
