MVM.pdb
     RDKit          3D

 24 23  0  0  1  0  0  0  0  0999 V2000
   31.5838  -22.1116  -10.5760 C   0  0  0  0  0  0  0  0  0  0  0  0
   32.0344  -22.2052  -12.3197 S   0  0  0  0  0  0  0  0  0  0  0  0
   30.5755  -21.8981  -13.3241 C   0  0  0  0  0  0  0  0  0  0  0  0
   29.9490  -20.5903  -12.8420 C   0  0  0  0  0  0  0  0  0  0  0  0
   28.7591  -20.3447  -13.7655 C   0  0  2  0  0  0  0  0  0  0  0  0
   29.0645  -19.3429  -14.7543 N   0  0  0  0  0  0  0  0  0  0  0  0
   27.5564  -19.9079  -13.0076 C   0  0  0  0  0  0  0  0  0  0  0  0
   27.3528  -18.6684  -12.7687 O   0  0  0  0  0  0  0  0  0  0  0  0
   23.9768  -20.1094  -13.5336 C   0  0  0  0  0  0  0  0  0  0  0  0
   24.2483  -20.7275  -12.2109 C   0  0  1  0  0  0  0  0  0  0  0  0
   24.2760  -22.2556  -12.3634 C   0  0  0  0  0  0  0  0  0  0  0  0
   25.5402  -20.3393  -11.5586 C   0  0  2  0  0  0  0  0  0  0  0  0
   26.5812  -20.7933  -12.5111 N   0  0  0  0  0  0  0  0  0  0  0  0
   25.7861  -20.9337  -10.2381 C   0  0  0  0  0  0  0  0  0  0  0  0
   25.8298  -22.2138  -10.0862 O   0  0  0  0  0  0  0  0  0  0  0  0
   29.1067  -18.4214   -5.2822 C   0  0  0  0  0  0  0  0  0  0  0  0
   27.8874  -19.3439   -4.3389 S   0  0  0  0  0  0  0  0  0  0  0  0
   26.8414  -20.3766   -5.4304 C   0  0  0  0  0  0  0  0  0  0  0  0
   26.8215  -19.8203   -6.8237 C   0  0  0  0  0  0  0  0  0  0  0  0
   26.1082  -20.7570   -7.7507 C   0  0  2  0  0  0  0  0  0  0  0  0
   25.9881  -20.1466   -9.0836 N   0  0  0  0  0  0  0  0  0  0  0  0
   24.7478  -21.0105   -7.2750 C   0  0  0  0  0  0  0  0  0  0  0  0
   23.7525  -20.4265   -7.7557 O   0  0  0  0  0  0  0  0  0  0  0  0
   24.4852  -21.9182   -6.2590 O   0  0  0  0  0  0  0  0  0  0  0  0
  1  2  1  0
  3  2  1  0
  4  3  1  0
  5  4  1  0
  5  6  1  6
  7  8  2  0
  7  5  1  0
 10  9  1  6
 10 12  1  0
 10 11  1  0
 12 13  1  6
 13  7  1  0
 14 15  2  0
 14 12  1  0
 16 17  1  0
 18 17  1  0
 19 18  1  0
 20 19  1  1
 20 21  1  0
 21 14  1  0
 22 20  1  0
 23 22  2  0
 24 22  1  0
M  END
$$$$
