MVM.pdb
     RDKit          3D

 24 23  0  0  1  0  0  0  0  0999 V2000
   17.5520  -19.3420  -13.0116 C   0  0  0  0  0  0  0  0  0  0  0  0
   18.4451  -17.8162  -13.3672 S   0  0  0  0  0  0  0  0  0  0  0  0
   20.1288  -18.2170  -13.8532 C   0  0  0  0  0  0  0  0  0  0  0  0
   20.6357  -19.3067  -12.9095 C   0  0  0  0  0  0  0  0  0  0  0  0
   22.0858  -19.5545  -13.3158 C   0  0  2  0  0  0  0  0  0  0  0  0
   22.1649  -20.1785  -14.6114 N   0  0  0  0  0  0  0  0  0  0  0  0
   22.7919  -20.4183  -12.3325 C   0  0  0  0  0  0  0  0  0  0  0  0
   22.3061  -21.5521  -11.9959 O   0  0  0  0  0  0  0  0  0  0  0  0
   24.2000  -22.7230  -12.6638 C   0  0  0  0  0  0  0  0  0  0  0  0
   25.2378  -22.0717  -11.8248 C   0  0  1  0  0  0  0  0  0  0  0  0
   26.2629  -21.3796  -12.7356 C   0  0  0  0  0  0  0  0  0  0  0  0
   24.7470  -21.0310  -10.8651 C   0  0  2  0  0  0  0  0  0  0  0  0
   24.0082  -20.0684  -11.7165 N   0  0  0  0  0  0  0  0  0  0  0  0
   25.7900  -20.3237  -10.1106 C   0  0  0  0  0  0  0  0  0  0  0  0
   26.1960  -19.1559  -10.4781 O   0  0  0  0  0  0  0  0  0  0  0  0
   27.9557  -18.4582   -3.8174 C   0  0  0  0  0  0  0  0  0  0  0  0
   28.7460  -19.9437   -4.4470 S   0  0  0  0  0  0  0  0  0  0  0  0
   28.8445  -19.9233   -6.2751 C   0  0  0  0  0  0  0  0  0  0  0  0
   27.5549  -20.3960   -6.8789 C   0  0  0  0  0  0  0  0  0  0  0  0
   27.6068  -20.2894   -8.3726 C   0  0  2  0  0  0  0  0  0  0  0  0
   26.3913  -20.8752   -8.9584 N   0  0  0  0  0  0  0  0  0  0  0  0
   28.7413  -21.0480   -8.9007 C   0  0  0  0  0  0  0  0  0  0  0  0
   28.6368  -22.2391   -9.2649 O   0  0  0  0  0  0  0  0  0  0  0  0
   30.0028  -20.4841   -9.0278 O   0  0  0  0  0  0  0  0  0  0  0  0
  1  2  1  0
  3  2  1  0
  4  3  1  0
  5  4  1  0
  5  6  1  6
  7  8  2  0
  7  5  1  0
 10  9  1  6
 10 12  1  0
 10 11  1  0
 12 13  1  6
 13  7  1  0
 14 15  2  0
 14 12  1  0
 16 17  1  0
 18 17  1  0
 19 18  1  0
 20 19  1  1
 20 21  1  0
 21 14  1  0
 22 20  1  0
 23 22  2  0
 24 22  1  0
M  END
$$$$
