MVM.pdb
     RDKit          3D

 24 23  0  0  1  0  0  0  0  0999 V2000
   20.4616  -20.7391  -11.3404 C   0  0  0  0  0  0  0  0  0  0  0  0
   19.2768  -21.2960  -10.1001 S   0  0  0  0  0  0  0  0  0  0  0  0
   19.4055  -23.0799   -9.9193 C   0  0  0  0  0  0  0  0  0  0  0  0
   18.4639  -23.4995   -8.7912 C   0  0  0  0  0  0  0  0  0  0  0  0
   18.6555  -25.0061   -8.6407 C   0  0  2  0  0  0  0  0  0  0  0  0
   18.5117  -25.6790   -9.9060 N   0  0  0  0  0  0  0  0  0  0  0  0
   17.6803  -25.5909   -7.6822 C   0  0  0  0  0  0  0  0  0  0  0  0
   16.8556  -26.4913   -8.0614 O   0  0  0  0  0  0  0  0  0  0  0  0
   17.2669  -27.9270   -6.6930 C   0  0  0  0  0  0  0  0  0  0  0  0
   17.0199  -27.2868   -5.3760 C   0  0  1  0  0  0  0  0  0  0  0  0
   18.3008  -27.3582   -4.5314 C   0  0  0  0  0  0  0  0  0  0  0  0
   16.6123  -25.8455   -5.4139 C   0  0  2  0  0  0  0  0  0  0  0  0
   17.5916  -25.2128   -6.3293 N   0  0  0  0  0  0  0  0  0  0  0  0
   16.6249  -25.1501   -4.1202 C   0  0  0  0  0  0  0  0  0  0  0  0
   17.7364  -24.7972   -3.5691 O   0  0  0  0  0  0  0  0  0  0  0  0
   11.2312  -22.5201   -0.4776 C   0  0  0  0  0  0  0  0  0  0  0  0
   12.5547  -21.3738   -0.8802 S   0  0  0  0  0  0  0  0  0  0  0  0
   14.1634  -22.2361   -1.0236 C   0  0  0  0  0  0  0  0  0  0  0  0
   14.1296  -23.2347   -2.1428 C   0  0  0  0  0  0  0  0  0  0  0  0
   15.4493  -23.9349   -2.2590 C   0  0  2  0  0  0  0  0  0  0  0  0
   15.4382  -24.8329   -3.4240 N   0  0  0  0  0  0  0  0  0  0  0  0
   15.6916  -24.7691   -1.0814 C   0  0  0  0  0  0  0  0  0  0  0  0
   15.4356  -25.9925   -1.0656 O   0  0  0  0  0  0  0  0  0  0  0  0
   16.2221  -24.2461    0.0891 O   0  0  0  0  0  0  0  0  0  0  0  0
  1  2  1  0
  3  2  1  0
  4  3  1  0
  5  4  1  0
  5  6  1  6
  7  8  2  0
  7  5  1  0
 10  9  1  6
 10 12  1  0
 10 11  1  0
 12 13  1  6
 13  7  1  0
 14 15  2  0
 14 12  1  0
 16 17  1  0
 18 17  1  0
 19 18  1  0
 20 19  1  1
 20 21  1  0
 21 14  1  0
 22 20  1  0
 23 22  2  0
 24 22  1  0
M  END
$$$$
