MVM.pdb
     RDKit          3D

 24 23  0  0  1  0  0  0  0  0999 V2000
   31.1985  -23.2031  -14.2599 C   0  0  0  0  0  0  0  0  0  0  0  0
   30.7263  -23.4663  -15.9803 S   0  0  0  0  0  0  0  0  0  0  0  0
   29.0858  -22.7839  -16.2535 C   0  0  0  0  0  0  0  0  0  0  0  0
   28.7508  -21.8925  -15.0585 C   0  0  0  0  0  0  0  0  0  0  0  0
   27.3931  -21.2740  -15.3803 C   0  0  2  0  0  0  0  0  0  0  0  0
   27.4778  -20.3923  -16.5160 N   0  0  0  0  0  0  0  0  0  0  0  0
   26.8517  -20.5068  -14.2270 C   0  0  0  0  0  0  0  0  0  0  0  0
   27.1505  -19.2739  -14.0681 O   0  0  0  0  0  0  0  0  0  0  0  0
   23.6450  -19.4927  -13.7202 C   0  0  0  0  0  0  0  0  0  0  0  0
   24.0046  -20.1212  -12.4237 C   0  0  1  0  0  0  0  0  0  0  0  0
   23.4330  -21.5462  -12.3772 C   0  0  0  0  0  0  0  0  0  0  0  0
   25.4704  -20.2387  -12.1364 C   0  0  2  0  0  0  0  0  0  0  0  0
   25.9972  -21.0580  -13.2537 N   0  0  0  0  0  0  0  0  0  0  0  0
   25.8157  -20.8699  -10.8557 C   0  0  0  0  0  0  0  0  0  0  0  0
   25.6818  -22.1416  -10.6872 O   0  0  0  0  0  0  0  0  0  0  0  0
   29.1842  -18.1567   -5.8660 C   0  0  0  0  0  0  0  0  0  0  0  0
   28.0200  -19.1896   -4.9687 S   0  0  0  0  0  0  0  0  0  0  0  0
   27.1296  -20.3251   -6.0955 C   0  0  0  0  0  0  0  0  0  0  0  0
   27.0854  -19.7627   -7.4857 C   0  0  0  0  0  0  0  0  0  0  0  0
   26.4025  -20.7191   -8.4154 C   0  0  2  0  0  0  0  0  0  0  0  0
   26.3083  -20.1290   -9.7595 N   0  0  0  0  0  0  0  0  0  0  0  0
   25.0336  -20.9784   -7.9680 C   0  0  0  0  0  0  0  0  0  0  0  0
   24.0701  -20.2626   -8.3168 O   0  0  0  0  0  0  0  0  0  0  0  0
   24.7272  -22.0392   -7.1277 O   0  0  0  0  0  0  0  0  0  0  0  0
  1  2  1  0
  3  2  1  0
  4  3  1  0
  5  4  1  0
  5  6  1  6
  7  8  2  0
  7  5  1  0
 10  9  1  6
 10 12  1  0
 10 11  1  0
 12 13  1  6
 13  7  1  0
 14 15  2  0
 14 12  1  0
 16 17  1  0
 18 17  1  0
 19 18  1  0
 20 19  1  1
 20 21  1  0
 21 14  1  0
 22 20  1  0
 23 22  2  0
 24 22  1  0
M  END
$$$$
