MVM.pdb
     RDKit          3D

 24 23  0  0  1  0  0  0  0  0999 V2000
   27.7128  -26.8889  -16.0072 C   0  0  0  0  0  0  0  0  0  0  0  0
   26.2046  -26.6846  -16.9745 S   0  0  0  0  0  0  0  0  0  0  0  0
   26.0348  -24.9583  -17.4464 C   0  0  0  0  0  0  0  0  0  0  0  0
   26.9555  -24.1392  -16.5427 C   0  0  0  0  0  0  0  0  0  0  0  0
   26.7934  -22.6925  -17.0011 C   0  0  2  0  0  0  0  0  0  0  0  0
   27.6894  -22.3857  -18.0862 N   0  0  0  0  0  0  0  0  0  0  0  0
   27.0484  -21.7334  -15.8934 C   0  0  0  0  0  0  0  0  0  0  0  0
   28.2437  -21.4070  -15.5779 O   0  0  0  0  0  0  0  0  0  0  0  0
   26.1975  -18.2202  -15.5432 C   0  0  0  0  0  0  0  0  0  0  0  0
   25.6586  -18.9384  -14.3604 C   0  0  1  0  0  0  0  0  0  0  0  0
   24.1829  -19.2847  -14.6087 C   0  0  0  0  0  0  0  0  0  0  0  0
   26.3450  -20.2216  -14.0039 C   0  0  2  0  0  0  0  0  0  0  0  0
   26.0298  -21.1302  -15.1319 N   0  0  0  0  0  0  0  0  0  0  0  0
   25.9190  -20.8373  -12.7401 C   0  0  0  0  0  0  0  0  0  0  0  0
   25.0784  -21.8155  -12.7307 O   0  0  0  0  0  0  0  0  0  0  0  0
   28.5965  -19.7181   -6.8537 C   0  0  0  0  0  0  0  0  0  0  0  0
   26.9199  -20.1220   -6.3504 S   0  0  0  0  0  0  0  0  0  0  0  0
   25.9075  -20.6641   -7.7763 C   0  0  0  0  0  0  0  0  0  0  0  0
   26.6164  -20.3767   -9.0671 C   0  0  0  0  0  0  0  0  0  0  0  0
   25.8106  -20.8741  -10.2283 C   0  0  2  0  0  0  0  0  0  0  0  0
   26.4029  -20.3994  -11.4882 N   0  0  0  0  0  0  0  0  0  0  0  0
   24.4487  -20.3417  -10.1717 C   0  0  0  0  0  0  0  0  0  0  0  0
   24.1272  -19.2694  -10.7278 O   0  0  0  0  0  0  0  0  0  0  0  0
   23.4329  -21.0012   -9.4945 O   0  0  0  0  0  0  0  0  0  0  0  0
  1  2  1  0
  3  2  1  0
  4  3  1  0
  5  4  1  0
  5  6  1  6
  7  8  2  0
  7  5  1  0
 10  9  1  6
 10 12  1  0
 10 11  1  0
 12 13  1  6
 13  7  1  0
 14 15  2  0
 14 12  1  0
 16 17  1  0
 18 17  1  0
 19 18  1  0
 20 19  1  1
 20 21  1  0
 21 14  1  0
 22 20  1  0
 23 22  2  0
 24 22  1  0
M  END
$$$$
