MVM.pdb
     RDKit          3D

 24 23  0  0  1  0  0  0  0  0999 V2000
   24.7342  -15.2019  -15.5365 C   0  0  0  0  0  0  0  0  0  0  0  0
   26.4288  -15.0835  -16.1416 S   0  0  0  0  0  0  0  0  0  0  0  0
   27.2724  -16.6429  -15.8446 C   0  0  0  0  0  0  0  0  0  0  0  0
   26.2493  -17.6193  -15.2660 C   0  0  0  0  0  0  0  0  0  0  0  0
   27.0113  -18.9229  -15.0440 C   0  0  2  0  0  0  0  0  0  0  0  0
   27.5126  -19.4518  -16.2863 N   0  0  0  0  0  0  0  0  0  0  0  0
   26.1563  -19.9566  -14.4022 C   0  0  0  0  0  0  0  0  0  0  0  0
   25.5861  -20.8583  -15.1069 O   0  0  0  0  0  0  0  0  0  0  0  0
   26.8953  -21.6966  -11.0539 C   0  0  0  0  0  0  0  0  0  0  0  0
   25.4633  -21.3059  -11.0976 C   0  0  1  0  0  0  0  0  0  0  0  0
   25.2494  -20.0702  -10.2107 C   0  0  0  0  0  0  0  0  0  0  0  0
   24.9188  -20.9611  -12.4502 C   0  0  2  0  0  0  0  0  0  0  0  0
   25.9159  -20.0220  -13.0168 N   0  0  0  0  0  0  0  0  0  0  0  0
   23.5905  -20.3340  -12.4566 C   0  0  0  0  0  0  0  0  0  0  0  0
   23.4487  -19.0810  -12.1854 O   0  0  0  0  0  0  0  0  0  0  0  0
   21.8768  -16.8423  -16.0368 C   0  0  0  0  0  0  0  0  0  0  0  0
   20.3485  -17.7759  -16.1791 S   0  0  0  0  0  0  0  0  0  0  0  0
   20.0873  -18.8541  -14.7226 C   0  0  0  0  0  0  0  0  0  0  0  0
   21.3565  -19.5665  -14.3584 C   0  0  0  0  0  0  0  0  0  0  0  0
   21.1632  -20.3748  -13.1115 C   0  0  2  0  0  0  0  0  0  0  0  0
   22.4170  -21.0584  -12.7591 N   0  0  0  0  0  0  0  0  0  0  0  0
   20.1575  -21.4158  -13.3272 C   0  0  0  0  0  0  0  0  0  0  0  0
   18.9466  -21.2372  -13.0737 O   0  0  0  0  0  0  0  0  0  0  0  0
   20.4937  -22.6652  -13.8281 O   0  0  0  0  0  0  0  0  0  0  0  0
  1  2  1  0
  3  2  1  0
  4  3  1  0
  5  4  1  0
  5  6  1  6
  7  8  2  0
  7  5  1  0
 10  9  1  6
 10 12  1  0
 10 11  1  0
 12 13  1  1
 13  7  1  0
 14 15  2  0
 14 12  1  0
 16 17  1  0
 18 17  1  0
 19 18  1  0
 20 19  1  6
 20 21  1  0
 21 14  1  0
 22 20  1  0
 23 22  2  0
 24 22  1  0
M  END
$$$$
