MVM.pdb
     RDKit          3D

 24 23  0  0  1  0  0  0  0  0999 V2000
   26.0026  -16.3837  -16.7326 C   0  0  0  0  0  0  0  0  0  0  0  0
   27.8047  -16.4169  -16.7901 S   0  0  0  0  0  0  0  0  0  0  0  0
   28.3994  -17.8340  -15.8574 C   0  0  0  0  0  0  0  0  0  0  0  0
   27.1831  -18.6682  -15.4579 C   0  0  0  0  0  0  0  0  0  0  0  0
   27.7394  -19.8381  -14.6510 C   0  0  2  0  0  0  0  0  0  0  0  0
   28.5545  -20.6966  -15.4714 N   0  0  0  0  0  0  0  0  0  0  0  0
   26.6532  -20.6550  -14.0474 C   0  0  0  0  0  0  0  0  0  0  0  0
   26.1317  -21.6253  -14.6965 O   0  0  0  0  0  0  0  0  0  0  0  0
   26.6528  -21.7788  -10.3950 C   0  0  0  0  0  0  0  0  0  0  0  0
   25.2805  -21.3491  -10.7658 C   0  0  1  0  0  0  0  0  0  0  0  0
   25.0036  -19.9649  -10.1603 C   0  0  0  0  0  0  0  0  0  0  0  0
   25.0029  -21.2370  -12.2339 C   0  0  2  0  0  0  0  0  0  0  0  0
   26.1320  -20.4327  -12.7589 N   0  0  0  0  0  0  0  0  0  0  0  0
   23.7311  -20.5942  -12.5902 C   0  0  0  0  0  0  0  0  0  0  0  0
   23.6094  -19.3104  -12.5683 O   0  0  0  0  0  0  0  0  0  0  0  0
   21.5605  -19.3508  -17.8401 C   0  0  0  0  0  0  0  0  0  0  0  0
   19.9693  -19.8603  -17.1798 S   0  0  0  0  0  0  0  0  0  0  0  0
   20.0148  -19.9882  -15.3540 C   0  0  0  0  0  0  0  0  0  0  0  0
   21.3127  -20.5874  -14.8985 C   0  0  0  0  0  0  0  0  0  0  0  0
   21.3530  -20.6729  -13.4031 C   0  0  2  0  0  0  0  0  0  0  0  0
   22.5932  -21.3369  -12.9733 N   0  0  0  0  0  0  0  0  0  0  0  0
   20.2417  -21.4854  -12.9068 C   0  0  0  0  0  0  0  0  0  0  0  0
   20.3901  -22.6751  -12.5530 O   0  0  0  0  0  0  0  0  0  0  0  0
   18.9548  -20.9778  -12.8003 O   0  0  0  0  0  0  0  0  0  0  0  0
  1  2  1  0
  3  2  1  0
  4  3  1  0
  5  4  1  0
  5  6  1  6
  7  8  2  0
  7  5  1  0
 10  9  1  6
 10 12  1  0
 10 11  1  0
 12 13  1  6
 13  7  1  0
 14 15  2  0
 14 12  1  0
 16 17  1  0
 18 17  1  0
 19 18  1  0
 20 19  1  6
 20 21  1  0
 21 14  1  0
 22 20  1  0
 23 22  2  0
 24 22  1  0
M  END
$$$$
