SAI.pdb
     RDKit          3D

 20 19  0  0  1  0  0  0  0  0999 V2000
   34.8698  -25.5686  -18.0275 O   0  0  0  0  0  0  0  0  0  0  0  0
   33.5728  -25.8492  -17.6774 C   0  0  0  0  0  0  0  0  0  0  0  0
   33.2100  -25.3223  -16.3045 C   0  0  2  0  0  0  0  0  0  0  0  0
   33.8541  -26.0979  -15.2658 N   0  0  0  0  0  0  0  0  0  0  0  0
   31.7429  -25.2528  -16.1116 C   0  0  0  0  0  0  0  0  0  0  0  0
   31.0961  -26.2301  -15.6078 O   0  0  0  0  0  0  0  0  0  0  0  0
   29.0552  -22.6960  -16.5943 C   0  0  0  0  0  0  0  0  0  0  0  0
   29.5279  -24.1042  -16.2950 C   0  0  2  0  0  0  0  0  0  0  0  0
   30.9677  -24.1170  -16.4663 N   0  0  0  0  0  0  0  0  0  0  0  0
   28.8543  -25.0344  -17.2289 C   0  0  0  0  0  0  0  0  0  0  0  0
   29.3751  -25.2423  -18.3607 O   0  0  0  0  0  0  0  0  0  0  0  0
   26.5542  -30.4134  -17.8385 C   0  0  0  0  0  0  0  0  0  0  0  0
   26.2461  -28.9849  -18.2677 C   0  0  0  0  0  0  0  0  0  0  0  0
   27.0789  -28.0637  -17.3762 C   0  0  2  0  0  0  0  0  0  0  0  0
   26.4635  -28.1185  -15.9943 C   0  0  0  0  0  0  0  0  0  0  0  0
   26.9979  -26.6318  -17.8572 C   0  0  2  0  0  0  0  0  0  0  0  0
   27.6531  -25.7170  -16.9426 N   0  0  0  0  0  0  0  0  0  0  0  0
   25.5781  -26.2598  -17.9234 C   0  0  0  0  0  0  0  0  0  0  0  0
   25.0888  -25.5265  -17.0420 O   0  0  0  0  0  0  0  0  0  0  0  0
   24.7853  -26.7123  -18.9471 O   0  0  0  0  0  0  0  0  0  0  0  0
  2  1  1  0
  3  2  1  0
  3  4  1  1
  5  3  1  0
  5  9  1  0
  6  5  2  0
  8 10  1  0
  8  9  1  0
  8  7  1  6
 10 17  1  0
 11 10  2  0
 13 12  1  0
 14 13  1  0
 14 15  1  1
 16 14  1  0
 16 17  1  1
 18 16  1  0
 19 18  2  0
 20 18  1  0
M  END
$$$$
