SAI.pdb
     RDKit          3D

 20 19  0  0  1  0  0  0  0  0999 V2000
   12.5527  -12.6416  -10.4943 O   0  0  0  0  0  0  0  0  0  0  0  0
   11.4911  -12.5759  -11.3616 C   0  0  0  0  0  0  0  0  0  0  0  0
   11.8871  -12.8660  -12.7944 C   0  0  2  0  0  0  0  0  0  0  0  0
   12.3766  -14.2213  -12.9317 N   0  0  0  0  0  0  0  0  0  0  0  0
   12.8595  -11.8736  -13.3084 C   0  0  0  0  0  0  0  0  0  0  0  0
   14.1133  -12.1078  -13.2918 O   0  0  0  0  0  0  0  0  0  0  0  0
   12.6582   -8.6338  -15.1593 C   0  0  0  0  0  0  0  0  0  0  0  0
   13.4390   -9.7390  -14.4776 C   0  0  2  0  0  0  0  0  0  0  0  0
   12.4735  -10.6167  -13.8452 N   0  0  0  0  0  0  0  0  0  0  0  0
   14.3556   -9.1264  -13.4899 C   0  0  0  0  0  0  0  0  0  0  0  0
   13.9608   -8.9891  -12.2980 O   0  0  0  0  0  0  0  0  0  0  0  0
   19.6458  -10.2041  -13.4031 C   0  0  0  0  0  0  0  0  0  0  0  0
   18.4422   -9.3645  -13.8105 C   0  0  0  0  0  0  0  0  0  0  0  0
   17.7468   -8.9295  -12.5205 C   0  0  2  0  0  0  0  0  0  0  0  0
   17.2407  -10.1887  -11.8501 C   0  0  0  0  0  0  0  0  0  0  0  0
   16.5479   -8.0580  -12.8228 C   0  0  2  0  0  0  0  0  0  0  0  0
   15.6596   -8.6771  -13.7873 N   0  0  0  0  0  0  0  0  0  0  0  0
   17.0406   -6.8034  -13.4076 C   0  0  0  0  0  0  0  0  0  0  0  0
   17.6915   -6.0063  -12.7042 O   0  0  0  0  0  0  0  0  0  0  0  0
   16.7906   -6.5009  -14.7220 O   0  0  0  0  0  0  0  0  0  0  0  0
  2  1  1  0
  3  2  1  0
  3  4  1  1
  5  3  1  0
  5  9  1  0
  6  5  2  0
  8 10  1  0
  8  9  1  0
  8  7  1  1
 10 17  1  0
 11 10  2  0
 13 12  1  0
 14 13  1  0
 14 15  1  6
 16 14  1  0
 16 17  1  6
 18 16  1  0
 19 18  2  0
 20 18  1  0
M  END
$$$$
