SAI.pdb
     RDKit          3D

 20 19  0  0  1  0  0  0  0  0999 V2000
   27.1861  -26.6880  -18.1493 O   0  0  0  0  0  0  0  0  0  0  0  0
   26.9324  -25.6967  -17.2347 C   0  0  0  0  0  0  0  0  0  0  0  0
   28.0365  -24.6617  -17.1719 C   0  0  2  0  0  0  0  0  0  0  0  0
   29.2665  -25.2465  -16.6814 N   0  0  0  0  0  0  0  0  0  0  0  0
   27.6350  -23.4761  -16.3796 C   0  0  0  0  0  0  0  0  0  0  0  0
   28.1372  -23.2499  -15.2290 O   0  0  0  0  0  0  0  0  0  0  0  0
   25.5182  -20.4463  -16.9400 C   0  0  0  0  0  0  0  0  0  0  0  0
   26.3793  -21.3352  -16.0657 C   0  0  2  0  0  0  0  0  0  0  0  0
   26.6823  -22.5264  -16.8348 N   0  0  0  0  0  0  0  0  0  0  0  0
   25.6253  -21.6533  -14.8322 C   0  0  0  0  0  0  0  0  0  0  0  0
   24.8671  -22.6635  -14.8270 O   0  0  0  0  0  0  0  0  0  0  0  0
   25.5545  -20.2692   -8.7798 C   0  0  0  0  0  0  0  0  0  0  0  0
   24.7996  -20.8841   -9.9510 C   0  0  0  0  0  0  0  0  0  0  0  0
   25.6414  -20.6344  -11.2025 C   0  0  2  0  0  0  0  0  0  0  0  0
   25.6992  -19.1347  -11.3989 C   0  0  0  0  0  0  0  0  0  0  0  0
   24.9792  -21.2312  -12.4245 C   0  0  2  0  0  0  0  0  0  0  0  0
   25.6926  -20.8982  -13.6422 N   0  0  0  0  0  0  0  0  0  0  0  0
   23.6284  -20.6623  -12.5264 C   0  0  0  0  0  0  0  0  0  0  0  0
   22.7263  -21.0703  -11.7689 O   0  0  0  0  0  0  0  0  0  0  0  0
   23.3504  -19.6854  -13.4483 O   0  0  0  0  0  0  0  0  0  0  0  0
  2  1  1  0
  3  2  1  0
  3  4  1  1
  5  3  1  0
  5  9  1  0
  6  5  2  0
  8 10  1  0
  8  9  1  0
  8  7  1  6
 10 17  1  0
 11 10  2  0
 13 12  1  0
 14 13  1  0
 14 15  1  6
 16 14  1  0
 16 17  1  6
 18 16  1  0
 19 18  2  0
 20 18  1  0
M  END
$$$$
