SAI.pdb
     RDKit          3D

 20 19  0  0  1  0  0  0  0  0999 V2000
   16.7294  -13.2064  -14.9856 O   0  0  0  0  0  0  0  0  0  0  0  0
   17.4857  -12.0691  -15.1192 C   0  0  0  0  0  0  0  0  0  0  0  0
   17.8395  -11.7673  -16.5607 C   0  0  2  0  0  0  0  0  0  0  0  0
   18.3887  -12.9363  -17.2143 N   0  0  0  0  0  0  0  0  0  0  0  0
   18.7417  -10.5977  -16.6728 C   0  0  0  0  0  0  0  0  0  0  0  0
   20.0084  -10.7319  -16.6043 O   0  0  0  0  0  0  0  0  0  0  0  0
   18.3520   -6.9368  -17.3481 C   0  0  0  0  0  0  0  0  0  0  0  0
   19.1890   -8.1674  -17.0636 C   0  0  2  0  0  0  0  0  0  0  0  0
   18.2709   -9.2711  -16.8605 N   0  0  0  0  0  0  0  0  0  0  0  0
   20.0123   -7.9080  -15.8611 C   0  0  0  0  0  0  0  0  0  0  0  0
   19.5084   -8.1198  -14.7224 O   0  0  0  0  0  0  0  0  0  0  0  0
   24.7738   -9.9369  -15.4791 C   0  0  0  0  0  0  0  0  0  0  0  0
   23.3828   -9.4080  -15.1554 C   0  0  0  0  0  0  0  0  0  0  0  0
   23.5282   -7.9098  -14.8881 C   0  0  2  0  0  0  0  0  0  0  0  0
   24.2702   -7.7694  -13.5762 C   0  0  0  0  0  0  0  0  0  0  0  0
   22.1731   -7.2590  -14.7198 C   0  0  2  0  0  0  0  0  0  0  0  0
   21.3407   -7.4335  -15.8942 N   0  0  0  0  0  0  0  0  0  0  0  0
   22.3872   -5.8177  -14.5320 C   0  0  0  0  0  0  0  0  0  0  0  0
   22.8347   -5.3946  -13.4482 O   0  0  0  0  0  0  0  0  0  0  0  0
   22.0989   -4.9324  -15.5392 O   0  0  0  0  0  0  0  0  0  0  0  0
  2  1  1  0
  3  2  1  0
  3  4  1  1
  5  3  1  0
  5  9  1  0
  6  5  2  0
  8 10  1  0
  8  9  1  0
  8  7  1  1
 10 17  1  0
 11 10  2  0
 13 12  1  0
 14 13  1  0
 14 15  1  1
 16 14  1  0
 16 17  1  6
 18 16  1  0
 19 18  2  0
 20 18  1  0
M  END
$$$$
