SAI.pdb
     RDKit          3D

 20 19  0  0  1  0  0  0  0  0999 V2000
   15.3174  -12.3002  -15.4416 O   0  0  0  0  0  0  0  0  0  0  0  0
   16.3250  -11.3720  -15.5212 C   0  0  0  0  0  0  0  0  0  0  0  0
   17.0095  -11.3654  -16.8723 C   0  0  2  0  0  0  0  0  0  0  0  0
   17.5727  -12.6645  -17.1733 N   0  0  0  0  0  0  0  0  0  0  0  0
   18.0223  -10.2888  -16.9711 C   0  0  0  0  0  0  0  0  0  0  0  0
   19.2329  -10.4869  -16.6212 O   0  0  0  0  0  0  0  0  0  0  0  0
   18.1330   -6.7944  -18.3017 C   0  0  0  0  0  0  0  0  0  0  0  0
   18.7599   -7.9826  -17.6009 C   0  0  2  0  0  0  0  0  0  0  0  0
   17.7241   -8.9863  -17.4522 N   0  0  0  0  0  0  0  0  0  0  0  0
   19.2831   -7.5333  -16.2911 C   0  0  0  0  0  0  0  0  0  0  0  0
   18.5051   -7.5263  -15.2960 O   0  0  0  0  0  0  0  0  0  0  0  0
   23.2029   -9.7318  -13.8662 C   0  0  0  0  0  0  0  0  0  0  0  0
   21.9222   -8.9673  -14.1743 C   0  0  0  0  0  0  0  0  0  0  0  0
   22.3115   -7.4989  -14.3454 C   0  0  2  0  0  0  0  0  0  0  0  0
   22.7401   -6.9982  -12.9827 C   0  0  0  0  0  0  0  0  0  0  0  0
   21.1215   -6.6740  -14.7829 C   0  0  2  0  0  0  0  0  0  0  0  0
   20.6090   -7.1052  -16.0691 N   0  0  0  0  0  0  0  0  0  0  0  0
   21.5672   -5.2809  -14.9219 C   0  0  0  0  0  0  0  0  0  0  0  0
   21.8030   -4.8167  -16.0545 O   0  0  0  0  0  0  0  0  0  0  0  0
   21.7265   -4.4857  -13.8157 O   0  0  0  0  0  0  0  0  0  0  0  0
  2  1  1  0
  3  2  1  0
  3  4  1  1
  5  3  1  0
  5  9  1  0
  6  5  2  0
  8 10  1  0
  8  9  1  0
  8  7  1  1
 10 17  1  0
 11 10  2  0
 13 12  1  0
 14 13  1  0
 14 15  1  1
 16 14  1  0
 16 17  1  6
 18 16  1  0
 19 18  2  0
 20 18  1  0
M  END
$$$$
