SAI.pdb
     RDKit          3D

 20 19  0  0  1  0  0  0  0  0999 V2000
   14.3127  -13.8707  -13.8078 O   0  0  0  0  0  0  0  0  0  0  0  0
   15.3399  -13.0241  -14.1420 C   0  0  0  0  0  0  0  0  0  0  0  0
   15.5760  -12.9517  -15.6364 C   0  0  2  0  0  0  0  0  0  0  0  0
   15.9408  -14.2485  -16.1660 N   0  0  0  0  0  0  0  0  0  0  0  0
   16.5723  -11.9127  -15.9864 C   0  0  0  0  0  0  0  0  0  0  0  0
   17.8126  -12.1939  -16.0855 O   0  0  0  0  0  0  0  0  0  0  0  0
   16.4896   -8.2948  -16.9406 C   0  0  0  0  0  0  0  0  0  0  0  0
   17.2220   -9.5862  -16.6378 C   0  0  2  0  0  0  0  0  0  0  0  0
   16.2252  -10.5576  -16.2316 N   0  0  0  0  0  0  0  0  0  0  0  0
   18.2074   -9.3268  -15.5640 C   0  0  0  0  0  0  0  0  0  0  0  0
   17.8214   -9.3682  -14.3621 O   0  0  0  0  0  0  0  0  0  0  0  0
   23.8622  -10.7323  -14.1323 C   0  0  0  0  0  0  0  0  0  0  0  0
   22.7621   -9.7185  -13.8467 C   0  0  0  0  0  0  0  0  0  0  0  0
   21.7200   -9.8697  -14.9550 C   0  0  2  0  0  0  0  0  0  0  0  0
   22.3984   -9.4772  -16.2500 C   0  0  0  0  0  0  0  0  0  0  0  0
   20.5624   -8.9205  -14.7383 C   0  0  2  0  0  0  0  0  0  0  0  0
   19.5688   -9.0319  -15.7886 N   0  0  0  0  0  0  0  0  0  0  0  0
   21.0932   -7.5508  -14.7666 C   0  0  0  0  0  0  0  0  0  0  0  0
   20.9518   -6.8533  -15.7900 O   0  0  0  0  0  0  0  0  0  0  0  0
   21.7435   -7.0319  -13.6760 O   0  0  0  0  0  0  0  0  0  0  0  0
  2  1  1  0
  3  2  1  0
  3  4  1  1
  5  3  1  0
  5  9  1  0
  6  5  2  0
  8 10  1  0
  8  9  1  0
  8  7  1  1
 10 17  1  0
 11 10  2  0
 13 12  1  0
 14 13  1  0
 14 15  1  6
 16 14  1  0
 16 17  1  6
 18 16  1  0
 19 18  2  0
 20 18  1  0
M  END
$$$$
