SAI.pdb
     RDKit          3D

 20 19  0  0  1  0  0  0  0  0999 V2000
   33.7374   -5.0691  -16.1557 O   0  0  0  0  0  0  0  0  0  0  0  0
   34.5047   -5.2527  -15.0328 C   0  0  0  0  0  0  0  0  0  0  0  0
   35.5449   -6.3400  -15.2060 C   0  0  2  0  0  0  0  0  0  0  0  0
   34.9198   -7.6113  -15.5035 N   0  0  0  0  0  0  0  0  0  0  0  0
   36.4475   -6.4298  -14.0348 C   0  0  0  0  0  0  0  0  0  0  0  0
   36.1294   -7.1150  -13.0069 O   0  0  0  0  0  0  0  0  0  0  0  0
   39.9308   -5.3997  -13.1987 C   0  0  0  0  0  0  0  0  0  0  0  0
   38.5455   -5.8626  -12.7955 C   0  0  2  0  0  0  0  0  0  0  0  0
   37.7053   -5.7732  -13.9738 N   0  0  0  0  0  0  0  0  0  0  0  0
   38.0576   -4.9897  -11.7040 C   0  0  0  0  0  0  0  0  0  0  0  0
   37.3777   -3.9676  -12.0013 O   0  0  0  0  0  0  0  0  0  0  0  0
   36.6161   -7.1270   -6.9053 C   0  0  0  0  0  0  0  0  0  0  0  0
   36.4475   -6.1306   -8.0446 C   0  0  0  0  0  0  0  0  0  0  0  0
   37.6327   -5.1677   -7.9719 C   0  0  2  0  0  0  0  0  0  0  0  0
   37.3223   -4.1738   -6.8734 C   0  0  0  0  0  0  0  0  0  0  0  0
   37.7769   -4.3931   -9.2632 C   0  0  2  0  0  0  0  0  0  0  0  0
   38.3004   -5.2198  -10.3333 N   0  0  0  0  0  0  0  0  0  0  0  0
   38.7342   -3.3035   -9.0288 C   0  0  0  0  0  0  0  0  0  0  0  0
   39.9582   -3.5326   -9.0837 O   0  0  0  0  0  0  0  0  0  0  0  0
   38.2929   -2.0350   -8.7500 O   0  0  0  0  0  0  0  0  0  0  0  0
  2  1  1  0
  3  2  1  0
  3  4  1  1
  5  3  1  0
  5  9  1  0
  6  5  2  0
  8 10  1  0
  8  9  1  0
  8  7  1  6
 10 17  1  0
 11 10  2  0
 13 12  1  0
 14 13  1  0
 14 15  1  1
 16 14  1  0
 16 17  1  6
 18 16  1  0
 19 18  2  0
 20 18  1  0
M  END
$$$$
