SAI.pdb
     RDKit          3D

 20 19  0  0  1  0  0  0  0  0999 V2000
   28.0882  -17.4937  -15.1345 O   0  0  0  0  0  0  0  0  0  0  0  0
   27.2467  -18.4511  -14.6258 C   0  0  0  0  0  0  0  0  0  0  0  0
   27.9638  -19.7427  -14.2915 C   0  0  2  0  0  0  0  0  0  0  0  0
   28.5394  -20.3373  -15.4791 N   0  0  0  0  0  0  0  0  0  0  0  0
   27.0824  -20.6911  -13.5715 C   0  0  0  0  0  0  0  0  0  0  0  0
   26.4466  -21.6047  -14.1946 O   0  0  0  0  0  0  0  0  0  0  0  0
   25.7672  -20.9072  -10.0738 C   0  0  0  0  0  0  0  0  0  0  0  0
   25.7073  -21.2317  -11.5527 C   0  0  2  0  0  0  0  0  0  0  0  0
   26.8865  -20.6519  -12.1654 N   0  0  0  0  0  0  0  0  0  0  0  0
   24.4603  -20.6600  -12.1090 C   0  0  0  0  0  0  0  0  0  0  0  0
   24.4241  -19.4261  -12.3765 O   0  0  0  0  0  0  0  0  0  0  0  0
   20.9199  -21.2781  -16.6595 C   0  0  0  0  0  0  0  0  0  0  0  0
   20.8312  -20.8309  -15.2063 C   0  0  0  0  0  0  0  0  0  0  0  0
   22.0763  -21.3670  -14.4996 C   0  0  2  0  0  0  0  0  0  0  0  0
   21.9485  -22.8750  -14.4718 C   0  0  0  0  0  0  0  0  0  0  0  0
   22.1313  -20.8854  -13.0667 C   0  0  2  0  0  0  0  0  0  0  0  0
   23.2900  -21.4048  -12.3665 N   0  0  0  0  0  0  0  0  0  0  0  0
   20.9317  -21.3827  -12.3794 C   0  0  0  0  0  0  0  0  0  0  0  0
   20.9919  -22.4339  -11.7121 O   0  0  0  0  0  0  0  0  0  0  0  0
   19.7450  -20.7002  -12.4652 O   0  0  0  0  0  0  0  0  0  0  0  0
  2  1  1  0
  3  2  1  0
  3  4  1  6
  5  3  1  0
  5  9  1  0
  6  5  2  0
  8 10  1  0
  8  9  1  0
  8  7  1  1
 10 17  1  0
 11 10  2  0
 13 12  1  0
 14 13  1  0
 14 15  1  1
 16 14  1  0
 16 17  1  1
 18 16  1  0
 19 18  2  0
 20 18  1  0
M  END
$$$$
