SAI.pdb
     RDKit          3D

 20 19  0  0  1  0  0  0  0  0999 V2000
   30.2041  -27.8364  -20.8319 O   0  0  0  0  0  0  0  0  0  0  0  0
   31.1156  -27.3806  -19.9128 C   0  0  0  0  0  0  0  0  0  0  0  0
   31.0461  -28.1299  -18.5983 C   0  0  2  0  0  0  0  0  0  0  0  0
   31.3966  -29.5229  -18.7776 N   0  0  0  0  0  0  0  0  0  0  0  0
   29.7260  -27.9730  -17.9445 C   0  0  0  0  0  0  0  0  0  0  0  0
   28.9399  -28.9667  -17.7970 O   0  0  0  0  0  0  0  0  0  0  0  0
   27.8114  -25.1935  -16.3249 C   0  0  0  0  0  0  0  0  0  0  0  0
   27.9481  -26.6191  -16.8197 C   0  0  2  0  0  0  0  0  0  0  0  0
   29.2512  -26.7310  -17.4456 N   0  0  0  0  0  0  0  0  0  0  0  0
   26.8525  -26.8914  -17.7770 C   0  0  0  0  0  0  0  0  0  0  0  0
   27.0560  -26.6890  -19.0070 O   0  0  0  0  0  0  0  0  0  0  0  0
   24.7853  -31.1640  -19.5890 C   0  0  0  0  0  0  0  0  0  0  0  0
   25.1454  -29.6862  -19.5125 C   0  0  0  0  0  0  0  0  0  0  0  0
   24.1704  -29.0417  -18.5271 C   0  0  2  0  0  0  0  0  0  0  0  0
   22.7928  -29.1412  -19.1463 C   0  0  0  0  0  0  0  0  0  0  0  0
   24.4843  -27.5736  -18.3417 C   0  0  2  0  0  0  0  0  0  0  0  0
   25.5763  -27.3683  -17.4100 N   0  0  0  0  0  0  0  0  0  0  0  0
   23.2899  -26.9261  -17.7825 C   0  0  0  0  0  0  0  0  0  0  0  0
   23.1277  -26.8880  -16.5471 O   0  0  0  0  0  0  0  0  0  0  0  0
   22.3507  -26.3624  -18.6081 O   0  0  0  0  0  0  0  0  0  0  0  0
  2  1  1  0
  3  2  1  0
  3  4  1  6
  5  3  1  0
  5  9  1  0
  6  5  2  0
  8 10  1  0
  8  9  1  0
  8  7  1  6
 10 17  1  0
 11 10  2  0
 13 12  1  0
 14 13  1  0
 14 15  1  6
 16 14  1  0
 16 17  1  1
 18 16  1  0
 19 18  2  0
 20 18  1  0
M  END
$$$$
