SAI.pdb
     RDKit          3D

 20 19  0  0  1  0  0  0  0  0999 V2000
   14.0169  -13.1475  -16.2853 O   0  0  0  0  0  0  0  0  0  0  0  0
   15.1500  -12.3733  -16.2718 C   0  0  0  0  0  0  0  0  0  0  0  0
   15.7468  -12.1849  -17.6510 C   0  0  2  0  0  0  0  0  0  0  0  0
   16.1807  -13.4503  -18.2043 N   0  0  0  0  0  0  0  0  0  0  0  0
   16.8370  -11.1819  -17.6468 C   0  0  0  0  0  0  0  0  0  0  0  0
   18.0619  -11.5378  -17.6605 O   0  0  0  0  0  0  0  0  0  0  0  0
   17.0939   -7.4512  -17.7691 C   0  0  0  0  0  0  0  0  0  0  0  0
   17.6981   -8.8330  -17.6227 C   0  0  2  0  0  0  0  0  0  0  0  0
   16.6014   -9.7815  -17.6274 N   0  0  0  0  0  0  0  0  0  0  0  0
   18.4612   -8.8803  -16.3552 C   0  0  0  0  0  0  0  0  0  0  0  0
   17.8566   -9.2005  -15.2934 O   0  0  0  0  0  0  0  0  0  0  0  0
   23.5647  -10.8182  -13.9640 C   0  0  0  0  0  0  0  0  0  0  0  0
   22.5209   -9.7208  -13.8038 C   0  0  0  0  0  0  0  0  0  0  0  0
   21.7234   -9.6725  -15.1071 C   0  0  2  0  0  0  0  0  0  0  0  0
   22.6712   -9.1861  -16.1824 C   0  0  0  0  0  0  0  0  0  0  0  0
   20.5912   -8.6742  -15.0087 C   0  0  2  0  0  0  0  0  0  0  0  0
   19.8373   -8.5890  -16.2444 N   0  0  0  0  0  0  0  0  0  0  0  0
   21.1788   -7.3527  -14.7499 C   0  0  0  0  0  0  0  0  0  0  0  0
   21.5734   -7.0647  -13.6030 O   0  0  0  0  0  0  0  0  0  0  0  0
   21.2973   -6.4319  -15.7596 O   0  0  0  0  0  0  0  0  0  0  0  0
  2  1  1  0
  3  2  1  0
  3  4  1  1
  5  3  1  0
  5  9  1  0
  6  5  2  0
  8 10  1  0
  8  9  1  0
  8  7  1  1
 10 17  1  0
 11 10  2  0
 13 12  1  0
 14 13  1  0
 14 15  1  6
 16 14  1  0
 16 17  1  6
 18 16  1  0
 19 18  2  0
 20 18  1  0
M  END
$$$$
