SAI.pdb
     RDKit          3D

 20 19  0  0  1  0  0  0  0  0999 V2000
   27.9852  -21.7491  -16.0170 O   0  0  0  0  0  0  0  0  0  0  0  0
   27.3804  -21.0788  -17.0506 C   0  0  0  0  0  0  0  0  0  0  0  0
   27.3318  -19.5814  -16.8284 C   0  0  2  0  0  0  0  0  0  0  0  0
   28.6604  -19.0086  -16.8714 N   0  0  0  0  0  0  0  0  0  0  0  0
   26.6214  -19.2336  -15.5758 C   0  0  0  0  0  0  0  0  0  0  0  0
   27.2547  -18.8059  -14.5545 O   0  0  0  0  0  0  0  0  0  0  0  0
   23.0736  -18.8807  -14.4809 C   0  0  0  0  0  0  0  0  0  0  0  0
   24.5562  -18.9848  -14.1858 C   0  0  2  0  0  0  0  0  0  0  0  0
   25.2139  -19.3490  -15.4256 N   0  0  0  0  0  0  0  0  0  0  0  0
   24.7555  -20.0086  -13.1355 C   0  0  0  0  0  0  0  0  0  0  0  0
   24.9518  -21.2067  -13.4842 O   0  0  0  0  0  0  0  0  0  0  0  0
   26.8967  -18.4395   -8.4376 C   0  0  0  0  0  0  0  0  0  0  0  0
   26.7844  -19.4857   -9.5387 C   0  0  0  0  0  0  0  0  0  0  0  0
   25.3963  -20.1141   -9.4146 C   0  0  2  0  0  0  0  0  0  0  0  0
   25.5086  -21.2246   -8.3922 C   0  0  0  0  0  0  0  0  0  0  0  0
   24.9693  -20.7388  -10.7244 C   0  0  2  0  0  0  0  0  0  0  0  0
   24.7420  -19.7398  -11.7505 N   0  0  0  0  0  0  0  0  0  0  0  0
   23.6999  -21.4419  -10.4939 C   0  0  0  0  0  0  0  0  0  0  0  0
   22.6204  -20.8533  -10.6989 O   0  0  0  0  0  0  0  0  0  0  0  0
   23.6918  -22.7414  -10.0549 O   0  0  0  0  0  0  0  0  0  0  0  0
  2  1  1  0
  3  2  1  0
  3  4  1  1
  5  3  1  0
  5  9  1  0
  6  5  2  0
  8 10  1  0
  8  9  1  0
  8  7  1  6
 10 17  1  0
 11 10  2  0
 13 12  1  0
 14 13  1  0
 14 15  1  1
 16 14  1  0
 16 17  1  6
 18 16  1  0
 19 18  2  0
 20 18  1  0
M  END
$$$$
