SAI.pdb
     RDKit          3D

 20 19  0  0  1  0  0  0  0  0999 V2000
   16.9741  -14.5139  -18.5996 O   0  0  0  0  0  0  0  0  0  0  0  0
   17.8823  -13.5267  -18.3100 C   0  0  0  0  0  0  0  0  0  0  0  0
   18.7195  -13.1314  -19.5087 C   0  0  2  0  0  0  0  0  0  0  0  0
   19.4330  -14.2731  -20.0406 N   0  0  0  0  0  0  0  0  0  0  0  0
   19.6322  -12.0072  -19.1962 C   0  0  0  0  0  0  0  0  0  0  0  0
   20.7066  -12.1934  -18.5343 O   0  0  0  0  0  0  0  0  0  0  0  0
   19.8017   -8.3478  -19.9565 C   0  0  0  0  0  0  0  0  0  0  0  0
   20.2677   -9.5876  -19.2204 C   0  0  2  0  0  0  0  0  0  0  0  0
   19.3816  -10.6698  -19.6026 N   0  0  0  0  0  0  0  0  0  0  0  0
   20.2129   -9.3189  -17.7658 C   0  0  0  0  0  0  0  0  0  0  0  0
   19.1403   -9.5589  -17.1435 O   0  0  0  0  0  0  0  0  0  0  0  0
   23.6063  -11.3003  -14.4424 C   0  0  0  0  0  0  0  0  0  0  0  0
   22.3398  -10.7351  -15.0718 C   0  0  0  0  0  0  0  0  0  0  0  0
   22.3680   -9.2234  -14.8464 C   0  0  2  0  0  0  0  0  0  0  0  0
   22.1493   -8.9975  -13.3657 C   0  0  0  0  0  0  0  0  0  0  0  0
   21.2341   -8.5477  -15.5852 C   0  0  2  0  0  0  0  0  0  0  0  0
   21.2890   -8.8058  -17.0110 N   0  0  0  0  0  0  0  0  0  0  0  0
   21.3690   -7.0983  -15.3863 C   0  0  0  0  0  0  0  0  0  0  0  0
   21.8776   -6.3954  -16.2813 O   0  0  0  0  0  0  0  0  0  0  0  0
   20.9398   -6.5107  -14.2235 O   0  0  0  0  0  0  0  0  0  0  0  0
  2  1  1  0
  3  2  1  0
  3  4  1  1
  5  3  1  0
  5  9  1  0
  6  5  2  0
  8 10  1  0
  8  9  1  0
  8  7  1  6
 10 17  1  0
 11 10  2  0
 13 12  1  0
 14 13  1  0
 14 15  1  1
 16 14  1  0
 16 17  1  6
 18 16  1  0
 19 18  2  0
 20 18  1  0
M  END
$$$$
