SAI.pdb
     RDKit          3D

 20 19  0  0  1  0  0  0  0  0999 V2000
   14.7551  -10.8440  -10.3276 O   0  0  0  0  0  0  0  0  0  0  0  0
   15.6623  -10.0595  -10.9947 C   0  0  0  0  0  0  0  0  0  0  0  0
   15.1267   -9.5354  -12.3110 C   0  0  2  0  0  0  0  0  0  0  0  0
   14.7656  -10.6248  -13.1932 N   0  0  0  0  0  0  0  0  0  0  0  0
   16.0728   -8.5947  -12.9547 C   0  0  0  0  0  0  0  0  0  0  0  0
   17.0127   -9.0154  -13.7077 O   0  0  0  0  0  0  0  0  0  0  0  0
   16.4125   -4.8838  -13.2542 C   0  0  0  0  0  0  0  0  0  0  0  0
   16.9111   -6.2967  -13.4798 C   0  0  2  0  0  0  0  0  0  0  0  0
   16.0027   -7.1867  -12.7833 N   0  0  0  0  0  0  0  0  0  0  0  0
   18.2913   -6.3974  -12.9544 C   0  0  0  0  0  0  0  0  0  0  0  0
   18.4613   -6.7786  -11.7622 O   0  0  0  0  0  0  0  0  0  0  0  0
   23.2387   -9.1836  -14.1078 C   0  0  0  0  0  0  0  0  0  0  0  0
   22.8135   -7.8470  -13.5142 C   0  0  0  0  0  0  0  0  0  0  0  0
   21.3448   -7.6428  -13.8861 C   0  0  2  0  0  0  0  0  0  0  0  0
   21.2942   -7.4664  -15.3886 C   0  0  0  0  0  0  0  0  0  0  0  0
   20.8013   -6.3787  -13.2579 C   0  0  2  0  0  0  0  0  0  0  0  0
   19.4499   -6.0938  -13.7000 N   0  0  0  0  0  0  0  0  0  0  0  0
   21.6568   -5.2623  -13.6826 C   0  0  0  0  0  0  0  0  0  0  0  0
   21.3028   -4.5384  -14.6336 O   0  0  0  0  0  0  0  0  0  0  0  0
   22.8427   -5.0090  -13.0415 O   0  0  0  0  0  0  0  0  0  0  0  0
  2  1  1  0
  3  2  1  0
  3  4  1  6
  5  3  1  0
  5  9  1  0
  6  5  2  0
  8 10  1  0
  8  9  1  0
  8  7  1  1
 10 17  1  0
 11 10  2  0
 13 12  1  0
 14 13  1  0
 14 15  1  6
 16 14  1  0
 16 17  1  6
 18 16  1  0
 19 18  2  0
 20 18  1  0
M  END
$$$$
