SAI.pdb
     RDKit          3D

 20 19  0  0  1  0  0  0  0  0999 V2000
   18.7786  -12.0216  -14.6485 O   0  0  0  0  0  0  0  0  0  0  0  0
   17.5082  -11.7326  -15.0797 C   0  0  0  0  0  0  0  0  0  0  0  0
   17.4656  -11.3084  -16.5331 C   0  0  2  0  0  0  0  0  0  0  0  0
   18.0897  -12.3022  -17.3806 N   0  0  0  0  0  0  0  0  0  0  0  0
   18.0564   -9.9645  -16.7318 C   0  0  0  0  0  0  0  0  0  0  0  0
   19.1937   -9.8192  -17.2909 O   0  0  0  0  0  0  0  0  0  0  0  0
   16.9548   -6.4265  -16.2396 C   0  0  0  0  0  0  0  0  0  0  0  0
   17.9999   -7.4676  -16.5858 C   0  0  2  0  0  0  0  0  0  0  0  0
   17.4123   -8.7668  -16.3226 N   0  0  0  0  0  0  0  0  0  0  0  0
   19.1982   -7.2261  -15.7511 C   0  0  0  0  0  0  0  0  0  0  0  0
   19.3164   -7.8542  -14.6616 O   0  0  0  0  0  0  0  0  0  0  0  0
   24.0498   -7.0642  -17.8923 C   0  0  0  0  0  0  0  0  0  0  0  0
   22.9688   -7.3446  -16.8567 C   0  0  0  0  0  0  0  0  0  0  0  0
   22.6688   -6.0186  -16.1575 C   0  0  2  0  0  0  0  0  0  0  0  0
   23.8405   -5.7308  -15.2435 C   0  0  0  0  0  0  0  0  0  0  0  0
   21.4319   -6.1331  -15.2943 C   0  0  2  0  0  0  0  0  0  0  0  0
   20.2352   -6.3310  -16.0889 N   0  0  0  0  0  0  0  0  0  0  0  0
   21.2785   -4.8702  -14.5594 C   0  0  0  0  0  0  0  0  0  0  0  0
   21.8492   -4.7197  -13.4615 O   0  0  0  0  0  0  0  0  0  0  0  0
   20.5121   -3.8540  -15.0708 O   0  0  0  0  0  0  0  0  0  0  0  0
  2  1  1  0
  3  2  1  0
  3  4  1  6
  5  3  1  0
  5  9  1  0
  6  5  2  0
  8 10  1  0
  8  9  1  0
  8  7  1  1
 10 17  1  0
 11 10  2  0
 13 12  1  0
 14 13  1  0
 14 15  1  1
 16 14  1  0
 16 17  1  6
 18 16  1  0
 19 18  2  0
 20 18  1  0
M  END
$$$$
