SAI.pdb
     RDKit          3D

 20 19  0  0  1  0  0  0  0  0999 V2000
   22.9531  -14.3333  -19.7377 O   0  0  0  0  0  0  0  0  0  0  0  0
   23.4535  -13.7935  -18.5795 C   0  0  0  0  0  0  0  0  0  0  0  0
   23.9667  -12.3808  -18.7661 C   0  0  2  0  0  0  0  0  0  0  0  0
   25.3033  -12.3850  -19.3219 N   0  0  0  0  0  0  0  0  0  0  0  0
   23.8940  -11.5983  -17.5102 C   0  0  0  0  0  0  0  0  0  0  0  0
   22.7795  -11.3898  -16.9258 O   0  0  0  0  0  0  0  0  0  0  0  0
   26.2836  -10.0700  -15.0906 C   0  0  0  0  0  0  0  0  0  0  0  0
   24.9094  -10.1756  -15.7203 C   0  0  2  0  0  0  0  0  0  0  0  0
   25.0360  -11.0363  -16.8803 N   0  0  0  0  0  0  0  0  0  0  0  0
   24.4565   -8.8159  -16.0906 C   0  0  0  0  0  0  0  0  0  0  0  0
   24.9370   -8.2764  -17.1266 O   0  0  0  0  0  0  0  0  0  0  0  0
   19.8145   -5.7831  -17.6365 C   0  0  0  0  0  0  0  0  0  0  0  0
   21.1068   -5.5410  -16.8679 C   0  0  0  0  0  0  0  0  0  0  0  0
   21.6646   -6.9140  -16.4929 C   0  0  2  0  0  0  0  0  0  0  0  0
   20.6827   -7.5353  -15.5230 C   0  0  0  0  0  0  0  0  0  0  0  0
   22.9911   -6.7792  -15.7785 C   0  0  2  0  0  0  0  0  0  0  0  0
   23.5116   -8.0659  -15.3588 N   0  0  0  0  0  0  0  0  0  0  0  0
   22.7716   -5.9692  -14.5726 C   0  0  0  0  0  0  0  0  0  0  0  0
   22.6281   -6.5295  -13.4684 O   0  0  0  0  0  0  0  0  0  0  0  0
   22.7230   -4.6006  -14.6507 O   0  0  0  0  0  0  0  0  0  0  0  0
  2  1  1  0
  3  2  1  0
  3  4  1  1
  5  3  1  0
  5  9  1  0
  6  5  2  0
  8 10  1  0
  8  9  1  0
  8  7  1  6
 10 17  1  0
 11 10  2  0
 13 12  1  0
 14 13  1  0
 14 15  1  1
 16 14  1  0
 16 17  1  1
 18 16  1  0
 19 18  2  0
 20 18  1  0
M  END
$$$$
