KWH.pdb
     RDKit          3D

 34 36  0  0  1  0  0  0  0  0999 V2000
   10.9014  -16.5347   19.0023 N   0  0  0  0  0  0  0  0  0  0  0  0
   10.0601  -17.3625   19.8673 C   0  0  1  0  0  0  0  0  0  0  0  0
   10.8066  -18.6772   20.1332 C   0  0  0  0  0  0  0  0  0  0  0  0
   10.4263  -19.6321   19.0176 C   0  0  0  0  0  0  0  0  0  0  0  0
   11.1428  -20.9454   19.1377 C   0  0  0  0  0  0  0  0  0  0  0  0
   10.8119  -21.8961   18.0207 C   0  0  0  0  0  0  0  0  0  0  0  0
   11.5558  -23.1418   18.2075 N   0  0  0  0  0  0  0  0  0  0  0  0
    9.8656  -16.6114   21.1313 C   0  0  0  0  0  0  0  0  0  0  0  0
   10.7339  -15.8418   21.5483 O   0  0  0  0  0  0  0  0  0  0  0  0
    8.6793  -16.7405   21.9159 N   0  0  0  0  0  0  0  0  0  0  0  0
    8.4510  -16.0869   23.1504 C   0  0  1  0  0  0  0  0  0  0  0  0
    7.0338  -15.7359   23.4858 C   0  0  0  0  0  0  0  0  0  0  0  0
    6.9206  -15.0584   24.7792 C   0  0  0  0  0  0  0  0  0  0  0  0
    6.6234  -15.6253   26.0055 C   0  0  0  0  0  0  0  0  0  0  0  0
    6.6343  -14.6555   26.9328 N   0  0  0  0  0  0  0  0  0  0  0  0
    6.9209  -13.4769   26.3965 C   0  0  0  0  0  0  0  0  0  0  0  0
    7.0368  -12.2209   26.9456 C   0  0  0  0  0  0  0  0  0  0  0  0
    7.3450  -11.1668   26.1114 C   0  0  0  0  0  0  0  0  0  0  0  0
    7.5320  -11.3532   24.7734 C   0  0  0  0  0  0  0  0  0  0  0  0
    7.4086  -12.6371   24.2415 C   0  0  0  0  0  0  0  0  0  0  0  0
    7.1049  -13.7070   25.0384 C   0  0  0  0  0  0  0  0  0  0  0  0
    9.0771  -16.8821   24.2328 C   0  0  0  0  0  0  0  0  0  0  0  0
    8.7688  -18.1150   24.3855 O   0  0  0  0  0  0  0  0  0  0  0  0
   10.0189  -16.3784   25.1436 N   0  0  0  0  0  0  0  0  0  0  0  0
   10.7687  -17.2568   26.0734 C   0  0  1  0  0  0  0  0  0  0  0  0
   12.1934  -16.8228   26.1602 C   0  0  0  0  0  0  0  0  0  0  0  0
   12.8876  -17.0849   24.8801 C   0  0  0  0  0  0  0  0  0  0  0  0
   13.1922  -16.2922   23.8051 C   0  0  0  0  0  0  0  0  0  0  0  0
   13.9132  -16.9746   22.8747 N   0  0  0  0  0  0  0  0  0  0  0  0
   14.0693  -18.2047   23.3586 C   0  0  0  0  0  0  0  0  0  0  0  0
   13.4672  -18.2936   24.5517 N   0  0  0  0  0  0  0  0  0  0  0  0
   10.1420  -16.9180   27.3940 C   0  0  0  0  0  0  0  0  0  0  0  0
    9.2117  -16.1165   27.4709 O   0  0  0  0  0  0  0  0  0  0  0  0
   10.5917  -17.4969   28.5603 O   0  0  0  0  0  0  0  0  0  0  0  0
  2  1  1  6
  2  3  1  0
  3  4  1  0
  4  5  1  0
  6  5  1  0
  7  6  1  0
  8  2  1  0
  8  9  2  0
 10  8  1  0
 11 22  1  0
 11 10  1  0
 11 12  1  1
 13 14  2  0
 13 12  1  0
 15 14  1  0
 16 21  2  0
 16 15  1  0
 17 16  1  0
 18 19  1  0
 18 17  2  0
 19 20  2  0
 20 21  1  0
 21 13  1  0
 22 23  2  0
 22 24  1  0
 24 25  1  0
 25 26  1  1
 26 27  1  0
 27 31  1  0
 28 27  2  0
 28 29  1  0
 29 30  1  0
 31 30  2  0
 32 25  1  0
 33 32  2  0
 34 32  1  0
M  END
$$$$
