KWH.pdb
     RDKit          3D

 34 36  0  0  1  0  0  0  0  0999 V2000
    5.7445  -19.5368   23.2287 N   0  0  0  0  0  0  0  0  0  0  0  0
    5.7496  -18.6997   22.0285 C   0  0  1  0  0  0  0  0  0  0  0  0
    4.3084  -18.2402   21.7677 C   0  0  0  0  0  0  0  0  0  0  0  0
    3.4975  -19.4862   21.4662 C   0  0  0  0  0  0  0  0  0  0  0  0
    2.4189  -19.2203   20.4570 C   0  0  0  0  0  0  0  0  0  0  0  0
    1.1516  -19.9777   20.7425 C   0  0  0  0  0  0  0  0  0  0  0  0
    0.1309  -19.6018   19.7642 N   0  0  0  0  0  0  0  0  0  0  0  0
    6.6219  -17.5349   22.3154 C   0  0  0  0  0  0  0  0  0  0  0  0
    6.5278  -16.4980   21.6551 O   0  0  0  0  0  0  0  0  0  0  0  0
    7.5994  -17.5570   23.3563 N   0  0  0  0  0  0  0  0  0  0  0  0
    8.5074  -16.5078   23.6355 C   0  0  1  0  0  0  0  0  0  0  0  0
    8.6557  -16.0959   25.0682 C   0  0  0  0  0  0  0  0  0  0  0  0
    7.4888  -15.3587   25.5578 C   0  0  0  0  0  0  0  0  0  0  0  0
    6.2455  -15.8684   25.8861 C   0  0  0  0  0  0  0  0  0  0  0  0
    5.4713  -14.8560   26.3057 N   0  0  0  0  0  0  0  0  0  0  0  0
    6.1255  -13.7027   26.2760 C   0  0  0  0  0  0  0  0  0  0  0  0
    5.7454  -12.4217   26.6033 C   0  0  0  0  0  0  0  0  0  0  0  0
    6.6675  -11.4067   26.4561 C   0  0  0  0  0  0  0  0  0  0  0  0
    7.9278  -11.6552   25.9978 C   0  0  0  0  0  0  0  0  0  0  0  0
    8.2880  -12.9633   25.6728 C   0  0  0  0  0  0  0  0  0  0  0  0
    7.4003  -13.9957   25.8069 C   0  0  0  0  0  0  0  0  0  0  0  0
    9.8202  -16.8421   23.0349 C   0  0  0  0  0  0  0  0  0  0  0  0
   10.2693  -18.0392   23.0965 O   0  0  0  0  0  0  0  0  0  0  0  0
   10.6487  -15.9199   22.3767 N   0  0  0  0  0  0  0  0  0  0  0  0
   11.9138  -16.3233   21.7168 C   0  0  1  0  0  0  0  0  0  0  0  0
   12.4824  -15.1803   20.9448 C   0  0  0  0  0  0  0  0  0  0  0  0
   13.7838  -15.5597   20.3517 C   0  0  0  0  0  0  0  0  0  0  0  0
   14.1386  -16.4524   19.3751 C   0  0  0  0  0  0  0  0  0  0  0  0
   15.4738  -16.4016   19.1186 N   0  0  0  0  0  0  0  0  0  0  0  0
   15.9706  -15.4733   19.9329 C   0  0  0  0  0  0  0  0  0  0  0  0
   14.9828  -14.9582   20.6764 N   0  0  0  0  0  0  0  0  0  0  0  0
   12.8231  -16.5347   22.8915 C   0  0  0  0  0  0  0  0  0  0  0  0
   12.6415  -15.9397   23.9530 O   0  0  0  0  0  0  0  0  0  0  0  0
   13.8893  -17.4035   22.8141 O   0  0  0  0  0  0  0  0  0  0  0  0
  2  1  1  1
  2  3  1  0
  3  4  1  0
  4  5  1  0
  6  5  1  0
  7  6  1  0
  8  2  1  0
  8  9  2  0
 10  8  1  0
 11 22  1  0
 11 10  1  0
 11 12  1  1
 13 14  2  0
 13 12  1  0
 15 14  1  0
 16 21  2  0
 16 15  1  0
 17 16  1  0
 18 19  1  0
 18 17  2  0
 19 20  2  0
 20 21  1  0
 21 13  1  0
 22 23  2  0
 22 24  1  0
 24 25  1  0
 25 26  1  6
 26 27  1  0
 27 31  1  0
 28 27  2  0
 28 29  1  0
 29 30  1  0
 31 30  2  0
 32 25  1  0
 33 32  2  0
 34 32  1  0
M  END
$$$$
