KWH.pdb
     RDKit          3D

 34 36  0  0  1  0  0  0  0  0999 V2000
    8.0197  -16.6455   20.8613 N   0  0  0  0  0  0  0  0  0  0  0  0
    8.9132  -15.4920   20.9725 C   0  0  1  0  0  0  0  0  0  0  0  0
    8.1206  -14.2407   20.5696 C   0  0  0  0  0  0  0  0  0  0  0  0
    8.6459  -13.8049   19.2150 C   0  0  0  0  0  0  0  0  0  0  0  0
    7.5433  -13.6674   18.2060 C   0  0  0  0  0  0  0  0  0  0  0  0
    8.0510  -13.3726   16.8217 C   0  0  0  0  0  0  0  0  0  0  0  0
    6.9165  -13.2272   15.9096 N   0  0  0  0  0  0  0  0  0  0  0  0
    9.3346  -15.4047   22.3919 C   0  0  0  0  0  0  0  0  0  0  0  0
   10.2245  -14.6252   22.7395 O   0  0  0  0  0  0  0  0  0  0  0  0
    8.7383  -16.2075   23.4114 N   0  0  0  0  0  0  0  0  0  0  0  0
    9.1533  -16.2367   24.7642 C   0  0  1  0  0  0  0  0  0  0  0  0
    8.0877  -16.4133   25.8021 C   0  0  0  0  0  0  0  0  0  0  0  0
    7.1001  -15.3322   25.7736 C   0  0  0  0  0  0  0  0  0  0  0  0
    5.7782  -15.4072   25.3733 C   0  0  0  0  0  0  0  0  0  0  0  0
    5.2235  -14.1940   25.5183 N   0  0  0  0  0  0  0  0  0  0  0  0
    6.0978  -13.3160   25.9911 C   0  0  0  0  0  0  0  0  0  0  0  0
    5.9867  -11.9778   26.2897 C   0  0  0  0  0  0  0  0  0  0  0  0
    7.0992  -11.3187   26.7695 C   0  0  0  0  0  0  0  0  0  0  0  0
    8.2855  -11.9676   26.9470 C   0  0  0  0  0  0  0  0  0  0  0  0
    8.3718  -13.3251   26.6364 C   0  0  0  0  0  0  0  0  0  0  0  0
    7.2889  -14.0119   26.1592 C   0  0  0  0  0  0  0  0  0  0  0  0
   10.2204  -17.2542   24.9127 C   0  0  0  0  0  0  0  0  0  0  0  0
   10.1061  -18.3939   24.3410 O   0  0  0  0  0  0  0  0  0  0  0  0
   11.3952  -17.0681   25.6578 N   0  0  0  0  0  0  0  0  0  0  0  0
   12.3906  -18.1502   25.8492 C   0  0  1  0  0  0  0  0  0  0  0  0
   13.7750  -17.5986   25.7792 C   0  0  0  0  0  0  0  0  0  0  0  0
   14.0917  -17.1833   24.3949 C   0  0  0  0  0  0  0  0  0  0  0  0
   13.3857  -17.2327   23.2219 C   0  0  0  0  0  0  0  0  0  0  0  0
   14.0792  -16.6590   22.2016 N   0  0  0  0  0  0  0  0  0  0  0  0
   15.2292  -16.2419   22.7261 C   0  0  0  0  0  0  0  0  0  0  0  0
   15.2589  -16.5430   24.0308 N   0  0  0  0  0  0  0  0  0  0  0  0
   12.1601  -18.5347   27.2811 C   0  0  0  0  0  0  0  0  0  0  0  0
   12.8598  -19.3824   27.8338 O   0  0  0  0  0  0  0  0  0  0  0  0
   11.1561  -17.9473   28.0190 O   0  0  0  0  0  0  0  0  0  0  0  0
  2  1  1  1
  2  3  1  0
  3  4  1  0
  4  5  1  0
  6  5  1  0
  7  6  1  0
  8  2  1  0
  8  9  2  0
 10  8  1  0
 11 22  1  0
 11 10  1  0
 11 12  1  1
 13 14  2  0
 13 12  1  0
 15 14  1  0
 16 21  2  0
 16 15  1  0
 17 16  1  0
 18 19  1  0
 18 17  2  0
 19 20  2  0
 20 21  1  0
 21 13  1  0
 22 23  2  0
 22 24  1  0
 24 25  1  0
 25 26  1  1
 26 27  1  0
 27 31  1  0
 28 27  2  0
 28 29  1  0
 29 30  1  0
 31 30  2  0
 32 25  1  0
 33 32  2  0
 34 32  1  0
M  END
$$$$
