KWH.pdb
     RDKit          3D

 34 36  0  0  1  0  0  0  0  0999 V2000
    6.9923  -16.9418   19.0533 N   0  0  0  0  0  0  0  0  0  0  0  0
    8.3924  -17.2949   19.2904 C   0  0  1  0  0  0  0  0  0  0  0  0
    9.1960  -16.9013   18.0431 C   0  0  0  0  0  0  0  0  0  0  0  0
    8.1947  -16.4289   17.0062 C   0  0  0  0  0  0  0  0  0  0  0  0
    8.8643  -16.0333   15.7225 C   0  0  0  0  0  0  0  0  0  0  0  0
    7.8985  -15.5059   14.6978 C   0  0  0  0  0  0  0  0  0  0  0  0
    8.5467  -14.4516   13.9177 N   0  0  0  0  0  0  0  0  0  0  0  0
    8.8440  -16.5128   20.4669 C   0  0  0  0  0  0  0  0  0  0  0  0
   10.0299  -16.2038   20.6021 O   0  0  0  0  0  0  0  0  0  0  0  0
    7.9398  -16.0847   21.4861 N   0  0  0  0  0  0  0  0  0  0  0  0
    8.3181  -15.4112   22.6721 C   0  0  1  0  0  0  0  0  0  0  0  0
    7.2719  -14.5795   23.3488 C   0  0  0  0  0  0  0  0  0  0  0  0
    7.6828  -14.1517   24.6878 C   0  0  0  0  0  0  0  0  0  0  0  0
    8.6665  -14.7069   25.4862 C   0  0  0  0  0  0  0  0  0  0  0  0
    8.7310  -14.0037   26.6272 N   0  0  0  0  0  0  0  0  0  0  0  0
    7.8486  -13.0137   26.6357 C   0  0  0  0  0  0  0  0  0  0  0  0
    7.5530  -12.0540   27.5759 C   0  0  0  0  0  0  0  0  0  0  0  0
    6.5558  -11.1443   27.2926 C   0  0  0  0  0  0  0  0  0  0  0  0
    5.8727  -11.1861   26.1129 C   0  0  0  0  0  0  0  0  0  0  0  0
    6.1918  -12.1697   25.1763 C   0  0  0  0  0  0  0  0  0  0  0  0
    7.1756  -13.0882   25.4221 C   0  0  0  0  0  0  0  0  0  0  0  0
    8.9107  -16.3944   23.6093 C   0  0  0  0  0  0  0  0  0  0  0  0
    8.2327  -17.4125   23.9865 O   0  0  0  0  0  0  0  0  0  0  0  0
   10.2061  -16.3012   24.1415 N   0  0  0  0  0  0  0  0  0  0  0  0
   11.0719  -17.4902   24.3289 C   0  0  1  0  0  0  0  0  0  0  0  0
   12.3905  -17.2806   23.6635 C   0  0  0  0  0  0  0  0  0  0  0  0
   13.2844  -18.4306   23.9239 C   0  0  0  0  0  0  0  0  0  0  0  0
   13.0481  -19.7420   24.2420 C   0  0  0  0  0  0  0  0  0  0  0  0
   14.2074  -20.4498   24.3192 N   0  0  0  0  0  0  0  0  0  0  0  0
   15.1846  -19.5876   24.0484 C   0  0  0  0  0  0  0  0  0  0  0  0
   14.6588  -18.3791   23.8097 N   0  0  0  0  0  0  0  0  0  0  0  0
   11.3329  -17.4547   25.8061 C   0  0  0  0  0  0  0  0  0  0  0  0
   11.2526  -16.4046   26.4422 O   0  0  0  0  0  0  0  0  0  0  0  0
   11.6701  -18.5999   26.4932 O   0  0  0  0  0  0  0  0  0  0  0  0
  2  1  1  6
  2  3  1  0
  3  4  1  0
  4  5  1  0
  6  5  1  0
  7  6  1  0
  8  2  1  0
  8  9  2  0
 10  8  1  0
 11 22  1  0
 11 10  1  0
 11 12  1  1
 13 14  2  0
 13 12  1  0
 15 14  1  0
 16 21  2  0
 16 15  1  0
 17 16  1  0
 18 19  1  0
 18 17  2  0
 19 20  2  0
 20 21  1  0
 21 13  1  0
 22 23  2  0
 22 24  1  0
 24 25  1  0
 25 26  1  6
 26 27  1  0
 27 31  1  0
 28 27  2  0
 28 29  1  0
 29 30  1  0
 31 30  2  0
 32 25  1  0
 33 32  2  0
 34 32  1  0
M  END
$$$$
