KWH.pdb
     RDKit          3D

 34 36  0  0  1  0  0  0  0  0999 V2000
    9.9751  -18.1991   19.6615 N   0  0  0  0  0  0  0  0  0  0  0  0
   10.9847  -17.1667   19.8981 C   0  0  1  0  0  0  0  0  0  0  0  0
   11.0478  -16.2739   18.6510 C   0  0  0  0  0  0  0  0  0  0  0  0
   10.8161  -17.1751   17.4530 C   0  0  0  0  0  0  0  0  0  0  0  0
   11.7228  -16.8273   16.3086 C   0  0  0  0  0  0  0  0  0  0  0  0
   11.4862  -17.6825   15.0947 C   0  0  0  0  0  0  0  0  0  0  0  0
   12.3096  -17.1934   13.9888 N   0  0  0  0  0  0  0  0  0  0  0  0
   10.5368  -16.3833   21.0752 C   0  0  0  0  0  0  0  0  0  0  0  0
   11.1556  -15.3809   21.4389 O   0  0  0  0  0  0  0  0  0  0  0  0
    9.3826  -16.7463   21.8338 N   0  0  0  0  0  0  0  0  0  0  0  0
    8.8800  -16.0196   22.9395 C   0  0  1  0  0  0  0  0  0  0  0  0
    7.3923  -15.9764   23.1094 C   0  0  0  0  0  0  0  0  0  0  0  0
    6.9910  -15.2296   24.3035 C   0  0  0  0  0  0  0  0  0  0  0  0
    6.3525  -15.7179   25.4292 C   0  0  0  0  0  0  0  0  0  0  0  0
    6.1837  -14.7042   26.2921 N   0  0  0  0  0  0  0  0  0  0  0  0
    6.6718  -13.5703   25.8075 C   0  0  0  0  0  0  0  0  0  0  0  0
    6.7197  -12.2957   26.3227 C   0  0  0  0  0  0  0  0  0  0  0  0
    7.2979  -11.3021   25.5607 C   0  0  0  0  0  0  0  0  0  0  0  0
    7.8122  -11.5652   24.3253 C   0  0  0  0  0  0  0  0  0  0  0  0
    7.7510  -12.8665   23.8258 C   0  0  0  0  0  0  0  0  0  0  0  0
    7.1858  -13.8778   24.5535 C   0  0  0  0  0  0  0  0  0  0  0  0
    9.5466  -16.5050   24.1707 C   0  0  0  0  0  0  0  0  0  0  0  0
    9.8909  -17.7336   24.2737 O   0  0  0  0  0  0  0  0  0  0  0  0
    9.8453  -15.6996   25.2808 N   0  0  0  0  0  0  0  0  0  0  0  0
   10.5146  -16.2359   26.4903 C   0  0  1  0  0  0  0  0  0  0  0  0
   10.5862  -15.1883   27.5500 C   0  0  0  0  0  0  0  0  0  0  0  0
   11.1680  -15.7513   28.7884 C   0  0  0  0  0  0  0  0  0  0  0  0
   12.1187  -16.7100   29.0200 C   0  0  0  0  0  0  0  0  0  0  0  0
   12.3764  -16.8415   30.3494 N   0  0  0  0  0  0  0  0  0  0  0  0
   11.5889  -15.9634   30.9662 C   0  0  0  0  0  0  0  0  0  0  0  0
   10.8606  -15.3027   30.0569 N   0  0  0  0  0  0  0  0  0  0  0  0
    9.5220  -17.2546   26.9685 C   0  0  0  0  0  0  0  0  0  0  0  0
    8.3163  -17.1114   26.7701 O   0  0  0  0  0  0  0  0  0  0  0  0
    9.9343  -18.3817   27.6447 O   0  0  0  0  0  0  0  0  0  0  0  0
  2  1  1  6
  2  3  1  0
  3  4  1  0
  4  5  1  0
  6  5  1  0
  7  6  1  0
  8  2  1  0
  8  9  2  0
 10  8  1  0
 11 22  1  0
 11 10  1  0
 11 12  1  1
 13 14  2  0
 13 12  1  0
 15 14  1  0
 16 21  2  0
 16 15  1  0
 17 16  1  0
 18 19  1  0
 18 17  2  0
 19 20  2  0
 20 21  1  0
 21 13  1  0
 22 23  2  0
 22 24  1  0
 24 25  1  0
 25 26  1  1
 26 27  1  0
 27 31  1  0
 28 27  2  0
 28 29  1  0
 29 30  1  0
 31 30  2  0
 32 25  1  0
 33 32  2  0
 34 32  1  0
M  END
$$$$
