KWH.pdb
     RDKit          3D

 34 36  0  0  1  0  0  0  0  0999 V2000
    6.6796  -15.0718   20.3904 N   0  0  0  0  0  0  0  0  0  0  0  0
    7.3256  -16.2483   20.9732 C   0  0  1  0  0  0  0  0  0  0  0  0
    8.2658  -16.8428   19.9153 C   0  0  0  0  0  0  0  0  0  0  0  0
    7.3916  -17.5560   18.9014 C   0  0  0  0  0  0  0  0  0  0  0  0
    8.2071  -18.2345   17.8396 C   0  0  0  0  0  0  0  0  0  0  0  0
    7.3617  -18.8933   16.7850 C   0  0  0  0  0  0  0  0  0  0  0  0
    8.2278  -19.4372   15.7389 N   0  0  0  0  0  0  0  0  0  0  0  0
    8.0979  -15.7811   22.1501 C   0  0  0  0  0  0  0  0  0  0  0  0
    8.7205  -14.7175   22.1149 O   0  0  0  0  0  0  0  0  0  0  0  0
    8.1568  -16.5296   23.3649 N   0  0  0  0  0  0  0  0  0  0  0  0
    8.9179  -16.1674   24.5019 C   0  0  1  0  0  0  0  0  0  0  0  0
    8.1982  -16.1052   25.8143 C   0  0  0  0  0  0  0  0  0  0  0  0
    7.1468  -15.0858   25.8233 C   0  0  0  0  0  0  0  0  0  0  0  0
    5.7924  -15.2686   25.6102 C   0  0  0  0  0  0  0  0  0  0  0  0
    5.1828  -14.0784   25.7215 N   0  0  0  0  0  0  0  0  0  0  0  0
    6.0512  -13.1142   25.9957 C   0  0  0  0  0  0  0  0  0  0  0  0
    5.8920  -11.7615   26.1889 C   0  0  0  0  0  0  0  0  0  0  0  0
    7.0113  -11.0017   26.4575 C   0  0  0  0  0  0  0  0  0  0  0  0
    8.2503  -11.5668   26.5316 C   0  0  0  0  0  0  0  0  0  0  0  0
    8.3845  -12.9411   26.3316 C   0  0  0  0  0  0  0  0  0  0  0  0
    7.2968  -13.7267   26.0640 C   0  0  0  0  0  0  0  0  0  0  0  0
   10.1040  -17.0521   24.5822 C   0  0  0  0  0  0  0  0  0  0  0  0
    9.9881  -18.3055   24.3499 O   0  0  0  0  0  0  0  0  0  0  0  0
   11.3984  -16.6155   24.9047 N   0  0  0  0  0  0  0  0  0  0  0  0
   12.5415  -17.5517   25.0280 C   0  0  1  0  0  0  0  0  0  0  0  0
   13.8304  -16.8213   24.8521 C   0  0  0  0  0  0  0  0  0  0  0  0
   13.9993  -16.4131   23.4399 C   0  0  0  0  0  0  0  0  0  0  0  0
   13.2417  -16.6094   22.3156 C   0  0  0  0  0  0  0  0  0  0  0  0
   13.7797  -15.9754   21.2386 N   0  0  0  0  0  0  0  0  0  0  0  0
   14.8820  -15.3727   21.6783 C   0  0  0  0  0  0  0  0  0  0  0  0
   15.0329  -15.6192   22.9861 N   0  0  0  0  0  0  0  0  0  0  0  0
   12.4697  -17.9407   26.4754 C   0  0  0  0  0  0  0  0  0  0  0  0
   11.6127  -17.4674   27.2206 O   0  0  0  0  0  0  0  0  0  0  0  0
   13.3634  -18.8413   27.0116 O   0  0  0  0  0  0  0  0  0  0  0  0
  2  1  1  6
  2  3  1  0
  3  4  1  0
  4  5  1  0
  6  5  1  0
  7  6  1  0
  8  2  1  0
  8  9  2  0
 10  8  1  0
 11 22  1  0
 11 10  1  0
 11 12  1  1
 13 14  2  0
 13 12  1  0
 15 14  1  0
 16 21  2  0
 16 15  1  0
 17 16  1  0
 18 19  1  0
 18 17  2  0
 19 20  2  0
 20 21  1  0
 21 13  1  0
 22 23  2  0
 22 24  1  0
 24 25  1  0
 25 26  1  1
 26 27  1  0
 27 31  1  0
 28 27  2  0
 28 29  1  0
 29 30  1  0
 31 30  2  0
 32 25  1  0
 33 32  2  0
 34 32  1  0
M  END
$$$$
