KWH.pdb
     RDKit          3D

 34 36  0  0  1  0  0  0  0  0999 V2000
    7.2085  -16.5528   21.2345 N   0  0  0  0  0  0  0  0  0  0  0  0
    8.3846  -15.7159   20.9945 C   0  0  1  0  0  0  0  0  0  0  0  0
    7.8952  -14.3340   20.5392 C   0  0  0  0  0  0  0  0  0  0  0  0
    7.4279  -14.4841   19.1039 C   0  0  0  0  0  0  0  0  0  0  0  0
    8.0547  -13.4609   18.2024 C   0  0  0  0  0  0  0  0  0  0  0  0
    7.5127  -13.5067   16.8005 C   0  0  0  0  0  0  0  0  0  0  0  0
    8.1087  -12.4262   16.0145 N   0  0  0  0  0  0  0  0  0  0  0  0
    9.1123  -15.6103   22.2826 C   0  0  0  0  0  0  0  0  0  0  0  0
   10.1476  -14.9464   22.3702 O   0  0  0  0  0  0  0  0  0  0  0  0
    8.6555  -16.2628   23.4680 N   0  0  0  0  0  0  0  0  0  0  0  0
    9.2961  -16.1920   24.7281 C   0  0  1  0  0  0  0  0  0  0  0  0
    8.4229  -16.2643   25.9433 C   0  0  0  0  0  0  0  0  0  0  0  0
    7.3294  -15.2911   25.9002 C   0  0  0  0  0  0  0  0  0  0  0  0
    5.9953  -15.5324   25.6261 C   0  0  0  0  0  0  0  0  0  0  0  0
    5.3308  -14.3693   25.7047 N   0  0  0  0  0  0  0  0  0  0  0  0
    6.1436  -13.3681   26.0145 C   0  0  0  0  0  0  0  0  0  0  0  0
    5.9179  -12.0232   26.1948 C   0  0  0  0  0  0  0  0  0  0  0  0
    6.9900  -11.2154   26.5113 C   0  0  0  0  0  0  0  0  0  0  0  0
    8.2474  -11.7265   26.6442 C   0  0  0  0  0  0  0  0  0  0  0  0
    8.4495  -13.0941   26.4560 C   0  0  0  0  0  0  0  0  0  0  0  0
    7.4098  -13.9263   26.1421 C   0  0  0  0  0  0  0  0  0  0  0  0
   10.3671  -17.2150   24.7757 C   0  0  0  0  0  0  0  0  0  0  0  0
   10.1122  -18.4281   24.4562 O   0  0  0  0  0  0  0  0  0  0  0  0
   11.6931  -16.9575   25.1571 N   0  0  0  0  0  0  0  0  0  0  0  0
   12.7109  -18.0312   25.2556 C   0  0  1  0  0  0  0  0  0  0  0  0
   14.0434  -17.5233   24.8175 C   0  0  0  0  0  0  0  0  0  0  0  0
   14.0071  -17.1601   23.3836 C   0  0  0  0  0  0  0  0  0  0  0  0
   14.0820  -15.9623   22.7229 C   0  0  0  0  0  0  0  0  0  0  0  0
   14.0730  -16.1391   21.3739 N   0  0  0  0  0  0  0  0  0  0  0  0
   13.9935  -17.4527   21.1747 C   0  0  0  0  0  0  0  0  0  0  0  0
   13.9532  -18.0809   22.3570 N   0  0  0  0  0  0  0  0  0  0  0  0
   12.8031  -18.2366   26.7391 C   0  0  0  0  0  0  0  0  0  0  0  0
   12.0818  -17.6110   27.5150 O   0  0  0  0  0  0  0  0  0  0  0  0
   13.7002  -19.1341   27.2751 O   0  0  0  0  0  0  0  0  0  0  0  0
  2  1  1  1
  2  3  1  0
  3  4  1  0
  4  5  1  0
  6  5  1  0
  7  6  1  0
  8  2  1  0
  8  9  2  0
 10  8  1  0
 11 22  1  0
 11 10  1  0
 11 12  1  1
 13 14  2  0
 13 12  1  0
 15 14  1  0
 16 21  2  0
 16 15  1  0
 17 16  1  0
 18 19  1  0
 18 17  2  0
 19 20  2  0
 20 21  1  0
 21 13  1  0
 22 23  2  0
 22 24  1  0
 24 25  1  0
 25 26  1  1
 26 27  1  0
 27 31  1  0
 28 27  2  0
 28 29  1  0
 29 30  1  0
 31 30  2  0
 32 25  1  0
 33 32  2  0
 34 32  1  0
M  END
$$$$
