KWH.pdb
     RDKit          3D

 34 36  0  0  1  0  0  0  0  0999 V2000
    6.3881  -15.2858   20.9884 N   0  0  0  0  0  0  0  0  0  0  0  0
    7.8330  -15.1333   20.8145 C   0  0  1  0  0  0  0  0  0  0  0  0
    8.0774  -13.8601   19.9924 C   0  0  0  0  0  0  0  0  0  0  0  0
    8.4277  -14.3059   18.5854 C   0  0  0  0  0  0  0  0  0  0  0  0
    7.5800  -13.6194   17.5545 C   0  0  0  0  0  0  0  0  0  0  0  0
    7.8485  -14.1075   16.1578 C   0  0  0  0  0  0  0  0  0  0  0  0
    6.9951  -13.3808   15.2176 N   0  0  0  0  0  0  0  0  0  0  0  0
    8.4213  -14.9972   22.1692 C   0  0  0  0  0  0  0  0  0  0  0  0
    8.6279  -13.8847   22.6589 O   0  0  0  0  0  0  0  0  0  0  0  0
    8.7717  -16.1323   22.9619 N   0  0  0  0  0  0  0  0  0  0  0  0
    9.3812  -16.0706   24.2378 C   0  0  1  0  0  0  0  0  0  0  0  0
    8.5297  -16.4211   25.4194 C   0  0  0  0  0  0  0  0  0  0  0  0
    7.4021  -15.5012   25.5837 C   0  0  0  0  0  0  0  0  0  0  0  0
    6.0623  -15.7594   25.3562 C   0  0  0  0  0  0  0  0  0  0  0  0
    5.3637  -14.6503   25.6432 N   0  0  0  0  0  0  0  0  0  0  0  0
    6.1590  -13.6692   26.0479 C   0  0  0  0  0  0  0  0  0  0  0  0
    5.8981  -12.3755   26.4363 C   0  0  0  0  0  0  0  0  0  0  0  0
    6.9593  -11.5750   26.8040 C   0  0  0  0  0  0  0  0  0  0  0  0
    8.2399  -12.0438   26.7864 C   0  0  0  0  0  0  0  0  0  0  0  0
    8.4775  -13.3597   26.3883 C   0  0  0  0  0  0  0  0  0  0  0  0
    7.4497  -14.1833   26.0177 C   0  0  0  0  0  0  0  0  0  0  0  0
   10.6221  -16.8803   24.2120 C   0  0  0  0  0  0  0  0  0  0  0  0
   10.5555  -18.1573   24.1542 O   0  0  0  0  0  0  0  0  0  0  0  0
   11.9191  -16.3448   24.2470 N   0  0  0  0  0  0  0  0  0  0  0  0
   13.1276  -17.2017   24.3075 C   0  0  1  0  0  0  0  0  0  0  0  0
   14.3370  -16.4195   23.9191 C   0  0  0  0  0  0  0  0  0  0  0  0
   14.2973  -16.0978   22.4754 C   0  0  0  0  0  0  0  0  0  0  0  0
   13.4316  -16.4346   21.4685 C   0  0  0  0  0  0  0  0  0  0  0  0
   13.7763  -15.8344   20.2972 N   0  0  0  0  0  0  0  0  0  0  0  0
   14.8635  -15.1124   20.5588 C   0  0  0  0  0  0  0  0  0  0  0  0
   15.1920  -15.2537   21.8495 N   0  0  0  0  0  0  0  0  0  0  0  0
   13.2485  -17.4647   25.7798 C   0  0  0  0  0  0  0  0  0  0  0  0
   14.2052  -18.0869   26.2394 O   0  0  0  0  0  0  0  0  0  0  0  0
   12.2892  -17.0153   26.6603 O   0  0  0  0  0  0  0  0  0  0  0  0
  2  1  1  1
  2  3  1  0
  3  4  1  0
  4  5  1  0
  6  5  1  0
  7  6  1  0
  8  2  1  0
  8  9  2  0
 10  8  1  0
 11 22  1  0
 11 10  1  0
 11 12  1  1
 13 14  2  0
 13 12  1  0
 15 14  1  0
 16 21  2  0
 16 15  1  0
 17 16  1  0
 18 19  1  0
 18 17  2  0
 19 20  2  0
 20 21  1  0
 21 13  1  0
 22 23  2  0
 22 24  1  0
 24 25  1  0
 25 26  1  1
 26 27  1  0
 27 31  1  0
 28 27  2  0
 28 29  1  0
 29 30  1  0
 31 30  2  0
 32 25  1  0
 33 32  2  0
 34 32  1  0
M  END
$$$$
