KWH.pdb
     RDKit          3D

 34 36  0  0  1  0  0  0  0  0999 V2000
   10.6837  -15.5468   18.1892 N   0  0  0  0  0  0  0  0  0  0  0  0
    9.8715  -16.4180   19.0391 C   0  0  1  0  0  0  0  0  0  0  0  0
   10.6277  -17.7420   19.2168 C   0  0  0  0  0  0  0  0  0  0  0  0
   10.8321  -18.3211   17.8298 C   0  0  0  0  0  0  0  0  0  0  0  0
   11.4851  -19.6716   17.8788 C   0  0  0  0  0  0  0  0  0  0  0  0
   10.5538  -20.7544   18.3491 C   0  0  0  0  0  0  0  0  0  0  0  0
   11.2909  -22.0131   18.4613 N   0  0  0  0  0  0  0  0  0  0  0  0
    9.7164  -15.7297   20.3437 C   0  0  0  0  0  0  0  0  0  0  0  0
   10.7033  -15.3608   20.9841 O   0  0  0  0  0  0  0  0  0  0  0  0
    8.4343  -15.4638   20.9138 N   0  0  0  0  0  0  0  0  0  0  0  0
    8.1915  -15.2419   22.2905 C   0  0  1  0  0  0  0  0  0  0  0  0
    6.7735  -14.9891   22.7020 C   0  0  0  0  0  0  0  0  0  0  0  0
    6.6375  -14.8187   24.1502 C   0  0  0  0  0  0  0  0  0  0  0  0
    6.3088  -15.7827   25.0861 C   0  0  0  0  0  0  0  0  0  0  0  0
    6.3073  -15.2101   26.2996 N   0  0  0  0  0  0  0  0  0  0  0  0
    6.6153  -13.9222   26.2269 C   0  0  0  0  0  0  0  0  0  0  0  0
    6.7293  -12.9485   27.1920 C   0  0  0  0  0  0  0  0  0  0  0  0
    7.0645  -11.6703   26.7970 C   0  0  0  0  0  0  0  0  0  0  0  0
    7.2793  -11.3676   25.4847 C   0  0  0  0  0  0  0  0  0  0  0  0
    7.1571  -12.3734   24.5255 C   0  0  0  0  0  0  0  0  0  0  0  0
    6.8272  -13.6530   24.8802 C   0  0  0  0  0  0  0  0  0  0  0  0
    8.7836  -16.3585   23.0641 C   0  0  0  0  0  0  0  0  0  0  0  0
    8.6515  -17.5646   22.6560 O   0  0  0  0  0  0  0  0  0  0  0  0
    9.5072  -16.2009   24.2565 N   0  0  0  0  0  0  0  0  0  0  0  0
   10.4564  -17.2285   24.7477 C   0  0  1  0  0  0  0  0  0  0  0  0
   11.8333  -16.9417   24.2501 C   0  0  0  0  0  0  0  0  0  0  0  0
   12.7696  -17.9966   24.6970 C   0  0  0  0  0  0  0  0  0  0  0  0
   12.5952  -19.1667   25.3877 C   0  0  0  0  0  0  0  0  0  0  0  0
   13.7648  -19.8517   25.5054 N   0  0  0  0  0  0  0  0  0  0  0  0
   14.6864  -19.1168   24.8871 C   0  0  0  0  0  0  0  0  0  0  0  0
   14.1169  -18.0077   24.3978 N   0  0  0  0  0  0  0  0  0  0  0  0
   10.4741  -16.9551   26.2229 C   0  0  0  0  0  0  0  0  0  0  0  0
    9.8041  -16.0456   26.7104 O   0  0  0  0  0  0  0  0  0  0  0  0
   11.2427  -17.7172   27.0750 O   0  0  0  0  0  0  0  0  0  0  0  0
  2  1  1  6
  2  3  1  0
  3  4  1  0
  4  5  1  0
  6  5  1  0
  7  6  1  0
  8  2  1  0
  8  9  2  0
 10  8  1  0
 11 22  1  0
 11 10  1  0
 11 12  1  6
 13 14  2  0
 13 12  1  0
 15 14  1  0
 16 21  2  0
 16 15  1  0
 17 16  1  0
 18 19  1  0
 18 17  2  0
 19 20  2  0
 20 21  1  0
 21 13  1  0
 22 23  2  0
 22 24  1  0
 24 25  1  0
 25 26  1  6
 26 27  1  0
 27 31  1  0
 28 27  2  0
 28 29  1  0
 29 30  1  0
 31 30  2  0
 32 25  1  0
 33 32  2  0
 34 32  1  0
M  END
$$$$
