KWH.pdb
     RDKit          3D

 34 36  0  0  1  0  0  0  0  0999 V2000
    7.8815  -16.7933   21.0488 N   0  0  0  0  0  0  0  0  0  0  0  0
    8.6733  -15.5660   21.1387 C   0  0  1  0  0  0  0  0  0  0  0  0
    7.7751  -14.3935   20.7202 C   0  0  0  0  0  0  0  0  0  0  0  0
    7.4000  -14.6235   19.2686 C   0  0  0  0  0  0  0  0  0  0  0  0
    8.0009  -13.5863   18.3653 C   0  0  0  0  0  0  0  0  0  0  0  0
    7.5517  -13.7242   16.9369 C   0  0  0  0  0  0  0  0  0  0  0  0
    8.2547  -12.7429   16.1104 N   0  0  0  0  0  0  0  0  0  0  0  0
    9.0899  -15.4209   22.5548 C   0  0  0  0  0  0  0  0  0  0  0  0
    9.6707  -14.4043   22.9409 O   0  0  0  0  0  0  0  0  0  0  0  0
    8.8416  -16.4373   23.5268 N   0  0  0  0  0  0  0  0  0  0  0  0
    9.1786  -16.3445   24.8983 C   0  0  1  0  0  0  0  0  0  0  0  0
    8.0654  -16.5051   25.8878 C   0  0  0  0  0  0  0  0  0  0  0  0
    7.1240  -15.3839   25.8516 C   0  0  0  0  0  0  0  0  0  0  0  0
    5.8042  -15.4032   25.4383 C   0  0  0  0  0  0  0  0  0  0  0  0
    5.2991  -14.1681   25.5800 N   0  0  0  0  0  0  0  0  0  0  0  0
    6.2045  -13.3279   26.0629 C   0  0  0  0  0  0  0  0  0  0  0  0
    6.1462  -11.9867   26.3629 C   0  0  0  0  0  0  0  0  0  0  0  0
    7.2804  -11.3752   26.8547 C   0  0  0  0  0  0  0  0  0  0  0  0
    8.4369  -12.0732   27.0426 C   0  0  0  0  0  0  0  0  0  0  0  0
    8.4696  -13.4326   26.7304 C   0  0  0  0  0  0  0  0  0  0  0  0
    7.3638  -14.0731   26.2414 C   0  0  0  0  0  0  0  0  0  0  0  0
   10.2873  -17.2863   25.1807 C   0  0  0  0  0  0  0  0  0  0  0  0
   10.3148  -18.4347   24.6160 O   0  0  0  0  0  0  0  0  0  0  0  0
   11.3548  -17.0162   26.0510 N   0  0  0  0  0  0  0  0  0  0  0  0
   12.3156  -18.0634   26.4736 C   0  0  1  0  0  0  0  0  0  0  0  0
   13.4335  -17.4564   27.2530 C   0  0  0  0  0  0  0  0  0  0  0  0
   14.3177  -18.5146   27.7895 C   0  0  0  0  0  0  0  0  0  0  0  0
   14.0838  -19.6248   28.5572 C   0  0  0  0  0  0  0  0  0  0  0  0
   15.2215  -20.3471   28.7436 N   0  0  0  0  0  0  0  0  0  0  0  0
   16.1824  -19.6962   28.0919 C   0  0  0  0  0  0  0  0  0  0  0  0
   15.6676  -18.6021   27.5160 N   0  0  0  0  0  0  0  0  0  0  0  0
   11.4998  -18.8569   27.4516 C   0  0  0  0  0  0  0  0  0  0  0  0
   10.5364  -18.3570   28.0311 O   0  0  0  0  0  0  0  0  0  0  0  0
   11.8073  -20.1708   27.7284 O   0  0  0  0  0  0  0  0  0  0  0  0
  2  1  1  1
  2  3  1  0
  3  4  1  0
  4  5  1  0
  6  5  1  0
  7  6  1  0
  8  2  1  0
  8  9  2  0
 10  8  1  0
 11 22  1  0
 11 10  1  0
 11 12  1  1
 13 14  2  0
 13 12  1  0
 15 14  1  0
 16 21  2  0
 16 15  1  0
 17 16  1  0
 18 19  1  0
 18 17  2  0
 19 20  2  0
 20 21  1  0
 21 13  1  0
 22 23  2  0
 22 24  1  0
 24 25  1  0
 25 26  1  1
 26 27  1  0
 27 31  1  0
 28 27  2  0
 28 29  1  0
 29 30  1  0
 31 30  2  0
 32 25  1  0
 33 32  2  0
 34 32  1  0
M  END
$$$$
