KWH.pdb
     RDKit          3D

 34 36  0  0  1  0  0  0  0  0999 V2000
    6.7572  -16.3266   21.1336 N   0  0  0  0  0  0  0  0  0  0  0  0
    7.8882  -15.5327   20.6524 C   0  0  1  0  0  0  0  0  0  0  0  0
    7.3409  -14.1917   20.1437 C   0  0  0  0  0  0  0  0  0  0  0  0
    6.8248  -14.4325   18.7378 C   0  0  0  0  0  0  0  0  0  0  0  0
    7.5168  -13.5600   17.7315 C   0  0  0  0  0  0  0  0  0  0  0  0
    7.0239  -13.7818   16.3284 C   0  0  0  0  0  0  0  0  0  0  0  0
    7.6749  -12.8289   15.4292 N   0  0  0  0  0  0  0  0  0  0  0  0
    8.7920  -15.3192   21.8089 C   0  0  0  0  0  0  0  0  0  0  0  0
    9.7201  -14.5102   21.7439 O   0  0  0  0  0  0  0  0  0  0  0  0
    8.6332  -16.0299   23.0374 N   0  0  0  0  0  0  0  0  0  0  0  0
    9.5158  -15.9454   24.1406 C   0  0  1  0  0  0  0  0  0  0  0  0
    8.9301  -16.1619   25.5023 C   0  0  0  0  0  0  0  0  0  0  0  0
    7.7475  -15.3306   25.7368 C   0  0  0  0  0  0  0  0  0  0  0  0
    6.4201  -15.7141   25.6719 C   0  0  0  0  0  0  0  0  0  0  0  0
    5.6581  -14.6507   25.9707 N   0  0  0  0  0  0  0  0  0  0  0  0
    6.3996  -13.5822   26.2303 C   0  0  0  0  0  0  0  0  0  0  0  0
    6.0652  -12.2922   26.5715 C   0  0  0  0  0  0  0  0  0  0  0  0
    7.0826  -11.3835   26.7754 C   0  0  0  0  0  0  0  0  0  0  0  0
    8.3914  -11.7439   26.6444 C   0  0  0  0  0  0  0  0  0  0  0  0
    8.7037  -13.0587   26.2974 C   0  0  0  0  0  0  0  0  0  0  0  0
    7.7212  -13.9877   26.0882 C   0  0  0  0  0  0  0  0  0  0  0  0
   10.6649  -16.8499   23.9010 C   0  0  0  0  0  0  0  0  0  0  0  0
   10.4684  -18.0970   23.6897 O   0  0  0  0  0  0  0  0  0  0  0  0
   12.0071  -16.4395   23.8854 N   0  0  0  0  0  0  0  0  0  0  0  0
   13.1052  -17.3406   23.4604 C   0  0  1  0  0  0  0  0  0  0  0  0
   14.2897  -16.5444   23.0263 C   0  0  0  0  0  0  0  0  0  0  0  0
   13.9330  -15.6779   21.8813 C   0  0  0  0  0  0  0  0  0  0  0  0
   13.0667  -15.8302   20.8310 C   0  0  0  0  0  0  0  0  0  0  0  0
   13.0285  -14.7139   20.0542 N   0  0  0  0  0  0  0  0  0  0  0  0
   13.8714  -13.8477   20.6118 C   0  0  0  0  0  0  0  0  0  0  0  0
   14.4215  -14.3998   21.7011 N   0  0  0  0  0  0  0  0  0  0  0  0
   13.4873  -17.9964   24.7548 C   0  0  0  0  0  0  0  0  0  0  0  0
   14.4457  -18.7651   24.8210 O   0  0  0  0  0  0  0  0  0  0  0  0
   12.7740  -17.7552   25.9083 O   0  0  0  0  0  0  0  0  0  0  0  0
  2  1  1  1
  2  3  1  0
  3  4  1  0
  4  5  1  0
  6  5  1  0
  7  6  1  0
  8  2  1  0
  8  9  2  0
 10  8  1  0
 11 22  1  0
 11 10  1  0
 11 12  1  1
 13 14  2  0
 13 12  1  0
 15 14  1  0
 16 21  2  0
 16 15  1  0
 17 16  1  0
 18 19  1  0
 18 17  2  0
 19 20  2  0
 20 21  1  0
 21 13  1  0
 22 23  2  0
 22 24  1  0
 24 25  1  0
 25 26  1  1
 26 27  1  0
 27 31  1  0
 28 27  2  0
 28 29  1  0
 29 30  1  0
 31 30  2  0
 32 25  1  0
 33 32  2  0
 34 32  1  0
M  END
$$$$
