KWH.pdb
     RDKit          3D

 34 36  0  0  1  0  0  0  0  0999 V2000
    6.8213  -16.3599   21.1306 N   0  0  0  0  0  0  0  0  0  0  0  0
    7.9627  -15.5712   20.6654 C   0  0  1  0  0  0  0  0  0  0  0  0
    7.4223  -14.2591   20.0800 C   0  0  0  0  0  0  0  0  0  0  0  0
    7.6296  -14.3292   18.5790 C   0  0  0  0  0  0  0  0  0  0  0  0
    7.3257  -13.0199   17.9113 C   0  0  0  0  0  0  0  0  0  0  0  0
    7.4073  -13.0956   16.4117 C   0  0  0  0  0  0  0  0  0  0  0  0
    7.0570  -11.7951   15.8405 N   0  0  0  0  0  0  0  0  0  0  0  0
    8.8140  -15.2996   21.8493 C   0  0  0  0  0  0  0  0  0  0  0  0
    9.6308  -14.3762   21.8410 O   0  0  0  0  0  0  0  0  0  0  0  0
    8.7298  -16.0832   23.0403 N   0  0  0  0  0  0  0  0  0  0  0  0
    9.5579  -15.9193   24.1764 C   0  0  1  0  0  0  0  0  0  0  0  0
    8.9276  -16.1353   25.5181 C   0  0  0  0  0  0  0  0  0  0  0  0
    7.7098  -15.3410   25.6940 C   0  0  0  0  0  0  0  0  0  0  0  0
    6.3993  -15.7738   25.6010 C   0  0  0  0  0  0  0  0  0  0  0  0
    5.5916  -14.7308   25.8468 N   0  0  0  0  0  0  0  0  0  0  0  0
    6.2868  -13.6296   26.0976 C   0  0  0  0  0  0  0  0  0  0  0  0
    5.8969  -12.3436   26.3918 C   0  0  0  0  0  0  0  0  0  0  0  0
    6.8749  -11.3936   26.5996 C   0  0  0  0  0  0  0  0  0  0  0  0
    8.1989  -11.7099   26.5174 C   0  0  0  0  0  0  0  0  0  0  0  0
    8.5678  -13.0216   26.2175 C   0  0  0  0  0  0  0  0  0  0  0  0
    7.6256  -13.9908   26.0060 C   0  0  0  0  0  0  0  0  0  0  0  0
   10.7663  -16.7608   24.0098 C   0  0  0  0  0  0  0  0  0  0  0  0
   10.6679  -18.0370   24.0235 O   0  0  0  0  0  0  0  0  0  0  0  0
   12.0643  -16.2576   23.8310 N   0  0  0  0  0  0  0  0  0  0  0  0
   13.2558  -17.1391   23.7885 C   0  0  1  0  0  0  0  0  0  0  0  0
   14.4039  -16.4277   23.1549 C   0  0  0  0  0  0  0  0  0  0  0  0
   14.1361  -16.2012   21.7175 C   0  0  0  0  0  0  0  0  0  0  0  0
   13.2547  -16.7650   20.8331 C   0  0  0  0  0  0  0  0  0  0  0  0
   13.3313  -16.1718   19.6110 N   0  0  0  0  0  0  0  0  0  0  0  0
   14.2628  -15.2270   19.7175 C   0  0  0  0  0  0  0  0  0  0  0  0
   14.7557  -15.2259   20.9629 N   0  0  0  0  0  0  0  0  0  0  0  0
   13.5935  -17.2753   25.2441 C   0  0  0  0  0  0  0  0  0  0  0  0
   12.9121  -16.7282   26.1102 O   0  0  0  0  0  0  0  0  0  0  0  0
   14.6787  -18.0191   25.6525 O   0  0  0  0  0  0  0  0  0  0  0  0
  2  1  1  1
  2  3  1  0
  3  4  1  0
  4  5  1  0
  6  5  1  0
  7  6  1  0
  8  2  1  0
  8  9  2  0
 10  8  1  0
 11 22  1  0
 11 10  1  0
 11 12  1  1
 13 14  2  0
 13 12  1  0
 15 14  1  0
 16 21  2  0
 16 15  1  0
 17 16  1  0
 18 19  1  0
 18 17  2  0
 19 20  2  0
 20 21  1  0
 21 13  1  0
 22 23  2  0
 22 24  1  0
 24 25  1  0
 25 26  1  6
 26 27  1  0
 27 31  1  0
 28 27  2  0
 28 29  1  0
 29 30  1  0
 31 30  2  0
 32 25  1  0
 33 32  2  0
 34 32  1  0
M  END
$$$$
