KWH.pdb
     RDKit          3D

 34 36  0  0  1  0  0  0  0  0999 V2000
    6.4757  -15.5127   20.7581 N   0  0  0  0  0  0  0  0  0  0  0  0
    7.9120  -15.4064   20.4992 C   0  0  1  0  0  0  0  0  0  0  0  0
    8.1270  -14.2660   19.4942 C   0  0  0  0  0  0  0  0  0  0  0  0
    7.6720  -14.7805   18.1417 C   0  0  0  0  0  0  0  0  0  0  0  0
    7.7131  -13.7074   17.0932 C   0  0  0  0  0  0  0  0  0  0  0  0
    7.2979  -14.2012   15.7349 C   0  0  0  0  0  0  0  0  0  0  0  0
    7.1946  -13.0667   14.8171 N   0  0  0  0  0  0  0  0  0  0  0  0
    8.5638  -15.0878   21.7928 C   0  0  0  0  0  0  0  0  0  0  0  0
    8.8481  -13.9248   22.0870 O   0  0  0  0  0  0  0  0  0  0  0  0
    8.8888  -16.0986   22.7480 N   0  0  0  0  0  0  0  0  0  0  0  0
    9.6167  -15.8791   23.9418 C   0  0  1  0  0  0  0  0  0  0  0  0
    8.9500  -16.2596   25.2282 C   0  0  0  0  0  0  0  0  0  0  0  0
    7.7327  -15.4834   25.4737 C   0  0  0  0  0  0  0  0  0  0  0  0
    6.4229  -15.9215   25.3982 C   0  0  0  0  0  0  0  0  0  0  0  0
    5.6159  -14.8968   25.7133 N   0  0  0  0  0  0  0  0  0  0  0  0
    6.3109  -13.8026   25.9938 C   0  0  0  0  0  0  0  0  0  0  0  0
    5.9213  -12.5341   26.3565 C   0  0  0  0  0  0  0  0  0  0  0  0
    6.8987  -11.5870   26.5794 C   0  0  0  0  0  0  0  0  0  0  0  0
    8.2219  -11.8892   26.4460 C   0  0  0  0  0  0  0  0  0  0  0  0
    8.5905  -13.1833   26.0770 C   0  0  0  0  0  0  0  0  0  0  0  0
    7.6488  -14.1492   25.8486 C   0  0  0  0  0  0  0  0  0  0  0  0
   10.9448  -16.5241   23.8147 C   0  0  0  0  0  0  0  0  0  0  0  0
   11.0307  -17.7645   23.5104 O   0  0  0  0  0  0  0  0  0  0  0  0
   12.1684  -15.8641   24.0077 N   0  0  0  0  0  0  0  0  0  0  0  0
   13.4723  -16.5513   23.8459 C   0  0  1  0  0  0  0  0  0  0  0  0
   14.5761  -15.5522   23.7516 C   0  0  0  0  0  0  0  0  0  0  0  0
   15.8853  -16.2391   23.6942 C   0  0  0  0  0  0  0  0  0  0  0  0
   16.2430  -17.5580   23.5981 C   0  0  0  0  0  0  0  0  0  0  0  0
   17.5931  -17.7001   23.5081 N   0  0  0  0  0  0  0  0  0  0  0  0
   18.0967  -16.4686   23.5456 C   0  0  0  0  0  0  0  0  0  0  0  0
   17.0986  -15.5823   23.6560 N   0  0  0  0  0  0  0  0  0  0  0  0
   13.6308  -17.2332   25.1731 C   0  0  0  0  0  0  0  0  0  0  0  0
   14.4963  -18.0894   25.3501 O   0  0  0  0  0  0  0  0  0  0  0  0
   12.8096  -16.9183   26.2333 O   0  0  0  0  0  0  0  0  0  0  0  0
  2  1  1  1
  2  3  1  0
  3  4  1  0
  4  5  1  0
  6  5  1  0
  7  6  1  0
  8  2  1  0
  8  9  2  0
 10  8  1  0
 11 22  1  0
 11 10  1  0
 11 12  1  1
 13 14  2  0
 13 12  1  0
 15 14  1  0
 16 21  2  0
 16 15  1  0
 17 16  1  0
 18 19  1  0
 18 17  2  0
 19 20  2  0
 20 21  1  0
 21 13  1  0
 22 23  2  0
 22 24  1  0
 24 25  1  0
 25 26  1  1
 26 27  1  0
 27 31  1  0
 28 27  2  0
 28 29  1  0
 29 30  1  0
 31 30  2  0
 32 25  1  0
 33 32  2  0
 34 32  1  0
M  END
$$$$
