KWH.pdb
     RDKit          3D

 34 36  0  0  1  0  0  0  0  0999 V2000
    6.4590  -15.0872   20.0218 N   0  0  0  0  0  0  0  0  0  0  0  0
    7.4878  -16.0915   20.2938 C   0  0  1  0  0  0  0  0  0  0  0  0
    8.3951  -16.1839   19.0590 C   0  0  0  0  0  0  0  0  0  0  0  0
    7.6839  -17.0727   18.0565 C   0  0  0  0  0  0  0  0  0  0  0  0
    8.4100  -17.1268   16.7440 C   0  0  0  0  0  0  0  0  0  0  0  0
    7.7106  -17.9820   15.7240 C   0  0  0  0  0  0  0  0  0  0  0  0
    8.4489  -17.9333   14.4619 N   0  0  0  0  0  0  0  0  0  0  0  0
    8.2577  -15.6167   21.4692 C   0  0  0  0  0  0  0  0  0  0  0  0
    8.8292  -14.5244   21.4503 O   0  0  0  0  0  0  0  0  0  0  0  0
    8.3727  -16.3905   22.6641 N   0  0  0  0  0  0  0  0  0  0  0  0
    9.1463  -16.0265   23.7921 C   0  0  1  0  0  0  0  0  0  0  0  0
    8.5429  -16.2694   25.1415 C   0  0  0  0  0  0  0  0  0  0  0  0
    7.4315  -15.3589   25.4250 C   0  0  0  0  0  0  0  0  0  0  0  0
    6.0779  -15.6402   25.3814 C   0  0  0  0  0  0  0  0  0  0  0  0
    5.4048  -14.5316   25.7253 N   0  0  0  0  0  0  0  0  0  0  0  0
    6.2300  -13.5290   25.9950 C   0  0  0  0  0  0  0  0  0  0  0  0
    6.0010  -12.2274   26.3770 C   0  0  0  0  0  0  0  0  0  0  0  0
    7.0880  -11.4032   26.5805 C   0  0  0  0  0  0  0  0  0  0  0  0
    8.3628  -11.8566   26.4096 C   0  0  0  0  0  0  0  0  0  0  0  0
    8.5678  -13.1810   26.0216 C   0  0  0  0  0  0  0  0  0  0  0  0
    7.5139  -14.0279   25.8116 C   0  0  0  0  0  0  0  0  0  0  0  0
   10.4805  -16.6613   23.6790 C   0  0  0  0  0  0  0  0  0  0  0  0
   10.5778  -17.9145   23.4369 O   0  0  0  0  0  0  0  0  0  0  0  0
   11.6983  -15.9778   23.8206 N   0  0  0  0  0  0  0  0  0  0  0  0
   13.0068  -16.6377   23.5952 C   0  0  1  0  0  0  0  0  0  0  0  0
   14.0740  -15.6153   23.3919 C   0  0  0  0  0  0  0  0  0  0  0  0
   15.4069  -16.2578   23.3985 C   0  0  0  0  0  0  0  0  0  0  0  0
   15.9080  -17.3591   24.0409 C   0  0  0  0  0  0  0  0  0  0  0  0
   17.1955  -17.6031   23.6751 N   0  0  0  0  0  0  0  0  0  0  0  0
   17.5150  -16.6557   22.7964 C   0  0  0  0  0  0  0  0  0  0  0  0
   16.4655  -15.8434   22.6159 N   0  0  0  0  0  0  0  0  0  0  0  0
   13.2719  -17.2662   24.9317 C   0  0  0  0  0  0  0  0  0  0  0  0
   12.7771  -16.8079   25.9607 O   0  0  0  0  0  0  0  0  0  0  0  0
   14.0786  -18.3771   25.0441 O   0  0  0  0  0  0  0  0  0  0  0  0
  2  1  1  6
  2  3  1  0
  3  4  1  0
  4  5  1  0
  6  5  1  0
  7  6  1  0
  8  2  1  0
  8  9  2  0
 10  8  1  0
 11 22  1  0
 11 10  1  0
 11 12  1  1
 13 14  2  0
 13 12  1  0
 15 14  1  0
 16 21  2  0
 16 15  1  0
 17 16  1  0
 18 19  1  0
 18 17  2  0
 19 20  2  0
 20 21  1  0
 21 13  1  0
 22 23  2  0
 22 24  1  0
 24 25  1  0
 25 26  1  1
 26 27  1  0
 27 31  1  0
 28 27  2  0
 28 29  1  0
 29 30  1  0
 31 30  2  0
 32 25  1  0
 33 32  2  0
 34 32  1  0
M  END
$$$$
