IRR.pdb
     RDKit          3D

 31 30  0  0  1  0  0  0  0  0999 V2000
   29.6447  -19.7373   -3.7463 C   0  0  0  0  0  0  0  0  0  0  0  0
   28.4745  -18.8068   -3.9903 C   0  0  0  0  0  0  0  0  0  0  0  0
   27.9007  -18.9465   -5.3628 C   0  0  2  0  0  0  0  0  0  0  0  0
   26.3977  -18.8154   -5.2517 C   0  0  0  0  0  0  0  0  0  0  0  0
   28.3186  -20.1891   -6.0854 C   0  0  2  0  0  0  0  0  0  0  0  0
   29.6592  -20.5302   -5.5955 N   0  0  0  0  0  0  0  0  0  0  0  0
   28.3444  -20.0801   -7.5378 C   0  0  0  0  0  0  0  0  0  0  0  0
   27.7782  -19.1272   -8.1157 O   0  0  0  0  0  0  0  0  0  0  0  0
   33.5149  -23.2764  -10.9815 N   0  0  0  0  0  0  0  0  0  0  0  0
   33.3982  -23.3296  -12.4009 C   0  0  0  0  0  0  0  0  0  0  0  0
   34.4406  -23.6505  -13.0945 N   0  0  0  0  0  0  0  0  0  0  0  0
   32.1394  -23.0262  -12.9886 N   0  0  0  0  0  0  0  0  0  0  0  0
   30.9716  -23.0626  -12.1475 C   0  0  0  0  0  0  0  0  0  0  0  0
   30.5158  -21.6578  -11.7701 C   0  0  0  0  0  0  0  0  0  0  0  0
   30.3705  -21.5906  -10.2839 C   0  0  0  0  0  0  0  0  0  0  0  0
   29.1021  -20.9697   -9.7927 C   0  0  2  0  0  0  0  0  0  0  0  0
   29.0078  -21.0451   -8.3308 N   0  0  0  0  0  0  0  0  0  0  0  0
   27.8746  -21.5483  -10.4104 C   0  0  0  0  0  0  0  0  0  0  0  0
   27.4000  -22.6508  -10.0080 O   0  0  0  0  0  0  0  0  0  0  0  0
   34.3692  -23.7403  -14.1312 N   0  0  0  0  0  0  0  0  0  0  0  0
   19.7132  -19.0010  -10.9530 C   0  0  0  0  0  0  0  0  0  0  0  0
   19.8527  -20.1147  -11.8224 N   0  0  0  0  0  0  0  0  0  0  0  0
   18.7836  -20.6520  -12.2979 N   0  0  0  0  0  0  0  0  0  0  0  0
   21.1114  -20.6564  -12.1881 C   0  0  0  0  0  0  0  0  0  0  0  0
   22.3839  -20.2023  -11.6526 C   0  0  0  0  0  0  0  0  0  0  0  0
   23.5262  -21.0046  -12.1053 C   0  0  0  0  0  0  0  0  0  0  0  0
   24.8958  -20.7347  -11.7232 C   0  0  2  0  0  0  0  0  0  0  0  0
   26.0606  -21.4974  -12.1966 N   0  0  0  0  0  0  0  0  0  0  0  0
   27.2155  -20.8721  -11.4626 C   0  0  0  0  0  0  0  0  0  0  0  0
   26.4502  -21.2855  -13.6277 O   0  0  0  0  0  0  0  0  0  0  0  0
   25.9767  -22.0883  -14.6674 O   0  0  0  0  0  0  0  0  0  0  0  0
  2  3  1  0
  2  1  1  0
  3  4  1  1
  5  6  1  1
  5  3  1  0
  7  8  2  0
  7  5  1  0
  9 10  1  0
 10 12  1  0
 11 10  2  0
 12 13  1  0
 13 14  1  0
 14 15  1  0
 16 15  1  6
 16 18  1  0
 16 17  1  0
 17  7  1  0
 18 19  2  0
 20 21  1  0
 21 23  1  0
 21 22  2  0
 23 24  1  0
 24 25  1  0
 26 25  1  0
 27 26  1  1
 28 27  1  0
 28 18  1  0
 29 27  1  0
 30 29  1  0
 31 29  2  0
M  END
$$$$
