IRR.pdb
     RDKit          3D

 31 30  0  0  1  0  0  0  0  0999 V2000
   17.9618  -20.6435  -16.9657 C   0  0  0  0  0  0  0  0  0  0  0  0
   19.3503  -20.1713  -16.5861 C   0  0  0  0  0  0  0  0  0  0  0  0
   19.4081  -18.7030  -16.3155 C   0  0  2  0  0  0  0  0  0  0  0  0
   18.7657  -17.9910  -17.4856 C   0  0  0  0  0  0  0  0  0  0  0  0
   20.7775  -18.1834  -16.0066 C   0  0  2  0  0  0  0  0  0  0  0  0
   21.2189  -18.8619  -14.7824 N   0  0  0  0  0  0  0  0  0  0  0  0
   20.8639  -16.7411  -15.8217 C   0  0  0  0  0  0  0  0  0  0  0  0
   20.3675  -16.1970  -14.8118 O   0  0  0  0  0  0  0  0  0  0  0  0
   25.6342  -15.4914  -20.4926 N   0  0  0  0  0  0  0  0  0  0  0  0
   25.0935  -14.3731  -21.1914 C   0  0  0  0  0  0  0  0  0  0  0  0
   25.0705  -14.4046  -22.4833 N   0  0  0  0  0  0  0  0  0  0  0  0
   24.6047  -13.2733  -20.4339 N   0  0  0  0  0  0  0  0  0  0  0  0
   24.4432  -13.4460  -19.0139 C   0  0  0  0  0  0  0  0  0  0  0  0
   23.0279  -13.8936  -18.6670 C   0  0  0  0  0  0  0  0  0  0  0  0
   22.9019  -13.9537  -17.1787 C   0  0  0  0  0  0  0  0  0  0  0  0
   21.5909  -14.4594  -16.6678 C   0  0  2  0  0  0  0  0  0  0  0  0
   21.5090  -15.9200  -16.7757 N   0  0  0  0  0  0  0  0  0  0  0  0
   20.4099  -13.8352  -17.3300 C   0  0  0  0  0  0  0  0  0  0  0  0
   20.0042  -14.2424  -18.4580 O   0  0  0  0  0  0  0  0  0  0  0  0
   24.6264  -13.6253  -23.0157 N   0  0  0  0  0  0  0  0  0  0  0  0
   13.1879  -10.9047  -12.9788 C   0  0  0  0  0  0  0  0  0  0  0  0
   12.8938  -11.5205  -14.2237 N   0  0  0  0  0  0  0  0  0  0  0  0
   11.6593  -11.7414  -14.5155 N   0  0  0  0  0  0  0  0  0  0  0  0
   13.8950  -11.8991  -15.1540 C   0  0  0  0  0  0  0  0  0  0  0  0
   15.3232  -11.8147  -14.8982 C   0  0  0  0  0  0  0  0  0  0  0  0
   16.1438  -12.0460  -16.0926 C   0  0  0  0  0  0  0  0  0  0  0  0
   17.5909  -12.0254  -16.0860 C   0  0  2  0  0  0  0  0  0  0  0  0
   18.4344  -12.2296  -17.2732 N   0  0  0  0  0  0  0  0  0  0  0  0
   19.7185  -12.7712  -16.7064 C   0  0  0  0  0  0  0  0  0  0  0  0
   18.9014  -10.9890  -17.9714 O   0  0  0  0  0  0  0  0  0  0  0  0
   20.1971  -10.4867  -17.8355 O   0  0  0  0  0  0  0  0  0  0  0  0
  2  3  1  0
  2  1  1  0
  3  4  1  6
  5  6  1  1
  5  3  1  0
  7  8  2  0
  7  5  1  0
  9 10  1  0
 10 12  1  0
 11 10  2  0
 12 13  1  0
 13 14  1  0
 14 15  1  0
 16 15  1  6
 16 18  1  0
 16 17  1  0
 17  7  1  0
 18 19  2  0
 20 21  1  0
 21 23  1  0
 21 22  2  0
 23 24  1  0
 24 25  1  0
 26 25  1  0
 27 26  1  6
 28 27  1  0
 28 18  1  0
 29 27  1  0
 30 29  1  0
 31 29  2  0
M  END
$$$$
