IRR.pdb
     RDKit          3D

 31 30  0  0  1  0  0  0  0  0999 V2000
   18.5303  -17.2240  -15.3904 C   0  0  0  0  0  0  0  0  0  0  0  0
   19.6530  -18.2153  -15.6177 C   0  0  0  0  0  0  0  0  0  0  0  0
   20.9958  -17.5634  -15.6838 C   0  0  2  0  0  0  0  0  0  0  0  0
   20.9512  -16.5218  -16.7801 C   0  0  0  0  0  0  0  0  0  0  0  0
   22.1398  -18.5160  -15.8408 C   0  0  2  0  0  0  0  0  0  0  0  0
   22.1188  -19.3960  -14.6666 N   0  0  0  0  0  0  0  0  0  0  0  0
   23.4511  -17.8926  -15.9584 C   0  0  0  0  0  0  0  0  0  0  0  0
   23.6886  -17.0751  -16.8737 O   0  0  0  0  0  0  0  0  0  0  0  0
   25.7005  -21.2486  -10.6908 N   0  0  0  0  0  0  0  0  0  0  0  0
   26.5245  -21.8344  -11.6954 C   0  0  0  0  0  0  0  0  0  0  0  0
   26.1667  -22.9674  -12.2042 N   0  0  0  0  0  0  0  0  0  0  0  0
   27.7035  -21.1447  -12.0910 N   0  0  0  0  0  0  0  0  0  0  0  0
   27.5910  -19.7517  -12.4364 C   0  0  0  0  0  0  0  0  0  0  0  0
   26.6582  -19.5485  -13.6248 C   0  0  0  0  0  0  0  0  0  0  0  0
   26.7051  -18.1083  -14.0226 C   0  0  0  0  0  0  0  0  0  0  0  0
   25.8742  -17.7458  -15.2116 C   0  0  2  0  0  0  0  0  0  0  0  0
   24.4874  -18.1938  -15.0442 N   0  0  0  0  0  0  0  0  0  0  0  0
   26.4201  -18.2575  -16.5012 C   0  0  0  0  0  0  0  0  0  0  0  0
   26.5422  -19.5002  -16.7100 O   0  0  0  0  0  0  0  0  0  0  0  0
   26.7679  -23.4303  -12.9198 N   0  0  0  0  0  0  0  0  0  0  0  0
   23.8417  -17.7124  -21.8029 C   0  0  0  0  0  0  0  0  0  0  0  0
   23.1799  -17.1024  -20.7051 N   0  0  0  0  0  0  0  0  0  0  0  0
   22.0047  -17.5258  -20.3926 N   0  0  0  0  0  0  0  0  0  0  0  0
   23.7546  -16.0541  -19.9419 C   0  0  0  0  0  0  0  0  0  0  0  0
   25.0436  -15.4465  -20.2275 C   0  0  0  0  0  0  0  0  0  0  0  0
   26.0872  -16.4229  -20.5603 C   0  0  0  0  0  0  0  0  0  0  0  0
   27.2349  -16.6863  -19.7188 C   0  0  2  0  0  0  0  0  0  0  0  0
   27.3685  -17.8493  -18.8287 N   0  0  0  0  0  0  0  0  0  0  0  0
   26.8134  -17.3588  -17.5193 C   0  0  0  0  0  0  0  0  0  0  0  0
   28.7666  -18.2324  -18.4498 O   0  0  0  0  0  0  0  0  0  0  0  0
   29.2412  -18.1620  -17.1386 O   0  0  0  0  0  0  0  0  0  0  0  0
  2  3  1  0
  2  1  1  0
  3  4  1  6
  5  6  1  1
  5  3  1  0
  7  8  2  0
  7  5  1  0
  9 10  1  0
 10 12  1  0
 11 10  2  0
 12 13  1  0
 13 14  1  0
 14 15  1  0
 16 15  1  1
 16 18  1  0
 16 17  1  0
 17  7  1  0
 18 19  2  0
 20 21  1  0
 21 23  1  0
 21 22  2  0
 23 24  1  0
 24 25  1  0
 26 25  1  0
 27 26  1  6
 28 27  1  0
 28 18  1  0
 29 27  1  0
 30 29  1  0
 31 29  2  0
M  END
$$$$
