IRR.pdb
     RDKit          3D

 31 30  0  0  1  0  0  0  0  0999 V2000
   15.0039  -22.9247  -13.1520 C   0  0  0  0  0  0  0  0  0  0  0  0
   16.3460  -23.6252  -13.2060 C   0  0  0  0  0  0  0  0  0  0  0  0
   17.4434  -22.7361  -13.6937 C   0  0  2  0  0  0  0  0  0  0  0  0
   17.0085  -22.1478  -15.0179 C   0  0  0  0  0  0  0  0  0  0  0  0
   18.7861  -23.3936  -13.7689 C   0  0  2  0  0  0  0  0  0  0  0  0
   19.1056  -23.8544  -12.4127 N   0  0  0  0  0  0  0  0  0  0  0  0
   19.8629  -22.5447  -14.2607 C   0  0  0  0  0  0  0  0  0  0  0  0
   20.1486  -21.4760  -13.6787 O   0  0  0  0  0  0  0  0  0  0  0  0
   25.3094  -25.9269  -17.9031 N   0  0  0  0  0  0  0  0  0  0  0  0
   25.9924  -25.1954  -16.8884 C   0  0  0  0  0  0  0  0  0  0  0  0
   26.8059  -25.8309  -16.1107 N   0  0  0  0  0  0  0  0  0  0  0  0
   25.7463  -23.7992  -16.7783 N   0  0  0  0  0  0  0  0  0  0  0  0
   24.8866  -23.1828  -17.7548 C   0  0  0  0  0  0  0  0  0  0  0  0
   23.9393  -22.1803  -17.1056 C   0  0  0  0  0  0  0  0  0  0  0  0
   22.7817  -22.9288  -16.5275 C   0  0  0  0  0  0  0  0  0  0  0  0
   21.6873  -22.0793  -15.9653 C   0  0  2  0  0  0  0  0  0  0  0  0
   20.6116  -22.9046  -15.4054 N   0  0  0  0  0  0  0  0  0  0  0  0
   21.1227  -21.1063  -16.9438 C   0  0  0  0  0  0  0  0  0  0  0  0
   20.1613  -21.4279  -17.7021 O   0  0  0  0  0  0  0  0  0  0  0  0
   27.2676  -25.3318  -15.3197 N   0  0  0  0  0  0  0  0  0  0  0  0
   17.0531  -14.6285  -18.6350 C   0  0  0  0  0  0  0  0  0  0  0  0
   18.1916  -14.4100  -19.4545 N   0  0  0  0  0  0  0  0  0  0  0  0
   18.0358  -13.7450  -20.5460 N   0  0  0  0  0  0  0  0  0  0  0  0
   19.4850  -14.8887  -19.1238 C   0  0  0  0  0  0  0  0  0  0  0  0
   19.7729  -15.7495  -17.9887 C   0  0  0  0  0  0  0  0  0  0  0  0
   21.1698  -16.1959  -17.9355 C   0  0  0  0  0  0  0  0  0  0  0  0
   21.5760  -17.5000  -17.4570 C   0  0  2  0  0  0  0  0  0  0  0  0
   21.0562  -18.7767  -17.9694 N   0  0  0  0  0  0  0  0  0  0  0  0
   21.6543  -19.8000  -17.0429 C   0  0  0  0  0  0  0  0  0  0  0  0
   21.5840  -19.2165  -19.3009 O   0  0  0  0  0  0  0  0  0  0  0  0
   20.9376  -18.9265  -20.5041 O   0  0  0  0  0  0  0  0  0  0  0  0
  2  3  1  0
  2  1  1  0
  3  4  1  6
  5  6  1  1
  5  3  1  0
  7  8  2  0
  7  5  1  0
  9 10  1  0
 10 12  1  0
 11 10  2  0
 12 13  1  0
 13 14  1  0
 14 15  1  0
 16 15  1  6
 16 18  1  0
 16 17  1  0
 17  7  1  0
 18 19  2  0
 20 21  1  0
 21 23  1  0
 21 22  2  0
 23 24  1  0
 24 25  1  0
 26 25  1  0
 27 26  1  1
 28 27  1  0
 28 18  1  0
 29 27  1  0
 30 29  1  0
 31 29  2  0
M  END
$$$$
