IRR.pdb
     RDKit          3D

 31 30  0  0  1  0  0  0  0  0999 V2000
   14.9373  -27.0908   -2.4108 C   0  0  0  0  0  0  0  0  0  0  0  0
   16.3269  -27.2029   -3.0036 C   0  0  0  0  0  0  0  0  0  0  0  0
   16.4397  -26.5475   -4.3416 C   0  0  2  0  0  0  0  0  0  0  0  0
   15.3398  -27.0995   -5.2216 C   0  0  0  0  0  0  0  0  0  0  0  0
   17.7923  -26.6575   -4.9733 C   0  0  2  0  0  0  0  0  0  0  0  0
   18.7363  -25.9971   -4.0642 N   0  0  0  0  0  0  0  0  0  0  0  0
   17.9036  -26.0698   -6.3015 C   0  0  0  0  0  0  0  0  0  0  0  0
   17.4547  -24.9262   -6.5321 O   0  0  0  0  0  0  0  0  0  0  0  0
   19.1953  -27.5676  -13.8624 N   0  0  0  0  0  0  0  0  0  0  0  0
   20.4753  -26.9513  -13.9768 C   0  0  0  0  0  0  0  0  0  0  0  0
   20.8207  -26.4528  -15.1182 N   0  0  0  0  0  0  0  0  0  0  0  0
   21.3139  -26.9142  -12.8290 N   0  0  0  0  0  0  0  0  0  0  0  0
   20.8226  -27.5029  -11.6106 C   0  0  0  0  0  0  0  0  0  0  0  0
   19.7664  -26.6207  -10.9549 C   0  0  0  0  0  0  0  0  0  0  0  0
   19.6228  -27.0364   -9.5263 C   0  0  0  0  0  0  0  0  0  0  0  0
   18.6346  -26.2488   -8.7271 C   0  0  2  0  0  0  0  0  0  0  0  0
   18.5197  -26.7737   -7.3622 N   0  0  0  0  0  0  0  0  0  0  0  0
   17.2847  -26.1698   -9.3552 C   0  0  0  0  0  0  0  0  0  0  0  0
   16.4860  -27.1510   -9.3092 O   0  0  0  0  0  0  0  0  0  0  0  0
   21.7832  -26.0738  -15.2514 N   0  0  0  0  0  0  0  0  0  0  0  0
   14.4356  -23.1398   -5.1258 C   0  0  0  0  0  0  0  0  0  0  0  0
   13.4214  -22.4377   -5.8286 N   0  0  0  0  0  0  0  0  0  0  0  0
   13.0935  -21.2647   -5.4108 N   0  0  0  0  0  0  0  0  0  0  0  0
   12.7592  -22.9692   -6.9646 C   0  0  0  0  0  0  0  0  0  0  0  0
   13.1405  -24.2034   -7.6304 C   0  0  0  0  0  0  0  0  0  0  0  0
   14.0946  -24.0031   -8.7273 C   0  0  0  0  0  0  0  0  0  0  0  0
   14.5759  -25.0726   -9.5752 C   0  0  1  0  0  0  0  0  0  0  0  0
   15.5254  -24.8962  -10.6842 N   0  0  0  0  0  0  0  0  0  0  0  0
   16.8706  -24.9912  -10.0172 C   0  0  0  0  0  0  0  0  0  0  0  0
   15.5776  -23.5297  -11.2964 O   0  0  0  0  0  0  0  0  0  0  0  0
   14.6321  -23.0775  -12.2190 O   0  0  0  0  0  0  0  0  0  0  0  0
  2  3  1  0
  2  1  1  0
  3  4  1  6
  5  6  1  1
  5  3  1  0
  7  8  2  0
  7  5  1  0
  9 10  1  0
 10 12  1  0
 11 10  2  0
 12 13  1  0
 13 14  1  0
 14 15  1  0
 16 15  1  6
 16 18  1  0
 16 17  1  0
 17  7  1  0
 18 19  2  0
 20 21  1  0
 21 23  1  0
 21 22  2  0
 23 24  1  0
 24 25  1  0
 26 25  1  0
 27 26  1  6
 28 27  1  0
 28 18  1  0
 29 27  1  0
 30 29  1  0
 31 29  2  0
M  END
$$$$
