IRR.pdb
     RDKit          3D

 31 30  0  0  1  0  0  0  0  0999 V2000
   29.7634  -21.1891  -10.4370 C   0  0  0  0  0  0  0  0  0  0  0  0
   29.6531  -21.0289  -11.9393 C   0  0  0  0  0  0  0  0  0  0  0  0
   28.3784  -20.3720  -12.3589 C   0  0  2  0  0  0  0  0  0  0  0  0
   28.4225  -18.9342  -11.8903 C   0  0  0  0  0  0  0  0  0  0  0  0
   27.1389  -21.0845  -11.9152 C   0  0  2  0  0  0  0  0  0  0  0  0
   27.1703  -22.4122  -12.5396 N   0  0  0  0  0  0  0  0  0  0  0  0
   25.8886  -20.4175  -12.2524 C   0  0  0  0  0  0  0  0  0  0  0  0
   25.4648  -19.4686  -11.5578 O   0  0  0  0  0  0  0  0  0  0  0  0
   22.4309  -14.9886  -16.3244 N   0  0  0  0  0  0  0  0  0  0  0  0
   21.3825  -15.8328  -16.7928 C   0  0  0  0  0  0  0  0  0  0  0  0
   20.4275  -15.3048  -17.4855 N   0  0  0  0  0  0  0  0  0  0  0  0
   21.4356  -17.2179  -16.4752 N   0  0  0  0  0  0  0  0  0  0  0  0
   22.6713  -17.7495  -15.9627 C   0  0  0  0  0  0  0  0  0  0  0  0
   22.5638  -19.2471  -15.6989 C   0  0  0  0  0  0  0  0  0  0  0  0
   23.8728  -19.7281  -15.1609 C   0  0  0  0  0  0  0  0  0  0  0  0
   23.8447  -20.2093  -13.7455 C   0  0  2  0  0  0  0  0  0  0  0  0
   25.1228  -20.8234  -13.3701 N   0  0  0  0  0  0  0  0  0  0  0  0
   22.7255  -21.1510  -13.4561 C   0  0  0  0  0  0  0  0  0  0  0  0
   22.7670  -22.3534  -13.8499 O   0  0  0  0  0  0  0  0  0  0  0  0
   19.6105  -15.8855  -17.7739 N   0  0  0  0  0  0  0  0  0  0  0  0
   17.7760  -24.1100   -8.7539 C   0  0  0  0  0  0  0  0  0  0  0  0
   18.7570  -24.1451   -7.7283 N   0  0  0  0  0  0  0  0  0  0  0  0
   18.7453  -25.1392   -6.9101 N   0  0  0  0  0  0  0  0  0  0  0  0
   19.7438  -23.1390   -7.5684 C   0  0  0  0  0  0  0  0  0  0  0  0
   19.8771  -21.9792   -8.4340 C   0  0  0  0  0  0  0  0  0  0  0  0
   20.0447  -22.3253   -9.8502 C   0  0  0  0  0  0  0  0  0  0  0  0
   20.3033  -21.3499  -10.8876 C   0  0  2  0  0  0  0  0  0  0  0  0
   20.5152  -21.6754  -12.3060 N   0  0  0  0  0  0  0  0  0  0  0  0
   21.5916  -20.7150  -12.7328 C   0  0  0  0  0  0  0  0  0  0  0  0
   19.3961  -21.3225  -13.2377 O   0  0  0  0  0  0  0  0  0  0  0  0
   18.2994  -22.1593  -13.4539 O   0  0  0  0  0  0  0  0  0  0  0  0
  2  3  1  0
  2  1  1  0
  3  4  1  1
  5  6  1  6
  5  3  1  0
  7  8  2  0
  7  5  1  0
  9 10  1  0
 10 12  1  0
 11 10  2  0
 12 13  1  0
 13 14  1  0
 14 15  1  0
 16 15  1  6
 16 18  1  0
 16 17  1  0
 17  7  1  0
 18 19  2  0
 20 21  1  0
 21 23  1  0
 21 22  2  0
 23 24  1  0
 24 25  1  0
 26 25  1  0
 27 26  1  1
 28 27  1  0
 28 18  1  0
 29 27  1  0
 30 29  1  0
 31 29  2  0
M  END
$$$$
