IRR.pdb
     RDKit          3D

 31 30  0  0  1  0  0  0  0  0999 V2000
   19.0082  -21.2942  -15.0673 C   0  0  0  0  0  0  0  0  0  0  0  0
   19.3598  -20.1249  -15.9639 C   0  0  0  0  0  0  0  0  0  0  0  0
   20.6650  -19.4924  -15.6046 C   0  0  2  0  0  0  0  0  0  0  0  0
   21.5112  -19.4336  -16.8573 C   0  0  0  0  0  0  0  0  0  0  0  0
   21.3754  -20.1451  -14.4599 C   0  0  2  0  0  0  0  0  0  0  0  0
   20.8484  -19.5340  -13.2341 N   0  0  0  0  0  0  0  0  0  0  0  0
   22.8265  -20.0198  -14.4812 C   0  0  0  0  0  0  0  0  0  0  0  0
   23.3818  -19.1624  -15.2015 O   0  0  0  0  0  0  0  0  0  0  0  0
   21.7294  -20.2326  -10.5668 N   0  0  0  0  0  0  0  0  0  0  0  0
   22.2349  -20.4744   -9.2563 C   0  0  0  0  0  0  0  0  0  0  0  0
   21.4190  -20.4014   -8.2566 N   0  0  0  0  0  0  0  0  0  0  0  0
   23.6150  -20.7843   -9.1095 N   0  0  0  0  0  0  0  0  0  0  0  0
   24.2905  -21.4125  -10.2148 C   0  0  0  0  0  0  0  0  0  0  0  0
   24.9470  -20.3792  -11.1232 C   0  0  0  0  0  0  0  0  0  0  0  0
   25.6072  -21.0966  -12.2563 C   0  0  0  0  0  0  0  0  0  0  0  0
   25.1038  -20.7409  -13.6185 C   0  0  2  0  0  0  0  0  0  0  0  0
   23.6437  -20.8613  -13.6909 N   0  0  0  0  0  0  0  0  0  0  0  0
   25.7327  -21.5327  -14.7142 C   0  0  0  0  0  0  0  0  0  0  0  0
   25.2259  -22.6261  -15.1019 O   0  0  0  0  0  0  0  0  0  0  0  0
   21.7609  -20.5925   -7.2899 N   0  0  0  0  0  0  0  0  0  0  0  0
   32.1119  -25.1985  -15.4141 C   0  0  0  0  0  0  0  0  0  0  0  0
   31.1406  -25.8313  -16.2337 N   0  0  0  0  0  0  0  0  0  0  0  0
   31.1906  -27.1121  -16.3564 N   0  0  0  0  0  0  0  0  0  0  0  0
   30.1235  -25.1178  -16.9176 C   0  0  0  0  0  0  0  0  0  0  0  0
   30.2678  -23.7577  -17.4091 C   0  0  0  0  0  0  0  0  0  0  0  0
   29.9825  -22.7377  -16.3933 C   0  0  0  0  0  0  0  0  0  0  0  0
   28.6763  -22.5392  -15.8027 C   0  0  2  0  0  0  0  0  0  0  0  0
   27.5586  -21.8462  -16.4609 N   0  0  0  0  0  0  0  0  0  0  0  0
   26.9130  -21.0739  -15.3429 C   0  0  0  0  0  0  0  0  0  0  0  0
   26.4310  -22.7131  -16.9318 O   0  0  0  0  0  0  0  0  0  0  0  0
   25.5541  -23.3558  -16.0556 O   0  0  0  0  0  0  0  0  0  0  0  0
  2  3  1  0
  2  1  1  0
  3  4  1  6
  5  6  1  1
  5  3  1  0
  7  8  2  0
  7  5  1  0
  9 10  1  0
 10 12  1  0
 11 10  2  0
 12 13  1  0
 13 14  1  0
 14 15  1  0
 16 15  1  1
 16 18  1  0
 16 17  1  0
 17  7  1  0
 18 19  2  0
 20 21  1  0
 21 23  1  0
 21 22  2  0
 23 24  1  0
 24 25  1  0
 26 25  1  0
 27 26  1  6
 28 27  1  0
 28 18  1  0
 29 27  1  0
 30 29  1  0
 31 29  2  0
M  END
$$$$
