IRR.pdb
     RDKit          3D

 31 30  0  0  1  0  0  0  0  0999 V2000
   28.2311  -20.1037  -19.3753 C   0  0  0  0  0  0  0  0  0  0  0  0
   27.8438  -19.1541  -18.2604 C   0  0  0  0  0  0  0  0  0  0  0  0
   27.0632  -19.8227  -17.1760 C   0  0  2  0  0  0  0  0  0  0  0  0
   26.1189  -18.7983  -16.5864 C   0  0  0  0  0  0  0  0  0  0  0  0
   27.9013  -20.4990  -16.1362 C   0  0  2  0  0  0  0  0  0  0  0  0
   28.6491  -21.5590  -16.8225 N   0  0  0  0  0  0  0  0  0  0  0  0
   27.1593  -21.0709  -15.0207 C   0  0  0  0  0  0  0  0  0  0  0  0
   26.2058  -21.8533  -15.2237 O   0  0  0  0  0  0  0  0  0  0  0  0
   26.6543  -19.6100   -7.3426 N   0  0  0  0  0  0  0  0  0  0  0  0
   25.5001  -20.4456   -7.3107 C   0  0  0  0  0  0  0  0  0  0  0  0
   24.7299  -20.3952   -6.2740 N   0  0  0  0  0  0  0  0  0  0  0  0
   25.2499  -21.2973   -8.4217 N   0  0  0  0  0  0  0  0  0  0  0  0
   26.1636  -21.2486   -9.5331 C   0  0  0  0  0  0  0  0  0  0  0  0
   26.0967  -19.9037  -10.2475 C   0  0  0  0  0  0  0  0  0  0  0  0
   27.0112  -19.9493  -11.4291 C   0  0  0  0  0  0  0  0  0  0  0  0
   26.5323  -20.7791  -12.5769 C   0  0  2  0  0  0  0  0  0  0  0  0
   27.4955  -20.7580  -13.6830 N   0  0  0  0  0  0  0  0  0  0  0  0
   25.1814  -20.3901  -13.0736 C   0  0  0  0  0  0  0  0  0  0  0  0
   24.9477  -19.2111  -13.4713 O   0  0  0  0  0  0  0  0  0  0  0  0
   23.8681  -20.9816   -6.2361 N   0  0  0  0  0  0  0  0  0  0  0  0
   24.9602  -25.3171  -16.8526 C   0  0  0  0  0  0  0  0  0  0  0  0
   23.8748  -25.5561  -15.9692 N   0  0  0  0  0  0  0  0  0  0  0  0
   23.9271  -26.5943  -15.2094 N   0  0  0  0  0  0  0  0  0  0  0  0
   22.7432  -24.7050  -15.8876 C   0  0  0  0  0  0  0  0  0  0  0  0
   22.6208  -23.4377  -16.5883 C   0  0  0  0  0  0  0  0  0  0  0  0
   22.9403  -22.2757  -15.7510 C   0  0  0  0  0  0  0  0  0  0  0  0
   22.3500  -22.0390  -14.4509 C   0  0  2  0  0  0  0  0  0  0  0  0
   22.7424  -20.9525  -13.5408 N   0  0  0  0  0  0  0  0  0  0  0  0
   24.1315  -21.3364  -13.1092 C   0  0  0  0  0  0  0  0  0  0  0  0
   22.0152  -20.8937  -12.2322 O   0  0  0  0  0  0  0  0  0  0  0  0
   22.5136  -21.4721  -11.0632 O   0  0  0  0  0  0  0  0  0  0  0  0
  2  3  1  0
  2  1  1  0
  3  4  1  1
  5  6  1  6
  5  3  1  0
  7  8  2  0
  7  5  1  0
  9 10  1  0
 10 12  1  0
 11 10  2  0
 12 13  1  0
 13 14  1  0
 14 15  1  0
 16 15  1  1
 16 18  1  0
 16 17  1  0
 17  7  1  0
 18 19  2  0
 20 21  1  0
 21 23  1  0
 21 22  2  0
 23 24  1  0
 24 25  1  0
 26 25  1  0
 27 26  1  6
 28 27  1  0
 28 18  1  0
 29 27  1  0
 30 29  1  0
 31 29  2  0
M  END
$$$$
