IRR.pdb
     RDKit          3D

 31 30  0  0  1  0  0  0  0  0999 V2000
   26.7493  -17.1042  -16.1701 C   0  0  0  0  0  0  0  0  0  0  0  0
   26.5793  -18.5941  -15.9553 C   0  0  0  0  0  0  0  0  0  0  0  0
   27.6485  -19.1797  -15.0915 C   0  0  2  0  0  0  0  0  0  0  0  0
   28.9787  -18.9279  -15.7667 C   0  0  0  0  0  0  0  0  0  0  0  0
   27.4433  -20.6210  -14.7430 C   0  0  2  0  0  0  0  0  0  0  0  0
   27.3764  -21.3553  -16.0118 N   0  0  0  0  0  0  0  0  0  0  0  0
   26.2511  -20.9022  -13.9545 C   0  0  0  0  0  0  0  0  0  0  0  0
   25.2599  -21.4590  -14.4741 O   0  0  0  0  0  0  0  0  0  0  0  0
   21.4689  -21.9679   -7.5214 N   0  0  0  0  0  0  0  0  0  0  0  0
   20.9719  -21.7810   -8.8440 C   0  0  0  0  0  0  0  0  0  0  0  0
   19.9113  -22.4271   -9.2020 N   0  0  0  0  0  0  0  0  0  0  0  0
   21.6670  -20.8919   -9.7092 N   0  0  0  0  0  0  0  0  0  0  0  0
   22.9843  -21.2677  -10.1519 C   0  0  0  0  0  0  0  0  0  0  0  0
   24.0617  -20.4682   -9.4281 C   0  0  0  0  0  0  0  0  0  0  0  0
   25.2177  -20.2822  -10.3573 C   0  0  0  0  0  0  0  0  0  0  0  0
   24.9587  -20.6526  -11.7825 C   0  0  2  0  0  0  0  0  0  0  0  0
   26.1825  -20.5545  -12.5853 N   0  0  0  0  0  0  0  0  0  0  0  0
   23.8699  -19.8573  -12.4189 C   0  0  0  0  0  0  0  0  0  0  0  0
   23.9597  -18.5991  -12.5273 O   0  0  0  0  0  0  0  0  0  0  0  0
   19.5937  -22.3979  -10.1951 N   0  0  0  0  0  0  0  0  0  0  0  0
   18.5294  -21.0671  -19.2805 C   0  0  0  0  0  0  0  0  0  0  0  0
   19.6131  -20.1639  -19.4399 N   0  0  0  0  0  0  0  0  0  0  0  0
   19.6242  -19.4059  -20.4807 N   0  0  0  0  0  0  0  0  0  0  0  0
   20.6765  -20.0607  -18.5071 C   0  0  0  0  0  0  0  0  0  0  0  0
   20.7577  -20.8225  -17.2721 C   0  0  0  0  0  0  0  0  0  0  0  0
   21.0195  -19.9916  -16.0911 C   0  0  0  0  0  0  0  0  0  0  0  0
   21.2983  -20.5319  -14.7778 C   0  0  2  0  0  0  0  0  0  0  0  0
   21.6136  -19.7223  -13.5913 N   0  0  0  0  0  0  0  0  0  0  0  0
   22.7112  -20.4978  -12.9149 C   0  0  0  0  0  0  0  0  0  0  0  0
   20.5619  -19.6775  -12.5252 O   0  0  0  0  0  0  0  0  0  0  0  0
   20.5828  -20.5127  -11.4064 O   0  0  0  0  0  0  0  0  0  0  0  0
  2  3  1  0
  2  1  1  0
  3  4  1  6
  5  6  1  6
  5  3  1  0
  7  8  2  0
  7  5  1  0
  9 10  1  0
 10 12  1  0
 11 10  2  0
 12 13  1  0
 13 14  1  0
 14 15  1  0
 16 15  1  1
 16 18  1  0
 16 17  1  0
 17  7  1  0
 18 19  2  0
 20 21  1  0
 21 23  1  0
 21 22  2  0
 23 24  1  0
 24 25  1  0
 26 25  1  0
 27 26  1  6
 28 27  1  0
 28 18  1  0
 29 27  1  0
 30 29  1  0
 31 29  2  0
M  END
$$$$
