IRR.pdb
     RDKit          3D

 31 30  0  0  1  0  0  0  0  0999 V2000
   25.9165  -20.2471   -6.3706 C   0  0  0  0  0  0  0  0  0  0  0  0
   27.1340  -20.1381   -7.2654 C   0  0  0  0  0  0  0  0  0  0  0  0
   26.8027  -19.6415   -8.6350 C   0  0  2  0  0  0  0  0  0  0  0  0
   26.3051  -18.2188   -8.5038 C   0  0  0  0  0  0  0  0  0  0  0  0
   25.8560  -20.5144   -9.3984 C   0  0  2  0  0  0  0  0  0  0  0  0
   26.5018  -21.8262   -9.5244 N   0  0  0  0  0  0  0  0  0  0  0  0
   25.4913  -20.0226  -10.7201 C   0  0  0  0  0  0  0  0  0  0  0  0
   24.5818  -19.1761  -10.8567 O   0  0  0  0  0  0  0  0  0  0  0  0
   25.3205  -23.9293  -14.7462 N   0  0  0  0  0  0  0  0  0  0  0  0
   26.2553  -24.2944  -15.7582 C   0  0  0  0  0  0  0  0  0  0  0  0
   26.3984  -25.5468  -16.0436 N   0  0  0  0  0  0  0  0  0  0  0  0
   26.9882  -23.2628  -16.4070 N   0  0  0  0  0  0  0  0  0  0  0  0
   26.7730  -21.9054  -15.9786 C   0  0  0  0  0  0  0  0  0  0  0  0
   27.2036  -21.7061  -14.5300 C   0  0  0  0  0  0  0  0  0  0  0  0
   26.9900  -20.2721  -14.1657 C   0  0  0  0  0  0  0  0  0  0  0  0
   25.8496  -20.0118  -13.2345 C   0  0  2  0  0  0  0  0  0  0  0  0
   26.1532  -20.4873  -11.8804 N   0  0  0  0  0  0  0  0  0  0  0  0
   24.5557  -20.5907  -13.6968 C   0  0  0  0  0  0  0  0  0  0  0  0
   24.1252  -21.6839  -13.2252 O   0  0  0  0  0  0  0  0  0  0  0  0
   27.0662  -25.8382  -16.7900 N   0  0  0  0  0  0  0  0  0  0  0  0
   17.8213  -17.4404  -13.5964 C   0  0  0  0  0  0  0  0  0  0  0  0
   17.6438  -18.7650  -13.1175 N   0  0  0  0  0  0  0  0  0  0  0  0
   16.4607  -19.2715  -13.1557 N   0  0  0  0  0  0  0  0  0  0  0  0
   18.7076  -19.5496  -12.6033 C   0  0  0  0  0  0  0  0  0  0  0  0
   20.0641  -19.0641  -12.4130 C   0  0  0  0  0  0  0  0  0  0  0  0
   20.8959  -19.1718  -13.6172 C   0  0  0  0  0  0  0  0  0  0  0  0
   21.5893  -20.3813  -14.0057 C   0  0  1  0  0  0  0  0  0  0  0  0
   22.4809  -20.4956  -15.1696 N   0  0  0  0  0  0  0  0  0  0  0  0
   23.7827  -19.9255  -14.6759 C   0  0  0  0  0  0  0  0  0  0  0  0
   22.1690  -19.5998  -16.3295 O   0  0  0  0  0  0  0  0  0  0  0  0
   23.0047  -18.5525  -16.7225 O   0  0  0  0  0  0  0  0  0  0  0  0
  2  3  1  0
  2  1  1  0
  3  4  1  1
  5  6  1  6
  5  3  1  0
  7  8  2  0
  7  5  1  0
  9 10  1  0
 10 12  1  0
 11 10  2  0
 12 13  1  0
 13 14  1  0
 14 15  1  0
 16 15  1  6
 16 18  1  0
 16 17  1  0
 17  7  1  0
 18 19  2  0
 20 21  1  0
 21 23  1  0
 21 22  2  0
 23 24  1  0
 24 25  1  0
 26 25  1  0
 27 26  1  1
 28 27  1  0
 28 18  1  0
 29 27  1  0
 30 29  1  0
 31 29  2  0
M  END
$$$$
