IRR.pdb
     RDKit          3D

 31 30  0  0  1  0  0  0  0  0999 V2000
   29.7808  -20.1218  -12.2426 C   0  0  0  0  0  0  0  0  0  0  0  0
   28.6895  -21.1680  -12.1459 C   0  0  0  0  0  0  0  0  0  0  0  0
   27.3239  -20.5712  -12.0388 C   0  0  2  0  0  0  0  0  0  0  0  0
   27.2658  -19.7759  -10.7531 C   0  0  0  0  0  0  0  0  0  0  0  0
   26.2052  -21.5589  -12.1560 C   0  0  2  0  0  0  0  0  0  0  0  0
   26.4247  -22.2970  -13.4053 N   0  0  0  0  0  0  0  0  0  0  0  0
   24.8683  -20.9805  -12.1609 C   0  0  0  0  0  0  0  0  0  0  0  0
   24.4146  -20.4153  -11.1425 O   0  0  0  0  0  0  0  0  0  0  0  0
   18.5880  -17.6073  -16.6348 N   0  0  0  0  0  0  0  0  0  0  0  0
   19.6155  -16.6300  -16.4918 C   0  0  0  0  0  0  0  0  0  0  0  0
   19.2872  -15.3802  -16.5219 N   0  0  0  0  0  0  0  0  0  0  0  0
   20.9552  -17.0758  -16.3234 N   0  0  0  0  0  0  0  0  0  0  0  0
   21.2079  -18.4927  -16.3561 C   0  0  0  0  0  0  0  0  0  0  0  0
   21.2286  -19.0849  -14.9516 C   0  0  0  0  0  0  0  0  0  0  0  0
   22.5766  -19.6843  -14.7104 C   0  0  0  0  0  0  0  0  0  0  0  0
   22.7331  -20.4039  -13.4092 C   0  0  2  0  0  0  0  0  0  0  0  0
   24.0502  -21.0423  -13.3129 N   0  0  0  0  0  0  0  0  0  0  0  0
   21.6626  -21.4085  -13.1488 C   0  0  0  0  0  0  0  0  0  0  0  0
   21.7334  -22.5766  -13.6319 O   0  0  0  0  0  0  0  0  0  0  0  0
   20.0163  -14.6466  -16.3870 N   0  0  0  0  0  0  0  0  0  0  0  0
   18.6348  -26.3631   -7.8854 C   0  0  0  0  0  0  0  0  0  0  0  0
   18.2335  -25.2330   -7.1255 N   0  0  0  0  0  0  0  0  0  0  0  0
   17.5048  -25.4300   -6.0824 N   0  0  0  0  0  0  0  0  0  0  0  0
   18.5997  -23.9051   -7.4634 C   0  0  0  0  0  0  0  0  0  0  0  0
   18.2067  -23.2359   -8.6922 C   0  0  0  0  0  0  0  0  0  0  0  0
   19.1716  -23.4088   -9.7842 C   0  0  0  0  0  0  0  0  0  0  0  0
   19.7240  -22.3094  -10.5462 C   0  0  2  0  0  0  0  0  0  0  0  0
   19.5052  -22.0972  -11.9849 N   0  0  0  0  0  0  0  0  0  0  0  0
   20.5431  -21.0723  -12.3535 C   0  0  0  0  0  0  0  0  0  0  0  0
   18.2331  -21.4016  -12.3628 O   0  0  0  0  0  0  0  0  0  0  0  0
   17.1021  -22.0853  -12.8130 O   0  0  0  0  0  0  0  0  0  0  0  0
  2  3  1  0
  2  1  1  0
  3  4  1  1
  5  6  1  6
  5  3  1  0
  7  8  2  0
  7  5  1  0
  9 10  1  0
 10 12  1  0
 11 10  2  0
 12 13  1  0
 13 14  1  0
 14 15  1  0
 16 15  1  6
 16 18  1  0
 16 17  1  0
 17  7  1  0
 18 19  2  0
 20 21  1  0
 21 23  1  0
 21 22  2  0
 23 24  1  0
 24 25  1  0
 26 25  1  0
 27 26  1  6
 28 27  1  0
 28 18  1  0
 29 27  1  0
 30 29  1  0
 31 29  2  0
M  END
$$$$
