NGE.pdb
     RDKit          3D

 22 21  0  0  1  0  0  0  0  0999 V2000
   16.9729  -12.2012  -17.2376 N   0  0  0  0  0  0  0  0  0  0  0  0
   17.4006  -12.6869  -15.9755 C   0  0  0  0  0  0  0  0  0  0  0  0
   16.7394  -13.5902  -15.4316 O   0  0  0  0  0  0  0  0  0  0  0  0
   18.6128  -12.0983  -15.3620 C   0  0  0  0  0  0  0  0  0  0  0  0
   19.2201  -11.0583  -16.2601 C   0  0  2  0  0  0  0  0  0  0  0  0
   20.2288  -11.6478  -17.0901 N   0  0  0  0  0  0  0  0  0  0  0  0
   19.8079   -9.9745  -15.3920 C   0  0  0  0  0  0  0  0  0  0  0  0
   19.0602   -9.2438  -14.6931 O   0  0  0  0  0  0  0  0  0  0  0  0
   21.2034   -9.7506  -15.3397 N   0  0  0  0  0  0  0  0  0  0  0  0
   21.8425   -8.7730  -14.4974 C   0  0  0  0  0  0  0  0  0  0  0  0
   21.7661   -7.3881  -14.9816 C   0  0  0  0  0  0  0  0  0  0  0  0
   22.1597   -7.1199  -16.1702 O   0  0  0  0  0  0  0  0  0  0  0  0
   21.2884   -6.2829  -14.2562 N   0  0  0  0  0  0  0  0  0  0  0  0
   21.2404   -4.9301  -14.8231 C   0  0  1  0  0  0  0  0  0  0  0  0
   19.8771   -4.3909  -14.5979 C   0  0  0  0  0  0  0  0  0  0  0  0
   18.7692   -5.0554  -15.3390 C   0  0  0  0  0  0  0  0  0  0  0  0
   17.4368   -4.5812  -14.9519 C   0  0  0  0  0  0  0  0  0  0  0  0
   16.9197   -3.6214  -15.6141 O   0  0  0  0  0  0  0  0  0  0  0  0
   22.3130   -4.0894  -14.2418 C   0  0  0  0  0  0  0  0  0  0  0  0
   22.8817   -4.4207  -13.1742 O   0  0  0  0  0  0  0  0  0  0  0  0
   16.7025   -5.1144  -13.9064 O   0  0  0  0  0  0  0  0  0  0  0  0
   22.7392   -2.9053  -14.8415 O   0  0  0  0  0  0  0  0  0  0  0  0
  1  2  1  0
  2  3  2  0
  4  2  1  0
  5  6  1  1
  5  4  1  0
  7  5  1  0
  8  7  2  0
  9  7  1  0
 10 11  1  0
 10  9  1  0
 11 13  1  0
 12 11  2  0
 13 14  1  0
 14 19  1  0
 14 15  1  1
 15 16  1  0
 16 17  1  0
 17 21  1  0
 18 17  2  0
 19 20  2  0
 19 22  1  0
M  END
$$$$
