NGE.pdb
     RDKit          3D

 22 21  0  0  1  0  0  0  0  0999 V2000
   15.5258  -13.7809  -15.1682 N   0  0  0  0  0  0  0  0  0  0  0  0
   16.7424  -14.1589  -14.5448 C   0  0  0  0  0  0  0  0  0  0  0  0
   16.7172  -15.0690  -13.6961 O   0  0  0  0  0  0  0  0  0  0  0  0
   17.9865  -13.4549  -14.9306 C   0  0  0  0  0  0  0  0  0  0  0  0
   17.7284  -12.4734  -16.0383 C   0  0  2  0  0  0  0  0  0  0  0  0
   17.5910  -13.1610  -17.2881 N   0  0  0  0  0  0  0  0  0  0  0  0
   18.8831  -11.5047  -16.0849 C   0  0  0  0  0  0  0  0  0  0  0  0
   19.0880  -10.7129  -15.1297 O   0  0  0  0  0  0  0  0  0  0  0  0
   19.7599  -11.4591  -17.1936 N   0  0  0  0  0  0  0  0  0  0  0  0
   20.8675  -10.5478  -17.3217 C   0  0  0  0  0  0  0  0  0  0  0  0
   20.4975   -9.1328  -17.4600 C   0  0  0  0  0  0  0  0  0  0  0  0
   19.4705   -8.8218  -18.1587 O   0  0  0  0  0  0  0  0  0  0  0  0
   21.1718   -8.0411  -16.8863 N   0  0  0  0  0  0  0  0  0  0  0  0
   20.6602   -6.6680  -16.9685 C   0  0  1  0  0  0  0  0  0  0  0  0
   19.3566   -6.6254  -16.2623 C   0  0  0  0  0  0  0  0  0  0  0  0
   18.7022   -5.2917  -16.1558 C   0  0  0  0  0  0  0  0  0  0  0  0
   17.4653   -5.3060  -15.3684 C   0  0  0  0  0  0  0  0  0  0  0  0
   17.0595   -6.4204  -14.8987 O   0  0  0  0  0  0  0  0  0  0  0  0
   21.6570   -5.7136  -16.4293 C   0  0  0  0  0  0  0  0  0  0  0  0
   22.5694   -6.1026  -15.6617 O   0  0  0  0  0  0  0  0  0  0  0  0
   16.7077   -4.1783  -15.1025 O   0  0  0  0  0  0  0  0  0  0  0  0
   21.6330   -4.3553  -16.7419 O   0  0  0  0  0  0  0  0  0  0  0  0
  1  2  1  0
  2  3  2  0
  4  2  1  0
  5  6  1  6
  5  4  1  0
  7  5  1  0
  8  7  2  0
  9  7  1  0
 10 11  1  0
 10  9  1  0
 11 13  1  0
 12 11  2  0
 13 14  1  0
 14 19  1  0
 14 15  1  1
 15 16  1  0
 16 17  1  0
 17 21  1  0
 18 17  2  0
 19 20  2  0
 19 22  1  0
M  END
$$$$
