NGE.pdb
     RDKit          3D

 22 21  0  0  1  0  0  0  0  0999 V2000
   18.9991  -15.2460  -15.5915 N   0  0  0  0  0  0  0  0  0  0  0  0
   18.0864  -14.7464  -16.5555 C   0  0  0  0  0  0  0  0  0  0  0  0
   17.3960  -15.5593  -17.1971 O   0  0  0  0  0  0  0  0  0  0  0  0
   17.9959  -13.2821  -16.7555 C   0  0  0  0  0  0  0  0  0  0  0  0
   18.8783  -12.5505  -15.7843 C   0  0  2  0  0  0  0  0  0  0  0  0
   18.1861  -12.3390  -14.5475 N   0  0  0  0  0  0  0  0  0  0  0  0
   19.2729  -11.2355  -16.4081 C   0  0  0  0  0  0  0  0  0  0  0  0
   18.3975  -10.4722  -16.8901 O   0  0  0  0  0  0  0  0  0  0  0  0
   20.6256  -10.8272  -16.4685 N   0  0  0  0  0  0  0  0  0  0  0  0
   21.0756   -9.5701  -17.0076 C   0  0  0  0  0  0  0  0  0  0  0  0
   21.0721   -8.4482  -16.0591 C   0  0  0  0  0  0  0  0  0  0  0  0
   20.6633   -8.6448  -14.8616 O   0  0  0  0  0  0  0  0  0  0  0  0
   21.4857   -7.1328  -16.3314 N   0  0  0  0  0  0  0  0  0  0  0  0
   21.3482   -6.0459  -15.3548 C   0  0  1  0  0  0  0  0  0  0  0  0
   22.0859   -4.8698  -15.8766 C   0  0  0  0  0  0  0  0  0  0  0  0
   22.0702   -3.6459  -15.0278 C   0  0  0  0  0  0  0  0  0  0  0  0
   22.7956   -2.5150  -15.6151 C   0  0  0  0  0  0  0  0  0  0  0  0
   23.6281   -2.7508  -16.5524 O   0  0  0  0  0  0  0  0  0  0  0  0
   19.9171   -5.7746  -15.0838 C   0  0  0  0  0  0  0  0  0  0  0  0
   19.5523   -5.2832  -13.9891 O   0  0  0  0  0  0  0  0  0  0  0  0
   22.6311   -1.2008  -15.2123 O   0  0  0  0  0  0  0  0  0  0  0  0
   18.9174   -6.0471  -16.0165 O   0  0  0  0  0  0  0  0  0  0  0  0
  1  2  1  0
  2  3  2  0
  4  2  1  0
  5  6  1  1
  5  4  1  0
  7  5  1  0
  8  7  2  0
  9  7  1  0
 10 11  1  0
 10  9  1  0
 11 13  1  0
 12 11  2  0
 13 14  1  0
 14 19  1  0
 14 15  1  6
 15 16  1  0
 16 17  1  0
 17 21  1  0
 18 17  2  0
 19 20  2  0
 19 22  1  0
M  END
$$$$
