NGE.pdb
     RDKit          3D

 22 21  0  0  1  0  0  0  0  0999 V2000
   14.0876  -12.5373  -15.8921 N   0  0  0  0  0  0  0  0  0  0  0  0
   13.7029  -11.7489  -14.7776 C   0  0  0  0  0  0  0  0  0  0  0  0
   12.6330  -12.0174  -14.2011 O   0  0  0  0  0  0  0  0  0  0  0  0
   14.5897  -10.6429  -14.3503 C   0  0  0  0  0  0  0  0  0  0  0  0
   15.8478  -10.6139  -15.1710 C   0  0  2  0  0  0  0  0  0  0  0  0
   16.8997  -11.3104  -14.4911 N   0  0  0  0  0  0  0  0  0  0  0  0
   16.2235   -9.1719  -15.4024 C   0  0  0  0  0  0  0  0  0  0  0  0
   15.5053   -8.4357  -16.1261 O   0  0  0  0  0  0  0  0  0  0  0  0
   17.3832   -8.6116  -14.8181 N   0  0  0  0  0  0  0  0  0  0  0  0
   17.7867   -7.2368  -14.9610 C   0  0  0  0  0  0  0  0  0  0  0  0
   19.0009   -6.8638  -14.2228 C   0  0  0  0  0  0  0  0  0  0  0  0
   19.1126   -7.2034  -12.9932 O   0  0  0  0  0  0  0  0  0  0  0  0
   20.0961   -6.1492  -14.7380 N   0  0  0  0  0  0  0  0  0  0  0  0
   21.3312   -5.9417  -13.9730 C   0  0  1  0  0  0  0  0  0  0  0  0
   22.4270   -6.6506  -14.6776 C   0  0  0  0  0  0  0  0  0  0  0  0
   22.3056   -8.1319  -14.7741 C   0  0  0  0  0  0  0  0  0  0  0  0
   23.4552   -8.7743  -15.4190 C   0  0  0  0  0  0  0  0  0  0  0  0
   24.3571   -9.2872  -14.6769 O   0  0  0  0  0  0  0  0  0  0  0  0
   21.5857   -4.4938  -13.7879 C   0  0  0  0  0  0  0  0  0  0  0  0
   21.0298   -3.6444  -14.5245 O   0  0  0  0  0  0  0  0  0  0  0  0
   23.6220   -8.8583  -16.7907 O   0  0  0  0  0  0  0  0  0  0  0  0
   22.4424   -4.0080  -12.8014 O   0  0  0  0  0  0  0  0  0  0  0  0
  1  2  1  0
  2  3  2  0
  4  2  1  0
  5  6  1  1
  5  4  1  0
  7  5  1  0
  8  7  2  0
  9  7  1  0
 10 11  1  0
 10  9  1  0
 11 13  1  0
 12 11  2  0
 13 14  1  0
 14 19  1  0
 14 15  1  6
 15 16  1  0
 16 17  1  0
 17 21  1  0
 18 17  2  0
 19 20  2  0
 19 22  1  0
M  END
$$$$
