NGE.pdb
     RDKit          3D

 22 21  0  0  1  0  0  0  0  0999 V2000
   26.2886  -22.0295  -10.2225 N   0  0  0  0  0  0  0  0  0  0  0  0
   26.0834  -20.6384  -10.4082 C   0  0  0  0  0  0  0  0  0  0  0  0
   26.8226  -19.8426   -9.8004 O   0  0  0  0  0  0  0  0  0  0  0  0
   25.0002  -20.1955  -11.3153 C   0  0  0  0  0  0  0  0  0  0  0  0
   24.2252  -21.3697  -11.8421 C   0  0  2  0  0  0  0  0  0  0  0  0
   25.0666  -22.1926  -12.6599 N   0  0  0  0  0  0  0  0  0  0  0  0
   23.0575  -20.8422  -12.6371 C   0  0  0  0  0  0  0  0  0  0  0  0
   22.1797  -20.1321  -12.0832 O   0  0  0  0  0  0  0  0  0  0  0  0
   22.9172  -21.1283  -14.0150 N   0  0  0  0  0  0  0  0  0  0  0  0
   21.8429  -20.6459  -14.8439 C   0  0  0  0  0  0  0  0  0  0  0  0
   21.9578  -19.2409  -15.2576 C   0  0  0  0  0  0  0  0  0  0  0  0
   22.0721  -18.3338  -14.3612 O   0  0  0  0  0  0  0  0  0  0  0  0
   21.9578  -18.7650  -16.5802 N   0  0  0  0  0  0  0  0  0  0  0  0
   22.2406  -17.3639  -16.9129 C   0  0  1  0  0  0  0  0  0  0  0  0
   23.7012  -17.2355  -17.1365 C   0  0  0  0  0  0  0  0  0  0  0  0
   24.2713  -18.0190  -18.2676 C   0  0  0  0  0  0  0  0  0  0  0  0
   25.7127  -17.8213  -18.4508 C   0  0  0  0  0  0  0  0  0  0  0  0
   26.1325  -16.6493  -18.7287 O   0  0  0  0  0  0  0  0  0  0  0  0
   21.4242  -16.9347  -18.0724 C   0  0  0  0  0  0  0  0  0  0  0  0
   21.3820  -15.7297  -18.4177 O   0  0  0  0  0  0  0  0  0  0  0  0
   26.6499  -18.8342  -18.3400 O   0  0  0  0  0  0  0  0  0  0  0  0
   20.6725  -17.8333  -18.8279 O   0  0  0  0  0  0  0  0  0  0  0  0
  1  2  1  0
  2  3  2  0
  4  2  1  0
  5  6  1  6
  5  4  1  0
  7  5  1  0
  8  7  2  0
  9  7  1  0
 10 11  1  0
 10  9  1  0
 11 13  1  0
 12 11  2  0
 13 14  1  0
 14 19  1  0
 14 15  1  6
 15 16  1  0
 16 17  1  0
 17 21  1  0
 18 17  2  0
 19 20  2  0
 19 22  1  0
M  END
$$$$
