NGE.pdb
     RDKit          3D

 22 21  0  0  1  0  0  0  0  0999 V2000
   24.4703  -16.9156  -20.5371 N   0  0  0  0  0  0  0  0  0  0  0  0
   23.3806  -17.2176  -19.6809 C   0  0  0  0  0  0  0  0  0  0  0  0
   22.2262  -16.9872  -20.0849 O   0  0  0  0  0  0  0  0  0  0  0  0
   23.6646  -17.7924  -18.3462 C   0  0  0  0  0  0  0  0  0  0  0  0
   25.1434  -17.9437  -18.1287 C   0  0  2  0  0  0  0  0  0  0  0  0
   25.5282  -19.3164  -18.2746 N   0  0  0  0  0  0  0  0  0  0  0  0
   25.4674  -17.4417  -16.7442 C   0  0  0  0  0  0  0  0  0  0  0  0
   25.3962  -16.2143  -16.4798 O   0  0  0  0  0  0  0  0  0  0  0  0
   25.8574  -18.3281  -15.7135 N   0  0  0  0  0  0  0  0  0  0  0  0
   26.1174  -17.9345  -14.3530 C   0  0  0  0  0  0  0  0  0  0  0  0
   26.3595  -19.0425  -13.4191 C   0  0  0  0  0  0  0  0  0  0  0  0
   26.8116  -20.1520  -13.8711 O   0  0  0  0  0  0  0  0  0  0  0  0
   26.1426  -19.0171  -12.0306 N   0  0  0  0  0  0  0  0  0  0  0  0
   26.5297  -20.1275  -11.1527 C   0  0  1  0  0  0  0  0  0  0  0  0
   26.4717  -19.6417   -9.7525 C   0  0  0  0  0  0  0  0  0  0  0  0
   26.7402  -20.6487   -8.6884 C   0  0  0  0  0  0  0  0  0  0  0  0
   26.9887  -20.0573   -7.3699 C   0  0  0  0  0  0  0  0  0  0  0  0
   27.6886  -20.7175   -6.5323 O   0  0  0  0  0  0  0  0  0  0  0  0
   25.6708  -21.3080  -11.4057 C   0  0  0  0  0  0  0  0  0  0  0  0
   26.1326  -22.4704  -11.3126 O   0  0  0  0  0  0  0  0  0  0  0  0
   26.5076  -18.8201   -6.9769 O   0  0  0  0  0  0  0  0  0  0  0  0
   24.3264  -21.1902  -11.7549 O   0  0  0  0  0  0  0  0  0  0  0  0
  1  2  1  0
  2  3  2  0
  4  2  1  0
  5  6  1  1
  5  4  1  0
  7  5  1  0
  8  7  2  0
  9  7  1  0
 10 11  1  0
 10  9  1  0
 11 13  1  0
 12 11  2  0
 13 14  1  0
 14 19  1  0
 14 15  1  1
 15 16  1  0
 16 17  1  0
 17 21  1  0
 18 17  2  0
 19 20  2  0
 19 22  1  0
M  END
$$$$
