NGE.pdb
     RDKit          3D

 22 21  0  0  1  0  0  0  0  0999 V2000
   22.9315  -17.5531  -16.7857 N   0  0  0  0  0  0  0  0  0  0  0  0
   21.7117  -17.7839  -16.0997 C   0  0  0  0  0  0  0  0  0  0  0  0
   20.6546  -17.3743  -16.6133 O   0  0  0  0  0  0  0  0  0  0  0  0
   21.7503  -18.5005  -14.8046 C   0  0  0  0  0  0  0  0  0  0  0  0
   20.7410  -19.6130  -14.7746 C   0  0  2  0  0  0  0  0  0  0  0  0
   19.4243  -19.0828  -14.5771 N   0  0  0  0  0  0  0  0  0  0  0  0
   21.1124  -20.5530  -13.6555 C   0  0  0  0  0  0  0  0  0  0  0  0
   21.6885  -20.1192  -12.6252 O   0  0  0  0  0  0  0  0  0  0  0  0
   20.8267  -21.9360  -13.7319 N   0  0  0  0  0  0  0  0  0  0  0  0
   21.1206  -22.8891  -12.6933 C   0  0  0  0  0  0  0  0  0  0  0  0
   19.9520  -23.5822  -12.1346 C   0  0  0  0  0  0  0  0  0  0  0  0
   18.8083  -23.0075  -12.1732 O   0  0  0  0  0  0  0  0  0  0  0  0
   19.9508  -24.8563  -11.5411 N   0  0  0  0  0  0  0  0  0  0  0  0
   18.7441  -25.4506  -10.9542 C   0  0  1  0  0  0  0  0  0  0  0  0
   19.0390  -26.8720  -10.6501 C   0  0  0  0  0  0  0  0  0  0  0  0
   17.9386  -27.6604  -10.0287 C   0  0  0  0  0  0  0  0  0  0  0  0
   18.3023  -29.0519   -9.7435 C   0  0  0  0  0  0  0  0  0  0  0  0
   19.4605  -29.4584  -10.0907 O   0  0  0  0  0  0  0  0  0  0  0  0
   18.3079  -24.6705   -9.7725 C   0  0  0  0  0  0  0  0  0  0  0  0
   17.1019  -24.6446   -9.4291 O   0  0  0  0  0  0  0  0  0  0  0  0
   17.4611  -29.9557   -9.1173 O   0  0  0  0  0  0  0  0  0  0  0  0
   19.2008  -23.9365   -8.9932 O   0  0  0  0  0  0  0  0  0  0  0  0
  1  2  1  0
  2  3  2  0
  4  2  1  0
  5  6  1  1
  5  4  1  0
  7  5  1  0
  8  7  2  0
  9  7  1  0
 10 11  1  0
 10  9  1  0
 11 13  1  0
 12 11  2  0
 13 14  1  0
 14 19  1  0
 14 15  1  1
 15 16  1  0
 16 17  1  0
 17 21  1  0
 18 17  2  0
 19 20  2  0
 19 22  1  0
M  END
$$$$
