NGE.pdb
     RDKit          3D

 22 21  0  0  1  0  0  0  0  0999 V2000
   29.7151   -9.8094  -16.6012 N   0  0  0  0  0  0  0  0  0  0  0  0
   28.9323  -10.8632  -17.1381 C   0  0  0  0  0  0  0  0  0  0  0  0
   29.4745  -11.9665  -17.3323 O   0  0  0  0  0  0  0  0  0  0  0  0
   27.5068  -10.6041  -17.4435 C   0  0  0  0  0  0  0  0  0  0  0  0
   26.6264  -11.0242  -16.3010 C   0  0  2  0  0  0  0  0  0  0  0  0
   26.7962  -12.4215  -16.0317 N   0  0  0  0  0  0  0  0  0  0  0  0
   25.1971  -10.7213  -16.6744 C   0  0  0  0  0  0  0  0  0  0  0  0
   24.3719  -11.6553  -16.8420 O   0  0  0  0  0  0  0  0  0  0  0  0
   24.7483   -9.3912  -16.8455 N   0  0  0  0  0  0  0  0  0  0  0  0
   23.3846   -9.0184  -17.1196 C   0  0  0  0  0  0  0  0  0  0  0  0
   22.6493   -8.4605  -15.9766 C   0  0  0  0  0  0  0  0  0  0  0  0
   23.1729   -8.5185  -14.8094 O   0  0  0  0  0  0  0  0  0  0  0  0
   21.3866   -7.8450  -16.0255 N   0  0  0  0  0  0  0  0  0  0  0  0
   20.7783   -7.2018  -14.8550 C   0  0  1  0  0  0  0  0  0  0  0  0
   21.6440   -6.0642  -14.4599 C   0  0  0  0  0  0  0  0  0  0  0  0
   21.7113   -4.9195  -15.4104 C   0  0  0  0  0  0  0  0  0  0  0  0
   22.5630   -3.8200  -14.9457 C   0  0  0  0  0  0  0  0  0  0  0  0
   23.5358   -3.4536  -15.6850 O   0  0  0  0  0  0  0  0  0  0  0  0
   19.3813   -6.8074  -15.1517 C   0  0  0  0  0  0  0  0  0  0  0  0
   18.9129   -6.9234  -16.3093 O   0  0  0  0  0  0  0  0  0  0  0  0
   22.3745   -3.1523  -13.7477 O   0  0  0  0  0  0  0  0  0  0  0  0
   18.5283   -6.2951  -14.1753 O   0  0  0  0  0  0  0  0  0  0  0  0
  1  2  1  0
  2  3  2  0
  4  2  1  0
  5  6  1  6
  5  4  1  0
  7  5  1  0
  8  7  2  0
  9  7  1  0
 10 11  1  0
 10  9  1  0
 11 13  1  0
 12 11  2  0
 13 14  1  0
 14 19  1  0
 14 15  1  6
 15 16  1  0
 16 17  1  0
 17 21  1  0
 18 17  2  0
 19 20  2  0
 19 22  1  0
M  END
$$$$
