NGE.pdb
     RDKit          3D

 22 21  0  0  1  0  0  0  0  0999 V2000
   24.5639  -21.0343  -14.7166 N   0  0  0  0  0  0  0  0  0  0  0  0
   24.1930  -19.7439  -14.2593 C   0  0  0  0  0  0  0  0  0  0  0  0
   24.8344  -18.7604  -14.6721 O   0  0  0  0  0  0  0  0  0  0  0  0
   23.0612  -19.6245  -13.3122 C   0  0  0  0  0  0  0  0  0  0  0  0
   22.4868  -20.9740  -12.9868 C   0  0  2  0  0  0  0  0  0  0  0  0
   21.9911  -21.6019  -14.1758 N   0  0  0  0  0  0  0  0  0  0  0  0
   21.3791  -20.7822  -11.9817 C   0  0  0  0  0  0  0  0  0  0  0  0
   20.5127  -19.8870  -12.1530 O   0  0  0  0  0  0  0  0  0  0  0  0
   21.2840  -21.5955  -10.8286 N   0  0  0  0  0  0  0  0  0  0  0  0
   20.1447  -21.6346   -9.9487 C   0  0  0  0  0  0  0  0  0  0  0  0
   19.6078  -22.9762   -9.6838 C   0  0  0  0  0  0  0  0  0  0  0  0
   19.8390  -23.9174  -10.5208 O   0  0  0  0  0  0  0  0  0  0  0  0
   18.8403  -23.3553   -8.5690 N   0  0  0  0  0  0  0  0  0  0  0  0
   18.3634  -24.7291   -8.3715 C   0  0  1  0  0  0  0  0  0  0  0  0
   18.1182  -24.9213   -6.9214 C   0  0  0  0  0  0  0  0  0  0  0  0
   16.9672  -24.1776   -6.3381 C   0  0  0  0  0  0  0  0  0  0  0  0
   16.7159  -24.4963   -4.9290 C   0  0  0  0  0  0  0  0  0  0  0  0
   15.7877  -23.8661   -4.3220 O   0  0  0  0  0  0  0  0  0  0  0  0
   17.1712  -24.9866   -9.2127 C   0  0  0  0  0  0  0  0  0  0  0  0
   16.8963  -26.1476   -9.5994 O   0  0  0  0  0  0  0  0  0  0  0  0
   17.4281  -25.4441   -4.2142 O   0  0  0  0  0  0  0  0  0  0  0  0
   16.3068  -23.9683   -9.6118 O   0  0  0  0  0  0  0  0  0  0  0  0
  1  2  1  0
  2  3  2  0
  4  2  1  0
  5  6  1  6
  5  4  1  0
  7  5  1  0
  8  7  2  0
  9  7  1  0
 10 11  1  0
 10  9  1  0
 11 13  1  0
 12 11  2  0
 13 14  1  0
 14 19  1  0
 14 15  1  1
 15 16  1  0
 16 17  1  0
 17 21  1  0
 18 17  2  0
 19 20  2  0
 19 22  1  0
M  END
$$$$
