NGE.pdb
     RDKit          3D

 22 21  0  0  1  0  0  0  0  0999 V2000
   27.1284  -16.1038  -16.1822 N   0  0  0  0  0  0  0  0  0  0  0  0
   25.7241  -16.2350  -16.0317 C   0  0  0  0  0  0  0  0  0  0  0  0
   25.2556  -17.3618  -15.7870 O   0  0  0  0  0  0  0  0  0  0  0  0
   24.8792  -15.0273  -16.1725 C   0  0  0  0  0  0  0  0  0  0  0  0
   25.7179  -13.8134  -16.4552 C   0  0  2  0  0  0  0  0  0  0  0  0
   26.3065  -13.3240  -15.2437 N   0  0  0  0  0  0  0  0  0  0  0  0
   24.8311  -12.7659  -17.0800 C   0  0  0  0  0  0  0  0  0  0  0  0
   24.2850  -12.9765  -18.1931 O   0  0  0  0  0  0  0  0  0  0  0  0
   24.5906  -11.5287  -16.4386 N   0  0  0  0  0  0  0  0  0  0  0  0
   23.6998  -10.5116  -16.9340 C   0  0  0  0  0  0  0  0  0  0  0  0
   23.1561   -9.6075  -15.9116 C   0  0  0  0  0  0  0  0  0  0  0  0
   22.9415  -10.0567  -14.7318 O   0  0  0  0  0  0  0  0  0  0  0  0
   22.8349   -8.2511  -16.0925 N   0  0  0  0  0  0  0  0  0  0  0  0
   22.3713   -7.3981  -14.9920 C   0  0  1  0  0  0  0  0  0  0  0  0
   22.4790   -5.9865  -15.4344 C   0  0  0  0  0  0  0  0  0  0  0  0
   22.0958   -4.9473  -14.4385 C   0  0  0  0  0  0  0  0  0  0  0  0
   22.1421   -3.5810  -14.9687 C   0  0  0  0  0  0  0  0  0  0  0  0
   21.0975   -3.1150  -15.5334 O   0  0  0  0  0  0  0  0  0  0  0  0
   21.0021   -7.7867  -14.5804 C   0  0  0  0  0  0  0  0  0  0  0  0
   20.1870   -8.2481  -15.4145 O   0  0  0  0  0  0  0  0  0  0  0  0
   23.2557   -2.7621  -14.8933 O   0  0  0  0  0  0  0  0  0  0  0  0
   20.5555   -7.6617  -13.2658 O   0  0  0  0  0  0  0  0  0  0  0  0
  1  2  1  0
  2  3  2  0
  4  2  1  0
  5  6  1  1
  5  4  1  0
  7  5  1  0
  8  7  2  0
  9  7  1  0
 10 11  1  0
 10  9  1  0
 11 13  1  0
 12 11  2  0
 13 14  1  0
 14 19  1  0
 14 15  1  6
 15 16  1  0
 16 17  1  0
 17 21  1  0
 18 17  2  0
 19 20  2  0
 19 22  1  0
M  END
$$$$
