NGE.pdb
     RDKit          3D

 22 21  0  0  1  0  0  0  0  0999 V2000
   18.7098  -12.1368  -15.0992 N   0  0  0  0  0  0  0  0  0  0  0  0
   18.0806  -10.9094  -14.7683 C   0  0  0  0  0  0  0  0  0  0  0  0
   17.5345  -10.2579  -15.6774 O   0  0  0  0  0  0  0  0  0  0  0  0
   18.1017  -10.4584  -13.3582 C   0  0  0  0  0  0  0  0  0  0  0  0
   17.9454   -8.9670  -13.2676 C   0  0  2  0  0  0  0  0  0  0  0  0
   19.2253   -8.3280  -13.3536 N   0  0  0  0  0  0  0  0  0  0  0  0
   17.2738   -8.6447  -11.9564 C   0  0  0  0  0  0  0  0  0  0  0  0
   16.1363   -9.1117  -11.6927 O   0  0  0  0  0  0  0  0  0  0  0  0
   17.8977   -7.8158  -10.9952 N   0  0  0  0  0  0  0  0  0  0  0  0
   17.3475   -7.5106   -9.6999 C   0  0  0  0  0  0  0  0  0  0  0  0
   16.4342   -6.3604   -9.6661 C   0  0  0  0  0  0  0  0  0  0  0  0
   16.2358   -5.6893  -10.7385 O   0  0  0  0  0  0  0  0  0  0  0  0
   15.7257   -5.8988   -8.5433 N   0  0  0  0  0  0  0  0  0  0  0  0
   14.8083   -4.7551   -8.6066 C   0  0  1  0  0  0  0  0  0  0  0  0
   14.0401   -4.7177   -7.3384 C   0  0  0  0  0  0  0  0  0  0  0  0
   13.1121   -3.5668   -7.1577 C   0  0  0  0  0  0  0  0  0  0  0  0
   12.2811   -3.6663   -5.9537 C   0  0  0  0  0  0  0  0  0  0  0  0
   12.3983   -4.7041   -5.2213 O   0  0  0  0  0  0  0  0  0  0  0  0
   15.5585   -3.5073   -8.8812 C   0  0  0  0  0  0  0  0  0  0  0  0
   16.7569   -3.3877   -8.5311 O   0  0  0  0  0  0  0  0  0  0  0  0
   11.3727   -2.6980   -5.5618 O   0  0  0  0  0  0  0  0  0  0  0  0
   14.9808   -2.4186   -9.5326 O   0  0  0  0  0  0  0  0  0  0  0  0
  1  2  1  0
  2  3  2  0
  4  2  1  0
  5  6  1  1
  5  4  1  0
  7  5  1  0
  8  7  2  0
  9  7  1  0
 10 11  1  0
 10  9  1  0
 11 13  1  0
 12 11  2  0
 13 14  1  0
 14 19  1  0
 14 15  1  1
 15 16  1  0
 16 17  1  0
 17 21  1  0
 18 17  2  0
 19 20  2  0
 19 22  1  0
M  END
$$$$
