NGE.pdb
     RDKit          3D

 22 21  0  0  1  0  0  0  0  0999 V2000
   20.0645  -13.1533  -20.5275 N   0  0  0  0  0  0  0  0  0  0  0  0
   19.0857  -13.2357  -19.5042 C   0  0  0  0  0  0  0  0  0  0  0  0
   17.9426  -13.6250  -19.8056 O   0  0  0  0  0  0  0  0  0  0  0  0
   19.4668  -12.8551  -18.1250 C   0  0  0  0  0  0  0  0  0  0  0  0
   20.9255  -12.5044  -18.0468 C   0  0  2  0  0  0  0  0  0  0  0  0
   21.7232  -13.6948  -18.0596 N   0  0  0  0  0  0  0  0  0  0  0  0
   21.1523  -11.7222  -16.7777 C   0  0  0  0  0  0  0  0  0  0  0  0
   21.0293  -12.2789  -15.6568 O   0  0  0  0  0  0  0  0  0  0  0  0
   21.5061  -10.3533  -16.8113 N   0  0  0  0  0  0  0  0  0  0  0  0
   21.7782   -9.5514  -15.6465 C   0  0  0  0  0  0  0  0  0  0  0  0
   21.9114   -8.1104  -15.8993 C   0  0  0  0  0  0  0  0  0  0  0  0
   21.8794   -7.6829  -17.1060 O   0  0  0  0  0  0  0  0  0  0  0  0
   22.0748   -7.1107  -14.9248 N   0  0  0  0  0  0  0  0  0  0  0  0
   22.0686   -5.6808  -15.2548 C   0  0  1  0  0  0  0  0  0  0  0  0
   20.7800   -5.3736  -15.9219 C   0  0  0  0  0  0  0  0  0  0  0  0
   19.5434   -5.7692  -15.1921 C   0  0  0  0  0  0  0  0  0  0  0  0
   18.3073   -5.3710  -15.8729 C   0  0  0  0  0  0  0  0  0  0  0  0
   17.9546   -4.1463  -15.8202 O   0  0  0  0  0  0  0  0  0  0  0  0
   22.3138   -4.8702  -14.0390 C   0  0  0  0  0  0  0  0  0  0  0  0
   22.3633   -5.4084  -12.9072 O   0  0  0  0  0  0  0  0  0  0  0  0
   17.4959   -6.2476  -16.5727 O   0  0  0  0  0  0  0  0  0  0  0  0
   22.4993   -3.4895  -14.0889 O   0  0  0  0  0  0  0  0  0  0  0  0
  1  2  1  0
  2  3  2  0
  4  2  1  0
  5  6  1  1
  5  4  1  0
  7  5  1  0
  8  7  2  0
  9  7  1  0
 10 11  1  0
 10  9  1  0
 11 13  1  0
 12 11  2  0
 13 14  1  0
 14 19  1  0
 14 15  1  1
 15 16  1  0
 16 17  1  0
 17 21  1  0
 18 17  2  0
 19 20  2  0
 19 22  1  0
M  END
$$$$
