NGE.pdb
     RDKit          3D

 22 21  0  0  1  0  0  0  0  0999 V2000
   17.7614  -12.3101  -18.0607 N   0  0  0  0  0  0  0  0  0  0  0  0
   18.0801  -12.9804  -16.8521 C   0  0  0  0  0  0  0  0  0  0  0  0
   17.4510  -14.0146  -16.5627 O   0  0  0  0  0  0  0  0  0  0  0  0
   19.1454  -12.4207  -15.9894 C   0  0  0  0  0  0  0  0  0  0  0  0
   19.7672  -11.2074  -16.6205 C   0  0  2  0  0  0  0  0  0  0  0  0
   20.8325  -11.5952  -17.4971 N   0  0  0  0  0  0  0  0  0  0  0  0
   20.2799  -10.3159  -15.5176 C   0  0  0  0  0  0  0  0  0  0  0  0
   19.4774   -9.7521  -14.7305 O   0  0  0  0  0  0  0  0  0  0  0  0
   21.6645  -10.0903  -15.3386 N   0  0  0  0  0  0  0  0  0  0  0  0
   22.2238   -9.1308  -14.4220 C   0  0  0  0  0  0  0  0  0  0  0  0
   22.2155   -7.7397  -14.8942 C   0  0  0  0  0  0  0  0  0  0  0  0
   22.7954   -7.4523  -15.9990 O   0  0  0  0  0  0  0  0  0  0  0  0
   21.6164   -6.6480  -14.2424 N   0  0  0  0  0  0  0  0  0  0  0  0
   21.6370   -5.2903  -14.7992 C   0  0  1  0  0  0  0  0  0  0  0  0
   20.2333   -4.8264  -14.9186 C   0  0  0  0  0  0  0  0  0  0  0  0
   19.3968   -5.4999  -15.9506 C   0  0  0  0  0  0  0  0  0  0  0  0
   18.0251   -4.9864  -16.0209 C   0  0  0  0  0  0  0  0  0  0  0  0
   17.5964   -4.5564  -17.1428 O   0  0  0  0  0  0  0  0  0  0  0  0
   22.4844   -4.4047  -13.9668 C   0  0  0  0  0  0  0  0  0  0  0  0
   22.7021   -4.6716  -12.7608 O   0  0  0  0  0  0  0  0  0  0  0  0
   17.1631   -4.9396  -14.9387 O   0  0  0  0  0  0  0  0  0  0  0  0
   23.0742   -3.2472  -14.4724 O   0  0  0  0  0  0  0  0  0  0  0  0
  1  2  1  0
  2  3  2  0
  4  2  1  0
  5  6  1  6
  5  4  1  0
  7  5  1  0
  8  7  2  0
  9  7  1  0
 10 11  1  0
 10  9  1  0
 11 13  1  0
 12 11  2  0
 13 14  1  0
 14 19  1  0
 14 15  1  1
 15 16  1  0
 16 17  1  0
 17 21  1  0
 18 17  2  0
 19 20  2  0
 19 22  1  0
M  END
$$$$
