FGA.pdb
     RDKit          3D

 21 21  0  0  1  0  0  0  0  0999 V2000
   23.8760   -9.7651  -16.5648 N   0  0  0  0  0  0  0  0  0  0  0  0
   22.5646  -10.3628  -16.6975 C   0  0  1  0  0  0  0  0  0  0  0  0
   22.6446  -11.7180  -15.9809 C   0  0  0  0  0  0  0  0  0  0  0  0
   23.6005  -12.6260  -16.6418 C   0  0  0  0  0  0  0  0  0  0  0  0
   24.7246  -13.0467  -15.9365 C   0  0  0  0  0  0  0  0  0  0  0  0
   25.6625  -13.8914  -16.4795 C   0  0  0  0  0  0  0  0  0  0  0  0
   25.4537  -14.3201  -17.7721 C   0  0  0  0  0  0  0  0  0  0  0  0
   24.3433  -13.9117  -18.4852 C   0  0  0  0  0  0  0  0  0  0  0  0
   23.4121  -13.0596  -17.9155 C   0  0  0  0  0  0  0  0  0  0  0  0
   21.5354   -9.5817  -15.9561 C   0  0  0  0  0  0  0  0  0  0  0  0
   20.3503   -9.9921  -15.9835 O   0  0  0  0  0  0  0  0  0  0  0  0
   21.8235   -8.4083  -15.2271 N   0  0  0  0  0  0  0  0  0  0  0  0
   20.8765   -7.5436  -14.6209 C   0  0  0  0  0  0  0  0  0  0  0  0
   21.0640   -6.1056  -14.8147 C   0  0  0  0  0  0  0  0  0  0  0  0
   22.0715   -5.7719  -15.4953 O   0  0  0  0  0  0  0  0  0  0  0  0
   19.4883   -2.8223  -14.1137 C   0  0  0  0  0  0  0  0  0  0  0  0
   20.6219   -3.6994  -14.5986 C   0  0  2  0  0  0  0  0  0  0  0  0
   20.2379   -5.0700  -14.3187 N   0  0  0  0  0  0  0  0  0  0  0  0
   21.8274   -3.3527  -13.7944 C   0  0  0  0  0  0  0  0  0  0  0  0
   22.0982   -4.0375  -12.7751 O   0  0  0  0  0  0  0  0  0  0  0  0
   22.6693   -2.3094  -14.1134 O   0  0  0  0  0  0  0  0  0  0  0  0
  2  1  1  1
  2 10  1  0
  3  2  1  0
  3  4  1  0
  4  5  2  0
  5  6  1  0
  7  6  2  0
  8  7  1  0
  9  4  1  0
  9  8  2  0
 10 11  2  0
 12 13  1  0
 12 10  1  0
 13 14  1  0
 14 15  2  0
 14 18  1  0
 17 16  1  1
 17 19  1  0
 18 17  1  0
 19 21  1  0
 20 19  2  0
M  END
$$$$
