FGA.pdb
     RDKit          3D

 21 21  0  0  1  0  0  0  0  0999 V2000
   23.2141  -12.2131  -15.3082 N   0  0  0  0  0  0  0  0  0  0  0  0
   23.8517  -10.9592  -15.6487 C   0  0  1  0  0  0  0  0  0  0  0  0
   24.8410  -11.2821  -16.7771 C   0  0  0  0  0  0  0  0  0  0  0  0
   26.0729  -11.9047  -16.2573 C   0  0  0  0  0  0  0  0  0  0  0  0
   27.1466  -11.0867  -15.9167 C   0  0  0  0  0  0  0  0  0  0  0  0
   28.3285  -11.5872  -15.4261 C   0  0  0  0  0  0  0  0  0  0  0  0
   28.4227  -12.9537  -15.2775 C   0  0  0  0  0  0  0  0  0  0  0  0
   27.3661  -13.7789  -15.6110 C   0  0  0  0  0  0  0  0  0  0  0  0
   26.1850  -13.2499  -16.1036 C   0  0  0  0  0  0  0  0  0  0  0  0
   22.8776   -9.9982  -16.2376 C   0  0  0  0  0  0  0  0  0  0  0  0
   21.8168  -10.4575  -16.7249 O   0  0  0  0  0  0  0  0  0  0  0  0
   23.0858   -8.6031  -16.2758 N   0  0  0  0  0  0  0  0  0  0  0  0
   22.1984   -7.6370  -16.8155 C   0  0  0  0  0  0  0  0  0  0  0  0
   21.2427   -7.0193  -15.8960 C   0  0  0  0  0  0  0  0  0  0  0  0
   21.1995   -7.5146  -14.7374 O   0  0  0  0  0  0  0  0  0  0  0  0
   18.8593   -4.1935  -15.6159 C   0  0  0  0  0  0  0  0  0  0  0  0
   19.5118   -5.4629  -15.1130 C   0  0  2  0  0  0  0  0  0  0  0  0
   20.3750   -5.9382  -16.1774 N   0  0  0  0  0  0  0  0  0  0  0  0
   18.4272   -6.4573  -14.8786 C   0  0  0  0  0  0  0  0  0  0  0  0
   18.1971   -7.3271  -15.7571 O   0  0  0  0  0  0  0  0  0  0  0  0
   17.6554   -6.4728  -13.7371 O   0  0  0  0  0  0  0  0  0  0  0  0
  2  1  1  6
  2 10  1  0
  3  2  1  0
  3  4  1  0
  4  5  2  0
  5  6  1  0
  7  6  2  0
  8  7  1  0
  9  4  1  0
  9  8  2  0
 10 11  2  0
 12 13  1  0
 12 10  1  0
 13 14  1  0
 14 15  2  0
 14 18  1  0
 17 16  1  6
 17 19  1  0
 18 17  1  0
 19 21  1  0
 20 19  2  0
M  END
$$$$
