FGA.pdb
     RDKit          3D

 21 21  0  0  1  0  0  0  0  0999 V2000
   25.5711  -19.3194  -17.3994 N   0  0  0  0  0  0  0  0  0  0  0  0
   26.9773  -19.6538  -17.3247 C   0  0  1  0  0  0  0  0  0  0  0  0
   27.7247  -18.4794  -17.9716 C   0  0  0  0  0  0  0  0  0  0  0  0
   27.4610  -18.4000  -19.4205 C   0  0  0  0  0  0  0  0  0  0  0  0
   26.7883  -17.2886  -19.9207 C   0  0  0  0  0  0  0  0  0  0  0  0
   26.5037  -17.1384  -21.2565 C   0  0  0  0  0  0  0  0  0  0  0  0
   26.9126  -18.1426  -22.1065 C   0  0  0  0  0  0  0  0  0  0  0  0
   27.5811  -19.2518  -21.6257 C   0  0  0  0  0  0  0  0  0  0  0  0
   27.8562  -19.3799  -20.2746 C   0  0  0  0  0  0  0  0  0  0  0  0
   27.4501  -19.6960  -15.9127 C   0  0  0  0  0  0  0  0  0  0  0  0
   28.6504  -19.9934  -15.7011 O   0  0  0  0  0  0  0  0  0  0  0  0
   26.6209  -19.4197  -14.8049 N   0  0  0  0  0  0  0  0  0  0  0  0
   26.9900  -19.5080  -13.4381 C   0  0  0  0  0  0  0  0  0  0  0  0
   26.1392  -20.3188  -12.5668 C   0  0  0  0  0  0  0  0  0  0  0  0
   25.1180  -20.8194  -13.1109 O   0  0  0  0  0  0  0  0  0  0  0  0
   25.7472  -21.3634   -9.0269 C   0  0  0  0  0  0  0  0  0  0  0  0
   25.3000  -21.2844  -10.4704 C   0  0  2  0  0  0  0  0  0  0  0  0
   26.3476  -20.5894  -11.1942 N   0  0  0  0  0  0  0  0  0  0  0  0
   24.0538  -20.4684  -10.5055 C   0  0  0  0  0  0  0  0  0  0  0  0
   24.1405  -19.2314  -10.7136 O   0  0  0  0  0  0  0  0  0  0  0  0
   22.7983  -21.0053  -10.3196 O   0  0  0  0  0  0  0  0  0  0  0  0
  2  1  1  1
  2 10  1  0
  3  2  1  0
  3  4  1  0
  4  5  2  0
  5  6  1  0
  7  6  2  0
  8  7  1  0
  9  4  1  0
  9  8  2  0
 10 11  2  0
 12 13  1  0
 12 10  1  0
 13 14  1  0
 14 15  2  0
 14 18  1  0
 17 16  1  1
 17 19  1  0
 18 17  1  0
 19 21  1  0
 20 19  2  0
M  END
$$$$
