FGA.pdb
     RDKit          3D

 21 21  0  0  1  0  0  0  0  0999 V2000
   23.3501  -18.1689  -17.8725 N   0  0  0  0  0  0  0  0  0  0  0  0
   23.7356  -19.2902  -17.0426 C   0  0  1  0  0  0  0  0  0  0  0  0
   24.7784  -20.0744  -17.8514 C   0  0  0  0  0  0  0  0  0  0  0  0
   24.1664  -20.7626  -19.0034 C   0  0  0  0  0  0  0  0  0  0  0  0
   23.5156  -21.9750  -18.7931 C   0  0  0  0  0  0  0  0  0  0  0  0
   22.9202  -22.6789  -19.8120 C   0  0  0  0  0  0  0  0  0  0  0  0
   22.9874  -22.1377  -21.0772 C   0  0  0  0  0  0  0  0  0  0  0  0
   23.6295  -20.9354  -21.3023 C   0  0  0  0  0  0  0  0  0  0  0  0
   24.2221  -20.2450  -20.2583 C   0  0  0  0  0  0  0  0  0  0  0  0
   24.4454  -18.8363  -15.8140 C   0  0  0  0  0  0  0  0  0  0  0  0
   25.0267  -17.7250  -15.8449 O   0  0  0  0  0  0  0  0  0  0  0  0
   24.4977  -19.5891  -14.6216 N   0  0  0  0  0  0  0  0  0  0  0  0
   25.0570  -19.1683  -13.3878 C   0  0  0  0  0  0  0  0  0  0  0  0
   25.0002  -20.1123  -12.2714 C   0  0  0  0  0  0  0  0  0  0  0  0
   24.2918  -21.1384  -12.4579 O   0  0  0  0  0  0  0  0  0  0  0  0
   26.2457  -20.6447   -8.8156 C   0  0  0  0  0  0  0  0  0  0  0  0
   25.3735  -20.9821  -10.0052 C   0  0  2  0  0  0  0  0  0  0  0  0
   25.6516  -19.9859  -11.0223 N   0  0  0  0  0  0  0  0  0  0  0  0
   23.9552  -20.8544   -9.5669 C   0  0  0  0  0  0  0  0  0  0  0  0
   23.4578  -21.7529   -8.8414 O   0  0  0  0  0  0  0  0  0  0  0  0
   23.1524  -19.7912   -9.9193 O   0  0  0  0  0  0  0  0  0  0  0  0
  2  1  1  6
  2 10  1  0
  3  2  1  0
  3  4  1  0
  4  5  2  0
  5  6  1  0
  7  6  2  0
  8  7  1  0
  9  4  1  0
  9  8  2  0
 10 11  2  0
 12 13  1  0
 12 10  1  0
 13 14  1  0
 14 15  2  0
 14 18  1  0
 17 16  1  1
 17 19  1  0
 18 17  1  0
 19 21  1  0
 20 19  2  0
M  END
$$$$
