FGA.pdb
     RDKit          3D

 21 21  0  0  1  0  0  0  0  0999 V2000
   25.4247  -32.2812  -15.2731 N   0  0  0  0  0  0  0  0  0  0  0  0
   25.3993  -33.4394  -14.4057 C   0  0  1  0  0  0  0  0  0  0  0  0
   26.8676  -33.8075  -14.1507 C   0  0  0  0  0  0  0  0  0  0  0  0
   27.4511  -34.5353  -15.2931 C   0  0  0  0  0  0  0  0  0  0  0  0
   28.4489  -33.9190  -16.0430 C   0  0  0  0  0  0  0  0  0  0  0  0
   29.0435  -34.5283  -17.1216 C   0  0  0  0  0  0  0  0  0  0  0  0
   28.6137  -35.7961  -17.4472 C   0  0  0  0  0  0  0  0  0  0  0  0
   27.6244  -36.4212  -16.7130 C   0  0  0  0  0  0  0  0  0  0  0  0
   27.0406  -35.7859  -15.6299 C   0  0  0  0  0  0  0  0  0  0  0  0
   24.8363  -33.1027  -13.0682 C   0  0  0  0  0  0  0  0  0  0  0  0
   24.1057  -32.0872  -12.9743 O   0  0  0  0  0  0  0  0  0  0  0  0
   25.0815  -33.8640  -11.9057 N   0  0  0  0  0  0  0  0  0  0  0  0
   24.5183  -33.6415  -10.6230 C   0  0  0  0  0  0  0  0  0  0  0  0
   25.4444  -33.3608   -9.5256 C   0  0  0  0  0  0  0  0  0  0  0  0
   26.6636  -33.5662   -9.7724 O   0  0  0  0  0  0  0  0  0  0  0  0
   25.5647  -32.1097   -6.0347 C   0  0  0  0  0  0  0  0  0  0  0  0
   26.1769  -32.7463   -7.2635 C   0  0  2  0  0  0  0  0  0  0  0  0
   25.1089  -32.8903   -8.2346 N   0  0  0  0  0  0  0  0  0  0  0  0
   26.6662  -34.0968   -6.8672 C   0  0  0  0  0  0  0  0  0  0  0  0
   27.7144  -34.1878   -6.1786 O   0  0  0  0  0  0  0  0  0  0  0  0
   26.0225  -35.2630   -7.2204 O   0  0  0  0  0  0  0  0  0  0  0  0
  2  1  1  6
  2 10  1  0
  3  2  1  0
  3  4  1  0
  4  5  2  0
  5  6  1  0
  7  6  2  0
  8  7  1  0
  9  4  1  0
  9  8  2  0
 10 11  2  0
 12 13  1  0
 12 10  1  0
 13 14  1  0
 14 15  2  0
 14 18  1  0
 17 16  1  1
 17 19  1  0
 18 17  1  0
 19 21  1  0
 20 19  2  0
M  END
$$$$
