FGA.pdb
     RDKit          3D

 21 21  0  0  1  0  0  0  0  0999 V2000
   22.9491   -9.5451  -13.7163 N   0  0  0  0  0  0  0  0  0  0  0  0
   22.8369   -8.6722  -14.8653 C   0  0  1  0  0  0  0  0  0  0  0  0
   23.2682   -9.5116  -16.0761 C   0  0  0  0  0  0  0  0  0  0  0  0
   24.6831   -9.9165  -15.9795 C   0  0  0  0  0  0  0  0  0  0  0  0
   24.9854  -11.1986  -15.5292 C   0  0  0  0  0  0  0  0  0  0  0  0
   26.2767  -11.6531  -15.4105 C   0  0  0  0  0  0  0  0  0  0  0  0
   27.2871  -10.7835  -15.7580 C   0  0  0  0  0  0  0  0  0  0  0  0
   27.0035   -9.5080  -16.2066 C   0  0  0  0  0  0  0  0  0  0  0  0
   25.6934   -9.0734  -16.3175 C   0  0  0  0  0  0  0  0  0  0  0  0
   21.4185   -8.2990  -15.1260 C   0  0  0  0  0  0  0  0  0  0  0  0
   20.5251   -9.1242  -14.8182 O   0  0  0  0  0  0  0  0  0  0  0  0
   21.0291   -7.0698  -15.6992 N   0  0  0  0  0  0  0  0  0  0  0  0
   19.7092   -6.6905  -16.0543 C   0  0  0  0  0  0  0  0  0  0  0  0
   19.5071   -5.3124  -16.5023 C   0  0  0  0  0  0  0  0  0  0  0  0
   20.5225   -4.5667  -16.4535 O   0  0  0  0  0  0  0  0  0  0  0  0
   16.9925   -3.0616  -18.0299 C   0  0  0  0  0  0  0  0  0  0  0  0
   18.3017   -3.3360  -17.3223 C   0  0  2  0  0  0  0  0  0  0  0  0
   18.3012   -4.7446  -16.9757 N   0  0  0  0  0  0  0  0  0  0  0  0
   18.3111   -2.5227  -16.0739 C   0  0  0  0  0  0  0  0  0  0  0  0
   17.9836   -3.0671  -14.9888 O   0  0  0  0  0  0  0  0  0  0  0  0
   18.6638   -1.1908  -16.0472 O   0  0  0  0  0  0  0  0  0  0  0  0
  2  1  1  1
  2 10  1  0
  3  2  1  0
  3  4  1  0
  4  5  2  0
  5  6  1  0
  7  6  2  0
  8  7  1  0
  9  4  1  0
  9  8  2  0
 10 11  2  0
 12 13  1  0
 12 10  1  0
 13 14  1  0
 14 15  2  0
 14 18  1  0
 17 16  1  1
 17 19  1  0
 18 17  1  0
 19 21  1  0
 20 19  2  0
M  END
$$$$
