FGA.pdb
     RDKit          3D

 21 21  0  0  1  0  0  0  0  0999 V2000
   24.3500  -10.5945  -15.5403 N   0  0  0  0  0  0  0  0  0  0  0  0
   23.0739  -10.2061  -16.1018 C   0  0  1  0  0  0  0  0  0  0  0  0
   22.2783  -11.5067  -16.2799 C   0  0  0  0  0  0  0  0  0  0  0  0
   22.8052  -12.3172  -17.3938 C   0  0  0  0  0  0  0  0  0  0  0  0
   22.5314  -11.9219  -18.7002 C   0  0  0  0  0  0  0  0  0  0  0  0
   22.9848  -12.6212  -19.7926 C   0  0  0  0  0  0  0  0  0  0  0  0
   23.7355  -13.7511  -19.5525 C   0  0  0  0  0  0  0  0  0  0  0  0
   24.0159  -14.1566  -18.2620 C   0  0  0  0  0  0  0  0  0  0  0  0
   23.5473  -13.4344  -17.1773 C   0  0  0  0  0  0  0  0  0  0  0  0
   22.2851   -9.3868  -15.1396 C   0  0  0  0  0  0  0  0  0  0  0  0
   22.5927   -9.4447  -13.9248 O   0  0  0  0  0  0  0  0  0  0  0  0
   21.2138   -8.5521  -15.5225 N   0  0  0  0  0  0  0  0  0  0  0  0
   20.3771   -7.8083  -14.6514 C   0  0  0  0  0  0  0  0  0  0  0  0
   19.4420   -6.8655  -15.2657 C   0  0  0  0  0  0  0  0  0  0  0  0
   19.5841   -6.6828  -16.5050 O   0  0  0  0  0  0  0  0  0  0  0  0
   16.3679   -4.9327  -14.5900 C   0  0  0  0  0  0  0  0  0  0  0  0
   17.6021   -5.2450  -15.4080 C   0  0  2  0  0  0  0  0  0  0  0  0
   18.4114   -6.1494  -14.6133 N   0  0  0  0  0  0  0  0  0  0  0  0
   18.3415   -3.9661  -15.6027 C   0  0  0  0  0  0  0  0  0  0  0  0
   19.2924   -3.6874  -14.8286 O   0  0  0  0  0  0  0  0  0  0  0  0
   18.0335   -3.0638  -16.5978 O   0  0  0  0  0  0  0  0  0  0  0  0
  2  1  1  1
  2 10  1  0
  3  2  1  0
  3  4  1  0
  4  5  2  0
  5  6  1  0
  7  6  2  0
  8  7  1  0
  9  4  1  0
  9  8  2  0
 10 11  2  0
 12 13  1  0
 12 10  1  0
 13 14  1  0
 14 15  2  0
 14 18  1  0
 17 16  1  1
 17 19  1  0
 18 17  1  0
 19 21  1  0
 20 19  2  0
M  END
$$$$
