FGA.pdb
     RDKit          3D

 21 21  0  0  1  0  0  0  0  0999 V2000
   25.8378  -19.7099  -18.6786 N   0  0  0  0  0  0  0  0  0  0  0  0
   25.3170  -19.8195  -17.3328 C   0  0  1  0  0  0  0  0  0  0  0  0
   24.1193  -20.7757  -17.4208 C   0  0  0  0  0  0  0  0  0  0  0  0
   22.9695  -20.1449  -18.0955 C   0  0  0  0  0  0  0  0  0  0  0  0
   22.1772  -19.2524  -17.3788 C   0  0  0  0  0  0  0  0  0  0  0  0
   21.0890  -18.6229  -17.9333 C   0  0  0  0  0  0  0  0  0  0  0  0
   20.7976  -18.9068  -19.2496 C   0  0  0  0  0  0  0  0  0  0  0  0
   21.5741  -19.7901  -19.9743 C   0  0  0  0  0  0  0  0  0  0  0  0
   22.6661  -20.4120  -19.3926 C   0  0  0  0  0  0  0  0  0  0  0  0
   26.2926  -20.4877  -16.4268 C   0  0  0  0  0  0  0  0  0  0  0  0
   27.4879  -20.5640  -16.8001 O   0  0  0  0  0  0  0  0  0  0  0  0
   25.9433  -21.0373  -15.1750 N   0  0  0  0  0  0  0  0  0  0  0  0
   26.2500  -20.4891  -13.9031 C   0  0  0  0  0  0  0  0  0  0  0  0
   25.6913  -21.1644  -12.7316 C   0  0  0  0  0  0  0  0  0  0  0  0
   24.7155  -21.9307  -12.9552 O   0  0  0  0  0  0  0  0  0  0  0  0
   25.8432  -20.9325   -9.0351 C   0  0  0  0  0  0  0  0  0  0  0  0
   25.1905  -21.3513  -10.3346 C   0  0  2  0  0  0  0  0  0  0  0  0
   26.1324  -21.0411  -11.3933 N   0  0  0  0  0  0  0  0  0  0  0  0
   23.9668  -20.5186  -10.5058 C   0  0  0  0  0  0  0  0  0  0  0  0
   22.8991  -20.8820   -9.9499 O   0  0  0  0  0  0  0  0  0  0  0  0
   23.9449  -19.3587  -11.2497 O   0  0  0  0  0  0  0  0  0  0  0  0
  2  1  1  6
  2 10  1  0
  3  2  1  0
  3  4  1  0
  4  5  2  0
  5  6  1  0
  7  6  2  0
  8  7  1  0
  9  4  1  0
  9  8  2  0
 10 11  2  0
 12 13  1  0
 12 10  1  0
 13 14  1  0
 14 15  2  0
 14 18  1  0
 17 16  1  1
 17 19  1  0
 18 17  1  0
 19 21  1  0
 20 19  2  0
M  END
$$$$
