FGA.pdb
     RDKit          3D

 21 21  0  0  1  0  0  0  0  0999 V2000
   25.4607  -20.0130   -7.4557 N   0  0  0  0  0  0  0  0  0  0  0  0
   26.5545  -20.1844   -8.3878 C   0  0  1  0  0  0  0  0  0  0  0  0
   27.6094  -21.0213   -7.6507 C   0  0  0  0  0  0  0  0  0  0  0  0
   28.0871  -20.3414   -6.4322 C   0  0  0  0  0  0  0  0  0  0  0  0
   28.6719  -19.0837   -6.5504 C   0  0  0  0  0  0  0  0  0  0  0  0
   29.1423  -18.3842   -5.4652 C   0  0  0  0  0  0  0  0  0  0  0  0
   29.0157  -18.9770   -4.2281 C   0  0  0  0  0  0  0  0  0  0  0  0
   28.4377  -20.2246   -4.0942 C   0  0  0  0  0  0  0  0  0  0  0  0
   27.9712  -20.9096   -5.2035 C   0  0  0  0  0  0  0  0  0  0  0  0
   26.1437  -21.0067   -9.5602 C   0  0  0  0  0  0  0  0  0  0  0  0
   24.9685  -21.4445   -9.5910 O   0  0  0  0  0  0  0  0  0  0  0  0
   27.0050  -21.3175  -10.6339 N   0  0  0  0  0  0  0  0  0  0  0  0
   26.9794  -20.7329  -11.9260 C   0  0  0  0  0  0  0  0  0  0  0  0
   25.6726  -20.5843  -12.5669 C   0  0  0  0  0  0  0  0  0  0  0  0
   25.3661  -19.4134  -12.9200 O   0  0  0  0  0  0  0  0  0  0  0  0
   23.0893  -22.5410  -14.2676 C   0  0  0  0  0  0  0  0  0  0  0  0
   23.5434  -21.2722  -13.5794 C   0  0  2  0  0  0  0  0  0  0  0  0
   24.7340  -21.6111  -12.8231 N   0  0  0  0  0  0  0  0  0  0  0  0
   22.4622  -20.8659  -12.6380 C   0  0  0  0  0  0  0  0  0  0  0  0
   22.6477  -21.0004  -11.4016 O   0  0  0  0  0  0  0  0  0  0  0  0
   21.2572  -20.3450  -13.0571 O   0  0  0  0  0  0  0  0  0  0  0  0
  2  1  1  1
  2 10  1  0
  3  2  1  0
  3  4  1  0
  4  5  2  0
  5  6  1  0
  7  6  2  0
  8  7  1  0
  9  4  1  0
  9  8  2  0
 10 11  2  0
 12 13  1  0
 12 10  1  0
 13 14  1  0
 14 15  2  0
 14 18  1  0
 17 16  1  1
 17 19  1  0
 18 17  1  0
 19 21  1  0
 20 19  2  0
M  END
$$$$
