FGA.pdb
     RDKit          3D

 21 21  0  0  1  0  0  0  0  0999 V2000
   25.4512  -21.0886   -7.1256 N   0  0  0  0  0  0  0  0  0  0  0  0
   26.1371  -20.3301   -8.1498 C   0  0  1  0  0  0  0  0  0  0  0  0
   27.6358  -20.4814   -7.8538 C   0  0  0  0  0  0  0  0  0  0  0  0
   27.9878  -19.9224   -6.5351 C   0  0  0  0  0  0  0  0  0  0  0  0
   28.5946  -20.7504   -5.5950 C   0  0  0  0  0  0  0  0  0  0  0  0
   28.9536  -20.3076   -4.3447 C   0  0  0  0  0  0  0  0  0  0  0  0
   28.6896  -18.9899   -4.0412 C   0  0  0  0  0  0  0  0  0  0  0  0
   28.0880  -18.1554   -4.9632 C   0  0  0  0  0  0  0  0  0  0  0  0
   27.7355  -18.6258   -6.2171 C   0  0  0  0  0  0  0  0  0  0  0  0
   25.9357  -20.9330   -9.4970 C   0  0  0  0  0  0  0  0  0  0  0  0
   26.4038  -22.0778   -9.7071 O   0  0  0  0  0  0  0  0  0  0  0  0
   25.2483  -20.2854  -10.5454 N   0  0  0  0  0  0  0  0  0  0  0  0
   25.1092  -20.7583  -11.8755 C   0  0  0  0  0  0  0  0  0  0  0  0
   24.3812  -19.9059  -12.8156 C   0  0  0  0  0  0  0  0  0  0  0  0
   23.9041  -18.8429  -12.3340 O   0  0  0  0  0  0  0  0  0  0  0  0
   23.5308  -19.5489  -16.4015 C   0  0  0  0  0  0  0  0  0  0  0  0
   23.3638  -19.2036  -14.9377 C   0  0  2  0  0  0  0  0  0  0  0  0
   24.1629  -20.1561  -14.1906 N   0  0  0  0  0  0  0  0  0  0  0  0
   21.9258  -19.3945  -14.5973 C   0  0  0  0  0  0  0  0  0  0  0  0
   21.5522  -20.4983  -14.1250 O   0  0  0  0  0  0  0  0  0  0  0  0
   20.9745  -18.4134  -14.7755 O   0  0  0  0  0  0  0  0  0  0  0  0
  2  1  1  1
  2 10  1  0
  3  2  1  0
  3  4  1  0
  4  5  2  0
  5  6  1  0
  7  6  2  0
  8  7  1  0
  9  4  1  0
  9  8  2  0
 10 11  2  0
 12 13  1  0
 12 10  1  0
 13 14  1  0
 14 15  2  0
 14 18  1  0
 17 16  1  6
 17 19  1  0
 18 17  1  0
 19 21  1  0
 20 19  2  0
M  END
$$$$
