FGA.pdb
     RDKit          3D

 21 21  0  0  1  0  0  0  0  0999 V2000
   20.8400  -10.1513  -19.7542 N   0  0  0  0  0  0  0  0  0  0  0  0
   19.6396   -9.3442  -19.7073 C   0  0  1  0  0  0  0  0  0  0  0  0
   18.7235  -10.0110  -18.6717 C   0  0  0  0  0  0  0  0  0  0  0  0
   18.2541  -11.3311  -19.1323 C   0  0  0  0  0  0  0  0  0  0  0  0
   17.3428  -11.3908  -20.1830 C   0  0  0  0  0  0  0  0  0  0  0  0
   16.8567  -12.5797  -20.6710 C   0  0  0  0  0  0  0  0  0  0  0  0
   17.3075  -13.7381  -20.0769 C   0  0  0  0  0  0  0  0  0  0  0  0
   18.2117  -13.6957  -19.0333 C   0  0  0  0  0  0  0  0  0  0  0  0
   18.6869  -12.4845  -18.5593 C   0  0  0  0  0  0  0  0  0  0  0  0
   19.9219   -7.9837  -19.1699 C   0  0  0  0  0  0  0  0  0  0  0  0
   18.9784   -7.1579  -19.1295 O   0  0  0  0  0  0  0  0  0  0  0  0
   21.1910   -7.5774  -18.7058 N   0  0  0  0  0  0  0  0  0  0  0  0
   21.5278   -6.2966  -18.1977 C   0  0  0  0  0  0  0  0  0  0  0  0
   21.7153   -6.1791  -16.7515 C   0  0  0  0  0  0  0  0  0  0  0  0
   21.5496   -7.2397  -16.0902 O   0  0  0  0  0  0  0  0  0  0  0  0
   22.7775   -3.7765  -14.1322 C   0  0  0  0  0  0  0  0  0  0  0  0
   22.2871   -5.1268  -14.6073 C   0  0  2  0  0  0  0  0  0  0  0  0
   22.0576   -5.0087  -16.0348 N   0  0  0  0  0  0  0  0  0  0  0  0
   20.9917   -5.3955  -13.9218 C   0  0  0  0  0  0  0  0  0  0  0  0
   19.9181   -5.1527  -14.5297 O   0  0  0  0  0  0  0  0  0  0  0  0
   20.9090   -5.9016  -12.6427 O   0  0  0  0  0  0  0  0  0  0  0  0
  2  1  1  1
  2 10  1  0
  3  2  1  0
  3  4  1  0
  4  5  2  0
  5  6  1  0
  7  6  2  0
  8  7  1  0
  9  4  1  0
  9  8  2  0
 10 11  2  0
 12 13  1  0
 12 10  1  0
 13 14  1  0
 14 15  2  0
 14 18  1  0
 17 16  1  1
 17 19  1  0
 18 17  1  0
 19 21  1  0
 20 19  2  0
M  END
$$$$
