FKH.pdb
     RDKit          3D

 31 32  0  0  1  0  0  0  0  0999 V2000
    6.6291  -17.3548   25.4075 N   0  0  0  0  0  0  0  0  0  0  0  0
    6.9280  -16.0268   24.9697 C   0  0  1  0  0  0  0  0  0  0  0  0
    7.8326  -15.2529   25.8546 C   0  0  0  0  0  0  0  0  0  0  0  0
    7.3148  -13.9628   26.3099 C   0  0  0  0  0  0  0  0  0  0  0  0
    6.8305  -13.7279   27.5805 C   0  0  0  0  0  0  0  0  0  0  0  0
    6.3552  -12.4790   27.9290 C   0  0  0  0  0  0  0  0  0  0  0  0
    6.3456  -11.4329   27.0357 C   0  0  0  0  0  0  0  0  0  0  0  0
    6.8285  -11.6579   25.7617 C   0  0  0  0  0  0  0  0  0  0  0  0
    7.3024  -12.9075   25.4180 C   0  0  0  0  0  0  0  0  0  0  0  0
    7.5707  -16.1358   23.6263 C   0  0  0  0  0  0  0  0  0  0  0  0
    7.9462  -17.2794   23.2497 O   0  0  0  0  0  0  0  0  0  0  0  0
    7.7738  -15.0437   22.7758 N   0  0  0  0  0  0  0  0  0  0  0  0
    8.1741  -15.2704   21.3820 C   0  0  1  0  0  0  0  0  0  0  0  0
    7.9344  -13.9895   20.6029 C   0  0  0  0  0  0  0  0  0  0  0  0
    8.3443  -14.1651   19.1759 C   0  0  0  0  0  0  0  0  0  0  0  0
    8.0502  -12.8766   18.3852 C   0  0  0  0  0  0  0  0  0  0  0  0
    8.6083  -12.9957   17.0096 C   0  0  0  0  0  0  0  0  0  0  0  0
    8.0089  -14.1859   16.4038 N   0  0  0  0  0  0  0  0  0  0  0  0
    9.5810  -15.6911   21.3730 C   0  0  0  0  0  0  0  0  0  0  0  0
   10.1608  -15.8303   20.2476 O   0  0  0  0  0  0  0  0  0  0  0  0
   10.3590  -15.9524   22.5216 N   0  0  0  0  0  0  0  0  0  0  0  0
   11.7779  -16.2400   22.3723 C   0  0  1  0  0  0  0  0  0  0  0  0
   12.5290  -14.9866   21.9811 C   0  0  0  0  0  0  0  0  0  0  0  0
   12.8937  -15.0603   20.5550 C   0  0  0  0  0  0  0  0  0  0  0  0
   12.5619  -16.1056   19.7144 C   0  0  0  0  0  0  0  0  0  0  0  0
   13.0626  -15.8842   18.4969 N   0  0  0  0  0  0  0  0  0  0  0  0
   13.7022  -14.7083   18.5802 C   0  0  0  0  0  0  0  0  0  0  0  0
   13.6109  -14.1987   19.8089 N   0  0  0  0  0  0  0  0  0  0  0  0
   12.3193  -16.8681   23.5861 C   0  0  0  0  0  0  0  0  0  0  0  0
   11.5504  -17.0647   24.5617 O   0  0  0  0  0  0  0  0  0  0  0  0
   13.6257  -17.2689   23.7416 O   0  0  0  0  0  0  0  0  0  0  0  0
  2  1  1  1
  3  2  1  0
  3  4  1  0
  4  5  2  0
  5  6  1  0
  7  6  2  0
  8  7  1  0
  9  4  1  0
  9  8  2  0
 10 11  2  0
 10  2  1  0
 12 10  1  0
 13 12  1  0
 13 14  1  6
 14 15  1  0
 15 16  1  0
 16 17  1  0
 17 18  1  0
 19 13  1  0
 20 19  2  0
 21 19  1  0
 22 21  1  0
 22 23  1  1
 24 23  1  0
 24 25  2  0
 26 25  1  0
 27 26  1  0
 28 27  2  0
 28 24  1  0
 29 22  1  0
 30 29  2  0
 31 29  1  0
M  END
$$$$
