FKH.pdb
     RDKit          3D

 31 32  0  0  1  0  0  0  0  0999 V2000
    6.0785  -16.9260   25.3211 N   0  0  0  0  0  0  0  0  0  0  0  0
    7.0020  -15.9211   24.8943 C   0  0  1  0  0  0  0  0  0  0  0  0
    7.5079  -15.0256   25.9633 C   0  0  0  0  0  0  0  0  0  0  0  0
    6.9253  -13.6841   25.9879 C   0  0  0  0  0  0  0  0  0  0  0  0
    5.6665  -13.3957   26.4741 C   0  0  0  0  0  0  0  0  0  0  0  0
    5.1892  -12.0999   26.4573 C   0  0  0  0  0  0  0  0  0  0  0  0
    5.9393  -11.0586   25.9619 C   0  0  0  0  0  0  0  0  0  0  0  0
    7.2005  -11.3370   25.4733 C   0  0  0  0  0  0  0  0  0  0  0  0
    7.6732  -12.6333   25.4922 C   0  0  0  0  0  0  0  0  0  0  0  0
    8.1696  -16.6219   24.2817 C   0  0  0  0  0  0  0  0  0  0  0  0
    8.6208  -17.6368   24.8792 O   0  0  0  0  0  0  0  0  0  0  0  0
    8.7796  -16.2117   23.0913 N   0  0  0  0  0  0  0  0  0  0  0  0
    9.9937  -16.8908   22.6232 C   0  0  1  0  0  0  0  0  0  0  0  0
   10.1885  -16.5603   21.1542 C   0  0  0  0  0  0  0  0  0  0  0  0
   11.3525  -17.3183   20.6013 C   0  0  0  0  0  0  0  0  0  0  0  0
   10.9227  -18.7559   20.2539 C   0  0  0  0  0  0  0  0  0  0  0  0
   12.0796  -19.4993   19.6823 C   0  0  0  0  0  0  0  0  0  0  0  0
   11.6255  -20.8659   19.4199 N   0  0  0  0  0  0  0  0  0  0  0  0
   11.1157  -16.4514   23.4626 C   0  0  0  0  0  0  0  0  0  0  0  0
   11.5082  -15.2443   23.3595 O   0  0  0  0  0  0  0  0  0  0  0  0
   11.8025  -17.2624   24.3919 N   0  0  0  0  0  0  0  0  0  0  0  0
   12.9628  -16.7253   25.0872 C   0  0  1  0  0  0  0  0  0  0  0  0
   12.9374  -17.1338   26.5435 C   0  0  0  0  0  0  0  0  0  0  0  0
   11.8905  -16.3713   27.2469 C   0  0  0  0  0  0  0  0  0  0  0  0
   11.1715  -15.3307   26.6905 C   0  0  0  0  0  0  0  0  0  0  0  0
   10.3230  -14.8330   27.5930 N   0  0  0  0  0  0  0  0  0  0  0  0
   10.5138  -15.5596   28.7040 C   0  0  0  0  0  0  0  0  0  0  0  0
   11.4513  -16.4885   28.5145 N   0  0  0  0  0  0  0  0  0  0  0  0
   14.2092  -17.1149   24.4122 C   0  0  0  0  0  0  0  0  0  0  0  0
   15.3008  -16.6704   24.8507 O   0  0  0  0  0  0  0  0  0  0  0  0
   14.2780  -17.9465   23.3190 O   0  0  0  0  0  0  0  0  0  0  0  0
  2  1  1  1
  3  2  1  0
  3  4  1  0
  4  5  2  0
  5  6  1  0
  7  6  2  0
  8  7  1  0
  9  4  1  0
  9  8  2  0
 10 11  2  0
 10  2  1  0
 12 10  1  0
 13 12  1  0
 13 14  1  6
 14 15  1  0
 15 16  1  0
 16 17  1  0
 17 18  1  0
 19 13  1  0
 20 19  2  0
 21 19  1  0
 22 21  1  0
 22 23  1  1
 24 23  1  0
 24 25  2  0
 26 25  1  0
 27 26  1  0
 28 27  2  0
 28 24  1  0
 29 22  1  0
 30 29  2  0
 31 29  1  0
M  END
$$$$
