FKH.pdb
     RDKit          3D

 31 32  0  0  1  0  0  0  0  0999 V2000
    7.1436  -17.2029   26.3108 N   0  0  0  0  0  0  0  0  0  0  0  0
    6.3009  -16.7907   25.2315 C   0  0  1  0  0  0  0  0  0  0  0  0
    5.5343  -15.5421   25.4631 C   0  0  0  0  0  0  0  0  0  0  0  0
    6.2852  -14.4483   26.0794 C   0  0  0  0  0  0  0  0  0  0  0  0
    6.1458  -14.0592   27.3959 C   0  0  0  0  0  0  0  0  0  0  0  0
    6.8918  -13.0116   27.8992 C   0  0  0  0  0  0  0  0  0  0  0  0
    7.7916  -12.3233   27.1191 C   0  0  0  0  0  0  0  0  0  0  0  0
    7.9385  -12.7053   25.8002 C   0  0  0  0  0  0  0  0  0  0  0  0
    7.1910  -13.7527   25.3017 C   0  0  0  0  0  0  0  0  0  0  0  0
    7.1750  -16.5868   24.0382 C   0  0  0  0  0  0  0  0  0  0  0  0
    8.0547  -17.4593   23.8028 O   0  0  0  0  0  0  0  0  0  0  0  0
    7.0662  -15.4878   23.1792 N   0  0  0  0  0  0  0  0  0  0  0  0
    7.8471  -15.4541   21.9369 C   0  0  1  0  0  0  0  0  0  0  0  0
    7.5178  -14.1671   21.2017 C   0  0  0  0  0  0  0  0  0  0  0  0
    7.9856  -14.2448   19.7839 C   0  0  0  0  0  0  0  0  0  0  0  0
    7.6957  -12.9142   19.0643 C   0  0  0  0  0  0  0  0  0  0  0  0
    8.4406  -12.8702   17.7754 C   0  0  0  0  0  0  0  0  0  0  0  0
    8.0133  -14.0304   16.9918 N   0  0  0  0  0  0  0  0  0  0  0  0
    9.2689  -15.5655   22.2875 C   0  0  0  0  0  0  0  0  0  0  0  0
   10.1287  -15.4704   21.3529 O   0  0  0  0  0  0  0  0  0  0  0  0
    9.7717  -15.7658   23.5913 N   0  0  0  0  0  0  0  0  0  0  0  0
   11.2056  -15.9198   23.7874 C   0  0  1  0  0  0  0  0  0  0  0  0
   11.5206  -16.0717   25.2590 C   0  0  0  0  0  0  0  0  0  0  0  0
   12.9721  -16.2612   25.4311 C   0  0  0  0  0  0  0  0  0  0  0  0
   13.9349  -15.7543   24.5794 C   0  0  0  0  0  0  0  0  0  0  0  0
   15.1480  -16.1254   24.9951 N   0  0  0  0  0  0  0  0  0  0  0  0
   14.9405  -16.8590   26.0984 C   0  0  0  0  0  0  0  0  0  0  0  0
   13.6396  -16.9510   26.3756 N   0  0  0  0  0  0  0  0  0  0  0  0
   11.7323  -17.0287   22.9788 C   0  0  0  0  0  0  0  0  0  0  0  0
   12.7231  -16.8183   22.2332 O   0  0  0  0  0  0  0  0  0  0  0  0
   11.2194  -18.3048   22.9751 O   0  0  0  0  0  0  0  0  0  0  0  0
  2  1  1  1
  3  2  1  0
  3  4  1  0
  4  5  2  0
  5  6  1  0
  7  6  2  0
  8  7  1  0
  9  4  1  0
  9  8  2  0
 10 11  2  0
 10  2  1  0
 12 10  1  0
 13 12  1  0
 13 14  1  1
 14 15  1  0
 15 16  1  0
 16 17  1  0
 17 18  1  0
 19 13  1  0
 20 19  2  0
 21 19  1  0
 22 21  1  0
 22 23  1  1
 24 23  1  0
 24 25  2  0
 26 25  1  0
 27 26  1  0
 28 27  2  0
 28 24  1  0
 29 22  1  0
 30 29  2  0
 31 29  1  0
M  END
$$$$
