FKH.pdb
     RDKit          3D

 31 32  0  0  1  0  0  0  0  0999 V2000
    6.6506  -16.8550   25.7158 N   0  0  0  0  0  0  0  0  0  0  0  0
    6.9802  -15.6070   25.1003 C   0  0  1  0  0  0  0  0  0  0  0  0
    7.9049  -14.7409   25.8718 C   0  0  0  0  0  0  0  0  0  0  0  0
    7.2885  -13.5838   26.5206 C   0  0  0  0  0  0  0  0  0  0  0  0
    7.6479  -13.1125   27.7667 C   0  0  0  0  0  0  0  0  0  0  0  0
    7.0118  -12.0138   28.3101 C   0  0  0  0  0  0  0  0  0  0  0  0
    6.0080  -11.3537   27.6400 C   0  0  0  0  0  0  0  0  0  0  0  0
    5.6413  -11.8175   26.3921 C   0  0  0  0  0  0  0  0  0  0  0  0
    6.2798  -12.9158   25.8531 C   0  0  0  0  0  0  0  0  0  0  0  0
    7.6173  -15.9147   23.7854 C   0  0  0  0  0  0  0  0  0  0  0  0
    7.9597  -17.1088   23.5675 O   0  0  0  0  0  0  0  0  0  0  0  0
    7.8499  -14.9537   22.7956 N   0  0  0  0  0  0  0  0  0  0  0  0
    8.3826  -15.3653   21.4913 C   0  0  1  0  0  0  0  0  0  0  0  0
    8.1884  -14.2198   20.5141 C   0  0  0  0  0  0  0  0  0  0  0  0
    8.6984  -14.5994   19.1609 C   0  0  0  0  0  0  0  0  0  0  0  0
    8.2418  -13.5603   18.1198 C   0  0  0  0  0  0  0  0  0  0  0  0
    8.6076  -14.0273   16.7537 C   0  0  0  0  0  0  0  0  0  0  0  0
    8.0229  -13.0791   15.8041 N   0  0  0  0  0  0  0  0  0  0  0  0
    9.7932  -15.7333   21.6692 C   0  0  0  0  0  0  0  0  0  0  0  0
   10.5215  -14.9898   22.4031 O   0  0  0  0  0  0  0  0  0  0  0  0
   10.4186  -16.8601   21.0930 N   0  0  0  0  0  0  0  0  0  0  0  0
   11.8422  -17.0736   21.3071 C   0  0  1  0  0  0  0  0  0  0  0  0
   12.2037  -18.5164   21.0319 C   0  0  0  0  0  0  0  0  0  0  0  0
   12.0008  -19.3130   22.2552 C   0  0  0  0  0  0  0  0  0  0  0  0
   10.7808  -19.4968   22.8773 C   0  0  0  0  0  0  0  0  0  0  0  0
   10.9389  -20.2422   23.9734 N   0  0  0  0  0  0  0  0  0  0  0  0
   12.2497  -20.5198   24.0326 C   0  0  0  0  0  0  0  0  0  0  0  0
   12.9031  -19.9702   23.0086 N   0  0  0  0  0  0  0  0  0  0  0  0
   12.6422  -16.1290   20.5142 C   0  0  0  0  0  0  0  0  0  0  0  0
   12.1797  -15.7102   19.4223 O   0  0  0  0  0  0  0  0  0  0  0  0
   13.8801  -15.6548   20.8807 O   0  0  0  0  0  0  0  0  0  0  0  0
  2  1  1  1
  3  2  1  0
  3  4  1  0
  4  5  2  0
  5  6  1  0
  7  6  2  0
  8  7  1  0
  9  4  1  0
  9  8  2  0
 10 11  2  0
 10  2  1  0
 12 10  1  0
 13 12  1  0
 13 14  1  6
 14 15  1  0
 15 16  1  0
 16 17  1  0
 17 18  1  0
 19 13  1  0
 20 19  2  0
 21 19  1  0
 22 21  1  0
 22 23  1  6
 24 23  1  0
 24 25  2  0
 26 25  1  0
 27 26  1  0
 28 27  2  0
 28 24  1  0
 29 22  1  0
 30 29  2  0
 31 29  1  0
M  END
$$$$
