FKH.pdb
     RDKit          3D

 31 32  0  0  1  0  0  0  0  0999 V2000
    5.9801  -17.9125   25.0629 N   0  0  0  0  0  0  0  0  0  0  0  0
    6.3062  -16.5206   25.0276 C   0  0  1  0  0  0  0  0  0  0  0  0
    7.0518  -16.0111   26.2044 C   0  0  0  0  0  0  0  0  0  0  0  0
    7.0316  -14.5592   26.3812 C   0  0  0  0  0  0  0  0  0  0  0  0
    5.8786  -13.8072   26.4781 C   0  0  0  0  0  0  0  0  0  0  0  0
    5.9475  -12.4375   26.6405 C   0  0  0  0  0  0  0  0  0  0  0  0
    7.1519  -11.7766   26.7115 C   0  0  0  0  0  0  0  0  0  0  0  0
    8.3114  -12.5204   26.6159 C   0  0  0  0  0  0  0  0  0  0  0  0
    8.2377  -13.8888   26.4536 C   0  0  0  0  0  0  0  0  0  0  0  0
    7.1411  -16.2905   23.8112 C   0  0  0  0  0  0  0  0  0  0  0  0
    7.9043  -17.2241   23.4416 O   0  0  0  0  0  0  0  0  0  0  0  0
    7.1177  -15.1036   23.0710 N   0  0  0  0  0  0  0  0  0  0  0  0
    7.9040  -14.9996   21.8359 C   0  0  1  0  0  0  0  0  0  0  0  0
    7.6119  -13.6538   21.1968 C   0  0  0  0  0  0  0  0  0  0  0  0
    8.4625  -13.4599   19.9827 C   0  0  0  0  0  0  0  0  0  0  0  0
    7.7007  -13.9317   18.7300 C   0  0  0  0  0  0  0  0  0  0  0  0
    8.5450  -13.7192   17.5217 C   0  0  0  0  0  0  0  0  0  0  0  0
    7.8104  -14.2695   16.3814 N   0  0  0  0  0  0  0  0  0  0  0  0
    9.3209  -15.1746   22.1800 C   0  0  0  0  0  0  0  0  0  0  0  0
    9.8240  -14.4111   23.0666 O   0  0  0  0  0  0  0  0  0  0  0  0
   10.1841  -16.1343   21.6085 N   0  0  0  0  0  0  0  0  0  0  0  0
   11.5475  -16.2528   22.1037 C   0  0  1  0  0  0  0  0  0  0  0  0
   11.9856  -17.7006   22.0935 C   0  0  0  0  0  0  0  0  0  0  0  0
   11.4273  -18.3886   23.2712 C   0  0  0  0  0  0  0  0  0  0  0  0
   10.8576  -17.7488   24.3554 C   0  0  0  0  0  0  0  0  0  0  0  0
   10.4758  -18.6497   25.2636 N   0  0  0  0  0  0  0  0  0  0  0  0
   10.8066  -19.8424   24.7472 C   0  0  0  0  0  0  0  0  0  0  0  0
   11.3788  -19.7050   23.5508 N   0  0  0  0  0  0  0  0  0  0  0  0
   12.4599  -15.3805   21.3503 C   0  0  0  0  0  0  0  0  0  0  0  0
   12.3115  -15.2784   20.1057 O   0  0  0  0  0  0  0  0  0  0  0  0
   13.4817  -14.6497   21.9102 O   0  0  0  0  0  0  0  0  0  0  0  0
  2  1  1  1
  3  2  1  0
  3  4  1  0
  4  5  2  0
  5  6  1  0
  7  6  2  0
  8  7  1  0
  9  4  1  0
  9  8  2  0
 10 11  2  0
 10  2  1  0
 12 10  1  0
 13 12  1  0
 13 14  1  1
 14 15  1  0
 15 16  1  0
 16 17  1  0
 17 18  1  0
 19 13  1  0
 20 19  2  0
 21 19  1  0
 22 21  1  0
 22 23  1  6
 24 23  1  0
 24 25  2  0
 26 25  1  0
 27 26  1  0
 28 27  2  0
 28 24  1  0
 29 22  1  0
 30 29  2  0
 31 29  1  0
M  END
$$$$
