FKH.pdb
     RDKit          3D

 31 32  0  0  1  0  0  0  0  0999 V2000
    5.5662  -17.5660   24.5052 N   0  0  0  0  0  0  0  0  0  0  0  0
    6.0670  -16.2414   24.7038 C   0  0  1  0  0  0  0  0  0  0  0  0
    6.4267  -15.8994   26.1016 C   0  0  0  0  0  0  0  0  0  0  0  0
    6.7530  -14.4937   26.3410 C   0  0  0  0  0  0  0  0  0  0  0  0
    5.8176  -13.4809   26.3989 C   0  0  0  0  0  0  0  0  0  0  0  0
    6.2107  -12.1767   26.6260 C   0  0  0  0  0  0  0  0  0  0  0  0
    7.5327  -11.8391   26.8013 C   0  0  0  0  0  0  0  0  0  0  0  0
    8.4764  -12.8456   26.7453 C   0  0  0  0  0  0  0  0  0  0  0  0
    8.0789  -14.1475   26.5183 C   0  0  0  0  0  0  0  0  0  0  0  0
    7.2897  -16.0972   23.8589 C   0  0  0  0  0  0  0  0  0  0  0  0
    8.1740  -16.9915   23.9540 O   0  0  0  0  0  0  0  0  0  0  0  0
    7.4989  -15.0309   22.9777 N   0  0  0  0  0  0  0  0  0  0  0  0
    8.7193  -14.9875   22.1633 C   0  0  1  0  0  0  0  0  0  0  0  0
    8.6000  -13.8309   21.1871 C   0  0  0  0  0  0  0  0  0  0  0  0
    8.1473  -14.3241   19.8504 C   0  0  0  0  0  0  0  0  0  0  0  0
    7.9513  -13.1337   18.8930 C   0  0  0  0  0  0  0  0  0  0  0  0
    7.4037  -13.6200   17.5962 C   0  0  0  0  0  0  0  0  0  0  0  0
    8.2873  -14.6900   17.1303 N   0  0  0  0  0  0  0  0  0  0  0  0
    9.8684  -14.8567   23.0684 C   0  0  0  0  0  0  0  0  0  0  0  0
    9.9581  -13.8038   23.7793 O   0  0  0  0  0  0  0  0  0  0  0  0
   10.8936  -15.8144   23.2248 N   0  0  0  0  0  0  0  0  0  0  0  0
   11.5130  -15.9902   24.5301 C   0  0  1  0  0  0  0  0  0  0  0  0
   10.4533  -16.0833   25.6055 C   0  0  0  0  0  0  0  0  0  0  0  0
   11.1029  -16.2273   26.9206 C   0  0  0  0  0  0  0  0  0  0  0  0
   11.7698  -15.2129   27.5803 C   0  0  0  0  0  0  0  0  0  0  0  0
   12.2678  -15.6715   28.7309 N   0  0  0  0  0  0  0  0  0  0  0  0
   11.9128  -16.9637   28.7858 C   0  0  0  0  0  0  0  0  0  0  0  0
   11.2123  -17.3149   27.7071 N   0  0  0  0  0  0  0  0  0  0  0  0
   12.4227  -17.1449   24.5309 C   0  0  0  0  0  0  0  0  0  0  0  0
   13.2485  -17.2656   25.4716 O   0  0  0  0  0  0  0  0  0  0  0  0
   12.4406  -18.1255   23.5667 O   0  0  0  0  0  0  0  0  0  0  0  0
  2  1  1  1
  3  2  1  0
  3  4  1  0
  4  5  2  0
  5  6  1  0
  7  6  2  0
  8  7  1  0
  9  4  1  0
  9  8  2  0
 10 11  2  0
 10  2  1  0
 12 10  1  0
 13 12  1  0
 13 14  1  6
 14 15  1  0
 15 16  1  0
 16 17  1  0
 17 18  1  0
 19 13  1  0
 20 19  2  0
 21 19  1  0
 22 21  1  0
 22 23  1  1
 24 23  1  0
 24 25  2  0
 26 25  1  0
 27 26  1  0
 28 27  2  0
 28 24  1  0
 29 22  1  0
 30 29  2  0
 31 29  1  0
M  END
$$$$
