FKH.pdb
     RDKit          3D

 31 32  0  0  1  0  0  0  0  0999 V2000
    6.4710  -17.3992   25.5872 N   0  0  0  0  0  0  0  0  0  0  0  0
    6.7828  -16.0716   25.1568 C   0  0  1  0  0  0  0  0  0  0  0  0
    7.6430  -15.2890   26.0776 C   0  0  0  0  0  0  0  0  0  0  0  0
    7.1045  -13.9940   26.4932 C   0  0  0  0  0  0  0  0  0  0  0  0
    5.9351  -13.4490   26.0038 C   0  0  0  0  0  0  0  0  0  0  0  0
    5.4978  -12.2163   26.4471 C   0  0  0  0  0  0  0  0  0  0  0  0
    6.2007  -11.4921   27.3818 C   0  0  0  0  0  0  0  0  0  0  0  0
    7.3721  -12.0292   27.8778 C   0  0  0  0  0  0  0  0  0  0  0  0
    7.8052  -13.2612   27.4319 C   0  0  0  0  0  0  0  0  0  0  0  0
    7.4856  -16.1836   23.8441 C   0  0  0  0  0  0  0  0  0  0  0  0
    8.1159  -17.2502   23.6083 O   0  0  0  0  0  0  0  0  0  0  0  0
    7.4785  -15.1744   22.8751 N   0  0  0  0  0  0  0  0  0  0  0  0
    8.2483  -15.3475   21.6374 C   0  0  1  0  0  0  0  0  0  0  0  0
    7.7881  -14.2999   20.6395 C   0  0  0  0  0  0  0  0  0  0  0  0
    8.4606  -14.5083   19.3206 C   0  0  0  0  0  0  0  0  0  0  0  0
    7.9476  -13.4722   18.3029 C   0  0  0  0  0  0  0  0  0  0  0  0
    8.5995  -13.7020   16.9837 C   0  0  0  0  0  0  0  0  0  0  0  0
    8.1542  -12.6305   16.0914 N   0  0  0  0  0  0  0  0  0  0  0  0
    9.6750  -15.2363   21.9672 C   0  0  0  0  0  0  0  0  0  0  0  0
   10.0096  -14.5054   22.9549 O   0  0  0  0  0  0  0  0  0  0  0  0
   10.7221  -15.8844   21.2769 N   0  0  0  0  0  0  0  0  0  0  0  0
   11.6638  -16.7087   22.0198 C   0  0  1  0  0  0  0  0  0  0  0  0
   10.9309  -17.8058   22.7596 C   0  0  0  0  0  0  0  0  0  0  0  0
   11.8970  -18.5979   23.5416 C   0  0  0  0  0  0  0  0  0  0  0  0
   13.2600  -18.3721   23.5632 C   0  0  0  0  0  0  0  0  0  0  0  0
   13.8567  -19.2765   24.3430 N   0  0  0  0  0  0  0  0  0  0  0  0
   12.8703  -20.0602   24.8031 C   0  0  0  0  0  0  0  0  0  0  0  0
   11.6864  -19.6672   24.3325 N   0  0  0  0  0  0  0  0  0  0  0  0
   12.7193  -17.2284   21.1384 C   0  0  0  0  0  0  0  0  0  0  0  0
   12.4089  -17.6125   19.9818 O   0  0  0  0  0  0  0  0  0  0  0  0
   14.0468  -17.3269   21.4840 O   0  0  0  0  0  0  0  0  0  0  0  0
  2  1  1  1
  3  2  1  0
  3  4  1  0
  4  5  2  0
  5  6  1  0
  7  6  2  0
  8  7  1  0
  9  4  1  0
  9  8  2  0
 10 11  2  0
 10  2  1  0
 12 10  1  0
 13 12  1  0
 13 14  1  6
 14 15  1  0
 15 16  1  0
 16 17  1  0
 17 18  1  0
 19 13  1  0
 20 19  2  0
 21 19  1  0
 22 21  1  0
 22 23  1  6
 24 23  1  0
 24 25  2  0
 26 25  1  0
 27 26  1  0
 28 27  2  0
 28 24  1  0
 29 22  1  0
 30 29  2  0
 31 29  1  0
M  END
$$$$
