FKH.pdb
     RDKit          3D

 31 32  0  0  1  0  0  0  0  0999 V2000
    5.8723  -17.8984   25.6520 N   0  0  0  0  0  0  0  0  0  0  0  0
    6.3908  -16.5930   25.3839 C   0  0  1  0  0  0  0  0  0  0  0  0
    6.9031  -15.8562   26.5650 C   0  0  0  0  0  0  0  0  0  0  0  0
    6.6998  -14.4078   26.5394 C   0  0  0  0  0  0  0  0  0  0  0  0
    5.4612  -13.7997   26.5523 C   0  0  0  0  0  0  0  0  0  0  0  0
    5.3567  -12.4230   26.5223 C   0  0  0  0  0  0  0  0  0  0  0  0
    6.4680  -11.6134   26.4791 C   0  0  0  0  0  0  0  0  0  0  0  0
    7.7121  -12.2125   26.4663 C   0  0  0  0  0  0  0  0  0  0  0  0
    7.8117  -13.5885   26.4964 C   0  0  0  0  0  0  0  0  0  0  0  0
    7.5121  -16.7515   24.4106 C   0  0  0  0  0  0  0  0  0  0  0  0
    8.2283  -17.7850   24.5081 O   0  0  0  0  0  0  0  0  0  0  0  0
    7.8027  -15.8199   23.4081 N   0  0  0  0  0  0  0  0  0  0  0  0
    8.8155  -16.1340   22.3932 C   0  0  1  0  0  0  0  0  0  0  0  0
    8.7830  -15.0461   21.3347 C   0  0  0  0  0  0  0  0  0  0  0  0
    9.8516  -15.2807   20.3158 C   0  0  0  0  0  0  0  0  0  0  0  0
    9.3181  -16.1999   19.2011 C   0  0  0  0  0  0  0  0  0  0  0  0
   10.3524  -16.3513   18.1402 C   0  0  0  0  0  0  0  0  0  0  0  0
    9.7700  -17.1855   17.0877 N   0  0  0  0  0  0  0  0  0  0  0  0
   10.1173  -16.2413   23.0643 C   0  0  0  0  0  0  0  0  0  0  0  0
   10.4625  -15.3097   23.8611 O   0  0  0  0  0  0  0  0  0  0  0  0
   11.0294  -17.3068   22.9043 N   0  0  0  0  0  0  0  0  0  0  0  0
   12.1783  -17.4022   23.7927 C   0  0  1  0  0  0  0  0  0  0  0  0
   12.3340  -18.8192   24.2986 C   0  0  0  0  0  0  0  0  0  0  0  0
   13.5096  -18.8955   25.1843 C   0  0  0  0  0  0  0  0  0  0  0  0
   14.3390  -17.8304   25.4792 C   0  0  0  0  0  0  0  0  0  0  0  0
   15.3246  -18.2332   26.2845 N   0  0  0  0  0  0  0  0  0  0  0  0
   15.1093  -19.5411   26.4887 C   0  0  0  0  0  0  0  0  0  0  0  0
   14.0234  -19.9561   25.8359 N   0  0  0  0  0  0  0  0  0  0  0  0
   13.3944  -16.8985   23.1381 C   0  0  0  0  0  0  0  0  0  0  0  0
   13.5164  -17.0397   21.8944 O   0  0  0  0  0  0  0  0  0  0  0  0
   14.4289  -16.2695   23.7905 O   0  0  0  0  0  0  0  0  0  0  0  0
  2  1  1  1
  3  2  1  0
  3  4  1  0
  4  5  2  0
  5  6  1  0
  7  6  2  0
  8  7  1  0
  9  4  1  0
  9  8  2  0
 10 11  2  0
 10  2  1  0
 12 10  1  0
 13 12  1  0
 13 14  1  6
 14 15  1  0
 15 16  1  0
 16 17  1  0
 17 18  1  0
 19 13  1  0
 20 19  2  0
 21 19  1  0
 22 21  1  0
 22 23  1  6
 24 23  1  0
 24 25  2  0
 26 25  1  0
 27 26  1  0
 28 27  2  0
 28 24  1  0
 29 22  1  0
 30 29  2  0
 31 29  1  0
M  END
$$$$
