FKH.pdb
     RDKit          3D

 31 32  0  0  1  0  0  0  0  0999 V2000
    6.8373  -17.1199   25.9951 N   0  0  0  0  0  0  0  0  0  0  0  0
    6.3135  -16.6127   24.7650 C   0  0  1  0  0  0  0  0  0  0  0  0
    5.5395  -15.3520   24.8740 C   0  0  0  0  0  0  0  0  0  0  0  0
    6.2339  -14.2422   25.5266 C   0  0  0  0  0  0  0  0  0  0  0  0
    6.4801  -14.1733   26.8826 C   0  0  0  0  0  0  0  0  0  0  0  0
    7.1403  -13.0859   27.4201 C   0  0  0  0  0  0  0  0  0  0  0  0
    7.5733  -12.0419   26.6361 C   0  0  0  0  0  0  0  0  0  0  0  0
    7.3320  -12.1016   25.2778 C   0  0  0  0  0  0  0  0  0  0  0  0
    6.6719  -13.1902   24.7451 C   0  0  0  0  0  0  0  0  0  0  0  0
    7.4722  -16.3713   23.8546 C   0  0  0  0  0  0  0  0  0  0  0  0
    8.4366  -17.1822   23.9092 O   0  0  0  0  0  0  0  0  0  0  0  0
    7.5386  -15.3018   22.9551 N   0  0  0  0  0  0  0  0  0  0  0  0
    8.6808  -15.1891   22.0402 C   0  0  1  0  0  0  0  0  0  0  0  0
    8.3920  -14.0731   21.0522 C   0  0  0  0  0  0  0  0  0  0  0  0
    7.9272  -14.6403   19.7494 C   0  0  0  0  0  0  0  0  0  0  0  0
    8.3431  -13.7086   18.5957 C   0  0  0  0  0  0  0  0  0  0  0  0
    7.7593  -14.2035   17.3181 C   0  0  0  0  0  0  0  0  0  0  0  0
    8.1178  -13.2373   16.2785 N   0  0  0  0  0  0  0  0  0  0  0  0
    9.8867  -14.9459   22.8423 C   0  0  0  0  0  0  0  0  0  0  0  0
   10.0845  -13.7705   23.2909 O   0  0  0  0  0  0  0  0  0  0  0  0
   10.8563  -15.9187   23.1686 N   0  0  0  0  0  0  0  0  0  0  0  0
   11.3876  -15.9706   24.5226 C   0  0  1  0  0  0  0  0  0  0  0  0
   10.2628  -16.1260   25.5220 C   0  0  0  0  0  0  0  0  0  0  0  0
   10.8235  -16.1843   26.8838 C   0  0  0  0  0  0  0  0  0  0  0  0
   12.1642  -16.0412   27.1859 C   0  0  0  0  0  0  0  0  0  0  0  0
   12.3486  -16.1728   28.5015 N   0  0  0  0  0  0  0  0  0  0  0  0
   11.1297  -16.3968   29.0141 C   0  0  0  0  0  0  0  0  0  0  0  0
   10.2013  -16.4067   28.0572 N   0  0  0  0  0  0  0  0  0  0  0  0
   12.4062  -17.0229   24.6494 C   0  0  0  0  0  0  0  0  0  0  0  0
   12.1741  -18.1546   24.1525 O   0  0  0  0  0  0  0  0  0  0  0  0
   13.6190  -16.8639   25.2782 O   0  0  0  0  0  0  0  0  0  0  0  0
  2  1  1  1
  3  2  1  0
  3  4  1  0
  4  5  2  0
  5  6  1  0
  7  6  2  0
  8  7  1  0
  9  4  1  0
  9  8  2  0
 10 11  2  0
 10  2  1  0
 12 10  1  0
 13 12  1  0
 13 14  1  6
 14 15  1  0
 15 16  1  0
 16 17  1  0
 17 18  1  0
 19 13  1  0
 20 19  2  0
 21 19  1  0
 22 21  1  0
 22 23  1  1
 24 23  1  0
 24 25  2  0
 26 25  1  0
 27 26  1  0
 28 27  2  0
 28 24  1  0
 29 22  1  0
 30 29  2  0
 31 29  1  0
M  END
$$$$
