FKH.pdb
     RDKit          3D

 31 32  0  0  1  0  0  0  0  0999 V2000
    6.4779  -16.5574   25.6341 N   0  0  0  0  0  0  0  0  0  0  0  0
    7.3122  -15.6426   24.9186 C   0  0  1  0  0  0  0  0  0  0  0  0
    8.2206  -14.8211   25.7554 C   0  0  0  0  0  0  0  0  0  0  0  0
    7.6626  -13.5567   26.2347 C   0  0  0  0  0  0  0  0  0  0  0  0
    6.3531  -13.1662   26.0422 C   0  0  0  0  0  0  0  0  0  0  0  0
    5.9065  -11.9518   26.5248 C   0  0  0  0  0  0  0  0  0  0  0  0
    6.7375  -11.0942   27.2076 C   0  0  0  0  0  0  0  0  0  0  0  0
    8.0497  -11.4762   27.4056 C   0  0  0  0  0  0  0  0  0  0  0  0
    8.4916  -12.6906   26.9216 C   0  0  0  0  0  0  0  0  0  0  0  0
    8.1458  -16.4459   23.9754 C   0  0  0  0  0  0  0  0  0  0  0  0
    8.3614  -17.6532   24.2697 O   0  0  0  0  0  0  0  0  0  0  0  0
    8.6924  -15.9298   22.7955 N   0  0  0  0  0  0  0  0  0  0  0  0
    9.5315  -16.7842   21.9468 C   0  0  1  0  0  0  0  0  0  0  0  0
    9.6501  -16.1305   20.5816 C   0  0  0  0  0  0  0  0  0  0  0  0
    8.5405  -16.5863   19.6894 C   0  0  0  0  0  0  0  0  0  0  0  0
    8.6620  -15.9040   18.3140 C   0  0  0  0  0  0  0  0  0  0  0  0
    7.5886  -16.4045   17.4110 C   0  0  0  0  0  0  0  0  0  0  0  0
    7.6776  -15.6348   16.1691 N   0  0  0  0  0  0  0  0  0  0  0  0
   10.8286  -16.9576   22.6133 C   0  0  0  0  0  0  0  0  0  0  0  0
   11.8158  -16.2685   22.1980 O   0  0  0  0  0  0  0  0  0  0  0  0
   11.0772  -17.8308   23.6943 N   0  0  0  0  0  0  0  0  0  0  0  0
   12.4317  -17.9594   24.2109 C   0  0  1  0  0  0  0  0  0  0  0  0
   12.9139  -16.6329   24.7550 C   0  0  0  0  0  0  0  0  0  0  0  0
   13.8944  -16.0493   23.8221 C   0  0  0  0  0  0  0  0  0  0  0  0
   14.3403  -16.6644   22.6680 C   0  0  0  0  0  0  0  0  0  0  0  0
   15.2432  -15.8902   22.0619 N   0  0  0  0  0  0  0  0  0  0  0  0
   15.3583  -14.8004   22.8350 C   0  0  0  0  0  0  0  0  0  0  0  0
   14.5554  -14.8784   23.8965 N   0  0  0  0  0  0  0  0  0  0  0  0
   12.5177  -19.0419   25.2018 C   0  0  0  0  0  0  0  0  0  0  0  0
   12.3019  -20.2235   24.8292 O   0  0  0  0  0  0  0  0  0  0  0  0
   12.8247  -18.8619   26.5302 O   0  0  0  0  0  0  0  0  0  0  0  0
  2  1  1  1
  3  2  1  0
  3  4  1  0
  4  5  2  0
  5  6  1  0
  7  6  2  0
  8  7  1  0
  9  4  1  0
  9  8  2  0
 10 11  2  0
 10  2  1  0
 12 10  1  0
 13 12  1  0
 13 14  1  6
 14 15  1  0
 15 16  1  0
 16 17  1  0
 17 18  1  0
 19 13  1  0
 20 19  2  0
 21 19  1  0
 22 21  1  0
 22 23  1  1
 24 23  1  0
 24 25  2  0
 26 25  1  0
 27 26  1  0
 28 27  2  0
 28 24  1  0
 29 22  1  0
 30 29  2  0
 31 29  1  0
M  END
$$$$
