PGG.pdb
     RDKit          3D

 16 16  0  0  1  0  0  0  0  0999 V2000
    8.3004  -14.9211   19.8520 N   0  0  0  0  0  0  0  0  0  0  0  0
    8.2963  -14.1351   18.6561 C   0  0  0  0  0  0  0  0  0  0  0  0
    7.9961  -12.6984   19.0700 C   0  0  0  0  0  0  0  0  0  0  0  0
    7.2848  -12.9372   20.4078 C   0  0  0  0  0  0  0  0  0  0  0  0
    8.1818  -14.0444   20.9753 C   0  0  1  0  0  0  0  0  0  0  0  0
    7.5990  -14.6703   22.1637 C   0  0  0  0  0  0  0  0  0  0  0  0
    7.5473  -14.0099   23.2326 O   0  0  0  0  0  0  0  0  0  0  0  0
    7.0833  -15.9933   22.1794 N   0  0  0  0  0  0  0  0  0  0  0  0
    6.4393  -16.5794   23.3294 C   0  0  0  0  0  0  0  0  0  0  0  0
    7.3908  -17.4818   24.0339 C   0  0  0  0  0  0  0  0  0  0  0  0
    7.0111  -18.2025   24.9932 O   0  0  0  0  0  0  0  0  0  0  0  0
    8.7517  -17.5565   23.6457 N   0  0  0  0  0  0  0  0  0  0  0  0
    9.6521  -18.4495   24.3878 C   0  0  0  0  0  0  0  0  0  0  0  0
   10.8123  -17.7057   24.9199 C   0  0  0  0  0  0  0  0  0  0  0  0
   10.7966  -16.4542   25.0752 O   0  0  0  0  0  0  0  0  0  0  0  0
   11.9411  -18.4425   25.2494 O   0  0  0  0  0  0  0  0  0  0  0  0
  1  2  1  0
  1  5  1  0
  2  3  1  0
  4  3  1  0
  5  4  1  0
  6  7  2  0
  5  6  1  1
  8  6  1  0
  9  8  1  0
 10  9  1  0
 10 12  1  0
 11 10  2  0
 13 12  1  0
 14 13  1  0
 15 14  2  0
 16 14  1  0
M  END
$$$$
