PGG.pdb
     RDKit          3D

 16 16  0  0  1  0  0  0  0  0999 V2000
    8.5758  -14.6661   19.3468 N   0  0  0  0  0  0  0  0  0  0  0  0
    7.7329  -14.0215   18.3867 C   0  0  0  0  0  0  0  0  0  0  0  0
    7.1594  -12.7801   19.0619 C   0  0  0  0  0  0  0  0  0  0  0  0
    7.2909  -13.1799   20.5368 C   0  0  0  0  0  0  0  0  0  0  0  0
    8.6814  -13.8262   20.4992 C   0  0  1  0  0  0  0  0  0  0  0  0
    8.9883  -14.5450   21.7372 C   0  0  0  0  0  0  0  0  0  0  0  0
    9.1298  -13.8880   22.8000 O   0  0  0  0  0  0  0  0  0  0  0  0
    9.1370  -15.9554   21.8082 N   0  0  0  0  0  0  0  0  0  0  0  0
    9.4764  -16.6566   23.0222 C   0  0  0  0  0  0  0  0  0  0  0  0
   10.8358  -17.2504   22.8974 C   0  0  0  0  0  0  0  0  0  0  0  0
   11.0001  -18.3943   22.3988 O   0  0  0  0  0  0  0  0  0  0  0  0
   11.9847  -16.5461   23.3359 N   0  0  0  0  0  0  0  0  0  0  0  0
   13.3073  -17.1543   23.1366 C   0  0  0  0  0  0  0  0  0  0  0  0
   14.3726  -16.2936   23.6905 C   0  0  0  0  0  0  0  0  0  0  0  0
   14.2068  -15.6022   24.7322 O   0  0  0  0  0  0  0  0  0  0  0  0
   15.5845  -16.2700   23.0148 O   0  0  0  0  0  0  0  0  0  0  0  0
  1  2  1  0
  1  5  1  0
  2  3  1  0
  4  3  1  0
  5  4  1  0
  6  7  2  0
  5  6  1  1
  8  6  1  0
  9  8  1  0
 10  9  1  0
 10 12  1  0
 11 10  2  0
 13 12  1  0
 14 13  1  0
 15 14  2  0
 16 14  1  0
M  END
$$$$
