PGG.pdb
     RDKit          3D

 16 16  0  0  1  0  0  0  0  0999 V2000
    8.2254  -14.9027   19.6185 N   0  0  0  0  0  0  0  0  0  0  0  0
    7.7692  -14.4100   18.3548 C   0  0  0  0  0  0  0  0  0  0  0  0
    7.3194  -12.9697   18.5759 C   0  0  0  0  0  0  0  0  0  0  0  0
    7.0302  -12.9967   20.0821 C   0  0  0  0  0  0  0  0  0  0  0  0
    8.2339  -13.8217   20.5544 C   0  0  1  0  0  0  0  0  0  0  0  0
    8.1014  -14.2389   21.9516 C   0  0  0  0  0  0  0  0  0  0  0  0
    8.0619  -13.3562   22.8463 O   0  0  0  0  0  0  0  0  0  0  0  0
    8.0141  -15.5964   22.3590 N   0  0  0  0  0  0  0  0  0  0  0  0
    7.8021  -16.0012   23.7272 C   0  0  0  0  0  0  0  0  0  0  0  0
    9.1065  -16.0628   24.4419 C   0  0  0  0  0  0  0  0  0  0  0  0
    9.1785  -16.4889   25.6239 O   0  0  0  0  0  0  0  0  0  0  0  0
   10.3055  -15.6439   23.8132 N   0  0  0  0  0  0  0  0  0  0  0  0
   11.5807  -15.8442   24.5149 C   0  0  0  0  0  0  0  0  0  0  0  0
   12.5596  -16.5285   23.6454 C   0  0  0  0  0  0  0  0  0  0  0  0
   12.2281  -17.4550   22.8566 O   0  0  0  0  0  0  0  0  0  0  0  0
   13.8806  -16.1111   23.7263 O   0  0  0  0  0  0  0  0  0  0  0  0
  1  2  1  0
  1  5  1  0
  2  3  1  0
  4  3  1  0
  5  4  1  0
  6  7  2  0
  5  6  1  1
  8  6  1  0
  9  8  1  0
 10  9  1  0
 10 12  1  0
 11 10  2  0
 13 12  1  0
 14 13  1  0
 15 14  2  0
 16 14  1  0
M  END
$$$$
