PGG.pdb
     RDKit          3D

 16 16  0  0  1  0  0  0  0  0999 V2000
    8.2041  -14.6341   20.1413 N   0  0  0  0  0  0  0  0  0  0  0  0
    8.0113  -13.3416   19.5580 C   0  0  0  0  0  0  0  0  0  0  0  0
    7.8855  -12.3492   20.7091 C   0  0  0  0  0  0  0  0  0  0  0  0
    7.4393  -13.2873   21.8376 C   0  0  0  0  0  0  0  0  0  0  0  0
    8.3624  -14.4789   21.5539 C   0  0  1  0  0  0  0  0  0  0  0  0
    7.9892  -15.6620   22.3314 C   0  0  0  0  0  0  0  0  0  0  0  0
    8.8907  -16.4651   22.6829 O   0  0  0  0  0  0  0  0  0  0  0  0
    6.6545  -15.9582   22.7154 N   0  0  0  0  0  0  0  0  0  0  0  0
    6.2695  -17.1915   23.3567 C   0  0  0  0  0  0  0  0  0  0  0  0
    6.6893  -17.1688   24.7848 C   0  0  0  0  0  0  0  0  0  0  0  0
    5.9396  -17.6227   25.6881 O   0  0  0  0  0  0  0  0  0  0  0  0
    7.9447  -16.6359   25.1697 N   0  0  0  0  0  0  0  0  0  0  0  0
    8.3111  -16.6430   26.5926 C   0  0  0  0  0  0  0  0  0  0  0  0
    9.1175  -17.8356   26.9238 C   0  0  0  0  0  0  0  0  0  0  0  0
    9.5073  -18.0805   28.0980 O   0  0  0  0  0  0  0  0  0  0  0  0
    9.4384  -18.6939   25.8816 O   0  0  0  0  0  0  0  0  0  0  0  0
  1  2  1  0
  1  5  1  0
  2  3  1  0
  4  3  1  0
  5  4  1  0
  6  7  2  0
  5  6  1  1
  8  6  1  0
  9  8  1  0
 10  9  1  0
 10 12  1  0
 11 10  2  0
 13 12  1  0
 14 13  1  0
 15 14  2  0
 16 14  1  0
M  END
$$$$
