PGG.pdb
     RDKit          3D

 16 16  0  0  1  0  0  0  0  0999 V2000
    9.7460  -13.6396   19.7064 N   0  0  0  0  0  0  0  0  0  0  0  0
    9.4955  -12.8176   18.5621 C   0  0  0  0  0  0  0  0  0  0  0  0
    8.0151  -12.4526   18.5929 C   0  0  0  0  0  0  0  0  0  0  0  0
    7.4638  -13.5993   19.4495 C   0  0  0  0  0  0  0  0  0  0  0  0
    8.5661  -13.6709   20.5136 C   0  0  1  0  0  0  0  0  0  0  0  0
    8.4459  -14.8654   21.3515 C   0  0  0  0  0  0  0  0  0  0  0  0
    7.4218  -15.0022   22.0683 O   0  0  0  0  0  0  0  0  0  0  0  0
    9.4289  -15.8891   21.4022 N   0  0  0  0  0  0  0  0  0  0  0  0
    9.3224  -17.0486   22.2535 C   0  0  0  0  0  0  0  0  0  0  0  0
    9.6071  -16.6658   23.6637 C   0  0  0  0  0  0  0  0  0  0  0  0
    8.8405  -15.8904   24.2922 O   0  0  0  0  0  0  0  0  0  0  0  0
   10.7490  -17.1626   24.3401 N   0  0  0  0  0  0  0  0  0  0  0  0
   10.7701  -17.1347   25.8090 C   0  0  0  0  0  0  0  0  0  0  0  0
   12.0609  -17.6319   26.3276 C   0  0  0  0  0  0  0  0  0  0  0  0
   13.0071  -17.9716   25.5661 O   0  0  0  0  0  0  0  0  0  0  0  0
   12.2013  -17.7148   27.7057 O   0  0  0  0  0  0  0  0  0  0  0  0
  1  2  1  0
  1  5  1  0
  2  3  1  0
  4  3  1  0
  5  4  1  0
  6  7  2  0
  5  6  1  6
  8  6  1  0
  9  8  1  0
 10  9  1  0
 10 12  1  0
 11 10  2  0
 13 12  1  0
 14 13  1  0
 15 14  2  0
 16 14  1  0
M  END
$$$$
