PGG.pdb
     RDKit          3D

 16 16  0  0  1  0  0  0  0  0999 V2000
    8.6118  -14.8136   19.4416 N   0  0  0  0  0  0  0  0  0  0  0  0
    8.0516  -14.3531   18.2079 C   0  0  0  0  0  0  0  0  0  0  0  0
    7.3898  -13.0094   18.4949 C   0  0  0  0  0  0  0  0  0  0  0  0
    7.1481  -13.1353   20.0044 C   0  0  0  0  0  0  0  0  0  0  0  0
    8.4771  -13.7788   20.4191 C   0  0  1  0  0  0  0  0  0  0  0  0
    8.4477  -14.2614   21.8010 C   0  0  0  0  0  0  0  0  0  0  0  0
    8.3028  -13.4275   22.7310 O   0  0  0  0  0  0  0  0  0  0  0  0
    8.5747  -15.6306   22.1557 N   0  0  0  0  0  0  0  0  0  0  0  0
    8.4481  -16.1138   23.5089 C   0  0  0  0  0  0  0  0  0  0  0  0
    9.7992  -16.3000   24.1055 C   0  0  0  0  0  0  0  0  0  0  0  0
    9.9448  -16.8836   25.2110 O   0  0  0  0  0  0  0  0  0  0  0  0
   10.9611  -15.8261   23.4470 N   0  0  0  0  0  0  0  0  0  0  0  0
   12.2781  -16.1573   24.0079 C   0  0  0  0  0  0  0  0  0  0  0  0
   13.3286  -16.0745   22.9725 C   0  0  0  0  0  0  0  0  0  0  0  0
   13.0764  -16.2115   21.7444 O   0  0  0  0  0  0  0  0  0  0  0  0
   14.6262  -15.8366   23.4029 O   0  0  0  0  0  0  0  0  0  0  0  0
  1  2  1  0
  1  5  1  0
  2  3  1  0
  4  3  1  0
  5  4  1  0
  6  7  2  0
  5  6  1  1
  8  6  1  0
  9  8  1  0
 10  9  1  0
 10 12  1  0
 11 10  2  0
 13 12  1  0
 14 13  1  0
 15 14  2  0
 16 14  1  0
M  END
$$$$
