PGG.pdb
     RDKit          3D

 16 16  0  0  1  0  0  0  0  0999 V2000
    7.5916  -14.5744   21.2545 N   0  0  0  0  0  0  0  0  0  0  0  0
    6.8279  -13.3813   21.0513 C   0  0  0  0  0  0  0  0  0  0  0  0
    7.2012  -12.8444   19.6736 C   0  0  0  0  0  0  0  0  0  0  0  0
    8.5808  -13.4887   19.4884 C   0  0  0  0  0  0  0  0  0  0  0  0
    8.2813  -14.8875   20.0417 C   0  0  1  0  0  0  0  0  0  0  0  0
    9.4997  -15.6765   20.2330 C   0  0  0  0  0  0  0  0  0  0  0  0
   10.1273  -16.0773   19.2197 O   0  0  0  0  0  0  0  0  0  0  0  0
   10.0192  -16.0190   21.5095 N   0  0  0  0  0  0  0  0  0  0  0  0
   11.4073  -16.3349   21.7416 C   0  0  0  0  0  0  0  0  0  0  0  0
   11.6923  -16.3083   23.2025 C   0  0  0  0  0  0  0  0  0  0  0  0
   12.8554  -16.5084   23.6398 O   0  0  0  0  0  0  0  0  0  0  0  0
   10.6633  -16.0571   24.1439 N   0  0  0  0  0  0  0  0  0  0  0  0
   10.9958  -16.0623   25.5751 C   0  0  0  0  0  0  0  0  0  0  0  0
   10.9483  -17.4334   26.1229 C   0  0  0  0  0  0  0  0  0  0  0  0
   10.7090  -18.4394   25.4009 O   0  0  0  0  0  0  0  0  0  0  0  0
   11.1799  -17.5815   27.4831 O   0  0  0  0  0  0  0  0  0  0  0  0
  1  2  1  0
  1  5  1  0
  2  3  1  0
  4  3  1  0
  5  4  1  0
  6  7  2  0
  5  6  1  1
  8  6  1  0
  9  8  1  0
 10  9  1  0
 10 12  1  0
 11 10  2  0
 13 12  1  0
 14 13  1  0
 15 14  2  0
 16 14  1  0
M  END
$$$$
