PGG.pdb
     RDKit          3D

 16 16  0  0  1  0  0  0  0  0999 V2000
    7.8533  -15.0497   20.5274 N   0  0  0  0  0  0  0  0  0  0  0  0
    7.7184  -14.3562   19.2829 C   0  0  0  0  0  0  0  0  0  0  0  0
    7.8957  -12.8711   19.5806 C   0  0  0  0  0  0  0  0  0  0  0  0
    7.5332  -12.8410   21.0708 C   0  0  0  0  0  0  0  0  0  0  0  0
    8.2550  -14.1137   21.5308 C   0  0  1  0  0  0  0  0  0  0  0  0
    7.8791  -14.4983   22.8926 C   0  0  0  0  0  0  0  0  0  0  0  0
    8.3359  -13.8341   23.8577 O   0  0  0  0  0  0  0  0  0  0  0  0
    7.0198  -15.5891   23.1897 N   0  0  0  0  0  0  0  0  0  0  0  0
    6.5123  -15.8609   24.5123 C   0  0  0  0  0  0  0  0  0  0  0  0
    7.2105  -17.0437   25.0864 C   0  0  0  0  0  0  0  0  0  0  0  0
    6.5621  -18.0008   25.5839 O   0  0  0  0  0  0  0  0  0  0  0  0
    8.6251  -17.1274   25.0898 N   0  0  0  0  0  0  0  0  0  0  0  0
    9.2626  -18.3239   25.6561 C   0  0  0  0  0  0  0  0  0  0  0  0
    9.9304  -18.0103   26.9360 C   0  0  0  0  0  0  0  0  0  0  0  0
    9.8962  -16.8589   27.4494 O   0  0  0  0  0  0  0  0  0  0  0  0
   10.6095  -19.0431   27.5670 O   0  0  0  0  0  0  0  0  0  0  0  0
  1  2  1  0
  1  5  1  0
  2  3  1  0
  4  3  1  0
  5  4  1  0
  6  7  2  0
  5  6  1  1
  8  6  1  0
  9  8  1  0
 10  9  1  0
 10 12  1  0
 11 10  2  0
 13 12  1  0
 14 13  1  0
 15 14  2  0
 16 14  1  0
M  END
$$$$
