PGG.pdb
     RDKit          3D

 16 16  0  0  1  0  0  0  0  0999 V2000
    7.6278  -14.8399   19.4906 N   0  0  0  0  0  0  0  0  0  0  0  0
    7.2879  -14.1801   18.2671 C   0  0  0  0  0  0  0  0  0  0  0  0
    7.7825  -12.7424   18.3856 C   0  0  0  0  0  0  0  0  0  0  0  0
    7.8352  -12.5913   19.9111 C   0  0  0  0  0  0  0  0  0  0  0  0
    8.4298  -13.9565   20.2786 C   0  0  1  0  0  0  0  0  0  0  0  0
    8.3668  -14.2150   21.7183 C   0  0  0  0  0  0  0  0  0  0  0  0
    9.2757  -13.7567   22.4566 O   0  0  0  0  0  0  0  0  0  0  0  0
    7.3281  -14.9611   22.3356 N   0  0  0  0  0  0  0  0  0  0  0  0
    7.1677  -15.0633   23.7655 C   0  0  0  0  0  0  0  0  0  0  0  0
    7.6678  -16.3845   24.2350 C   0  0  0  0  0  0  0  0  0  0  0  0
    7.4795  -16.7650   25.4198 O   0  0  0  0  0  0  0  0  0  0  0  0
    8.3702  -17.2527   23.3627 N   0  0  0  0  0  0  0  0  0  0  0  0
    8.7549  -18.5852   23.8478 C   0  0  0  0  0  0  0  0  0  0  0  0
   10.1895  -18.6254   24.1981 C   0  0  0  0  0  0  0  0  0  0  0  0
   10.7200  -17.7754   24.9641 O   0  0  0  0  0  0  0  0  0  0  0  0
   10.9487  -19.6478   23.6469 O   0  0  0  0  0  0  0  0  0  0  0  0
  1  2  1  0
  1  5  1  0
  2  3  1  0
  4  3  1  0
  5  4  1  0
  6  7  2  0
  5  6  1  1
  8  6  1  0
  9  8  1  0
 10  9  1  0
 10 12  1  0
 11 10  2  0
 13 12  1  0
 14 13  1  0
 15 14  2  0
 16 14  1  0
M  END
$$$$
