PGG.pdb
     RDKit          3D

 16 16  0  0  1  0  0  0  0  0999 V2000
    8.1800  -14.9594   19.3912 N   0  0  0  0  0  0  0  0  0  0  0  0
    7.8214  -14.4856   18.0894 C   0  0  0  0  0  0  0  0  0  0  0  0
    7.6882  -12.9697   18.1896 C   0  0  0  0  0  0  0  0  0  0  0  0
    7.4196  -12.8129   19.6917 C   0  0  0  0  0  0  0  0  0  0  0  0
    8.4284  -13.8323   20.2353 C   0  0  1  0  0  0  0  0  0  0  0  0
    8.2292  -14.0974   21.6614 C   0  0  0  0  0  0  0  0  0  0  0  0
    8.5035  -13.1922   22.4900 O   0  0  0  0  0  0  0  0  0  0  0  0
    7.7393  -15.3301   22.1683 N   0  0  0  0  0  0  0  0  0  0  0  0
    7.5137  -15.5765   23.5715 C   0  0  0  0  0  0  0  0  0  0  0  0
    8.7741  -16.0465   24.2091 C   0  0  0  0  0  0  0  0  0  0  0  0
    8.7862  -16.4500   25.4012 O   0  0  0  0  0  0  0  0  0  0  0  0
    9.9972  -16.0538   23.4935 N   0  0  0  0  0  0  0  0  0  0  0  0
   11.1812  -16.6572   24.1204 C   0  0  0  0  0  0  0  0  0  0  0  0
   12.4180  -16.2238   23.4384 C   0  0  0  0  0  0  0  0  0  0  0  0
   12.4179  -15.7912   22.2538 O   0  0  0  0  0  0  0  0  0  0  0  0
   13.6021  -16.3098   24.1570 O   0  0  0  0  0  0  0  0  0  0  0  0
  1  2  1  0
  1  5  1  0
  2  3  1  0
  4  3  1  0
  5  4  1  0
  6  7  2  0
  5  6  1  1
  8  6  1  0
  9  8  1  0
 10  9  1  0
 10 12  1  0
 11 10  2  0
 13 12  1  0
 14 13  1  0
 15 14  2  0
 16 14  1  0
M  END
$$$$
