PGG.pdb
     RDKit          3D

 16 16  0  0  1  0  0  0  0  0999 V2000
    7.0750  -14.4016   19.4169 N   0  0  0  0  0  0  0  0  0  0  0  0
    6.7796  -13.1510   18.7871 C   0  0  0  0  0  0  0  0  0  0  0  0
    8.0540  -12.3150   18.8404 C   0  0  0  0  0  0  0  0  0  0  0  0
    8.7714  -12.9767   20.0237 C   0  0  0  0  0  0  0  0  0  0  0  0
    8.4744  -14.4478   19.7071 C   0  0  1  0  0  0  0  0  0  0  0  0
    8.8259  -15.3323   20.8195 C   0  0  0  0  0  0  0  0  0  0  0  0
   10.0408  -15.5490   21.0608 O   0  0  0  0  0  0  0  0  0  0  0  0
    7.8645  -15.9663   21.6504 N   0  0  0  0  0  0  0  0  0  0  0  0
    8.2111  -16.9011   22.6928 C   0  0  0  0  0  0  0  0  0  0  0  0
    9.2105  -16.2860   23.6088 C   0  0  0  0  0  0  0  0  0  0  0  0
    8.8696  -15.4108   24.4464 O   0  0  0  0  0  0  0  0  0  0  0  0
   10.5747  -16.6673   23.5650 N   0  0  0  0  0  0  0  0  0  0  0  0
   11.5064  -16.0782   24.5364 C   0  0  0  0  0  0  0  0  0  0  0  0
   12.8908  -16.5238   24.2770 C   0  0  0  0  0  0  0  0  0  0  0  0
   13.1756  -17.3356   23.3548 O   0  0  0  0  0  0  0  0  0  0  0  0
   13.8864  -16.0106   25.0961 O   0  0  0  0  0  0  0  0  0  0  0  0
  1  2  1  0
  1  5  1  0
  2  3  1  0
  4  3  1  0
  5  4  1  0
  6  7  2  0
  5  6  1  1
  8  6  1  0
  9  8  1  0
 10  9  1  0
 10 12  1  0
 11 10  2  0
 13 12  1  0
 14 13  1  0
 15 14  2  0
 16 14  1  0
M  END
$$$$
