PGG.pdb
     RDKit          3D

 16 16  0  0  1  0  0  0  0  0999 V2000
    7.6603  -15.0939   19.7524 N   0  0  0  0  0  0  0  0  0  0  0  0
    7.0544  -14.4881   18.6062 C   0  0  0  0  0  0  0  0  0  0  0  0
    7.4479  -13.0148   18.6224 C   0  0  0  0  0  0  0  0  0  0  0  0
    7.7630  -12.8275   20.1119 C   0  0  0  0  0  0  0  0  0  0  0  0
    8.5195  -14.1355   20.3752 C   0  0  1  0  0  0  0  0  0  0  0  0
    8.7378  -14.3673   21.8043 C   0  0  0  0  0  0  0  0  0  0  0  0
    9.6437  -13.7222   22.3912 O   0  0  0  0  0  0  0  0  0  0  0  0
    7.9781  -15.2876   22.5739 N   0  0  0  0  0  0  0  0  0  0  0  0
    8.0550  -15.3717   24.0118 C   0  0  0  0  0  0  0  0  0  0  0  0
    9.1612  -16.2875   24.4041 C   0  0  0  0  0  0  0  0  0  0  0  0
    8.9850  -17.1823   25.2714 O   0  0  0  0  0  0  0  0  0  0  0  0
   10.4446  -16.1793   23.8132 N   0  0  0  0  0  0  0  0  0  0  0  0
   11.4724  -17.1684   24.1656 C   0  0  0  0  0  0  0  0  0  0  0  0
   12.7252  -16.9143   23.4250 C   0  0  0  0  0  0  0  0  0  0  0  0
   13.2801  -15.7819   23.4082 O   0  0  0  0  0  0  0  0  0  0  0  0
   13.2821  -17.9821   22.7354 O   0  0  0  0  0  0  0  0  0  0  0  0
  1  2  1  0
  1  5  1  0
  2  3  1  0
  4  3  1  0
  5  4  1  0
  6  7  2  0
  5  6  1  1
  8  6  1  0
  9  8  1  0
 10  9  1  0
 10 12  1  0
 11 10  2  0
 13 12  1  0
 14 13  1  0
 15 14  2  0
 16 14  1  0
M  END
$$$$
