PGG.pdb
     RDKit          3D

 16 16  0  0  1  0  0  0  0  0999 V2000
    5.4081  -18.8660   21.2437 N   0  0  0  0  0  0  0  0  0  0  0  0
    4.2405  -19.6930   21.2179 C   0  0  0  0  0  0  0  0  0  0  0  0
    3.0715  -18.7986   20.8185 C   0  0  0  0  0  0  0  0  0  0  0  0
    3.6187  -17.4258   21.2295 C   0  0  0  0  0  0  0  0  0  0  0  0
    5.0640  -17.5737   20.7376 C   0  0  1  0  0  0  0  0  0  0  0  0
    5.9241  -16.4927   21.2228 C   0  0  0  0  0  0  0  0  0  0  0  0
    5.7146  -15.3221   20.8142 O   0  0  0  0  0  0  0  0  0  0  0  0
    6.9920  -16.6917   22.1374 N   0  0  0  0  0  0  0  0  0  0  0  0
    7.6897  -15.6101   22.7885 C   0  0  0  0  0  0  0  0  0  0  0  0
    7.6492  -15.8010   24.2644 C   0  0  0  0  0  0  0  0  0  0  0  0
    8.2828  -15.0336   25.0349 O   0  0  0  0  0  0  0  0  0  0  0  0
    6.8965  -16.8516   24.8455 N   0  0  0  0  0  0  0  0  0  0  0  0
    7.0061  -17.0856   26.2919 C   0  0  0  0  0  0  0  0  0  0  0  0
    8.1736  -17.9360   26.6019 C   0  0  0  0  0  0  0  0  0  0  0  0
    9.0051  -18.2861   25.7206 O   0  0  0  0  0  0  0  0  0  0  0  0
    8.3288  -18.3449   27.9189 O   0  0  0  0  0  0  0  0  0  0  0  0
  1  2  1  0
  1  5  1  0
  2  3  1  0
  4  3  1  0
  5  4  1  0
  6  7  2  0
  5  6  1  1
  8  6  1  0
  9  8  1  0
 10  9  1  0
 10 12  1  0
 11 10  2  0
 13 12  1  0
 14 13  1  0
 15 14  2  0
 16 14  1  0
M  END
$$$$
