CVM.pdb
     RDKit          3D

 22 21  0  0  1  0  0  0  0  0999 V2000
   27.0170  -17.4963  -16.6003 N   0  0  0  0  0  0  0  0  0  0  0  0
   26.5542  -17.4140  -15.2251 C   0  0  1  0  0  0  0  0  0  0  0  0
   25.6696  -16.1962  -15.0372 C   0  0  0  0  0  0  0  0  0  0  0  0
   26.7248  -14.7401  -14.7962 S   0  0  0  0  0  0  0  0  0  0  0  0
   25.8456  -18.6638  -14.8493 C   0  0  0  0  0  0  0  0  0  0  0  0
   25.0693  -19.2146  -15.6591 O   0  0  0  0  0  0  0  0  0  0  0  0
   27.4721  -21.3976  -12.1864 C   0  0  0  0  0  0  0  0  0  0  0  0
   25.9652  -21.2539  -12.0647 C   0  0  1  0  0  0  0  0  0  0  0  0
   25.5620  -20.6502  -10.7517 C   0  0  0  0  0  0  0  0  0  0  0  0
   25.3708  -20.5325  -13.2443 C   0  0  2  0  0  0  0  0  0  0  0  0
   25.9833  -19.3110  -13.5940 N   0  0  0  0  0  0  0  0  0  0  0  0
   23.9530  -20.2615  -12.8748 C   0  0  0  0  0  0  0  0  0  0  0  0
   23.7571  -19.4083  -11.9534 O   0  0  0  0  0  0  0  0  0  0  0  0
   19.8494  -17.0328  -16.2016 C   0  0  0  0  0  0  0  0  0  0  0  0
   19.3282  -17.1810  -14.4469 S   0  0  0  0  0  0  0  0  0  0  0  0
   19.7965  -18.6877  -13.7038 C   0  0  0  0  0  0  0  0  0  0  0  0
   21.0921  -19.3102  -13.8746 C   0  0  0  0  0  0  0  0  0  0  0  0
   21.5145  -20.5272  -13.1724 C   0  0  2  0  0  0  0  0  0  0  0  0
   22.8771  -20.9168  -13.5142 N   0  0  0  0  0  0  0  0  0  0  0  0
   20.6229  -21.6722  -13.3045 C   0  0  0  0  0  0  0  0  0  0  0  0
   21.1057  -22.6289  -14.0687 O   0  0  0  0  0  0  0  0  0  0  0  0
   19.3985  -21.9425  -12.8036 O   0  0  0  0  0  0  0  0  0  0  0  0
  2  1  1  6
  2  5  1  0
  3  2  1  0
  4  3  1  0
  5 11  1  0
  5  6  2  0
  8  7  1  6
  8 10  1  0
  8  9  1  0
 10 12  1  0
 10 11  1  1
 12 13  2  0
 14 15  1  0
 15 16  1  0
 16 17  1  0
 18 17  1  6
 18 20  1  0
 19 12  1  0
 19 18  1  0
 20 22  1  0
 21 20  2  0
M  END
$$$$
