CVM.pdb
     RDKit          3D

 22 21  0  0  1  0  0  0  0  0999 V2000
   25.5961  -14.5816  -15.7073 N   0  0  0  0  0  0  0  0  0  0  0  0
   25.8397  -13.2853  -16.3174 C   0  0  1  0  0  0  0  0  0  0  0  0
   25.3168  -12.1750  -15.4259 C   0  0  0  0  0  0  0  0  0  0  0  0
   23.5030  -12.2070  -15.4571 S   0  0  0  0  0  0  0  0  0  0  0  0
   27.2879  -13.1185  -16.6006 C   0  0  0  0  0  0  0  0  0  0  0  0
   28.1397  -13.5116  -15.7750 O   0  0  0  0  0  0  0  0  0  0  0  0
   28.5861  -14.0106  -19.9201 C   0  0  0  0  0  0  0  0  0  0  0  0
   29.6208  -13.0396  -19.3790 C   0  0  1  0  0  0  0  0  0  0  0  0
   30.0391  -12.0319  -20.4088 C   0  0  0  0  0  0  0  0  0  0  0  0
   29.1767  -12.4040  -18.0891 C   0  0  2  0  0  0  0  0  0  0  0  0
   27.8056  -12.5247  -17.7808 N   0  0  0  0  0  0  0  0  0  0  0  0
   29.5056  -10.9568  -18.2220 C   0  0  0  0  0  0  0  0  0  0  0  0
   28.6022  -10.2096  -18.7128 O   0  0  0  0  0  0  0  0  0  0  0  0
   32.5709   -5.1907  -14.4914 C   0  0  0  0  0  0  0  0  0  0  0  0
   33.3376   -6.4980  -15.5285 S   0  0  0  0  0  0  0  0  0  0  0  0
   32.2824   -7.1091  -16.7755 C   0  0  0  0  0  0  0  0  0  0  0  0
   31.8750   -8.4935  -16.8893 C   0  0  0  0  0  0  0  0  0  0  0  0
   30.9926   -9.0029  -17.9449 C   0  0  2  0  0  0  0  0  0  0  0  0
   30.7569  -10.4364  -17.8231 N   0  0  0  0  0  0  0  0  0  0  0  0
   31.3901   -8.6793  -19.3089 C   0  0  0  0  0  0  0  0  0  0  0  0
   31.9757   -9.6772  -19.9365 O   0  0  0  0  0  0  0  0  0  0  0  0
   31.2822   -7.5578  -20.0530 O   0  0  0  0  0  0  0  0  0  0  0  0
  2  1  1  1
  2  5  1  0
  3  2  1  0
  4  3  1  0
  5 11  1  0
  5  6  2  0
  8  7  1  6
  8 10  1  0
  8  9  1  0
 10 12  1  0
 10 11  1  6
 12 13  2  0
 14 15  1  0
 15 16  1  0
 16 17  1  0
 18 17  1  1
 18 20  1  0
 19 12  1  0
 19 18  1  0
 20 22  1  0
 21 20  2  0
M  END
$$$$
