CVM.pdb
     RDKit          3D

 22 21  0  0  1  0  0  0  0  0999 V2000
   22.7969  -11.9775  -18.2140 N   0  0  0  0  0  0  0  0  0  0  0  0
   21.4633  -11.4576  -18.4657 C   0  0  1  0  0  0  0  0  0  0  0  0
   20.5031  -12.5914  -18.7713 C   0  0  0  0  0  0  0  0  0  0  0  0
   21.3465  -13.8016  -19.8276 S   0  0  0  0  0  0  0  0  0  0  0  0
   21.0022  -10.6523  -17.3063 C   0  0  0  0  0  0  0  0  0  0  0  0
   19.8500  -10.1685  -17.2949 O   0  0  0  0  0  0  0  0  0  0  0  0
   23.3936  -10.2978  -13.7427 C   0  0  0  0  0  0  0  0  0  0  0  0
   21.8990  -10.0303  -13.7165 C   0  0  1  0  0  0  0  0  0  0  0  0
   21.5159   -9.0857  -12.6156 C   0  0  0  0  0  0  0  0  0  0  0  0
   21.3802   -9.5980  -15.0615 C   0  0  2  0  0  0  0  0  0  0  0  0
   21.7954  -10.3754  -16.1627 N   0  0  0  0  0  0  0  0  0  0  0  0
   21.8751   -8.2056  -15.2527 C   0  0  0  0  0  0  0  0  0  0  0  0
   23.0964   -8.0744  -15.5795 O   0  0  0  0  0  0  0  0  0  0  0  0
   19.4140   -5.4630  -20.3418 C   0  0  0  0  0  0  0  0  0  0  0  0
   19.4897   -4.6560  -18.6939 S   0  0  0  0  0  0  0  0  0  0  0  0
   20.6562   -5.3766  -17.6160 C   0  0  0  0  0  0  0  0  0  0  0  0
   20.8624   -4.9598  -16.2452 C   0  0  0  0  0  0  0  0  0  0  0  0
   21.5962   -5.7505  -15.2507 C   0  0  2  0  0  0  0  0  0  0  0  0
   21.0329   -7.0844  -15.0814 N   0  0  0  0  0  0  0  0  0  0  0  0
   21.7743   -5.1180  -13.9500 C   0  0  0  0  0  0  0  0  0  0  0  0
   22.4722   -4.0031  -13.9990 O   0  0  0  0  0  0  0  0  0  0  0  0
   21.3708   -5.4525  -12.7057 O   0  0  0  0  0  0  0  0  0  0  0  0
  2  1  1  1
  2  5  1  0
  3  2  1  0
  4  3  1  0
  5 11  1  0
  5  6  2  0
  8  7  1  6
  8 10  1  0
  8  9  1  0
 10 12  1  0
 10 11  1  6
 12 13  2  0
 14 15  1  0
 15 16  1  0
 16 17  1  0
 18 17  1  6
 18 20  1  0
 19 12  1  0
 19 18  1  0
 20 22  1  0
 21 20  2  0
M  END
$$$$
