CVM.pdb
     RDKit          3D

 22 21  0  0  1  0  0  0  0  0999 V2000
   15.1216  -13.1334  -18.0793 N   0  0  0  0  0  0  0  0  0  0  0  0
   15.6175  -12.4101  -16.9205 C   0  0  1  0  0  0  0  0  0  0  0  0
   16.3982  -13.3402  -16.0113 C   0  0  0  0  0  0  0  0  0  0  0  0
   15.2330  -14.4474  -15.1700 S   0  0  0  0  0  0  0  0  0  0  0  0
   16.4434  -11.2549  -17.3548 C   0  0  0  0  0  0  0  0  0  0  0  0
   17.2873  -11.3922  -18.2662 O   0  0  0  0  0  0  0  0  0  0  0  0
   15.2513   -7.4165  -16.3212 C   0  0  0  0  0  0  0  0  0  0  0  0
   16.3646   -7.5429  -17.3463 C   0  0  1  0  0  0  0  0  0  0  0  0
   17.2712   -6.3474  -17.3423 C   0  0  0  0  0  0  0  0  0  0  0  0
   17.1127   -8.8415  -17.2087 C   0  0  2  0  0  0  0  0  0  0  0  0
   16.3491   -9.9536  -16.7967 N   0  0  0  0  0  0  0  0  0  0  0  0
   18.1684   -8.5890  -16.1879 C   0  0  0  0  0  0  0  0  0  0  0  0
   17.8377   -8.7563  -14.9722 O   0  0  0  0  0  0  0  0  0  0  0  0
   23.7411  -11.4910  -13.0436 C   0  0  0  0  0  0  0  0  0  0  0  0
   23.7256  -10.5666  -14.6303 S   0  0  0  0  0  0  0  0  0  0  0  0
   22.6027   -9.2323  -14.6506 C   0  0  0  0  0  0  0  0  0  0  0  0
   21.4676   -9.1386  -15.5441 C   0  0  0  0  0  0  0  0  0  0  0  0
   20.4815   -8.0530  -15.5039 C   0  0  2  0  0  0  0  0  0  0  0  0
   19.4731   -8.1845  -16.5484 N   0  0  0  0  0  0  0  0  0  0  0  0
   21.0302   -6.7031  -15.5105 C   0  0  0  0  0  0  0  0  0  0  0  0
   21.2452   -6.2173  -14.3063 O   0  0  0  0  0  0  0  0  0  0  0  0
   21.3554   -5.8512  -16.5063 O   0  0  0  0  0  0  0  0  0  0  0  0
  2  1  1  6
  2  5  1  0
  3  2  1  0
  4  3  1  0
  5 11  1  0
  5  6  2  0
  8  7  1  1
  8 10  1  0
  8  9  1  0
 10 12  1  0
 10 11  1  1
 12 13  2  0
 14 15  1  0
 15 16  1  0
 16 17  1  0
 18 17  1  6
 18 20  1  0
 19 12  1  0
 19 18  1  0
 20 22  1  0
 21 20  2  0
M  END
$$$$
