CVM.pdb
     RDKit          3D

 22 21  0  0  1  0  0  0  0  0999 V2000
   28.3766  -22.7038  -17.6133 N   0  0  0  0  0  0  0  0  0  0  0  0
   27.3085  -23.0154  -16.6783 C   0  0  1  0  0  0  0  0  0  0  0  0
   27.4964  -24.4076  -16.1063 C   0  0  0  0  0  0  0  0  0  0  0  0
   27.4259  -25.6102  -17.4628 S   0  0  0  0  0  0  0  0  0  0  0  0
   27.2536  -21.9898  -15.6057 C   0  0  0  0  0  0  0  0  0  0  0  0
   28.2906  -21.3829  -15.2621 O   0  0  0  0  0  0  0  0  0  0  0  0
   25.2972  -18.6868  -15.6796 C   0  0  0  0  0  0  0  0  0  0  0  0
   24.8842  -19.5036  -14.4678 C   0  0  1  0  0  0  0  0  0  0  0  0
   23.5331  -20.1311  -14.6465 C   0  0  0  0  0  0  0  0  0  0  0  0
   25.9411  -20.4995  -14.0727 C   0  0  2  0  0  0  0  0  0  0  0  0
   26.0712  -21.6271  -14.9100 N   0  0  0  0  0  0  0  0  0  0  0  0
   25.5626  -20.9649  -12.7087 C   0  0  0  0  0  0  0  0  0  0  0  0
   24.7306  -21.9234  -12.6439 O   0  0  0  0  0  0  0  0  0  0  0  0
   28.6578  -19.3135   -6.8539 C   0  0  0  0  0  0  0  0  0  0  0  0
   26.9247  -19.7293   -6.4112 S   0  0  0  0  0  0  0  0  0  0  0  0
   26.0031  -20.3862   -7.7381 C   0  0  0  0  0  0  0  0  0  0  0  0
   26.3467  -20.2088   -9.1331 C   0  0  0  0  0  0  0  0  0  0  0  0
   25.5844  -20.7892  -10.2442 C   0  0  2  0  0  0  0  0  0  0  0  0
   26.0996  -20.3741  -11.5432 N   0  0  0  0  0  0  0  0  0  0  0  0
   24.1425  -20.5844  -10.1935 C   0  0  0  0  0  0  0  0  0  0  0  0
   23.5393  -21.3175   -9.2818 O   0  0  0  0  0  0  0  0  0  0  0  0
   23.3035  -19.7971  -10.9001 O   0  0  0  0  0  0  0  0  0  0  0  0
  2  1  1  6
  2  5  1  0
  3  2  1  0
  4  3  1  0
  5 11  1  0
  5  6  2  0
  8  7  1  6
  8 10  1  0
  8  9  1  0
 10 12  1  0
 10 11  1  6
 12 13  2  0
 14 15  1  0
 15 16  1  0
 16 17  1  0
 18 17  1  1
 18 20  1  0
 19 12  1  0
 19 18  1  0
 20 22  1  0
 21 20  2  0
M  END
$$$$
