CVM.pdb
     RDKit          3D

 22 21  0  0  1  0  0  0  0  0999 V2000
   18.2508  -12.5898  -15.2103 N   0  0  0  0  0  0  0  0  0  0  0  0
   17.1448  -11.6561  -15.0808 C   0  0  1  0  0  0  0  0  0  0  0  0
   16.0086  -12.2877  -14.2990 C   0  0  0  0  0  0  0  0  0  0  0  0
   15.0330  -13.3253  -15.4230 S   0  0  0  0  0  0  0  0  0  0  0  0
   17.6104  -10.3985  -14.4427 C   0  0  0  0  0  0  0  0  0  0  0  0
   18.3091  -10.4397  -13.4075 O   0  0  0  0  0  0  0  0  0  0  0  0
   16.9879   -6.6694  -16.3870 C   0  0  0  0  0  0  0  0  0  0  0  0
   18.0202   -6.7551  -15.2764 C   0  0  1  0  0  0  0  0  0  0  0  0
   18.1922   -5.4447  -14.5662 C   0  0  0  0  0  0  0  0  0  0  0  0
   17.7416   -7.8955  -14.3349 C   0  0  2  0  0  0  0  0  0  0  0  0
   17.3149   -9.0999  -14.9324 N   0  0  0  0  0  0  0  0  0  0  0  0
   16.6640   -7.4109  -13.4270 C   0  0  0  0  0  0  0  0  0  0  0  0
   15.4725   -7.4933  -13.8615 O   0  0  0  0  0  0  0  0  0  0  0  0
   13.5678   -6.7258   -6.2626 C   0  0  0  0  0  0  0  0  0  0  0  0
   14.8865   -7.3838   -7.3584 S   0  0  0  0  0  0  0  0  0  0  0  0
   14.9098   -6.6513   -8.9410 C   0  0  0  0  0  0  0  0  0  0  0  0
   15.8251   -7.0276   -9.9975 C   0  0  0  0  0  0  0  0  0  0  0  0
   15.8440   -6.4034  -11.3251 C   0  0  2  0  0  0  0  0  0  0  0  0
   16.9475   -6.8862  -12.1463 N   0  0  0  0  0  0  0  0  0  0  0  0
   15.8170   -4.9464  -11.3365 C   0  0  0  0  0  0  0  0  0  0  0  0
   17.0046   -4.4000  -11.4894 O   0  0  0  0  0  0  0  0  0  0  0  0
   14.8167   -4.0477  -11.2152 O   0  0  0  0  0  0  0  0  0  0  0  0
  2  1  1  1
  2  5  1  0
  3  2  1  0
  4  3  1  0
  5 11  1  0
  5  6  2  0
  8  7  1  6
  8 10  1  0
  8  9  1  0
 10 12  1  0
 10 11  1  6
 12 13  2  0
 14 15  1  0
 15 16  1  0
 16 17  1  0
 18 17  1  1
 18 20  1  0
 19 12  1  0
 19 18  1  0
 20 22  1  0
 21 20  2  0
M  END
$$$$
