CVM.pdb
     RDKit          3D

 22 21  0  0  1  0  0  0  0  0999 V2000
   24.9006  -24.8349  -15.8225 N   0  0  0  0  0  0  0  0  0  0  0  0
   24.2843  -23.6171  -15.3234 C   0  0  1  0  0  0  0  0  0  0  0  0
   23.0018  -23.9400  -14.5804 C   0  0  0  0  0  0  0  0  0  0  0  0
   21.8003  -24.6188  -15.7582 S   0  0  0  0  0  0  0  0  0  0  0  0
   25.2406  -22.8774  -14.4610 C   0  0  0  0  0  0  0  0  0  0  0  0
   26.0969  -23.4979  -13.7951 O   0  0  0  0  0  0  0  0  0  0  0  0
   27.0736  -18.5449  -12.7371 C   0  0  0  0  0  0  0  0  0  0  0  0
   26.3478  -19.2971  -13.8388 C   0  0  1  0  0  0  0  0  0  0  0  0
   27.0001  -19.1036  -15.1760 C   0  0  0  0  0  0  0  0  0  0  0  0
   26.1476  -20.7481  -13.4931 C   0  0  2  0  0  0  0  0  0  0  0  0
   25.2629  -21.4651  -14.3253 N   0  0  0  0  0  0  0  0  0  0  0  0
   25.6038  -20.7577  -12.1058 C   0  0  0  0  0  0  0  0  0  0  0  0
   24.3784  -20.4482  -11.9717 O   0  0  0  0  0  0  0  0  0  0  0  0
   27.9687  -18.1696   -6.1200 C   0  0  0  0  0  0  0  0  0  0  0  0
   27.3906  -19.9075   -5.9857 S   0  0  0  0  0  0  0  0  0  0  0  0
   26.2952  -20.3797   -7.2581 C   0  0  0  0  0  0  0  0  0  0  0  0
   26.6943  -20.6106   -8.6303 C   0  0  0  0  0  0  0  0  0  0  0  0
   25.7943  -21.1229   -9.6695 C   0  0  2  0  0  0  0  0  0  0  0  0
   26.4058  -21.0940  -10.9925 N   0  0  0  0  0  0  0  0  0  0  0  0
   24.4744  -20.5071   -9.7191 C   0  0  0  0  0  0  0  0  0  0  0  0
   23.5728  -21.1379   -8.9969 O   0  0  0  0  0  0  0  0  0  0  0  0
   23.9931  -19.4226  -10.3635 O   0  0  0  0  0  0  0  0  0  0  0  0
  2  1  1  1
  2  5  1  0
  3  2  1  0
  4  3  1  0
  5 11  1  0
  5  6  2  0
  8  7  1  1
  8 10  1  0
  8  9  1  0
 10 12  1  0
 10 11  1  6
 12 13  2  0
 14 15  1  0
 15 16  1  0
 16 17  1  0
 18 17  1  1
 18 20  1  0
 19 12  1  0
 19 18  1  0
 20 22  1  0
 21 20  2  0
M  END
$$$$
