CVM.pdb
     RDKit          3D

 22 21  0  0  1  0  0  0  0  0999 V2000
   20.0245  -16.1489  -15.6337 N   0  0  0  0  0  0  0  0  0  0  0  0
   20.0899  -16.8552  -14.3653 C   0  0  1  0  0  0  0  0  0  0  0  0
   19.1742  -16.2009  -13.3483 C   0  0  0  0  0  0  0  0  0  0  0  0
   19.8900  -14.6072  -12.8590 S   0  0  0  0  0  0  0  0  0  0  0  0
   19.7500  -18.2876  -14.5606 C   0  0  0  0  0  0  0  0  0  0  0  0
   18.9078  -18.6226  -15.4210 O   0  0  0  0  0  0  0  0  0  0  0  0
   22.1239  -21.2879  -15.3042 C   0  0  0  0  0  0  0  0  0  0  0  0
   21.2425  -21.6292  -14.1155 C   0  0  1  0  0  0  0  0  0  0  0  0
   22.0242  -21.6962  -12.8366 C   0  0  0  0  0  0  0  0  0  0  0  0
   20.0475  -20.7194  -14.0205 C   0  0  2  0  0  0  0  0  0  0  0  0
   20.3268  -19.3515  -13.8197 N   0  0  0  0  0  0  0  0  0  0  0  0
   19.2577  -21.2159  -12.8586 C   0  0  0  0  0  0  0  0  0  0  0  0
   19.4482  -20.6292  -11.7473 O   0  0  0  0  0  0  0  0  0  0  0  0
   13.8392  -19.5316  -10.1736 C   0  0  0  0  0  0  0  0  0  0  0  0
   13.6947  -21.2539  -10.7944 S   0  0  0  0  0  0  0  0  0  0  0  0
   15.2104  -22.1162  -10.8216 C   0  0  0  0  0  0  0  0  0  0  0  0
   16.2286  -21.9386  -11.8351 C   0  0  0  0  0  0  0  0  0  0  0  0
   17.5180  -22.6386  -11.8317 C   0  0  2  0  0  0  0  0  0  0  0  0
   18.3415  -22.2842  -12.9812 N   0  0  0  0  0  0  0  0  0  0  0  0
   17.4475  -24.0881  -11.6994 C   0  0  0  0  0  0  0  0  0  0  0  0
   17.7916  -24.7330  -12.7940 O   0  0  0  0  0  0  0  0  0  0  0  0
   17.0934  -24.8989  -10.6795 O   0  0  0  0  0  0  0  0  0  0  0  0
  2  1  1  6
  2  5  1  0
  3  2  1  0
  4  3  1  0
  5 11  1  0
  5  6  2  0
  8  7  1  6
  8 10  1  0
  8  9  1  0
 10 12  1  0
 10 11  1  1
 12 13  2  0
 14 15  1  0
 15 16  1  0
 16 17  1  0
 18 17  1  6
 18 20  1  0
 19 12  1  0
 19 18  1  0
 20 22  1  0
 21 20  2  0
M  END
$$$$
