CVM.pdb
     RDKit          3D

 22 21  0  0  1  0  0  0  0  0999 V2000
   18.0187  -12.5294  -17.1466 N   0  0  0  0  0  0  0  0  0  0  0  0
   18.8246  -11.4756  -17.7400 C   0  0  1  0  0  0  0  0  0  0  0  0
   17.9416  -10.4863  -18.4765 C   0  0  0  0  0  0  0  0  0  0  0  0
   17.1700  -11.3293  -19.8856 S   0  0  0  0  0  0  0  0  0  0  0  0
   19.6380  -10.8047  -16.6943 C   0  0  0  0  0  0  0  0  0  0  0  0
   19.1066  -10.4333  -15.6259 O   0  0  0  0  0  0  0  0  0  0  0  0
   24.1054   -9.5761  -14.8272 C   0  0  0  0  0  0  0  0  0  0  0  0
   23.2709  -10.4105  -15.7830 C   0  0  1  0  0  0  0  0  0  0  0  0
   23.4296  -11.8811  -15.5313 C   0  0  0  0  0  0  0  0  0  0  0  0
   21.8305   -9.9749  -15.8010 C   0  0  2  0  0  0  0  0  0  0  0  0
   21.0269  -10.5396  -16.8133 N   0  0  0  0  0  0  0  0  0  0  0  0
   21.8615   -8.4974  -15.9915 C   0  0  0  0  0  0  0  0  0  0  0  0
   22.1758   -8.0783  -17.1495 O   0  0  0  0  0  0  0  0  0  0  0  0
   17.5470   -4.7975  -17.1980 C   0  0  0  0  0  0  0  0  0  0  0  0
   18.8174   -3.5372  -16.7853 S   0  0  0  0  0  0  0  0  0  0  0  0
   20.2206   -4.1954  -15.9856 C   0  0  0  0  0  0  0  0  0  0  0  0
   20.4187   -5.6046  -15.7202 C   0  0  0  0  0  0  0  0  0  0  0  0
   21.6626   -6.1700  -15.1858 C   0  0  2  0  0  0  0  0  0  0  0  0
   21.5569   -7.6032  -14.9410 N   0  0  0  0  0  0  0  0  0  0  0  0
   22.2024   -5.5036  -14.0077 C   0  0  0  0  0  0  0  0  0  0  0  0
   22.0248   -6.1809  -12.8932 O   0  0  0  0  0  0  0  0  0  0  0  0
   22.8421   -4.3275  -13.8329 O   0  0  0  0  0  0  0  0  0  0  0  0
  2  1  1  1
  2  5  1  0
  3  2  1  0
  4  3  1  0
  5 11  1  0
  5  6  2  0
  8  7  1  1
  8 10  1  0
  8  9  1  0
 10 12  1  0
 10 11  1  6
 12 13  2  0
 14 15  1  0
 15 16  1  0
 16 17  1  0
 18 17  1  1
 18 20  1  0
 19 12  1  0
 19 18  1  0
 20 22  1  0
 21 20  2  0
M  END
$$$$
