CVM.pdb
     RDKit          3D

 22 21  0  0  1  0  0  0  0  0999 V2000
   15.0892  -18.4623    3.0539 N   0  0  0  0  0  0  0  0  0  0  0  0
   16.1848  -19.1528    3.7133 C   0  0  1  0  0  0  0  0  0  0  0  0
   17.3934  -19.2206    2.7991 C   0  0  0  0  0  0  0  0  0  0  0  0
   16.9760  -20.2358    1.3545 S   0  0  0  0  0  0  0  0  0  0  0  0
   16.5116  -18.4823    4.9975 C   0  0  0  0  0  0  0  0  0  0  0  0
   16.3700  -17.2463    5.1156 O   0  0  0  0  0  0  0  0  0  0  0  0
   16.6437  -20.7034    8.5777 C   0  0  0  0  0  0  0  0  0  0  0  0
   16.4849  -19.1931    8.5694 C   0  0  1  0  0  0  0  0  0  0  0  0
   16.8583  -18.5811    9.8873 C   0  0  0  0  0  0  0  0  0  0  0  0
   17.2012  -18.5575    7.4084 C   0  0  2  0  0  0  0  0  0  0  0  0
   16.9913  -19.1579    6.1495 N   0  0  0  0  0  0  0  0  0  0  0  0
   18.6519  -18.6440    7.7372 C   0  0  0  0  0  0  0  0  0  0  0  0
   19.2222  -19.7572    7.5118 O   0  0  0  0  0  0  0  0  0  0  0  0
   22.7830  -13.3721    9.0016 C   0  0  0  0  0  0  0  0  0  0  0  0
   23.5812  -14.8319    9.7790 S   0  0  0  0  0  0  0  0  0  0  0  0
   22.7908  -16.3413    9.4066 C   0  0  0  0  0  0  0  0  0  0  0  0
   21.4127  -16.4532    8.9781 C   0  0  0  0  0  0  0  0  0  0  0  0
   20.7670  -17.7212    8.6206 C   0  0  2  0  0  0  0  0  0  0  0  0
   19.3623  -17.5462    8.2721 N   0  0  0  0  0  0  0  0  0  0  0  0
   20.9066  -18.7958    9.5949 C   0  0  0  0  0  0  0  0  0  0  0  0
   21.6990  -19.7678    9.1953 O   0  0  0  0  0  0  0  0  0  0  0  0
   20.3796  -18.9940   10.8221 O   0  0  0  0  0  0  0  0  0  0  0  0
  2  1  1  6
  2  5  1  0
  3  2  1  0
  4  3  1  0
  5 11  1  0
  5  6  2  0
  8  7  1  1
  8 10  1  0
  8  9  1  0
 10 12  1  0
 10 11  1  6
 12 13  2  0
 14 15  1  0
 15 16  1  0
 16 17  1  0
 18 17  1  1
 18 20  1  0
 19 12  1  0
 19 18  1  0
 20 22  1  0
 21 20  2  0
M  END
$$$$
