CVM.pdb
     RDKit          3D

 22 21  0  0  1  0  0  0  0  0999 V2000
   27.7852  -20.5426  -16.8457 N   0  0  0  0  0  0  0  0  0  0  0  0
   27.5321  -21.4026  -15.7019 C   0  0  1  0  0  0  0  0  0  0  0  0
   28.8122  -22.0876  -15.2623 C   0  0  0  0  0  0  0  0  0  0  0  0
   29.3156  -23.2642  -16.5482 S   0  0  0  0  0  0  0  0  0  0  0  0
   26.9287  -20.6166  -14.5959 C   0  0  0  0  0  0  0  0  0  0  0  0
   27.1939  -19.4020  -14.4698 O   0  0  0  0  0  0  0  0  0  0  0  0
   23.4487  -19.5335  -14.0380 C   0  0  0  0  0  0  0  0  0  0  0  0
   23.8572  -20.3277  -12.8098 C   0  0  1  0  0  0  0  0  0  0  0  0
   23.2050  -21.6783  -12.7708 C   0  0  0  0  0  0  0  0  0  0  0  0
   25.3526  -20.3986  -12.6562 C   0  0  2  0  0  0  0  0  0  0  0  0
   26.0386  -21.1539  -13.6301 N   0  0  0  0  0  0  0  0  0  0  0  0
   25.5891  -21.0206  -11.3230 C   0  0  0  0  0  0  0  0  0  0  0  0
   25.6154  -22.2906  -11.2830 O   0  0  0  0  0  0  0  0  0  0  0  0
   28.4907  -18.0017   -6.0727 C   0  0  0  0  0  0  0  0  0  0  0  0
   28.0793  -19.6932   -5.4878 S   0  0  0  0  0  0  0  0  0  0  0  0
   27.0881  -20.5963   -6.6030 C   0  0  0  0  0  0  0  0  0  0  0  0
   26.7983  -20.1757   -7.9574 C   0  0  0  0  0  0  0  0  0  0  0  0
   25.9317  -20.9200   -8.8780 C   0  0  2  0  0  0  0  0  0  0  0  0
   25.7761  -20.2419  -10.1591 N   0  0  0  0  0  0  0  0  0  0  0  0
   24.6249  -21.2918   -8.3511 C   0  0  0  0  0  0  0  0  0  0  0  0
   23.6334  -20.5957   -8.8656 O   0  0  0  0  0  0  0  0  0  0  0  0
   24.2317  -22.2036   -7.4362 O   0  0  0  0  0  0  0  0  0  0  0  0
  2  1  1  6
  2  5  1  0
  3  2  1  0
  4  3  1  0
  5 11  1  0
  5  6  2  0
  8  7  1  6
  8 10  1  0
  8  9  1  0
 10 12  1  0
 10 11  1  6
 12 13  2  0
 14 15  1  0
 15 16  1  0
 16 17  1  0
 18 17  1  1
 18 20  1  0
 19 12  1  0
 19 18  1  0
 20 22  1  0
 21 20  2  0
M  END
$$$$
