CVM.pdb
     RDKit          3D

 22 21  0  0  1  0  0  0  0  0999 V2000
   27.8206  -20.7023  -18.9577 N   0  0  0  0  0  0  0  0  0  0  0  0
   26.4185  -21.0166  -18.7401 C   0  0  1  0  0  0  0  0  0  0  0  0
   26.2555  -22.4797  -18.3746 C   0  0  0  0  0  0  0  0  0  0  0  0
   27.1007  -22.7851  -16.7985 S   0  0  0  0  0  0  0  0  0  0  0  0
   25.8528  -20.1284  -17.6930 C   0  0  0  0  0  0  0  0  0  0  0  0
   26.6111  -19.5109  -16.9150 O   0  0  0  0  0  0  0  0  0  0  0  0
   23.1701  -17.4458  -18.3107 C   0  0  0  0  0  0  0  0  0  0  0  0
   22.8075  -18.1435  -17.0115 C   0  0  1  0  0  0  0  0  0  0  0  0
   21.4821  -18.8411  -17.0987 C   0  0  0  0  0  0  0  0  0  0  0  0
   23.9106  -19.0470  -16.5302 C   0  0  2  0  0  0  0  0  0  0  0  0
   24.4641  -19.9143  -17.4951 N   0  0  0  0  0  0  0  0  0  0  0  0
   23.3082  -19.8708  -15.4445 C   0  0  0  0  0  0  0  0  0  0  0  0
   22.7565  -20.9608  -15.7952 O   0  0  0  0  0  0  0  0  0  0  0  0
   25.8502  -20.2742   -9.3651 C   0  0  0  0  0  0  0  0  0  0  0  0
   24.1674  -20.9764   -9.1464 S   0  0  0  0  0  0  0  0  0  0  0  0
   23.2229  -20.9966  -10.6124 C   0  0  0  0  0  0  0  0  0  0  0  0
   23.6098  -20.3305  -11.8380 C   0  0  0  0  0  0  0  0  0  0  0  0
   22.8194  -20.3658  -13.0736 C   0  0  2  0  0  0  0  0  0  0  0  0
   23.3465  -19.4654  -14.0917 N   0  0  0  0  0  0  0  0  0  0  0  0
   21.3876  -20.1484  -12.9118 C   0  0  0  0  0  0  0  0  0  0  0  0
   21.0046  -18.9252  -13.2108 O   0  0  0  0  0  0  0  0  0  0  0  0
   20.3787  -20.9510  -12.5103 O   0  0  0  0  0  0  0  0  0  0  0  0
  2  1  1  1
  2  5  1  0
  3  2  1  0
  4  3  1  0
  5 11  1  0
  5  6  2  0
  8  7  1  6
  8 10  1  0
  8  9  1  0
 10 12  1  0
 10 11  1  6
 12 13  2  0
 14 15  1  0
 15 16  1  0
 16 17  1  0
 18 17  1  1
 18 20  1  0
 19 12  1  0
 19 18  1  0
 20 22  1  0
 21 20  2  0
M  END
$$$$
