YNM.pdb
     RDKit          3D

 29 29  0  0  1  0  0  0  0  0999 V2000
   16.7529  -18.1322  -16.1420 O   0  0  0  0  0  0  0  0  0  0  0  0
   17.3873  -16.8950  -16.0225 C   0  0  0  0  0  0  0  0  0  0  0  0
   18.4167  -16.5389  -16.8877 C   0  0  0  0  0  0  0  0  0  0  0  0
   19.0568  -15.3218  -16.7873 C   0  0  0  0  0  0  0  0  0  0  0  0
   18.6416  -14.4612  -15.7943 C   0  0  0  0  0  0  0  0  0  0  0  0
   19.2929  -13.1357  -15.6360 C   0  0  0  0  0  0  0  0  0  0  0  0
   18.4574  -12.0272  -16.2453 C   0  0  2  0  0  0  0  0  0  0  0  0
   18.3586  -12.2070  -17.6791 N   0  0  0  0  0  0  0  0  0  0  0  0
   19.0992  -10.7425  -15.9551 C   0  0  0  0  0  0  0  0  0  0  0  0
   19.1873  -10.3536  -14.7648 O   0  0  0  0  0  0  0  0  0  0  0  0
   17.6182  -14.7942  -14.9209 C   0  0  0  0  0  0  0  0  0  0  0  0
   16.9748  -16.0261  -15.0274 C   0  0  0  0  0  0  0  0  0  0  0  0
   22.9097   -6.9302  -16.1904 N   0  0  0  0  0  0  0  0  0  0  0  0
   21.8404   -6.9618  -17.1201 C   0  0  0  0  0  0  0  0  0  0  0  0
   21.4368   -5.8365  -17.5258 O   0  0  0  0  0  0  0  0  0  0  0  0
   21.3063   -8.2636  -17.5226 C   0  0  0  0  0  0  0  0  0  0  0  0
   20.1370   -8.6220  -16.6324 C   0  0  2  0  0  0  0  0  0  0  0  0
   19.6381   -9.9027  -17.0003 N   0  0  0  0  0  0  0  0  0  0  0  0
   19.1328   -7.5382  -16.8176 C   0  0  0  0  0  0  0  0  0  0  0  0
   18.3493   -7.5826  -17.8020 O   0  0  0  0  0  0  0  0  0  0  0  0
   12.8759   -3.6152  -15.1800 C   0  0  0  0  0  0  0  0  0  0  0  0
   14.0794   -4.9411  -15.1120 S   0  0  0  0  0  0  0  0  0  0  0  0
   15.7280   -4.5410  -15.6326 C   0  0  0  0  0  0  0  0  0  0  0  0
   16.7705   -5.5746  -15.5997 C   0  0  0  0  0  0  0  0  0  0  0  0
   18.1300   -5.3402  -16.0748 C   0  0  2  0  0  0  0  0  0  0  0  0
   19.0400   -6.4515  -15.9035 N   0  0  0  0  0  0  0  0  0  0  0  0
   18.6744   -4.0368  -15.6468 C   0  0  0  0  0  0  0  0  0  0  0  0
   19.2148   -3.9130  -14.5251 O   0  0  0  0  0  0  0  0  0  0  0  0
   18.6012   -2.9179  -16.4619 O   0  0  0  0  0  0  0  0  0  0  0  0
  2  1  1  0
  3  2  2  0
  4  3  1  0
  5 11  1  0
  5  4  2  0
  6  5  1  0
  7  6  1  0
  7  8  1  6
  9  7  1  0
 10  9  2  0
 11 12  2  0
 12  2  1  0
 13 14  1  0
 14 15  2  0
 16 14  1  0
 17 16  1  6
 17 18  1  0
 18  9  1  0
 19 17  1  0
 19 26  1  0
 20 19  2  0
 22 21  1  0
 23 24  1  0
 23 22  1  0
 25 24  1  1
 25 26  1  0
 25 27  1  0
 27 28  2  0
 27 29  1  0
M  END
$$$$
