YNM.pdb
     RDKit          3D

 29 29  0  0  1  0  0  0  0  0999 V2000
   20.1930  -20.1978  -18.8937 O   0  0  0  0  0  0  0  0  0  0  0  0
   20.4404  -18.8293  -18.7780 C   0  0  0  0  0  0  0  0  0  0  0  0
   21.6721  -18.2973  -19.1450 C   0  0  0  0  0  0  0  0  0  0  0  0
   21.9375  -16.9484  -19.0388 C   0  0  0  0  0  0  0  0  0  0  0  0
   20.9357  -16.1362  -18.5534 C   0  0  0  0  0  0  0  0  0  0  0  0
   21.1617  -14.6746  -18.4158 C   0  0  0  0  0  0  0  0  0  0  0  0
   20.5298  -13.9025  -19.5570 C   0  0  2  0  0  0  0  0  0  0  0  0
   21.1998  -14.2148  -20.8026 N   0  0  0  0  0  0  0  0  0  0  0  0
   20.6539  -12.4693  -19.2791 C   0  0  0  0  0  0  0  0  0  0  0  0
   21.6909  -11.8603  -19.6390 O   0  0  0  0  0  0  0  0  0  0  0  0
   19.7006  -16.6436  -18.1815 C   0  0  0  0  0  0  0  0  0  0  0  0
   19.4383  -18.0081  -18.2912 C   0  0  0  0  0  0  0  0  0  0  0  0
   19.9283   -7.6884  -18.2907 N   0  0  0  0  0  0  0  0  0  0  0  0
   18.6474   -8.2387  -18.0350 C   0  0  0  0  0  0  0  0  0  0  0  0
   17.7144   -7.4018  -17.8836 O   0  0  0  0  0  0  0  0  0  0  0  0
   18.5160   -9.6948  -17.9694 C   0  0  0  0  0  0  0  0  0  0  0  0
   19.8181  -10.3349  -18.3972 C   0  0  2  0  0  0  0  0  0  0  0  0
   19.6155  -11.7285  -18.6003 N   0  0  0  0  0  0  0  0  0  0  0  0
   20.7935  -10.0476  -17.3093 C   0  0  0  0  0  0  0  0  0  0  0  0
   21.3380  -11.0042  -16.6983 O   0  0  0  0  0  0  0  0  0  0  0  0
   26.3188  -11.2723  -14.6571 C   0  0  0  0  0  0  0  0  0  0  0  0
   26.0936   -9.8271  -15.6925 S   0  0  0  0  0  0  0  0  0  0  0  0
   24.6297   -8.8666  -15.4032 C   0  0  0  0  0  0  0  0  0  0  0  0
   23.4291   -9.1118  -16.2123 C   0  0  0  0  0  0  0  0  0  0  0  0
   22.1838   -8.3761  -16.0202 C   0  0  2  0  0  0  0  0  0  0  0  0
   21.1237   -8.7121  -16.9452 N   0  0  0  0  0  0  0  0  0  0  0  0
   22.3923   -6.9268  -15.8345 C   0  0  0  0  0  0  0  0  0  0  0  0
   23.1626   -6.5064  -14.9424 O   0  0  0  0  0  0  0  0  0  0  0  0
   21.7452   -5.9938  -16.6295 O   0  0  0  0  0  0  0  0  0  0  0  0
  2  1  1  0
  3  2  2  0
  4  3  1  0
  5 11  1  0
  5  4  2  0
  6  5  1  0
  7  6  1  0
  7  8  1  6
  9  7  1  0
 10  9  2  0
 11 12  2  0
 12  2  1  0
 13 14  1  0
 14 15  2  0
 16 14  1  0
 17 16  1  1
 17 18  1  0
 18  9  1  0
 19 17  1  0
 19 26  1  0
 20 19  2  0
 22 21  1  0
 23 24  1  0
 23 22  1  0
 25 24  1  6
 25 26  1  0
 25 27  1  0
 27 28  2  0
 27 29  1  0
M  END
$$$$
