YNM.pdb
     RDKit          3D

 29 29  0  0  1  0  0  0  0  0999 V2000
   18.7007   -7.4234  -18.5619 O   0  0  0  0  0  0  0  0  0  0  0  0
   19.0798   -8.7554  -18.3894 C   0  0  0  0  0  0  0  0  0  0  0  0
   20.4220   -9.1021  -18.2759 C   0  0  0  0  0  0  0  0  0  0  0  0
   20.8183  -10.4117  -18.1049 C   0  0  0  0  0  0  0  0  0  0  0  0
   19.8346  -11.3751  -18.0493 C   0  0  0  0  0  0  0  0  0  0  0  0
   20.1992  -12.8033  -17.8667 C   0  0  0  0  0  0  0  0  0  0  0  0
   20.7453  -13.4076  -19.1452 C   0  0  2  0  0  0  0  0  0  0  0  0
   19.7226  -13.4144  -20.1709 N   0  0  0  0  0  0  0  0  0  0  0  0
   21.1727  -14.7816  -18.8694 C   0  0  0  0  0  0  0  0  0  0  0  0
   20.3509  -15.7208  -19.0059 O   0  0  0  0  0  0  0  0  0  0  0  0
   18.4910  -11.0534  -18.1599 C   0  0  0  0  0  0  0  0  0  0  0  0
   18.0965   -9.7277  -18.3327 C   0  0  0  0  0  0  0  0  0  0  0  0
   23.5429  -18.9755  -17.8078 N   0  0  0  0  0  0  0  0  0  0  0  0
   24.6154  -18.0743  -18.0230 C   0  0  0  0  0  0  0  0  0  0  0  0
   25.7595  -18.5999  -18.1153 O   0  0  0  0  0  0  0  0  0  0  0  0
   24.3150  -16.6451  -18.1180 C   0  0  0  0  0  0  0  0  0  0  0  0
   22.8152  -16.4478  -18.1225 C   0  0  2  0  0  0  0  0  0  0  0  0
   22.5175  -15.0939  -18.4430 N   0  0  0  0  0  0  0  0  0  0  0  0
   22.3464  -16.8340  -16.7629 C   0  0  0  0  0  0  0  0  0  0  0  0
   22.3781  -15.9853  -15.8335 O   0  0  0  0  0  0  0  0  0  0  0  0
   17.6399  -17.4456  -11.5328 C   0  0  0  0  0  0  0  0  0  0  0  0
   19.0014  -17.2065  -12.6731 S   0  0  0  0  0  0  0  0  0  0  0  0
   18.7108  -17.6705  -14.3611 C   0  0  0  0  0  0  0  0  0  0  0  0
   19.7844  -17.5175  -15.3510 C   0  0  0  0  0  0  0  0  0  0  0  0
   20.9091  -18.4422  -15.4451 C   0  0  2  0  0  0  0  0  0  0  0  0
   21.8624  -18.1443  -16.4916 N   0  0  0  0  0  0  0  0  0  0  0  0
   20.4989  -19.8585  -15.3812 C   0  0  0  0  0  0  0  0  0  0  0  0
   20.1490  -20.4646  -16.4185 O   0  0  0  0  0  0  0  0  0  0  0  0
   20.4826  -20.5549  -14.1827 O   0  0  0  0  0  0  0  0  0  0  0  0
  2  1  1  0
  3  2  2  0
  4  3  1  0
  5 11  1  0
  5  4  2  0
  6  5  1  0
  7  6  1  0
  7  8  1  6
  9  7  1  0
 10  9  2  0
 11 12  2  0
 12  2  1  0
 13 14  1  0
 14 15  2  0
 16 14  1  0
 17 16  1  1
 17 18  1  0
 18  9  1  0
 19 17  1  0
 19 26  1  0
 20 19  2  0
 22 21  1  0
 23 24  1  0
 23 22  1  0
 25 24  1  6
 25 26  1  0
 25 27  1  0
 27 28  2  0
 27 29  1  0
M  END
$$$$
