YNM.pdb
     RDKit          3D

 29 29  0  0  1  0  0  0  0  0999 V2000
   19.7845  -23.7008   -6.6590 O   0  0  0  0  0  0  0  0  0  0  0  0
   20.2123  -22.8945   -7.7147 C   0  0  0  0  0  0  0  0  0  0  0  0
   19.8733  -23.2053   -9.0274 C   0  0  0  0  0  0  0  0  0  0  0  0
   20.2853  -22.4224  -10.0850 C   0  0  0  0  0  0  0  0  0  0  0  0
   21.0503  -21.3125   -9.7987 C   0  0  0  0  0  0  0  0  0  0  0  0
   21.5243  -20.4304  -10.8958 C   0  0  0  0  0  0  0  0  0  0  0  0
   22.7231  -21.0231  -11.6097 C   0  0  2  0  0  0  0  0  0  0  0  0
   23.8927  -20.9605  -10.7577 N   0  0  0  0  0  0  0  0  0  0  0  0
   22.9664  -20.2559  -12.8340 C   0  0  0  0  0  0  0  0  0  0  0  0
   23.6646  -19.2142  -12.7789 O   0  0  0  0  0  0  0  0  0  0  0  0
   21.4004  -20.9830   -8.4988 C   0  0  0  0  0  0  0  0  0  0  0  0
   20.9808  -21.7783   -7.4337 C   0  0  0  0  0  0  0  0  0  0  0  0
   25.2306  -19.7370  -17.6378 N   0  0  0  0  0  0  0  0  0  0  0  0
   23.8418  -19.9188  -17.4203 C   0  0  0  0  0  0  0  0  0  0  0  0
   23.0802  -19.3346  -18.2403 O   0  0  0  0  0  0  0  0  0  0  0  0
   23.4169  -20.7478  -16.2915 C   0  0  0  0  0  0  0  0  0  0  0  0
   22.7524  -19.8741  -15.2507 C   0  0  2  0  0  0  0  0  0  0  0  0
   22.4260  -20.6613  -14.1114 N   0  0  0  0  0  0  0  0  0  0  0  0
   21.5516  -19.2907  -15.9105 C   0  0  0  0  0  0  0  0  0  0  0  0
   20.5384  -20.0132  -16.1012 O   0  0  0  0  0  0  0  0  0  0  0  0
   16.2771  -13.5801  -16.5979 C   0  0  0  0  0  0  0  0  0  0  0  0
   17.7449  -14.3242  -15.8885 S   0  0  0  0  0  0  0  0  0  0  0  0
   18.5272  -15.5983  -16.8445 C   0  0  0  0  0  0  0  0  0  0  0  0
   19.6683  -16.3311  -16.2813 C   0  0  0  0  0  0  0  0  0  0  0  0
   20.4113  -17.3353  -17.0352 C   0  0  2  0  0  0  0  0  0  0  0  0
   21.5252  -17.9314  -16.3306 N   0  0  0  0  0  0  0  0  0  0  0  0
   20.7213  -16.9097  -18.4140 C   0  0  0  0  0  0  0  0  0  0  0  0
   19.8230  -16.8776  -19.2845 O   0  0  0  0  0  0  0  0  0  0  0  0
   22.0042  -16.5408  -18.7875 O   0  0  0  0  0  0  0  0  0  0  0  0
  2  1  1  0
  3  2  2  0
  4  3  1  0
  5 11  1  0
  5  4  2  0
  6  5  1  0
  7  6  1  0
  7  8  1  1
  9  7  1  0
 10  9  2  0
 11 12  2  0
 12  2  1  0
 13 14  1  0
 14 15  2  0
 16 14  1  0
 17 16  1  6
 17 18  1  0
 18  9  1  0
 19 17  1  0
 19 26  1  0
 20 19  2  0
 22 21  1  0
 23 24  1  0
 23 22  1  0
 25 24  1  1
 25 26  1  0
 25 27  1  0
 27 28  2  0
 27 29  1  0
M  END
$$$$
