YNM.pdb
     RDKit          3D

 29 29  0  0  1  0  0  0  0  0999 V2000
   28.8622  -19.8940   -5.2715 O   0  0  0  0  0  0  0  0  0  0  0  0
   28.3988  -19.9568   -6.5863 C   0  0  0  0  0  0  0  0  0  0  0  0
   27.0586  -19.7255   -6.8781 C   0  0  0  0  0  0  0  0  0  0  0  0
   26.5799  -19.7825   -8.1699 C   0  0  0  0  0  0  0  0  0  0  0  0
   27.4782  -20.0784   -9.1721 C   0  0  0  0  0  0  0  0  0  0  0  0
   27.0223  -20.1542  -10.5837 C   0  0  0  0  0  0  0  0  0  0  0  0
   26.1373  -21.3619  -10.8201 C   0  0  2  0  0  0  0  0  0  0  0  0
   26.9490  -22.5299  -11.0941 N   0  0  0  0  0  0  0  0  0  0  0  0
   25.2675  -21.0889  -11.9670 C   0  0  0  0  0  0  0  0  0  0  0  0
   25.6370  -21.4350  -13.1157 O   0  0  0  0  0  0  0  0  0  0  0  0
   28.8181  -20.3125   -8.9054 C   0  0  0  0  0  0  0  0  0  0  0  0
   29.2961  -20.2535   -7.5974 C   0  0  0  0  0  0  0  0  0  0  0  0
   21.5071  -20.0747  -15.0265 N   0  0  0  0  0  0  0  0  0  0  0  0
   20.9307  -19.8401  -13.7531 C   0  0  0  0  0  0  0  0  0  0  0  0
   19.6760  -19.7012  -13.7394 O   0  0  0  0  0  0  0  0  0  0  0  0
   21.8158  -19.7799  -12.5890 C   0  0  0  0  0  0  0  0  0  0  0  0
   23.1992  -20.2444  -12.9873 C   0  0  2  0  0  0  0  0  0  0  0  0
   23.9899  -20.4302  -11.8191 N   0  0  0  0  0  0  0  0  0  0  0  0
   23.7423  -19.1906  -13.8884 C   0  0  0  0  0  0  0  0  0  0  0  0
   24.5163  -18.3151  -13.4201 O   0  0  0  0  0  0  0  0  0  0  0  0
   28.5892  -20.4096  -15.0259 C   0  0  0  0  0  0  0  0  0  0  0  0
   28.2629  -18.6548  -15.1860 S   0  0  0  0  0  0  0  0  0  0  0  0
   26.5570  -18.1697  -15.2490 C   0  0  0  0  0  0  0  0  0  0  0  0
   25.6502  -18.8269  -16.1987 C   0  0  0  0  0  0  0  0  0  0  0  0
   24.2268  -18.5157  -16.2756 C   0  0  2  0  0  0  0  0  0  0  0  0
   23.4044  -19.1524  -15.2702 N   0  0  0  0  0  0  0  0  0  0  0  0
   23.6894  -18.6057  -17.6472 C   0  0  0  0  0  0  0  0  0  0  0  0
   22.6992  -19.3298  -17.8939 O   0  0  0  0  0  0  0  0  0  0  0  0
   24.2606  -17.9032  -18.6969 O   0  0  0  0  0  0  0  0  0  0  0  0
  2  1  1  0
  3  2  2  0
  4  3  1  0
  5 11  1  0
  5  4  2  0
  6  5  1  0
  7  6  1  0
  7  8  1  6
  9  7  1  0
 10  9  2  0
 11 12  2  0
 12  2  1  0
 13 14  1  0
 14 15  2  0
 16 14  1  0
 17 16  1  1
 17 18  1  0
 18  9  1  0
 19 17  1  0
 19 26  1  0
 20 19  2  0
 22 21  1  0
 23 24  1  0
 23 22  1  0
 25 24  1  6
 25 26  1  0
 25 27  1  0
 27 28  2  0
 27 29  1  0
M  END
$$$$
