YNM.pdb
     RDKit          3D

 29 29  0  0  1  0  0  0  0  0999 V2000
   20.3107  -18.9089  -19.9686 O   0  0  0  0  0  0  0  0  0  0  0  0
   20.5309  -17.5458  -19.7659 C   0  0  0  0  0  0  0  0  0  0  0  0
   19.6026  -16.6050  -20.1994 C   0  0  0  0  0  0  0  0  0  0  0  0
   19.8003  -15.2537  -20.0094 C   0  0  0  0  0  0  0  0  0  0  0  0
   20.9564  -14.8605  -19.3708 C   0  0  0  0  0  0  0  0  0  0  0  0
   21.2257  -13.4185  -19.1373 C   0  0  0  0  0  0  0  0  0  0  0  0
   21.6385  -12.7140  -20.4144 C   0  0  2  0  0  0  0  0  0  0  0  0
   22.9051  -13.2355  -20.8853 N   0  0  0  0  0  0  0  0  0  0  0  0
   21.7700  -11.2812  -20.1383 C   0  0  0  0  0  0  0  0  0  0  0  0
   22.8847  -10.8216  -19.7890 O   0  0  0  0  0  0  0  0  0  0  0  0
   21.8955  -15.7797  -18.9301 C   0  0  0  0  0  0  0  0  0  0  0  0
   21.6901  -17.1444  -19.1251 C   0  0  0  0  0  0  0  0  0  0  0  0
   17.5734   -7.6158  -20.0688 N   0  0  0  0  0  0  0  0  0  0  0  0
   18.5355   -8.5849  -20.4487 C   0  0  0  0  0  0  0  0  0  0  0  0
   18.1115   -9.7710  -20.5321 O   0  0  0  0  0  0  0  0  0  0  0  0
   19.9061   -8.1410  -20.7061 C   0  0  0  0  0  0  0  0  0  0  0  0
   20.8683   -9.0068  -19.9233 C   0  0  2  0  0  0  0  0  0  0  0  0
   20.6520  -10.3733  -20.2556 N   0  0  0  0  0  0  0  0  0  0  0  0
   20.6067   -8.7155  -18.4866 C   0  0  0  0  0  0  0  0  0  0  0  0
   19.9295   -9.5282  -17.8040 O   0  0  0  0  0  0  0  0  0  0  0  0
   22.2154   -9.6679  -11.4830 C   0  0  0  0  0  0  0  0  0  0  0  0
   22.2641   -9.7809  -13.2707 S   0  0  0  0  0  0  0  0  0  0  0  0
   21.6798   -8.3665  -14.1693 C   0  0  0  0  0  0  0  0  0  0  0  0
   21.6075   -8.4170  -15.6350 C   0  0  0  0  0  0  0  0  0  0  0  0
   21.0884   -7.3151  -16.4383 C   0  0  2  0  0  0  0  0  0  0  0  0
   21.1072   -7.5359  -17.8678 N   0  0  0  0  0  0  0  0  0  0  0  0
   21.6098   -5.9995  -16.0191 C   0  0  0  0  0  0  0  0  0  0  0  0
   22.4271   -5.3830  -16.7387 O   0  0  0  0  0  0  0  0  0  0  0  0
   21.2200   -5.4122  -14.8256 O   0  0  0  0  0  0  0  0  0  0  0  0
  2  1  1  0
  3  2  2  0
  4  3  1  0
  5 11  1  0
  5  4  2  0
  6  5  1  0
  7  6  1  0
  7  8  1  1
  9  7  1  0
 10  9  2  0
 11 12  2  0
 12  2  1  0
 13 14  1  0
 14 15  2  0
 16 14  1  0
 17 16  1  6
 17 18  1  0
 18  9  1  0
 19 17  1  0
 19 26  1  0
 20 19  2  0
 22 21  1  0
 23 24  1  0
 23 22  1  0
 25 24  1  1
 25 26  1  0
 25 27  1  0
 27 28  2  0
 27 29  1  0
M  END
$$$$
