YNM.pdb
     RDKit          3D

 29 29  0  0  1  0  0  0  0  0999 V2000
   25.2524  -22.6602  -21.9544 O   0  0  0  0  0  0  0  0  0  0  0  0
   24.7053  -23.3657  -20.8817 C   0  0  0  0  0  0  0  0  0  0  0  0
   25.1038  -24.6712  -20.6139 C   0  0  0  0  0  0  0  0  0  0  0  0
   24.5762  -25.3860  -19.5594 C   0  0  0  0  0  0  0  0  0  0  0  0
   23.6334  -24.7615  -18.7720 C   0  0  0  0  0  0  0  0  0  0  0  0
   23.0285  -25.4803  -17.6214 C   0  0  0  0  0  0  0  0  0  0  0  0
   23.6085  -25.0097  -16.3023 C   0  0  2  0  0  0  0  0  0  0  0  0
   24.9973  -25.4071  -16.1973 N   0  0  0  0  0  0  0  0  0  0  0  0
   22.8413  -25.6143  -15.2103 C   0  0  0  0  0  0  0  0  0  0  0  0
   23.3000  -26.6235  -14.6211 O   0  0  0  0  0  0  0  0  0  0  0  0
   23.2210  -23.4616  -19.0195 C   0  0  0  0  0  0  0  0  0  0  0  0
   23.7580  -22.7440  -20.0870 C   0  0  0  0  0  0  0  0  0  0  0  0
   20.4735  -25.7863  -10.8015 N   0  0  0  0  0  0  0  0  0  0  0  0
   19.5745  -25.1567  -11.6983 C   0  0  0  0  0  0  0  0  0  0  0  0
   18.3674  -25.1275  -11.3299 O   0  0  0  0  0  0  0  0  0  0  0  0
   20.1069  -24.6067  -12.9457 C   0  0  0  0  0  0  0  0  0  0  0  0
   20.9632  -25.6504  -13.6280 C   0  0  2  0  0  0  0  0  0  0  0  0
   21.5658  -25.0841  -14.7858 N   0  0  0  0  0  0  0  0  0  0  0  0
   20.0516  -26.7832  -13.9492 C   0  0  0  0  0  0  0  0  0  0  0  0
   19.2151  -26.6586  -14.8818 O   0  0  0  0  0  0  0  0  0  0  0  0
   23.0946  -31.9870  -15.9100 C   0  0  0  0  0  0  0  0  0  0  0  0
   21.4220  -31.7058  -15.3316 S   0  0  0  0  0  0  0  0  0  0  0  0
   21.2487  -30.7562  -13.8425 C   0  0  0  0  0  0  0  0  0  0  0  0
   19.9075  -30.4472  -13.3307 C   0  0  0  0  0  0  0  0  0  0  0  0
   19.2703  -29.1483  -13.5199 C   0  0  2  0  0  0  0  0  0  0  0  0
   20.1062  -28.0057  -13.2230 N   0  0  0  0  0  0  0  0  0  0  0  0
   17.9162  -29.0793  -12.9368 C   0  0  0  0  0  0  0  0  0  0  0  0
   17.6279  -28.1877  -12.1075 O   0  0  0  0  0  0  0  0  0  0  0  0
   16.9316  -29.9925  -13.2805 O   0  0  0  0  0  0  0  0  0  0  0  0
  2  1  1  0
  3  2  2  0
  4  3  1  0
  5 11  1  0
  5  4  2  0
  6  5  1  0
  7  6  1  0
  7  8  1  1
  9  7  1  0
 10  9  2  0
 11 12  2  0
 12  2  1  0
 13 14  1  0
 14 15  2  0
 16 14  1  0
 17 16  1  6
 17 18  1  0
 18  9  1  0
 19 17  1  0
 19 26  1  0
 20 19  2  0
 22 21  1  0
 23 24  1  0
 23 22  1  0
 25 24  1  1
 25 26  1  0
 25 27  1  0
 27 28  2  0
 27 29  1  0
M  END
$$$$
