YNM.pdb
     RDKit          3D

 29 29  0  0  1  0  0  0  0  0999 V2000
   29.2445  -18.5891   -3.2822 O   0  0  0  0  0  0  0  0  0  0  0  0
   28.7475  -19.0573   -4.4994 C   0  0  0  0  0  0  0  0  0  0  0  0
   29.0426  -20.3437   -4.9386 C   0  0  0  0  0  0  0  0  0  0  0  0
   28.5619  -20.8261   -6.1375 C   0  0  0  0  0  0  0  0  0  0  0  0
   27.7729  -19.9869   -6.8940 C   0  0  0  0  0  0  0  0  0  0  0  0
   27.2258  -20.4497   -8.1950 C   0  0  0  0  0  0  0  0  0  0  0  0
   25.7100  -20.4686   -8.1878 C   0  0  2  0  0  0  0  0  0  0  0  0
   25.2273  -21.4384   -7.2262 N   0  0  0  0  0  0  0  0  0  0  0  0
   25.2390  -20.8297   -9.5274 C   0  0  0  0  0  0  0  0  0  0  0  0
   25.6969  -21.8572  -10.0844 O   0  0  0  0  0  0  0  0  0  0  0  0
   27.4656  -18.7014   -6.4768 C   0  0  0  0  0  0  0  0  0  0  0  0
   27.9544  -18.2193   -5.2638 C   0  0  0  0  0  0  0  0  0  0  0  0
   23.0924  -21.2035  -13.9401 N   0  0  0  0  0  0  0  0  0  0  0  0
   22.2924  -20.2049  -13.3303 C   0  0  0  0  0  0  0  0  0  0  0  0
   21.2904  -19.8256  -13.9980 O   0  0  0  0  0  0  0  0  0  0  0  0
   22.6846  -19.7090  -12.0104 C   0  0  0  0  0  0  0  0  0  0  0  0
   23.9664  -20.3879  -11.5809 C   0  0  2  0  0  0  0  0  0  0  0  0
   24.2583  -20.0373  -10.2332 N   0  0  0  0  0  0  0  0  0  0  0  0
   25.0135  -19.9286  -12.5349 C   0  0  0  0  0  0  0  0  0  0  0  0
   25.6913  -18.9032  -12.2627 O   0  0  0  0  0  0  0  0  0  0  0  0
   30.2527  -22.8748  -13.1367 C   0  0  0  0  0  0  0  0  0  0  0  0
   30.4232  -21.4535  -14.2148 S   0  0  0  0  0  0  0  0  0  0  0  0
   28.9227  -20.7849  -14.8860 C   0  0  0  0  0  0  0  0  0  0  0  0
   27.6645  -20.9381  -14.1447 C   0  0  0  0  0  0  0  0  0  0  0  0
   26.4042  -20.3612  -14.6007 C   0  0  2  0  0  0  0  0  0  0  0  0
   25.2649  -20.6258  -13.7497 N   0  0  0  0  0  0  0  0  0  0  0  0
   26.1543  -20.5832  -16.0382 C   0  0  0  0  0  0  0  0  0  0  0  0
   25.6496  -21.6571  -16.4354 O   0  0  0  0  0  0  0  0  0  0  0  0
   26.4716  -19.6226  -16.9859 O   0  0  0  0  0  0  0  0  0  0  0  0
  2  1  1  0
  3  2  2  0
  4  3  1  0
  5 11  1  0
  5  4  2  0
  6  5  1  0
  7  6  1  0
  7  8  1  1
  9  7  1  0
 10  9  2  0
 11 12  2  0
 12  2  1  0
 13 14  1  0
 14 15  2  0
 16 14  1  0
 17 16  1  6
 17 18  1  0
 18  9  1  0
 19 17  1  0
 19 26  1  0
 20 19  2  0
 22 21  1  0
 23 24  1  0
 23 22  1  0
 25 24  1  1
 25 26  1  0
 25 27  1  0
 27 28  2  0
 27 29  1  0
M  END
$$$$
