YNM.pdb
     RDKit          3D

 29 29  0  0  1  0  0  0  0  0999 V2000
   14.6684  -19.6536  -15.3965 O   0  0  0  0  0  0  0  0  0  0  0  0
   15.9494  -20.1178  -15.0943 C   0  0  0  0  0  0  0  0  0  0  0  0
   16.1583  -20.9741  -14.0183 C   0  0  0  0  0  0  0  0  0  0  0  0
   17.4153  -21.4445  -13.7023 C   0  0  0  0  0  0  0  0  0  0  0  0
   18.4678  -21.0363  -14.4926 C   0  0  0  0  0  0  0  0  0  0  0  0
   19.8456  -21.5092  -14.2020 C   0  0  0  0  0  0  0  0  0  0  0  0
   20.4940  -20.6952  -13.0998 C   0  0  2  0  0  0  0  0  0  0  0  0
   20.5723  -19.3020  -13.4881 N   0  0  0  0  0  0  0  0  0  0  0  0
   21.8433  -21.2154  -12.8643 C   0  0  0  0  0  0  0  0  0  0  0  0
   21.9952  -22.4314  -12.5920 O   0  0  0  0  0  0  0  0  0  0  0  0
   18.2839  -20.1837  -15.5698 C   0  0  0  0  0  0  0  0  0  0  0  0
   17.0107  -19.7115  -15.8843 C   0  0  0  0  0  0  0  0  0  0  0  0
   26.5288  -22.3799  -12.6832 N   0  0  0  0  0  0  0  0  0  0  0  0
   26.3476  -21.6046  -13.8558 C   0  0  0  0  0  0  0  0  0  0  0  0
   27.3000  -21.6372  -14.6839 O   0  0  0  0  0  0  0  0  0  0  0  0
   25.1028  -20.8496  -14.0055 C   0  0  0  0  0  0  0  0  0  0  0  0
   24.2846  -20.9771  -12.7397 C   0  0  2  0  0  0  0  0  0  0  0  0
   23.0129  -20.3698  -12.9358 N   0  0  0  0  0  0  0  0  0  0  0  0
   25.0796  -20.3149  -11.6687 C   0  0  0  0  0  0  0  0  0  0  0  0
   25.1950  -19.0613  -11.6695 O   0  0  0  0  0  0  0  0  0  0  0  0
   28.3520  -19.2509   -4.6224 C   0  0  0  0  0  0  0  0  0  0  0  0
   27.1516  -20.0177   -5.7097 S   0  0  0  0  0  0  0  0  0  0  0  0
   27.5435  -20.0262   -7.4405 C   0  0  0  0  0  0  0  0  0  0  0  0
   26.5528  -20.5176   -8.4065 C   0  0  0  0  0  0  0  0  0  0  0  0
   26.8081  -20.5692   -9.8421 C   0  0  2  0  0  0  0  0  0  0  0  0
   25.7125  -21.0708  -10.6425 N   0  0  0  0  0  0  0  0  0  0  0  0
   28.1217  -21.1544  -10.1742 C   0  0  0  0  0  0  0  0  0  0  0  0
   28.2253  -22.3747  -10.4310 O   0  0  0  0  0  0  0  0  0  0  0  0
   29.2720  -20.3816  -10.2071 O   0  0  0  0  0  0  0  0  0  0  0  0
  2  1  1  0
  3  2  2  0
  4  3  1  0
  5 11  1  0
  5  4  2  0
  6  5  1  0
  7  6  1  0
  7  8  1  6
  9  7  1  0
 10  9  2  0
 11 12  2  0
 12  2  1  0
 13 14  1  0
 14 15  2  0
 16 14  1  0
 17 16  1  6
 17 18  1  0
 18  9  1  0
 19 17  1  0
 19 26  1  0
 20 19  2  0
 22 21  1  0
 23 24  1  0
 23 22  1  0
 25 24  1  1
 25 26  1  0
 25 27  1  0
 27 28  2  0
 27 29  1  0
M  END
$$$$
