YMS.pdb
     RDKit          3D

 27 27  0  0  1  0  0  0  0  0999 V2000
   28.6242  -19.1724   -3.6840 O   0  0  0  0  0  0  0  0  0  0  0  0
   28.1965  -19.5559   -4.9335 C   0  0  0  0  0  0  0  0  0  0  0  0
   27.1064  -20.4177   -5.0091 C   0  0  0  0  0  0  0  0  0  0  0  0
   26.6858  -20.7954   -6.2526 C   0  0  0  0  0  0  0  0  0  0  0  0
   27.2671  -20.3811   -7.4340 C   0  0  0  0  0  0  0  0  0  0  0  0
   26.7012  -20.8733   -8.6873 C   0  0  0  0  0  0  0  0  0  0  0  0
   25.7770  -19.8905   -9.3677 C   0  0  2  0  0  0  0  0  0  0  0  0
   24.4772  -19.9792   -8.7199 N   0  0  0  0  0  0  0  0  0  0  0  0
   25.6976  -20.3175  -10.7846 C   0  0  0  0  0  0  0  0  0  0  0  0
   24.7988  -21.1336  -11.0859 O   0  0  0  0  0  0  0  0  0  0  0  0
   28.3460  -19.5277   -7.3465 C   0  0  0  0  0  0  0  0  0  0  0  0
   28.7967  -19.1264   -6.1051 C   0  0  0  0  0  0  0  0  0  0  0  0
   26.6672  -14.9231  -15.2214 C   0  0  0  0  0  0  0  0  0  0  0  0
   27.3699  -16.5732  -15.1840 S   0  0  0  0  0  0  0  0  0  0  0  0
   26.4017  -17.7214  -14.2099 C   0  0  0  0  0  0  0  0  0  0  0  0
   27.0650  -19.0349  -14.0442 C   0  0  0  0  0  0  0  0  0  0  0  0
   26.3530  -20.0541  -13.2010 C   0  0  2  0  0  0  0  0  0  0  0  0
   26.5820  -19.8524  -11.8126 N   0  0  0  0  0  0  0  0  0  0  0  0
   26.6757  -21.4248  -13.6622 C   0  0  0  0  0  0  0  0  0  0  0  0
   27.7863  -21.9800  -13.4606 O   0  0  0  0  0  0  0  0  0  0  0  0
   23.5761  -23.8128  -15.3624 O   0  0  0  0  0  0  0  0  0  0  0  0
   24.6612  -24.3706  -14.7241 C   0  0  0  0  0  0  0  0  0  0  0  0
   25.9125  -23.5282  -14.8228 C   0  0  2  0  0  0  0  0  0  0  0  0
   25.6974  -22.1742  -14.3721 N   0  0  0  0  0  0  0  0  0  0  0  0
   26.4855  -23.6070  -16.1702 C   0  0  0  0  0  0  0  0  0  0  0  0
   26.9470  -24.7143  -16.5735 O   0  0  0  0  0  0  0  0  0  0  0  0
   26.5127  -22.4921  -16.9650 O   0  0  0  0  0  0  0  0  0  0  0  0
  2 12  2  0
  2  1  1  0
  3  2  1  0
  4  5  1  0
  4  3  2  0
  5 11  2  0
  6  7  1  0
  6  5  1  0
  7  9  1  0
  7  8  1  1
  9 10  2  0
 11 12  1  0
 13 14  1  0
 14 15  1  0
 17 16  1  6
 16 15  1  0
 18 17  1  0
 18  9  1  0
 19 24  1  0
 19 17  1  0
 20 19  2  0
 22 21  1  0
 23 24  1  0
 23 22  1  6
 25 23  1  0
 26 25  2  0
 27 25  1  0
M  END
$$$$
