YMS.pdb
     RDKit          3D

 27 27  0  0  1  0  0  0  0  0999 V2000
   24.7995  -21.3357   -7.4242 O   0  0  0  0  0  0  0  0  0  0  0  0
   24.8586  -21.0410   -8.7661 C   0  0  0  0  0  0  0  0  0  0  0  0
   23.6631  -21.0191   -9.4781 C   0  0  0  0  0  0  0  0  0  0  0  0
   23.7276  -20.7259  -10.8107 C   0  0  0  0  0  0  0  0  0  0  0  0
   24.8943  -20.4510  -11.4952 C   0  0  0  0  0  0  0  0  0  0  0  0
   24.7995  -20.1547  -12.9223 C   0  0  0  0  0  0  0  0  0  0  0  0
   24.4170  -21.3459  -13.7693 C   0  0  2  0  0  0  0  0  0  0  0  0
   25.5650  -22.2380  -13.8282 N   0  0  0  0  0  0  0  0  0  0  0  0
   24.0910  -20.8063  -15.1104 C   0  0  0  0  0  0  0  0  0  0  0  0
   25.0508  -20.5107  -15.8562 O   0  0  0  0  0  0  0  0  0  0  0  0
   26.0721  -20.4756  -10.7794 C   0  0  0  0  0  0  0  0  0  0  0  0
   26.0423  -20.7685   -9.4310 C   0  0  0  0  0  0  0  0  0  0  0  0
   23.5480  -21.9202  -21.7676 C   0  0  0  0  0  0  0  0  0  0  0  0
   22.3756  -21.4950  -20.4781 S   0  0  0  0  0  0  0  0  0  0  0  0
   23.0000  -21.8216  -18.8325 C   0  0  0  0  0  0  0  0  0  0  0  0
   22.0541  -21.4146  -17.7685 C   0  0  0  0  0  0  0  0  0  0  0  0
   22.4452  -20.2330  -16.9272 C   0  0  2  0  0  0  0  0  0  0  0  0
   22.7551  -20.6078  -15.5915 N   0  0  0  0  0  0  0  0  0  0  0  0
   21.4196  -19.1677  -17.0214 C   0  0  0  0  0  0  0  0  0  0  0  0
   20.3010  -19.2306  -16.4494 O   0  0  0  0  0  0  0  0  0  0  0  0
   21.9447  -16.0558  -19.8639 O   0  0  0  0  0  0  0  0  0  0  0  0
   21.3329  -15.7394  -18.6716 C   0  0  0  0  0  0  0  0  0  0  0  0
   20.7317  -16.9363  -17.9707 C   0  0  2  0  0  0  0  0  0  0  0  0
   21.6874  -18.0027  -17.7919 N   0  0  0  0  0  0  0  0  0  0  0  0
   19.5014  -17.3665  -18.6426 C   0  0  0  0  0  0  0  0  0  0  0  0
   19.5523  -18.3484  -19.4394 O   0  0  0  0  0  0  0  0  0  0  0  0
   18.3264  -16.7059  -18.4005 O   0  0  0  0  0  0  0  0  0  0  0  0
  2 12  2  0
  2  1  1  0
  3  2  1  0
  4  5  1  0
  4  3  2  0
  5 11  2  0
  6  7  1  0
  6  5  1  0
  7  9  1  0
  7  8  1  6
  9 10  2  0
 11 12  1  0
 13 14  1  0
 14 15  1  0
 17 16  1  6
 16 15  1  0
 18 17  1  0
 18  9  1  0
 19 24  1  0
 19 17  1  0
 20 19  2  0
 22 21  1  0
 23 24  1  0
 23 22  1  6
 25 23  1  0
 26 25  2  0
 27 25  1  0
M  END
$$$$
