YMS.pdb
     RDKit          3D

 27 27  0  0  1  0  0  0  0  0999 V2000
   29.3948  -10.1075  -18.5575 O   0  0  0  0  0  0  0  0  0  0  0  0
   28.4132  -10.3221  -17.6187 C   0  0  0  0  0  0  0  0  0  0  0  0
   28.5154  -11.4587  -16.8222 C   0  0  0  0  0  0  0  0  0  0  0  0
   27.5377  -11.6669  -15.8913 C   0  0  0  0  0  0  0  0  0  0  0  0
   26.4597  -10.8290  -15.6888 C   0  0  0  0  0  0  0  0  0  0  0  0
   25.4959  -11.1884  -14.6519 C   0  0  0  0  0  0  0  0  0  0  0  0
   24.1871  -11.7167  -15.1911 C   0  0  2  0  0  0  0  0  0  0  0  0
   24.4928  -12.7430  -16.1763 N   0  0  0  0  0  0  0  0  0  0  0  0
   23.5067  -10.5597  -15.8191 C   0  0  0  0  0  0  0  0  0  0  0  0
   23.5955  -10.4502  -17.0620 O   0  0  0  0  0  0  0  0  0  0  0  0
   26.3690   -9.7064  -16.4837 C   0  0  0  0  0  0  0  0  0  0  0  0
   27.3404   -9.4661  -17.4343 C   0  0  0  0  0  0  0  0  0  0  0  0
   17.9746  -11.1589  -18.2826 C   0  0  0  0  0  0  0  0  0  0  0  0
   18.4344   -9.9222  -17.0672 S   0  0  0  0  0  0  0  0  0  0  0  0
   20.1990   -9.6272  -17.0058 C   0  0  0  0  0  0  0  0  0  0  0  0
   20.6007   -8.7875  -15.8542 C   0  0  0  0  0  0  0  0  0  0  0  0
   22.0670   -8.4977  -15.7032 C   0  0  2  0  0  0  0  0  0  0  0  0
   22.7636   -9.5742  -15.0897 N   0  0  0  0  0  0  0  0  0  0  0  0
   22.2708   -7.1961  -15.0250 C   0  0  0  0  0  0  0  0  0  0  0  0
   22.4932   -7.0850  -13.7919 O   0  0  0  0  0  0  0  0  0  0  0  0
   22.9106   -2.3830  -15.8140 O   0  0  0  0  0  0  0  0  0  0  0  0
   22.4739   -3.6041  -16.2766 C   0  0  0  0  0  0  0  0  0  0  0  0
   22.5499   -4.7001  -15.2382 C   0  0  2  0  0  0  0  0  0  0  0  0
   22.2173   -5.9943  -15.7834 N   0  0  0  0  0  0  0  0  0  0  0  0
   21.7589   -4.3486  -14.0547 C   0  0  0  0  0  0  0  0  0  0  0  0
   20.5201   -4.6074  -14.0494 O   0  0  0  0  0  0  0  0  0  0  0  0
   22.3662   -3.7511  -12.9825 O   0  0  0  0  0  0  0  0  0  0  0  0
  2 12  2  0
  2  1  1  0
  3  2  1  0
  4  5  1  0
  4  3  2  0
  5 11  2  0
  6  7  1  0
  6  5  1  0
  7  9  1  0
  7  8  1  6
  9 10  2  0
 11 12  1  0
 13 14  1  0
 14 15  1  0
 17 16  1  1
 16 15  1  0
 18 17  1  0
 18  9  1  0
 19 24  1  0
 19 17  1  0
 20 19  2  0
 22 21  1  0
 23 24  1  0
 23 22  1  6
 25 23  1  0
 26 25  2  0
 27 25  1  0
M  END
$$$$
