YMS.pdb
     RDKit          3D

 27 27  0  0  1  0  0  0  0  0999 V2000
   16.6306  -13.5745  -21.9179 O   0  0  0  0  0  0  0  0  0  0  0  0
   17.0994  -12.9972  -20.7612 C   0  0  0  0  0  0  0  0  0  0  0  0
   18.1064  -12.0434  -20.8749 C   0  0  0  0  0  0  0  0  0  0  0  0
   18.5684  -11.4732  -19.7229 C   0  0  0  0  0  0  0  0  0  0  0  0
   18.1052  -11.7785  -18.4589 C   0  0  0  0  0  0  0  0  0  0  0  0
   18.7010  -11.0811  -17.3223 C   0  0  0  0  0  0  0  0  0  0  0  0
   20.0260  -11.6564  -16.8790 C   0  0  2  0  0  0  0  0  0  0  0  0
   19.7722  -12.9689  -16.3046 N   0  0  0  0  0  0  0  0  0  0  0  0
   20.5573  -10.7211  -15.8597 C   0  0  0  0  0  0  0  0  0  0  0  0
   20.1330  -10.8496  -14.6900 O   0  0  0  0  0  0  0  0  0  0  0  0
   17.1077  -12.7246  -18.3589 C   0  0  0  0  0  0  0  0  0  0  0  0
   16.6183  -13.3204  -19.5036 C   0  0  0  0  0  0  0  0  0  0  0  0
   27.1196  -10.6819  -16.1399 C   0  0  0  0  0  0  0  0  0  0  0  0
   25.9530  -10.0336  -14.9412 S   0  0  0  0  0  0  0  0  0  0  0  0
   24.3308   -9.7361  -15.6373 C   0  0  0  0  0  0  0  0  0  0  0  0
   23.3652   -9.2180  -14.6414 C   0  0  0  0  0  0  0  0  0  0  0  0
   22.0186   -8.7956  -15.1564 C   0  0  2  0  0  0  0  0  0  0  0  0
   21.5169   -9.6929  -16.1380 N   0  0  0  0  0  0  0  0  0  0  0  0
   22.0555   -7.3843  -15.6065 C   0  0  0  0  0  0  0  0  0  0  0  0
   22.4400   -7.0323  -16.7513 O   0  0  0  0  0  0  0  0  0  0  0  0
   19.2380   -4.7717  -14.4824 O   0  0  0  0  0  0  0  0  0  0  0  0
   20.4911   -4.2190  -14.3403 C   0  0  0  0  0  0  0  0  0  0  0  0
   21.5643   -4.9644  -15.1003 C   0  0  2  0  0  0  0  0  0  0  0  0
   21.6401   -6.3541  -14.7185 N   0  0  0  0  0  0  0  0  0  0  0  0
   22.8493   -4.2650  -15.0027 C   0  0  0  0  0  0  0  0  0  0  0  0
   23.8333   -4.8658  -14.4807 O   0  0  0  0  0  0  0  0  0  0  0  0
   22.9651   -2.9841  -15.4733 O   0  0  0  0  0  0  0  0  0  0  0  0
  2 12  2  0
  2  1  1  0
  3  2  1  0
  4  5  1  0
  4  3  2  0
  5 11  2  0
  6  7  1  0
  6  5  1  0
  7  9  1  0
  7  8  1  1
  9 10  2  0
 11 12  1  0
 13 14  1  0
 14 15  1  0
 17 16  1  6
 16 15  1  0
 18 17  1  0
 18  9  1  0
 19 24  1  0
 19 17  1  0
 20 19  2  0
 22 21  1  0
 23 24  1  0
 23 22  1  1
 25 23  1  0
 26 25  2  0
 27 25  1  0
M  END
$$$$
