YMS.pdb
     RDKit          3D

 27 27  0  0  1  0  0  0  0  0999 V2000
   16.5262  -23.4757  -10.5458 O   0  0  0  0  0  0  0  0  0  0  0  0
   17.6126  -23.0429  -11.2692 C   0  0  0  0  0  0  0  0  0  0  0  0
   18.8313  -22.9344  -10.6060 C   0  0  0  0  0  0  0  0  0  0  0  0
   19.9072  -22.5040  -11.3292 C   0  0  0  0  0  0  0  0  0  0  0  0
   19.8666  -22.1708  -12.6681 C   0  0  0  0  0  0  0  0  0  0  0  0
   21.1046  -21.7263  -13.3029 C   0  0  0  0  0  0  0  0  0  0  0  0
   21.4484  -20.2813  -13.0257 C   0  0  2  0  0  0  0  0  0  0  0  0
   20.8757  -19.4744  -14.0925 N   0  0  0  0  0  0  0  0  0  0  0  0
   22.9283  -20.2043  -13.0338 C   0  0  0  0  0  0  0  0  0  0  0  0
   23.4756  -19.8391  -14.0977 O   0  0  0  0  0  0  0  0  0  0  0  0
   18.6541  -22.2822  -13.3143 C   0  0  0  0  0  0  0  0  0  0  0  0
   17.5468  -22.7142  -12.6128 C   0  0  0  0  0  0  0  0  0  0  0  0
   26.6609  -19.8559   -7.5209 C   0  0  0  0  0  0  0  0  0  0  0  0
   27.7461  -20.6779   -8.6890 S   0  0  0  0  0  0  0  0  0  0  0  0
   27.2124  -20.4907  -10.3875 C   0  0  0  0  0  0  0  0  0  0  0  0
   25.7627  -20.7353  -10.5638 C   0  0  0  0  0  0  0  0  0  0  0  0
   25.1648  -20.3511  -11.8874 C   0  0  2  0  0  0  0  0  0  0  0  0
   23.7537  -20.5210  -11.9052 N   0  0  0  0  0  0  0  0  0  0  0  0
   25.8604  -21.0509  -12.9928 C   0  0  0  0  0  0  0  0  0  0  0  0
   25.8648  -22.3017  -13.1267 O   0  0  0  0  0  0  0  0  0  0  0  0
   26.9612  -18.8169  -16.2193 O   0  0  0  0  0  0  0  0  0  0  0  0
   27.8291  -19.8687  -16.0286 C   0  0  0  0  0  0  0  0  0  0  0  0
   27.3193  -20.8947  -15.0424 C   0  0  2  0  0  0  0  0  0  0  0  0
   26.5674  -20.2937  -13.9671 N   0  0  0  0  0  0  0  0  0  0  0  0
   28.4125  -21.7537  -14.5764 C   0  0  0  0  0  0  0  0  0  0  0  0
   28.6977  -21.7641  -13.3435 O   0  0  0  0  0  0  0  0  0  0  0  0
   29.1024  -22.5250  -15.4735 O   0  0  0  0  0  0  0  0  0  0  0  0
  2 12  2  0
  2  1  1  0
  3  2  1  0
  4  5  1  0
  4  3  2  0
  5 11  2  0
  6  7  1  0
  6  5  1  0
  7  9  1  0
  7  8  1  6
  9 10  2  0
 11 12  1  0
 13 14  1  0
 14 15  1  0
 17 16  1  1
 16 15  1  0
 18 17  1  0
 18  9  1  0
 19 24  1  0
 19 17  1  0
 20 19  2  0
 22 21  1  0
 23 24  1  0
 23 22  1  6
 25 23  1  0
 26 25  2  0
 27 25  1  0
M  END
$$$$
