YMS.pdb
     RDKit          3D

 27 27  0  0  1  0  0  0  0  0999 V2000
   16.0033  -17.8977  -18.8453 O   0  0  0  0  0  0  0  0  0  0  0  0
   16.9682  -16.9869  -18.4841 C   0  0  0  0  0  0  0  0  0  0  0  0
   16.8315  -15.6809  -18.9448 C   0  0  0  0  0  0  0  0  0  0  0  0
   17.7927  -14.7803  -18.5831 C   0  0  0  0  0  0  0  0  0  0  0  0
   18.8858  -15.0778  -17.7945 C   0  0  0  0  0  0  0  0  0  0  0  0
   19.8285  -14.0035  -17.4940 C   0  0  0  0  0  0  0  0  0  0  0  0
   20.5654  -13.4809  -18.7052 C   0  0  2  0  0  0  0  0  0  0  0  0
   21.4616  -14.5295  -19.1683 N   0  0  0  0  0  0  0  0  0  0  0  0
   21.3247  -12.2957  -18.2420 C   0  0  0  0  0  0  0  0  0  0  0  0
   22.3570  -12.5062  -17.5676 O   0  0  0  0  0  0  0  0  0  0  0  0
   19.0106  -16.3746  -17.3441 C   0  0  0  0  0  0  0  0  0  0  0  0
   18.0566  -17.3098  -17.6913 C   0  0  0  0  0  0  0  0  0  0  0  0
   25.4649   -9.8836  -22.0415 C   0  0  0  0  0  0  0  0  0  0  0  0
   24.2679   -8.9221  -21.1138 S   0  0  0  0  0  0  0  0  0  0  0  0
   23.4243   -9.8813  -19.8596 C   0  0  0  0  0  0  0  0  0  0  0  0
   22.3995   -9.0989  -19.1314 C   0  0  0  0  0  0  0  0  0  0  0  0
   21.6539   -9.8082  -18.0370 C   0  0  2  0  0  0  0  0  0  0  0  0
   20.9456  -10.9415  -18.5212 N   0  0  0  0  0  0  0  0  0  0  0  0
   20.8043   -8.8541  -17.2863 C   0  0  0  0  0  0  0  0  0  0  0  0
   19.6450   -8.5261  -17.6480 O   0  0  0  0  0  0  0  0  0  0  0  0
   20.7083   -8.9818  -13.3301 O   0  0  0  0  0  0  0  0  0  0  0  0
   20.8523   -7.6785  -13.7506 C   0  0  0  0  0  0  0  0  0  0  0  0
   20.4834   -7.4732  -15.2021 C   0  0  2  0  0  0  0  0  0  0  0  0
   21.3002   -8.2637  -16.0913 N   0  0  0  0  0  0  0  0  0  0  0  0
   20.4744   -6.0458  -15.5378 C   0  0  0  0  0  0  0  0  0  0  0  0
   21.3202   -5.6095  -16.3720 O   0  0  0  0  0  0  0  0  0  0  0  0
   19.5598   -5.2136  -14.9494 O   0  0  0  0  0  0  0  0  0  0  0  0
  2 12  2  0
  2  1  1  0
  3  2  1  0
  4  5  1  0
  4  3  2  0
  5 11  2  0
  6  7  1  0
  6  5  1  0
  7  9  1  0
  7  8  1  1
  9 10  2  0
 11 12  1  0
 13 14  1  0
 14 15  1  0
 17 16  1  6
 16 15  1  0
 18 17  1  0
 18  9  1  0
 19 24  1  0
 19 17  1  0
 20 19  2  0
 22 21  1  0
 23 24  1  0
 23 22  1  1
 25 23  1  0
 26 25  2  0
 27 25  1  0
M  END
$$$$
