YMS.pdb
     RDKit          3D

 27 27  0  0  1  0  0  0  0  0999 V2000
   27.4249  -16.0802  -18.0958 O   0  0  0  0  0  0  0  0  0  0  0  0
   27.0781  -16.8161  -16.9871 C   0  0  0  0  0  0  0  0  0  0  0  0
   25.9302  -17.5993  -17.0621 C   0  0  0  0  0  0  0  0  0  0  0  0
   25.5904  -18.3282  -15.9580 C   0  0  0  0  0  0  0  0  0  0  0  0
   26.3064  -18.3399  -14.7780 C   0  0  0  0  0  0  0  0  0  0  0  0
   25.8140  -19.1732  -13.6842 C   0  0  0  0  0  0  0  0  0  0  0  0
   26.8006  -20.2200  -13.2218 C   0  0  2  0  0  0  0  0  0  0  0  0
   26.8241  -21.2809  -14.2173 N   0  0  0  0  0  0  0  0  0  0  0  0
   26.2899  -20.7179  -11.9229 C   0  0  0  0  0  0  0  0  0  0  0  0
   25.6945  -21.8180  -11.9269 O   0  0  0  0  0  0  0  0  0  0  0  0
   27.4416  -17.5604  -14.7155 C   0  0  0  0  0  0  0  0  0  0  0  0
   27.8133  -16.8113  -15.8136 C   0  0  0  0  0  0  0  0  0  0  0  0
   26.6249  -19.9611   -3.9764 C   0  0  0  0  0  0  0  0  0  0  0  0
   26.9777  -19.3151   -5.6123 S   0  0  0  0  0  0  0  0  0  0  0  0
   26.1971  -20.2588   -6.9180 C   0  0  0  0  0  0  0  0  0  0  0  0
   26.5826  -19.7951   -8.2704 C   0  0  0  0  0  0  0  0  0  0  0  0
   25.9571  -20.5062   -9.4365 C   0  0  2  0  0  0  0  0  0  0  0  0
   26.4392  -20.0173  -10.6811 N   0  0  0  0  0  0  0  0  0  0  0  0
   24.4798  -20.4863   -9.3236 C   0  0  0  0  0  0  0  0  0  0  0  0
   23.7659  -19.5389   -9.7421 O   0  0  0  0  0  0  0  0  0  0  0  0
   20.6439  -22.2215   -6.9523 O   0  0  0  0  0  0  0  0  0  0  0  0
   22.0010  -22.0679   -7.1275 C   0  0  0  0  0  0  0  0  0  0  0  0
   22.3786  -21.6251   -8.5227 C   0  0  2  0  0  0  0  0  0  0  0  0
   23.8082  -21.5823   -8.7150 N   0  0  0  0  0  0  0  0  0  0  0  0
   21.7090  -20.3666   -8.8661 C   0  0  0  0  0  0  0  0  0  0  0  0
   22.1049  -19.2957   -8.3203 O   0  0  0  0  0  0  0  0  0  0  0  0
   20.6749  -20.3682   -9.7640 O   0  0  0  0  0  0  0  0  0  0  0  0
  2 12  2  0
  2  1  1  0
  3  2  1  0
  4  5  1  0
  4  3  2  0
  5 11  2  0
  6  7  1  0
  6  5  1  0
  7  9  1  0
  7  8  1  6
  9 10  2  0
 11 12  1  0
 13 14  1  0
 14 15  1  0
 17 16  1  1
 16 15  1  0
 18 17  1  0
 18  9  1  0
 19 24  1  0
 19 17  1  0
 20 19  2  0
 22 21  1  0
 23 24  1  0
 23 22  1  1
 25 23  1  0
 26 25  2  0
 27 25  1  0
M  END
$$$$
