YMS.pdb
     RDKit          3D

 27 27  0  0  1  0  0  0  0  0999 V2000
   28.0540  -12.9755  -17.5570 O   0  0  0  0  0  0  0  0  0  0  0  0
   27.6129  -14.1934  -17.0951 C   0  0  0  0  0  0  0  0  0  0  0  0
   27.4476  -14.3443  -15.7215 C   0  0  0  0  0  0  0  0  0  0  0  0
   27.0093  -15.5560  -15.2681 C   0  0  0  0  0  0  0  0  0  0  0  0
   26.7206  -16.6360  -16.0778 C   0  0  0  0  0  0  0  0  0  0  0  0
   26.2601  -17.8674  -15.4416 C   0  0  0  0  0  0  0  0  0  0  0  0
   27.3790  -18.7647  -14.9663 C   0  0  2  0  0  0  0  0  0  0  0  0
   27.9964  -19.3662  -16.1386 N   0  0  0  0  0  0  0  0  0  0  0  0
   26.7426  -19.7938  -14.1108 C   0  0  0  0  0  0  0  0  0  0  0  0
   26.2935  -20.8127  -14.6809 O   0  0  0  0  0  0  0  0  0  0  0  0
   26.8882  -16.4746  -17.4365 C   0  0  0  0  0  0  0  0  0  0  0  0
   27.3298  -15.2628  -17.9279 C   0  0  0  0  0  0  0  0  0  0  0  0
   24.6642  -21.8677   -6.6501 C   0  0  0  0  0  0  0  0  0  0  0  0
   25.7012  -20.9376   -7.7804 S   0  0  0  0  0  0  0  0  0  0  0  0
   25.2849  -21.2170   -9.4989 C   0  0  0  0  0  0  0  0  0  0  0  0
   26.0838  -20.3832  -10.4259 C   0  0  0  0  0  0  0  0  0  0  0  0
   25.8332  -20.5699  -11.8953 C   0  0  2  0  0  0  0  0  0  0  0  0
   26.6160  -19.6860  -12.6868 N   0  0  0  0  0  0  0  0  0  0  0  0
   24.3821  -20.4994  -12.1865 C   0  0  0  0  0  0  0  0  0  0  0  0
   23.7103  -19.4389  -12.1064 O   0  0  0  0  0  0  0  0  0  0  0  0
   20.4997  -23.0695  -13.7777 O   0  0  0  0  0  0  0  0  0  0  0  0
   21.8466  -23.0148  -13.4967 C   0  0  0  0  0  0  0  0  0  0  0  0
   22.2817  -21.6940  -12.9040 C   0  0  2  0  0  0  0  0  0  0  0  0
   23.6877  -21.6768  -12.5791 N   0  0  0  0  0  0  0  0  0  0  0  0
   21.4211  -21.3234  -11.7761 C   0  0  0  0  0  0  0  0  0  0  0  0
   21.7912  -21.6195  -10.6027 O   0  0  0  0  0  0  0  0  0  0  0  0
   20.2406  -20.6685  -12.0065 O   0  0  0  0  0  0  0  0  0  0  0  0
  2 12  2  0
  2  1  1  0
  3  2  1  0
  4  5  1  0
  4  3  2  0
  5 11  2  0
  6  7  1  0
  6  5  1  0
  7  9  1  0
  7  8  1  6
  9 10  2  0
 11 12  1  0
 13 14  1  0
 14 15  1  0
 17 16  1  1
 16 15  1  0
 18 17  1  0
 18  9  1  0
 19 24  1  0
 19 17  1  0
 20 19  2  0
 22 21  1  0
 23 24  1  0
 23 22  1  1
 25 23  1  0
 26 25  2  0
 27 25  1  0
M  END
$$$$
