YMS.pdb
     RDKit          3D

 27 27  0  0  1  0  0  0  0  0999 V2000
   16.7866  -13.3173  -24.8568 O   0  0  0  0  0  0  0  0  0  0  0  0
   17.0084  -12.7537  -23.6222 C   0  0  0  0  0  0  0  0  0  0  0  0
   16.0721  -12.9961  -22.6216 C   0  0  0  0  0  0  0  0  0  0  0  0
   16.2973  -12.4339  -21.3972 C   0  0  0  0  0  0  0  0  0  0  0  0
   17.3867  -11.6448  -21.0876 C   0  0  0  0  0  0  0  0  0  0  0  0
   17.4873  -11.1152  -19.7301 C   0  0  0  0  0  0  0  0  0  0  0  0
   18.6598  -11.6591  -18.9476 C   0  0  2  0  0  0  0  0  0  0  0  0
   18.3883  -13.0578  -18.6524 N   0  0  0  0  0  0  0  0  0  0  0  0
   18.7303  -10.8551  -17.7048 C   0  0  0  0  0  0  0  0  0  0  0  0
   17.8526  -11.0642  -16.8385 O   0  0  0  0  0  0  0  0  0  0  0  0
   18.3072  -11.4117  -22.0868 C   0  0  0  0  0  0  0  0  0  0  0  0
   18.1099  -11.9650  -23.3357 C   0  0  0  0  0  0  0  0  0  0  0  0
   22.8349   -8.8092  -11.5943 C   0  0  0  0  0  0  0  0  0  0  0  0
   22.6769   -9.4984  -13.2429 S   0  0  0  0  0  0  0  0  0  0  0  0
   21.2278   -8.9055  -14.1107 C   0  0  0  0  0  0  0  0  0  0  0  0
   21.0563   -9.5364  -15.4392 C   0  0  0  0  0  0  0  0  0  0  0  0
   19.8370   -9.1454  -16.2249 C   0  0  2  0  0  0  0  0  0  0  0  0
   19.7351   -9.8657  -17.4461 N   0  0  0  0  0  0  0  0  0  0  0  0
   19.7814   -7.6748  -16.3974 C   0  0  0  0  0  0  0  0  0  0  0  0
   20.4754   -7.0495  -17.2398 O   0  0  0  0  0  0  0  0  0  0  0  0
   16.3380   -5.6464  -15.8625 O   0  0  0  0  0  0  0  0  0  0  0  0
   17.3893   -5.0067  -15.2447 C   0  0  0  0  0  0  0  0  0  0  0  0
   18.7429   -5.4790  -15.7240 C   0  0  2  0  0  0  0  0  0  0  0  0
   18.9066   -6.9057  -15.5814 N   0  0  0  0  0  0  0  0  0  0  0  0
   19.8158   -4.7058  -15.0906 C   0  0  0  0  0  0  0  0  0  0  0  0
   20.7188   -5.3227  -14.4538 O   0  0  0  0  0  0  0  0  0  0  0  0
   19.8251   -3.3404  -15.1963 O   0  0  0  0  0  0  0  0  0  0  0  0
  2 12  2  0
  2  1  1  0
  3  2  1  0
  4  5  1  0
  4  3  2  0
  5 11  2  0
  6  7  1  0
  6  5  1  0
  7  9  1  0
  7  8  1  1
  9 10  2  0
 11 12  1  0
 13 14  1  0
 14 15  1  0
 17 16  1  6
 16 15  1  0
 18 17  1  0
 18  9  1  0
 19 24  1  0
 19 17  1  0
 20 19  2  0
 22 21  1  0
 23 24  1  0
 23 22  1  1
 25 23  1  0
 26 25  2  0
 27 25  1  0
M  END
$$$$
