YMS.pdb
     RDKit          3D

 27 27  0  0  1  0  0  0  0  0999 V2000
   29.6723  -15.4081  -19.0887 O   0  0  0  0  0  0  0  0  0  0  0  0
   28.9586  -16.4157  -18.4834 C   0  0  0  0  0  0  0  0  0  0  0  0
   28.4174  -16.1618  -17.2266 C   0  0  0  0  0  0  0  0  0  0  0  0
   27.7094  -17.1661  -16.6299 C   0  0  0  0  0  0  0  0  0  0  0  0
   27.4958  -18.4105  -17.1877 C   0  0  0  0  0  0  0  0  0  0  0  0
   26.7156  -19.3806  -16.4239 C   0  0  0  0  0  0  0  0  0  0  0  0
   27.5464  -20.2424  -15.5020 C   0  0  2  0  0  0  0  0  0  0  0  0
   28.1588  -21.2910  -16.3035 N   0  0  0  0  0  0  0  0  0  0  0  0
   26.6018  -20.8104  -14.5115 C   0  0  0  0  0  0  0  0  0  0  0  0
   25.9285  -21.8026  -14.8678 O   0  0  0  0  0  0  0  0  0  0  0  0
   28.0366  -18.6503  -18.4328 C   0  0  0  0  0  0  0  0  0  0  0  0
   28.7578  -17.6569  -19.0637 C   0  0  0  0  0  0  0  0  0  0  0  0
   24.2474  -21.8725   -7.2006 C   0  0  0  0  0  0  0  0  0  0  0  0
   25.4134  -21.2656   -8.4213 S   0  0  0  0  0  0  0  0  0  0  0  0
   24.6147  -20.6111   -9.8836 C   0  0  0  0  0  0  0  0  0  0  0  0
   25.5801  -20.1694  -10.9158 C   0  0  0  0  0  0  0  0  0  0  0  0
   25.4131  -20.7452  -12.2932 C   0  0  2  0  0  0  0  0  0  0  0  0
   26.4211  -20.2919  -13.1872 N   0  0  0  0  0  0  0  0  0  0  0  0
   24.0352  -20.5154  -12.7873 C   0  0  0  0  0  0  0  0  0  0  0  0
   23.6215  -19.3981  -13.1910 O   0  0  0  0  0  0  0  0  0  0  0  0
   21.9869  -22.9695  -15.1690 O   0  0  0  0  0  0  0  0  0  0  0  0
   21.2801  -22.7042  -14.0175 C   0  0  0  0  0  0  0  0  0  0  0  0
   21.7560  -21.4649  -13.2945 C   0  0  2  0  0  0  0  0  0  0  0  0
   23.1118  -21.5965  -12.8176 N   0  0  0  0  0  0  0  0  0  0  0  0
   20.8067  -21.0801  -12.2453 C   0  0  0  0  0  0  0  0  0  0  0  0
   21.1878  -21.1032  -11.0388 O   0  0  0  0  0  0  0  0  0  0  0  0
   19.5337  -20.7047  -12.5831 O   0  0  0  0  0  0  0  0  0  0  0  0
  2 12  2  0
  2  1  1  0
  3  2  1  0
  4  5  1  0
  4  3  2  0
  5 11  2  0
  6  7  1  0
  6  5  1  0
  7  9  1  0
  7  8  1  6
  9 10  2  0
 11 12  1  0
 13 14  1  0
 14 15  1  0
 17 16  1  1
 16 15  1  0
 18 17  1  0
 18  9  1  0
 19 24  1  0
 19 17  1  0
 20 19  2  0
 22 21  1  0
 23 24  1  0
 23 22  1  1
 25 23  1  0
 26 25  2  0
 27 25  1  0
M  END
$$$$
