YMS.pdb
     RDKit          3D

 27 27  0  0  1  0  0  0  0  0999 V2000
   10.6221  -11.3120  -10.6893 O   0  0  0  0  0  0  0  0  0  0  0  0
   11.7572  -10.7517  -11.2266 C   0  0  0  0  0  0  0  0  0  0  0  0
   12.9857  -11.1622  -10.7178 C   0  0  0  0  0  0  0  0  0  0  0  0
   14.1100  -10.6025  -11.2552 C   0  0  0  0  0  0  0  0  0  0  0  0
   14.1089   -9.6611  -12.2647 C   0  0  0  0  0  0  0  0  0  0  0  0
   15.3965   -9.1565  -12.7343 C   0  0  0  0  0  0  0  0  0  0  0  0
   15.7609   -9.6147  -14.1272 C   0  0  2  0  0  0  0  0  0  0  0  0
   16.1569  -11.0125  -14.0472 N   0  0  0  0  0  0  0  0  0  0  0  0
   16.8951   -8.7621  -14.5546 C   0  0  0  0  0  0  0  0  0  0  0  0
   18.0483   -9.2095  -14.3680 O   0  0  0  0  0  0  0  0  0  0  0  0
   12.8861   -9.2624  -12.7606 C   0  0  0  0  0  0  0  0  0  0  0  0
   11.7303   -9.8082  -12.2398 C   0  0  0  0  0  0  0  0  0  0  0  0
   14.9499   -5.3849  -20.1756 C   0  0  0  0  0  0  0  0  0  0  0  0
   15.8168   -4.8074  -18.7151 S   0  0  0  0  0  0  0  0  0  0  0  0
   16.7256   -6.1067  -17.8843 C   0  0  0  0  0  0  0  0  0  0  0  0
   17.3679   -5.6472  -16.6317 C   0  0  0  0  0  0  0  0  0  0  0  0
   17.8284   -6.7097  -15.6747 C   0  0  2  0  0  0  0  0  0  0  0  0
   16.7440   -7.4719  -15.1611 N   0  0  0  0  0  0  0  0  0  0  0  0
   18.6905   -6.1214  -14.6230 C   0  0  0  0  0  0  0  0  0  0  0  0
   18.2465   -5.6679  -13.5369 O   0  0  0  0  0  0  0  0  0  0  0  0
   22.6540   -6.3910  -12.2034 O   0  0  0  0  0  0  0  0  0  0  0  0
   21.8323   -6.7641  -13.2435 C   0  0  0  0  0  0  0  0  0  0  0  0
   21.0218   -5.6191  -13.8069 C   0  0  2  0  0  0  0  0  0  0  0  0
   20.0964   -6.0532  -14.8257 N   0  0  0  0  0  0  0  0  0  0  0  0
   21.8995   -4.5298  -14.2465 C   0  0  0  0  0  0  0  0  0  0  0  0
   22.3638   -4.5570  -15.4235 O   0  0  0  0  0  0  0  0  0  0  0  0
   22.2011   -3.5086  -13.3853 O   0  0  0  0  0  0  0  0  0  0  0  0
  2 12  2  0
  2  1  1  0
  3  2  1  0
  4  5  1  0
  4  3  2  0
  5 11  2  0
  6  7  1  0
  6  5  1  0
  7  9  1  0
  7  8  1  1
  9 10  2  0
 11 12  1  0
 13 14  1  0
 14 15  1  0
 17 16  1  1
 16 15  1  0
 18 17  1  0
 18  9  1  0
 19 24  1  0
 19 17  1  0
 20 19  2  0
 22 21  1  0
 23 24  1  0
 23 22  1  6
 25 23  1  0
 26 25  2  0
 27 25  1  0
M  END
$$$$
