YMS.pdb
     RDKit          3D

 27 27  0  0  1  0  0  0  0  0999 V2000
   23.0210  -16.1167  -25.3381 O   0  0  0  0  0  0  0  0  0  0  0  0
   22.5999  -16.4917  -24.0838 C   0  0  0  0  0  0  0  0  0  0  0  0
   22.4074  -15.4891  -23.1381 C   0  0  0  0  0  0  0  0  0  0  0  0
   21.9891  -15.8672  -21.8939 C   0  0  0  0  0  0  0  0  0  0  0  0
   21.7456  -17.1716  -21.5137 C   0  0  0  0  0  0  0  0  0  0  0  0
   21.3016  -17.4161  -20.1440 C   0  0  0  0  0  0  0  0  0  0  0  0
   22.4203  -17.4075  -19.1284 C   0  0  2  0  0  0  0  0  0  0  0  0
   23.3277  -18.4969  -19.4556 N   0  0  0  0  0  0  0  0  0  0  0  0
   21.7782  -17.6250  -17.8107 C   0  0  0  0  0  0  0  0  0  0  0  0
   21.7735  -18.7932  -17.3633 O   0  0  0  0  0  0  0  0  0  0  0  0
   21.9398  -18.1560  -22.4590 C   0  0  0  0  0  0  0  0  0  0  0  0
   22.3622  -17.8082  -23.7261 C   0  0  0  0  0  0  0  0  0  0  0  0
   25.3238  -15.2401  -14.7929 C   0  0  0  0  0  0  0  0  0  0  0  0
   23.6486  -15.2328  -15.4346 S   0  0  0  0  0  0  0  0  0  0  0  0
   22.4522  -15.8752  -14.2680 C   0  0  0  0  0  0  0  0  0  0  0  0
   21.0583  -15.7620  -14.7546 C   0  0  0  0  0  0  0  0  0  0  0  0
   20.5997  -16.7912  -15.7482 C   0  0  2  0  0  0  0  0  0  0  0  0
   21.1714  -16.5845  -17.0332 N   0  0  0  0  0  0  0  0  0  0  0  0
   19.1203  -16.8736  -15.7635 C   0  0  0  0  0  0  0  0  0  0  0  0
   18.3851  -16.0237  -16.3287 O   0  0  0  0  0  0  0  0  0  0  0  0
   15.2974  -19.7274  -14.5786 O   0  0  0  0  0  0  0  0  0  0  0  0
   16.6215  -19.4002  -14.3903 C   0  0  0  0  0  0  0  0  0  0  0  0
   17.0418  -18.1526  -15.1333 C   0  0  2  0  0  0  0  0  0  0  0  0
   18.4718  -17.9594  -15.1133 N   0  0  0  0  0  0  0  0  0  0  0  0
   16.2922  -16.9868  -14.6543 C   0  0  0  0  0  0  0  0  0  0  0  0
   16.7303  -16.3484  -13.6533 O   0  0  0  0  0  0  0  0  0  0  0  0
   15.1400  -16.6094  -15.2911 O   0  0  0  0  0  0  0  0  0  0  0  0
  2 12  2  0
  2  1  1  0
  3  2  1  0
  4  5  1  0
  4  3  2  0
  5 11  2  0
  6  7  1  0
  6  5  1  0
  7  9  1  0
  7  8  1  6
  9 10  2  0
 11 12  1  0
 13 14  1  0
 14 15  1  0
 17 16  1  1
 16 15  1  0
 18 17  1  0
 18  9  1  0
 19 24  1  0
 19 17  1  0
 20 19  2  0
 22 21  1  0
 23 24  1  0
 23 22  1  1
 25 23  1  0
 26 25  2  0
 27 25  1  0
M  END
$$$$
