AMK.pdb
     RDKit          3D

 23 22  0  0  1  0  0  0  0  0999 V2000
   19.5993   -9.2380  -13.2304 C   0  0  0  0  0  0  0  0  0  0  0  0
   18.5610  -10.1161  -12.5577 C   0  0  2  0  0  0  0  0  0  0  0  0
   18.2094  -11.1544  -13.5002 N   0  0  0  0  0  0  0  0  0  0  0  0
   17.3303   -9.3466  -12.2030 C   0  0  0  0  0  0  0  0  0  0  0  0
   16.6697   -8.8358  -13.1196 O   0  0  0  0  0  0  0  0  0  0  0  0
   11.5114  -11.9403   -9.9325 C   0  0  0  0  0  0  0  0  0  0  0  0
   12.9301  -11.2635   -9.0221 S   0  0  0  0  0  0  0  0  0  0  0  0
   13.8543  -10.1491  -10.1621 C   0  0  0  0  0  0  0  0  0  0  0  0
   15.0265   -9.5744   -9.4419 C   0  0  0  0  0  0  0  0  0  0  0  0
   15.7550   -8.5958  -10.3505 C   0  0  2  0  0  0  0  0  0  0  0  0
   16.9374   -9.2103  -10.8507 N   0  0  0  0  0  0  0  0  0  0  0  0
   16.0013   -7.3445   -9.6372 C   0  0  0  0  0  0  0  0  0  0  0  0
   16.9056   -7.3306   -8.7380 O   0  0  0  0  0  0  0  0  0  0  0  0
   15.3131   -6.1340   -9.8627 N   0  0  0  0  0  0  0  0  0  0  0  0
   15.5611   -4.9107   -9.0976 C   0  0  1  0  0  0  0  0  0  0  0  0
   15.2467   -3.6826   -9.8589 C   0  0  0  0  0  0  0  0  0  0  0  0
   15.3387   -2.3798   -9.1677 C   0  0  0  0  0  0  0  0  0  0  0  0
   14.8936   -1.1875   -9.9752 C   0  0  0  0  0  0  0  0  0  0  0  0
   15.2565    0.0463   -9.1683 C   0  0  0  0  0  0  0  0  0  0  0  0
   14.8930    1.1967   -9.9753 N   0  0  0  0  0  0  0  0  0  0  0  0
   14.9648   -5.0223   -7.7513 C   0  0  0  0  0  0  0  0  0  0  0  0
   15.5284   -4.4347   -6.6311 O   0  0  0  0  0  0  0  0  0  0  0  0
   13.9015   -5.6689   -7.5706 O   0  0  0  0  0  0  0  0  0  0  0  0
  2  1  1  6
  2  3  1  0
  4  2  1  0
  4  5  2  0
  7  8  1  0
  7  6  1  0
  8  9  1  0
 10  9  1  1
 10 12  1  0
 10 11  1  0
 11  4  1  0
 12 14  1  0
 13 12  2  0
 14 15  1  0
 15 21  1  0
 15 16  1  6
 17 16  1  0
 18 17  1  0
 19 18  1  0
 20 19  1  0
 21 23  2  0
 21 22  1  0
M  END
$$$$
