AMK.pdb
     RDKit          3D

 23 22  0  0  1  0  0  0  0  0999 V2000
   21.3198  -13.2019  -19.2323 C   0  0  0  0  0  0  0  0  0  0  0  0
   21.9103  -11.8077  -19.3267 C   0  0  2  0  0  0  0  0  0  0  0  0
   23.2181  -11.9414  -19.9283 N   0  0  0  0  0  0  0  0  0  0  0  0
   22.0584  -11.1763  -17.9806 C   0  0  0  0  0  0  0  0  0  0  0  0
   21.0436  -11.0299  -17.2832 O   0  0  0  0  0  0  0  0  0  0  0  0
   27.5627  -13.5281  -14.9643 C   0  0  0  0  0  0  0  0  0  0  0  0
   27.2328  -11.7955  -15.3990 S   0  0  0  0  0  0  0  0  0  0  0  0
   25.4180  -11.6141  -15.6624 C   0  0  0  0  0  0  0  0  0  0  0  0
   25.1133  -10.1977  -16.0145 C   0  0  0  0  0  0  0  0  0  0  0  0
   23.6305  -10.0553  -16.3225 C   0  0  2  0  0  0  0  0  0  0  0  0
   23.3305  -10.7592  -17.5227 N   0  0  0  0  0  0  0  0  0  0  0  0
   23.2654   -8.6412  -16.3653 C   0  0  0  0  0  0  0  0  0  0  0  0
   23.6661   -7.9443  -17.3555 O   0  0  0  0  0  0  0  0  0  0  0  0
   22.4964   -7.9727  -15.3898 N   0  0  0  0  0  0  0  0  0  0  0  0
   22.1665   -6.5481  -15.4598 C   0  0  1  0  0  0  0  0  0  0  0  0
   20.9497   -6.2780  -16.2555 C   0  0  0  0  0  0  0  0  0  0  0  0
   20.4892   -4.8803  -16.3900 C   0  0  0  0  0  0  0  0  0  0  0  0
   19.2542   -4.6855  -17.2318 C   0  0  0  0  0  0  0  0  0  0  0  0
   18.9613   -3.1959  -17.2389 C   0  0  0  0  0  0  0  0  0  0  0  0
   17.7557   -3.0095  -18.0255 N   0  0  0  0  0  0  0  0  0  0  0  0
   22.2202   -5.9459  -14.1126 C   0  0  0  0  0  0  0  0  0  0  0  0
   22.4926   -4.6046  -13.9015 O   0  0  0  0  0  0  0  0  0  0  0  0
   22.0162   -6.6450  -13.0874 O   0  0  0  0  0  0  0  0  0  0  0  0
  2  1  1  1
  2  3  1  0
  4  2  1  0
  4  5  2  0
  7  8  1  0
  7  6  1  0
  8  9  1  0
 10  9  1  6
 10 12  1  0
 10 11  1  0
 11  4  1  0
 12 14  1  0
 13 12  2  0
 14 15  1  0
 15 21  1  0
 15 16  1  1
 17 16  1  0
 18 17  1  0
 19 18  1  0
 20 19  1  0
 21 23  2  0
 21 22  1  0
M  END
$$$$
