AMK.pdb
     RDKit          3D

 23 22  0  0  1  0  0  0  0  0999 V2000
   19.2615  -11.9409  -17.2435 C   0  0  0  0  0  0  0  0  0  0  0  0
   20.6804  -11.7388  -17.7410 C   0  0  2  0  0  0  0  0  0  0  0  0
   21.2923  -13.0463  -17.8188 N   0  0  0  0  0  0  0  0  0  0  0  0
   21.4780  -10.8853  -16.8093 C   0  0  0  0  0  0  0  0  0  0  0  0
   21.3466  -11.0622  -15.5891 O   0  0  0  0  0  0  0  0  0  0  0  0
   26.8574  -11.7576  -15.0124 C   0  0  0  0  0  0  0  0  0  0  0  0
   25.9144  -10.2227  -15.2463 S   0  0  0  0  0  0  0  0  0  0  0  0
   25.2884  -10.2019  -16.9793 C   0  0  0  0  0  0  0  0  0  0  0  0
   24.5521   -8.9278  -17.2188 C   0  0  0  0  0  0  0  0  0  0  0  0
   23.1760   -9.0040  -16.5749 C   0  0  2  0  0  0  0  0  0  0  0  0
   22.3589   -9.9019  -17.3180 N   0  0  0  0  0  0  0  0  0  0  0  0
   22.6104   -7.6625  -16.4509 C   0  0  0  0  0  0  0  0  0  0  0  0
   22.5786   -6.9228  -17.4895 O   0  0  0  0  0  0  0  0  0  0  0  0
   22.0895   -7.1091  -15.2625 N   0  0  0  0  0  0  0  0  0  0  0  0
   21.5575   -5.7482  -15.1721 C   0  0  1  0  0  0  0  0  0  0  0  0
   20.0901   -5.7152  -14.9926 C   0  0  0  0  0  0  0  0  0  0  0  0
   19.2473   -6.5018  -15.9170 C   0  0  0  0  0  0  0  0  0  0  0  0
   18.1318   -7.2812  -15.2690 C   0  0  0  0  0  0  0  0  0  0  0  0
   17.4992   -8.1269  -16.3597 C   0  0  0  0  0  0  0  0  0  0  0  0
   16.9129   -7.2064  -17.3168 N   0  0  0  0  0  0  0  0  0  0  0  0
   22.3561   -4.9514  -14.2194 C   0  0  0  0  0  0  0  0  0  0  0  0
   22.1133   -3.6098  -13.9764 O   0  0  0  0  0  0  0  0  0  0  0  0
   23.3054   -5.4742  -13.5813 O   0  0  0  0  0  0  0  0  0  0  0  0
  2  1  1  1
  2  3  1  0
  4  2  1  0
  4  5  2  0
  7  8  1  0
  7  6  1  0
  8  9  1  0
 10  9  1  6
 10 12  1  0
 10 11  1  0
 11  4  1  0
 12 14  1  0
 13 12  2  0
 14 15  1  0
 15 21  1  0
 15 16  1  1
 17 16  1  0
 18 17  1  0
 19 18  1  0
 20 19  1  0
 21 23  2  0
 21 22  1  0
M  END
$$$$
