AMK.pdb
     RDKit          3D

 23 22  0  0  1  0  0  0  0  0999 V2000
   20.0211  -12.9613  -16.8111 C   0  0  0  0  0  0  0  0  0  0  0  0
   19.1063  -12.4844  -15.6987 C   0  0  2  0  0  0  0  0  0  0  0  0
   18.2094  -13.5756  -15.3907 N   0  0  0  0  0  0  0  0  0  0  0  0
   18.3001  -11.2972  -16.1149 C   0  0  0  0  0  0  0  0  0  0  0  0
   18.2498  -11.0120  -17.3206 O   0  0  0  0  0  0  0  0  0  0  0  0
   12.1380  -10.4692  -15.0482 C   0  0  0  0  0  0  0  0  0  0  0  0
   12.8112   -8.9554  -14.3033 S   0  0  0  0  0  0  0  0  0  0  0  0
   14.4395   -8.6113  -15.0944 C   0  0  0  0  0  0  0  0  0  0  0  0
   15.3917   -9.7060  -14.7515 C   0  0  0  0  0  0  0  0  0  0  0  0
   16.7472   -9.4197  -15.3797 C   0  0  2  0  0  0  0  0  0  0  0  0
   17.6147  -10.5241  -15.1483 N   0  0  0  0  0  0  0  0  0  0  0  0
   17.2686   -8.1498  -14.8792 C   0  0  0  0  0  0  0  0  0  0  0  0
   17.6922   -8.1032  -13.6771 O   0  0  0  0  0  0  0  0  0  0  0  0
   17.3437   -6.9543  -15.6243 N   0  0  0  0  0  0  0  0  0  0  0  0
   17.9025   -5.7085  -15.0961 C   0  0  1  0  0  0  0  0  0  0  0  0
   18.3563   -4.7858  -16.1587 C   0  0  0  0  0  0  0  0  0  0  0  0
   19.6286   -5.0771  -16.8516 C   0  0  0  0  0  0  0  0  0  0  0  0
   20.0324   -4.0796  -17.9069 C   0  0  0  0  0  0  0  0  0  0  0  0
   21.2392   -4.6628  -18.6199 C   0  0  0  0  0  0  0  0  0  0  0  0
   21.6155   -3.7139  -19.6518 N   0  0  0  0  0  0  0  0  0  0  0  0
   17.0038   -5.1417  -14.0706 C   0  0  0  0  0  0  0  0  0  0  0  0
   17.4640   -4.3816  -13.0084 O   0  0  0  0  0  0  0  0  0  0  0  0
   15.7622   -5.3334  -14.1269 O   0  0  0  0  0  0  0  0  0  0  0  0
  2  1  1  6
  2  3  1  0
  4  2  1  0
  4  5  2  0
  7  8  1  0
  7  6  1  0
  8  9  1  0
 10  9  1  1
 10 12  1  0
 10 11  1  0
 11  4  1  0
 12 14  1  0
 13 12  2  0
 14 15  1  0
 15 21  1  0
 15 16  1  6
 17 16  1  0
 18 17  1  0
 19 18  1  0
 20 19  1  0
 21 23  2  0
 21 22  1  0
M  END
$$$$
