AMK.pdb
     RDKit          3D

 23 22  0  0  1  0  0  0  0  0999 V2000
   28.8372  -21.6255  -15.5875 C   0  0  0  0  0  0  0  0  0  0  0  0
   27.7422  -20.6346  -15.2399 C   0  0  2  0  0  0  0  0  0  0  0  0
   28.3384  -19.6231  -14.3965 N   0  0  0  0  0  0  0  0  0  0  0  0
   26.6210  -21.2857  -14.4971 C   0  0  0  0  0  0  0  0  0  0  0  0
   26.0412  -22.2451  -15.0272 O   0  0  0  0  0  0  0  0  0  0  0  0
   25.0162  -20.6310   -7.8785 C   0  0  0  0  0  0  0  0  0  0  0  0
   26.6639  -20.6096   -8.6432 S   0  0  0  0  0  0  0  0  0  0  0  0
   26.5072  -21.3011  -10.3440 C   0  0  0  0  0  0  0  0  0  0  0  0
   25.3122  -20.7051  -11.0070 C   0  0  0  0  0  0  0  0  0  0  0  0
   25.1666  -21.2778  -12.4087 C   0  0  2  0  0  0  0  0  0  0  0  0
   26.2385  -20.8109  -13.2204 N   0  0  0  0  0  0  0  0  0  0  0  0
   23.8446  -20.9568  -12.9418 C   0  0  0  0  0  0  0  0  0  0  0  0
   23.6225  -19.7606  -13.3245 O   0  0  0  0  0  0  0  0  0  0  0  0
   22.7784  -21.8716  -13.0703 N   0  0  0  0  0  0  0  0  0  0  0  0
   21.5355  -21.5668  -13.7813 C   0  0  1  0  0  0  0  0  0  0  0  0
   21.0944  -22.6667  -14.6657 C   0  0  0  0  0  0  0  0  0  0  0  0
   19.8384  -22.5011  -15.4265 C   0  0  0  0  0  0  0  0  0  0  0  0
   19.4753  -23.6506  -16.3313 C   0  0  0  0  0  0  0  0  0  0  0  0
   18.2107  -23.2445  -17.0668 C   0  0  0  0  0  0  0  0  0  0  0  0
   17.8545  -24.3541  -17.9322 N   0  0  0  0  0  0  0  0  0  0  0  0
   20.5293  -21.0323  -12.8420 C   0  0  0  0  0  0  0  0  0  0  0  0
   19.5394  -20.1447  -13.2293 O   0  0  0  0  0  0  0  0  0  0  0  0
   20.5359  -21.3718  -11.6311 O   0  0  0  0  0  0  0  0  0  0  0  0
  2  1  1  1
  2  3  1  0
  4  2  1  0
  4  5  2  0
  7  8  1  0
  7  6  1  0
  8  9  1  0
 10  9  1  1
 10 12  1  0
 10 11  1  0
 11  4  1  0
 12 14  1  0
 13 12  2  0
 14 15  1  0
 15 21  1  0
 15 16  1  1
 17 16  1  0
 18 17  1  0
 19 18  1  0
 20 19  1  0
 21 23  2  0
 21 22  1  0
M  END
$$$$
