AMK.pdb
     RDKit          3D

 23 22  0  0  1  0  0  0  0  0999 V2000
   20.9733  -17.1052  -17.7492 C   0  0  0  0  0  0  0  0  0  0  0  0
   20.8825  -15.6730  -18.2413 C   0  0  2  0  0  0  0  0  0  0  0  0
   21.7327  -15.5706  -19.4061 N   0  0  0  0  0  0  0  0  0  0  0  0
   21.3554  -14.7014  -17.2093 C   0  0  0  0  0  0  0  0  0  0  0  0
   20.7334  -14.6288  -16.1390 O   0  0  0  0  0  0  0  0  0  0  0  0
   27.6813  -10.4310  -15.2264 C   0  0  0  0  0  0  0  0  0  0  0  0
   26.9554  -11.6205  -16.3918 S   0  0  0  0  0  0  0  0  0  0  0  0
   25.1575  -11.7592  -16.0121 C   0  0  0  0  0  0  0  0  0  0  0  0
   24.5388  -12.7584  -16.9295 C   0  0  0  0  0  0  0  0  0  0  0  0
   23.0654  -12.9217  -16.5885 C   0  0  2  0  0  0  0  0  0  0  0  0
   22.4866  -13.8888  -17.4577 N   0  0  0  0  0  0  0  0  0  0  0  0
   22.3986  -11.6222  -16.6304 C   0  0  0  0  0  0  0  0  0  0  0  0
   22.1619  -11.1020  -17.7706 O   0  0  0  0  0  0  0  0  0  0  0  0
   21.9893  -10.8843  -15.5000 N   0  0  0  0  0  0  0  0  0  0  0  0
   21.2570   -9.6194  -15.5843 C   0  0  1  0  0  0  0  0  0  0  0  0
   19.7957   -9.7901  -15.4369 C   0  0  0  0  0  0  0  0  0  0  0  0
   18.9337   -8.5919  -15.5072 C   0  0  0  0  0  0  0  0  0  0  0  0
   17.4508   -8.8612  -15.4904 C   0  0  0  0  0  0  0  0  0  0  0  0
   16.7629   -7.5330  -15.7503 C   0  0  0  0  0  0  0  0  0  0  0  0
   15.3415   -7.8096  -15.8499 N   0  0  0  0  0  0  0  0  0  0  0  0
   21.8926   -8.6044  -14.7205 C   0  0  0  0  0  0  0  0  0  0  0  0
   22.0506   -7.2840  -15.1072 O   0  0  0  0  0  0  0  0  0  0  0  0
   22.3221   -8.9097  -13.5787 O   0  0  0  0  0  0  0  0  0  0  0  0
  2  1  1  1
  2  3  1  0
  4  2  1  0
  4  5  2  0
  7  8  1  0
  7  6  1  0
  8  9  1  0
 10  9  1  6
 10 12  1  0
 10 11  1  0
 11  4  1  0
 12 14  1  0
 13 12  2  0
 14 15  1  0
 15 21  1  0
 15 16  1  1
 17 16  1  0
 18 17  1  0
 19 18  1  0
 20 19  1  0
 21 23  2  0
 21 22  1  0
M  END
$$$$
