AMK.pdb
     RDKit          3D

 23 22  0  0  1  0  0  0  0  0999 V2000
   27.4405  -23.1579  -16.5023 C   0  0  0  0  0  0  0  0  0  0  0  0
   26.8825  -21.7882  -16.1642 C   0  0  2  0  0  0  0  0  0  0  0  0
   28.0098  -20.9323  -15.8702 N   0  0  0  0  0  0  0  0  0  0  0  0
   25.9850  -21.8347  -14.9705 C   0  0  0  0  0  0  0  0  0  0  0  0
   24.8633  -22.3481  -15.0958 O   0  0  0  0  0  0  0  0  0  0  0  0
   24.8385  -21.1719   -7.5878 C   0  0  0  0  0  0  0  0  0  0  0  0
   25.9646  -21.5187   -8.9703 S   0  0  0  0  0  0  0  0  0  0  0  0
   25.6901  -20.2316  -10.2601 C   0  0  0  0  0  0  0  0  0  0  0  0
   26.5245  -20.5488  -11.4542 C   0  0  0  0  0  0  0  0  0  0  0  0
   25.6527  -21.1653  -12.5377 C   0  0  2  0  0  0  0  0  0  0  0  0
   26.4148  -21.3027  -13.7319 N   0  0  0  0  0  0  0  0  0  0  0  0
   24.4359  -20.3742  -12.7064 C   0  0  0  0  0  0  0  0  0  0  0  0
   24.5551  -19.1416  -13.0116 O   0  0  0  0  0  0  0  0  0  0  0  0
   23.1222  -20.8661  -12.5579 N   0  0  0  0  0  0  0  0  0  0  0  0
   21.9552  -20.2549  -13.1964 C   0  0  1  0  0  0  0  0  0  0  0  0
   22.1142  -20.1012  -14.6584 C   0  0  0  0  0  0  0  0  0  0  0  0
   20.9825  -19.5598  -15.4393 C   0  0  0  0  0  0  0  0  0  0  0  0
   21.2046  -19.4801  -16.9280 C   0  0  0  0  0  0  0  0  0  0  0  0
   19.9277  -18.9222  -17.5306 C   0  0  0  0  0  0  0  0  0  0  0  0
   20.1385  -18.8483  -18.9648 N   0  0  0  0  0  0  0  0  0  0  0  0
   20.7177  -20.9145  -12.7338 C   0  0  0  0  0  0  0  0  0  0  0  0
   20.6886  -22.2257  -12.2889 O   0  0  0  0  0  0  0  0  0  0  0  0
   19.6230  -20.2956  -12.7273 O   0  0  0  0  0  0  0  0  0  0  0  0
  2  1  1  1
  2  3  1  0
  4  2  1  0
  4  5  2  0
  7  8  1  0
  7  6  1  0
  8  9  1  0
 10  9  1  1
 10 12  1  0
 10 11  1  0
 11  4  1  0
 12 14  1  0
 13 12  2  0
 14 15  1  0
 15 21  1  0
 15 16  1  6
 17 16  1  0
 18 17  1  0
 19 18  1  0
 20 19  1  0
 21 23  2  0
 21 22  1  0
M  END
$$$$
