AMK.pdb
     RDKit          3D

 23 22  0  0  1  0  0  0  0  0999 V2000
   28.9586  -21.8034  -15.0305 C   0  0  0  0  0  0  0  0  0  0  0  0
   27.7528  -20.8964  -14.8726 C   0  0  2  0  0  0  0  0  0  0  0  0
   28.2382  -19.6295  -14.3733 N   0  0  0  0  0  0  0  0  0  0  0  0
   26.7638  -21.4534  -13.9009 C   0  0  0  0  0  0  0  0  0  0  0  0
   26.2201  -22.5354  -14.1679 O   0  0  0  0  0  0  0  0  0  0  0  0
   26.2403  -19.2874   -7.7382 C   0  0  0  0  0  0  0  0  0  0  0  0
   27.6195  -20.3451   -8.2661 S   0  0  0  0  0  0  0  0  0  0  0  0
   27.1530  -21.1248   -9.8693 C   0  0  0  0  0  0  0  0  0  0  0  0
   25.9135  -20.4776  -10.3864 C   0  0  0  0  0  0  0  0  0  0  0  0
   25.5163  -21.1170  -11.7082 C   0  0  2  0  0  0  0  0  0  0  0  0
   26.4624  -20.7548  -12.7081 N   0  0  0  0  0  0  0  0  0  0  0  0
   24.1413  -20.7533  -12.0430 C   0  0  0  0  0  0  0  0  0  0  0  0
   23.9403  -19.6523  -12.6546 O   0  0  0  0  0  0  0  0  0  0  0  0
   23.0017  -21.5283  -11.7421 N   0  0  0  0  0  0  0  0  0  0  0  0
   21.6452  -21.1609  -12.1521 C   0  0  1  0  0  0  0  0  0  0  0  0
   20.6664  -22.2492  -11.9425 C   0  0  0  0  0  0  0  0  0  0  0  0
   19.2589  -22.0177  -12.3284 C   0  0  0  0  0  0  0  0  0  0  0  0
   18.3105  -23.1478  -12.0198 C   0  0  0  0  0  0  0  0  0  0  0  0
   16.9317  -22.6945  -12.4654 C   0  0  0  0  0  0  0  0  0  0  0  0
   15.9989  -23.7306  -12.0613 N   0  0  0  0  0  0  0  0  0  0  0  0
   21.2877  -19.8379  -11.6023 C   0  0  0  0  0  0  0  0  0  0  0  0
   20.5854  -18.8898  -12.3275 O   0  0  0  0  0  0  0  0  0  0  0  0
   21.6153  -19.5186  -10.4309 O   0  0  0  0  0  0  0  0  0  0  0  0
  2  1  1  1
  2  3  1  0
  4  2  1  0
  4  5  2  0
  7  8  1  0
  7  6  1  0
  8  9  1  0
 10  9  1  1
 10 12  1  0
 10 11  1  0
 11  4  1  0
 12 14  1  0
 13 12  2  0
 14 15  1  0
 15 21  1  0
 15 16  1  1
 17 16  1  0
 18 17  1  0
 19 18  1  0
 20 19  1  0
 21 23  2  0
 21 22  1  0
M  END
$$$$
