AMK.pdb
     RDKit          3D

 23 22  0  0  1  0  0  0  0  0999 V2000
   21.6621  -14.8348  -18.9319 C   0  0  0  0  0  0  0  0  0  0  0  0
   22.1680  -13.4181  -19.1284 C   0  0  2  0  0  0  0  0  0  0  0  0
   23.4791  -13.5160  -19.7295 N   0  0  0  0  0  0  0  0  0  0  0  0
   22.2831  -12.6858  -17.8311 C   0  0  0  0  0  0  0  0  0  0  0  0
   21.2713  -12.5795  -17.1222 O   0  0  0  0  0  0  0  0  0  0  0  0
   28.1300  -13.3159  -16.3565 C   0  0  0  0  0  0  0  0  0  0  0  0
   27.1702  -13.1021  -14.8292 S   0  0  0  0  0  0  0  0  0  0  0  0
   25.4037  -12.8693  -15.2991 C   0  0  0  0  0  0  0  0  0  0  0  0
   25.2216  -11.4986  -15.8566 C   0  0  0  0  0  0  0  0  0  0  0  0
   23.7767  -11.3127  -16.2945 C   0  0  2  0  0  0  0  0  0  0  0  0
   23.5216  -12.1310  -17.4309 N   0  0  0  0  0  0  0  0  0  0  0  0
   23.5042   -9.8950  -16.5199 C   0  0  0  0  0  0  0  0  0  0  0  0
   23.8532   -9.3833  -17.6348 O   0  0  0  0  0  0  0  0  0  0  0  0
   22.8791   -9.0328  -15.5949 N   0  0  0  0  0  0  0  0  0  0  0  0
   22.3779   -7.7023  -15.9439 C   0  0  1  0  0  0  0  0  0  0  0  0
   21.4896   -7.7142  -17.1260 C   0  0  0  0  0  0  0  0  0  0  0  0
   20.8611   -6.4460  -17.5505 C   0  0  0  0  0  0  0  0  0  0  0  0
   19.9289   -6.5504  -18.7302 C   0  0  0  0  0  0  0  0  0  0  0  0
   19.4116   -5.1494  -19.0031 C   0  0  0  0  0  0  0  0  0  0  0  0
   18.5651   -5.2367  -20.1791 N   0  0  0  0  0  0  0  0  0  0  0  0
   21.8635   -7.0197  -14.7398 C   0  0  0  0  0  0  0  0  0  0  0  0
   21.7200   -7.6590  -13.5197 O   0  0  0  0  0  0  0  0  0  0  0  0
   21.5304   -5.8077  -14.7806 O   0  0  0  0  0  0  0  0  0  0  0  0
  2  1  1  1
  2  3  1  0
  4  2  1  0
  4  5  2  0
  7  8  1  0
  7  6  1  0
  8  9  1  0
 10  9  1  6
 10 12  1  0
 10 11  1  0
 11  4  1  0
 12 14  1  0
 13 12  2  0
 14 15  1  0
 15 21  1  0
 15 16  1  6
 17 16  1  0
 18 17  1  0
 19 18  1  0
 20 19  1  0
 21 23  2  0
 21 22  1  0
M  END
$$$$
