AMK.pdb
     RDKit          3D

 23 22  0  0  1  0  0  0  0  0999 V2000
   13.8669  -17.4193    4.9308 C   0  0  0  0  0  0  0  0  0  0  0  0
   14.9779  -16.9679    4.0015 C   0  0  2  0  0  0  0  0  0  0  0  0
   15.1758  -18.0237    3.0339 N   0  0  0  0  0  0  0  0  0  0  0  0
   16.2578  -16.7394    4.7379 C   0  0  0  0  0  0  0  0  0  0  0  0
   17.0214  -17.7018    4.9057 O   0  0  0  0  0  0  0  0  0  0  0  0
   19.3567  -11.0919    6.3676 C   0  0  0  0  0  0  0  0  0  0  0  0
   19.5253  -11.7641    4.6885 S   0  0  0  0  0  0  0  0  0  0  0  0
   18.4856  -13.2816    4.5796 C   0  0  0  0  0  0  0  0  0  0  0  0
   17.9305  -13.5928    5.9278 C   0  0  0  0  0  0  0  0  0  0  0  0
   17.6866  -15.0896    6.0470 C   0  0  2  0  0  0  0  0  0  0  0  0
   16.5805  -15.4519    5.2277 N   0  0  0  0  0  0  0  0  0  0  0  0
   17.5204  -15.4557    7.4518 C   0  0  0  0  0  0  0  0  0  0  0  0
   16.3504  -15.3975    7.9561 O   0  0  0  0  0  0  0  0  0  0  0  0
   18.5599  -15.8736    8.3090 N   0  0  0  0  0  0  0  0  0  0  0  0
   18.3461  -16.2713    9.7016 C   0  0  1  0  0  0  0  0  0  0  0  0
   18.4475  -17.7325    9.9044 C   0  0  0  0  0  0  0  0  0  0  0  0
   18.2217  -18.2750   11.2603 C   0  0  0  0  0  0  0  0  0  0  0  0
   18.3167  -19.7744   11.3800 C   0  0  0  0  0  0  0  0  0  0  0  0
   18.0765  -20.1119   12.8406 C   0  0  0  0  0  0  0  0  0  0  0  0
   17.9754  -21.5574   12.9257 N   0  0  0  0  0  0  0  0  0  0  0  0
   19.1518  -15.4233   10.6028 C   0  0  0  0  0  0  0  0  0  0  0  0
   18.8978  -15.3196   11.9602 O   0  0  0  0  0  0  0  0  0  0  0  0
   20.1178  -14.7508   10.1599 O   0  0  0  0  0  0  0  0  0  0  0  0
  2  1  1  1
  2  3  1  0
  4  2  1  0
  4  5  2  0
  7  8  1  0
  7  6  1  0
  8  9  1  0
 10  9  1  1
 10 12  1  0
 10 11  1  0
 11  4  1  0
 12 14  1  0
 13 12  2  0
 14 15  1  0
 15 21  1  0
 15 16  1  6
 17 16  1  0
 18 17  1  0
 19 18  1  0
 20 19  1  0
 21 23  2  0
 21 22  1  0
M  END
$$$$
