AMK.pdb
     RDKit          3D

 23 22  0  0  1  0  0  0  0  0999 V2000
   22.1230  -23.8314  -11.1975 C   0  0  0  0  0  0  0  0  0  0  0  0
   23.2629  -23.4025  -12.1021 C   0  0  2  0  0  0  0  0  0  0  0  0
   24.3604  -24.3120  -11.8608 N   0  0  0  0  0  0  0  0  0  0  0  0
   23.7133  -22.0094  -11.8035 C   0  0  0  0  0  0  0  0  0  0  0  0
   22.9152  -21.0790  -11.9900 O   0  0  0  0  0  0  0  0  0  0  0  0
   28.6326  -20.6782   -7.6556 C   0  0  0  0  0  0  0  0  0  0  0  0
   27.0977  -19.7406   -7.4010 S   0  0  0  0  0  0  0  0  0  0  0  0
   25.8821  -20.2892   -8.6727 C   0  0  0  0  0  0  0  0  0  0  0  0
   26.6062  -20.6124   -9.9352 C   0  0  0  0  0  0  0  0  0  0  0  0
   25.6498  -20.5091  -11.1136 C   0  0  2  0  0  0  0  0  0  0  0  0
   25.0211  -21.7692  -11.3200 N   0  0  0  0  0  0  0  0  0  0  0  0
   26.3608  -20.0093  -12.2883 C   0  0  0  0  0  0  0  0  0  0  0  0
   27.6354  -19.9790  -12.2544 O   0  0  0  0  0  0  0  0  0  0  0  0
   25.7472  -19.5510  -13.4729 N   0  0  0  0  0  0  0  0  0  0  0  0
   26.3843  -19.6182  -14.7893 C   0  0  1  0  0  0  0  0  0  0  0  0
   26.7688  -20.9937  -15.1725 C   0  0  0  0  0  0  0  0  0  0  0  0
   28.0995  -21.2131  -15.7763 C   0  0  0  0  0  0  0  0  0  0  0  0
   28.4107  -22.6390  -16.1527 C   0  0  0  0  0  0  0  0  0  0  0  0
   29.7680  -22.6247  -16.8327 C   0  0  0  0  0  0  0  0  0  0  0  0
   30.0881  -24.0025  -17.1586 N   0  0  0  0  0  0  0  0  0  0  0  0
   25.5949  -18.8552  -15.7768 C   0  0  0  0  0  0  0  0  0  0  0  0
   26.1776  -18.1271  -16.8006 O   0  0  0  0  0  0  0  0  0  0  0  0
   24.3386  -18.8393  -15.7217 O   0  0  0  0  0  0  0  0  0  0  0  0
  2  1  1  1
  2  3  1  0
  4  2  1  0
  4  5  2  0
  7  8  1  0
  7  6  1  0
  8  9  1  0
 10  9  1  1
 10 12  1  0
 10 11  1  0
 11  4  1  0
 12 14  1  0
 13 12  2  0
 14 15  1  0
 15 21  1  0
 15 16  1  6
 17 16  1  0
 18 17  1  0
 19 18  1  0
 20 19  1  0
 21 23  2  0
 21 22  1  0
M  END
$$$$
