AMK.pdb
     RDKit          3D

 23 22  0  0  1  0  0  0  0  0999 V2000
   28.9574  -21.2788  -14.4828 C   0  0  0  0  0  0  0  0  0  0  0  0
   27.7532  -20.3762  -14.2908 C   0  0  2  0  0  0  0  0  0  0  0  0
   28.2256  -19.1710  -13.6471 N   0  0  0  0  0  0  0  0  0  0  0  0
   26.7155  -21.0133  -13.4248 C   0  0  0  0  0  0  0  0  0  0  0  0
   26.1954  -22.0713  -13.8090 O   0  0  0  0  0  0  0  0  0  0  0  0
   28.1734  -19.4831   -7.6741 C   0  0  0  0  0  0  0  0  0  0  0  0
   26.9877  -20.8579   -7.6126 S   0  0  0  0  0  0  0  0  0  0  0  0
   26.5985  -21.3472   -9.3460 C   0  0  0  0  0  0  0  0  0  0  0  0
   25.6035  -20.3925   -9.9129 C   0  0  0  0  0  0  0  0  0  0  0  0
   25.2694  -20.7913  -11.3423 C   0  0  2  0  0  0  0  0  0  0  0  0
   26.3429  -20.4152  -12.1979 N   0  0  0  0  0  0  0  0  0  0  0  0
   23.9823  -20.2186  -11.7301 C   0  0  0  0  0  0  0  0  0  0  0  0
   23.9407  -18.9817  -12.0385 O   0  0  0  0  0  0  0  0  0  0  0  0
   22.7651  -20.9286  -11.7928 N   0  0  0  0  0  0  0  0  0  0  0  0
   21.6819  -20.5922  -12.7184 C   0  0  1  0  0  0  0  0  0  0  0  0
   22.1472  -20.4262  -14.1121 C   0  0  0  0  0  0  0  0  0  0  0  0
   21.1649  -20.0303  -15.1426 C   0  0  0  0  0  0  0  0  0  0  0  0
   21.7241  -19.8427  -16.5296 C   0  0  0  0  0  0  0  0  0  0  0  0
   20.5543  -19.4794  -17.4265 C   0  0  0  0  0  0  0  0  0  0  0  0
   21.0931  -19.2857  -18.7604 N   0  0  0  0  0  0  0  0  0  0  0  0
   20.5343  -21.4978  -12.5101 C   0  0  0  0  0  0  0  0  0  0  0  0
   19.2524  -21.0376  -12.2593 O   0  0  0  0  0  0  0  0  0  0  0  0
   20.6837  -22.7457  -12.5541 O   0  0  0  0  0  0  0  0  0  0  0  0
  2  1  1  1
  2  3  1  0
  4  2  1  0
  4  5  2  0
  7  8  1  0
  7  6  1  0
  8  9  1  0
 10  9  1  1
 10 12  1  0
 10 11  1  0
 11  4  1  0
 12 14  1  0
 13 12  2  0
 14 15  1  0
 15 21  1  0
 15 16  1  6
 17 16  1  0
 18 17  1  0
 19 18  1  0
 20 19  1  0
 21 23  2  0
 21 22  1  0
M  END
$$$$
