AMK.pdb
     RDKit          3D

 23 22  0  0  1  0  0  0  0  0999 V2000
   20.5997  -12.7900  -20.0401 C   0  0  0  0  0  0  0  0  0  0  0  0
   22.0139  -12.6092  -19.5214 C   0  0  2  0  0  0  0  0  0  0  0  0
   22.5770  -13.9306  -19.3571 N   0  0  0  0  0  0  0  0  0  0  0  0
   22.0351  -11.9060  -18.2032 C   0  0  0  0  0  0  0  0  0  0  0  0
   21.2764  -12.3078  -17.3084 O   0  0  0  0  0  0  0  0  0  0  0  0
   27.5977  -12.2373  -14.8537 C   0  0  0  0  0  0  0  0  0  0  0  0
   26.9010  -10.7162  -15.5613 S   0  0  0  0  0  0  0  0  0  0  0  0
   25.1354  -11.0423  -15.9759 C   0  0  0  0  0  0  0  0  0  0  0  0
   24.5266   -9.8019  -16.5360 C   0  0  0  0  0  0  0  0  0  0  0  0
   23.0479  -10.0354  -16.8061 C   0  0  2  0  0  0  0  0  0  0  0  0
   22.9036  -10.8094  -17.9919 N   0  0  0  0  0  0  0  0  0  0  0  0
   22.3430   -8.7563  -16.8516 C   0  0  0  0  0  0  0  0  0  0  0  0
   22.5010   -8.0165  -17.8786 O   0  0  0  0  0  0  0  0  0  0  0  0
   21.4910   -8.2639  -15.8409 N   0  0  0  0  0  0  0  0  0  0  0  0
   20.7290   -7.0199  -15.9636 C   0  0  1  0  0  0  0  0  0  0  0  0
   19.2665   -7.2363  -15.9369 C   0  0  0  0  0  0  0  0  0  0  0  0
   18.6467   -8.0113  -17.0319 C   0  0  0  0  0  0  0  0  0  0  0  0
   17.1464   -8.1384  -16.9642 C   0  0  0  0  0  0  0  0  0  0  0  0
   16.7097   -8.8385  -18.2386 C   0  0  0  0  0  0  0  0  0  0  0  0
   15.2589   -8.7996  -18.2622 N   0  0  0  0  0  0  0  0  0  0  0  0
   21.2618   -6.0026  -15.0353 C   0  0  0  0  0  0  0  0  0  0  0  0
   20.9664   -4.6546  -15.1510 O   0  0  0  0  0  0  0  0  0  0  0  0
   22.0189   -6.3316  -14.0866 O   0  0  0  0  0  0  0  0  0  0  0  0
  2  1  1  1
  2  3  1  0
  4  2  1  0
  4  5  2  0
  7  8  1  0
  7  6  1  0
  8  9  1  0
 10  9  1  6
 10 12  1  0
 10 11  1  0
 11  4  1  0
 12 14  1  0
 13 12  2  0
 14 15  1  0
 15 21  1  0
 15 16  1  1
 17 16  1  0
 18 17  1  0
 19 18  1  0
 20 19  1  0
 21 23  2  0
 21 22  1  0
M  END
$$$$
