AMK.pdb
     RDKit          3D

 23 22  0  0  1  0  0  0  0  0999 V2000
   29.5154  -21.9986  -13.6732 C   0  0  0  0  0  0  0  0  0  0  0  0
   28.5665  -20.9202  -13.1850 C   0  0  2  0  0  0  0  0  0  0  0  0
   29.3795  -19.8129  -12.7344 N   0  0  0  0  0  0  0  0  0  0  0  0
   27.7238  -21.3973  -12.0470 C   0  0  0  0  0  0  0  0  0  0  0  0
   26.8974  -22.2965  -12.2617 O   0  0  0  0  0  0  0  0  0  0  0  0
   28.7778  -20.5331   -5.4625 C   0  0  0  0  0  0  0  0  0  0  0  0
   27.3408  -19.4895   -5.8442 S   0  0  0  0  0  0  0  0  0  0  0  0
   26.5421  -20.1602   -7.3633 C   0  0  0  0  0  0  0  0  0  0  0  0
   27.5344  -20.1675   -8.4760 C   0  0  0  0  0  0  0  0  0  0  0  0
   26.9032  -20.7748   -9.7197 C   0  0  2  0  0  0  0  0  0  0  0  0
   27.8734  -20.8297  -10.7597 N   0  0  0  0  0  0  0  0  0  0  0  0
   25.6989  -20.0299  -10.0801 C   0  0  0  0  0  0  0  0  0  0  0  0
   25.8338  -18.8375  -10.5123 O   0  0  0  0  0  0  0  0  0  0  0  0
   24.3814  -20.5256   -9.9887 N   0  0  0  0  0  0  0  0  0  0  0  0
   23.3049  -20.1269  -10.8972 C   0  0  1  0  0  0  0  0  0  0  0  0
   23.6028  -20.4354  -12.3123 C   0  0  0  0  0  0  0  0  0  0  0  0
   22.5776  -20.1326  -13.3325 C   0  0  0  0  0  0  0  0  0  0  0  0
   22.9703  -20.4421  -14.7544 C   0  0  0  0  0  0  0  0  0  0  0  0
   21.8333  -19.9583  -15.6365 C   0  0  0  0  0  0  0  0  0  0  0  0
   22.2786  -20.1016  -17.0106 N   0  0  0  0  0  0  0  0  0  0  0  0
   22.0030  -20.5948  -10.3806 C   0  0  0  0  0  0  0  0  0  0  0  0
   21.8891  -21.6070   -9.4423 O   0  0  0  0  0  0  0  0  0  0  0  0
   20.9289  -20.0794  -10.7830 O   0  0  0  0  0  0  0  0  0  0  0  0
  2  1  1  1
  2  3  1  0
  4  2  1  0
  4  5  2  0
  7  8  1  0
  7  6  1  0
  8  9  1  0
 10  9  1  1
 10 12  1  0
 10 11  1  0
 11  4  1  0
 12 14  1  0
 13 12  2  0
 14 15  1  0
 15 21  1  0
 15 16  1  6
 17 16  1  0
 18 17  1  0
 19 18  1  0
 20 19  1  0
 21 23  2  0
 21 22  1  0
M  END
$$$$
