AMK.pdb
     RDKit          3D

 23 22  0  0  1  0  0  0  0  0999 V2000
   20.5094  -20.1995   -8.3759 C   0  0  0  0  0  0  0  0  0  0  0  0
   21.4707  -21.2221   -8.9518 C   0  0  2  0  0  0  0  0  0  0  0  0
   21.7627  -22.1690   -7.8991 N   0  0  0  0  0  0  0  0  0  0  0  0
   22.7474  -20.5901   -9.4029 C   0  0  0  0  0  0  0  0  0  0  0  0
   22.6951  -19.7200  -10.2848 O   0  0  0  0  0  0  0  0  0  0  0  0
   27.4905  -18.2385   -5.9827 C   0  0  0  0  0  0  0  0  0  0  0  0
   28.3845  -19.6443   -6.7069 S   0  0  0  0  0  0  0  0  0  0  0  0
   27.5402  -20.1020   -8.2796 C   0  0  0  0  0  0  0  0  0  0  0  0
   26.2005  -20.6768   -7.9671 C   0  0  0  0  0  0  0  0  0  0  0  0
   25.2801  -20.5092   -9.1665 C   0  0  2  0  0  0  0  0  0  0  0  0
   23.9804  -20.9826   -8.8308 N   0  0  0  0  0  0  0  0  0  0  0  0
   25.8606  -21.1682  -10.3343 C   0  0  0  0  0  0  0  0  0  0  0  0
   25.8638  -22.4431  -10.3681 O   0  0  0  0  0  0  0  0  0  0  0  0
   26.4256  -20.5033  -11.4427 N   0  0  0  0  0  0  0  0  0  0  0  0
   26.4010  -21.0410  -12.8042 C   0  0  1  0  0  0  0  0  0  0  0  0
   25.0869  -20.8794  -13.4626 C   0  0  0  0  0  0  0  0  0  0  0  0
   24.9058  -21.4280  -14.8227 C   0  0  0  0  0  0  0  0  0  0  0  0
   23.5748  -21.1338  -15.4658 C   0  0  0  0  0  0  0  0  0  0  0  0
   23.6024  -21.7775  -16.8405 C   0  0  0  0  0  0  0  0  0  0  0  0
   22.3722  -21.3929  -17.5081 N   0  0  0  0  0  0  0  0  0  0  0  0
   27.5791  -20.5695  -13.5594 C   0  0  0  0  0  0  0  0  0  0  0  0
   28.3964  -21.4223  -14.2822 O   0  0  0  0  0  0  0  0  0  0  0  0
   27.8883  -19.3506  -13.5731 O   0  0  0  0  0  0  0  0  0  0  0  0
  2  1  1  1
  2  3  1  0
  4  2  1  0
  4  5  2  0
  7  8  1  0
  7  6  1  0
  8  9  1  0
 10  9  1  1
 10 12  1  0
 10 11  1  0
 11  4  1  0
 12 14  1  0
 13 12  2  0
 14 15  1  0
 15 21  1  0
 15 16  1  6
 17 16  1  0
 18 17  1  0
 19 18  1  0
 20 19  1  0
 21 23  2  0
 21 22  1  0
M  END
$$$$
