WNR.pdb
     RDKit          3D

 34 35  0  0  1  0  0  0  0  0999 V2000
    6.7475  -17.7246   24.6239 N   0  0  0  0  0  0  0  0  0  0  0  0
    7.8696  -16.8465   24.4354 C   0  0  1  0  0  0  0  0  0  0  0  0
    8.1776  -16.0293   25.6651 C   0  0  0  0  0  0  0  0  0  0  0  0
    7.1710  -14.9563   25.8641 C   0  0  0  0  0  0  0  0  0  0  0  0
    5.8230  -15.0514   26.1215 C   0  0  0  0  0  0  0  0  0  0  0  0
    5.3043  -13.8142   26.2254 N   0  0  0  0  0  0  0  0  0  0  0  0
    6.2724  -12.9014   26.0440 C   0  0  0  0  0  0  0  0  0  0  0  0
    6.3000  -11.5274   26.0447 C   0  0  0  0  0  0  0  0  0  0  0  0
    7.4687  -10.8534   25.8243 C   0  0  0  0  0  0  0  0  0  0  0  0
    8.6502  -11.5266   25.5958 C   0  0  0  0  0  0  0  0  0  0  0  0
    8.6050  -12.9115   25.5987 C   0  0  0  0  0  0  0  0  0  0  0  0
    7.4392  -13.5914   25.8184 C   0  0  0  0  0  0  0  0  0  0  0  0
    9.0220  -17.5807   23.9015 C   0  0  0  0  0  0  0  0  0  0  0  0
    9.2028  -18.7687   24.3541 O   0  0  0  0  0  0  0  0  0  0  0  0
   11.9820  -18.5301   19.4543 N   0  0  0  0  0  0  0  0  0  0  0  0
   11.2286  -17.5632   20.2449 C   0  0  0  0  0  0  0  0  0  0  0  0
   10.1588  -17.1769   19.7510 O   0  0  0  0  0  0  0  0  0  0  0  0
   11.7955  -17.1585   21.5041 C   0  0  0  0  0  0  0  0  0  0  0  0
   11.2425  -17.7549   22.7768 C   0  0  2  0  0  0  0  0  0  0  0  0
    9.9160  -17.0615   22.9430 N   0  0  0  0  0  0  0  0  0  0  0  0
   12.0446  -17.4322   23.9680 C   0  0  0  0  0  0  0  0  0  0  0  0
   12.7816  -16.3733   23.9029 O   0  0  0  0  0  0  0  0  0  0  0  0
   11.6483  -21.4798   29.8918 N   0  0  0  0  0  0  0  0  0  0  0  0
   10.3767  -21.1981   29.3116 C   0  0  0  0  0  0  0  0  0  0  0  0
    9.7357  -22.1834   28.8179 N   0  0  0  0  0  0  0  0  0  0  0  0
    9.8756  -19.8827   29.2969 N   0  0  0  0  0  0  0  0  0  0  0  0
   10.7468  -18.7728   29.0501 C   0  0  0  0  0  0  0  0  0  0  0  0
   11.4431  -18.9050   27.7126 C   0  0  0  0  0  0  0  0  0  0  0  0
   12.2430  -17.6319   27.5193 C   0  0  0  0  0  0  0  0  0  0  0  0
   13.0571  -17.7513   26.2489 C   0  0  2  0  0  0  0  0  0  0  0  0
   12.1253  -18.1102   25.1845 N   0  0  0  0  0  0  0  0  0  0  0  0
   14.0561  -18.8124   26.4786 C   0  0  0  0  0  0  0  0  0  0  0  0
   13.9888  -19.9954   25.7864 O   0  0  0  0  0  0  0  0  0  0  0  0
   14.9631  -18.6243   27.3081 O   0  0  0  0  0  0  0  0  0  0  0  0
  2  1  1  1
  3  4  1  0
  3  2  1  0
  4  5  2  0
  5  6  1  0
  7  6  1  0
  8  7  2  0
  9  8  1  0
 10 11  1  0
 10  9  2  0
 11 12  2  0
 12  4  1  0
 12  7  1  0
 13  2  1  0
 14 13  2  0
 16 15  1  0
 17 16  2  0
 18 16  1  0
 19 20  1  0
 19 18  1  6
 20 13  1  0
 21 19  1  0
 22 21  2  0
 24 23  1  0
 24 25  2  0
 26 27  1  0
 26 24  1  0
 27 28  1  0
 28 29  1  0
 30 29  1  1
 30 31  1  0
 31 21  1  0
 32 30  1  0
 33 32  1  0
 34 32  2  0
M  END
$$$$
