WNR.pdb
     RDKit          3D

 34 35  0  0  1  0  0  0  0  0999 V2000
    7.1133  -16.8085   24.8429 N   0  0  0  0  0  0  0  0  0  0  0  0
    7.5218  -15.6854   24.0444 C   0  0  1  0  0  0  0  0  0  0  0  0
    8.6402  -14.8990   24.6814 C   0  0  0  0  0  0  0  0  0  0  0  0
    8.2137  -14.3082   25.9749 C   0  0  0  0  0  0  0  0  0  0  0  0
    8.5160  -14.6938   27.2604 C   0  0  0  0  0  0  0  0  0  0  0  0
    7.9038  -13.8653   28.1260 N   0  0  0  0  0  0  0  0  0  0  0  0
    7.2040  -12.9406   27.4489 C   0  0  0  0  0  0  0  0  0  0  0  0
    6.4138  -11.8802   27.8223 C   0  0  0  0  0  0  0  0  0  0  0  0
    5.8137  -11.0919   26.8803 C   0  0  0  0  0  0  0  0  0  0  0  0
    5.9815  -11.3342   25.5332 C   0  0  0  0  0  0  0  0  0  0  0  0
    6.7814  -12.4070   25.1739 C   0  0  0  0  0  0  0  0  0  0  0  0
    7.3841  -13.1991   26.1113 C   0  0  0  0  0  0  0  0  0  0  0  0
    7.7931  -16.0991   22.6633 C   0  0  0  0  0  0  0  0  0  0  0  0
    7.7801  -17.3621   22.4317 O   0  0  0  0  0  0  0  0  0  0  0  0
    6.8675  -12.8135   19.3039 N   0  0  0  0  0  0  0  0  0  0  0  0
    7.1828  -14.2122   19.0355 C   0  0  0  0  0  0  0  0  0  0  0  0
    6.2621  -14.8925   18.5588 O   0  0  0  0  0  0  0  0  0  0  0  0
    8.5150  -14.6579   19.3474 C   0  0  0  0  0  0  0  0  0  0  0  0
    8.6943  -15.7632   20.3610 C   0  0  2  0  0  0  0  0  0  0  0  0
    8.0599  -15.2042   21.6072 N   0  0  0  0  0  0  0  0  0  0  0  0
   10.1044  -16.0337   20.6848 C   0  0  0  0  0  0  0  0  0  0  0  0
   10.3836  -17.2164   21.1230 O   0  0  0  0  0  0  0  0  0  0  0  0
   18.0281  -14.0753   17.5969 N   0  0  0  0  0  0  0  0  0  0  0  0
   17.7668  -13.4353   18.8438 C   0  0  0  0  0  0  0  0  0  0  0  0
   18.7779  -13.0807   19.5346 N   0  0  0  0  0  0  0  0  0  0  0  0
   16.4427  -13.2177   19.2696 N   0  0  0  0  0  0  0  0  0  0  0  0
   15.3443  -13.8165   18.5720 C   0  0  0  0  0  0  0  0  0  0  0  0
   14.7275  -14.9410   19.3758 C   0  0  0  0  0  0  0  0  0  0  0  0
   13.3319  -14.4830   19.7508 C   0  0  0  0  0  0  0  0  0  0  0  0
   12.5650  -15.6583   20.3178 C   0  0  2  0  0  0  0  0  0  0  0  0
   11.2089  -15.1876   20.5815 N   0  0  0  0  0  0  0  0  0  0  0  0
   13.2531  -16.0596   21.5597 C   0  0  0  0  0  0  0  0  0  0  0  0
   14.3950  -16.8190   21.5101 O   0  0  0  0  0  0  0  0  0  0  0  0
   12.7874  -15.7019   22.6556 O   0  0  0  0  0  0  0  0  0  0  0  0
  2  1  1  1
  3  4  1  0
  3  2  1  0
  4  5  2  0
  5  6  1  0
  7  6  1  0
  8  7  2  0
  9  8  1  0
 10 11  1  0
 10  9  2  0
 11 12  2  0
 12  4  1  0
 12  7  1  0
 13  2  1  0
 14 13  2  0
 16 15  1  0
 17 16  2  0
 18 16  1  0
 19 20  1  0
 19 18  1  6
 20 13  1  0
 21 19  1  0
 22 21  2  0
 24 23  1  0
 24 25  2  0
 26 27  1  0
 26 24  1  0
 27 28  1  0
 28 29  1  0
 30 29  1  1
 30 31  1  0
 31 21  1  0
 32 30  1  0
 33 32  1  0
 34 32  2  0
M  END
$$$$
