WNR.pdb
     RDKit          3D

 34 35  0  0  1  0  0  0  0  0999 V2000
    6.3222  -16.7791   24.6749 N   0  0  0  0  0  0  0  0  0  0  0  0
    7.6981  -16.4043   24.8543 C   0  0  1  0  0  0  0  0  0  0  0  0
    7.8742  -15.3343   25.9026 C   0  0  0  0  0  0  0  0  0  0  0  0
    7.0391  -14.1442   25.6023 C   0  0  0  0  0  0  0  0  0  0  0  0
    6.2136  -13.8966   24.5300 C   0  0  0  0  0  0  0  0  0  0  0  0
    5.6549  -12.6809   24.6735 N   0  0  0  0  0  0  0  0  0  0  0  0
    6.0878  -12.1160   25.8123 C   0  0  0  0  0  0  0  0  0  0  0  0
    5.8444  -10.9146   26.4334 C   0  0  0  0  0  0  0  0  0  0  0  0
    6.4477  -10.6090   27.6214 C   0  0  0  0  0  0  0  0  0  0  0  0
    7.3145  -11.4914   28.2309 C   0  0  0  0  0  0  0  0  0  0  0  0
    7.5486  -12.6982   27.5916 C   0  0  0  0  0  0  0  0  0  0  0  0
    6.9484  -13.0096   26.4032 C   0  0  0  0  0  0  0  0  0  0  0  0
    8.5381  -17.5889   25.0623 C   0  0  0  0  0  0  0  0  0  0  0  0
    8.2285  -18.3424   26.0551 O   0  0  0  0  0  0  0  0  0  0  0  0
   10.9001  -20.8596   26.8434 N   0  0  0  0  0  0  0  0  0  0  0  0
   10.1175  -21.2343   25.6709 C   0  0  0  0  0  0  0  0  0  0  0  0
    9.6495  -22.3826   25.6771 O   0  0  0  0  0  0  0  0  0  0  0  0
    9.9686  -20.2457   24.6358 C   0  0  0  0  0  0  0  0  0  0  0  0
   10.6426  -18.9049   24.8072 C   0  0  2  0  0  0  0  0  0  0  0  0
    9.6376  -17.9320   24.2493 N   0  0  0  0  0  0  0  0  0  0  0  0
   11.8671  -18.7613   24.0033 C   0  0  0  0  0  0  0  0  0  0  0  0
   12.9867  -18.9995   24.6021 O   0  0  0  0  0  0  0  0  0  0  0  0
    8.5340  -15.9032   19.2971 N   0  0  0  0  0  0  0  0  0  0  0  0
    8.3110  -14.5909   19.8081 C   0  0  0  0  0  0  0  0  0  0  0  0
    7.3680  -13.9166   19.2775 N   0  0  0  0  0  0  0  0  0  0  0  0
    9.1109  -14.0867   20.8509 N   0  0  0  0  0  0  0  0  0  0  0  0
   10.4512  -14.5571   21.0352 C   0  0  0  0  0  0  0  0  0  0  0  0
   10.4707  -15.9917   21.5181 C   0  0  0  0  0  0  0  0  0  0  0  0
   11.5338  -16.0654   22.5962 C   0  0  0  0  0  0  0  0  0  0  0  0
   12.5457  -17.1251   22.2167 C   0  0  2  0  0  0  0  0  0  0  0  0
   12.0019  -18.4043   22.6614 N   0  0  0  0  0  0  0  0  0  0  0  0
   13.7989  -16.7920   22.9205 C   0  0  0  0  0  0  0  0  0  0  0  0
   14.9224  -16.4404   22.2155 O   0  0  0  0  0  0  0  0  0  0  0  0
   13.8277  -16.8326   24.1629 O   0  0  0  0  0  0  0  0  0  0  0  0
  2  1  1  1
  3  4  1  0
  3  2  1  0
  4  5  2  0
  5  6  1  0
  7  6  1  0
  8  7  2  0
  9  8  1  0
 10 11  1  0
 10  9  2  0
 11 12  2  0
 12  4  1  0
 12  7  1  0
 13  2  1  0
 14 13  2  0
 16 15  1  0
 17 16  2  0
 18 16  1  0
 19 20  1  0
 19 18  1  6
 20 13  1  0
 21 19  1  0
 22 21  2  0
 24 23  1  0
 24 25  2  0
 26 27  1  0
 26 24  1  0
 27 28  1  0
 28 29  1  0
 30 29  1  1
 30 31  1  0
 31 21  1  0
 32 30  1  0
 33 32  1  0
 34 32  2  0
M  END
$$$$
