WNR.pdb
     RDKit          3D

 34 35  0  0  1  0  0  0  0  0999 V2000
    9.1861  -17.2585   21.1766 N   0  0  0  0  0  0  0  0  0  0  0  0
   10.3406  -16.6768   21.8047 C   0  0  1  0  0  0  0  0  0  0  0  0
   10.4356  -15.1890   21.5760 C   0  0  0  0  0  0  0  0  0  0  0  0
    9.0896  -14.5802   21.4289 C   0  0  0  0  0  0  0  0  0  0  0  0
    8.0521  -14.5111   22.3297 C   0  0  0  0  0  0  0  0  0  0  0  0
    7.0162  -13.8665   21.7624 N   0  0  0  0  0  0  0  0  0  0  0  0
    7.3391  -13.5062   20.5097 C   0  0  0  0  0  0  0  0  0  0  0  0
    6.6747  -12.8413   19.5072 C   0  0  0  0  0  0  0  0  0  0  0  0
    7.2785  -12.6138   18.3020 C   0  0  0  0  0  0  0  0  0  0  0  0
    8.5660  -13.0415   18.0554 C   0  0  0  0  0  0  0  0  0  0  0  0
    9.2217  -13.7099   19.0767 C   0  0  0  0  0  0  0  0  0  0  0  0
    8.6232  -13.9407   20.2842 C   0  0  0  0  0  0  0  0  0  0  0  0
   10.4207  -17.0711   23.2154 C   0  0  0  0  0  0  0  0  0  0  0  0
   11.4513  -16.6651   23.8651 O   0  0  0  0  0  0  0  0  0  0  0  0
    6.7448  -16.1620   25.2781 N   0  0  0  0  0  0  0  0  0  0  0  0
    7.9386  -16.5101   26.0405 C   0  0  0  0  0  0  0  0  0  0  0  0
    8.4688  -15.5821   26.6692 O   0  0  0  0  0  0  0  0  0  0  0  0
    8.3771  -17.8797   25.9873 C   0  0  0  0  0  0  0  0  0  0  0  0
    9.6947  -18.1969   25.3205 C   0  0  2  0  0  0  0  0  0  0  0  0
    9.4498  -17.8518   23.8752 N   0  0  0  0  0  0  0  0  0  0  0  0
   10.0407  -19.6268   25.3648 C   0  0  0  0  0  0  0  0  0  0  0  0
    9.1068  -20.4609   25.0469 O   0  0  0  0  0  0  0  0  0  0  0  0
   13.6795  -19.1192   21.1226 N   0  0  0  0  0  0  0  0  0  0  0  0
   12.6624  -20.0935   20.9010 C   0  0  0  0  0  0  0  0  0  0  0  0
   11.8004  -19.8342   19.9982 N   0  0  0  0  0  0  0  0  0  0  0  0
   12.6339  -21.2792   21.6593 N   0  0  0  0  0  0  0  0  0  0  0  0
   13.6512  -21.5483   22.6311 C   0  0  0  0  0  0  0  0  0  0  0  0
   13.1975  -21.1682   24.0243 C   0  0  0  0  0  0  0  0  0  0  0  0
   11.9967  -22.0396   24.3356 C   0  0  0  0  0  0  0  0  0  0  0  0
   11.4651  -21.6727   25.7044 C   0  0  2  0  0  0  0  0  0  0  0  0
   11.2538  -20.2286   25.7002 N   0  0  0  0  0  0  0  0  0  0  0  0
   12.4945  -22.0695   26.6840 C   0  0  0  0  0  0  0  0  0  0  0  0
   13.1580  -21.1211   27.4213 O   0  0  0  0  0  0  0  0  0  0  0  0
   12.7562  -23.2754   26.8363 O   0  0  0  0  0  0  0  0  0  0  0  0
  2  1  1  1
  3  4  1  0
  3  2  1  0
  4  5  2  0
  5  6  1  0
  7  6  1  0
  8  7  2  0
  9  8  1  0
 10 11  1  0
 10  9  2  0
 11 12  2  0
 12  4  1  0
 12  7  1  0
 13  2  1  0
 14 13  2  0
 16 15  1  0
 17 16  2  0
 18 16  1  0
 19 20  1  0
 19 18  1  1
 20 13  1  0
 21 19  1  0
 22 21  2  0
 24 23  1  0
 24 25  2  0
 26 27  1  0
 26 24  1  0
 27 28  1  0
 28 29  1  0
 30 29  1  6
 30 31  1  0
 31 21  1  0
 32 30  1  0
 33 32  1  0
 34 32  2  0
M  END
$$$$
