WNR.pdb
     RDKit          3D

 34 35  0  0  1  0  0  0  0  0999 V2000
    9.0178  -16.7771   26.0214 N   0  0  0  0  0  0  0  0  0  0  0  0
    8.2983  -17.0904   24.8173 C   0  0  1  0  0  0  0  0  0  0  0  0
    7.7752  -15.8600   24.1192 C   0  0  0  0  0  0  0  0  0  0  0  0
    7.0129  -14.9942   25.0537 C   0  0  0  0  0  0  0  0  0  0  0  0
    5.9741  -15.3116   25.8979 C   0  0  0  0  0  0  0  0  0  0  0  0
    5.5879  -14.2052   26.5591 N   0  0  0  0  0  0  0  0  0  0  0  0
    6.3431  -13.1628   26.1762 C   0  0  0  0  0  0  0  0  0  0  0  0
    6.3793  -11.8333   26.5219 C   0  0  0  0  0  0  0  0  0  0  0  0
    7.2864  -10.9877   25.9468 C   0  0  0  0  0  0  0  0  0  0  0  0
    8.1889  -11.4393   25.0071 C   0  0  0  0  0  0  0  0  0  0  0  0
    8.1391  -12.7824   24.6700 C   0  0  0  0  0  0  0  0  0  0  0  0
    7.2340  -13.6330   25.2416 C   0  0  0  0  0  0  0  0  0  0  0  0
    9.0868  -17.9773   23.9548 C   0  0  0  0  0  0  0  0  0  0  0  0
   10.3614  -17.9377   24.1066 O   0  0  0  0  0  0  0  0  0  0  0  0
    8.8792  -22.3107   23.6273 N   0  0  0  0  0  0  0  0  0  0  0  0
    8.0053  -21.6783   22.6456 C   0  0  0  0  0  0  0  0  0  0  0  0
    6.7991  -21.9500   22.7404 O   0  0  0  0  0  0  0  0  0  0  0  0
    8.6228  -20.8127   21.6759 C   0  0  0  0  0  0  0  0  0  0  0  0
    9.4800  -19.6684   22.1628 C   0  0  2  0  0  0  0  0  0  0  0  0
    8.5307  -18.8467   22.9945 N   0  0  0  0  0  0  0  0  0  0  0  0
    9.9600  -18.7973   21.0778 C   0  0  0  0  0  0  0  0  0  0  0  0
    9.0751  -18.3754   20.2366 O   0  0  0  0  0  0  0  0  0  0  0  0
    8.1700  -12.0858   18.1515 N   0  0  0  0  0  0  0  0  0  0  0  0
    8.0854  -13.4004   17.6062 C   0  0  0  0  0  0  0  0  0  0  0  0
    7.8612  -13.4936   16.3546 N   0  0  0  0  0  0  0  0  0  0  0  0
    8.2450  -14.5273   18.4346 N   0  0  0  0  0  0  0  0  0  0  0  0
    9.4536  -14.7206   19.1786 C   0  0  0  0  0  0  0  0  0  0  0  0
    9.3648  -15.9430   20.0670 C   0  0  0  0  0  0  0  0  0  0  0  0
   10.6835  -16.0282   20.8100 C   0  0  0  0  0  0  0  0  0  0  0  0
   11.5503  -17.0809   20.1532 C   0  0  2  0  0  0  0  0  0  0  0  0
   11.2543  -18.3450   20.8199 N   0  0  0  0  0  0  0  0  0  0  0  0
   12.9524  -16.6713   20.3605 C   0  0  0  0  0  0  0  0  0  0  0  0
   13.6998  -16.1888   19.3157 O   0  0  0  0  0  0  0  0  0  0  0  0
   13.4525  -16.7675   21.4948 O   0  0  0  0  0  0  0  0  0  0  0  0
  2  1  1  1
  3  4  1  0
  3  2  1  0
  4  5  2  0
  5  6  1  0
  7  6  1  0
  8  7  2  0
  9  8  1  0
 10 11  1  0
 10  9  2  0
 11 12  2  0
 12  4  1  0
 12  7  1  0
 13  2  1  0
 14 13  2  0
 16 15  1  0
 17 16  2  0
 18 16  1  0
 19 20  1  0
 19 18  1  6
 20 13  1  0
 21 19  1  0
 22 21  2  0
 24 23  1  0
 24 25  2  0
 26 27  1  0
 26 24  1  0
 27 28  1  0
 28 29  1  0
 30 29  1  1
 30 31  1  0
 31 21  1  0
 32 30  1  0
 33 32  1  0
 34 32  2  0
M  END
$$$$
