WNR.pdb
     RDKit          3D

 34 35  0  0  1  0  0  0  0  0999 V2000
    6.6322  -17.8337   24.7438 N   0  0  0  0  0  0  0  0  0  0  0  0
    7.4712  -16.7993   24.2036 C   0  0  1  0  0  0  0  0  0  0  0  0
    8.0786  -15.9286   25.2750 C   0  0  0  0  0  0  0  0  0  0  0  0
    7.1033  -14.9243   25.7692 C   0  0  0  0  0  0  0  0  0  0  0  0
    5.9281  -15.1055   26.4609 C   0  0  0  0  0  0  0  0  0  0  0  0
    5.3662  -13.9065   26.6997 N   0  0  0  0  0  0  0  0  0  0  0  0
    6.1375  -12.9351   26.1849 C   0  0  0  0  0  0  0  0  0  0  0  0
    6.0436  -11.5648   26.1419 C   0  0  0  0  0  0  0  0  0  0  0  0
    7.0116  -10.8184   25.5298 C   0  0  0  0  0  0  0  0  0  0  0  0
    8.1068  -11.4132   24.9398 C   0  0  0  0  0  0  0  0  0  0  0  0
    8.1862  -12.7956   24.9923 C   0  0  0  0  0  0  0  0  0  0  0  0
    7.2212  -13.5476   25.6029 C   0  0  0  0  0  0  0  0  0  0  0  0
    8.4481  -17.3588   23.2629 C   0  0  0  0  0  0  0  0  0  0  0  0
    8.8749  -18.5427   23.5184 O   0  0  0  0  0  0  0  0  0  0  0  0
   10.3144  -17.4432   17.7403 N   0  0  0  0  0  0  0  0  0  0  0  0
   10.9142  -16.9376   18.9700 C   0  0  0  0  0  0  0  0  0  0  0  0
   12.1534  -16.8947   18.9897 O   0  0  0  0  0  0  0  0  0  0  0  0
   10.0186  -16.5439   20.0254 C   0  0  0  0  0  0  0  0  0  0  0  0
    9.9731  -17.3715   21.2881 C   0  0  2  0  0  0  0  0  0  0  0  0
    8.9283  -16.6805   22.1241 N   0  0  0  0  0  0  0  0  0  0  0  0
   11.2282  -17.3324   22.0559 C   0  0  0  0  0  0  0  0  0  0  0  0
   11.6600  -16.1659   22.4047 O   0  0  0  0  0  0  0  0  0  0  0  0
   11.9531  -21.2071   29.0748 N   0  0  0  0  0  0  0  0  0  0  0  0
   11.2403  -20.4098   28.1319 C   0  0  0  0  0  0  0  0  0  0  0  0
   10.6955  -19.3441   28.5709 N   0  0  0  0  0  0  0  0  0  0  0  0
   11.1566  -20.8049   26.7834 N   0  0  0  0  0  0  0  0  0  0  0  0
   12.2828  -20.6619   25.9099 C   0  0  0  0  0  0  0  0  0  0  0  0
   12.1967  -19.3837   25.1036 C   0  0  0  0  0  0  0  0  0  0  0  0
   13.3904  -19.3863   24.1693 C   0  0  0  0  0  0  0  0  0  0  0  0
   13.2766  -18.2102   23.2234 C   0  0  2  0  0  0  0  0  0  0  0  0
   12.0352  -18.3895   22.4771 N   0  0  0  0  0  0  0  0  0  0  0  0
   14.4558  -18.2571   22.3380 C   0  0  0  0  0  0  0  0  0  0  0  0
   15.7104  -18.0045   22.8333 O   0  0  0  0  0  0  0  0  0  0  0  0
   14.3019  -18.5289   21.1345 O   0  0  0  0  0  0  0  0  0  0  0  0
  2  1  1  1
  3  4  1  0
  3  2  1  0
  4  5  2  0
  5  6  1  0
  7  6  1  0
  8  7  2  0
  9  8  1  0
 10 11  1  0
 10  9  2  0
 11 12  2  0
 12  4  1  0
 12  7  1  0
 13  2  1  0
 14 13  2  0
 16 15  1  0
 17 16  2  0
 18 16  1  0
 19 20  1  0
 19 18  1  6
 20 13  1  0
 21 19  1  0
 22 21  2  0
 24 23  1  0
 24 25  2  0
 26 27  1  0
 26 24  1  0
 27 28  1  0
 28 29  1  0
 30 29  1  1
 30 31  1  0
 31 21  1  0
 32 30  1  0
 33 32  1  0
 34 32  2  0
M  END
$$$$
