WNR.pdb
     RDKit          3D

 34 35  0  0  1  0  0  0  0  0999 V2000
    8.4162  -17.6253   26.0450 N   0  0  0  0  0  0  0  0  0  0  0  0
    8.3233  -17.2326   24.6656 C   0  0  1  0  0  0  0  0  0  0  0  0
    8.4707  -15.7435   24.4768 C   0  0  0  0  0  0  0  0  0  0  0  0
    7.4241  -15.0004   25.2227 C   0  0  0  0  0  0  0  0  0  0  0  0
    6.3332  -15.4736   25.9145 C   0  0  0  0  0  0  0  0  0  0  0  0
    5.6540  -14.4345   26.4335 N   0  0  0  0  0  0  0  0  0  0  0  0
    6.2655  -13.2850   26.1046 C   0  0  0  0  0  0  0  0  0  0  0  0
    6.0086  -11.9601   26.3635 C   0  0  0  0  0  0  0  0  0  0  0  0
    6.8340  -10.9826   25.8817 C   0  0  0  0  0  0  0  0  0  0  0  0
    7.9443  -11.2933   25.1252 C   0  0  0  0  0  0  0  0  0  0  0  0
    8.1889  -12.6337   24.8737 C   0  0  0  0  0  0  0  0  0  0  0  0
    7.3670  -13.6159   25.3527 C   0  0  0  0  0  0  0  0  0  0  0  0
    9.2285  -18.0332   23.8338 C   0  0  0  0  0  0  0  0  0  0  0  0
   10.4016  -18.2490   24.3096 O   0  0  0  0  0  0  0  0  0  0  0  0
    9.2729  -21.5664   18.8460 N   0  0  0  0  0  0  0  0  0  0  0  0
    9.9281  -21.1387   20.0770 C   0  0  0  0  0  0  0  0  0  0  0  0
   11.0673  -21.5895   20.2683 O   0  0  0  0  0  0  0  0  0  0  0  0
    9.1955  -20.2471   20.9368 C   0  0  0  0  0  0  0  0  0  0  0  0
    9.9627  -19.2680   21.7937 C   0  0  2  0  0  0  0  0  0  0  0  0
    8.8845  -18.5626   22.5733 N   0  0  0  0  0  0  0  0  0  0  0  0
   10.6677  -18.2384   21.0132 C   0  0  0  0  0  0  0  0  0  0  0  0
   11.6719  -18.6336   20.3031 O   0  0  0  0  0  0  0  0  0  0  0  0
    8.3160  -13.1374   15.4510 N   0  0  0  0  0  0  0  0  0  0  0  0
    8.1244  -13.6961   16.7487 C   0  0  0  0  0  0  0  0  0  0  0  0
    7.5447  -14.8300   16.8099 N   0  0  0  0  0  0  0  0  0  0  0  0
    8.5642  -13.0058   17.8940 N   0  0  0  0  0  0  0  0  0  0  0  0
    8.4080  -13.5801   19.1969 C   0  0  0  0  0  0  0  0  0  0  0  0
    9.1128  -14.9158   19.2990 C   0  0  0  0  0  0  0  0  0  0  0  0
   10.4152  -14.6572   20.0304 C   0  0  0  0  0  0  0  0  0  0  0  0
   11.1979  -15.9501   20.1121 C   0  0  2  0  0  0  0  0  0  0  0  0
   10.4044  -16.8717   20.9190 N   0  0  0  0  0  0  0  0  0  0  0  0
   12.4855  -15.6310   20.7579 C   0  0  0  0  0  0  0  0  0  0  0  0
   13.3769  -14.7804   20.1537 O   0  0  0  0  0  0  0  0  0  0  0  0
   12.7565  -16.1415   21.8588 O   0  0  0  0  0  0  0  0  0  0  0  0
  2  1  1  1
  3  4  1  0
  3  2  1  0
  4  5  2  0
  5  6  1  0
  7  6  1  0
  8  7  2  0
  9  8  1  0
 10 11  1  0
 10  9  2  0
 11 12  2  0
 12  4  1  0
 12  7  1  0
 13  2  1  0
 14 13  2  0
 16 15  1  0
 17 16  2  0
 18 16  1  0
 19 20  1  0
 19 18  1  6
 20 13  1  0
 21 19  1  0
 22 21  2  0
 24 23  1  0
 24 25  2  0
 26 27  1  0
 26 24  1  0
 27 28  1  0
 28 29  1  0
 30 29  1  1
 30 31  1  0
 31 21  1  0
 32 30  1  0
 33 32  1  0
 34 32  2  0
M  END
$$$$
