WNR.pdb
     RDKit          3D

 34 35  0  0  1  0  0  0  0  0999 V2000
   10.4290  -16.7375   18.2234 N   0  0  0  0  0  0  0  0  0  0  0  0
   11.1893  -15.6718   18.8166 C   0  0  1  0  0  0  0  0  0  0  0  0
   11.0285  -15.6110   20.3151 C   0  0  0  0  0  0  0  0  0  0  0  0
    9.6599  -15.1768   20.6922 C   0  0  0  0  0  0  0  0  0  0  0  0
    8.7574  -15.7597   21.5514 C   0  0  0  0  0  0  0  0  0  0  0  0
    7.6359  -15.0171   21.5852 N   0  0  0  0  0  0  0  0  0  0  0  0
    7.7706  -13.9573   20.7715 C   0  0  0  0  0  0  0  0  0  0  0  0
    6.9553  -12.9036   20.4348 C   0  0  0  0  0  0  0  0  0  0  0  0
    7.3781  -11.9490   19.5524 C   0  0  0  0  0  0  0  0  0  0  0  0
    8.6290  -12.0124   18.9756 C   0  0  0  0  0  0  0  0  0  0  0  0
    9.4385  -13.0810   19.3260 C   0  0  0  0  0  0  0  0  0  0  0  0
    9.0212  -14.0390   20.2078 C   0  0  0  0  0  0  0  0  0  0  0  0
   12.5849  -15.7140   18.3664 C   0  0  0  0  0  0  0  0  0  0  0  0
   13.0045  -16.8383   17.9092 O   0  0  0  0  0  0  0  0  0  0  0  0
   17.6118  -14.5656   17.2750 N   0  0  0  0  0  0  0  0  0  0  0  0
   16.8411  -13.3397   17.4502 C   0  0  0  0  0  0  0  0  0  0  0  0
   17.4439  -12.2828   17.2108 O   0  0  0  0  0  0  0  0  0  0  0  0
   15.4743  -13.4773   17.8789 C   0  0  0  0  0  0  0  0  0  0  0  0
   14.9148  -14.8637   18.0936 C   0  0  2  0  0  0  0  0  0  0  0  0
   13.4639  -14.6126   18.4094 N   0  0  0  0  0  0  0  0  0  0  0  0
   15.4924  -15.5509   19.2600 C   0  0  0  0  0  0  0  0  0  0  0  0
   15.5530  -14.8770   20.3604 O   0  0  0  0  0  0  0  0  0  0  0  0
   10.8759  -22.1036   20.8743 N   0  0  0  0  0  0  0  0  0  0  0  0
   12.2881  -21.9140   20.8228 C   0  0  0  0  0  0  0  0  0  0  0  0
   13.0116  -22.9635   20.7982 N   0  0  0  0  0  0  0  0  0  0  0  0
   12.8327  -20.6161   20.8020 N   0  0  0  0  0  0  0  0  0  0  0  0
   14.2514  -20.4205   20.7745 C   0  0  0  0  0  0  0  0  0  0  0  0
   14.6051  -18.9487   20.7640 C   0  0  0  0  0  0  0  0  0  0  0  0
   16.1122  -18.8723   20.6201 C   0  0  0  0  0  0  0  0  0  0  0  0
   16.5297  -17.4177   20.5900 C   0  0  2  0  0  0  0  0  0  0  0  0
   15.9896  -16.8507   19.3584 N   0  0  0  0  0  0  0  0  0  0  0  0
   18.0049  -17.3954   20.5985 C   0  0  0  0  0  0  0  0  0  0  0  0
   18.6851  -16.2089   20.4862 O   0  0  0  0  0  0  0  0  0  0  0  0
   18.6285  -18.4654   20.7091 O   0  0  0  0  0  0  0  0  0  0  0  0
  2  1  1  1
  3  4  1  0
  3  2  1  0
  4  5  2  0
  5  6  1  0
  7  6  1  0
  8  7  2  0
  9  8  1  0
 10 11  1  0
 10  9  2  0
 11 12  2  0
 12  4  1  0
 12  7  1  0
 13  2  1  0
 14 13  2  0
 16 15  1  0
 17 16  2  0
 18 16  1  0
 19 20  1  0
 19 18  1  1
 20 13  1  0
 21 19  1  0
 22 21  2  0
 24 23  1  0
 24 25  2  0
 26 27  1  0
 26 24  1  0
 27 28  1  0
 28 29  1  0
 30 29  1  6
 30 31  1  0
 31 21  1  0
 32 30  1  0
 33 32  1  0
 34 32  2  0
M  END
$$$$
