WNR.pdb
     RDKit          3D

 34 35  0  0  1  0  0  0  0  0999 V2000
    6.8615  -16.8282   23.0450 N   0  0  0  0  0  0  0  0  0  0  0  0
    8.0302  -16.0152   23.2419 C   0  0  1  0  0  0  0  0  0  0  0  0
    8.3618  -15.8225   24.7006 C   0  0  0  0  0  0  0  0  0  0  0  0
    7.3009  -15.0513   25.3963 C   0  0  0  0  0  0  0  0  0  0  0  0
    6.1894  -15.4974   26.0731 C   0  0  0  0  0  0  0  0  0  0  0  0
    5.5037  -14.4392   26.5429 N   0  0  0  0  0  0  0  0  0  0  0  0
    6.1309  -13.3037   26.1957 C   0  0  0  0  0  0  0  0  0  0  0  0
    5.8759  -11.9701   26.4080 C   0  0  0  0  0  0  0  0  0  0  0  0
    6.7198  -11.0123   25.9188 C   0  0  0  0  0  0  0  0  0  0  0  0
    7.8473  -11.3519   25.2013 C   0  0  0  0  0  0  0  0  0  0  0  0
    8.0898  -12.7006   24.9965 C   0  0  0  0  0  0  0  0  0  0  0  0
    7.2494  -13.6632   25.4831 C   0  0  0  0  0  0  0  0  0  0  0  0
    9.1508  -16.5092   22.4343 C   0  0  0  0  0  0  0  0  0  0  0  0
    9.2938  -17.7839   22.3736 O   0  0  0  0  0  0  0  0  0  0  0  0
   13.5385  -16.2640   18.8966 N   0  0  0  0  0  0  0  0  0  0  0  0
   13.3602  -15.3657   20.0319 C   0  0  0  0  0  0  0  0  0  0  0  0
   14.3938  -14.8451   20.4774 O   0  0  0  0  0  0  0  0  0  0  0  0
   12.0185  -15.1758   20.5163 C   0  0  0  0  0  0  0  0  0  0  0  0
   11.3864  -16.2621   21.3540 C   0  0  2  0  0  0  0  0  0  0  0  0
   10.0535  -15.6775   21.7407 N   0  0  0  0  0  0  0  0  0  0  0  0
   12.1136  -16.5305   22.6052 C   0  0  0  0  0  0  0  0  0  0  0  0
   12.0185  -15.6391   23.5354 O   0  0  0  0  0  0  0  0  0  0  0  0
   10.8529  -22.0066   22.3516 N   0  0  0  0  0  0  0  0  0  0  0  0
   10.1601  -21.9482   23.5964 C   0  0  0  0  0  0  0  0  0  0  0  0
    9.0110  -22.4983   23.6446 N   0  0  0  0  0  0  0  0  0  0  0  0
   10.7409  -21.3053   24.7059 N   0  0  0  0  0  0  0  0  0  0  0  0
   12.1644  -21.2026   24.8269 C   0  0  0  0  0  0  0  0  0  0  0  0
   12.7065  -20.0542   24.0031 C   0  0  0  0  0  0  0  0  0  0  0  0
   12.9206  -18.9019   24.9647 C   0  0  0  0  0  0  0  0  0  0  0  0
   13.5909  -17.7636   24.2259 C   0  0  2  0  0  0  0  0  0  0  0  0
   12.9023  -17.6296   22.9461 N   0  0  0  0  0  0  0  0  0  0  0  0
   15.0051  -18.1438   24.0460 C   0  0  0  0  0  0  0  0  0  0  0  0
   15.8661  -18.1531   25.1145 O   0  0  0  0  0  0  0  0  0  0  0  0
   15.4111  -18.4571   22.9133 O   0  0  0  0  0  0  0  0  0  0  0  0
  2  1  1  1
  3  4  1  0
  3  2  1  0
  4  5  2  0
  5  6  1  0
  7  6  1  0
  8  7  2  0
  9  8  1  0
 10 11  1  0
 10  9  2  0
 11 12  2  0
 12  4  1  0
 12  7  1  0
 13  2  1  0
 14 13  2  0
 16 15  1  0
 17 16  2  0
 18 16  1  0
 19 20  1  0
 19 18  1  6
 20 13  1  0
 21 19  1  0
 22 21  2  0
 24 23  1  0
 24 25  2  0
 26 27  1  0
 26 24  1  0
 27 28  1  0
 28 29  1  0
 30 29  1  1
 30 31  1  0
 31 21  1  0
 32 30  1  0
 33 32  1  0
 34 32  2  0
M  END
$$$$
