WNR.pdb
     RDKit          3D

 34 35  0  0  1  0  0  0  0  0999 V2000
    6.3071  -17.2106   23.8518 N   0  0  0  0  0  0  0  0  0  0  0  0
    7.1284  -16.0700   23.5514 C   0  0  1  0  0  0  0  0  0  0  0  0
    7.8002  -15.5021   24.7766 C   0  0  0  0  0  0  0  0  0  0  0  0
    6.8557  -14.6828   25.5771 C   0  0  0  0  0  0  0  0  0  0  0  0
    5.6520  -15.0310   26.1449 C   0  0  0  0  0  0  0  0  0  0  0  0
    5.1372  -13.9624   26.7801 N   0  0  0  0  0  0  0  0  0  0  0  0
    5.9675  -12.9151   26.6489 C   0  0  0  0  0  0  0  0  0  0  0  0
    5.9367  -11.6129   27.0868 C   0  0  0  0  0  0  0  0  0  0  0  0
    6.9564  -10.7526   26.7886 C   0  0  0  0  0  0  0  0  0  0  0  0
    8.0420  -11.1618   26.0434 C   0  0  0  0  0  0  0  0  0  0  0  0
    8.0575  -12.4777   25.6099 C   0  0  0  0  0  0  0  0  0  0  0  0
    7.0407  -13.3429   25.9049 C   0  0  0  0  0  0  0  0  0  0  0  0
    8.0489  -16.3666   22.4482 C   0  0  0  0  0  0  0  0  0  0  0  0
    8.4870  -17.5716   22.3773 O   0  0  0  0  0  0  0  0  0  0  0  0
    7.8028  -13.1536   18.6203 N   0  0  0  0  0  0  0  0  0  0  0  0
    8.3220  -14.5152   18.6833 C   0  0  0  0  0  0  0  0  0  0  0  0
    7.6877  -15.3663   18.0421 O   0  0  0  0  0  0  0  0  0  0  0  0
    9.5043  -14.7327   19.4744 C   0  0  0  0  0  0  0  0  0  0  0  0
    9.5057  -15.8514   20.4891 C   0  0  2  0  0  0  0  0  0  0  0  0
    8.4648  -15.4211   21.4888 N   0  0  0  0  0  0  0  0  0  0  0  0
   10.7766  -15.9720   21.2217 C   0  0  0  0  0  0  0  0  0  0  0  0
   11.6061  -14.9877   21.1122 O   0  0  0  0  0  0  0  0  0  0  0  0
    9.8989  -20.4976   27.8384 N   0  0  0  0  0  0  0  0  0  0  0  0
    9.3377  -19.3748   27.1623 C   0  0  0  0  0  0  0  0  0  0  0  0
    8.0665  -19.2773   27.1603 N   0  0  0  0  0  0  0  0  0  0  0  0
   10.1720  -18.4317   26.5328 N   0  0  0  0  0  0  0  0  0  0  0  0
   10.9419  -18.7931   25.3802 C   0  0  0  0  0  0  0  0  0  0  0  0
   11.7568  -17.6230   24.8723 C   0  0  0  0  0  0  0  0  0  0  0  0
   12.5424  -18.1342   23.6808 C   0  0  0  0  0  0  0  0  0  0  0  0
   12.5673  -17.0624   22.6123 C   0  0  2  0  0  0  0  0  0  0  0  0
   11.2264  -17.0096   22.0385 N   0  0  0  0  0  0  0  0  0  0  0  0
   13.5710  -17.4768   21.6136 C   0  0  0  0  0  0  0  0  0  0  0  0
   13.1885  -17.8195   20.3410 O   0  0  0  0  0  0  0  0  0  0  0  0
   14.7712  -17.5126   21.9365 O   0  0  0  0  0  0  0  0  0  0  0  0
  2  1  1  1
  3  4  1  0
  3  2  1  0
  4  5  2  0
  5  6  1  0
  7  6  1  0
  8  7  2  0
  9  8  1  0
 10 11  1  0
 10  9  2  0
 11 12  2  0
 12  4  1  0
 12  7  1  0
 13  2  1  0
 14 13  2  0
 16 15  1  0
 17 16  2  0
 18 16  1  0
 19 20  1  0
 19 18  1  6
 20 13  1  0
 21 19  1  0
 22 21  2  0
 24 23  1  0
 24 25  2  0
 26 27  1  0
 26 24  1  0
 27 28  1  0
 28 29  1  0
 30 29  1  1
 30 31  1  0
 31 21  1  0
 32 30  1  0
 33 32  1  0
 34 32  2  0
M  END
$$$$
