WNR.pdb
     RDKit          3D

 34 35  0  0  1  0  0  0  0  0999 V2000
    7.0313  -17.7683   25.4786 N   0  0  0  0  0  0  0  0  0  0  0  0
    6.8114  -17.4722   24.0895 C   0  0  1  0  0  0  0  0  0  0  0  0
    6.6669  -15.9937   23.8290 C   0  0  0  0  0  0  0  0  0  0  0  0
    6.6216  -15.2255   25.0986 C   0  0  0  0  0  0  0  0  0  0  0  0
    5.9741  -15.5126   26.2779 C   0  0  0  0  0  0  0  0  0  0  0  0
    6.2109  -14.5276   27.1635 N   0  0  0  0  0  0  0  0  0  0  0  0
    6.9983  -13.5952   26.6029 C   0  0  0  0  0  0  0  0  0  0  0  0
    7.5354  -12.4098   27.0442 C   0  0  0  0  0  0  0  0  0  0  0  0
    8.3228  -11.6524   26.2226 C   0  0  0  0  0  0  0  0  0  0  0  0
    8.6017  -12.0515   24.9325 C   0  0  0  0  0  0  0  0  0  0  0  0
    8.0525  -13.2491   24.5034 C   0  0  0  0  0  0  0  0  0  0  0  0
    7.2641  -14.0110   25.3204 C   0  0  0  0  0  0  0  0  0  0  0  0
    7.8181  -18.1315   23.2504 C   0  0  0  0  0  0  0  0  0  0  0  0
    8.7705  -18.7337   23.8664 O   0  0  0  0  0  0  0  0  0  0  0  0
    6.9564  -20.9675   19.8914 N   0  0  0  0  0  0  0  0  0  0  0  0
    7.1182  -19.5603   19.5433 C   0  0  0  0  0  0  0  0  0  0  0  0
    6.1025  -18.9870   19.1220 O   0  0  0  0  0  0  0  0  0  0  0  0
    8.4250  -18.9845   19.7209 C   0  0  0  0  0  0  0  0  0  0  0  0
    8.9479  -18.7846   21.1237 C   0  0  2  0  0  0  0  0  0  0  0  0
    7.7929  -18.1369   21.8409 N   0  0  0  0  0  0  0  0  0  0  0  0
   10.0769  -17.8430   21.1960 C   0  0  0  0  0  0  0  0  0  0  0  0
   11.1516  -18.1743   20.5604 O   0  0  0  0  0  0  0  0  0  0  0  0
    7.2044  -13.9072   19.8863 N   0  0  0  0  0  0  0  0  0  0  0  0
    8.0192  -13.6279   18.7500 C   0  0  0  0  0  0  0  0  0  0  0  0
    7.6825  -14.1751   17.6489 N   0  0  0  0  0  0  0  0  0  0  0  0
    9.1395  -12.7836   18.8665 N   0  0  0  0  0  0  0  0  0  0  0  0
    9.9772  -12.8387   20.0271 C   0  0  0  0  0  0  0  0  0  0  0  0
   10.6310  -14.1963   20.1714 C   0  0  0  0  0  0  0  0  0  0  0  0
   10.9339  -14.3703   21.6466 C   0  0  0  0  0  0  0  0  0  0  0  0
   11.3675  -15.7992   21.8938 C   0  0  2  0  0  0  0  0  0  0  0  0
   10.1596  -16.6175   21.8576 N   0  0  0  0  0  0  0  0  0  0  0  0
   12.0056  -15.8290   23.2238 C   0  0  0  0  0  0  0  0  0  0  0  0
   13.2379  -15.2576   23.4191 O   0  0  0  0  0  0  0  0  0  0  0  0
   11.4143  -16.3783   24.1696 O   0  0  0  0  0  0  0  0  0  0  0  0
  2  1  1  1
  3  4  1  0
  3  2  1  0
  4  5  2  0
  5  6  1  0
  7  6  1  0
  8  7  2  0
  9  8  1  0
 10 11  1  0
 10  9  2  0
 11 12  2  0
 12  4  1  0
 12  7  1  0
 13  2  1  0
 14 13  2  0
 16 15  1  0
 17 16  2  0
 18 16  1  0
 19 20  1  0
 19 18  1  6
 20 13  1  0
 21 19  1  0
 22 21  2  0
 24 23  1  0
 24 25  2  0
 26 27  1  0
 26 24  1  0
 27 28  1  0
 28 29  1  0
 30 29  1  1
 30 31  1  0
 31 21  1  0
 32 30  1  0
 33 32  1  0
 34 32  2  0
M  END
$$$$
