SHD.pdb
     RDKit          3D

 25 25  0  0  1  0  0  0  0  0999 V2000
   24.2211  -14.2390  -20.6280 O   0  0  0  0  0  0  0  0  0  0  0  0
   24.0867  -13.5289  -19.4491 C   0  0  0  0  0  0  0  0  0  0  0  0
   23.6678  -12.0983  -19.7299 C   0  0  2  0  0  0  0  0  0  0  0  0
   24.5964  -11.5224  -20.6440 N   0  0  0  0  0  0  0  0  0  0  0  0
   23.6067  -11.3712  -18.4186 C   0  0  0  0  0  0  0  0  0  0  0  0
   22.8098  -11.8049  -17.5596 O   0  0  0  0  0  0  0  0  0  0  0  0
   24.4049  -10.2486  -18.1521 N   0  0  0  0  0  0  0  0  0  0  0  0
   24.4123   -9.3988  -17.0001 C   0  0  1  0  0  0  0  0  0  0  0  0
   25.8004   -9.0314  -16.5207 C   0  0  0  0  0  0  0  0  0  0  0  0
   26.5988  -10.2513  -16.2430 C   0  0  0  0  0  0  0  0  0  0  0  0
   26.1814  -11.5871  -16.2958 C   0  0  0  0  0  0  0  0  0  0  0  0
   27.1979  -12.3970  -15.9273 N   0  0  0  0  0  0  0  0  0  0  0  0
   28.2371  -11.6054  -15.6462 C   0  0  0  0  0  0  0  0  0  0  0  0
   27.8812  -10.3345  -15.8335 N   0  0  0  0  0  0  0  0  0  0  0  0
   23.4831   -8.2794  -17.1199 C   0  0  0  0  0  0  0  0  0  0  0  0
   23.6937   -7.3826  -18.0073 O   0  0  0  0  0  0  0  0  0  0  0  0
   22.3457   -8.1491  -16.2817 N   0  0  0  0  0  0  0  0  0  0  0  0
   21.3634   -7.1082  -16.3352 C   0  0  1  0  0  0  0  0  0  0  0  0
   19.9963   -7.5861  -16.6558 C   0  0  0  0  0  0  0  0  0  0  0  0
   19.9432   -8.2246  -17.9750 C   0  0  0  0  0  0  0  0  0  0  0  0
   19.4777   -9.3929  -18.1740 O   0  0  0  0  0  0  0  0  0  0  0  0
   21.4207   -6.1698  -15.1783 C   0  0  0  0  0  0  0  0  0  0  0  0
   22.0918   -6.4551  -14.1487 O   0  0  0  0  0  0  0  0  0  0  0  0
   20.4352   -7.4983  -19.0688 O   0  0  0  0  0  0  0  0  0  0  0  0
   20.7587   -4.9745  -15.1714 O   0  0  0  0  0  0  0  0  0  0  0  0
  1  2  1  0
  3  2  1  0
  3  4  1  6
  5  6  2  0
  5  3  1  0
  7  5  1  0
  8  9  1  6
  8  7  1  0
  9 10  1  0
 10 14  1  0
 11 10  2  0
 11 12  1  0
 12 13  1  0
 14 13  2  0
 15  8  1  0
 16 15  2  0
 17 15  1  0
 18 17  1  0
 18 19  1  1
 19 20  1  0
 20 24  1  0
 21 20  2  0
 22 25  1  0
 22 18  1  0
 23 22  2  0
M  END
$$$$
