SHD.pdb
     RDKit          3D

 25 25  0  0  1  0  0  0  0  0999 V2000
   18.2234  -10.5469  -12.7595 O   0  0  0  0  0  0  0  0  0  0  0  0
   17.1415  -11.3264  -13.1252 C   0  0  0  0  0  0  0  0  0  0  0  0
   16.1656  -11.4637  -11.9721 C   0  0  2  0  0  0  0  0  0  0  0  0
   15.1265  -12.3586  -12.3583 N   0  0  0  0  0  0  0  0  0  0  0  0
   15.6623  -10.0921  -11.6297 C   0  0  0  0  0  0  0  0  0  0  0  0
   14.9510   -9.5143  -12.4790 O   0  0  0  0  0  0  0  0  0  0  0  0
   15.9689   -9.4696  -10.4103 N   0  0  0  0  0  0  0  0  0  0  0  0
   15.5380   -8.1988   -9.9117 C   0  0  1  0  0  0  0  0  0  0  0  0
   15.3361   -8.1675   -8.4117 C   0  0  0  0  0  0  0  0  0  0  0  0
   14.7384   -6.8761   -7.9903 C   0  0  0  0  0  0  0  0  0  0  0  0
   14.4659   -5.7521   -8.7801 C   0  0  0  0  0  0  0  0  0  0  0  0
   13.9646   -4.7634   -8.0080 N   0  0  0  0  0  0  0  0  0  0  0  0
   13.9165   -5.2379   -6.7597 C   0  0  0  0  0  0  0  0  0  0  0  0
   14.3751   -6.4895   -6.7502 N   0  0  0  0  0  0  0  0  0  0  0  0
   16.3145   -7.0883  -10.4544 C   0  0  0  0  0  0  0  0  0  0  0  0
   17.5348   -6.9443  -10.0991 O   0  0  0  0  0  0  0  0  0  0  0  0
   15.7607   -6.1555  -11.3690 N   0  0  0  0  0  0  0  0  0  0  0  0
   16.4443   -5.0572  -11.9837 C   0  0  1  0  0  0  0  0  0  0  0  0
   16.5599   -5.1691  -13.4583 C   0  0  0  0  0  0  0  0  0  0  0  0
   17.3601   -6.3340  -13.8501 C   0  0  0  0  0  0  0  0  0  0  0  0
   18.4593   -6.6534  -13.2927 O   0  0  0  0  0  0  0  0  0  0  0  0
   15.9783   -3.7218  -11.5127 C   0  0  0  0  0  0  0  0  0  0  0  0
   16.5829   -2.6693  -11.8567 O   0  0  0  0  0  0  0  0  0  0  0  0
   16.8771   -7.1315  -14.8974 O   0  0  0  0  0  0  0  0  0  0  0  0
   14.8935   -3.5710  -10.6957 O   0  0  0  0  0  0  0  0  0  0  0  0
  1  2  1  0
  3  2  1  0
  3  4  1  6
  5  6  2  0
  5  3  1  0
  7  5  1  0
  8  9  1  1
  8  7  1  0
  9 10  1  0
 10 14  1  0
 11 10  2  0
 11 12  1  0
 12 13  1  0
 14 13  2  0
 15  8  1  0
 16 15  2  0
 17 15  1  0
 18 17  1  0
 18 19  1  6
 19 20  1  0
 20 24  1  0
 21 20  2  0
 22 25  1  0
 22 18  1  0
 23 22  2  0
M  END
$$$$
