SHD.pdb
     RDKit          3D

 25 25  0  0  1  0  0  0  0  0999 V2000
   27.6370   -9.9205  -16.1886 O   0  0  0  0  0  0  0  0  0  0  0  0
   26.6454  -10.0258  -15.2306 C   0  0  0  0  0  0  0  0  0  0  0  0
   25.6384  -11.0925  -15.6164 C   0  0  2  0  0  0  0  0  0  0  0  0
   26.1499  -11.8217  -16.7282 N   0  0  0  0  0  0  0  0  0  0  0  0
   24.3352  -10.4095  -15.9115 C   0  0  0  0  0  0  0  0  0  0  0  0
   24.1822   -9.9380  -17.0584 O   0  0  0  0  0  0  0  0  0  0  0  0
   23.3197  -10.2961  -14.9499 N   0  0  0  0  0  0  0  0  0  0  0  0
   22.0421   -9.6592  -15.0566 C   0  0  1  0  0  0  0  0  0  0  0  0
   20.8957  -10.4979  -14.5331 C   0  0  0  0  0  0  0  0  0  0  0  0
   20.6129  -11.6297  -15.4506 C   0  0  0  0  0  0  0  0  0  0  0  0
   21.1468  -11.8632  -16.7241 C   0  0  0  0  0  0  0  0  0  0  0  0
   20.5975  -12.9794  -17.2508 N   0  0  0  0  0  0  0  0  0  0  0  0
   19.7366  -13.4488  -16.3431 C   0  0  0  0  0  0  0  0  0  0  0  0
   19.7463  -12.6486  -15.2770 N   0  0  0  0  0  0  0  0  0  0  0  0
   22.0612   -8.2768  -14.5882 C   0  0  0  0  0  0  0  0  0  0  0  0
   22.4337   -8.0262  -13.3904 O   0  0  0  0  0  0  0  0  0  0  0  0
   21.6790   -7.1925  -15.4197 N   0  0  0  0  0  0  0  0  0  0  0  0
   21.6546   -5.8076  -15.0554 C   0  0  1  0  0  0  0  0  0  0  0  0
   22.4177   -4.9292  -15.9753 C   0  0  0  0  0  0  0  0  0  0  0  0
   22.3620   -3.5261  -15.5521 C   0  0  0  0  0  0  0  0  0  0  0  0
   22.4828   -3.1500  -14.3417 O   0  0  0  0  0  0  0  0  0  0  0  0
   20.2932   -5.2990  -14.7231 C   0  0  0  0  0  0  0  0  0  0  0  0
   19.2727   -5.7596  -15.3046 O   0  0  0  0  0  0  0  0  0  0  0  0
   22.1644   -2.5555  -16.5445 O   0  0  0  0  0  0  0  0  0  0  0  0
   20.0837   -4.3225  -13.7906 O   0  0  0  0  0  0  0  0  0  0  0  0
  1  2  1  0
  3  2  1  0
  3  4  1  6
  5  6  2  0
  5  3  1  0
  7  5  1  0
  8  9  1  1
  8  7  1  0
  9 10  1  0
 10 14  1  0
 11 10  2  0
 11 12  1  0
 12 13  1  0
 14 13  2  0
 15  8  1  0
 16 15  2  0
 17 15  1  0
 18 17  1  0
 18 19  1  6
 19 20  1  0
 20 24  1  0
 21 20  2  0
 22 25  1  0
 22 18  1  0
 23 22  2  0
M  END
$$$$
