SHD.pdb
     RDKit          3D

 25 25  0  0  1  0  0  0  0  0999 V2000
   16.0085  -11.8232  -20.9283 O   0  0  0  0  0  0  0  0  0  0  0  0
   16.3105  -11.2361  -19.7134 C   0  0  0  0  0  0  0  0  0  0  0  0
   17.5364  -11.8819  -19.0960 C   0  0  2  0  0  0  0  0  0  0  0  0
   17.2325  -13.2405  -18.7935 N   0  0  0  0  0  0  0  0  0  0  0  0
   17.9172  -11.0816  -17.8851 C   0  0  0  0  0  0  0  0  0  0  0  0
   17.3093  -11.3272  -16.8215 O   0  0  0  0  0  0  0  0  0  0  0  0
   18.9130  -10.0941  -17.9284 N   0  0  0  0  0  0  0  0  0  0  0  0
   19.3408   -9.1972  -16.8980 C   0  0  1  0  0  0  0  0  0  0  0  0
   20.6811   -9.5566  -16.2928 C   0  0  0  0  0  0  0  0  0  0  0  0
   21.0242   -8.6255  -15.1892 C   0  0  0  0  0  0  0  0  0  0  0  0
   20.5993   -8.6732  -13.8556 C   0  0  0  0  0  0  0  0  0  0  0  0
   21.0984   -7.6150  -13.1803 N   0  0  0  0  0  0  0  0  0  0  0  0
   21.8221   -6.9086  -14.0537 C   0  0  0  0  0  0  0  0  0  0  0  0
   21.7775   -7.5081  -15.2435 N   0  0  0  0  0  0  0  0  0  0  0  0
   19.1876   -7.7948  -17.2727 C   0  0  0  0  0  0  0  0  0  0  0  0
   19.5542   -7.4138  -18.4374 O   0  0  0  0  0  0  0  0  0  0  0  0
   18.6422   -6.8313  -16.3853 N   0  0  0  0  0  0  0  0  0  0  0  0
   18.5159   -5.4254  -16.6279 C   0  0  1  0  0  0  0  0  0  0  0  0
   17.3055   -4.8164  -16.0246 C   0  0  0  0  0  0  0  0  0  0  0  0
   16.0883   -5.2110  -16.7414 C   0  0  0  0  0  0  0  0  0  0  0  0
   16.0824   -5.6219  -17.9464 O   0  0  0  0  0  0  0  0  0  0  0  0
   19.7692   -4.6586  -16.3755 C   0  0  0  0  0  0  0  0  0  0  0  0
   20.0888   -3.6845  -17.1108 O   0  0  0  0  0  0  0  0  0  0  0  0
   14.8711   -5.1262  -16.0506 O   0  0  0  0  0  0  0  0  0  0  0  0
   20.6236   -4.9673  -15.3548 O   0  0  0  0  0  0  0  0  0  0  0  0
  1  2  1  0
  3  2  1  0
  3  4  1  1
  5  6  2  0
  5  3  1  0
  7  5  1  0
  8  9  1  6
  8  7  1  0
  9 10  1  0
 10 14  1  0
 11 10  2  0
 11 12  1  0
 12 13  1  0
 14 13  2  0
 15  8  1  0
 16 15  2  0
 17 15  1  0
 18 17  1  0
 18 19  1  1
 19 20  1  0
 20 24  1  0
 21 20  2  0
 22 25  1  0
 22 18  1  0
 23 22  2  0
M  END
$$$$
