SHD.pdb
     RDKit          3D

 25 25  0  0  1  0  0  0  0  0999 V2000
   25.5959   -6.5283  -22.0587 O   0  0  0  0  0  0  0  0  0  0  0  0
   25.1445   -6.9961  -20.8383 C   0  0  0  0  0  0  0  0  0  0  0  0
   25.8069   -8.3159  -20.4918 C   0  0  2  0  0  0  0  0  0  0  0  0
   25.6541   -9.2059  -21.5937 N   0  0  0  0  0  0  0  0  0  0  0  0
   25.1770   -8.8294  -19.2303 C   0  0  0  0  0  0  0  0  0  0  0  0
   24.2435   -9.6513  -19.3495 O   0  0  0  0  0  0  0  0  0  0  0  0
   25.6067   -8.4137  -17.9611 N   0  0  0  0  0  0  0  0  0  0  0  0
   25.0387   -8.6967  -16.6779 C   0  0  1  0  0  0  0  0  0  0  0  0
   26.0675   -8.9543  -15.5977 C   0  0  0  0  0  0  0  0  0  0  0  0
   26.9104  -10.1253  -15.9454 C   0  0  0  0  0  0  0  0  0  0  0  0
   26.7129  -11.0570  -16.9722 C   0  0  0  0  0  0  0  0  0  0  0  0
   27.6801  -11.9989  -16.9250 N   0  0  0  0  0  0  0  0  0  0  0  0
   28.4751  -11.6820  -15.8987 C   0  0  0  0  0  0  0  0  0  0  0  0
   28.0182  -10.5720  -15.3190 N   0  0  0  0  0  0  0  0  0  0  0  0
   23.9792   -7.7614  -16.3124 C   0  0  0  0  0  0  0  0  0  0  0  0
   24.0930   -6.5288  -16.6344 O   0  0  0  0  0  0  0  0  0  0  0  0
   22.8185   -8.1731  -15.6078 N   0  0  0  0  0  0  0  0  0  0  0  0
   21.6313   -7.4002  -15.3972 C   0  0  1  0  0  0  0  0  0  0  0  0
   21.7083   -6.0197  -15.9342 C   0  0  0  0  0  0  0  0  0  0  0  0
   20.4581   -5.2847  -15.7151 C   0  0  0  0  0  0  0  0  0  0  0  0
   19.8703   -5.2151  -14.5879 O   0  0  0  0  0  0  0  0  0  0  0  0
   20.3759   -8.1199  -15.7556 C   0  0  0  0  0  0  0  0  0  0  0  0
   19.4141   -8.1841  -14.9417 O   0  0  0  0  0  0  0  0  0  0  0  0
   19.8895   -4.6273  -16.8152 O   0  0  0  0  0  0  0  0  0  0  0  0
   20.2058   -8.7394  -16.9616 O   0  0  0  0  0  0  0  0  0  0  0  0
  1  2  1  0
  3  2  1  0
  3  4  1  6
  5  6  2  0
  5  3  1  0
  7  5  1  0
  8  9  1  1
  8  7  1  0
  9 10  1  0
 10 14  1  0
 11 10  2  0
 11 12  1  0
 12 13  1  0
 14 13  2  0
 15  8  1  0
 16 15  2  0
 17 15  1  0
 18 17  1  0
 18 19  1  6
 19 20  1  0
 20 24  1  0
 21 20  2  0
 22 25  1  0
 22 18  1  0
 23 22  2  0
M  END
$$$$
