SHD.pdb
     RDKit          3D

 25 25  0  0  1  0  0  0  0  0999 V2000
   26.6916  -18.8199  -16.8378 O   0  0  0  0  0  0  0  0  0  0  0  0
   25.8761  -19.7236  -16.1820 C   0  0  0  0  0  0  0  0  0  0  0  0
   24.4164  -19.3446  -16.3449 C   0  0  2  0  0  0  0  0  0  0  0  0
   24.2665  -17.9628  -16.0325 N   0  0  0  0  0  0  0  0  0  0  0  0
   23.6066  -20.2396  -15.4531 C   0  0  0  0  0  0  0  0  0  0  0  0
   23.7301  -21.4724  -15.6140 O   0  0  0  0  0  0  0  0  0  0  0  0
   22.7414  -19.7289  -14.4738 N   0  0  0  0  0  0  0  0  0  0  0  0
   21.9289  -20.4347  -13.5298 C   0  0  1  0  0  0  0  0  0  0  0  0
   22.3176  -20.1918  -12.0870 C   0  0  0  0  0  0  0  0  0  0  0  0
   23.6218  -20.8306  -11.7810 C   0  0  0  0  0  0  0  0  0  0  0  0
   24.4229  -21.6068  -12.6277 C   0  0  0  0  0  0  0  0  0  0  0  0
   25.5099  -22.0420  -11.9539 N   0  0  0  0  0  0  0  0  0  0  0  0
   25.4101  -21.5600  -10.7116 C   0  0  0  0  0  0  0  0  0  0  0  0
   24.2912  -20.8425  -10.6101 N   0  0  0  0  0  0  0  0  0  0  0  0
   20.5022  -20.3153  -13.8144 C   0  0  0  0  0  0  0  0  0  0  0  0
   19.9612  -19.1563  -13.8295 O   0  0  0  0  0  0  0  0  0  0  0  0
   19.6873  -21.4467  -14.0772 N   0  0  0  0  0  0  0  0  0  0  0  0
   18.2874  -21.4360  -14.3797 C   0  0  1  0  0  0  0  0  0  0  0  0
   17.8204  -22.6380  -15.1127 C   0  0  0  0  0  0  0  0  0  0  0  0
   16.4165  -22.5116  -15.5176 C   0  0  0  0  0  0  0  0  0  0  0  0
   16.0443  -21.9797  -16.6129 O   0  0  0  0  0  0  0  0  0  0  0  0
   17.4268  -21.0610  -13.2217 C   0  0  0  0  0  0  0  0  0  0  0  0
   16.4444  -20.2840  -13.3729 O   0  0  0  0  0  0  0  0  0  0  0  0
   15.4404  -23.0076  -14.6416 O   0  0  0  0  0  0  0  0  0  0  0  0
   17.6550  -21.5281  -11.9580 O   0  0  0  0  0  0  0  0  0  0  0  0
  1  2  1  0
  3  2  1  0
  3  4  1  1
  5  6  2  0
  5  3  1  0
  7  5  1  0
  8  9  1  1
  8  7  1  0
  9 10  1  0
 10 14  1  0
 11 10  2  0
 11 12  1  0
 12 13  1  0
 14 13  2  0
 15  8  1  0
 16 15  2  0
 17 15  1  0
 18 17  1  0
 18 19  1  1
 19 20  1  0
 20 24  1  0
 21 20  2  0
 22 25  1  0
 22 18  1  0
 23 22  2  0
M  END
$$$$
