SHD.pdb
     RDKit          3D

 25 25  0  0  1  0  0  0  0  0999 V2000
   34.9470  -37.0101   -2.8488 O   0  0  0  0  0  0  0  0  0  0  0  0
   34.0326  -36.0009   -2.6092 C   0  0  0  0  0  0  0  0  0  0  0  0
   32.8669  -36.0933   -3.5754 C   0  0  2  0  0  0  0  0  0  0  0  0
   33.3277  -35.7521   -4.8796 N   0  0  0  0  0  0  0  0  0  0  0  0
   31.7839  -35.1814   -3.0779 C   0  0  0  0  0  0  0  0  0  0  0  0
   31.8490  -33.9792   -3.4116 O   0  0  0  0  0  0  0  0  0  0  0  0
   30.7341  -35.6440   -2.2702 N   0  0  0  0  0  0  0  0  0  0  0  0
   29.6363  -34.9151   -1.7110 C   0  0  1  0  0  0  0  0  0  0  0  0
   28.2981  -35.2538   -2.3325 C   0  0  0  0  0  0  0  0  0  0  0  0
   28.2998  -34.9405   -3.7832 C   0  0  0  0  0  0  0  0  0  0  0  0
   29.3758  -34.5195   -4.5745 C   0  0  0  0  0  0  0  0  0  0  0  0
   28.9523  -34.2953   -5.8375 N   0  0  0  0  0  0  0  0  0  0  0  0
   27.6435  -34.5641   -5.8572 C   0  0  0  0  0  0  0  0  0  0  0  0
   27.2579  -34.9462   -4.6397 N   0  0  0  0  0  0  0  0  0  0  0  0
   29.6545  -34.9013   -0.2515 C   0  0  0  0  0  0  0  0  0  0  0  0
   30.2760  -35.8265    0.3761 O   0  0  0  0  0  0  0  0  0  0  0  0
   29.0031  -33.8910    0.5024 N   0  0  0  0  0  0  0  0  0  0  0  0
   28.9423  -33.7999    1.9304 C   0  0  1  0  0  0  0  0  0  0  0  0
   28.8031  -32.4139    2.4401 C   0  0  0  0  0  0  0  0  0  0  0  0
   28.9474  -32.3581    3.8985 C   0  0  0  0  0  0  0  0  0  0  0  0
   29.1919  -33.3770    4.6217 O   0  0  0  0  0  0  0  0  0  0  0  0
   27.9990  -34.7716    2.5535 C   0  0  0  0  0  0  0  0  0  0  0  0
   28.1221  -35.1047    3.7641 O   0  0  0  0  0  0  0  0  0  0  0  0
   28.8060  -31.1082    4.5181 O   0  0  0  0  0  0  0  0  0  0  0  0
   26.9721  -35.3444    1.8576 O   0  0  0  0  0  0  0  0  0  0  0  0
  1  2  1  0
  3  2  1  0
  3  4  1  6
  5  6  2  0
  5  3  1  0
  7  5  1  0
  8  9  1  1
  8  7  1  0
  9 10  1  0
 10 14  1  0
 11 10  2  0
 11 12  1  0
 12 13  1  0
 14 13  2  0
 15  8  1  0
 16 15  2  0
 17 15  1  0
 18 17  1  0
 18 19  1  6
 19 20  1  0
 20 24  1  0
 21 20  2  0
 22 25  1  0
 22 18  1  0
 23 22  2  0
M  END
$$$$
