SHD.pdb
     RDKit          3D

 25 25  0  0  1  0  0  0  0  0999 V2000
   19.5992  -21.7893  -12.2154 O   0  0  0  0  0  0  0  0  0  0  0  0
   19.9090  -20.5723  -12.7941 C   0  0  0  0  0  0  0  0  0  0  0  0
   20.3882  -20.7636  -14.2206 C   0  0  2  0  0  0  0  0  0  0  0  0
   21.0393  -22.0271  -14.3172 N   0  0  0  0  0  0  0  0  0  0  0  0
   21.2875  -19.6118  -14.5620 C   0  0  0  0  0  0  0  0  0  0  0  0
   20.7974  -18.4642  -14.4996 O   0  0  0  0  0  0  0  0  0  0  0  0
   22.6262  -19.7987  -14.9378 N   0  0  0  0  0  0  0  0  0  0  0  0
   23.6260  -18.8182  -15.2350 C   0  0  1  0  0  0  0  0  0  0  0  0
   25.0004  -19.1669  -14.7047 C   0  0  0  0  0  0  0  0  0  0  0  0
   25.9446  -18.0416  -14.9162 C   0  0  0  0  0  0  0  0  0  0  0  0
   25.8399  -16.7265  -14.4461 C   0  0  0  0  0  0  0  0  0  0  0  0
   26.8837  -15.9970  -14.8971 N   0  0  0  0  0  0  0  0  0  0  0  0
   27.6363  -16.8186  -15.6348 C   0  0  0  0  0  0  0  0  0  0  0  0
   27.0792  -18.0296  -15.6455 N   0  0  0  0  0  0  0  0  0  0  0  0
   23.5926  -18.3842  -16.6283 C   0  0  0  0  0  0  0  0  0  0  0  0
   23.5291  -19.2619  -17.5566 O   0  0  0  0  0  0  0  0  0  0  0  0
   23.6279  -17.0135  -16.9932 N   0  0  0  0  0  0  0  0  0  0  0  0
   23.4767  -16.4798  -18.3137 C   0  0  1  0  0  0  0  0  0  0  0  0
   22.6591  -15.2436  -18.3737 C   0  0  0  0  0  0  0  0  0  0  0  0
   21.2400  -15.5227  -18.1307 C   0  0  0  0  0  0  0  0  0  0  0  0
   20.7286  -16.6865  -18.2027 O   0  0  0  0  0  0  0  0  0  0  0  0
   24.7545  -16.3980  -19.0772 C   0  0  0  0  0  0  0  0  0  0  0  0
   24.9787  -17.1756  -20.0450 O   0  0  0  0  0  0  0  0  0  0  0  0
   20.4118  -14.4401  -17.8021 O   0  0  0  0  0  0  0  0  0  0  0  0
   25.7335  -15.4950  -18.7719 O   0  0  0  0  0  0  0  0  0  0  0  0
  1  2  1  0
  3  2  1  0
  3  4  1  1
  5  6  2  0
  5  3  1  0
  7  5  1  0
  8  9  1  6
  8  7  1  0
  9 10  1  0
 10 14  1  0
 11 10  2  0
 11 12  1  0
 12 13  1  0
 14 13  2  0
 15  8  1  0
 16 15  2  0
 17 15  1  0
 18 17  1  0
 18 19  1  1
 19 20  1  0
 20 24  1  0
 21 20  2  0
 22 25  1  0
 22 18  1  0
 23 22  2  0
M  END
$$$$
