SHD.pdb
     RDKit          3D

 25 25  0  0  1  0  0  0  0  0999 V2000
   15.4973   -4.5405   -9.1880 O   0  0  0  0  0  0  0  0  0  0  0  0
   14.4524   -5.4341   -9.3348 C   0  0  0  0  0  0  0  0  0  0  0  0
   14.8065   -6.7776   -8.7261 C   0  0  2  0  0  0  0  0  0  0  0  0
   15.1146   -6.5869   -7.3483 N   0  0  0  0  0  0  0  0  0  0  0  0
   15.9507   -7.3504   -9.5099 C   0  0  0  0  0  0  0  0  0  0  0  0
   17.0824   -7.3137   -8.9817 O   0  0  0  0  0  0  0  0  0  0  0  0
   15.7741   -7.9080  -10.7852 N   0  0  0  0  0  0  0  0  0  0  0  0
   16.7556   -8.4356  -11.6839 C   0  0  1  0  0  0  0  0  0  0  0  0
   16.2247   -9.5144  -12.6037 C   0  0  0  0  0  0  0  0  0  0  0  0
   15.8748  -10.7339  -11.8336 C   0  0  0  0  0  0  0  0  0  0  0  0
   16.2416  -11.0623  -10.5225 C   0  0  0  0  0  0  0  0  0  0  0  0
   15.7590  -12.2839  -10.2068 N   0  0  0  0  0  0  0  0  0  0  0  0
   15.1020  -12.7271  -11.2826 C   0  0  0  0  0  0  0  0  0  0  0  0
   15.1711  -11.8083  -12.2458 N   0  0  0  0  0  0  0  0  0  0  0  0
   17.5363   -7.3919  -12.3411 C   0  0  0  0  0  0  0  0  0  0  0  0
   16.9418   -6.3490  -12.7828 O   0  0  0  0  0  0  0  0  0  0  0  0
   18.9417   -7.4926  -12.5087 N   0  0  0  0  0  0  0  0  0  0  0  0
   19.7852   -6.5653  -13.2015 C   0  0  1  0  0  0  0  0  0  0  0  0
   21.1009   -6.3470  -12.5525 C   0  0  0  0  0  0  0  0  0  0  0  0
   21.8725   -5.3025  -13.2343 C   0  0  0  0  0  0  0  0  0  0  0  0
   21.3710   -4.4972  -14.0834 O   0  0  0  0  0  0  0  0  0  0  0  0
   19.8677   -6.8111  -14.6695 C   0  0  0  0  0  0  0  0  0  0  0  0
   20.1525   -7.9557  -15.1170 O   0  0  0  0  0  0  0  0  0  0  0  0
   23.2359   -5.1955  -12.9252 O   0  0  0  0  0  0  0  0  0  0  0  0
   19.6463   -5.8263  -15.5905 O   0  0  0  0  0  0  0  0  0  0  0  0
  1  2  1  0
  3  2  1  0
  3  4  1  1
  5  6  2  0
  5  3  1  0
  7  5  1  0
  8  9  1  6
  8  7  1  0
  9 10  1  0
 10 14  1  0
 11 10  2  0
 11 12  1  0
 12 13  1  0
 14 13  2  0
 15  8  1  0
 16 15  2  0
 17 15  1  0
 18 17  1  0
 18 19  1  1
 19 20  1  0
 20 24  1  0
 21 20  2  0
 22 25  1  0
 22 18  1  0
 23 22  2  0
M  END
$$$$
