SHD.pdb
     RDKit          3D

 25 25  0  0  1  0  0  0  0  0999 V2000
   21.2504  -12.0272  -17.7051 O   0  0  0  0  0  0  0  0  0  0  0  0
   20.2445  -11.3261  -18.3445 C   0  0  0  0  0  0  0  0  0  0  0  0
   20.6655   -9.8899  -18.5914 C   0  0  2  0  0  0  0  0  0  0  0  0
   21.9332   -9.8917  -19.2414 N   0  0  0  0  0  0  0  0  0  0  0  0
   20.6850   -9.1824  -17.2681 C   0  0  0  0  0  0  0  0  0  0  0  0
   19.6067   -9.1102  -16.6411 O   0  0  0  0  0  0  0  0  0  0  0  0
   21.8576   -8.6194  -16.7423 N   0  0  0  0  0  0  0  0  0  0  0  0
   22.0246   -7.8064  -15.5759 C   0  0  1  0  0  0  0  0  0  0  0  0
   23.0979   -8.3052  -14.6320 C   0  0  0  0  0  0  0  0  0  0  0  0
   22.8585   -9.7242  -14.2692 C   0  0  0  0  0  0  0  0  0  0  0  0
   23.6746  -10.8319  -14.5304 C   0  0  0  0  0  0  0  0  0  0  0  0
   23.0769  -11.9553  -14.0768 N   0  0  0  0  0  0  0  0  0  0  0  0
   21.9118  -11.5806  -13.5403 C   0  0  0  0  0  0  0  0  0  0  0  0
   21.7833  -10.2588  -13.6548 N   0  0  0  0  0  0  0  0  0  0  0  0
   22.0881   -6.3816  -15.8870 C   0  0  0  0  0  0  0  0  0  0  0  0
   23.0636   -5.9353  -16.5837 O   0  0  0  0  0  0  0  0  0  0  0  0
   21.0994   -5.4666  -15.4416 N   0  0  0  0  0  0  0  0  0  0  0  0
   20.8878   -4.1370  -15.9301 C   0  0  1  0  0  0  0  0  0  0  0  0
   20.9721   -4.0172  -17.4061 C   0  0  0  0  0  0  0  0  0  0  0  0
   20.7020   -2.6465  -17.8527 C   0  0  0  0  0  0  0  0  0  0  0  0
   21.2761   -1.6205  -17.3641 O   0  0  0  0  0  0  0  0  0  0  0  0
   19.6996   -3.4616  -15.3349 C   0  0  0  0  0  0  0  0  0  0  0  0
   19.5041   -2.2275  -15.5094 O   0  0  0  0  0  0  0  0  0  0  0  0
   19.7578   -2.4701  -18.8741 O   0  0  0  0  0  0  0  0  0  0  0  0
   18.7784   -4.1313  -14.5798 O   0  0  0  0  0  0  0  0  0  0  0  0
  1  2  1  0
  3  2  1  0
  3  4  1  1
  5  6  2  0
  5  3  1  0
  7  5  1  0
  8  9  1  6
  8  7  1  0
  9 10  1  0
 10 14  1  0
 11 10  2  0
 11 12  1  0
 12 13  1  0
 14 13  2  0
 15  8  1  0
 16 15  2  0
 17 15  1  0
 18 17  1  0
 18 19  1  6
 19 20  1  0
 20 24  1  0
 21 20  2  0
 22 25  1  0
 22 18  1  0
 23 22  2  0
M  END
$$$$
