SHD.pdb
     RDKit          3D

 25 25  0  0  1  0  0  0  0  0999 V2000
   46.9170  -10.8039   -4.7118 O   0  0  0  0  0  0  0  0  0  0  0  0
   45.8445  -10.1100   -5.2410 C   0  0  0  0  0  0  0  0  0  0  0  0
   44.9585  -11.0328   -6.0560 C   0  0  2  0  0  0  0  0  0  0  0  0
   45.7413  -11.6190   -7.0919 N   0  0  0  0  0  0  0  0  0  0  0  0
   43.8070  -10.2235   -6.5765 C   0  0  0  0  0  0  0  0  0  0  0  0
   43.9128   -9.7514   -7.7284 O   0  0  0  0  0  0  0  0  0  0  0  0
   42.6516   -9.9966   -5.8136 N   0  0  0  0  0  0  0  0  0  0  0  0
   41.4929   -9.2212   -6.1384 C   0  0  1  0  0  0  0  0  0  0  0  0
   40.2586   -9.6081   -5.3519 C   0  0  0  0  0  0  0  0  0  0  0  0
   39.2590  -10.2610   -6.2334 C   0  0  0  0  0  0  0  0  0  0  0  0
   39.2969  -10.4015   -7.6262 C   0  0  0  0  0  0  0  0  0  0  0  0
   38.1720  -11.0159   -8.0530 N   0  0  0  0  0  0  0  0  0  0  0  0
   37.4335  -11.2626   -6.9670 C   0  0  0  0  0  0  0  0  0  0  0  0
   38.0783  -10.8151   -5.8896 N   0  0  0  0  0  0  0  0  0  0  0  0
   41.7699   -7.7889   -6.1893 C   0  0  0  0  0  0  0  0  0  0  0  0
   42.6835   -7.3003   -5.4391 O   0  0  0  0  0  0  0  0  0  0  0  0
   41.0573   -6.9120   -7.0475 N   0  0  0  0  0  0  0  0  0  0  0  0
   41.3404   -5.5264   -7.2746 C   0  0  1  0  0  0  0  0  0  0  0  0
   42.7380   -5.2578   -7.6924 C   0  0  0  0  0  0  0  0  0  0  0  0
   43.3752   -4.2551   -6.8326 C   0  0  0  0  0  0  0  0  0  0  0  0
   42.7268   -3.3961   -6.1523 O   0  0  0  0  0  0  0  0  0  0  0  0
   40.3160   -4.8339   -8.1072 C   0  0  0  0  0  0  0  0  0  0  0  0
   39.7581   -5.4281   -9.0702 O   0  0  0  0  0  0  0  0  0  0  0  0
   44.7757   -4.2528   -6.7648 O   0  0  0  0  0  0  0  0  0  0  0  0
   39.9369   -3.5415   -7.8769 O   0  0  0  0  0  0  0  0  0  0  0  0
  1  2  1  0
  3  2  1  0
  3  4  1  6
  5  6  2  0
  5  3  1  0
  7  5  1  0
  8  9  1  1
  8  7  1  0
  9 10  1  0
 10 14  1  0
 11 10  2  0
 11 12  1  0
 12 13  1  0
 14 13  2  0
 15  8  1  0
 16 15  2  0
 17 15  1  0
 18 17  1  0
 18 19  1  6
 19 20  1  0
 20 24  1  0
 21 20  2  0
 22 25  1  0
 22 18  1  0
 23 22  2  0
M  END
$$$$
