SHD.pdb
     RDKit          3D

 25 25  0  0  1  0  0  0  0  0999 V2000
   16.7054   -8.7540  -19.9242 O   0  0  0  0  0  0  0  0  0  0  0  0
   17.2679   -8.6658  -18.6641 C   0  0  0  0  0  0  0  0  0  0  0  0
   18.1498   -9.8680  -18.3854 C   0  0  2  0  0  0  0  0  0  0  0  0
   17.3203  -10.9671  -18.0201 N   0  0  0  0  0  0  0  0  0  0  0  0
   19.1239   -9.4845  -17.3102 C   0  0  0  0  0  0  0  0  0  0  0  0
   18.7059   -9.4823  -16.1328 O   0  0  0  0  0  0  0  0  0  0  0  0
   20.4529   -9.1396  -17.5983 N   0  0  0  0  0  0  0  0  0  0  0  0
   21.4881   -8.7110  -16.7073 C   0  0  1  0  0  0  0  0  0  0  0  0
   22.8702   -9.1854  -17.1031 C   0  0  0  0  0  0  0  0  0  0  0  0
   22.9441  -10.6674  -17.0725 C   0  0  0  0  0  0  0  0  0  0  0  0
   22.0116  -11.5678  -16.5426 C   0  0  0  0  0  0  0  0  0  0  0  0
   22.4737  -12.8307  -16.6712 N   0  0  0  0  0  0  0  0  0  0  0  0
   23.6672  -12.7443  -17.2658 C   0  0  0  0  0  0  0  0  0  0  0  0
   23.9451  -11.4624  -17.5031 N   0  0  0  0  0  0  0  0  0  0  0  0
   21.3930   -7.2931  -16.3740 C   0  0  0  0  0  0  0  0  0  0  0  0
   21.3450   -6.4297  -17.3165 O   0  0  0  0  0  0  0  0  0  0  0  0
   21.3511   -6.8340  -15.0320 N   0  0  0  0  0  0  0  0  0  0  0  0
   21.3025   -5.4693  -14.6001 C   0  0  1  0  0  0  0  0  0  0  0  0
   19.9584   -4.8513  -14.7069 C   0  0  0  0  0  0  0  0  0  0  0  0
   19.9949   -3.4208  -14.3855 C   0  0  0  0  0  0  0  0  0  0  0  0
   21.0722   -2.7521  -14.2695 O   0  0  0  0  0  0  0  0  0  0  0  0
   21.9765   -5.2301  -13.2921 C   0  0  0  0  0  0  0  0  0  0  0  0
   22.1254   -6.1683  -12.4619 O   0  0  0  0  0  0  0  0  0  0  0  0
   18.7696   -2.7654  -14.1979 O   0  0  0  0  0  0  0  0  0  0  0  0
   22.4566   -4.0034  -12.9292 O   0  0  0  0  0  0  0  0  0  0  0  0
  1  2  1  0
  3  2  1  0
  3  4  1  1
  5  6  2  0
  5  3  1  0
  7  5  1  0
  8  9  1  6
  8  7  1  0
  9 10  1  0
 10 14  1  0
 11 10  2  0
 11 12  1  0
 12 13  1  0
 14 13  2  0
 15  8  1  0
 16 15  2  0
 17 15  1  0
 18 17  1  0
 18 19  1  1
 19 20  1  0
 20 24  1  0
 21 20  2  0
 22 25  1  0
 22 18  1  0
 23 22  2  0
M  END
$$$$
