SHD.pdb
     RDKit          3D

 25 25  0  0  1  0  0  0  0  0999 V2000
   15.3424  -13.0934  -14.7288 O   0  0  0  0  0  0  0  0  0  0  0  0
   16.1781  -12.0291  -15.0130 C   0  0  0  0  0  0  0  0  0  0  0  0
   17.4490  -12.5104  -15.6868 C   0  0  2  0  0  0  0  0  0  0  0  0
   18.1622  -13.3407  -14.7748 N   0  0  0  0  0  0  0  0  0  0  0  0
   18.2292  -11.3018  -16.1140 C   0  0  0  0  0  0  0  0  0  0  0  0
   19.3893  -11.1810  -15.6662 O   0  0  0  0  0  0  0  0  0  0  0  0
   17.6924  -10.3373  -16.9801 N   0  0  0  0  0  0  0  0  0  0  0  0
   18.3355   -9.2125  -17.5888 C   0  0  1  0  0  0  0  0  0  0  0  0
   17.6333   -8.7052  -18.8303 C   0  0  0  0  0  0  0  0  0  0  0  0
   18.4534   -7.6724  -19.5110 C   0  0  0  0  0  0  0  0  0  0  0  0
   19.7418   -7.2355  -19.1788 C   0  0  0  0  0  0  0  0  0  0  0  0
   20.1184   -6.2468  -20.0188 N   0  0  0  0  0  0  0  0  0  0  0  0
   19.1025   -6.0542  -20.8652 C   0  0  0  0  0  0  0  0  0  0  0  0
   18.1166   -6.8992  -20.5636 N   0  0  0  0  0  0  0  0  0  0  0  0
   18.7029   -8.1826  -16.6218 C   0  0  0  0  0  0  0  0  0  0  0  0
   17.8733   -7.8617  -15.7026 O   0  0  0  0  0  0  0  0  0  0  0  0
   19.9566   -7.5195  -16.6644 N   0  0  0  0  0  0  0  0  0  0  0  0
   20.4698   -6.6050  -15.6890 C   0  0  1  0  0  0  0  0  0  0  0  0
   21.6929   -7.0833  -14.9996 C   0  0  0  0  0  0  0  0  0  0  0  0
   22.1462   -6.1302  -13.9812 C   0  0  0  0  0  0  0  0  0  0  0  0
   21.7027   -6.1103  -12.7879 O   0  0  0  0  0  0  0  0  0  0  0  0
   20.5596   -5.1985  -16.1747 C   0  0  0  0  0  0  0  0  0  0  0  0
   20.5414   -4.2330  -15.3628 O   0  0  0  0  0  0  0  0  0  0  0  0
   23.1217   -5.1949  -14.3549 O   0  0  0  0  0  0  0  0  0  0  0  0
   20.6612   -4.8869  -17.5013 O   0  0  0  0  0  0  0  0  0  0  0  0
  1  2  1  0
  3  2  1  0
  3  4  1  1
  5  6  2  0
  5  3  1  0
  7  5  1  0
  8  9  1  6
  8  7  1  0
  9 10  1  0
 10 14  1  0
 11 10  2  0
 11 12  1  0
 12 13  1  0
 14 13  2  0
 15  8  1  0
 16 15  2  0
 17 15  1  0
 18 17  1  0
 18 19  1  6
 19 20  1  0
 20 24  1  0
 21 20  2  0
 22 25  1  0
 22 18  1  0
 23 22  2  0
M  END
$$$$
