RGG.pdb
     RDKit          3D

 20 19  0  0  1  0  0  0  0  0999 V2000
   22.3930  -21.5575   -9.1533 N   0  0  0  0  0  0  0  0  0  0  0  0
   23.7509  -21.2402   -8.7710 C   0  0  0  0  0  0  0  0  0  0  0  0
   24.1302  -21.2490   -7.5623 N   0  0  0  0  0  0  0  0  0  0  0  0
   24.6613  -20.9127   -9.8032 N   0  0  0  0  0  0  0  0  0  0  0  0
   24.2402  -20.8529  -11.2091 C   0  0  0  0  0  0  0  0  0  0  0  0
   25.4137  -20.4914  -12.0709 C   0  0  0  0  0  0  0  0  0  0  0  0
   25.0678  -20.1811  -13.4814 C   0  0  0  0  0  0  0  0  0  0  0  0
   25.5828  -21.1739  -14.4679 C   0  0  2  0  0  0  0  0  0  0  0  0
   27.0304  -21.2632  -14.4952 N   0  0  0  0  0  0  0  0  0  0  0  0
   25.2007  -20.6398  -15.8259 C   0  0  0  0  0  0  0  0  0  0  0  0
   25.7735  -19.6504  -16.2944 O   0  0  0  0  0  0  0  0  0  0  0  0
   25.0730  -21.0580   -7.2339 N   0  0  0  0  0  0  0  0  0  0  0  0
   24.1714  -21.3108  -16.5322 C   0  0  0  0  0  0  0  0  0  0  0  0
   23.2270  -20.4971  -17.2657 C   0  0  0  0  0  0  0  0  0  0  0  0
   21.8582  -20.8940  -16.8175 O   0  0  0  0  0  0  0  0  0  0  0  0
   21.3342  -21.9939  -17.1197 N   0  0  0  0  0  0  0  0  0  0  0  0
   21.0934  -19.9937  -16.0066 C   0  0  0  0  0  0  0  0  0  0  0  0
   19.7896  -20.3699  -15.5413 C   0  0  0  0  0  0  0  0  0  0  0  0
   19.0949  -19.3079  -14.8099 O   0  0  0  0  0  0  0  0  0  0  0  0
   17.8150  -19.5129  -14.3357 O   0  0  0  0  0  0  0  0  0  0  0  0
  2  1  1  0
  3  2  2  0
  4  2  1  0
  5  4  1  0
  6  5  1  0
  7  6  1  0
  8 10  1  0
  8  7  1  0
  8  9  1  6
 10 12  1  0
 11 10  2  0
 12 13  1  0
 13 14  1  0
 14 16  1  0
 14 15  2  0
 16 17  1  0
 17 18  1  0
 18 19  1  0
 20 18  2  0
M  END
$$$$
