RGG.pdb
     RDKit          3D

 20 19  0  0  1  0  0  0  0  0999 V2000
   21.2448  -22.5162  -14.0858 N   0  0  0  0  0  0  0  0  0  0  0  0
   20.8726  -21.1296  -13.9135 C   0  0  0  0  0  0  0  0  0  0  0  0
   19.7215  -20.6978  -14.2197 N   0  0  0  0  0  0  0  0  0  0  0  0
   21.8475  -20.2516  -13.3844 N   0  0  0  0  0  0  0  0  0  0  0  0
   23.1577  -20.0813  -14.0263 C   0  0  0  0  0  0  0  0  0  0  0  0
   23.1250  -18.8809  -14.9256 C   0  0  0  0  0  0  0  0  0  0  0  0
   24.3493  -18.6937  -15.7451 C   0  0  0  0  0  0  0  0  0  0  0  0
   24.3370  -19.4374  -17.0379 C   0  0  2  0  0  0  0  0  0  0  0  0
   23.9389  -20.8256  -16.9017 N   0  0  0  0  0  0  0  0  0  0  0  0
   25.7732  -19.4880  -17.4962 C   0  0  0  0  0  0  0  0  0  0  0  0
   26.4506  -18.4562  -17.5512 O   0  0  0  0  0  0  0  0  0  0  0  0
   19.3913  -19.7448  -14.0934 N   0  0  0  0  0  0  0  0  0  0  0  0
   26.3060  -20.7510  -17.8561 C   0  0  0  0  0  0  0  0  0  0  0  0
   27.6754  -20.7887  -18.3198 C   0  0  0  0  0  0  0  0  0  0  0  0
   28.4977  -21.3867  -17.2251 O   0  0  0  0  0  0  0  0  0  0  0  0
   28.6516  -20.8342  -16.1086 N   0  0  0  0  0  0  0  0  0  0  0  0
   29.1477  -22.6456  -17.4391 C   0  0  0  0  0  0  0  0  0  0  0  0
   29.8803  -23.2709  -16.3760 C   0  0  0  0  0  0  0  0  0  0  0  0
   30.5797  -24.4927  -16.7802 O   0  0  0  0  0  0  0  0  0  0  0  0
   31.3164  -25.2092  -15.8590 O   0  0  0  0  0  0  0  0  0  0  0  0
  2  1  1  0
  3  2  2  0
  4  2  1  0
  5  4  1  0
  6  5  1  0
  7  6  1  0
  8 10  1  0
  8  7  1  0
  8  9  1  1
 10 12  1  0
 11 10  2  0
 12 13  1  0
 13 14  1  0
 14 16  1  0
 14 15  2  0
 16 17  1  0
 17 18  1  0
 18 19  1  0
 20 18  2  0
M  END
$$$$
