RGG.pdb
     RDKit          3D

 20 19  0  0  1  0  0  0  0  0999 V2000
   29.0858  -20.5592  -12.2458 N   0  0  0  0  0  0  0  0  0  0  0  0
   28.9743  -21.3736  -11.0563 C   0  0  0  0  0  0  0  0  0  0  0  0
   29.9192  -21.4757  -10.2184 N   0  0  0  0  0  0  0  0  0  0  0  0
   27.7585  -22.0670  -10.8500 N   0  0  0  0  0  0  0  0  0  0  0  0
   26.6103  -21.8890  -11.7485 C   0  0  0  0  0  0  0  0  0  0  0  0
   25.8073  -20.7003  -11.3094 C   0  0  0  0  0  0  0  0  0  0  0  0
   24.6829  -20.3502  -12.2141 C   0  0  0  0  0  0  0  0  0  0  0  0
   23.9514  -21.5289  -12.7618 C   0  0  2  0  0  0  0  0  0  0  0  0
   24.7671  -22.3668  -13.6201 N   0  0  0  0  0  0  0  0  0  0  0  0
   22.8851  -20.9657  -13.6680 C   0  0  0  0  0  0  0  0  0  0  0  0
   23.1898  -20.4419  -14.7447 O   0  0  0  0  0  0  0  0  0  0  0  0
   29.8907  -22.0072   -9.3525 N   0  0  0  0  0  0  0  0  0  0  0  0
   21.5378  -21.0611  -13.2388 C   0  0  0  0  0  0  0  0  0  0  0  0
   20.5336  -20.4029  -14.0451 C   0  0  0  0  0  0  0  0  0  0  0  0
   19.2123  -20.6427  -13.3904 O   0  0  0  0  0  0  0  0  0  0  0  0
   18.8869  -20.1158  -12.2985 N   0  0  0  0  0  0  0  0  0  0  0  0
   18.2607  -21.5093  -14.0201 C   0  0  0  0  0  0  0  0  0  0  0  0
   16.9964  -21.7708  -13.3946 C   0  0  0  0  0  0  0  0  0  0  0  0
   17.0276  -22.8842  -12.4435 O   0  0  0  0  0  0  0  0  0  0  0  0
   15.8594  -23.3366  -11.8642 O   0  0  0  0  0  0  0  0  0  0  0  0
  2  1  1  0
  3  2  2  0
  4  2  1  0
  5  4  1  0
  6  5  1  0
  7  6  1  0
  8 10  1  0
  8  7  1  0
  8  9  1  6
 10 12  1  0
 11 10  2  0
 12 13  1  0
 13 14  1  0
 14 16  1  0
 14 15  2  0
 16 17  1  0
 17 18  1  0
 18 19  1  0
 20 18  2  0
M  END
$$$$
