RGG.pdb
     RDKit          3D

 20 19  0  0  1  0  0  0  0  0999 V2000
   28.0026  -20.2035  -12.5072 N   0  0  0  0  0  0  0  0  0  0  0  0
   27.2539  -21.2938  -11.9228 C   0  0  0  0  0  0  0  0  0  0  0  0
   27.4148  -21.6524  -10.7183 N   0  0  0  0  0  0  0  0  0  0  0  0
   26.3196  -21.9622  -12.7485 N   0  0  0  0  0  0  0  0  0  0  0  0
   26.0571  -21.5215  -14.1249 C   0  0  0  0  0  0  0  0  0  0  0  0
   25.0890  -20.3757  -14.1103 C   0  0  0  0  0  0  0  0  0  0  0  0
   23.7038  -20.7465  -13.7239 C   0  0  0  0  0  0  0  0  0  0  0  0
   22.7174  -20.6654  -14.8395 C   0  0  2  0  0  0  0  0  0  0  0  0
   23.2052  -19.9275  -15.9892 N   0  0  0  0  0  0  0  0  0  0  0  0
   21.5664  -19.8458  -14.3114 C   0  0  0  0  0  0  0  0  0  0  0  0
   21.6188  -18.6114  -14.3222 O   0  0  0  0  0  0  0  0  0  0  0  0
   26.9495  -22.4334  -10.2637 N   0  0  0  0  0  0  0  0  0  0  0  0
   20.4382  -20.5409  -13.8090 C   0  0  0  0  0  0  0  0  0  0  0  0
   19.3733  -19.7520  -13.2298 C   0  0  0  0  0  0  0  0  0  0  0  0
   18.3751  -20.7060  -12.6593 O   0  0  0  0  0  0  0  0  0  0  0  0
   18.6903  -21.6357  -11.8770 N   0  0  0  0  0  0  0  0  0  0  0  0
   16.9919  -20.5710  -13.0081 C   0  0  0  0  0  0  0  0  0  0  0  0
   16.0218  -21.4903  -12.4867 C   0  0  0  0  0  0  0  0  0  0  0  0
   14.6754  -21.2989  -13.0306 O   0  0  0  0  0  0  0  0  0  0  0  0
   13.6768  -22.2098  -12.7512 O   0  0  0  0  0  0  0  0  0  0  0  0
  2  1  1  0
  3  2  2  0
  4  2  1  0
  5  4  1  0
  6  5  1  0
  7  6  1  0
  8 10  1  0
  8  7  1  0
  8  9  1  6
 10 12  1  0
 11 10  2  0
 12 13  1  0
 13 14  1  0
 14 16  1  0
 14 15  2  0
 16 17  1  0
 17 18  1  0
 18 19  1  0
 20 18  2  0
M  END
$$$$
