RGG.pdb
     RDKit          3D

 20 19  0  0  1  0  0  0  0  0999 V2000
   23.3252  -20.9472   -9.3725 N   0  0  0  0  0  0  0  0  0  0  0  0
   24.7608  -20.7778   -9.4076 C   0  0  0  0  0  0  0  0  0  0  0  0
   25.3857  -20.1358   -8.5118 N   0  0  0  0  0  0  0  0  0  0  0  0
   25.4616  -21.3590  -10.4904 N   0  0  0  0  0  0  0  0  0  0  0  0
   26.7699  -20.8491  -10.9214 C   0  0  0  0  0  0  0  0  0  0  0  0
   26.6363  -20.1909  -12.2629 C   0  0  0  0  0  0  0  0  0  0  0  0
   25.9470  -21.0170  -13.2866 C   0  0  0  0  0  0  0  0  0  0  0  0
   25.8021  -20.3491  -14.6122 C   0  0  2  0  0  0  0  0  0  0  0  0
   24.4496  -20.3901  -15.1348 N   0  0  0  0  0  0  0  0  0  0  0  0
   26.6172  -21.1724  -15.5782 C   0  0  0  0  0  0  0  0  0  0  0  0
   26.0944  -22.0953  -16.2118 O   0  0  0  0  0  0  0  0  0  0  0  0
   26.3800  -19.9251   -8.5161 N   0  0  0  0  0  0  0  0  0  0  0  0
   27.9887  -20.8478  -15.7267 C   0  0  0  0  0  0  0  0  0  0  0  0
   28.7660  -21.6456  -16.6493 C   0  0  0  0  0  0  0  0  0  0  0  0
   28.6352  -21.0166  -17.9981 O   0  0  0  0  0  0  0  0  0  0  0  0
   29.3575  -21.3379  -18.9731 N   0  0  0  0  0  0  0  0  0  0  0  0
   27.6480  -19.9996  -18.2088 C   0  0  0  0  0  0  0  0  0  0  0  0
   27.4553  -19.4387  -19.5150 C   0  0  0  0  0  0  0  0  0  0  0  0
   28.2141  -18.2075  -19.7464 O   0  0  0  0  0  0  0  0  0  0  0  0
   28.0715  -17.5154  -20.9320 O   0  0  0  0  0  0  0  0  0  0  0  0
  2  1  1  0
  3  2  2  0
  4  2  1  0
  5  4  1  0
  6  5  1  0
  7  6  1  0
  8 10  1  0
  8  7  1  0
  8  9  1  6
 10 12  1  0
 11 10  2  0
 12 13  1  0
 13 14  1  0
 14 16  1  0
 14 15  2  0
 16 17  1  0
 17 18  1  0
 18 19  1  0
 20 18  2  0
M  END
$$$$
