RGG.pdb
     RDKit          3D

 20 19  0  0  1  0  0  0  0  0999 V2000
   19.7885  -18.7108  -16.5949 N   0  0  0  0  0  0  0  0  0  0  0  0
   19.3853  -20.0524  -16.2366 C   0  0  0  0  0  0  0  0  0  0  0  0
   18.3601  -20.6041  -16.7363 N   0  0  0  0  0  0  0  0  0  0  0  0
   20.1816  -20.7450  -15.2945 N   0  0  0  0  0  0  0  0  0  0  0  0
   21.4555  -20.1947  -14.8126 C   0  0  0  0  0  0  0  0  0  0  0  0
   22.4021  -20.0339  -15.9653 C   0  0  0  0  0  0  0  0  0  0  0  0
   23.7335  -19.4896  -15.5956 C   0  0  0  0  0  0  0  0  0  0  0  0
   24.7571  -20.5325  -15.2978 C   0  0  2  0  0  0  0  0  0  0  0  0
   24.4891  -21.2736  -14.0799 N   0  0  0  0  0  0  0  0  0  0  0  0
   26.0380  -19.7845  -15.0237 C   0  0  0  0  0  0  0  0  0  0  0  0
   26.5442  -19.0681  -15.8939 O   0  0  0  0  0  0  0  0  0  0  0  0
   17.9972  -21.5201  -16.4870 N   0  0  0  0  0  0  0  0  0  0  0  0
   26.6285  -19.9355  -13.7443 C   0  0  0  0  0  0  0  0  0  0  0  0
   27.8595  -19.2199  -13.4901 C   0  0  0  0  0  0  0  0  0  0  0  0
   28.8555  -20.2150  -12.9904 O   0  0  0  0  0  0  0  0  0  0  0  0
   29.2260  -20.2660  -11.7922 N   0  0  0  0  0  0  0  0  0  0  0  0
   29.4249  -21.1615  -13.9032 C   0  0  0  0  0  0  0  0  0  0  0  0
   30.3210  -22.1757  -13.4274 C   0  0  0  0  0  0  0  0  0  0  0  0
   30.8538  -23.0363  -14.4860 O   0  0  0  0  0  0  0  0  0  0  0  0
   31.8095  -23.9881  -14.1931 O   0  0  0  0  0  0  0  0  0  0  0  0
  2  1  1  0
  3  2  2  0
  4  2  1  0
  5  4  1  0
  6  5  1  0
  7  6  1  0
  8 10  1  0
  8  7  1  0
  8  9  1  1
 10 12  1  0
 11 10  2  0
 12 13  1  0
 13 14  1  0
 14 16  1  0
 14 15  2  0
 16 17  1  0
 17 18  1  0
 18 19  1  0
 20 18  2  0
M  END
$$$$
