RGG.pdb
     RDKit          3D

 20 19  0  0  1  0  0  0  0  0999 V2000
   19.6695  -19.5645  -12.7715 N   0  0  0  0  0  0  0  0  0  0  0  0
   19.5067  -20.8557  -13.4017 C   0  0  0  0  0  0  0  0  0  0  0  0
   18.4226  -21.2021  -13.9582 N   0  0  0  0  0  0  0  0  0  0  0  0
   20.6119  -21.7387  -13.3787 N   0  0  0  0  0  0  0  0  0  0  0  0
   21.8937  -21.3499  -12.7758 C   0  0  0  0  0  0  0  0  0  0  0  0
   22.6817  -20.5299  -13.7542 C   0  0  0  0  0  0  0  0  0  0  0  0
   24.0666  -20.2170  -13.3186 C   0  0  0  0  0  0  0  0  0  0  0  0
   24.8497  -19.4177  -14.3046 C   0  0  2  0  0  0  0  0  0  0  0  0
   24.3318  -19.5011  -15.6571 N   0  0  0  0  0  0  0  0  0  0  0  0
   26.2109  -20.0645  -14.3691 C   0  0  0  0  0  0  0  0  0  0  0  0
   26.4362  -20.9719  -15.1767 O   0  0  0  0  0  0  0  0  0  0  0  0
   18.2327  -22.1086  -14.3769 N   0  0  0  0  0  0  0  0  0  0  0  0
   27.2067  -19.5945  -13.4770 C   0  0  0  0  0  0  0  0  0  0  0  0
   28.4292  -20.3612  -13.3795 C   0  0  0  0  0  0  0  0  0  0  0  0
   28.6409  -20.6759  -11.9344 O   0  0  0  0  0  0  0  0  0  0  0  0
   27.7967  -20.4029  -11.0465 N   0  0  0  0  0  0  0  0  0  0  0  0
   29.8544  -21.3173  -11.5232 C   0  0  0  0  0  0  0  0  0  0  0  0
   30.1248  -21.5275  -10.1301 C   0  0  0  0  0  0  0  0  0  0  0  0
   31.4102  -22.1798   -9.8703 O   0  0  0  0  0  0  0  0  0  0  0  0
   32.1906  -22.6210  -10.9197 O   0  0  0  0  0  0  0  0  0  0  0  0
  2  1  1  0
  3  2  2  0
  4  2  1  0
  5  4  1  0
  6  5  1  0
  7  6  1  0
  8 10  1  0
  8  7  1  0
  8  9  1  6
 10 12  1  0
 11 10  2  0
 12 13  1  0
 13 14  1  0
 14 16  1  0
 14 15  2  0
 16 17  1  0
 17 18  1  0
 18 19  1  0
 20 18  2  0
M  END
$$$$
