RGG.pdb
     RDKit          3D

 20 19  0  0  1  0  0  0  0  0999 V2000
   23.0124  -20.2317   -9.5536 N   0  0  0  0  0  0  0  0  0  0  0  0
   23.6742  -20.9022   -8.4565 C   0  0  0  0  0  0  0  0  0  0  0  0
   23.0414  -21.3188   -7.4411 N   0  0  0  0  0  0  0  0  0  0  0  0
   25.0743  -21.0829   -8.5496 N   0  0  0  0  0  0  0  0  0  0  0  0
   25.8351  -20.6063   -9.7121 C   0  0  0  0  0  0  0  0  0  0  0  0
   25.4236  -21.3756  -10.9325 C   0  0  0  0  0  0  0  0  0  0  0  0
   26.1269  -20.9748  -12.1776 C   0  0  0  0  0  0  0  0  0  0  0  0
   25.6079  -21.6348  -13.4102 C   0  0  2  0  0  0  0  0  0  0  0  0
   26.3013  -22.8650  -13.7421 N   0  0  0  0  0  0  0  0  0  0  0  0
   25.9237  -20.6924  -14.5449 C   0  0  0  0  0  0  0  0  0  0  0  0
   26.7053  -21.0291  -15.4406 O   0  0  0  0  0  0  0  0  0  0  0  0
   23.4495  -21.7925   -6.6398 N   0  0  0  0  0  0  0  0  0  0  0  0
   25.2955  -19.4220  -14.5407 C   0  0  0  0  0  0  0  0  0  0  0  0
   24.1170  -19.2644  -13.7172 C   0  0  0  0  0  0  0  0  0  0  0  0
   22.9288  -19.4515  -14.6034 O   0  0  0  0  0  0  0  0  0  0  0  0
   22.2510  -18.4924  -15.0464 N   0  0  0  0  0  0  0  0  0  0  0  0
   22.5289  -20.7761  -14.9756 C   0  0  0  0  0  0  0  0  0  0  0  0
   21.2838  -20.9912  -15.6550 C   0  0  0  0  0  0  0  0  0  0  0  0
   20.1208  -21.0076  -14.7648 O   0  0  0  0  0  0  0  0  0  0  0  0
   18.8561  -20.7820  -15.2690 O   0  0  0  0  0  0  0  0  0  0  0  0
  2  1  1  0
  3  2  2  0
  4  2  1  0
  5  4  1  0
  6  5  1  0
  7  6  1  0
  8 10  1  0
  8  7  1  0
  8  9  1  6
 10 12  1  0
 11 10  2  0
 12 13  1  0
 13 14  1  0
 14 16  1  0
 14 15  2  0
 16 17  1  0
 17 18  1  0
 18 19  1  0
 20 18  2  0
M  END
$$$$
