RGG.pdb
     RDKit          3D

 20 19  0  0  1  0  0  0  0  0999 V2000
   21.1833  -27.9307  -12.2143 N   0  0  0  0  0  0  0  0  0  0  0  0
   20.7392  -27.1134  -13.3214 C   0  0  0  0  0  0  0  0  0  0  0  0
   20.7743  -27.5246  -14.5193 N   0  0  0  0  0  0  0  0  0  0  0  0
   20.2560  -25.8172  -13.0249 N   0  0  0  0  0  0  0  0  0  0  0  0
   19.9417  -25.4104  -11.6489 C   0  0  0  0  0  0  0  0  0  0  0  0
   18.8014  -26.2346  -11.1286 C   0  0  0  0  0  0  0  0  0  0  0  0
   18.3817  -25.8984   -9.7443 C   0  0  0  0  0  0  0  0  0  0  0  0
   17.1426  -25.0720   -9.6667 C   0  0  2  0  0  0  0  0  0  0  0  0
   17.2300  -23.8291  -10.4095 N   0  0  0  0  0  0  0  0  0  0  0  0
   17.0174  -24.6539   -8.2228 C   0  0  0  0  0  0  0  0  0  0  0  0
   17.1789  -23.4735   -7.8956 O   0  0  0  0  0  0  0  0  0  0  0  0
   20.5350  -26.9783  -15.3423 N   0  0  0  0  0  0  0  0  0  0  0  0
   16.7112  -25.6576   -7.2703 C   0  0  0  0  0  0  0  0  0  0  0  0
   16.5338  -25.2407   -5.8968 C   0  0  0  0  0  0  0  0  0  0  0  0
   17.4050  -26.1129   -5.0528 O   0  0  0  0  0  0  0  0  0  0  0  0
   17.8299  -27.2293   -5.4385 N   0  0  0  0  0  0  0  0  0  0  0  0
   17.7833  -25.6743   -3.7423 C   0  0  0  0  0  0  0  0  0  0  0  0
   18.6420  -26.4854   -2.9283 C   0  0  0  0  0  0  0  0  0  0  0  0
   17.9695  -27.6409   -2.3300 O   0  0  0  0  0  0  0  0  0  0  0  0
   18.6729  -28.5159   -1.5273 O   0  0  0  0  0  0  0  0  0  0  0  0
  2  1  1  0
  3  2  2  0
  4  2  1  0
  5  4  1  0
  6  5  1  0
  7  6  1  0
  8 10  1  0
  8  7  1  0
  8  9  1  6
 10 12  1  0
 11 10  2  0
 12 13  1  0
 13 14  1  0
 14 16  1  0
 14 15  2  0
 16 17  1  0
 17 18  1  0
 18 19  1  0
 20 18  2  0
M  END
$$$$
