RGG.pdb
     RDKit          3D

 20 19  0  0  1  0  0  0  0  0999 V2000
   30.1635  -20.6329   -5.0584 N   0  0  0  0  0  0  0  0  0  0  0  0
   29.2072  -19.5519   -5.1462 C   0  0  0  0  0  0  0  0  0  0  0  0
   28.8257  -18.9051   -4.1257 N   0  0  0  0  0  0  0  0  0  0  0  0
   28.6990  -19.2306   -6.4268 N   0  0  0  0  0  0  0  0  0  0  0  0
   27.2666  -19.3375   -6.7342 C   0  0  0  0  0  0  0  0  0  0  0  0
   26.9030  -20.7778   -6.9433 C   0  0  0  0  0  0  0  0  0  0  0  0
   26.6597  -21.1506   -8.3602 C   0  0  0  0  0  0  0  0  0  0  0  0
   25.5046  -20.4450   -8.9864 C   0  0  2  0  0  0  0  0  0  0  0  0
   24.2541  -21.1715   -8.8737 N   0  0  0  0  0  0  0  0  0  0  0  0
   25.7997  -20.4062  -10.4651 C   0  0  0  0  0  0  0  0  0  0  0  0
   26.7222  -19.7102  -10.9023 O   0  0  0  0  0  0  0  0  0  0  0  0
   28.1470  -18.1486   -4.1212 N   0  0  0  0  0  0  0  0  0  0  0  0
   24.9860  -21.1904  -11.3203 C   0  0  0  0  0  0  0  0  0  0  0  0
   25.1628  -21.0230  -12.7460 C   0  0  0  0  0  0  0  0  0  0  0  0
   23.8216  -20.7109  -13.3253 O   0  0  0  0  0  0  0  0  0  0  0  0
   23.5467  -20.8803  -14.5384 N   0  0  0  0  0  0  0  0  0  0  0  0
   22.7898  -20.1944  -12.4758 C   0  0  0  0  0  0  0  0  0  0  0  0
   21.4792  -19.9420  -13.0017 C   0  0  0  0  0  0  0  0  0  0  0  0
   20.4970  -20.9730  -12.6585 O   0  0  0  0  0  0  0  0  0  0  0  0
   19.4266  -20.6690  -11.8419 O   0  0  0  0  0  0  0  0  0  0  0  0
  2  1  1  0
  3  2  2  0
  4  2  1  0
  5  4  1  0
  6  5  1  0
  7  6  1  0
  8 10  1  0
  8  7  1  0
  8  9  1  6
 10 12  1  0
 11 10  2  0
 12 13  1  0
 13 14  1  0
 14 16  1  0
 14 15  2  0
 16 17  1  0
 17 18  1  0
 18 19  1  0
 20 18  2  0
M  END
$$$$
