RGG.pdb
     RDKit          3D

 20 19  0  0  1  0  0  0  0  0999 V2000
   26.4340  -20.2396  -10.3846 N   0  0  0  0  0  0  0  0  0  0  0  0
   25.1862  -20.9392  -10.1737 C   0  0  0  0  0  0  0  0  0  0  0  0
   24.5534  -20.8733   -9.0781 N   0  0  0  0  0  0  0  0  0  0  0  0
   24.6822  -21.7146  -11.2443 N   0  0  0  0  0  0  0  0  0  0  0  0
   25.2189  -21.5862  -12.6056 C   0  0  0  0  0  0  0  0  0  0  0  0
   26.0835  -20.3633  -12.6922 C   0  0  0  0  0  0  0  0  0  0  0  0
   26.5817  -20.0585  -14.0576 C   0  0  0  0  0  0  0  0  0  0  0  0
   27.4620  -18.8568  -14.1311 C   0  0  2  0  0  0  0  0  0  0  0  0
   27.3080  -17.9583  -13.0027 N   0  0  0  0  0  0  0  0  0  0  0  0
   26.9819  -18.0683  -15.3241 C   0  0  0  0  0  0  0  0  0  0  0  0
   27.1653  -18.4915  -16.4703 O   0  0  0  0  0  0  0  0  0  0  0  0
   23.6822  -21.3516   -8.8654 N   0  0  0  0  0  0  0  0  0  0  0  0
   26.3209  -16.8389  -15.0788 C   0  0  0  0  0  0  0  0  0  0  0  0
   25.9429  -16.0452  -16.2272 C   0  0  0  0  0  0  0  0  0  0  0  0
   24.5614  -16.4594  -16.6169 O   0  0  0  0  0  0  0  0  0  0  0  0
   23.8564  -15.8068  -17.4248 N   0  0  0  0  0  0  0  0  0  0  0  0
   23.9979  -17.6509  -16.0548 C   0  0  0  0  0  0  0  0  0  0  0  0
   22.7334  -18.1422  -16.5212 C   0  0  0  0  0  0  0  0  0  0  0  0
   21.5875  -17.6387  -15.7604 O   0  0  0  0  0  0  0  0  0  0  0  0
   21.7641  -16.6586  -14.8048 O   0  0  0  0  0  0  0  0  0  0  0  0
  2  1  1  0
  3  2  2  0
  4  2  1  0
  5  4  1  0
  6  5  1  0
  7  6  1  0
  8 10  1  0
  8  7  1  0
  8  9  1  1
 10 12  1  0
 11 10  2  0
 12 13  1  0
 13 14  1  0
 14 16  1  0
 14 15  2  0
 16 17  1  0
 17 18  1  0
 18 19  1  0
 20 18  2  0
M  END
$$$$
