RGG.pdb
     RDKit          3D

 20 19  0  0  1  0  0  0  0  0999 V2000
   22.9497  -21.3976   -9.4656 N   0  0  0  0  0  0  0  0  0  0  0  0
   23.9319  -21.2328   -8.4173 C   0  0  0  0  0  0  0  0  0  0  0  0
   23.6139  -20.8641   -7.2477 N   0  0  0  0  0  0  0  0  0  0  0  0
   25.2835  -21.4990   -8.7397 N   0  0  0  0  0  0  0  0  0  0  0  0
   25.7870  -21.3638  -10.1130 C   0  0  0  0  0  0  0  0  0  0  0  0
   25.6996  -19.9289  -10.5418 C   0  0  0  0  0  0  0  0  0  0  0  0
   26.1198  -19.6801  -11.9444 C   0  0  0  0  0  0  0  0  0  0  0  0
   25.6239  -20.6949  -12.9184 C   0  0  2  0  0  0  0  0  0  0  0  0
   26.6547  -21.6061  -13.3780 N   0  0  0  0  0  0  0  0  0  0  0  0
   25.2146  -19.9200  -14.1461 C   0  0  0  0  0  0  0  0  0  0  0  0
   24.3862  -19.0070  -14.0641 O   0  0  0  0  0  0  0  0  0  0  0  0
   24.2602  -20.6935   -6.4820 N   0  0  0  0  0  0  0  0  0  0  0  0
   25.8114  -20.2780  -15.3807 C   0  0  0  0  0  0  0  0  0  0  0  0
   25.4123  -19.5329  -16.5544 C   0  0  0  0  0  0  0  0  0  0  0  0
   26.4109  -18.4382  -16.7451 O   0  0  0  0  0  0  0  0  0  0  0  0
   27.2936  -18.1651  -15.8956 N   0  0  0  0  0  0  0  0  0  0  0  0
   26.3762  -17.6536  -17.9436 C   0  0  0  0  0  0  0  0  0  0  0  0
   27.4595  -16.7677  -18.2593 C   0  0  0  0  0  0  0  0  0  0  0  0
   27.2877  -16.0533  -19.5263 O   0  0  0  0  0  0  0  0  0  0  0  0
   28.2738  -15.2034  -19.9845 O   0  0  0  0  0  0  0  0  0  0  0  0
  2  1  1  0
  3  2  2  0
  4  2  1  0
  5  4  1  0
  6  5  1  0
  7  6  1  0
  8 10  1  0
  8  7  1  0
  8  9  1  6
 10 12  1  0
 11 10  2  0
 12 13  1  0
 13 14  1  0
 14 16  1  0
 14 15  2  0
 16 17  1  0
 17 18  1  0
 18 19  1  0
 20 18  2  0
M  END
$$$$
