RGG.pdb
     RDKit          3D

 20 19  0  0  1  0  0  0  0  0999 V2000
   20.9475  -18.0940  -18.0461 N   0  0  0  0  0  0  0  0  0  0  0  0
   22.1078  -18.9422  -18.2046 C   0  0  0  0  0  0  0  0  0  0  0  0
   22.6040  -19.1998  -19.3415 N   0  0  0  0  0  0  0  0  0  0  0  0
   22.6843  -19.4873  -17.0333 N   0  0  0  0  0  0  0  0  0  0  0  0
   21.8548  -19.9649  -15.9191 C   0  0  0  0  0  0  0  0  0  0  0  0
   21.6395  -18.8504  -14.9383 C   0  0  0  0  0  0  0  0  0  0  0  0
   21.8445  -19.2334  -13.5182 C   0  0  0  0  0  0  0  0  0  0  0  0
   21.4643  -20.6412  -13.2056 C   0  0  2  0  0  0  0  0  0  0  0  0
   20.0890  -20.9563  -13.5426 N   0  0  0  0  0  0  0  0  0  0  0  0
   21.5338  -20.7616  -11.7036 C   0  0  0  0  0  0  0  0  0  0  0  0
   22.5144  -20.3345  -11.0850 O   0  0  0  0  0  0  0  0  0  0  0  0
   23.3958  -19.8119  -19.5194 N   0  0  0  0  0  0  0  0  0  0  0  0
   20.4426  -21.3765  -11.0405 C   0  0  0  0  0  0  0  0  0  0  0  0
   20.5304  -21.5187   -9.6039 C   0  0  0  0  0  0  0  0  0  0  0  0
   19.2674  -22.1715   -9.1451 O   0  0  0  0  0  0  0  0  0  0  0  0
   18.1540  -21.9554   -9.6830 N   0  0  0  0  0  0  0  0  0  0  0  0
   19.3071  -23.0875   -8.0440 C   0  0  0  0  0  0  0  0  0  0  0  0
   18.1763  -23.9222   -7.7568 C   0  0  0  0  0  0  0  0  0  0  0  0
   18.4012  -24.8627   -6.6568 O   0  0  0  0  0  0  0  0  0  0  0  0
   17.3510  -25.5971   -6.1442 O   0  0  0  0  0  0  0  0  0  0  0  0
  2  1  1  0
  3  2  2  0
  4  2  1  0
  5  4  1  0
  6  5  1  0
  7  6  1  0
  8 10  1  0
  8  7  1  0
  8  9  1  1
 10 12  1  0
 11 10  2  0
 12 13  1  0
 13 14  1  0
 14 16  1  0
 14 15  2  0
 16 17  1  0
 17 18  1  0
 18 19  1  0
 20 18  2  0
M  END
$$$$
