HDG.pdb
     RDKit          3D

 23 23  0  0  1  0  0  0  0  0999 V2000
    9.6243  -15.9171   24.6316 N   0  0  0  0  0  0  0  0  0  0  0  0
   10.4601  -16.3050   25.7569 C   0  0  1  0  0  0  0  0  0  0  0  0
    9.6308  -16.0954   27.0035 C   0  0  0  0  0  0  0  0  0  0  0  0
    9.2735  -14.6584   27.0971 C   0  0  0  0  0  0  0  0  0  0  0  0
   10.1214  -13.5670   27.2373 C   0  0  0  0  0  0  0  0  0  0  0  0
    9.3838  -12.4439   27.2867 N   0  0  0  0  0  0  0  0  0  0  0  0
    8.0974  -12.7783   27.1840 C   0  0  0  0  0  0  0  0  0  0  0  0
    8.0386  -14.1317   27.0673 N   0  0  0  0  0  0  0  0  0  0  0  0
   10.9152  -17.7116   25.6154 C   0  0  0  0  0  0  0  0  0  0  0  0
   10.1102  -18.5595   25.2233 O   0  0  0  0  0  0  0  0  0  0  0  0
   12.2199  -18.0853   25.9139 N   0  0  0  0  0  0  0  0  0  0  0  0
   12.8608  -19.3233   26.0175 C   0  0  1  0  0  0  0  0  0  0  0  0
   14.3021  -19.4347   25.8994 C   0  0  0  0  0  0  0  0  0  0  0  0
   14.7440  -18.8259   24.5895 C   0  0  0  0  0  0  0  0  0  0  0  0
   15.6960  -17.9726   24.5358 O   0  0  0  0  0  0  0  0  0  0  0  0
   12.2681  -20.1289   27.1226 C   0  0  0  0  0  0  0  0  0  0  0  0
   12.4370  -21.3660   27.1296 O   0  0  0  0  0  0  0  0  0  0  0  0
   14.1570  -19.1450   23.3722 O   0  0  0  0  0  0  0  0  0  0  0  0
   11.5026  -19.5693   28.1958 N   0  0  0  0  0  0  0  0  0  0  0  0
   11.0376  -20.4076   29.3012 C   0  0  0  0  0  0  0  0  0  0  0  0
   12.1567  -20.7977   30.1775 C   0  0  0  0  0  0  0  0  0  0  0  0
   11.8305  -21.4888   31.3457 O   0  0  0  0  0  0  0  0  0  0  0  0
   13.3744  -20.5580   29.9568 O   0  0  0  0  0  0  0  0  0  0  0  0
  2  1  1  6
  2  3  1  0
  3  4  1  0
  4  5  2  0
  5  6  1  0
  7  6  1  0
  8  4  1  0
  8  7  2  0
  9  2  1  0
  9 11  1  0
 10  9  2  0
 12 11  1  0
 12 16  1  0
 12 13  1  1
 14 13  1  0
 14 18  1  0
 15 14  2  0
 16 17  2  0
 16 19  1  0
 19 20  1  0
 20 21  1  0
 21 22  1  0
 23 21  2  0
M  END
$$$$
