HDG.pdb
     RDKit          3D

 23 23  0  0  1  0  0  0  0  0999 V2000
    8.9351  -17.3611   20.1853 N   0  0  0  0  0  0  0  0  0  0  0  0
    9.7102  -16.5515   21.1122 C   0  0  1  0  0  0  0  0  0  0  0  0
    8.7449  -15.5742   21.7437 C   0  0  0  0  0  0  0  0  0  0  0  0
    8.2963  -14.6150   20.7044 C   0  0  0  0  0  0  0  0  0  0  0  0
    8.6292  -14.5874   19.3560 C   0  0  0  0  0  0  0  0  0  0  0  0
    8.0064  -13.5481   18.7731 N   0  0  0  0  0  0  0  0  0  0  0  0
    7.2897  -12.9114   19.6995 C   0  0  0  0  0  0  0  0  0  0  0  0
    7.4708  -13.5697   20.8753 N   0  0  0  0  0  0  0  0  0  0  0  0
   10.3845  -17.4065   22.1222 C   0  0  0  0  0  0  0  0  0  0  0  0
    9.7932  -18.4014   22.5479 O   0  0  0  0  0  0  0  0  0  0  0  0
   11.6581  -17.1079   22.5911 N   0  0  0  0  0  0  0  0  0  0  0  0
   12.4925  -17.7049   23.5405 C   0  0  1  0  0  0  0  0  0  0  0  0
   13.9075  -17.3916   23.5991 C   0  0  0  0  0  0  0  0  0  0  0  0
   14.4849  -17.4277   22.2038 C   0  0  0  0  0  0  0  0  0  0  0  0
   14.8040  -16.3547   21.5838 O   0  0  0  0  0  0  0  0  0  0  0  0
   11.8178  -17.7628   24.8682 C   0  0  0  0  0  0  0  0  0  0  0  0
   11.5340  -16.6961   25.4516 O   0  0  0  0  0  0  0  0  0  0  0  0
   14.7058  -18.6090   21.5081 O   0  0  0  0  0  0  0  0  0  0  0  0
   11.4682  -18.9824   25.5327 N   0  0  0  0  0  0  0  0  0  0  0  0
   10.7284  -18.9624   26.7949 C   0  0  0  0  0  0  0  0  0  0  0  0
   11.5813  -19.3960   27.9161 C   0  0  0  0  0  0  0  0  0  0  0  0
   10.9716  -19.5008   29.1674 O   0  0  0  0  0  0  0  0  0  0  0  0
   12.8075  -19.6768   27.8341 O   0  0  0  0  0  0  0  0  0  0  0  0
  2  1  1  6
  2  3  1  0
  3  4  1  0
  4  5  2  0
  5  6  1  0
  7  6  1  0
  8  4  1  0
  8  7  2  0
  9  2  1  0
  9 11  1  0
 10  9  2  0
 12 11  1  0
 12 16  1  0
 12 13  1  1
 14 13  1  0
 14 18  1  0
 15 14  2  0
 16 17  2  0
 16 19  1  0
 19 20  1  0
 20 21  1  0
 21 22  1  0
 23 21  2  0
M  END
$$$$
