HDG.pdb
     RDKit          3D

 23 23  0  0  1  0  0  0  0  0999 V2000
    7.9906  -17.7432   19.5761 N   0  0  0  0  0  0  0  0  0  0  0  0
    9.3195  -17.1708   19.7233 C   0  0  1  0  0  0  0  0  0  0  0  0
    9.1553  -15.8970   20.5209 C   0  0  0  0  0  0  0  0  0  0  0  0
    8.4133  -14.9139   19.6936 C   0  0  0  0  0  0  0  0  0  0  0  0
    7.9433  -15.0612   18.3947 C   0  0  0  0  0  0  0  0  0  0  0  0
    7.3289  -13.9252   18.0206 N   0  0  0  0  0  0  0  0  0  0  0  0
    7.3903  -13.0589   19.0320 C   0  0  0  0  0  0  0  0  0  0  0  0
    8.0525  -13.6704   20.0499 N   0  0  0  0  0  0  0  0  0  0  0  0
   10.2376  -18.1327   20.3845 C   0  0  0  0  0  0  0  0  0  0  0  0
    9.7616  -18.9891   21.1334 O   0  0  0  0  0  0  0  0  0  0  0  0
   11.6107  -18.0854   20.1758 N   0  0  0  0  0  0  0  0  0  0  0  0
   12.6775  -18.8551   20.6486 C   0  0  1  0  0  0  0  0  0  0  0  0
   13.7857  -19.2134   19.7841 C   0  0  0  0  0  0  0  0  0  0  0  0
   13.2532  -19.6014   18.4249 C   0  0  0  0  0  0  0  0  0  0  0  0
   13.6524  -19.0177   17.3584 O   0  0  0  0  0  0  0  0  0  0  0  0
   13.0783  -18.4121   22.0141 C   0  0  0  0  0  0  0  0  0  0  0  0
   13.8308  -17.4232   22.1346 O   0  0  0  0  0  0  0  0  0  0  0  0
   12.3085  -20.6024   18.2415 O   0  0  0  0  0  0  0  0  0  0  0  0
   12.6515  -19.0575   23.2192 N   0  0  0  0  0  0  0  0  0  0  0  0
   13.4249  -20.1588   23.7937 C   0  0  0  0  0  0  0  0  0  0  0  0
   14.6857  -19.6710   24.3811 C   0  0  0  0  0  0  0  0  0  0  0  0
   14.7599  -19.6377   25.7746 O   0  0  0  0  0  0  0  0  0  0  0  0
   15.6932  -19.2849   23.7292 O   0  0  0  0  0  0  0  0  0  0  0  0
  2  1  1  1
  2  3  1  0
  3  4  1  0
  4  5  2  0
  5  6  1  0
  7  6  1  0
  8  4  1  0
  8  7  2  0
  9  2  1  0
  9 11  1  0
 10  9  2  0
 12 11  1  0
 12 16  1  0
 12 13  1  6
 14 13  1  0
 14 18  1  0
 15 14  2  0
 16 17  2  0
 16 19  1  0
 19 20  1  0
 20 21  1  0
 21 22  1  0
 23 21  2  0
M  END
$$$$
