HDG.pdb
     RDKit          3D

 23 23  0  0  1  0  0  0  0  0999 V2000
    9.8059  -16.5935   20.7499 N   0  0  0  0  0  0  0  0  0  0  0  0
   10.1045  -15.7872   21.9230 C   0  0  1  0  0  0  0  0  0  0  0  0
    8.8719  -14.9575   22.2021 C   0  0  0  0  0  0  0  0  0  0  0  0
    8.4101  -14.3541   20.9277 C   0  0  0  0  0  0  0  0  0  0  0  0
    9.0099  -14.4190   19.6764 C   0  0  0  0  0  0  0  0  0  0  0  0
    8.2622  -13.7294   18.7970 N   0  0  0  0  0  0  0  0  0  0  0  0
    7.2087  -13.2266   19.4408 C   0  0  0  0  0  0  0  0  0  0  0  0
    7.3056  -13.6136   20.7406 N   0  0  0  0  0  0  0  0  0  0  0  0
   10.4739  -16.6489   23.0748 C   0  0  0  0  0  0  0  0  0  0  0  0
    9.5992  -17.3369   23.6062 O   0  0  0  0  0  0  0  0  0  0  0  0
   11.7755  -16.6932   23.5594 N   0  0  0  0  0  0  0  0  0  0  0  0
   12.4153  -17.4917   24.5119 C   0  0  1  0  0  0  0  0  0  0  0  0
   12.1501  -18.9150   24.5987 C   0  0  0  0  0  0  0  0  0  0  0  0
   11.2397  -19.1822   25.7740 C   0  0  0  0  0  0  0  0  0  0  0  0
   11.4393  -18.6340   26.9130 O   0  0  0  0  0  0  0  0  0  0  0  0
   13.8558  -17.1246   24.6206 C   0  0  0  0  0  0  0  0  0  0  0  0
   14.4865  -17.4415   25.6505 O   0  0  0  0  0  0  0  0  0  0  0  0
   10.1406  -20.0276   25.7012 O   0  0  0  0  0  0  0  0  0  0  0  0
   14.5778  -16.4186   23.6051 N   0  0  0  0  0  0  0  0  0  0  0  0
   15.8142  -15.7042   23.9243 C   0  0  0  0  0  0  0  0  0  0  0  0
   16.4819  -15.2273   22.6998 C   0  0  0  0  0  0  0  0  0  0  0  0
   17.6551  -14.4899   22.8686 O   0  0  0  0  0  0  0  0  0  0  0  0
   16.0798  -15.4313   21.5226 O   0  0  0  0  0  0  0  0  0  0  0  0
  2  1  1  6
  2  3  1  0
  3  4  1  0
  4  5  2  0
  5  6  1  0
  7  6  1  0
  8  4  1  0
  8  7  2  0
  9  2  1  0
  9 11  1  0
 10  9  2  0
 12 11  1  0
 12 16  1  0
 12 13  1  6
 14 13  1  0
 14 18  1  0
 15 14  2  0
 16 17  2  0
 16 19  1  0
 19 20  1  0
 20 21  1  0
 21 22  1  0
 23 21  2  0
M  END
$$$$
