HDG.pdb
     RDKit          3D

 23 23  0  0  1  0  0  0  0  0999 V2000
    6.8032  -16.8252   20.2820 N   0  0  0  0  0  0  0  0  0  0  0  0
    7.9645  -16.5131   21.1002 C   0  0  1  0  0  0  0  0  0  0  0  0
    7.7950  -15.0841   21.5636 C   0  0  0  0  0  0  0  0  0  0  0  0
    7.8935  -14.1900   20.3836 C   0  0  0  0  0  0  0  0  0  0  0  0
    6.8668  -13.6944   19.5900 C   0  0  0  0  0  0  0  0  0  0  0  0
    7.3948  -12.9239   18.6228 N   0  0  0  0  0  0  0  0  0  0  0  0
    8.7197  -12.9103   18.7696 C   0  0  0  0  0  0  0  0  0  0  0  0
    9.0160  -13.6844   19.8474 N   0  0  0  0  0  0  0  0  0  0  0  0
    8.0789  -17.4621   22.2369 C   0  0  0  0  0  0  0  0  0  0  0  0
    7.1910  -17.4733   23.0927 O   0  0  0  0  0  0  0  0  0  0  0  0
    9.1584  -18.3295   22.3516 N   0  0  0  0  0  0  0  0  0  0  0  0
    9.4683  -19.3586   23.2456 C   0  0  1  0  0  0  0  0  0  0  0  0
    9.3529  -20.7511   22.8566 C   0  0  0  0  0  0  0  0  0  0  0  0
    8.0209  -20.9712   22.1790 C   0  0  0  0  0  0  0  0  0  0  0  0
    7.9377  -21.1826   20.9197 O   0  0  0  0  0  0  0  0  0  0  0  0
   10.7044  -19.0323   24.0117 C   0  0  0  0  0  0  0  0  0  0  0  0
   11.5975  -18.3546   23.4622 O   0  0  0  0  0  0  0  0  0  0  0  0
    6.8136  -20.9596   22.8649 O   0  0  0  0  0  0  0  0  0  0  0  0
   10.9416  -19.4530   25.3599 N   0  0  0  0  0  0  0  0  0  0  0  0
   12.2208  -19.1802   26.0159 C   0  0  0  0  0  0  0  0  0  0  0  0
   12.1805  -19.5675   27.4375 C   0  0  0  0  0  0  0  0  0  0  0  0
   13.3923  -19.5481   28.1301 O   0  0  0  0  0  0  0  0  0  0  0  0
   11.1466  -19.9121   28.0711 O   0  0  0  0  0  0  0  0  0  0  0  0
  2  1  1  1
  2  3  1  0
  3  4  1  0
  4  5  2  0
  5  6  1  0
  7  6  1  0
  8  4  1  0
  8  7  2  0
  9  2  1  0
  9 11  1  0
 10  9  2  0
 12 11  1  0
 12 16  1  0
 12 13  1  6
 14 13  1  0
 14 18  1  0
 15 14  2  0
 16 17  2  0
 16 19  1  0
 19 20  1  0
 20 21  1  0
 21 22  1  0
 23 21  2  0
M  END
$$$$
