HDG.pdb
     RDKit          3D

 23 23  0  0  1  0  0  0  0  0999 V2000
    7.3327  -22.9360   26.7997 N   0  0  0  0  0  0  0  0  0  0  0  0
    7.4833  -22.8361   28.2429 C   0  0  1  0  0  0  0  0  0  0  0  0
    7.2632  -24.2252   28.7974 C   0  0  0  0  0  0  0  0  0  0  0  0
    5.8736  -24.6429   28.4875 C   0  0  0  0  0  0  0  0  0  0  0  0
    4.7014  -24.2923   29.1454 C   0  0  0  0  0  0  0  0  0  0  0  0
    3.6633  -24.8957   28.5404 N   0  0  0  0  0  0  0  0  0  0  0  0
    4.1297  -25.6186   27.5220 C   0  0  0  0  0  0  0  0  0  0  0  0
    5.4796  -25.4579   27.4956 N   0  0  0  0  0  0  0  0  0  0  0  0
    8.8203  -22.2955   28.5972 C   0  0  0  0  0  0  0  0  0  0  0  0
    9.1913  -22.3517   29.7720 O   0  0  0  0  0  0  0  0  0  0  0  0
    9.6529  -21.7330   27.6373 N   0  0  0  0  0  0  0  0  0  0  0  0
   10.9042  -21.1130   27.7006 C   0  0  1  0  0  0  0  0  0  0  0  0
   11.7081  -20.9211   26.5087 C   0  0  0  0  0  0  0  0  0  0  0  0
   11.9932  -22.2635   25.8777 C   0  0  0  0  0  0  0  0  0  0  0  0
   11.5445  -22.5666   24.7182 O   0  0  0  0  0  0  0  0  0  0  0  0
   10.8588  -19.9336   28.6108 C   0  0  0  0  0  0  0  0  0  0  0  0
   10.3691  -18.8636   28.1933 O   0  0  0  0  0  0  0  0  0  0  0  0
   12.7500  -23.2461   26.5021 O   0  0  0  0  0  0  0  0  0  0  0  0
   11.3496  -19.9450   29.9561 N   0  0  0  0  0  0  0  0  0  0  0  0
   11.2995  -18.7383   30.7822 C   0  0  0  0  0  0  0  0  0  0  0  0
   11.7859  -19.0098   32.1469 C   0  0  0  0  0  0  0  0  0  0  0  0
   11.8329  -17.9264   33.0258 O   0  0  0  0  0  0  0  0  0  0  0  0
   12.1597  -20.1337   32.5784 O   0  0  0  0  0  0  0  0  0  0  0  0
  2  1  1  6
  2  3  1  0
  3  4  1  0
  4  5  2  0
  5  6  1  0
  7  6  1  0
  8  4  1  0
  8  7  2  0
  9  2  1  0
  9 11  1  0
 10  9  2  0
 12 11  1  0
 12 16  1  0
 12 13  1  6
 14 13  1  0
 14 18  1  0
 15 14  2  0
 16 17  2  0
 16 19  1  0
 19 20  1  0
 20 21  1  0
 21 22  1  0
 23 21  2  0
M  END
$$$$
