HDG.pdb
     RDKit          3D

 23 23  0  0  1  0  0  0  0  0999 V2000
    8.1029  -16.1941   20.6973 N   0  0  0  0  0  0  0  0  0  0  0  0
    8.0714  -15.0562   21.6026 C   0  0  1  0  0  0  0  0  0  0  0  0
    7.1620  -14.0268   20.9710 C   0  0  0  0  0  0  0  0  0  0  0  0
    7.6334  -13.7645   19.5889 C   0  0  0  0  0  0  0  0  0  0  0  0
    7.2133  -12.7757   18.7082 C   0  0  0  0  0  0  0  0  0  0  0  0
    7.8971  -12.8965   17.5568 N   0  0  0  0  0  0  0  0  0  0  0  0
    8.7369  -13.9256   17.6700 C   0  0  0  0  0  0  0  0  0  0  0  0
    8.5708  -14.4492   18.9138 N   0  0  0  0  0  0  0  0  0  0  0  0
    7.6028  -15.4678   22.9504 C   0  0  0  0  0  0  0  0  0  0  0  0
    6.8542  -14.7126   23.5750 O   0  0  0  0  0  0  0  0  0  0  0  0
    7.9893  -16.6775   23.5145 N   0  0  0  0  0  0  0  0  0  0  0  0
    7.8259  -17.2362   24.7855 C   0  0  1  0  0  0  0  0  0  0  0  0
    6.9910  -18.4044   24.9903 C   0  0  0  0  0  0  0  0  0  0  0  0
    5.9502  -18.4717   23.8976 C   0  0  0  0  0  0  0  0  0  0  0  0
    6.1387  -19.1605   22.8357 O   0  0  0  0  0  0  0  0  0  0  0  0
    9.1262  -17.2719   25.5130 C   0  0  0  0  0  0  0  0  0  0  0  0
    9.1267  -17.4728   26.7453 O   0  0  0  0  0  0  0  0  0  0  0  0
    4.7362  -17.8016   23.9686 O   0  0  0  0  0  0  0  0  0  0  0  0
   10.3984  -17.0861   24.8822 N   0  0  0  0  0  0  0  0  0  0  0  0
   11.6299  -17.0605   25.6721 C   0  0  0  0  0  0  0  0  0  0  0  0
   12.1306  -18.4249   25.9172 C   0  0  0  0  0  0  0  0  0  0  0  0
   13.3834  -18.5367   26.5228 O   0  0  0  0  0  0  0  0  0  0  0  0
   11.5217  -19.4894   25.6252 O   0  0  0  0  0  0  0  0  0  0  0  0
  2  1  1  6
  2  3  1  0
  3  4  1  0
  4  5  2  0
  5  6  1  0
  7  6  1  0
  8  4  1  0
  8  7  2  0
  9  2  1  0
  9 11  1  0
 10  9  2  0
 12 11  1  0
 12 16  1  0
 12 13  1  6
 14 13  1  0
 14 18  1  0
 15 14  2  0
 16 17  2  0
 16 19  1  0
 19 20  1  0
 20 21  1  0
 21 22  1  0
 23 21  2  0
M  END
$$$$
