HDG.pdb
     RDKit          3D

 23 23  0  0  1  0  0  0  0  0999 V2000
   12.3933  -19.9855   17.2151 N   0  0  0  0  0  0  0  0  0  0  0  0
   11.4055  -19.1953   17.9329 C   0  0  1  0  0  0  0  0  0  0  0  0
   10.0519  -19.6106   17.4027 C   0  0  0  0  0  0  0  0  0  0  0  0
   10.0010  -19.3106   15.9505 C   0  0  0  0  0  0  0  0  0  0  0  0
   10.5569  -18.2326   15.2733 C   0  0  0  0  0  0  0  0  0  0  0  0
   10.2700  -18.3435   13.9644 N   0  0  0  0  0  0  0  0  0  0  0  0
    9.5514  -19.4514   13.7818 C   0  0  0  0  0  0  0  0  0  0  0  0
    9.3927  -20.0367   14.9987 N   0  0  0  0  0  0  0  0  0  0  0  0
   11.5238  -19.4077   19.3980 C   0  0  0  0  0  0  0  0  0  0  0  0
   10.7640  -18.7935   20.1503 O   0  0  0  0  0  0  0  0  0  0  0  0
   12.4667  -20.2785   19.9307 N   0  0  0  0  0  0  0  0  0  0  0  0
   12.7661  -20.6836   21.2347 C   0  0  1  0  0  0  0  0  0  0  0  0
   12.6838  -22.0781   21.6252 C   0  0  0  0  0  0  0  0  0  0  0  0
   11.2413  -22.5240   21.5820 C   0  0  0  0  0  0  0  0  0  0  0  0
   10.3295  -21.9036   22.2312 O   0  0  0  0  0  0  0  0  0  0  0  0
   13.9741  -19.9716   21.7399 C   0  0  0  0  0  0  0  0  0  0  0  0
   14.2943  -20.0967   22.9402 O   0  0  0  0  0  0  0  0  0  0  0  0
   10.8114  -23.6206   20.8466 O   0  0  0  0  0  0  0  0  0  0  0  0
   14.8065  -19.1371   20.9265 N   0  0  0  0  0  0  0  0  0  0  0  0
   15.8599  -18.3174   21.5262 C   0  0  0  0  0  0  0  0  0  0  0  0
   16.5218  -17.4790   20.5106 C   0  0  0  0  0  0  0  0  0  0  0  0
   17.5508  -16.6466   20.9544 O   0  0  0  0  0  0  0  0  0  0  0  0
   16.2338  -17.4548   19.2836 O   0  0  0  0  0  0  0  0  0  0  0  0
  2  1  1  6
  2  3  1  0
  3  4  1  0
  4  5  2  0
  5  6  1  0
  7  6  1  0
  8  4  1  0
  8  7  2  0
  9  2  1  0
  9 11  1  0
 10  9  2  0
 12 11  1  0
 12 16  1  0
 12 13  1  6
 14 13  1  0
 14 18  1  0
 15 14  2  0
 16 17  2  0
 16 19  1  0
 19 20  1  0
 20 21  1  0
 21 22  1  0
 23 21  2  0
M  END
$$$$
