HDG.pdb
     RDKit          3D

 23 23  0  0  1  0  0  0  0  0999 V2000
   10.6568  -13.2346   19.4783 N   0  0  0  0  0  0  0  0  0  0  0  0
   10.5133  -14.6819   19.4776 C   0  0  1  0  0  0  0  0  0  0  0  0
    9.9777  -15.0623   18.1159 C   0  0  0  0  0  0  0  0  0  0  0  0
    8.6674  -14.3944   17.9201 C   0  0  0  0  0  0  0  0  0  0  0  0
    7.9857  -13.5603   18.7973 C   0  0  0  0  0  0  0  0  0  0  0  0
    6.8309  -13.1755   18.2263 N   0  0  0  0  0  0  0  0  0  0  0  0
    6.7503  -13.7335   17.0183 C   0  0  0  0  0  0  0  0  0  0  0  0
    7.8758  -14.4749   16.8384 N   0  0  0  0  0  0  0  0  0  0  0  0
   11.8108  -15.3405   19.7746 C   0  0  0  0  0  0  0  0  0  0  0  0
   11.8953  -16.5653   19.6586 O   0  0  0  0  0  0  0  0  0  0  0  0
   12.9209  -14.6076   20.1767 N   0  0  0  0  0  0  0  0  0  0  0  0
   14.2151  -14.9663   20.5644 C   0  0  1  0  0  0  0  0  0  0  0  0
   15.3716  -14.2288   20.0929 C   0  0  0  0  0  0  0  0  0  0  0  0
   15.6136  -14.5566   18.6384 C   0  0  0  0  0  0  0  0  0  0  0  0
   15.6905  -15.7667   18.2292 O   0  0  0  0  0  0  0  0  0  0  0  0
   14.2513  -15.3097   22.0143 C   0  0  0  0  0  0  0  0  0  0  0  0
   15.3438  -15.6077   22.5401 O   0  0  0  0  0  0  0  0  0  0  0  0
   15.7668  -13.5832   17.6601 O   0  0  0  0  0  0  0  0  0  0  0  0
   13.0956  -15.3225   22.8600 N   0  0  0  0  0  0  0  0  0  0  0  0
   13.2240  -15.5416   24.3010 C   0  0  0  0  0  0  0  0  0  0  0  0
   13.1204  -16.9745   24.6305 C   0  0  0  0  0  0  0  0  0  0  0  0
   13.2202  -17.3194   25.9794 O   0  0  0  0  0  0  0  0  0  0  0  0
   12.9504  -17.9046   23.7968 O   0  0  0  0  0  0  0  0  0  0  0  0
  2  1  1  6
  2  3  1  0
  3  4  1  0
  4  5  2  0
  5  6  1  0
  7  6  1  0
  8  4  1  0
  8  7  2  0
  9  2  1  0
  9 11  1  0
 10  9  2  0
 12 11  1  0
 12 16  1  0
 12 13  1  1
 14 13  1  0
 14 18  1  0
 15 14  2  0
 16 17  2  0
 16 19  1  0
 19 20  1  0
 20 21  1  0
 21 22  1  0
 23 21  2  0
M  END
$$$$
