HDG.pdb
     RDKit          3D

 23 23  0  0  1  0  0  0  0  0999 V2000
    7.9791  -16.9201   20.8118 N   0  0  0  0  0  0  0  0  0  0  0  0
    8.9085  -16.1288   21.6026 C   0  0  1  0  0  0  0  0  0  0  0  0
    8.1781  -14.8627   21.9887 C   0  0  0  0  0  0  0  0  0  0  0  0
    7.9843  -14.0387   20.7701 C   0  0  0  0  0  0  0  0  0  0  0  0
    8.4052  -14.3057   19.4735 C   0  0  0  0  0  0  0  0  0  0  0  0
    8.0252  -13.2941   18.6734 N   0  0  0  0  0  0  0  0  0  0  0  0
    7.3784  -12.3918   19.4115 C   0  0  0  0  0  0  0  0  0  0  0  0
    7.3565  -12.8544   20.6898 N   0  0  0  0  0  0  0  0  0  0  0  0
    9.3744  -16.8920   22.7884 C   0  0  0  0  0  0  0  0  0  0  0  0
    8.5475  -17.5233   23.4506 O   0  0  0  0  0  0  0  0  0  0  0  0
   10.7130  -16.9073   23.1610 N   0  0  0  0  0  0  0  0  0  0  0  0
   11.4157  -17.5595   24.1783 C   0  0  1  0  0  0  0  0  0  0  0  0
   12.6046  -18.3385   23.8892 C   0  0  0  0  0  0  0  0  0  0  0  0
   13.6917  -17.4204   23.3824 C   0  0  0  0  0  0  0  0  0  0  0  0
   14.3663  -16.6792   24.1780 O   0  0  0  0  0  0  0  0  0  0  0  0
   11.5276  -16.6860   25.3807 C   0  0  0  0  0  0  0  0  0  0  0  0
   11.6232  -15.4507   25.2264 O   0  0  0  0  0  0  0  0  0  0  0  0
   14.0290  -17.3186   22.0392 O   0  0  0  0  0  0  0  0  0  0  0  0
   11.5345  -17.1776   26.7258 N   0  0  0  0  0  0  0  0  0  0  0  0
   10.6911  -16.5640   27.7521 C   0  0  0  0  0  0  0  0  0  0  0  0
   10.9301  -17.1775   29.0708 C   0  0  0  0  0  0  0  0  0  0  0  0
   10.2885  -16.5919   30.1635 O   0  0  0  0  0  0  0  0  0  0  0  0
   11.6623  -18.1806   29.2872 O   0  0  0  0  0  0  0  0  0  0  0  0
  2  1  1  1
  2  3  1  0
  3  4  1  0
  4  5  2  0
  5  6  1  0
  7  6  1  0
  8  4  1  0
  8  7  2  0
  9  2  1  0
  9 11  1  0
 10  9  2  0
 12 11  1  0
 12 16  1  0
 12 13  1  6
 14 13  1  0
 14 18  1  0
 15 14  2  0
 16 17  2  0
 16 19  1  0
 19 20  1  0
 20 21  1  0
 21 22  1  0
 23 21  2  0
M  END
$$$$
