HDG.pdb
     RDKit          3D

 23 23  0  0  1  0  0  0  0  0999 V2000
    9.1091  -15.7910   21.4189 N   0  0  0  0  0  0  0  0  0  0  0  0
   10.2380  -15.7722   20.5020 C   0  0  1  0  0  0  0  0  0  0  0  0
   10.3762  -14.3473   20.0160 C   0  0  0  0  0  0  0  0  0  0  0  0
    9.0822  -13.9210   19.4284 C   0  0  0  0  0  0  0  0  0  0  0  0
    8.5232  -14.2943   18.2127 C   0  0  0  0  0  0  0  0  0  0  0  0
    7.3403  -13.6723   18.0661 N   0  0  0  0  0  0  0  0  0  0  0  0
    7.1244  -12.9158   19.1422 C   0  0  0  0  0  0  0  0  0  0  0  0
    8.1916  -13.0742   19.9697 N   0  0  0  0  0  0  0  0  0  0  0  0
   11.4703  -16.2585   21.1731 C   0  0  0  0  0  0  0  0  0  0  0  0
   12.4407  -15.5018   21.2535 O   0  0  0  0  0  0  0  0  0  0  0  0
   11.5482  -17.5390   21.7073 N   0  0  0  0  0  0  0  0  0  0  0  0
   12.5636  -18.2430   22.3611 C   0  0  1  0  0  0  0  0  0  0  0  0
   12.2735  -19.0978   23.4964 C   0  0  0  0  0  0  0  0  0  0  0  0
   11.2971  -18.3975   24.4117 C   0  0  0  0  0  0  0  0  0  0  0  0
   11.4850  -17.1904   24.7927 O   0  0  0  0  0  0  0  0  0  0  0  0
   13.5135  -18.8297   21.3737 C   0  0  0  0  0  0  0  0  0  0  0  0
   13.2893  -19.9714   20.9206 O   0  0  0  0  0  0  0  0  0  0  0  0
   10.1461  -19.0053   24.8953 O   0  0  0  0  0  0  0  0  0  0  0  0
   14.6884  -18.1603   20.9023 N   0  0  0  0  0  0  0  0  0  0  0  0
   15.8541  -17.9918   21.7705 C   0  0  0  0  0  0  0  0  0  0  0  0
   16.6395  -19.2365   21.8507 C   0  0  0  0  0  0  0  0  0  0  0  0
   17.8002  -19.2996   21.0779 O   0  0  0  0  0  0  0  0  0  0  0  0
   16.3475  -20.2396   22.5561 O   0  0  0  0  0  0  0  0  0  0  0  0
  2  1  1  1
  2  3  1  0
  3  4  1  0
  4  5  2  0
  5  6  1  0
  7  6  1  0
  8  4  1  0
  8  7  2  0
  9  2  1  0
  9 11  1  0
 10  9  2  0
 12 11  1  0
 12 16  1  0
 12 13  1  6
 14 13  1  0
 14 18  1  0
 15 14  2  0
 16 17  2  0
 16 19  1  0
 19 20  1  0
 20 21  1  0
 21 22  1  0
 23 21  2  0
M  END
$$$$
