HDG.pdb
     RDKit          3D

 23 23  0  0  1  0  0  0  0  0999 V2000
    8.2187  -16.5903   16.0944 N   0  0  0  0  0  0  0  0  0  0  0  0
    9.0078  -16.0968   17.2120 C   0  0  1  0  0  0  0  0  0  0  0  0
    8.0458  -15.8801   18.3579 C   0  0  0  0  0  0  0  0  0  0  0  0
    7.8707  -14.4205   18.5583 C   0  0  0  0  0  0  0  0  0  0  0  0
    8.4349  -13.3775   17.8346 C   0  0  0  0  0  0  0  0  0  0  0  0
    8.0164  -12.2094   18.3525 N   0  0  0  0  0  0  0  0  0  0  0  0
    7.2072  -12.4684   19.3797 C   0  0  0  0  0  0  0  0  0  0  0  0
    7.1223  -13.8203   19.4980 N   0  0  0  0  0  0  0  0  0  0  0  0
   10.0876  -17.0556   17.5591 C   0  0  0  0  0  0  0  0  0  0  0  0
   10.4115  -17.9102   16.7312 O   0  0  0  0  0  0  0  0  0  0  0  0
   10.7332  -17.0068   18.7886 N   0  0  0  0  0  0  0  0  0  0  0  0
   12.0555  -17.2277   19.1845 C   0  0  1  0  0  0  0  0  0  0  0  0
   13.1681  -16.7977   18.3591 C   0  0  0  0  0  0  0  0  0  0  0  0
   14.4411  -17.4318   18.8679 C   0  0  0  0  0  0  0  0  0  0  0  0
   14.4693  -18.6462   19.2704 O   0  0  0  0  0  0  0  0  0  0  0  0
   12.2209  -16.9458   20.6387 C   0  0  0  0  0  0  0  0  0  0  0  0
   12.3515  -15.7629   21.0164 O   0  0  0  0  0  0  0  0  0  0  0  0
   15.6500  -16.7516   18.9331 O   0  0  0  0  0  0  0  0  0  0  0  0
   12.2421  -17.9593   21.6502 N   0  0  0  0  0  0  0  0  0  0  0  0
   12.1843  -17.6039   23.0684 C   0  0  0  0  0  0  0  0  0  0  0  0
   13.5294  -17.3158   23.5978 C   0  0  0  0  0  0  0  0  0  0  0  0
   13.6160  -16.9851   24.9513 O   0  0  0  0  0  0  0  0  0  0  0  0
   14.5981  -17.3442   22.9300 O   0  0  0  0  0  0  0  0  0  0  0  0
  2  1  1  6
  2  3  1  0
  3  4  1  0
  4  5  2  0
  5  6  1  0
  7  6  1  0
  8  4  1  0
  8  7  2  0
  9  2  1  0
  9 11  1  0
 10  9  2  0
 12 11  1  0
 12 16  1  0
 12 13  1  6
 14 13  1  0
 14 18  1  0
 15 14  2  0
 16 17  2  0
 16 19  1  0
 19 20  1  0
 20 21  1  0
 21 22  1  0
 23 21  2  0
M  END
$$$$
