HDG.pdb
     RDKit          3D

 23 23  0  0  1  0  0  0  0  0999 V2000
    5.7055  -14.7213   21.2502 N   0  0  0  0  0  0  0  0  0  0  0  0
    6.9274  -15.3326   21.7488 C   0  0  1  0  0  0  0  0  0  0  0  0
    7.9682  -14.2374   21.8014 C   0  0  0  0  0  0  0  0  0  0  0  0
    8.2910  -13.8253   20.4131 C   0  0  0  0  0  0  0  0  0  0  0  0
    7.8108  -14.3567   19.2228 C   0  0  0  0  0  0  0  0  0  0  0  0
    8.3634  -13.6920   18.1929 N   0  0  0  0  0  0  0  0  0  0  0  0
    9.1785  -12.7573   18.6819 C   0  0  0  0  0  0  0  0  0  0  0  0
    9.1276  -12.8442   20.0378 N   0  0  0  0  0  0  0  0  0  0  0  0
    6.7008  -15.9560   23.0776 C   0  0  0  0  0  0  0  0  0  0  0  0
    6.0181  -15.3520   23.9082 O   0  0  0  0  0  0  0  0  0  0  0  0
    7.2392  -17.1963   23.3981 N   0  0  0  0  0  0  0  0  0  0  0  0
    7.1786  -17.9995   24.5407 C   0  0  1  0  0  0  0  0  0  0  0  0
    6.8438  -19.4079   24.4514 C   0  0  0  0  0  0  0  0  0  0  0  0
    6.7926  -19.9977   25.8410 C   0  0  0  0  0  0  0  0  0  0  0  0
    6.4719  -19.2891   26.8572 O   0  0  0  0  0  0  0  0  0  0  0  0
    8.3123  -17.6916   25.4580 C   0  0  0  0  0  0  0  0  0  0  0  0
    9.4775  -17.9472   25.0894 O   0  0  0  0  0  0  0  0  0  0  0  0
    7.0854  -21.3286   26.1079 O   0  0  0  0  0  0  0  0  0  0  0  0
    8.1517  -17.1133   26.7582 N   0  0  0  0  0  0  0  0  0  0  0  0
    9.3160  -16.7172   27.5511 C   0  0  0  0  0  0  0  0  0  0  0  0
    9.8797  -17.8695   28.2770 C   0  0  0  0  0  0  0  0  0  0  0  0
   10.9064  -17.6014   29.1839 O   0  0  0  0  0  0  0  0  0  0  0  0
    9.5107  -19.0674   28.1439 O   0  0  0  0  0  0  0  0  0  0  0  0
  2  1  1  1
  2  3  1  0
  3  4  1  0
  4  5  2  0
  5  6  1  0
  7  6  1  0
  8  4  1  0
  8  7  2  0
  9  2  1  0
  9 11  1  0
 10  9  2  0
 12 11  1  0
 12 16  1  0
 12 13  1  6
 14 13  1  0
 14 18  1  0
 15 14  2  0
 16 17  2  0
 16 19  1  0
 19 20  1  0
 20 21  1  0
 21 22  1  0
 23 21  2  0
M  END
$$$$
