HDG.pdb
     RDKit          3D

 23 23  0  0  1  0  0  0  0  0999 V2000
   10.7898  -15.9562   20.5528 N   0  0  0  0  0  0  0  0  0  0  0  0
    9.6645  -15.8673   21.4700 C   0  0  1  0  0  0  0  0  0  0  0  0
    8.4284  -15.6795   20.6202 C   0  0  0  0  0  0  0  0  0  0  0  0
    8.5338  -14.3789   19.9139 C   0  0  0  0  0  0  0  0  0  0  0  0
    9.6096  -13.5007   19.8815 C   0  0  0  0  0  0  0  0  0  0  0  0
    9.2830  -12.4370   19.1267 N   0  0  0  0  0  0  0  0  0  0  0  0
    8.0391  -12.6036   18.6773 C   0  0  0  0  0  0  0  0  0  0  0  0
    7.5892  -13.7920   19.1611 N   0  0  0  0  0  0  0  0  0  0  0  0
    9.5813  -17.0813   22.3214 C   0  0  0  0  0  0  0  0  0  0  0  0
    8.5796  -17.2484   23.0210 O   0  0  0  0  0  0  0  0  0  0  0  0
   10.6026  -18.0234   22.3430 N   0  0  0  0  0  0  0  0  0  0  0  0
   10.7549  -19.2551   22.9863 C   0  0  1  0  0  0  0  0  0  0  0  0
   11.2770  -20.4105   22.2819 C   0  0  0  0  0  0  0  0  0  0  0  0
   10.5174  -20.5919   20.9890 C   0  0  0  0  0  0  0  0  0  0  0  0
    9.2486  -20.7578   20.9760 O   0  0  0  0  0  0  0  0  0  0  0  0
   11.3095  -19.0653   24.3567 C   0  0  0  0  0  0  0  0  0  0  0  0
   12.3713  -18.4237   24.4979 O   0  0  0  0  0  0  0  0  0  0  0  0
   11.1335  -20.5913   19.7446 O   0  0  0  0  0  0  0  0  0  0  0  0
   10.6960  -19.5801   25.5439 N   0  0  0  0  0  0  0  0  0  0  0  0
   11.2747  -19.3157   26.8615 C   0  0  0  0  0  0  0  0  0  0  0  0
   12.2336  -20.3690   27.2402 C   0  0  0  0  0  0  0  0  0  0  0  0
   12.8018  -20.2758   28.5119 O   0  0  0  0  0  0  0  0  0  0  0  0
   12.5779  -21.3387   26.5120 O   0  0  0  0  0  0  0  0  0  0  0  0
  2  1  1  6
  2  3  1  0
  3  4  1  0
  4  5  2  0
  5  6  1  0
  7  6  1  0
  8  4  1  0
  8  7  2  0
  9  2  1  0
  9 11  1  0
 10  9  2  0
 12 11  1  0
 12 16  1  0
 12 13  1  6
 14 13  1  0
 14 18  1  0
 15 14  2  0
 16 17  2  0
 16 19  1  0
 19 20  1  0
 20 21  1  0
 21 22  1  0
 23 21  2  0
M  END
$$$$
