GTH.pdb
     RDKit          3D

 22 22  0  0  1  0  0  0  0  0999 V2000
   10.3673  -15.7227   13.6730 N   0  0  0  0  0  0  0  0  0  0  0  0
    9.4084  -15.9435   14.7372 C   0  0  0  0  0  0  0  0  0  0  0  0
    9.7496  -15.1259   15.9430 C   0  0  0  0  0  0  0  0  0  0  0  0
   10.8840  -14.6431   16.0040 O   0  0  0  0  0  0  0  0  0  0  0  0
    7.9303  -12.9603   20.0727 C   0  0  0  0  0  0  0  0  0  0  0  0
    7.7535  -13.7717   18.8128 C   0  0  1  0  0  0  0  0  0  0  0  0
    6.8799  -13.1387   17.9362 O   0  0  0  0  0  0  0  0  0  0  0  0
    9.0136  -14.2579   18.2149 C   0  0  2  0  0  0  0  0  0  0  0  0
    8.7939  -14.9217   16.9706 N   0  0  0  0  0  0  0  0  0  0  0  0
    9.9212  -15.0248   19.0815 C   0  0  0  0  0  0  0  0  0  0  0  0
    9.8721  -16.2741   19.0432 O   0  0  0  0  0  0  0  0  0  0  0  0
   10.8683  -14.4679   19.9759 N   0  0  0  0  0  0  0  0  0  0  0  0
   11.7304  -15.3640   20.8038 C   0  0  1  0  0  0  0  0  0  0  0  0
   13.0700  -14.7550   20.9780 C   0  0  0  0  0  0  0  0  0  0  0  0
   13.8730  -14.8537   19.7443 C   0  0  0  0  0  0  0  0  0  0  0  0
   13.8300  -15.7473   18.7067 C   0  0  0  0  0  0  0  0  0  0  0  0
   14.7286  -15.3689   17.7508 N   0  0  0  0  0  0  0  0  0  0  0  0
   15.3110  -14.2618   18.1941 C   0  0  0  0  0  0  0  0  0  0  0  0
   14.8209  -13.9232   19.3886 N   0  0  0  0  0  0  0  0  0  0  0  0
   11.0066  -15.5077   22.1064 C   0  0  0  0  0  0  0  0  0  0  0  0
   11.3159  -16.3569   23.1257 O   0  0  0  0  0  0  0  0  0  0  0  0
    9.9914  -14.7592   22.2974 O   0  0  0  0  0  0  0  0  0  0  0  0
  2  1  1  0
  3  2  1  0
  4  3  2  0
  6  5  1  1
  6  8  1  0
  7  6  1  0
  8  9  1  6
  8 10  1  0
  9  3  1  0
 10 12  1  0
 11 10  2  0
 12 13  1  0
 13 14  1  1
 13 20  1  0
 15 14  1  0
 16 15  2  0
 17 16  1  0
 18 17  1  0
 18 19  2  0
 19 15  1  0
 20 22  2  0
 20 21  1  0
M  END
$$$$
