GTH.pdb
     RDKit          3D

 22 22  0  0  1  0  0  0  0  0999 V2000
    3.1078  -19.1480   21.8350 N   0  0  0  0  0  0  0  0  0  0  0  0
    3.6734  -17.9784   22.4775 C   0  0  0  0  0  0  0  0  0  0  0  0
    5.1445  -17.8856   22.2205 C   0  0  0  0  0  0  0  0  0  0  0  0
    5.7302  -18.9153   21.8734 O   0  0  0  0  0  0  0  0  0  0  0  0
    6.8198  -15.7115   19.7706 C   0  0  0  0  0  0  0  0  0  0  0  0
    7.4432  -15.3937   21.1076 C   0  0  1  0  0  0  0  0  0  0  0  0
    7.1636  -14.0852   21.4844 O   0  0  0  0  0  0  0  0  0  0  0  0
    7.2172  -16.4176   22.1481 C   0  0  2  0  0  0  0  0  0  0  0  0
    5.8277  -16.6525   22.3743 N   0  0  0  0  0  0  0  0  0  0  0  0
    7.9513  -16.2685   23.4136 C   0  0  0  0  0  0  0  0  0  0  0  0
    7.4341  -15.5915   24.3295 O   0  0  0  0  0  0  0  0  0  0  0  0
    9.2186  -16.8338   23.6993 N   0  0  0  0  0  0  0  0  0  0  0  0
    9.9032  -16.5186   24.9891 C   0  0  1  0  0  0  0  0  0  0  0  0
   10.2132  -17.7725   25.7151 C   0  0  0  0  0  0  0  0  0  0  0  0
    9.0119  -18.3332   26.3626 C   0  0  0  0  0  0  0  0  0  0  0  0
    7.7296  -17.8597   26.4533 C   0  0  0  0  0  0  0  0  0  0  0  0
    6.9530  -18.7854   27.0891 N   0  0  0  0  0  0  0  0  0  0  0  0
    7.7453  -19.8093   27.3815 C   0  0  0  0  0  0  0  0  0  0  0  0
    8.9892  -19.5719   26.9593 N   0  0  0  0  0  0  0  0  0  0  0  0
   11.1431  -15.7745   24.6014 C   0  0  0  0  0  0  0  0  0  0  0  0
   11.5498  -15.4622   23.3393 O   0  0  0  0  0  0  0  0  0  0  0  0
   11.9088  -15.3822   25.5434 O   0  0  0  0  0  0  0  0  0  0  0  0
  2  1  1  0
  3  2  1  0
  4  3  2  0
  6  5  1  6
  6  8  1  0
  7  6  1  0
  8  9  1  1
  8 10  1  0
  9  3  1  0
 10 12  1  0
 11 10  2  0
 12 13  1  0
 13 14  1  6
 13 20  1  0
 15 14  1  0
 16 15  2  0
 17 16  1  0
 18 17  1  0
 18 19  2  0
 19 15  1  0
 20 22  2  0
 20 21  1  0
M  END
$$$$
