GTH.pdb
     RDKit          3D

 22 22  0  0  1  0  0  0  0  0999 V2000
    7.9003  -14.9934   13.4938 N   0  0  0  0  0  0  0  0  0  0  0  0
    7.5493  -15.2898   14.8684 C   0  0  0  0  0  0  0  0  0  0  0  0
    8.4197  -14.5294   15.8187 C   0  0  0  0  0  0  0  0  0  0  0  0
    9.3016  -13.8122   15.3373 O   0  0  0  0  0  0  0  0  0  0  0  0
    7.0031  -12.8151   19.1887 C   0  0  0  0  0  0  0  0  0  0  0  0
    8.1972  -13.7034   19.4383 C   0  0  1  0  0  0  0  0  0  0  0  0
    7.8414  -14.8041   20.2092 O   0  0  0  0  0  0  0  0  0  0  0  0
    9.0010  -14.0020   18.2355 C   0  0  2  0  0  0  0  0  0  0  0  0
    8.2267  -14.6386   17.2193 N   0  0  0  0  0  0  0  0  0  0  0  0
   10.2898  -14.6814   18.4354 C   0  0  0  0  0  0  0  0  0  0  0  0
   10.4163  -15.8573   18.0278 O   0  0  0  0  0  0  0  0  0  0  0  0
   11.4282  -14.1153   19.0605 N   0  0  0  0  0  0  0  0  0  0  0  0
   12.7119  -14.8780   19.1059 C   0  0  1  0  0  0  0  0  0  0  0  0
   13.8440  -13.9798   18.7786 C   0  0  0  0  0  0  0  0  0  0  0  0
   15.1376  -14.6820   18.8799 C   0  0  0  0  0  0  0  0  0  0  0  0
   16.0276  -14.7923   19.9156 C   0  0  0  0  0  0  0  0  0  0  0  0
   17.0474  -15.6210   19.5447 N   0  0  0  0  0  0  0  0  0  0  0  0
   16.7861  -16.0131   18.3040 C   0  0  0  0  0  0  0  0  0  0  0  0
   15.6462  -15.4684   17.8731 N   0  0  0  0  0  0  0  0  0  0  0  0
   12.8025  -15.4071   20.5034 C   0  0  0  0  0  0  0  0  0  0  0  0
   13.6039  -16.4155   20.9470 O   0  0  0  0  0  0  0  0  0  0  0  0
   12.0572  -14.8632   21.3845 O   0  0  0  0  0  0  0  0  0  0  0  0
  2  1  1  0
  3  2  1  0
  4  3  2  0
  6  5  1  6
  6  8  1  0
  7  6  1  0
  8  9  1  6
  8 10  1  0
  9  3  1  0
 10 12  1  0
 11 10  2  0
 12 13  1  0
 13 14  1  1
 13 20  1  0
 15 14  1  0
 16 15  2  0
 17 16  1  0
 18 17  1  0
 18 19  2  0
 19 15  1  0
 20 22  2  0
 20 21  1  0
M  END
$$$$
