GTH.pdb
     RDKit          3D

 22 22  0  0  1  0  0  0  0  0999 V2000
    8.0280  -13.0196   17.5571 N   0  0  0  0  0  0  0  0  0  0  0  0
    8.8932  -13.2896   18.6882 C   0  0  0  0  0  0  0  0  0  0  0  0
    8.1657  -14.0566   19.7471 C   0  0  0  0  0  0  0  0  0  0  0  0
    6.9325  -14.0736   19.6955 O   0  0  0  0  0  0  0  0  0  0  0  0
    7.6347  -17.2251   19.8282 C   0  0  0  0  0  0  0  0  0  0  0  0
    8.3766  -17.0609   21.1319 C   0  0  1  0  0  0  0  0  0  0  0  0
    9.6316  -17.6549   21.0643 O   0  0  0  0  0  0  0  0  0  0  0  0
    8.3500  -15.6911   21.6840 C   0  0  2  0  0  0  0  0  0  0  0  0
    8.8807  -14.7346   20.7670 N   0  0  0  0  0  0  0  0  0  0  0  0
    8.8911  -15.4973   23.0376 C   0  0  0  0  0  0  0  0  0  0  0  0
    9.9621  -14.8645   23.1692 O   0  0  0  0  0  0  0  0  0  0  0  0
    8.2986  -15.9706   24.2343 N   0  0  0  0  0  0  0  0  0  0  0  0
    8.9347  -15.6701   25.5521 C   0  0  1  0  0  0  0  0  0  0  0  0
    7.8957  -15.2966   26.5402 C   0  0  0  0  0  0  0  0  0  0  0  0
    7.3942  -13.9289   26.3062 C   0  0  0  0  0  0  0  0  0  0  0  0
    7.8769  -12.9100   25.5279 C   0  0  0  0  0  0  0  0  0  0  0  0
    7.0096  -11.8566   25.5789 N   0  0  0  0  0  0  0  0  0  0  0  0
    6.0119  -12.2242   26.3732 C   0  0  0  0  0  0  0  0  0  0  0  0
    6.2100  -13.4636   26.8276 N   0  0  0  0  0  0  0  0  0  0  0  0
    9.6477  -16.9289   25.9376 C   0  0  0  0  0  0  0  0  0  0  0  0
   10.4826  -17.1048   26.9996 O   0  0  0  0  0  0  0  0  0  0  0  0
    9.4605  -17.9556   25.2038 O   0  0  0  0  0  0  0  0  0  0  0  0
  2  1  1  0
  3  2  1  0
  4  3  2  0
  6  5  1  6
  6  8  1  0
  7  6  1  0
  8  9  1  6
  8 10  1  0
  9  3  1  0
 10 12  1  0
 11 10  2  0
 12 13  1  0
 13 14  1  1
 13 20  1  0
 15 14  1  0
 16 15  2  0
 17 16  1  0
 18 17  1  0
 18 19  2  0
 19 15  1  0
 20 22  2  0
 20 21  1  0
M  END
$$$$
