GTH.pdb
     RDKit          3D

 22 22  0  0  1  0  0  0  0  0999 V2000
   13.9597  -15.6307   13.3960 N   0  0  0  0  0  0  0  0  0  0  0  0
   12.9531  -16.4953   13.9790 C   0  0  0  0  0  0  0  0  0  0  0  0
   12.4327  -15.9228   15.2597 C   0  0  0  0  0  0  0  0  0  0  0  0
   12.9141  -14.8535   15.6453 O   0  0  0  0  0  0  0  0  0  0  0  0
    8.5236  -16.3832   16.2145 C   0  0  0  0  0  0  0  0  0  0  0  0
    9.4482  -16.6808   17.3693 C   0  0  1  0  0  0  0  0  0  0  0  0
    9.3605  -18.0175   17.7404 O   0  0  0  0  0  0  0  0  0  0  0  0
   10.8187  -16.1536   17.2087 C   0  0  2  0  0  0  0  0  0  0  0  0
   11.4226  -16.5956   15.9933 N   0  0  0  0  0  0  0  0  0  0  0  0
   11.7360  -16.2972   18.3491 C   0  0  0  0  0  0  0  0  0  0  0  0
   12.5809  -17.2193   18.3254 O   0  0  0  0  0  0  0  0  0  0  0  0
   11.7530  -15.4691   19.4986 N   0  0  0  0  0  0  0  0  0  0  0  0
   12.7040  -15.7588   20.6136 C   0  0  1  0  0  0  0  0  0  0  0  0
   13.6199  -14.6101   20.8064 C   0  0  0  0  0  0  0  0  0  0  0  0
   14.5314  -14.4470   19.6578 C   0  0  0  0  0  0  0  0  0  0  0  0
   14.4689  -13.6247   18.5639 C   0  0  0  0  0  0  0  0  0  0  0  0
   15.6000  -13.7855   17.8161 N   0  0  0  0  0  0  0  0  0  0  0  0
   16.3436  -14.6894   18.4418 C   0  0  0  0  0  0  0  0  0  0  0  0
   15.7325  -15.1081   19.5523 N   0  0  0  0  0  0  0  0  0  0  0  0
   11.8395  -15.9935   21.8131 C   0  0  0  0  0  0  0  0  0  0  0  0
   10.4797  -15.9298   21.8676 O   0  0  0  0  0  0  0  0  0  0  0  0
   12.4248  -16.2883   22.9076 O   0  0  0  0  0  0  0  0  0  0  0  0
  2  1  1  0
  3  2  1  0
  4  3  2  0
  6  5  1  6
  6  8  1  0
  7  6  1  0
  8  9  1  6
  8 10  1  0
  9  3  1  0
 10 12  1  0
 11 10  2  0
 12 13  1  0
 13 14  1  1
 13 20  1  0
 15 14  1  0
 16 15  2  0
 17 16  1  0
 18 17  1  0
 18 19  2  0
 19 15  1  0
 20 22  2  0
 20 21  1  0
M  END
$$$$
