GTH.pdb
     RDKit          3D

 22 22  0  0  1  0  0  0  0  0999 V2000
    8.0412  -12.6894   17.4942 N   0  0  0  0  0  0  0  0  0  0  0  0
    8.8692  -13.2355   18.5511 C   0  0  0  0  0  0  0  0  0  0  0  0
    8.0885  -14.1822   19.4073 C   0  0  0  0  0  0  0  0  0  0  0  0
    7.0572  -14.6657   18.9314 O   0  0  0  0  0  0  0  0  0  0  0  0
    7.1816  -16.8120   19.5255 C   0  0  0  0  0  0  0  0  0  0  0  0
    8.0158  -16.8547   20.7822 C   0  0  1  0  0  0  0  0  0  0  0  0
    9.2460  -17.4542   20.5383 O   0  0  0  0  0  0  0  0  0  0  0  0
    8.0655  -15.5810   21.5286 C   0  0  2  0  0  0  0  0  0  0  0  0
    8.5297  -14.5030   20.7163 N   0  0  0  0  0  0  0  0  0  0  0  0
    8.7301  -15.5917   22.8404 C   0  0  0  0  0  0  0  0  0  0  0  0
    9.8779  -15.1032   22.9339 O   0  0  0  0  0  0  0  0  0  0  0  0
    8.1789  -16.1152   24.0359 N   0  0  0  0  0  0  0  0  0  0  0  0
    8.8842  -15.9085   25.3365 C   0  0  1  0  0  0  0  0  0  0  0  0
    7.8966  -15.6486   26.4100 C   0  0  0  0  0  0  0  0  0  0  0  0
    7.3802  -14.2679   26.3465 C   0  0  0  0  0  0  0  0  0  0  0  0
    7.9261  -13.1214   25.8322 C   0  0  0  0  0  0  0  0  0  0  0  0
    7.0205  -12.1053   25.9403 N   0  0  0  0  0  0  0  0  0  0  0  0
    5.9379  -12.6204   26.5095 C   0  0  0  0  0  0  0  0  0  0  0  0
    6.1187  -13.9177   26.7668 N   0  0  0  0  0  0  0  0  0  0  0  0
    9.6476  -17.1746   25.5721 C   0  0  0  0  0  0  0  0  0  0  0  0
   10.6244  -17.3815   26.4988 O   0  0  0  0  0  0  0  0  0  0  0  0
    9.3613  -18.1762   24.8356 O   0  0  0  0  0  0  0  0  0  0  0  0
  2  1  1  0
  3  2  1  0
  4  3  2  0
  6  5  1  6
  6  8  1  0
  7  6  1  0
  8  9  1  6
  8 10  1  0
  9  3  1  0
 10 12  1  0
 11 10  2  0
 12 13  1  0
 13 14  1  1
 13 20  1  0
 15 14  1  0
 16 15  2  0
 17 16  1  0
 18 17  1  0
 18 19  2  0
 19 15  1  0
 20 22  2  0
 20 21  1  0
M  END
$$$$
