GTH.pdb
     RDKit          3D

 22 22  0  0  1  0  0  0  0  0999 V2000
    8.4636  -14.9084   13.9416 N   0  0  0  0  0  0  0  0  0  0  0  0
    8.0201  -15.2584   15.2764 C   0  0  0  0  0  0  0  0  0  0  0  0
    8.9547  -14.7145   16.3105 C   0  0  0  0  0  0  0  0  0  0  0  0
   10.0148  -14.2181   15.9186 O   0  0  0  0  0  0  0  0  0  0  0  0
    7.5092  -12.3947   19.0660 C   0  0  0  0  0  0  0  0  0  0  0  0
    8.3725  -13.4625   19.6917 C   0  0  1  0  0  0  0  0  0  0  0  0
    7.6085  -14.3178   20.4773 O   0  0  0  0  0  0  0  0  0  0  0  0
    9.3064  -14.1217   18.7563 C   0  0  2  0  0  0  0  0  0  0  0  0
    8.6212  -14.7741   17.6875 N   0  0  0  0  0  0  0  0  0  0  0  0
   10.3464  -14.9850   19.3357 C   0  0  0  0  0  0  0  0  0  0  0  0
   10.2564  -16.2221   19.1735 O   0  0  0  0  0  0  0  0  0  0  0  0
   11.4671  -14.5361   20.0772 N   0  0  0  0  0  0  0  0  0  0  0  0
   12.5083  -15.5112   20.5207 C   0  0  1  0  0  0  0  0  0  0  0  0
   13.8351  -14.8524   20.5530 C   0  0  0  0  0  0  0  0  0  0  0  0
   14.3843  -14.6764   19.1950 C   0  0  0  0  0  0  0  0  0  0  0  0
   13.9577  -15.1438   17.9799 C   0  0  0  0  0  0  0  0  0  0  0  0
   14.7606  -14.6389   16.9977 N   0  0  0  0  0  0  0  0  0  0  0  0
   15.6624  -13.8739   17.6002 C   0  0  0  0  0  0  0  0  0  0  0  0
   15.4660  -13.8731   18.9205 N   0  0  0  0  0  0  0  0  0  0  0  0
   12.0710  -15.9573   21.8813 C   0  0  0  0  0  0  0  0  0  0  0  0
   11.0091  -15.4891   22.5946 O   0  0  0  0  0  0  0  0  0  0  0  0
   12.7550  -16.8756   22.4439 O   0  0  0  0  0  0  0  0  0  0  0  0
  2  1  1  0
  3  2  1  0
  4  3  2  0
  6  5  1  6
  6  8  1  0
  7  6  1  0
  8  9  1  6
  8 10  1  0
  9  3  1  0
 10 12  1  0
 11 10  2  0
 12 13  1  0
 13 14  1  1
 13 20  1  0
 15 14  1  0
 16 15  2  0
 17 16  1  0
 18 17  1  0
 18 19  2  0
 19 15  1  0
 20 22  2  0
 20 21  1  0
M  END
$$$$
