GTH.pdb
     RDKit          3D

 22 22  0  0  1  0  0  0  0  0999 V2000
    8.0815  -23.0309   20.0167 N   0  0  0  0  0  0  0  0  0  0  0  0
    7.9500  -23.9380   21.1395 C   0  0  0  0  0  0  0  0  0  0  0  0
    7.5584  -23.1997   22.3806 C   0  0  0  0  0  0  0  0  0  0  0  0
    7.5759  -21.9661   22.3416 O   0  0  0  0  0  0  0  0  0  0  0  0
    4.3000  -23.3920   24.1600 C   0  0  0  0  0  0  0  0  0  0  0  0
    5.3758  -23.7923   25.1395 C   0  0  1  0  0  0  0  0  0  0  0  0
    5.2663  -25.1380   25.4707 O   0  0  0  0  0  0  0  0  0  0  0  0
    6.7332  -23.3339   24.7802 C   0  0  2  0  0  0  0  0  0  0  0  0
    7.1830  -23.9054   23.5521 N   0  0  0  0  0  0  0  0  0  0  0  0
    7.7696  -23.4095   25.8208 C   0  0  0  0  0  0  0  0  0  0  0  0
    8.7272  -24.1973   25.6559 O   0  0  0  0  0  0  0  0  0  0  0  0
    7.7856  -22.6553   27.0201 N   0  0  0  0  0  0  0  0  0  0  0  0
    8.8767  -22.8641   28.0189 C   0  0  1  0  0  0  0  0  0  0  0  0
    9.2672  -21.5663   28.6179 C   0  0  0  0  0  0  0  0  0  0  0  0
   10.2334  -21.7478   29.7180 C   0  0  0  0  0  0  0  0  0  0  0  0
   10.1989  -22.5498   30.8282 C   0  0  0  0  0  0  0  0  0  0  0  0
   11.3748  -22.4227   31.5104 N   0  0  0  0  0  0  0  0  0  0  0  0
   12.1177  -21.5592   30.8293 C   0  0  0  0  0  0  0  0  0  0  0  0
   11.4634  -21.1337   29.7464 N   0  0  0  0  0  0  0  0  0  0  0  0
    8.3011  -23.7999   29.0360 C   0  0  0  0  0  0  0  0  0  0  0  0
    8.9893  -24.6450   29.8533 O   0  0  0  0  0  0  0  0  0  0  0  0
    7.0319  -23.8163   29.1640 O   0  0  0  0  0  0  0  0  0  0  0  0
  2  1  1  0
  3  2  1  0
  4  3  2  0
  6  5  1  6
  6  8  1  0
  7  6  1  0
  8  9  1  6
  8 10  1  0
  9  3  1  0
 10 12  1  0
 11 10  2  0
 12 13  1  0
 13 14  1  1
 13 20  1  0
 15 14  1  0
 16 15  2  0
 17 16  1  0
 18 17  1  0
 18 19  2  0
 19 15  1  0
 20 22  2  0
 20 21  1  0
M  END
$$$$
