GTH.pdb
     RDKit          3D

 22 22  0  0  1  0  0  0  0  0999 V2000
    8.0563  -13.4040   16.3552 N   0  0  0  0  0  0  0  0  0  0  0  0
    8.6518  -13.3178   17.6739 C   0  0  0  0  0  0  0  0  0  0  0  0
    8.0948  -14.3683   18.5821 C   0  0  0  0  0  0  0  0  0  0  0  0
    7.1358  -15.0286   18.1721 O   0  0  0  0  0  0  0  0  0  0  0  0
    7.7578  -17.1374   18.7468 C   0  0  0  0  0  0  0  0  0  0  0  0
    8.6282  -16.9918   19.9709 C   0  0  1  0  0  0  0  0  0  0  0  0
    9.9442  -17.3366   19.6851 O   0  0  0  0  0  0  0  0  0  0  0  0
    8.4479  -15.7219   20.7035 C   0  0  2  0  0  0  0  0  0  0  0  0
    8.6586  -14.5862   19.8650 N   0  0  0  0  0  0  0  0  0  0  0  0
    9.1464  -15.5786   21.9897 C   0  0  0  0  0  0  0  0  0  0  0  0
   10.2383  -14.9687   22.0133 O   0  0  0  0  0  0  0  0  0  0  0  0
    8.6872  -16.0778   23.2335 N   0  0  0  0  0  0  0  0  0  0  0  0
    9.4293  -15.7526   24.4886 C   0  0  1  0  0  0  0  0  0  0  0  0
    8.4852  -15.6796   25.6282 C   0  0  0  0  0  0  0  0  0  0  0  0
    7.5900  -14.5123   25.5145 C   0  0  0  0  0  0  0  0  0  0  0  0
    7.8033  -13.2549   25.0141 C   0  0  0  0  0  0  0  0  0  0  0  0
    6.6341  -12.5510   25.0554 N   0  0  0  0  0  0  0  0  0  0  0  0
    5.7197  -13.3634   25.5705 C   0  0  0  0  0  0  0  0  0  0  0  0
    6.2590  -14.5503   25.8576 N   0  0  0  0  0  0  0  0  0  0  0  0
   10.4220  -16.8610   24.6535 C   0  0  0  0  0  0  0  0  0  0  0  0
   10.5553  -17.9648   23.8663 O   0  0  0  0  0  0  0  0  0  0  0  0
   11.2387  -16.7746   25.6297 O   0  0  0  0  0  0  0  0  0  0  0  0
  2  1  1  0
  3  2  1  0
  4  3  2  0
  6  5  1  6
  6  8  1  0
  7  6  1  0
  8  9  1  6
  8 10  1  0
  9  3  1  0
 10 12  1  0
 11 10  2  0
 12 13  1  0
 13 14  1  1
 13 20  1  0
 15 14  1  0
 16 15  2  0
 17 16  1  0
 18 17  1  0
 18 19  2  0
 19 15  1  0
 20 22  2  0
 20 21  1  0
M  END
$$$$
