GTH.pdb
     RDKit          3D

 22 22  0  0  1  0  0  0  0  0999 V2000
    8.1699  -12.9959   17.0572 N   0  0  0  0  0  0  0  0  0  0  0  0
    9.0749  -13.4128   18.1098 C   0  0  0  0  0  0  0  0  0  0  0  0
    8.4704  -14.5061   18.9332 C   0  0  0  0  0  0  0  0  0  0  0  0
    7.5487  -15.1565   18.4320 O   0  0  0  0  0  0  0  0  0  0  0  0
    8.5163  -17.3391   18.8621 C   0  0  0  0  0  0  0  0  0  0  0  0
    9.2425  -17.1633   20.1732 C   0  0  1  0  0  0  0  0  0  0  0  0
   10.6159  -17.2865   19.9975 O   0  0  0  0  0  0  0  0  0  0  0  0
    8.8045  -15.9956   20.9647 C   0  0  2  0  0  0  0  0  0  0  0  0
    8.9496  -14.7741   20.2408 N   0  0  0  0  0  0  0  0  0  0  0  0
    9.3243  -15.8745   22.3350 C   0  0  0  0  0  0  0  0  0  0  0  0
   10.3458  -15.1790   22.5285 O   0  0  0  0  0  0  0  0  0  0  0  0
    8.7628  -16.4857   23.4832 N   0  0  0  0  0  0  0  0  0  0  0  0
    9.2385  -16.0960   24.8447 C   0  0  1  0  0  0  0  0  0  0  0  0
    8.0786  -15.8634   25.7368 C   0  0  0  0  0  0  0  0  0  0  0  0
    7.4699  -14.5408   25.4981 C   0  0  0  0  0  0  0  0  0  0  0  0
    7.8131  -13.5294   24.6400 C   0  0  0  0  0  0  0  0  0  0  0  0
    6.8870  -12.5302   24.7308 N   0  0  0  0  0  0  0  0  0  0  0  0
    5.9910  -12.9230   25.6276 C   0  0  0  0  0  0  0  0  0  0  0  0
    6.3097  -14.1267   26.1089 N   0  0  0  0  0  0  0  0  0  0  0  0
   10.0800  -17.2445   25.3077 C   0  0  0  0  0  0  0  0  0  0  0  0
   10.9037  -17.2712   26.3924 O   0  0  0  0  0  0  0  0  0  0  0  0
   10.0280  -18.3207   24.6247 O   0  0  0  0  0  0  0  0  0  0  0  0
  2  1  1  0
  3  2  1  0
  4  3  2  0
  6  5  1  6
  6  8  1  0
  7  6  1  0
  8  9  1  6
  8 10  1  0
  9  3  1  0
 10 12  1  0
 11 10  2  0
 12 13  1  0
 13 14  1  1
 13 20  1  0
 15 14  1  0
 16 15  2  0
 17 16  1  0
 18 17  1  0
 18 19  2  0
 19 15  1  0
 20 22  2  0
 20 21  1  0
M  END
$$$$
