GTH.pdb
     RDKit          3D

 22 22  0  0  1  0  0  0  0  0999 V2000
    1.2124  -19.7286   20.5746 N   0  0  0  0  0  0  0  0  0  0  0  0
    1.8215  -18.8479   21.5514 C   0  0  0  0  0  0  0  0  0  0  0  0
    3.3066  -19.0280   21.5816 C   0  0  0  0  0  0  0  0  0  0  0  0
    3.7503  -20.1566   21.3509 O   0  0  0  0  0  0  0  0  0  0  0  0
    5.8450  -17.1096   19.5685 C   0  0  0  0  0  0  0  0  0  0  0  0
    6.1918  -16.9470   21.0281 C   0  0  1  0  0  0  0  0  0  0  0  0
    6.0334  -15.6255   21.4292 O   0  0  0  0  0  0  0  0  0  0  0  0
    5.5870  -17.9589   21.9182 C   0  0  2  0  0  0  0  0  0  0  0  0
    4.1609  -17.9326   21.8665 N   0  0  0  0  0  0  0  0  0  0  0  0
    6.0747  -18.0177   23.3043 C   0  0  0  0  0  0  0  0  0  0  0  0
    5.4517  -17.3853   24.1855 O   0  0  0  0  0  0  0  0  0  0  0  0
    7.2103  -18.7411   23.7452 N   0  0  0  0  0  0  0  0  0  0  0  0
    7.6701  -18.6187   25.1613 C   0  0  1  0  0  0  0  0  0  0  0  0
    7.2262  -19.7988   25.9395 C   0  0  0  0  0  0  0  0  0  0  0  0
    7.8875  -19.8571   27.2571 C   0  0  0  0  0  0  0  0  0  0  0  0
    8.2639  -18.8656   28.1243 C   0  0  0  0  0  0  0  0  0  0  0  0
    8.7699  -19.4305   29.2598 N   0  0  0  0  0  0  0  0  0  0  0  0
    8.7033  -20.7453   29.0920 C   0  0  0  0  0  0  0  0  0  0  0  0
    8.1779  -21.0373   27.9001 N   0  0  0  0  0  0  0  0  0  0  0  0
    9.1624  -18.5297   25.0809 C   0  0  0  0  0  0  0  0  0  0  0  0
   10.0176  -18.1868   26.0843 O   0  0  0  0  0  0  0  0  0  0  0  0
    9.7054  -18.8043   23.9596 O   0  0  0  0  0  0  0  0  0  0  0  0
  2  1  1  0
  3  2  1  0
  4  3  2  0
  6  5  1  6
  6  8  1  0
  7  6  1  0
  8  9  1  1
  8 10  1  0
  9  3  1  0
 10 12  1  0
 11 10  2  0
 12 13  1  0
 13 14  1  1
 13 20  1  0
 15 14  1  0
 16 15  2  0
 17 16  1  0
 18 17  1  0
 18 19  2  0
 19 15  1  0
 20 22  2  0
 20 21  1  0
M  END
$$$$
