DCY.pdb
     RDKit          3D

 27 27  0  0  1  0  0  0  0  0999 V2000
    7.2119  -19.3006   18.7931 N   0  0  0  0  0  0  0  0  0  0  0  0
    7.8885  -18.0320   18.8340 C   0  0  1  0  0  0  0  0  0  0  0  0
    7.7047  -17.2316   17.5872 C   0  0  0  0  0  0  0  0  0  0  0  0
    8.3165  -17.8597   16.3890 C   0  0  0  0  0  0  0  0  0  0  0  0
    8.9020  -18.9679   16.4134 O   0  0  0  0  0  0  0  0  0  0  0  0
    7.5470  -17.2452   20.0327 C   0  0  0  0  0  0  0  0  0  0  0  0
    7.5201  -15.9685   20.0152 O   0  0  0  0  0  0  0  0  0  0  0  0
    8.2638  -17.2195   15.1379 O   0  0  0  0  0  0  0  0  0  0  0  0
    7.2245  -17.8266   21.2939 N   0  0  0  0  0  0  0  0  0  0  0  0
    6.8945  -17.0471   22.4689 C   0  0  1  0  0  0  0  0  0  0  0  0
    5.7401  -17.6707   23.1666 C   0  0  0  0  0  0  0  0  0  0  0  0
    6.2969  -19.1802   23.9986 S   0  0  0  0  0  0  0  0  0  0  0  0
    8.0786  -16.8630   23.3485 C   0  0  0  0  0  0  0  0  0  0  0  0
    9.0315  -17.6687   23.2138 O   0  0  0  0  0  0  0  0  0  0  0  0
    4.9423  -11.9556   27.8865 O   0  0  0  0  0  0  0  0  0  0  0  0
    6.0782  -12.5019   27.2870 C   0  0  0  0  0  0  0  0  0  0  0  0
    6.1153  -12.7374   25.9297 C   0  0  0  0  0  0  0  0  0  0  0  0
    7.2538  -13.2853   25.3270 C   0  0  0  0  0  0  0  0  0  0  0  0
    8.3680  -13.6063   26.0582 C   0  0  0  0  0  0  0  0  0  0  0  0
    9.5754  -14.1811   25.4497 C   0  0  0  0  0  0  0  0  0  0  0  0
    9.4311  -15.6254   25.0309 C   0  0  2  0  0  0  0  0  0  0  0  0
    8.1878  -15.8489   24.3104 N   0  0  0  0  0  0  0  0  0  0  0  0
    9.5576  -16.5493   26.1875 C   0  0  0  0  0  0  0  0  0  0  0  0
   10.7224  -16.6564   26.9336 O   0  0  0  0  0  0  0  0  0  0  0  0
    8.3257  -13.3685   27.4165 C   0  0  0  0  0  0  0  0  0  0  0  0
    7.2013  -12.8265   28.0178 C   0  0  0  0  0  0  0  0  0  0  0  0
    8.5740  -17.2522   26.4929 O   0  0  0  0  0  0  0  0  0  0  0  0
  2  1  1  6
  3  2  1  0
  4  3  1  0
  5  4  2  0
  6  2  1  0
  7  6  2  0
  8  4  1  0
  9  6  1  0
 10  9  1  0
 10 11  1  1
 11 12  1  0
 13 22  1  0
 13 10  1  0
 14 13  2  0
 16 15  1  0
 17 16  2  0
 18 17  1  0
 19 25  1  0
 19 18  2  0
 20 19  1  0
 21 23  1  0
 21 20  1  1
 21 22  1  0
 23 24  1  0
 25 26  2  0
 26 16  1  0
 27 23  2  0
M  END
$$$$
