DCY.pdb
     RDKit          3D

 27 27  0  0  1  0  0  0  0  0999 V2000
   12.8523  -19.1051   18.9827 N   0  0  0  0  0  0  0  0  0  0  0  0
   13.3720  -17.8335   19.4095 C   0  0  1  0  0  0  0  0  0  0  0  0
   14.0003  -17.0573   18.2997 C   0  0  0  0  0  0  0  0  0  0  0  0
   15.4179  -17.4239   18.0539 C   0  0  0  0  0  0  0  0  0  0  0  0
   15.7890  -18.5831   17.7534 O   0  0  0  0  0  0  0  0  0  0  0  0
   12.3727  -17.0258   20.1316 C   0  0  0  0  0  0  0  0  0  0  0  0
   12.6403  -15.8556   20.5675 O   0  0  0  0  0  0  0  0  0  0  0  0
   16.4356  -16.4581   18.1503 O   0  0  0  0  0  0  0  0  0  0  0  0
   11.0457  -17.4697   20.4045 N   0  0  0  0  0  0  0  0  0  0  0  0
   10.1138  -16.7323   21.2320 C   0  0  1  0  0  0  0  0  0  0  0  0
    8.7255  -17.1469   20.9018 C   0  0  0  0  0  0  0  0  0  0  0  0
    7.5770  -16.3244   22.0354 S   0  0  0  0  0  0  0  0  0  0  0  0
   10.4384  -16.8755   22.6755 C   0  0  0  0  0  0  0  0  0  0  0  0
   10.7120  -18.0259   23.0966 O   0  0  0  0  0  0  0  0  0  0  0  0
   10.8829  -15.2916   31.4357 O   0  0  0  0  0  0  0  0  0  0  0  0
   10.8145  -15.1564   30.0483 C   0  0  0  0  0  0  0  0  0  0  0  0
   11.4636  -16.0462   29.2200 C   0  0  0  0  0  0  0  0  0  0  0  0
   11.3961  -15.9119   27.8283 C   0  0  0  0  0  0  0  0  0  0  0  0
   10.6866  -14.8974   27.2395 C   0  0  0  0  0  0  0  0  0  0  0  0
   10.5991  -14.7352   25.7819 C   0  0  0  0  0  0  0  0  0  0  0  0
   10.5882  -16.0355   25.0129 C   0  0  2  0  0  0  0  0  0  0  0  0
   10.4554  -15.8069   23.5829 N   0  0  0  0  0  0  0  0  0  0  0  0
    9.5379  -16.9607   25.5108 C   0  0  0  0  0  0  0  0  0  0  0  0
    8.1869  -16.7549   25.2712 O   0  0  0  0  0  0  0  0  0  0  0  0
   10.0387  -14.0094   28.0731 C   0  0  0  0  0  0  0  0  0  0  0  0
   10.1025  -14.1379   29.4510 C   0  0  0  0  0  0  0  0  0  0  0  0
    9.8929  -17.9587   26.1689 O   0  0  0  0  0  0  0  0  0  0  0  0
  2  1  1  6
  3  2  1  0
  4  3  1  0
  5  4  2  0
  6  2  1  0
  7  6  2  0
  8  4  1  0
  9  6  1  0
 10  9  1  0
 10 11  1  1
 11 12  1  0
 13 22  1  0
 13 10  1  0
 14 13  2  0
 16 15  1  0
 17 16  2  0
 18 17  1  0
 19 25  1  0
 19 18  2  0
 20 19  1  0
 21 23  1  0
 21 20  1  1
 21 22  1  0
 23 24  1  0
 25 26  2  0
 26 16  1  0
 27 23  2  0
M  END
$$$$
