DCY.pdb
     RDKit          3D

 27 27  0  0  1  0  0  0  0  0999 V2000
    8.0219  -18.3826   20.0055 N   0  0  0  0  0  0  0  0  0  0  0  0
    9.2450  -17.7916   19.5324 C   0  0  1  0  0  0  0  0  0  0  0  0
    9.4354  -17.9434   18.0595 C   0  0  0  0  0  0  0  0  0  0  0  0
    8.8342  -19.1861   17.5131 C   0  0  0  0  0  0  0  0  0  0  0  0
    8.2315  -20.0294   18.2183 O   0  0  0  0  0  0  0  0  0  0  0  0
    9.3955  -16.3866   19.9517 C   0  0  0  0  0  0  0  0  0  0  0  0
   10.4817  -15.7410   19.7661 O   0  0  0  0  0  0  0  0  0  0  0  0
    8.9173  -19.4796   16.1403 O   0  0  0  0  0  0  0  0  0  0  0  0
    8.3640  -15.6380   20.5907 N   0  0  0  0  0  0  0  0  0  0  0  0
    8.5453  -14.2854   21.0753 C   0  0  1  0  0  0  0  0  0  0  0  0
    7.2830  -13.5227   20.8935 C   0  0  0  0  0  0  0  0  0  0  0  0
    6.7765  -13.6223   19.1573 S   0  0  0  0  0  0  0  0  0  0  0  0
    9.0387  -14.2725   22.4774 C   0  0  0  0  0  0  0  0  0  0  0  0
    8.5102  -13.4555   23.2703 O   0  0  0  0  0  0  0  0  0  0  0  0
   10.9255  -15.2859   30.7731 O   0  0  0  0  0  0  0  0  0  0  0  0
   10.5412  -15.2344   29.4323 C   0  0  0  0  0  0  0  0  0  0  0  0
   10.4004  -14.0261   28.7848 C   0  0  0  0  0  0  0  0  0  0  0  0
   10.0150  -13.9729   27.4401 C   0  0  0  0  0  0  0  0  0  0  0  0
    9.7646  -15.1124   26.7204 C   0  0  0  0  0  0  0  0  0  0  0  0
    9.3600  -15.0837   25.3083 C   0  0  0  0  0  0  0  0  0  0  0  0
   10.5133  -15.0279   24.3339 C   0  0  2  0  0  0  0  0  0  0  0  0
   10.0517  -15.1145   22.9576 N   0  0  0  0  0  0  0  0  0  0  0  0
   11.5325  -16.0682   24.6272 C   0  0  0  0  0  0  0  0  0  0  0  0
   11.2075  -17.4072   24.7892 O   0  0  0  0  0  0  0  0  0  0  0  0
    9.9070  -16.3193   27.3733 C   0  0  0  0  0  0  0  0  0  0  0  0
   10.2882  -16.3774   28.7040 C   0  0  0  0  0  0  0  0  0  0  0  0
   12.7242  -15.7157   24.7303 O   0  0  0  0  0  0  0  0  0  0  0  0
  2  1  1  6
  3  2  1  0
  4  3  1  0
  5  4  2  0
  6  2  1  0
  7  6  2  0
  8  4  1  0
  9  6  1  0
 10  9  1  0
 10 11  1  1
 11 12  1  0
 13 22  1  0
 13 10  1  0
 14 13  2  0
 16 15  1  0
 17 16  2  0
 18 17  1  0
 19 25  1  0
 19 18  2  0
 20 19  1  0
 21 23  1  0
 21 20  1  1
 21 22  1  0
 23 24  1  0
 25 26  2  0
 26 16  1  0
 27 23  2  0
M  END
$$$$
