DCY.pdb
     RDKit          3D

 27 27  0  0  1  0  0  0  0  0999 V2000
   10.8032  -17.8989   18.0244 N   0  0  0  0  0  0  0  0  0  0  0  0
   10.2822  -18.3618   19.2826 C   0  0  1  0  0  0  0  0  0  0  0  0
   11.0670  -19.4938   19.8587 C   0  0  0  0  0  0  0  0  0  0  0  0
   10.8154  -20.7901   19.1799 C   0  0  0  0  0  0  0  0  0  0  0  0
   10.6151  -20.8963   17.9470 O   0  0  0  0  0  0  0  0  0  0  0  0
   10.1122  -17.2730   20.2614 C   0  0  0  0  0  0  0  0  0  0  0  0
   11.0836  -16.5185   20.6050 O   0  0  0  0  0  0  0  0  0  0  0  0
   10.7902  -21.9902   19.9126 O   0  0  0  0  0  0  0  0  0  0  0  0
    8.8741  -16.9717   20.9009 N   0  0  0  0  0  0  0  0  0  0  0  0
    8.6855  -15.8316   21.7737 C   0  0  1  0  0  0  0  0  0  0  0  0
    7.3178  -15.2833   21.5809 C   0  0  0  0  0  0  0  0  0  0  0  0
    7.0656  -13.9054   22.7292 S   0  0  0  0  0  0  0  0  0  0  0  0
    8.9825  -16.1762   23.1889 C   0  0  0  0  0  0  0  0  0  0  0  0
    8.4911  -17.2386   23.6420 O   0  0  0  0  0  0  0  0  0  0  0  0
    5.9017  -10.7966   26.7356 O   0  0  0  0  0  0  0  0  0  0  0  0
    6.5590  -12.0190   26.5885 C   0  0  0  0  0  0  0  0  0  0  0  0
    7.9342  -12.0913   26.6411 C   0  0  0  0  0  0  0  0  0  0  0  0
    8.5949  -13.3166   26.4938 C   0  0  0  0  0  0  0  0  0  0  0  0
    7.9045  -14.4838   26.2929 C   0  0  0  0  0  0  0  0  0  0  0  0
    8.5739  -15.7822   26.1364 C   0  0  0  0  0  0  0  0  0  0  0  0
    9.9163  -15.7086   25.4473 C   0  0  2  0  0  0  0  0  0  0  0  0
    9.7733  -15.3874   24.0362 N   0  0  0  0  0  0  0  0  0  0  0  0
   10.7029  -16.9542   25.6397 C   0  0  0  0  0  0  0  0  0  0  0  0
   11.2345  -17.6729   24.5787 O   0  0  0  0  0  0  0  0  0  0  0  0
    6.5281  -14.4059   26.2410 C   0  0  0  0  0  0  0  0  0  0  0  0
    5.8696  -13.1957   26.3862 C   0  0  0  0  0  0  0  0  0  0  0  0
   10.8878  -17.3628   26.8032 O   0  0  0  0  0  0  0  0  0  0  0  0
  2  1  1  6
  3  2  1  0
  4  3  1  0
  5  4  2  0
  6  2  1  0
  7  6  2  0
  8  4  1  0
  9  6  1  0
 10  9  1  0
 10 11  1  1
 11 12  1  0
 13 22  1  0
 13 10  1  0
 14 13  2  0
 16 15  1  0
 17 16  2  0
 18 17  1  0
 19 25  1  0
 19 18  2  0
 20 19  1  0
 21 23  1  0
 21 20  1  6
 21 22  1  0
 23 24  1  0
 25 26  2  0
 26 16  1  0
 27 23  2  0
M  END
$$$$
