DCY.pdb
     RDKit          3D

 27 27  0  0  1  0  0  0  0  0999 V2000
    8.5456  -16.4563   18.7883 N   0  0  0  0  0  0  0  0  0  0  0  0
    8.4126  -15.3555   19.7047 C   0  0  1  0  0  0  0  0  0  0  0  0
    7.5296  -14.2685   19.1874 C   0  0  0  0  0  0  0  0  0  0  0  0
    8.1358  -13.4981   18.0723 C   0  0  0  0  0  0  0  0  0  0  0  0
    9.2900  -13.7125   17.6325 O   0  0  0  0  0  0  0  0  0  0  0  0
    8.0010  -15.7863   21.0528 C   0  0  0  0  0  0  0  0  0  0  0  0
    6.8023  -15.6424   21.4691 O   0  0  0  0  0  0  0  0  0  0  0  0
    7.4201  -12.4641   17.4427 O   0  0  0  0  0  0  0  0  0  0  0  0
    8.8863  -16.3879   21.9946 N   0  0  0  0  0  0  0  0  0  0  0  0
    8.4391  -17.0052   23.2259 C   0  0  1  0  0  0  0  0  0  0  0  0
    8.5276  -18.4830   23.0977 C   0  0  0  0  0  0  0  0  0  0  0  0
   10.2498  -18.9474   22.7826 S   0  0  0  0  0  0  0  0  0  0  0  0
    9.1814  -16.4753   24.3997 C   0  0  0  0  0  0  0  0  0  0  0  0
   10.3228  -15.9948   24.1949 O   0  0  0  0  0  0  0  0  0  0  0  0
    5.8721  -10.8527   25.5900 O   0  0  0  0  0  0  0  0  0  0  0  0
    6.5614  -11.9344   26.1401 C   0  0  0  0  0  0  0  0  0  0  0  0
    5.9384  -13.1506   26.3188 C   0  0  0  0  0  0  0  0  0  0  0  0
    6.6285  -14.2365   26.8704 C   0  0  0  0  0  0  0  0  0  0  0  0
    7.9412  -14.1330   27.2515 C   0  0  0  0  0  0  0  0  0  0  0  0
    8.6879  -15.2575   27.8316 C   0  0  0  0  0  0  0  0  0  0  0  0
    9.4989  -16.0458   26.8300 C   0  0  2  0  0  0  0  0  0  0  0  0
    8.6814  -16.4828   25.7095 N   0  0  0  0  0  0  0  0  0  0  0  0
   10.1974  -17.1918   27.4671 C   0  0  0  0  0  0  0  0  0  0  0  0
   11.1692  -17.0247   28.4431 O   0  0  0  0  0  0  0  0  0  0  0  0
    8.5601  -12.9134   27.0705 C   0  0  0  0  0  0  0  0  0  0  0  0
    7.8816  -11.8357   26.5250 C   0  0  0  0  0  0  0  0  0  0  0  0
    9.8924  -18.3453   27.1049 O   0  0  0  0  0  0  0  0  0  0  0  0
  2  1  1  6
  3  2  1  0
  4  3  1  0
  5  4  2  0
  6  2  1  0
  7  6  2  0
  8  4  1  0
  9  6  1  0
 10  9  1  0
 10 11  1  6
 11 12  1  0
 13 22  1  0
 13 10  1  0
 14 13  2  0
 16 15  1  0
 17 16  2  0
 18 17  1  0
 19 25  1  0
 19 18  2  0
 20 19  1  0
 21 23  1  0
 21 20  1  1
 21 22  1  0
 23 24  1  0
 25 26  2  0
 26 16  1  0
 27 23  2  0
M  END
$$$$
