DCY.pdb
     RDKit          3D

 27 27  0  0  1  0  0  0  0  0999 V2000
    8.0433  -16.6117   21.8254 N   0  0  0  0  0  0  0  0  0  0  0  0
    9.2803  -16.2063   22.4373 C   0  0  1  0  0  0  0  0  0  0  0  0
   10.2960  -15.7396   21.4476 C   0  0  0  0  0  0  0  0  0  0  0  0
   10.7070  -16.7925   20.4848 C   0  0  0  0  0  0  0  0  0  0  0  0
   10.5907  -18.0197   20.7127 O   0  0  0  0  0  0  0  0  0  0  0  0
    9.0841  -15.2176   23.5126 C   0  0  0  0  0  0  0  0  0  0  0  0
    9.9161  -14.2704   23.7168 O   0  0  0  0  0  0  0  0  0  0  0  0
   11.2609  -16.4482   19.2389 O   0  0  0  0  0  0  0  0  0  0  0  0
    7.9718  -15.2305   24.4045 N   0  0  0  0  0  0  0  0  0  0  0  0
    7.7479  -14.2155   25.4128 C   0  0  1  0  0  0  0  0  0  0  0  0
    6.4743  -13.5061   25.1247 C   0  0  0  0  0  0  0  0  0  0  0  0
    6.1501  -12.3119   26.4474 S   0  0  0  0  0  0  0  0  0  0  0  0
    7.7994  -14.7903   26.7827 C   0  0  0  0  0  0  0  0  0  0  0  0
    8.0556  -14.0080   27.7302 O   0  0  0  0  0  0  0  0  0  0  0  0
    5.2112  -21.6101   24.7441 O   0  0  0  0  0  0  0  0  0  0  0  0
    6.1778  -20.7183   25.2115 C   0  0  0  0  0  0  0  0  0  0  0  0
    6.5557  -19.6287   24.4572 C   0  0  0  0  0  0  0  0  0  0  0  0
    7.5250  -18.7333   24.9245 C   0  0  0  0  0  0  0  0  0  0  0  0
    8.1315  -18.9044   26.1419 C   0  0  0  0  0  0  0  0  0  0  0  0
    9.1504  -17.9789   26.6555 C   0  0  0  0  0  0  0  0  0  0  0  0
    8.6266  -16.9705   27.6511 C   0  0  2  0  0  0  0  0  0  0  0  0
    7.5795  -16.1446   27.0711 N   0  0  0  0  0  0  0  0  0  0  0  0
    9.7187  -16.1376   28.2174 C   0  0  0  0  0  0  0  0  0  0  0  0
    9.8414  -14.7825   27.9462 O   0  0  0  0  0  0  0  0  0  0  0  0
    7.7496  -19.9968   26.8931 C   0  0  0  0  0  0  0  0  0  0  0  0
    6.7908  -20.8857   26.4350 C   0  0  0  0  0  0  0  0  0  0  0  0
   10.5533  -16.6855   28.9644 O   0  0  0  0  0  0  0  0  0  0  0  0
  2  1  1  6
  3  2  1  0
  4  3  1  0
  5  4  2  0
  6  2  1  0
  7  6  2  0
  8  4  1  0
  9  6  1  0
 10  9  1  0
 10 11  1  6
 11 12  1  0
 13 22  1  0
 13 10  1  0
 14 13  2  0
 16 15  1  0
 17 16  2  0
 18 17  1  0
 19 25  1  0
 19 18  2  0
 20 19  1  0
 21 23  1  0
 21 20  1  6
 21 22  1  0
 23 24  1  0
 25 26  2  0
 26 16  1  0
 27 23  2  0
M  END
$$$$
