DCY.pdb
     RDKit          3D

 27 27  0  0  1  0  0  0  0  0999 V2000
   12.4197  -16.9232   18.5593 N   0  0  0  0  0  0  0  0  0  0  0  0
   11.2352  -17.4242   19.2035 C   0  0  1  0  0  0  0  0  0  0  0  0
   11.4141  -18.7930   19.7720 C   0  0  0  0  0  0  0  0  0  0  0  0
   11.8615  -19.7929   18.7698 C   0  0  0  0  0  0  0  0  0  0  0  0
   12.8319  -20.5656   18.9513 O   0  0  0  0  0  0  0  0  0  0  0  0
   10.6985  -16.4904   20.2096 C   0  0  0  0  0  0  0  0  0  0  0  0
   11.3922  -16.1082   21.2115 O   0  0  0  0  0  0  0  0  0  0  0  0
   11.1962  -19.9201   17.5374 O   0  0  0  0  0  0  0  0  0  0  0  0
    9.3832  -15.9427   20.1571 N   0  0  0  0  0  0  0  0  0  0  0  0
    8.7112  -15.3735   21.3068 C   0  0  1  0  0  0  0  0  0  0  0  0
    7.3449  -14.9399   20.9152 C   0  0  0  0  0  0  0  0  0  0  0  0
    6.3667  -14.6445   22.4107 S   0  0  0  0  0  0  0  0  0  0  0  0
    8.7183  -16.3121   22.4595 C   0  0  0  0  0  0  0  0  0  0  0  0
    9.6506  -17.1504   22.5186 O   0  0  0  0  0  0  0  0  0  0  0  0
   10.6943  -14.8240   30.6288 O   0  0  0  0  0  0  0  0  0  0  0  0
   10.2740  -14.8926   29.2996 C   0  0  0  0  0  0  0  0  0  0  0  0
   10.4967  -16.0253   28.5470 C   0  0  0  0  0  0  0  0  0  0  0  0
   10.0758  -16.0957   27.2138 C   0  0  0  0  0  0  0  0  0  0  0  0
    9.4302  -15.0481   26.6095 C   0  0  0  0  0  0  0  0  0  0  0  0
    8.9775  -15.0973   25.2127 C   0  0  0  0  0  0  0  0  0  0  0  0
    8.1307  -16.3026   24.8774 C   0  0  2  0  0  0  0  0  0  0  0  0
    7.7504  -16.3119   23.4738 N   0  0  0  0  0  0  0  0  0  0  0  0
    6.9394  -16.4010   25.7595 C   0  0  0  0  0  0  0  0  0  0  0  0
    5.8632  -15.5309   25.6605 O   0  0  0  0  0  0  0  0  0  0  0  0
    9.2097  -13.9166   27.3673 C   0  0  0  0  0  0  0  0  0  0  0  0
    9.6244  -13.8420   28.6871 C   0  0  0  0  0  0  0  0  0  0  0  0
    6.9136  -17.3035   26.6196 O   0  0  0  0  0  0  0  0  0  0  0  0
  2  1  1  1
  3  2  1  0
  4  3  1  0
  5  4  2  0
  6  2  1  0
  7  6  2  0
  8  4  1  0
  9  6  1  0
 10  9  1  0
 10 11  1  6
 11 12  1  0
 13 22  1  0
 13 10  1  0
 14 13  2  0
 16 15  1  0
 17 16  2  0
 18 17  1  0
 19 25  1  0
 19 18  2  0
 20 19  1  0
 21 23  1  0
 21 20  1  1
 21 22  1  0
 23 24  1  0
 25 26  2  0
 26 16  1  0
 27 23  2  0
M  END
$$$$
