DCY.pdb
     RDKit          3D

 27 27  0  0  1  0  0  0  0  0999 V2000
    8.7077  -15.5553   20.6774 N   0  0  0  0  0  0  0  0  0  0  0  0
    7.9529  -15.9798   21.8258 C   0  0  1  0  0  0  0  0  0  0  0  0
    8.1366  -17.4271   22.1430 C   0  0  0  0  0  0  0  0  0  0  0  0
    7.7705  -18.3269   21.0201 C   0  0  0  0  0  0  0  0  0  0  0  0
    8.5707  -19.1366   20.4952 O   0  0  0  0  0  0  0  0  0  0  0  0
    8.1971  -15.1354   23.0089 C   0  0  0  0  0  0  0  0  0  0  0  0
    9.3727  -14.9470   23.4709 O   0  0  0  0  0  0  0  0  0  0  0  0
    6.4716  -18.3091   20.4811 O   0  0  0  0  0  0  0  0  0  0  0  0
    7.1640  -14.4684   23.7303 N   0  0  0  0  0  0  0  0  0  0  0  0
    7.4047  -13.6846   24.9240 C   0  0  1  0  0  0  0  0  0  0  0  0
    6.2542  -12.7733   25.1564 C   0  0  0  0  0  0  0  0  0  0  0  0
    6.5346  -11.8450   26.6863 S   0  0  0  0  0  0  0  0  0  0  0  0
    7.7071  -14.5531   26.0920 C   0  0  0  0  0  0  0  0  0  0  0  0
    6.9663  -15.5485   26.2812 O   0  0  0  0  0  0  0  0  0  0  0  0
    7.5039  -21.5689   28.4730 O   0  0  0  0  0  0  0  0  0  0  0  0
    8.0559  -20.3413   28.1040 C   0  0  0  0  0  0  0  0  0  0  0  0
    8.9790  -19.7119   28.9107 C   0  0  0  0  0  0  0  0  0  0  0  0
    9.5336  -18.4806   28.5420 C   0  0  0  0  0  0  0  0  0  0  0  0
    9.1825  -17.8577   27.3724 C   0  0  0  0  0  0  0  0  0  0  0  0
    9.7505  -16.5663   26.9621 C   0  0  0  0  0  0  0  0  0  0  0  0
    9.3023  -15.3959   27.8056 C   0  0  2  0  0  0  0  0  0  0  0  0
    8.7638  -14.3233   26.9843 N   0  0  0  0  0  0  0  0  0  0  0  0
   10.3916  -14.9042   28.6881 C   0  0  0  0  0  0  0  0  0  0  0  0
   11.6577  -14.5973   28.2111 O   0  0  0  0  0  0  0  0  0  0  0  0
    8.2580  -18.4920   26.5684 C   0  0  0  0  0  0  0  0  0  0  0  0
    7.7063  -19.7106   26.9289 C   0  0  0  0  0  0  0  0  0  0  0  0
   10.1502  -14.7648   29.9035 O   0  0  0  0  0  0  0  0  0  0  0  0
  2  1  1  6
  3  2  1  0
  4  3  1  0
  5  4  2  0
  6  2  1  0
  7  6  2  0
  8  4  1  0
  9  6  1  0
 10  9  1  0
 10 11  1  1
 11 12  1  0
 13 22  1  0
 13 10  1  0
 14 13  2  0
 16 15  1  0
 17 16  2  0
 18 17  1  0
 19 25  1  0
 19 18  2  0
 20 19  1  0
 21 23  1  0
 21 20  1  6
 21 22  1  0
 23 24  1  0
 25 26  2  0
 26 16  1  0
 27 23  2  0
M  END
$$$$
