DCY.pdb
     RDKit          3D

 27 27  0  0  1  0  0  0  0  0999 V2000
    8.4406  -15.8545   19.7814 N   0  0  0  0  0  0  0  0  0  0  0  0
    7.5915  -16.0244   20.9300 C   0  0  1  0  0  0  0  0  0  0  0  0
    7.4248  -17.4540   21.3266 C   0  0  0  0  0  0  0  0  0  0  0  0
    7.4414  -18.3904   20.1745 C   0  0  0  0  0  0  0  0  0  0  0  0
    7.3667  -18.0168   18.9802 O   0  0  0  0  0  0  0  0  0  0  0  0
    8.0117  -15.1950   22.0737 C   0  0  0  0  0  0  0  0  0  0  0  0
    9.2429  -14.9626   22.3208 O   0  0  0  0  0  0  0  0  0  0  0  0
    7.5448  -19.7779   20.3795 O   0  0  0  0  0  0  0  0  0  0  0  0
    7.1003  -14.5918   22.9892 N   0  0  0  0  0  0  0  0  0  0  0  0
    7.5186  -13.7507   24.0913 C   0  0  1  0  0  0  0  0  0  0  0  0
    6.3976  -12.8576   24.4838 C   0  0  0  0  0  0  0  0  0  0  0  0
    6.8841  -11.9049   25.9454 S   0  0  0  0  0  0  0  0  0  0  0  0
    8.0446  -14.5594   25.2223 C   0  0  0  0  0  0  0  0  0  0  0  0
    7.3609  -15.5423   25.5991 O   0  0  0  0  0  0  0  0  0  0  0  0
   12.2774  -19.6435   30.7542 O   0  0  0  0  0  0  0  0  0  0  0  0
   11.9622  -18.6802   29.7947 C   0  0  0  0  0  0  0  0  0  0  0  0
   11.2901  -19.0258   28.6424 C   0  0  0  0  0  0  0  0  0  0  0  0
   10.9732  -18.0607   27.6791 C   0  0  0  0  0  0  0  0  0  0  0  0
   11.3166  -16.7438   27.8437 C   0  0  0  0  0  0  0  0  0  0  0  0
   10.9948  -15.7118   26.8487 C   0  0  0  0  0  0  0  0  0  0  0  0
    9.6541  -15.0472   27.0561 C   0  0  2  0  0  0  0  0  0  0  0  0
    9.2501  -14.2869   25.8842 N   0  0  0  0  0  0  0  0  0  0  0  0
    9.6418  -14.2019   28.2778 C   0  0  0  0  0  0  0  0  0  0  0  0
    9.3673  -14.7144   29.5375 O   0  0  0  0  0  0  0  0  0  0  0  0
   11.9893  -16.4031   28.9990 C   0  0  0  0  0  0  0  0  0  0  0  0
   12.3052  -17.3545   29.9552 C   0  0  0  0  0  0  0  0  0  0  0  0
    9.8889  -12.9856   28.1575 O   0  0  0  0  0  0  0  0  0  0  0  0
  2  1  1  6
  3  2  1  0
  4  3  1  0
  5  4  2  0
  6  2  1  0
  7  6  2  0
  8  4  1  0
  9  6  1  0
 10  9  1  0
 10 11  1  1
 11 12  1  0
 13 22  1  0
 13 10  1  0
 14 13  2  0
 16 15  1  0
 17 16  2  0
 18 17  1  0
 19 25  1  0
 19 18  2  0
 20 19  1  0
 21 23  1  0
 21 20  1  6
 21 22  1  0
 23 24  1  0
 25 26  2  0
 26 16  1  0
 27 23  2  0
M  END
$$$$
