DCY.pdb
     RDKit          3D

 27 27  0  0  1  0  0  0  0  0999 V2000
    8.6512  -18.7100   18.6932 N   0  0  0  0  0  0  0  0  0  0  0  0
    9.8352  -17.9883   19.0756 C   0  0  1  0  0  0  0  0  0  0  0  0
   10.2688  -16.9928   18.0510 C   0  0  0  0  0  0  0  0  0  0  0  0
   10.2534  -17.5284   16.6663 C   0  0  0  0  0  0  0  0  0  0  0  0
    9.5384  -17.0560   15.7513 O   0  0  0  0  0  0  0  0  0  0  0  0
    9.7174  -17.3707   20.4087 C   0  0  0  0  0  0  0  0  0  0  0  0
   10.5891  -16.5477   20.8491 O   0  0  0  0  0  0  0  0  0  0  0  0
   11.0642  -18.6211   16.3110 O   0  0  0  0  0  0  0  0  0  0  0  0
    8.6430  -17.6325   21.3086 N   0  0  0  0  0  0  0  0  0  0  0  0
    8.5529  -17.0508   22.6317 C   0  0  1  0  0  0  0  0  0  0  0  0
    7.2216  -17.3577   23.2161 C   0  0  0  0  0  0  0  0  0  0  0  0
    7.1241  -16.6386   24.8757 S   0  0  0  0  0  0  0  0  0  0  0  0
    9.6834  -17.4850   23.4938 C   0  0  0  0  0  0  0  0  0  0  0  0
   10.0192  -18.6934   23.4441 O   0  0  0  0  0  0  0  0  0  0  0  0
    9.2927  -13.5714   30.1067 O   0  0  0  0  0  0  0  0  0  0  0  0
   10.0089  -14.1644   29.0659 C   0  0  0  0  0  0  0  0  0  0  0  0
   10.8484  -15.2308   29.3053 C   0  0  0  0  0  0  0  0  0  0  0  0
   11.5674  -15.8266   28.2624 C   0  0  0  0  0  0  0  0  0  0  0  0
   11.4651  -15.3757   26.9719 C   0  0  0  0  0  0  0  0  0  0  0  0
   12.2079  -15.9841   25.8598 C   0  0  0  0  0  0  0  0  0  0  0  0
   11.4806  -17.1175   25.1750 C   0  0  2  0  0  0  0  0  0  0  0  0
   10.3876  -16.6272   24.3505 N   0  0  0  0  0  0  0  0  0  0  0  0
   11.0074  -18.1356   26.1480 C   0  0  0  0  0  0  0  0  0  0  0  0
   11.8776  -18.9393   26.8702 O   0  0  0  0  0  0  0  0  0  0  0  0
   10.6234  -14.3080   26.7377 C   0  0  0  0  0  0  0  0  0  0  0  0
    9.9097  -13.7149   27.7663 C   0  0  0  0  0  0  0  0  0  0  0  0
    9.7788  -18.2664   26.3161 O   0  0  0  0  0  0  0  0  0  0  0  0
  2  1  1  6
  3  2  1  0
  4  3  1  0
  5  4  2  0
  6  2  1  0
  7  6  2  0
  8  4  1  0
  9  6  1  0
 10  9  1  0
 10 11  1  1
 11 12  1  0
 13 22  1  0
 13 10  1  0
 14 13  2  0
 16 15  1  0
 17 16  2  0
 18 17  1  0
 19 25  1  0
 19 18  2  0
 20 19  1  0
 21 23  1  0
 21 20  1  1
 21 22  1  0
 23 24  1  0
 25 26  2  0
 26 16  1  0
 27 23  2  0
M  END
$$$$
