DCY.pdb
     RDKit          3D

 27 27  0  0  1  0  0  0  0  0999 V2000
   12.1904  -17.4042   19.1042 N   0  0  0  0  0  0  0  0  0  0  0  0
   12.1752  -16.4497   20.1801 C   0  0  1  0  0  0  0  0  0  0  0  0
   12.5940  -15.0818   19.7531 C   0  0  0  0  0  0  0  0  0  0  0  0
   14.0655  -14.9288   19.6282 C   0  0  0  0  0  0  0  0  0  0  0  0
   14.8890  -15.6701   20.2148 O   0  0  0  0  0  0  0  0  0  0  0  0
   10.8854  -16.4187   20.8927 C   0  0  0  0  0  0  0  0  0  0  0  0
    9.7988  -16.0947   20.3050 O   0  0  0  0  0  0  0  0  0  0  0  0
   14.6154  -13.9158   18.8224 O   0  0  0  0  0  0  0  0  0  0  0  0
   10.7381  -16.7391   22.2742 N   0  0  0  0  0  0  0  0  0  0  0  0
    9.4535  -16.8477   22.9338 C   0  0  1  0  0  0  0  0  0  0  0  0
    8.7517  -18.0650   22.4501 C   0  0  0  0  0  0  0  0  0  0  0  0
    9.7045  -19.5280   22.9322 S   0  0  0  0  0  0  0  0  0  0  0  0
    9.5971  -16.8052   24.4127 C   0  0  0  0  0  0  0  0  0  0  0  0
   10.7382  -17.0179   24.8904 O   0  0  0  0  0  0  0  0  0  0  0  0
    6.4363  -10.5757   25.3260 O   0  0  0  0  0  0  0  0  0  0  0  0
    6.7212  -11.8427   25.8374 C   0  0  0  0  0  0  0  0  0  0  0  0
    5.7951  -12.8601   25.7579 C   0  0  0  0  0  0  0  0  0  0  0  0
    6.0794  -14.1314   26.2704 C   0  0  0  0  0  0  0  0  0  0  0  0
    7.2815  -14.4116   26.8668 C   0  0  0  0  0  0  0  0  0  0  0  0
    7.6048  -15.7373   27.4113 C   0  0  0  0  0  0  0  0  0  0  0  0
    8.7630  -16.4235   26.7257 C   0  0  2  0  0  0  0  0  0  0  0  0
    8.5386  -16.5431   25.2938 N   0  0  0  0  0  0  0  0  0  0  0  0
    9.0602  -17.7446   27.3370 C   0  0  0  0  0  0  0  0  0  0  0  0
    9.8811  -17.8861   28.4465 O   0  0  0  0  0  0  0  0  0  0  0  0
    8.2051  -13.3896   26.9438 C   0  0  0  0  0  0  0  0  0  0  0  0
    7.9285  -12.1298   26.4382 C   0  0  0  0  0  0  0  0  0  0  0  0
    8.5480  -18.7606   26.8269 O   0  0  0  0  0  0  0  0  0  0  0  0
  2  1  1  6
  3  2  1  0
  4  3  1  0
  5  4  2  0
  6  2  1  0
  7  6  2  0
  8  4  1  0
  9  6  1  0
 10  9  1  0
 10 11  1  1
 11 12  1  0
 13 22  1  0
 13 10  1  0
 14 13  2  0
 16 15  1  0
 17 16  2  0
 18 17  1  0
 19 25  1  0
 19 18  2  0
 20 19  1  0
 21 23  1  0
 21 20  1  1
 21 22  1  0
 23 24  1  0
 25 26  2  0
 26 16  1  0
 27 23  2  0
M  END
$$$$
