DCY.pdb
     RDKit          3D

 27 27  0  0  1  0  0  0  0  0999 V2000
    8.2841  -18.9120   17.2295 N   0  0  0  0  0  0  0  0  0  0  0  0
    9.1418  -18.8089   18.3795 C   0  0  1  0  0  0  0  0  0  0  0  0
   10.3596  -17.9827   18.1276 C   0  0  0  0  0  0  0  0  0  0  0  0
   11.2968  -18.5973   17.1538 C   0  0  0  0  0  0  0  0  0  0  0  0
   11.4805  -19.8337   17.0584 O   0  0  0  0  0  0  0  0  0  0  0  0
    8.4238  -18.3542   19.5838 C   0  0  0  0  0  0  0  0  0  0  0  0
    7.7898  -17.2459   19.6116 O   0  0  0  0  0  0  0  0  0  0  0  0
   12.0408  -17.7951   16.2702 O   0  0  0  0  0  0  0  0  0  0  0  0
    8.3752  -19.0944   20.8013 N   0  0  0  0  0  0  0  0  0  0  0  0
    7.6789  -18.6351   21.9851 C   0  0  1  0  0  0  0  0  0  0  0  0
    7.2860  -19.8057   22.8118 C   0  0  0  0  0  0  0  0  0  0  0  0
    6.4026  -19.2221   24.2815 S   0  0  0  0  0  0  0  0  0  0  0  0
    8.4834  -17.6346   22.7343 C   0  0  0  0  0  0  0  0  0  0  0  0
    9.7148  -17.8494   22.8488 O   0  0  0  0  0  0  0  0  0  0  0  0
    7.2237  -12.9172   18.2157 O   0  0  0  0  0  0  0  0  0  0  0  0
    7.4826  -13.2020   19.5573 C   0  0  0  0  0  0  0  0  0  0  0  0
    6.4761  -13.6338   20.3937 C   0  0  0  0  0  0  0  0  0  0  0  0
    6.7342  -13.9198   21.7395 C   0  0  0  0  0  0  0  0  0  0  0  0
    7.9892  -13.7826   22.2737 C   0  0  0  0  0  0  0  0  0  0  0  0
    8.2863  -14.0772   23.6821 C   0  0  0  0  0  0  0  0  0  0  0  0
    8.8054  -15.4746   23.9270 C   0  0  2  0  0  0  0  0  0  0  0  0
    7.9473  -16.4760   23.3140 N   0  0  0  0  0  0  0  0  0  0  0  0
    8.9990  -15.7440   25.3751 C   0  0  0  0  0  0  0  0  0  0  0  0
    8.3182  -16.7504   26.0449 O   0  0  0  0  0  0  0  0  0  0  0  0
    8.9932  -13.3500   21.4322 C   0  0  0  0  0  0  0  0  0  0  0  0
    8.7429  -13.0656   20.0996 C   0  0  0  0  0  0  0  0  0  0  0  0
    9.8066  -15.0334   26.0057 O   0  0  0  0  0  0  0  0  0  0  0  0
  2  1  1  6
  3  2  1  0
  4  3  1  0
  5  4  2  0
  6  2  1  0
  7  6  2  0
  8  4  1  0
  9  6  1  0
 10  9  1  0
 10 11  1  1
 11 12  1  0
 13 22  1  0
 13 10  1  0
 14 13  2  0
 16 15  1  0
 17 16  2  0
 18 17  1  0
 19 25  1  0
 19 18  2  0
 20 19  1  0
 21 23  1  0
 21 20  1  1
 21 22  1  0
 23 24  1  0
 25 26  2  0
 26 16  1  0
 27 23  2  0
M  END
$$$$
