SRN.pdb
     RDKit          3D

 26 25  0  0  1  0  0  0  0  0999 V2000
    8.6987  -20.9151   18.6544 O   0  0  0  0  0  0  0  0  0  0  0  0
    7.3756  -21.1663   18.3713 C   0  0  0  0  0  0  0  0  0  0  0  0
    6.5070  -19.9451   18.3696 C   0  0  2  0  0  0  0  0  0  0  0  0
    7.0426  -18.9967   17.4221 N   0  0  0  0  0  0  0  0  0  0  0  0
    6.3426  -19.3278   19.6875 C   0  0  0  0  0  0  0  0  0  0  0  0
    7.0900  -18.3703   20.0130 O   0  0  0  0  0  0  0  0  0  0  0  0
   -1.2539  -20.0031   22.8735 N   0  0  0  0  0  0  0  0  0  0  0  0
   -0.9745  -19.4490   21.5966 C   0  0  0  0  0  0  0  0  0  0  0  0
   -1.9214  -19.1404   20.7615 N   0  0  0  0  0  0  0  0  0  0  0  0
    0.3884  -19.2268   21.2244 N   0  0  0  0  0  0  0  0  0  0  0  0
    1.4657  -19.5302   22.1277 C   0  0  0  0  0  0  0  0  0  0  0  0
    2.7886  -19.0472   21.5916 C   0  0  0  0  0  0  0  0  0  0  0  0
    3.8874  -19.3732   22.5737 C   0  0  0  0  0  0  0  0  0  0  0  0
    5.2591  -19.1120   21.9484 C   0  0  2  0  0  0  0  0  0  0  0  0
    5.3811  -19.7355   20.6519 N   0  0  0  0  0  0  0  0  0  0  0  0
    6.2638  -19.6173   22.9109 C   0  0  0  0  0  0  0  0  0  0  0  0
    6.4146  -20.8642   23.0326 O   0  0  0  0  0  0  0  0  0  0  0  0
   -1.6856  -18.6763   19.8576 N   0  0  0  0  0  0  0  0  0  0  0  0
    9.7439  -20.3222   22.6359 C   0  0  0  0  0  0  0  0  0  0  0  0
    9.9993  -19.1002   23.3226 O   0  0  0  0  0  0  0  0  0  0  0  0
   10.8030  -18.3196   22.7746 C   0  0  0  0  0  0  0  0  0  0  0  0
    9.3725  -18.7456   24.6017 C   0  0  2  0  0  0  0  0  0  0  0  0
    8.0156  -19.3455   24.6934 N   0  0  0  0  0  0  0  0  0  0  0  0
    7.0822  -18.8086   23.7193 C   0  0  0  0  0  0  0  0  0  0  0  0
    7.4428  -18.9694   26.0247 O   0  0  0  0  0  0  0  0  0  0  0  0
    6.4718  -18.2351   26.2258 O   0  0  0  0  0  0  0  0  0  0  0  0
  2  1  1  0
  3  2  1  0
  3  4  1  6
  5  3  1  0
  5  6  2  0
  7  8  1  0
  8 10  1  0
  8  9  2  0
 10 11  1  0
 11 12  1  0
 12 13  1  0
 14 13  1  1
 14 15  1  0
 15  5  1  0
 16 14  1  0
 17 16  2  0
 18 19  1  0
 19 20  2  0
 19 21  1  0
 22 21  1  6
 22 23  1  0
 22 24  1  0
 23 16  1  0
 24 26  1  0
 25 24  2  0
M  END
$$$$
