SRN.pdb
     RDKit          3D

 26 25  0  0  1  0  0  0  0  0999 V2000
    9.4171  -14.7804   15.9964 O   0  0  0  0  0  0  0  0  0  0  0  0
    8.1892  -14.5932   16.5888 C   0  0  0  0  0  0  0  0  0  0  0  0
    8.2296  -13.7558   17.8309 C   0  0  2  0  0  0  0  0  0  0  0  0
    8.4272  -12.3763   17.4537 N   0  0  0  0  0  0  0  0  0  0  0  0
    9.2396  -14.1791   18.8034 C   0  0  0  0  0  0  0  0  0  0  0  0
   10.2274  -13.4330   19.0249 O   0  0  0  0  0  0  0  0  0  0  0  0
   10.2070  -18.3262   25.7995 N   0  0  0  0  0  0  0  0  0  0  0  0
   11.4024  -18.8931   25.2846 C   0  0  0  0  0  0  0  0  0  0  0  0
   12.3982  -19.2108   26.0569 N   0  0  0  0  0  0  0  0  0  0  0  0
   11.5081  -19.1184   23.8762 N   0  0  0  0  0  0  0  0  0  0  0  0
   10.4764  -18.6833   22.9733 C   0  0  0  0  0  0  0  0  0  0  0  0
   10.8637  -17.4117   22.2636 C   0  0  0  0  0  0  0  0  0  0  0  0
    9.7875  -17.0293   21.2769 C   0  0  0  0  0  0  0  0  0  0  0  0
   10.1813  -15.7589   20.5207 C   0  0  2  0  0  0  0  0  0  0  0  0
    9.1904  -15.3968   19.5351 N   0  0  0  0  0  0  0  0  0  0  0  0
   11.5056  -16.0232   19.9145 C   0  0  0  0  0  0  0  0  0  0  0  0
   11.5892  -16.8729   18.9852 O   0  0  0  0  0  0  0  0  0  0  0  0
   13.2824  -19.5756   25.6407 N   0  0  0  0  0  0  0  0  0  0  0  0
   13.9427  -14.8445   17.1053 C   0  0  0  0  0  0  0  0  0  0  0  0
   14.6930  -14.1207   18.0764 O   0  0  0  0  0  0  0  0  0  0  0  0
   15.2166  -13.0581   17.6860 C   0  0  0  0  0  0  0  0  0  0  0  0
   14.8624  -14.5675   19.4644 C   0  0  2  0  0  0  0  0  0  0  0  0
   13.9977  -15.7461   19.7345 N   0  0  0  0  0  0  0  0  0  0  0  0
   12.7048  -15.3948   20.2942 C   0  0  0  0  0  0  0  0  0  0  0  0
   14.6669  -16.5658   20.7938 O   0  0  0  0  0  0  0  0  0  0  0  0
   14.5046  -16.4650   22.0129 O   0  0  0  0  0  0  0  0  0  0  0  0
  2  1  1  0
  3  2  1  0
  3  4  1  6
  5  3  1  0
  5  6  2  0
  7  8  1  0
  8 10  1  0
  8  9  2  0
 10 11  1  0
 11 12  1  0
 12 13  1  0
 14 13  1  6
 14 15  1  0
 15  5  1  0
 16 14  1  0
 17 16  2  0
 18 19  1  0
 19 20  2  0
 19 21  1  0
 22 21  1  6
 22 23  1  0
 22 24  1  0
 23 16  1  0
 24 26  1  0
 25 24  2  0
M  END
$$$$
