SRN.pdb
     RDKit          3D

 26 25  0  0  1  0  0  0  0  0999 V2000
   13.2169  -17.7986   14.8835 O   0  0  0  0  0  0  0  0  0  0  0  0
   13.4712  -17.1405   16.0650 C   0  0  0  0  0  0  0  0  0  0  0  0
   13.1927  -15.6687   16.0185 C   0  0  2  0  0  0  0  0  0  0  0  0
   14.2524  -15.0193   15.2842 N   0  0  0  0  0  0  0  0  0  0  0  0
   13.0189  -15.0524   17.3357 C   0  0  0  0  0  0  0  0  0  0  0  0
   14.0221  -14.5776   17.9271 O   0  0  0  0  0  0  0  0  0  0  0  0
    7.5610  -12.9261   16.6144 N   0  0  0  0  0  0  0  0  0  0  0  0
    7.3873  -14.1829   17.2513 C   0  0  0  0  0  0  0  0  0  0  0  0
    7.1441  -15.2659   16.5753 N   0  0  0  0  0  0  0  0  0  0  0  0
    7.4836  -14.2530   18.6765 N   0  0  0  0  0  0  0  0  0  0  0  0
    8.0684  -13.1810   19.4367 C   0  0  0  0  0  0  0  0  0  0  0  0
    9.5618  -13.1190   19.2454 C   0  0  0  0  0  0  0  0  0  0  0  0
   10.2018  -14.3614   19.8153 C   0  0  0  0  0  0  0  0  0  0  0  0
   11.6625  -14.4629   19.3716 C   0  0  2  0  0  0  0  0  0  0  0  0
   11.7751  -14.9457   18.0156 N   0  0  0  0  0  0  0  0  0  0  0  0
   12.3366  -15.3540   20.3424 C   0  0  0  0  0  0  0  0  0  0  0  0
   12.1790  -16.6012   20.2328 O   0  0  0  0  0  0  0  0  0  0  0  0
    7.0514  -16.1784   17.0722 N   0  0  0  0  0  0  0  0  0  0  0  0
   15.7461  -17.6877   23.3886 C   0  0  0  0  0  0  0  0  0  0  0  0
   15.9552  -16.2803   23.4639 O   0  0  0  0  0  0  0  0  0  0  0  0
   16.7842  -15.8926   24.3112 C   0  0  0  0  0  0  0  0  0  0  0  0
   15.2547  -15.3124   22.6112 C   0  0  1  0  0  0  0  0  0  0  0  0
   13.9094  -15.8281   22.2455 N   0  0  0  0  0  0  0  0  0  0  0  0
   13.1554  -14.9199   21.4000 C   0  0  0  0  0  0  0  0  0  0  0  0
   13.1081  -15.9373   23.5055 O   0  0  0  0  0  0  0  0  0  0  0  0
   12.1427  -15.2383   23.8253 O   0  0  0  0  0  0  0  0  0  0  0  0
  2  1  1  0
  3  2  1  0
  3  4  1  1
  5  3  1  0
  5  6  2  0
  7  8  1  0
  8 10  1  0
  8  9  2  0
 10 11  1  0
 11 12  1  0
 12 13  1  0
 14 13  1  1
 14 15  1  0
 15  5  1  0
 16 14  1  0
 17 16  2  0
 18 19  1  0
 19 20  2  0
 19 21  1  0
 22 21  1  6
 22 23  1  0
 22 24  1  0
 23 16  1  0
 24 26  1  0
 25 24  2  0
M  END
$$$$
