SRN.pdb
     RDKit          3D

 26 25  0  0  1  0  0  0  0  0999 V2000
   13.5846  -17.3589   17.8763 O   0  0  0  0  0  0  0  0  0  0  0  0
   13.6323  -16.4967   16.8048 C   0  0  0  0  0  0  0  0  0  0  0  0
   14.0226  -15.0950   17.1635 C   0  0  2  0  0  0  0  0  0  0  0  0
   15.4617  -14.9889   17.1199 N   0  0  0  0  0  0  0  0  0  0  0  0
   13.5067  -14.6445   18.4580 C   0  0  0  0  0  0  0  0  0  0  0  0
   14.3071  -14.4850   19.4147 O   0  0  0  0  0  0  0  0  0  0  0  0
    6.6070  -15.5521   16.0002 N   0  0  0  0  0  0  0  0  0  0  0  0
    7.1601  -14.4659   16.7281 C   0  0  0  0  0  0  0  0  0  0  0  0
    7.6836  -13.4368   16.1312 N   0  0  0  0  0  0  0  0  0  0  0  0
    7.1380  -14.5109   18.1574 N   0  0  0  0  0  0  0  0  0  0  0  0
    8.0020  -13.6704   18.9420 C   0  0  0  0  0  0  0  0  0  0  0  0
    9.3814  -14.2634   19.0708 C   0  0  0  0  0  0  0  0  0  0  0  0
   10.2402  -13.3754   19.9379 C   0  0  0  0  0  0  0  0  0  0  0  0
   11.6673  -13.9215   20.0156 C   0  0  2  0  0  0  0  0  0  0  0  0
   12.1385  -14.3664   18.7254 N   0  0  0  0  0  0  0  0  0  0  0  0
   11.6459  -15.0150   21.0130 C   0  0  0  0  0  0  0  0  0  0  0  0
   11.2487  -14.7614   22.1836 O   0  0  0  0  0  0  0  0  0  0  0  0
    8.1868  -12.7134   16.6892 N   0  0  0  0  0  0  0  0  0  0  0  0
   13.8153  -19.0002   23.9964 C   0  0  0  0  0  0  0  0  0  0  0  0
   12.8732  -17.9321   24.0368 O   0  0  0  0  0  0  0  0  0  0  0  0
   12.0716  -17.9424   24.9924 C   0  0  0  0  0  0  0  0  0  0  0  0
   12.8182  -16.8643   23.0310 C   0  0  1  0  0  0  0  0  0  0  0  0
   12.1396  -17.3506   21.8012 N   0  0  0  0  0  0  0  0  0  0  0  0
   12.0395  -16.3415   20.7620 C   0  0  0  0  0  0  0  0  0  0  0  0
   10.7230  -17.6738   22.1629 O   0  0  0  0  0  0  0  0  0  0  0  0
   10.1916  -18.7869   22.1288 O   0  0  0  0  0  0  0  0  0  0  0  0
  2  1  1  0
  3  2  1  0
  3  4  1  1
  5  3  1  0
  5  6  2  0
  7  8  1  0
  8 10  1  0
  8  9  2  0
 10 11  1  0
 11 12  1  0
 12 13  1  0
 14 13  1  6
 14 15  1  0
 15  5  1  0
 16 14  1  0
 17 16  2  0
 18 19  1  0
 19 20  2  0
 19 21  1  0
 22 21  1  6
 22 23  1  0
 22 24  1  0
 23 16  1  0
 24 26  1  0
 25 24  2  0
M  END
$$$$
