SRN.pdb
     RDKit          3D

 26 25  0  0  1  0  0  0  0  0999 V2000
   12.0829  -19.9481   19.1218 O   0  0  0  0  0  0  0  0  0  0  0  0
   10.9837  -19.3954   18.5054 C   0  0  0  0  0  0  0  0  0  0  0  0
   11.0583  -17.9080   18.3387 C   0  0  2  0  0  0  0  0  0  0  0  0
   12.1733  -17.5934   17.4773 N   0  0  0  0  0  0  0  0  0  0  0  0
   11.1511  -17.1700   19.6003 C   0  0  0  0  0  0  0  0  0  0  0  0
   12.2097  -16.5465   19.8690 O   0  0  0  0  0  0  0  0  0  0  0  0
    7.9922  -14.3648   17.5834 N   0  0  0  0  0  0  0  0  0  0  0  0
    7.5306  -13.3561   18.4694 C   0  0  0  0  0  0  0  0  0  0  0  0
    6.9717  -12.2660   18.0352 N   0  0  0  0  0  0  0  0  0  0  0  0
    7.6878  -13.5503   19.8776 N   0  0  0  0  0  0  0  0  0  0  0  0
    8.3448  -14.7187   20.3991 C   0  0  0  0  0  0  0  0  0  0  0  0
    8.3641  -14.7153   21.9059 C   0  0  0  0  0  0  0  0  0  0  0  0
    8.8745  -16.0420   22.4132 C   0  0  0  0  0  0  0  0  0  0  0  0
   10.2406  -16.3593   21.8017 C   0  0  2  0  0  0  0  0  0  0  0  0
   10.1134  -17.1008   20.5694 N   0  0  0  0  0  0  0  0  0  0  0  0
   10.9993  -17.1058   22.8303 C   0  0  0  0  0  0  0  0  0  0  0  0
   10.7386  -18.3274   23.0096 O   0  0  0  0  0  0  0  0  0  0  0  0
    6.6878  -11.5235   18.7105 N   0  0  0  0  0  0  0  0  0  0  0  0
   15.2241  -15.2524   23.1839 C   0  0  0  0  0  0  0  0  0  0  0  0
   14.9243  -16.5268   23.7460 O   0  0  0  0  0  0  0  0  0  0  0  0
   15.4177  -17.5136   23.1642 C   0  0  0  0  0  0  0  0  0  0  0  0
   14.0878  -16.7077   24.9386 C   0  0  2  0  0  0  0  0  0  0  0  0
   12.7980  -17.3481   24.5698 N   0  0  0  0  0  0  0  0  0  0  0  0
   12.0077  -16.5579   23.6428 C   0  0  0  0  0  0  0  0  0  0  0  0
   11.9644  -17.4353   25.8105 O   0  0  0  0  0  0  0  0  0  0  0  0
   10.8713  -16.8952   26.0008 O   0  0  0  0  0  0  0  0  0  0  0  0
  2  1  1  0
  3  2  1  0
  3  4  1  6
  5  3  1  0
  5  6  2  0
  7  8  1  0
  8 10  1  0
  8  9  2  0
 10 11  1  0
 11 12  1  0
 12 13  1  0
 14 13  1  1
 14 15  1  0
 15  5  1  0
 16 14  1  0
 17 16  2  0
 18 19  1  0
 19 20  2  0
 19 21  1  0
 22 21  1  6
 22 23  1  0
 22 24  1  0
 23 16  1  0
 24 26  1  0
 25 24  2  0
M  END
$$$$
