SRN.pdb
     RDKit          3D

 26 25  0  0  1  0  0  0  0  0999 V2000
    8.0401  -11.7928   27.1504 O   0  0  0  0  0  0  0  0  0  0  0  0
    7.4354  -11.3544   25.9946 C   0  0  0  0  0  0  0  0  0  0  0  0
    6.5191  -12.3586   25.3638 C   0  0  2  0  0  0  0  0  0  0  0  0
    5.2942  -12.4114   26.1260 N   0  0  0  0  0  0  0  0  0  0  0  0
    7.1031  -13.6944   25.2242 C   0  0  0  0  0  0  0  0  0  0  0  0
    6.8288  -14.5754   26.0786 O   0  0  0  0  0  0  0  0  0  0  0  0
    6.7827  -14.7656   19.5391 N   0  0  0  0  0  0  0  0  0  0  0  0
    7.7023  -13.8299   18.9966 C   0  0  0  0  0  0  0  0  0  0  0  0
    7.3421  -12.9500   18.1106 N   0  0  0  0  0  0  0  0  0  0  0  0
    9.0613  -13.8613   19.4412 N   0  0  0  0  0  0  0  0  0  0  0  0
    9.4986  -14.8076   20.4321 C   0  0  0  0  0  0  0  0  0  0  0  0
    8.7218  -14.6625   21.7152 C   0  0  0  0  0  0  0  0  0  0  0  0
    9.2507  -15.6311   22.7448 C   0  0  0  0  0  0  0  0  0  0  0  0
    8.5766  -15.3951   24.0979 C   0  0  2  0  0  0  0  0  0  0  0  0
    7.9772  -14.0837   24.1730 N   0  0  0  0  0  0  0  0  0  0  0  0
    9.6199  -15.5952   25.1287 C   0  0  0  0  0  0  0  0  0  0  0  0
   10.5563  -14.7539   25.2162 O   0  0  0  0  0  0  0  0  0  0  0  0
    8.0375  -12.2611   17.7503 N   0  0  0  0  0  0  0  0  0  0  0  0
   10.6028  -14.8110   29.9120 C   0  0  0  0  0  0  0  0  0  0  0  0
    9.9787  -15.4655   28.8111 O   0  0  0  0  0  0  0  0  0  0  0  0
    9.1264  -14.8012   28.1883 C   0  0  0  0  0  0  0  0  0  0  0  0
   10.2939  -16.8401   28.4036 C   0  0  2  0  0  0  0  0  0  0  0  0
   10.7397  -16.8668   26.9858 N   0  0  0  0  0  0  0  0  0  0  0  0
    9.6576  -16.6666   26.0386 C   0  0  0  0  0  0  0  0  0  0  0  0
   11.2543  -18.2432   26.6985 O   0  0  0  0  0  0  0  0  0  0  0  0
   10.8432  -19.0144   25.8273 O   0  0  0  0  0  0  0  0  0  0  0  0
  2  1  1  0
  3  2  1  0
  3  4  1  1
  5  3  1  0
  5  6  2  0
  7  8  1  0
  8 10  1  0
  8  9  2  0
 10 11  1  0
 11 12  1  0
 12 13  1  0
 14 13  1  6
 14 15  1  0
 15  5  1  0
 16 14  1  0
 17 16  2  0
 18 19  1  0
 19 20  2  0
 19 21  1  0
 22 21  1  1
 22 23  1  0
 22 24  1  0
 23 16  1  0
 24 26  1  0
 25 24  2  0
M  END
$$$$
