SRN.pdb
     RDKit          3D

 26 25  0  0  1  0  0  0  0  0999 V2000
   14.0831  -17.2688   14.3353 O   0  0  0  0  0  0  0  0  0  0  0  0
   13.7836  -16.6898   15.5473 C   0  0  0  0  0  0  0  0  0  0  0  0
   13.5470  -15.2116   15.4781 C   0  0  2  0  0  0  0  0  0  0  0  0
   14.7786  -14.5624   15.0963 N   0  0  0  0  0  0  0  0  0  0  0  0
   13.0158  -14.6338   16.7146 C   0  0  0  0  0  0  0  0  0  0  0  0
   13.8170  -14.2154   17.5890 O   0  0  0  0  0  0  0  0  0  0  0  0
    7.6796  -15.0212   21.9762 N   0  0  0  0  0  0  0  0  0  0  0  0
    7.2042  -13.6896   22.1032 C   0  0  0  0  0  0  0  0  0  0  0  0
    6.7912  -13.2149   23.2404 N   0  0  0  0  0  0  0  0  0  0  0  0
    7.1813  -12.8519   20.9442 N   0  0  0  0  0  0  0  0  0  0  0  0
    7.6557  -13.3277   19.6724 C   0  0  0  0  0  0  0  0  0  0  0  0
    9.1319  -13.6283   19.7109 C   0  0  0  0  0  0  0  0  0  0  0  0
    9.6196  -13.9713   18.3244 C   0  0  0  0  0  0  0  0  0  0  0  0
   11.1434  -14.1076   18.3114 C   0  0  2  0  0  0  0  0  0  0  0  0
   11.6317  -14.5052   17.0121 N   0  0  0  0  0  0  0  0  0  0  0  0
   11.4875  -15.0889   19.3647 C   0  0  0  0  0  0  0  0  0  0  0  0
   11.3104  -16.3165   19.1321 O   0  0  0  0  0  0  0  0  0  0  0  0
    6.4630  -12.2267   23.3022 N   0  0  0  0  0  0  0  0  0  0  0  0
   14.8976  -16.1128   24.3411 C   0  0  0  0  0  0  0  0  0  0  0  0
   14.3505  -16.3727   23.0515 O   0  0  0  0  0  0  0  0  0  0  0  0
   14.3210  -17.5684   22.6979 C   0  0  0  0  0  0  0  0  0  0  0  0
   13.8415  -15.3212   22.1626 C   0  0  2  0  0  0  0  0  0  0  0  0
   12.5616  -15.7494   21.5396 N   0  0  0  0  0  0  0  0  0  0  0  0
   12.0059  -14.7629   20.6305 C   0  0  0  0  0  0  0  0  0  0  0  0
   11.5471  -15.8810   22.6330 O   0  0  0  0  0  0  0  0  0  0  0  0
   11.4554  -16.8078   23.4426 O   0  0  0  0  0  0  0  0  0  0  0  0
  2  1  1  0
  3  2  1  0
  3  4  1  1
  5  3  1  0
  5  6  2  0
  7  8  1  0
  8 10  1  0
  8  9  2  0
 10 11  1  0
 11 12  1  0
 12 13  1  0
 14 13  1  6
 14 15  1  0
 15  5  1  0
 16 14  1  0
 17 16  2  0
 18 19  1  0
 19 20  2  0
 19 21  1  0
 22 21  1  6
 22 23  1  0
 22 24  1  0
 23 16  1  0
 24 26  1  0
 25 24  2  0
M  END
$$$$
