SRN.pdb
     RDKit          3D

 26 25  0  0  1  0  0  0  0  0999 V2000
   14.5276  -17.6930   14.6493 O   0  0  0  0  0  0  0  0  0  0  0  0
   13.4764  -17.0369   14.0510 C   0  0  0  0  0  0  0  0  0  0  0  0
   12.1260  -17.5342   14.4693 C   0  0  2  0  0  0  0  0  0  0  0  0
   11.1167  -16.8057   13.7380 N   0  0  0  0  0  0  0  0  0  0  0  0
   11.8817  -17.4564   15.9112 C   0  0  0  0  0  0  0  0  0  0  0  0
   11.2964  -16.4468   16.3799 O   0  0  0  0  0  0  0  0  0  0  0  0
   12.3658  -23.0681   16.4292 N   0  0  0  0  0  0  0  0  0  0  0  0
   11.1039  -23.0732   17.0795 C   0  0  0  0  0  0  0  0  0  0  0  0
   10.0239  -23.4724   16.4767 N   0  0  0  0  0  0  0  0  0  0  0  0
   11.0249  -22.6252   18.4355 N   0  0  0  0  0  0  0  0  0  0  0  0
   12.1779  -22.0953   19.1126 C   0  0  0  0  0  0  0  0  0  0  0  0
   12.5964  -20.7681   18.5347 C   0  0  0  0  0  0  0  0  0  0  0  0
   11.5408  -19.7290   18.8249 C   0  0  0  0  0  0  0  0  0  0  0  0
   11.9550  -18.3712   18.2543 C   0  0  2  0  0  0  0  0  0  0  0  0
   12.2635  -18.4566   16.8464 N   0  0  0  0  0  0  0  0  0  0  0  0
   13.1122  -17.9129   19.0556 C   0  0  0  0  0  0  0  0  0  0  0  0
   14.1156  -18.6708   19.1616 O   0  0  0  0  0  0  0  0  0  0  0  0
    9.1196  -23.5004   16.9958 N   0  0  0  0  0  0  0  0  0  0  0  0
   10.7646  -15.7142   23.4912 C   0  0  0  0  0  0  0  0  0  0  0  0
   11.2698  -16.9167   22.9178 O   0  0  0  0  0  0  0  0  0  0  0  0
   11.4935  -17.8523   23.7117 C   0  0  0  0  0  0  0  0  0  0  0  0
   11.5248  -17.0825   21.4817 C   0  0  1  0  0  0  0  0  0  0  0  0
   12.8495  -16.5101   21.1252 N   0  0  0  0  0  0  0  0  0  0  0  0
   13.1904  -16.6782   19.7238 C   0  0  0  0  0  0  0  0  0  0  0  0
   13.8926  -17.2827   21.8714 O   0  0  0  0  0  0  0  0  0  0  0  0
   13.9172  -18.5038   22.0471 O   0  0  0  0  0  0  0  0  0  0  0  0
  2  1  1  0
  3  2  1  0
  3  4  1  6
  5  3  1  0
  5  6  2  0
  7  8  1  0
  8 10  1  0
  8  9  2  0
 10 11  1  0
 11 12  1  0
 12 13  1  0
 14 13  1  1
 14 15  1  0
 15  5  1  0
 16 14  1  0
 17 16  2  0
 18 19  1  0
 19 20  2  0
 19 21  1  0
 22 21  1  6
 22 23  1  0
 22 24  1  0
 23 16  1  0
 24 26  1  0
 25 24  2  0
M  END
$$$$
