SRN.pdb
     RDKit          3D

 26 25  0  0  1  0  0  0  0  0999 V2000
   11.0229  -21.6704   20.0122 O   0  0  0  0  0  0  0  0  0  0  0  0
   10.2335  -20.9401   19.1535 C   0  0  0  0  0  0  0  0  0  0  0  0
   10.7333  -19.5515   18.8933 C   0  0  2  0  0  0  0  0  0  0  0  0
   12.0202  -19.6360   18.2445 N   0  0  0  0  0  0  0  0  0  0  0  0
   10.8081  -18.7102   20.0898 C   0  0  0  0  0  0  0  0  0  0  0  0
   11.9353  -18.3551   20.5196 O   0  0  0  0  0  0  0  0  0  0  0  0
    7.7933  -12.0572   18.7764 N   0  0  0  0  0  0  0  0  0  0  0  0
    7.9497  -12.7901   19.9822 C   0  0  0  0  0  0  0  0  0  0  0  0
    8.8962  -12.5194   20.8307 N   0  0  0  0  0  0  0  0  0  0  0  0
    7.0377  -13.8547   20.2656 N   0  0  0  0  0  0  0  0  0  0  0  0
    7.2499  -14.7401   21.3790 C   0  0  0  0  0  0  0  0  0  0  0  0
    8.5044  -15.5564   21.2042 C   0  0  0  0  0  0  0  0  0  0  0  0
    8.5872  -16.6040   22.2876 C   0  0  0  0  0  0  0  0  0  0  0  0
    9.7940  -17.5163   22.0591 C   0  0  2  0  0  0  0  0  0  0  0  0
    9.6792  -18.2517   20.8220 N   0  0  0  0  0  0  0  0  0  0  0  0
    9.8762  -18.4088   23.2371 C   0  0  0  0  0  0  0  0  0  0  0  0
    9.0868  -19.3905   23.3114 O   0  0  0  0  0  0  0  0  0  0  0  0
    8.9512  -13.0423   21.7316 N   0  0  0  0  0  0  0  0  0  0  0  0
   13.6386  -22.0161   25.3655 C   0  0  0  0  0  0  0  0  0  0  0  0
   12.3055  -21.5266   25.2508 O   0  0  0  0  0  0  0  0  0  0  0  0
   11.4497  -22.0918   25.9607 C   0  0  0  0  0  0  0  0  0  0  0  0
   11.9231  -20.4240   24.3605 C   0  0  2  0  0  0  0  0  0  0  0  0
   11.2308  -19.3576   25.1305 N   0  0  0  0  0  0  0  0  0  0  0  0
   10.7786  -18.2526   24.3042 C   0  0  0  0  0  0  0  0  0  0  0  0
   12.2301  -18.7543   26.0683 O   0  0  0  0  0  0  0  0  0  0  0  0
   13.1556  -17.9957   25.7672 O   0  0  0  0  0  0  0  0  0  0  0  0
  2  1  1  0
  3  2  1  0
  3  4  1  1
  5  3  1  0
  5  6  2  0
  7  8  1  0
  8 10  1  0
  8  9  2  0
 10 11  1  0
 11 12  1  0
 12 13  1  0
 14 13  1  1
 14 15  1  0
 15  5  1  0
 16 14  1  0
 17 16  2  0
 18 19  1  0
 19 20  2  0
 19 21  1  0
 22 21  1  6
 22 23  1  0
 22 24  1  0
 23 16  1  0
 24 26  1  0
 25 24  2  0
M  END
$$$$
