SRN.pdb
     RDKit          3D

 26 25  0  0  1  0  0  0  0  0999 V2000
    9.3146  -12.2273   20.3392 O   0  0  0  0  0  0  0  0  0  0  0  0
    8.1479  -12.5428   19.6812 C   0  0  0  0  0  0  0  0  0  0  0  0
    8.2716  -13.6978   18.7344 C   0  0  2  0  0  0  0  0  0  0  0  0
    6.9637  -14.0076   18.2077 N   0  0  0  0  0  0  0  0  0  0  0  0
    8.8911  -14.8876   19.3222 C   0  0  0  0  0  0  0  0  0  0  0  0
    8.1699  -15.7122   19.9397 O   0  0  0  0  0  0  0  0  0  0  0  0
   14.3666  -17.8623   16.2752 N   0  0  0  0  0  0  0  0  0  0  0  0
   13.7807  -19.1265   16.5473 C   0  0  0  0  0  0  0  0  0  0  0  0
   13.5006  -19.9703   15.5993 N   0  0  0  0  0  0  0  0  0  0  0  0
   13.4929  -19.4757   17.9040 N   0  0  0  0  0  0  0  0  0  0  0  0
   13.8305  -18.5922   18.9876 C   0  0  0  0  0  0  0  0  0  0  0  0
   12.6016  -18.1323   19.7287 C   0  0  0  0  0  0  0  0  0  0  0  0
   12.1135  -16.8275   19.1480 C   0  0  0  0  0  0  0  0  0  0  0  0
   10.8609  -16.3489   19.8848 C   0  0  2  0  0  0  0  0  0  0  0  0
   10.2778  -15.1917   19.2482 N   0  0  0  0  0  0  0  0  0  0  0  0
   11.2721  -16.0745   21.2800 C   0  0  0  0  0  0  0  0  0  0  0  0
   11.6088  -14.8994   21.5938 O   0  0  0  0  0  0  0  0  0  0  0  0
   13.1332  -20.9168   15.8383 N   0  0  0  0  0  0  0  0  0  0  0  0
    9.5728  -15.1013   26.0704 C   0  0  0  0  0  0  0  0  0  0  0  0
    9.4957  -16.4072   25.5057 O   0  0  0  0  0  0  0  0  0  0  0  0
    9.2858  -17.3404   26.3061 C   0  0  0  0  0  0  0  0  0  0  0  0
    9.6492  -16.6778   24.0711 C   0  0  1  0  0  0  0  0  0  0  0  0
   11.0896  -16.7110   23.7053 N   0  0  0  0  0  0  0  0  0  0  0  0
   11.3211  -17.0324   22.3083 C   0  0  0  0  0  0  0  0  0  0  0  0
   11.7254  -17.8308   24.4693 O   0  0  0  0  0  0  0  0  0  0  0  0
   11.8774  -17.8925   25.6923 O   0  0  0  0  0  0  0  0  0  0  0  0
  2  1  1  0
  3  2  1  0
  3  4  1  1
  5  3  1  0
  5  6  2  0
  7  8  1  0
  8 10  1  0
  8  9  2  0
 10 11  1  0
 11 12  1  0
 12 13  1  0
 14 13  1  6
 14 15  1  0
 15  5  1  0
 16 14  1  0
 17 16  2  0
 18 19  1  0
 19 20  2  0
 19 21  1  0
 22 21  1  6
 22 23  1  0
 22 24  1  0
 23 16  1  0
 24 26  1  0
 25 24  2  0
M  END
$$$$
