SRN.pdb
     RDKit          3D

 26 25  0  0  1  0  0  0  0  0999 V2000
   12.2288  -19.9302   18.1558 O   0  0  0  0  0  0  0  0  0  0  0  0
   11.3296  -19.2482   17.3684 C   0  0  0  0  0  0  0  0  0  0  0  0
   11.8020  -17.8951   16.9304 C   0  0  2  0  0  0  0  0  0  0  0  0
   12.8337  -18.0641   15.9349 N   0  0  0  0  0  0  0  0  0  0  0  0
   12.2704  -17.0431   18.0257 C   0  0  0  0  0  0  0  0  0  0  0  0
   13.5051  -16.8518   18.1681 O   0  0  0  0  0  0  0  0  0  0  0  0
    6.5346  -12.5319   19.1294 N   0  0  0  0  0  0  0  0  0  0  0  0
    7.3750  -12.9573   18.0671 C   0  0  0  0  0  0  0  0  0  0  0  0
    6.9414  -13.0502   16.8454 N   0  0  0  0  0  0  0  0  0  0  0  0
    8.7353  -13.2916   18.3554 N   0  0  0  0  0  0  0  0  0  0  0  0
    9.2596  -13.1908   19.6910 C   0  0  0  0  0  0  0  0  0  0  0  0
   10.7140  -13.5816   19.7444 C   0  0  0  0  0  0  0  0  0  0  0  0
   10.8982  -14.7349   20.7004 C   0  0  0  0  0  0  0  0  0  0  0  0
   11.9155  -15.7336   20.1450 C   0  0  2  0  0  0  0  0  0  0  0  0
   11.4186  -16.3992   18.9641 N   0  0  0  0  0  0  0  0  0  0  0  0
   12.2148  -16.6830   21.2404 C   0  0  0  0  0  0  0  0  0  0  0  0
   11.7152  -17.8409   21.1938 O   0  0  0  0  0  0  0  0  0  0  0  0
    7.5822  -13.3781   16.0905 N   0  0  0  0  0  0  0  0  0  0  0  0
   16.2800  -20.0411   22.0580 C   0  0  0  0  0  0  0  0  0  0  0  0
   15.0508  -19.3208   22.0537 O   0  0  0  0  0  0  0  0  0  0  0  0
   14.0108  -20.0085   22.0873 C   0  0  0  0  0  0  0  0  0  0  0  0
   14.9727  -17.8555   22.0126 C   0  0  2  0  0  0  0  0  0  0  0  0
   13.9259  -17.3697   22.9495 N   0  0  0  0  0  0  0  0  0  0  0  0
   13.0260  -16.3986   22.3533 C   0  0  0  0  0  0  0  0  0  0  0  0
   14.6144  -16.6302   24.0544 O   0  0  0  0  0  0  0  0  0  0  0  0
   15.2553  -15.5811   23.9485 O   0  0  0  0  0  0  0  0  0  0  0  0
  2  1  1  0
  3  2  1  0
  3  4  1  6
  5  3  1  0
  5  6  2  0
  7  8  1  0
  8 10  1  0
  8  9  2  0
 10 11  1  0
 11 12  1  0
 12 13  1  0
 14 13  1  1
 14 15  1  0
 15  5  1  0
 16 14  1  0
 17 16  2  0
 18 19  1  0
 19 20  2  0
 19 21  1  0
 22 21  1  6
 22 23  1  0
 22 24  1  0
 23 16  1  0
 24 26  1  0
 25 24  2  0
M  END
$$$$
