SRN.pdb
     RDKit          3D

 26 25  0  0  1  0  0  0  0  0999 V2000
   11.0285  -17.7332   19.8663 O   0  0  0  0  0  0  0  0  0  0  0  0
   11.7299  -18.3375   20.8844 C   0  0  0  0  0  0  0  0  0  0  0  0
   11.0453  -18.2829   22.2164 C   0  0  2  0  0  0  0  0  0  0  0  0
    9.9106  -19.1750   22.1913 N   0  0  0  0  0  0  0  0  0  0  0  0
   10.6392  -16.9360   22.6239 C   0  0  0  0  0  0  0  0  0  0  0  0
   11.5176  -16.0466   22.7614 O   0  0  0  0  0  0  0  0  0  0  0  0
    8.3306  -13.1446   18.0039 N   0  0  0  0  0  0  0  0  0  0  0  0
    8.3303  -12.6285   19.3265 C   0  0  0  0  0  0  0  0  0  0  0  0
    8.6655  -11.3992   19.5825 N   0  0  0  0  0  0  0  0  0  0  0  0
    7.9499  -13.4900   20.4029 N   0  0  0  0  0  0  0  0  0  0  0  0
    7.8672  -14.9145   20.2225 C   0  0  0  0  0  0  0  0  0  0  0  0
    7.2950  -15.5931   21.4403 C   0  0  0  0  0  0  0  0  0  0  0  0
    7.6003  -14.7752   22.6715 C   0  0  0  0  0  0  0  0  0  0  0  0
    8.9353  -15.2055   23.2826 C   0  0  2  0  0  0  0  0  0  0  0  0
    9.2974  -16.5447   22.8827 N   0  0  0  0  0  0  0  0  0  0  0  0
    8.7871  -15.0786   24.7499 C   0  0  0  0  0  0  0  0  0  0  0  0
    8.0169  -15.8754   25.3535 O   0  0  0  0  0  0  0  0  0  0  0  0
    8.7189  -11.0706   20.5710 N   0  0  0  0  0  0  0  0  0  0  0  0
    5.6585  -12.6434   26.8768 C   0  0  0  0  0  0  0  0  0  0  0  0
    7.0749  -12.7979   26.8809 O   0  0  0  0  0  0  0  0  0  0  0  0
    7.7356  -11.8183   26.4816 C   0  0  0  0  0  0  0  0  0  0  0  0
    7.7531  -14.0228   27.3219 C   0  0  2  0  0  0  0  0  0  0  0  0
    9.1957  -13.9679   26.9679 N   0  0  0  0  0  0  0  0  0  0  0  0
    9.4456  -14.1248   25.5462 C   0  0  0  0  0  0  0  0  0  0  0  0
    9.8647  -15.1439   27.6093 O   0  0  0  0  0  0  0  0  0  0  0  0
    9.8023  -15.4662   28.7988 O   0  0  0  0  0  0  0  0  0  0  0  0
  2  1  1  0
  3  2  1  0
  3  4  1  6
  5  3  1  0
  5  6  2  0
  7  8  1  0
  8 10  1  0
  8  9  2  0
 10 11  1  0
 11 12  1  0
 12 13  1  0
 14 13  1  6
 14 15  1  0
 15  5  1  0
 16 14  1  0
 17 16  2  0
 18 19  1  0
 19 20  2  0
 19 21  1  0
 22 21  1  6
 22 23  1  0
 22 24  1  0
 23 16  1  0
 24 26  1  0
 25 24  2  0
M  END
$$$$
