SRN.pdb
     RDKit          3D

 26 25  0  0  1  0  0  0  0  0999 V2000
    8.6308  -14.1330   19.7071 O   0  0  0  0  0  0  0  0  0  0  0  0
    9.0366  -13.3664   18.6388 C   0  0  0  0  0  0  0  0  0  0  0  0
    9.8543  -14.1100   17.6268 C   0  0  2  0  0  0  0  0  0  0  0  0
    8.9750  -14.9451   16.8435 N   0  0  0  0  0  0  0  0  0  0  0  0
   10.9443  -14.8997   18.2040 C   0  0  0  0  0  0  0  0  0  0  0  0
   11.0255  -16.1243   17.9298 O   0  0  0  0  0  0  0  0  0  0  0  0
   15.5687  -13.5322   14.8280 N   0  0  0  0  0  0  0  0  0  0  0  0
   16.7544  -13.4967   15.6080 C   0  0  0  0  0  0  0  0  0  0  0  0
   17.6521  -12.5704   15.4484 N   0  0  0  0  0  0  0  0  0  0  0  0
   16.9614  -14.5108   16.5950 N   0  0  0  0  0  0  0  0  0  0  0  0
   15.8989  -15.3987   16.9841 C   0  0  0  0  0  0  0  0  0  0  0  0
   15.0300  -14.7857   18.0519 C   0  0  0  0  0  0  0  0  0  0  0  0
   13.8879  -15.7169   18.3780 C   0  0  0  0  0  0  0  0  0  0  0  0
   13.0606  -15.1631   19.5397 C   0  0  2  0  0  0  0  0  0  0  0  0
   11.9427  -14.3785   19.0713 N   0  0  0  0  0  0  0  0  0  0  0  0
   13.9890  -14.3722   20.3785 C   0  0  0  0  0  0  0  0  0  0  0  0
   14.9610  -13.7889   19.8241 O   0  0  0  0  0  0  0  0  0  0  0  0
   18.5009  -12.5600   16.0545 N   0  0  0  0  0  0  0  0  0  0  0  0
   12.1000  -18.0012   24.0597 C   0  0  0  0  0  0  0  0  0  0  0  0
   13.2928  -17.4515   23.5075 O   0  0  0  0  0  0  0  0  0  0  0  0
   14.3610  -17.8030   24.0471 C   0  0  0  0  0  0  0  0  0  0  0  0
   13.3040  -16.5228   22.3707 C   0  0  1  0  0  0  0  0  0  0  0  0
   14.0746  -15.2990   22.7139 N   0  0  0  0  0  0  0  0  0  0  0  0
   13.8782  -14.2122   21.7712 C   0  0  0  0  0  0  0  0  0  0  0  0
   15.5298  -15.6373   22.6150 O   0  0  0  0  0  0  0  0  0  0  0  0
   16.1051  -16.1304   21.6411 O   0  0  0  0  0  0  0  0  0  0  0  0
  2  1  1  0
  3  2  1  0
  3  4  1  1
  5  3  1  0
  5  6  2  0
  7  8  1  0
  8 10  1  0
  8  9  2  0
 10 11  1  0
 11 12  1  0
 12 13  1  0
 14 13  1  6
 14 15  1  0
 15  5  1  0
 16 14  1  0
 17 16  2  0
 18 19  1  0
 19 20  2  0
 19 21  1  0
 22 21  1  1
 22 23  1  0
 22 24  1  0
 23 16  1  0
 24 26  1  0
 25 24  2  0
M  END
$$$$
