ARH.pdb
     RDKit          3D

 27 27  0  0  1  0  0  0  0  0999 V2000
   12.0420  -18.4295   15.8377 C   0  0  0  0  0  0  0  0  0  0  0  0
   12.3304  -18.9037   17.2342 C   0  0  2  0  0  0  0  0  0  0  0  0
   11.5843  -20.1207   17.4892 N   0  0  0  0  0  0  0  0  0  0  0  0
   11.9944  -17.8538   18.2310 C   0  0  0  0  0  0  0  0  0  0  0  0
   12.5983  -16.7584   18.1822 O   0  0  0  0  0  0  0  0  0  0  0  0
    6.9899  -12.1837   19.0206 N   0  0  0  0  0  0  0  0  0  0  0  0
    8.2527  -12.1827   19.6965 C   0  0  0  0  0  0  0  0  0  0  0  0
    8.9332  -11.0891   19.7546 N   0  0  0  0  0  0  0  0  0  0  0  0
    8.7543  -13.3546   20.2935 N   0  0  0  0  0  0  0  0  0  0  0  0
    8.0091  -14.5906   20.3374 C   0  0  0  0  0  0  0  0  0  0  0  0
    8.8063  -15.6165   21.0529 C   0  0  0  0  0  0  0  0  0  0  0  0
    9.2573  -16.7680   20.2045 C   0  0  0  0  0  0  0  0  0  0  0  0
   10.7300  -17.0219   20.2500 C   0  0  2  0  0  0  0  0  0  0  0  0
   11.0172  -18.0394   19.2374 N   0  0  0  0  0  0  0  0  0  0  0  0
   11.1408  -17.5951   21.5641 C   0  0  0  0  0  0  0  0  0  0  0  0
   10.5468  -18.6131   22.0420 O   0  0  0  0  0  0  0  0  0  0  0  0
    9.8757  -11.0823   20.1913 N   0  0  0  0  0  0  0  0  0  0  0  0
   12.1875  -17.0553   22.3369 C   0  0  2  0  0  0  0  0  0  0  0  0
   13.0994  -17.8194   23.1700 C   0  0  0  0  0  0  0  0  0  0  0  0
   14.1562  -18.4973   22.3767 C   0  0  0  0  0  0  0  0  0  0  0  0
   13.7521  -19.8289   21.8919 C   0  0  0  0  0  0  0  0  0  0  0  0
   12.9402  -20.7543   22.5204 N   0  0  0  0  0  0  0  0  0  0  0  0
   12.8306  -21.8540   21.7625 C   0  0  0  0  0  0  0  0  0  0  0  0
   13.5551  -21.6585   20.6576 N   0  0  0  0  0  0  0  0  0  0  0  0
   14.1186  -20.4350   20.7241 C   0  0  0  0  0  0  0  0  0  0  0  0
   13.6726  -16.8747   24.1468 O   0  0  0  0  0  0  0  0  0  0  0  0
   13.9102  -15.6489   23.8703 O   0  0  0  0  0  0  0  0  0  0  0  0
  2  1  1  6
  3  2  1  0
  4  5  2  0
  4  2  1  0
  7  9  1  0
  7  6  1  0
  8  7  2  0
 10  9  1  0
 11 10  1  0
 11 12  1  0
 13 12  1  1
 13 14  1  0
 14  4  1  0
 15 13  1  0
 16 15  2  0
 17 15  1  0
 18 25  1  0
 18 17  1  0
 18 19  1  6
 20 19  1  0
 20 24  1  0
 21 20  2  0
 22 21  1  0
 22 23  1  0
 23 24  2  0
 25 27  1  0
 26 25  2  0
M  END
$$$$
