ARH.pdb
     RDKit          3D

 27 27  0  0  1  0  0  0  0  0999 V2000
   12.1512  -20.4177   17.6059 C   0  0  0  0  0  0  0  0  0  0  0  0
   12.0180  -18.9221   17.6663 C   0  0  2  0  0  0  0  0  0  0  0  0
   13.1812  -18.3136   17.0503 N   0  0  0  0  0  0  0  0  0  0  0  0
   11.8550  -18.4602   19.0694 C   0  0  0  0  0  0  0  0  0  0  0  0
   12.8670  -18.3846   19.8024 O   0  0  0  0  0  0  0  0  0  0  0  0
    7.7789  -11.6892   19.8274 N   0  0  0  0  0  0  0  0  0  0  0  0
    7.8760  -13.0466   20.2739 C   0  0  0  0  0  0  0  0  0  0  0  0
    8.4911  -13.3022   21.3779 N   0  0  0  0  0  0  0  0  0  0  0  0
    7.3109  -14.0963   19.5254 N   0  0  0  0  0  0  0  0  0  0  0  0
    7.3762  -15.4772   19.9420 C   0  0  0  0  0  0  0  0  0  0  0  0
    8.7965  -15.8973   20.0201 C   0  0  0  0  0  0  0  0  0  0  0  0
    9.0849  -16.9549   21.0437 C   0  0  0  0  0  0  0  0  0  0  0  0
   10.4617  -17.5313   20.9570 C   0  0  2  0  0  0  0  0  0  0  0  0
   10.6001  -18.1006   19.6154 N   0  0  0  0  0  0  0  0  0  0  0  0
   10.6407  -18.6546   21.9214 C   0  0  0  0  0  0  0  0  0  0  0  0
   10.5235  -19.8622   21.5398 O   0  0  0  0  0  0  0  0  0  0  0  0
    8.5929  -14.2830   21.7047 N   0  0  0  0  0  0  0  0  0  0  0  0
   10.9434  -18.4497   23.2817 C   0  0  2  0  0  0  0  0  0  0  0  0
   11.6887  -19.3672   24.1258 C   0  0  0  0  0  0  0  0  0  0  0  0
   13.0877  -19.5515   23.6625 C   0  0  0  0  0  0  0  0  0  0  0  0
   13.2440  -20.6786   22.7262 C   0  0  0  0  0  0  0  0  0  0  0  0
   12.2695  -21.5416   22.2613 N   0  0  0  0  0  0  0  0  0  0  0  0
   12.8170  -22.4478   21.4400 C   0  0  0  0  0  0  0  0  0  0  0  0
   14.1251  -22.1886   21.3648 N   0  0  0  0  0  0  0  0  0  0  0  0
   14.3963  -21.1188   22.1399 C   0  0  0  0  0  0  0  0  0  0  0  0
   11.6354  -18.8209   25.4947 O   0  0  0  0  0  0  0  0  0  0  0  0
   11.0855  -17.7008   25.7746 O   0  0  0  0  0  0  0  0  0  0  0  0
  2  1  1  1
  3  2  1  0
  4  5  2  0
  4  2  1  0
  7  9  1  0
  7  6  1  0
  8  7  2  0
 10  9  1  0
 11 10  1  0
 11 12  1  0
 13 12  1  6
 13 14  1  0
 14  4  1  0
 15 13  1  0
 16 15  2  0
 17 15  1  0
 18 25  1  0
 18 17  1  0
 18 19  1  6
 20 19  1  0
 20 24  1  0
 21 20  2  0
 22 21  1  0
 22 23  1  0
 23 24  2  0
 25 27  1  0
 26 25  2  0
M  END
$$$$
