ARH.pdb
     RDKit          3D

 27 27  0  0  1  0  0  0  0  0999 V2000
   11.0891  -19.1390   16.6649 C   0  0  0  0  0  0  0  0  0  0  0  0
   10.6182  -19.3015   18.0826 C   0  0  2  0  0  0  0  0  0  0  0  0
    9.1877  -19.5387   18.0867 N   0  0  0  0  0  0  0  0  0  0  0  0
   10.9628  -18.1067   18.8964 C   0  0  0  0  0  0  0  0  0  0  0  0
   12.1691  -17.8191   19.0676 O   0  0  0  0  0  0  0  0  0  0  0  0
    7.4556  -13.9998   14.6799 N   0  0  0  0  0  0  0  0  0  0  0  0
    7.8442  -13.6998   16.0254 C   0  0  0  0  0  0  0  0  0  0  0  0
    8.9178  -13.0163   16.2316 N   0  0  0  0  0  0  0  0  0  0  0  0
    7.0717  -14.1405   17.1165 N   0  0  0  0  0  0  0  0  0  0  0  0
    7.5359  -14.0713   18.4820 C   0  0  0  0  0  0  0  0  0  0  0  0
    8.6472  -15.0354   18.6697 C   0  0  0  0  0  0  0  0  0  0  0  0
    9.1830  -15.1142   20.0683 C   0  0  0  0  0  0  0  0  0  0  0  0
   10.3263  -16.0634   20.2332 C   0  0  2  0  0  0  0  0  0  0  0  0
    9.9823  -17.2761   19.4888 N   0  0  0  0  0  0  0  0  0  0  0  0
   10.4943  -16.4671   21.6590 C   0  0  0  0  0  0  0  0  0  0  0  0
    9.9129  -17.5033   22.1126 O   0  0  0  0  0  0  0  0  0  0  0  0
    9.2641  -12.8658   17.1994 N   0  0  0  0  0  0  0  0  0  0  0  0
   11.2890  -15.7412   22.5676 C   0  0  1  0  0  0  0  0  0  0  0  0
   11.5414  -16.1128   23.9488 C   0  0  0  0  0  0  0  0  0  0  0  0
   10.5413  -17.0818   24.4651 C   0  0  0  0  0  0  0  0  0  0  0  0
    9.2131  -16.4821   24.6839 C   0  0  0  0  0  0  0  0  0  0  0  0
    8.8473  -15.1545   24.5638 N   0  0  0  0  0  0  0  0  0  0  0  0
    7.5506  -15.0095   24.8686 C   0  0  0  0  0  0  0  0  0  0  0  0
    7.0709  -16.2156   25.1835 N   0  0  0  0  0  0  0  0  0  0  0  0
    8.0687  -17.1164   25.0755 C   0  0  0  0  0  0  0  0  0  0  0  0
   12.9087  -16.6636   23.9957 O   0  0  0  0  0  0  0  0  0  0  0  0
   13.4449  -17.1005   25.0714 O   0  0  0  0  0  0  0  0  0  0  0  0
  2  1  1  6
  3  2  1  0
  4  5  2  0
  4  2  1  0
  7  9  1  0
  7  6  1  0
  8  7  2  0
 10  9  1  0
 11 10  1  0
 11 12  1  0
 13 12  1  1
 13 14  1  0
 14  4  1  0
 15 13  1  0
 16 15  2  0
 17 15  1  0
 18 25  1  0
 18 17  1  0
 18 19  1  1
 20 19  1  0
 20 24  1  0
 21 20  2  0
 22 21  1  0
 22 23  1  0
 23 24  2  0
 25 27  1  0
 26 25  2  0
M  END
$$$$
