ARH.pdb
     RDKit          3D

 27 27  0  0  1  0  0  0  0  0999 V2000
    8.1171  -19.7139   21.7765 C   0  0  0  0  0  0  0  0  0  0  0  0
    8.3788  -18.9824   20.4902 C   0  0  2  0  0  0  0  0  0  0  0  0
    9.1676  -19.8256   19.6130 N   0  0  0  0  0  0  0  0  0  0  0  0
    9.0652  -17.6892   20.7455 C   0  0  0  0  0  0  0  0  0  0  0  0
   10.3122  -17.6780   20.8554 O   0  0  0  0  0  0  0  0  0  0  0  0
    7.8634  -15.4633   16.4373 N   0  0  0  0  0  0  0  0  0  0  0  0
    8.0814  -14.1430   15.9267 C   0  0  0  0  0  0  0  0  0  0  0  0
    8.3904  -13.9933   14.6839 N   0  0  0  0  0  0  0  0  0  0  0  0
    7.9627  -13.0160   16.7616 N   0  0  0  0  0  0  0  0  0  0  0  0
    7.5558  -13.1062   18.1441 C   0  0  0  0  0  0  0  0  0  0  0  0
    8.5288  -13.9446   18.8859 C   0  0  0  0  0  0  0  0  0  0  0  0
    8.2030  -14.1547   20.3347 C   0  0  0  0  0  0  0  0  0  0  0  0
    9.0555  -15.1799   21.0112 C   0  0  2  0  0  0  0  0  0  0  0  0
    8.3676  -16.4645   20.8701 N   0  0  0  0  0  0  0  0  0  0  0  0
    9.1685  -14.9111   22.4738 C   0  0  0  0  0  0  0  0  0  0  0  0
    8.4843  -13.9876   23.0184 O   0  0  0  0  0  0  0  0  0  0  0  0
    8.6741  -13.0608   14.3243 N   0  0  0  0  0  0  0  0  0  0  0  0
   10.0205  -15.6474   23.3200 C   0  0  1  0  0  0  0  0  0  0  0  0
    9.9652  -15.6539   24.7714 C   0  0  0  0  0  0  0  0  0  0  0  0
    8.6182  -16.0124   25.2841 C   0  0  0  0  0  0  0  0  0  0  0  0
    7.7384  -14.8444   25.4669 C   0  0  0  0  0  0  0  0  0  0  0  0
    8.0527  -13.5078   25.3085 N   0  0  0  0  0  0  0  0  0  0  0  0
    6.9827  -12.7514   25.5890 C   0  0  0  0  0  0  0  0  0  0  0  0
    5.9838  -13.5715   25.9258 N   0  0  0  0  0  0  0  0  0  0  0  0
    6.4292  -14.8426   25.8558 C   0  0  0  0  0  0  0  0  0  0  0  0
   10.9940  -16.6061   25.2297 O   0  0  0  0  0  0  0  0  0  0  0  0
   11.5895  -17.4179   24.4413 O   0  0  0  0  0  0  0  0  0  0  0  0
  2  1  1  1
  3  2  1  0
  4  5  2  0
  4  2  1  0
  7  9  1  0
  7  6  1  0
  8  7  2  0
 10  9  1  0
 11 10  1  0
 11 12  1  0
 13 12  1  6
 13 14  1  0
 14  4  1  0
 15 13  1  0
 16 15  2  0
 17 15  1  0
 18 25  1  0
 18 17  1  0
 18 19  1  1
 20 19  1  0
 20 24  1  0
 21 20  2  0
 22 21  1  0
 22 23  1  0
 23 24  2  0
 25 27  1  0
 26 25  2  0
M  END
$$$$
