ARH.pdb
     RDKit          3D

 27 27  0  0  1  0  0  0  0  0999 V2000
    8.2028  -12.2911   19.7540 C   0  0  0  0  0  0  0  0  0  0  0  0
    8.4996  -13.1521   18.5588 C   0  0  2  0  0  0  0  0  0  0  0  0
    7.2569  -13.6795   18.0293 N   0  0  0  0  0  0  0  0  0  0  0  0
    9.4357  -14.2500   18.9151 C   0  0  0  0  0  0  0  0  0  0  0  0
    8.9653  -15.3453   19.2976 O   0  0  0  0  0  0  0  0  0  0  0  0
   13.1783  -17.8325   14.9073 N   0  0  0  0  0  0  0  0  0  0  0  0
   13.4688  -16.5599   14.3179 C   0  0  0  0  0  0  0  0  0  0  0  0
   13.0919  -16.3278   13.1069 N   0  0  0  0  0  0  0  0  0  0  0  0
   14.1565  -15.5677   15.0419 N   0  0  0  0  0  0  0  0  0  0  0  0
   14.4794  -15.7041   16.4426 C   0  0  0  0  0  0  0  0  0  0  0  0
   13.2314  -15.9278   17.2121 C   0  0  0  0  0  0  0  0  0  0  0  0
   13.0030  -14.9615   18.3361 C   0  0  0  0  0  0  0  0  0  0  0  0
   11.7565  -15.2189   19.1207 C   0  0  2  0  0  0  0  0  0  0  0  0
   10.8418  -14.1107   18.8405 N   0  0  0  0  0  0  0  0  0  0  0  0
   12.0248  -15.1946   20.5875 C   0  0  0  0  0  0  0  0  0  0  0  0
   12.6693  -14.2325   21.1133 O   0  0  0  0  0  0  0  0  0  0  0  0
   13.1594  -15.3689   12.7130 N   0  0  0  0  0  0  0  0  0  0  0  0
   11.5899  -16.2128   21.4583 C   0  0  1  0  0  0  0  0  0  0  0  0
   11.8953  -16.2955   22.8759 C   0  0  0  0  0  0  0  0  0  0  0  0
   10.7578  -16.8274   23.6689 C   0  0  0  0  0  0  0  0  0  0  0  0
    9.5374  -16.0099   23.5516 C   0  0  0  0  0  0  0  0  0  0  0  0
    9.3524  -14.6951   23.9361 N   0  0  0  0  0  0  0  0  0  0  0  0
    8.0919  -14.3186   23.6811 C   0  0  0  0  0  0  0  0  0  0  0  0
    7.4586  -15.3628   23.1401 N   0  0  0  0  0  0  0  0  0  0  0  0
    8.3239  -16.3938   23.0565 C   0  0  0  0  0  0  0  0  0  0  0  0
   13.0929  -17.1470   23.0018 O   0  0  0  0  0  0  0  0  0  0  0  0
   13.6529  -17.7104   21.9996 O   0  0  0  0  0  0  0  0  0  0  0  0
  2  1  1  1
  3  2  1  0
  4  5  2  0
  4  2  1  0
  7  9  1  0
  7  6  1  0
  8  7  2  0
 10  9  1  0
 11 10  1  0
 11 12  1  0
 13 12  1  6
 13 14  1  0
 14  4  1  0
 15 13  1  0
 16 15  2  0
 17 15  1  0
 18 25  1  0
 18 17  1  0
 18 19  1  1
 20 19  1  0
 20 24  1  0
 21 20  2  0
 22 21  1  0
 22 23  1  0
 23 24  2  0
 25 27  1  0
 26 25  2  0
M  END
$$$$
