ARH.pdb
     RDKit          3D

 27 27  0  0  1  0  0  0  0  0999 V2000
    9.7624  -21.2591   22.5414 C   0  0  0  0  0  0  0  0  0  0  0  0
    9.6066  -20.2415   21.4467 C   0  0  2  0  0  0  0  0  0  0  0  0
   10.4742  -20.5941   20.3396 N   0  0  0  0  0  0  0  0  0  0  0  0
    9.9082  -18.8746   21.9459 C   0  0  0  0  0  0  0  0  0  0  0  0
   11.0972  -18.5695   22.1917 O   0  0  0  0  0  0  0  0  0  0  0  0
    8.4054  -14.4029   18.4554 N   0  0  0  0  0  0  0  0  0  0  0  0
    8.3666  -13.0756   18.9920 C   0  0  0  0  0  0  0  0  0  0  0  0
    9.0031  -12.1334   18.3840 N   0  0  0  0  0  0  0  0  0  0  0  0
    7.6461  -12.7915   20.1674 N   0  0  0  0  0  0  0  0  0  0  0  0
    7.1933  -13.8193   21.0748 C   0  0  0  0  0  0  0  0  0  0  0  0
    8.3622  -14.5940   21.5579 C   0  0  0  0  0  0  0  0  0  0  0  0
    8.0298  -15.7155   22.4966 C   0  0  0  0  0  0  0  0  0  0  0  0
    9.1823  -16.6163   22.8062 C   0  0  2  0  0  0  0  0  0  0  0  0
    8.9056  -17.8987   22.1565 N   0  0  0  0  0  0  0  0  0  0  0  0
    9.2800  -16.8879   24.2694 C   0  0  0  0  0  0  0  0  0  0  0  0
    8.2385  -17.1461   24.9522 O   0  0  0  0  0  0  0  0  0  0  0  0
    9.0225  -11.1740   18.7821 N   0  0  0  0  0  0  0  0  0  0  0  0
   10.5039  -16.8749   24.9664 C   0  0  1  0  0  0  0  0  0  0  0  0
   10.7547  -17.5276   26.2395 C   0  0  0  0  0  0  0  0  0  0  0  0
   10.3048  -18.9430   26.2471 C   0  0  0  0  0  0  0  0  0  0  0  0
   10.6509  -19.6541   27.4905 C   0  0  0  0  0  0  0  0  0  0  0  0
   11.2533  -19.1432   28.6248 N   0  0  0  0  0  0  0  0  0  0  0  0
   11.4177  -20.1162   29.5314 C   0  0  0  0  0  0  0  0  0  0  0  0
   10.9344  -21.2453   29.0063 N   0  0  0  0  0  0  0  0  0  0  0  0
   10.4669  -20.9783   27.7698 C   0  0  0  0  0  0  0  0  0  0  0  0
   12.2029  -17.4147   26.4949 O   0  0  0  0  0  0  0  0  0  0  0  0
   13.0419  -17.0682   25.5942 O   0  0  0  0  0  0  0  0  0  0  0  0
  2  1  1  1
  3  2  1  0
  4  5  2  0
  4  2  1  0
  7  9  1  0
  7  6  1  0
  8  7  2  0
 10  9  1  0
 11 10  1  0
 11 12  1  0
 13 12  1  1
 13 14  1  0
 14  4  1  0
 15 13  1  0
 16 15  2  0
 17 15  1  0
 18 25  1  0
 18 17  1  0
 18 19  1  1
 20 19  1  0
 20 24  1  0
 21 20  2  0
 22 21  1  0
 22 23  1  0
 23 24  2  0
 25 27  1  0
 26 25  2  0
M  END
$$$$
