ARH.pdb
     RDKit          3D

 27 27  0  0  1  0  0  0  0  0999 V2000
   11.0882  -22.7134   26.5236 C   0  0  0  0  0  0  0  0  0  0  0  0
   12.3373  -23.3416   25.9730 C   0  0  2  0  0  0  0  0  0  0  0  0
   11.9735  -24.4031   25.0546 N   0  0  0  0  0  0  0  0  0  0  0  0
   13.1994  -23.8567   27.0684 C   0  0  0  0  0  0  0  0  0  0  0  0
   12.7193  -24.6814   27.8786 O   0  0  0  0  0  0  0  0  0  0  0  0
   21.2530  -22.4473   28.1907 N   0  0  0  0  0  0  0  0  0  0  0  0
   20.9894  -23.8315   28.4472 C   0  0  0  0  0  0  0  0  0  0  0  0
   21.7959  -24.4949   29.2035 N   0  0  0  0  0  0  0  0  0  0  0  0
   19.8674  -24.4700   27.8862 N   0  0  0  0  0  0  0  0  0  0  0  0
   19.0056  -23.8309   26.9200 C   0  0  0  0  0  0  0  0  0  0  0  0
   17.7493  -23.4117   27.5878 C   0  0  0  0  0  0  0  0  0  0  0  0
   16.6697  -24.4526   27.6085 C   0  0  0  0  0  0  0  0  0  0  0  0
   15.4080  -24.0124   28.2790 C   0  0  2  0  0  0  0  0  0  0  0  0
   14.5454  -23.4538   27.2363 N   0  0  0  0  0  0  0  0  0  0  0  0
   15.6674  -22.9155   29.2556 C   0  0  0  0  0  0  0  0  0  0  0  0
   16.2745  -21.8573   28.8964 O   0  0  0  0  0  0  0  0  0  0  0  0
   21.5864  -25.4812   29.4532 N   0  0  0  0  0  0  0  0  0  0  0  0
   15.2645  -22.9848   30.6035 C   0  0  2  0  0  0  0  0  0  0  0  0
   15.4458  -21.9355   31.5914 C   0  0  0  0  0  0  0  0  0  0  0  0
   14.4250  -21.9912   32.6688 C   0  0  0  0  0  0  0  0  0  0  0  0
   13.0467  -21.8429   32.1690 C   0  0  0  0  0  0  0  0  0  0  0  0
   12.6344  -21.5154   30.8910 N   0  0  0  0  0  0  0  0  0  0  0  0
   11.2964  -21.4586   30.8441 C   0  0  0  0  0  0  0  0  0  0  0  0
   10.8357  -21.7423   32.0653 N   0  0  0  0  0  0  0  0  0  0  0  0
   11.8866  -21.9770   32.8772 C   0  0  0  0  0  0  0  0  0  0  0  0
   16.8116  -22.0891   32.1261 O   0  0  0  0  0  0  0  0  0  0  0  0
   17.2718  -21.3647   33.0741 O   0  0  0  0  0  0  0  0  0  0  0  0
  2  1  1  1
  3  2  1  0
  4  5  2  0
  4  2  1  0
  7  9  1  0
  7  6  1  0
  8  7  2  0
 10  9  1  0
 11 10  1  0
 11 12  1  0
 13 12  1  6
 13 14  1  0
 14  4  1  0
 15 13  1  0
 16 15  2  0
 17 15  1  0
 18 25  1  0
 18 17  1  0
 18 19  1  6
 20 19  1  0
 20 24  1  0
 21 20  2  0
 22 21  1  0
 22 23  1  0
 23 24  2  0
 25 27  1  0
 26 25  2  0
M  END
$$$$
