ARH.pdb
     RDKit          3D

 27 27  0  0  1  0  0  0  0  0999 V2000
   13.4753  -17.0181   18.0160 C   0  0  0  0  0  0  0  0  0  0  0  0
   13.0027  -15.5980   18.1497 C   0  0  2  0  0  0  0  0  0  0  0  0
   14.0894  -14.6990   17.8127 N   0  0  0  0  0  0  0  0  0  0  0  0
   12.4985  -15.3336   19.5224 C   0  0  0  0  0  0  0  0  0  0  0  0
   13.3134  -14.9987   20.4118 O   0  0  0  0  0  0  0  0  0  0  0  0
    8.3572  -12.3116   17.6770 N   0  0  0  0  0  0  0  0  0  0  0  0
    7.6318  -13.5448   17.7422 C   0  0  0  0  0  0  0  0  0  0  0  0
    7.4673  -14.2345   16.6653 N   0  0  0  0  0  0  0  0  0  0  0  0
    7.1009  -14.0079   18.9608 N   0  0  0  0  0  0  0  0  0  0  0  0
    7.3762  -13.3701   20.2266 C   0  0  0  0  0  0  0  0  0  0  0  0
    8.8096  -13.5501   20.5627 C   0  0  0  0  0  0  0  0  0  0  0  0
    9.1662  -14.9066   21.0938 C   0  0  0  0  0  0  0  0  0  0  0  0
   10.6365  -15.1491   21.2155 C   0  0  2  0  0  0  0  0  0  0  0  0
   11.1312  -15.4443   19.8696 N   0  0  0  0  0  0  0  0  0  0  0  0
   10.9202  -16.3512   22.0512 C   0  0  0  0  0  0  0  0  0  0  0  0
   10.5051  -17.5001   21.6972 O   0  0  0  0  0  0  0  0  0  0  0  0
    6.9392  -15.1287   16.6926 N   0  0  0  0  0  0  0  0  0  0  0  0
   11.6484  -16.2873   23.2552 C   0  0  1  0  0  0  0  0  0  0  0  0
   11.8574  -17.3939   24.1725 C   0  0  0  0  0  0  0  0  0  0  0  0
   13.2533  -17.4545   24.6762 C   0  0  0  0  0  0  0  0  0  0  0  0
   14.2113  -17.9455   23.6700 C   0  0  0  0  0  0  0  0  0  0  0  0
   13.9477  -18.3900   22.3880 N   0  0  0  0  0  0  0  0  0  0  0  0
   15.0866  -18.7732   21.7950 C   0  0  0  0  0  0  0  0  0  0  0  0
   16.0806  -18.5858   22.6672 N   0  0  0  0  0  0  0  0  0  0  0  0
   15.5630  -18.0848   23.8074 C   0  0  0  0  0  0  0  0  0  0  0  0
   10.8885  -17.2217   25.2710 O   0  0  0  0  0  0  0  0  0  0  0  0
   10.0488  -16.2581   25.3118 O   0  0  0  0  0  0  0  0  0  0  0  0
  2  1  1  1
  3  2  1  0
  4  5  2  0
  4  2  1  0
  7  9  1  0
  7  6  1  0
  8  7  2  0
 10  9  1  0
 11 10  1  0
 11 12  1  0
 13 12  1  6
 13 14  1  0
 14  4  1  0
 15 13  1  0
 16 15  2  0
 17 15  1  0
 18 25  1  0
 18 17  1  0
 18 19  1  1
 20 19  1  0
 20 24  1  0
 21 20  2  0
 22 21  1  0
 22 23  1  0
 23 24  2  0
 25 27  1  0
 26 25  2  0
M  END
$$$$
