ARH.pdb
     RDKit          3D

 27 27  0  0  1  0  0  0  0  0999 V2000
    8.1718  -22.0453   19.7810 C   0  0  0  0  0  0  0  0  0  0  0  0
    8.7020  -21.4276   21.0441 C   0  0  2  0  0  0  0  0  0  0  0  0
    7.6514  -21.4067   22.0433 N   0  0  0  0  0  0  0  0  0  0  0  0
    9.2211  -20.0588   20.7879 C   0  0  0  0  0  0  0  0  0  0  0  0
   10.2863  -19.9270   20.1436 O   0  0  0  0  0  0  0  0  0  0  0  0
    8.6231  -13.3033   18.0399 N   0  0  0  0  0  0  0  0  0  0  0  0
    8.3808  -12.4842   19.1895 C   0  0  0  0  0  0  0  0  0  0  0  0
    8.9029  -11.3065   19.2431 N   0  0  0  0  0  0  0  0  0  0  0  0
    7.5843  -12.9484   20.2533 N   0  0  0  0  0  0  0  0  0  0  0  0
    7.1164  -14.3114   20.3431 C   0  0  0  0  0  0  0  0  0  0  0  0
    8.2663  -15.2051   20.6242 C   0  0  0  0  0  0  0  0  0  0  0  0
    7.9184  -16.6585   20.7490 C   0  0  0  0  0  0  0  0  0  0  0  0
    9.0913  -17.5485   21.0088 C   0  0  2  0  0  0  0  0  0  0  0  0
    8.5610  -18.8928   21.2427 N   0  0  0  0  0  0  0  0  0  0  0  0
    9.8108  -17.1478   22.2521 C   0  0  0  0  0  0  0  0  0  0  0  0
    9.2240  -17.1794   23.3800 O   0  0  0  0  0  0  0  0  0  0  0  0
    8.7044  -10.6827   20.0497 N   0  0  0  0  0  0  0  0  0  0  0  0
   11.1529  -16.7202   22.2513 C   0  0  1  0  0  0  0  0  0  0  0  0
   12.0905  -16.8878   23.3478 C   0  0  0  0  0  0  0  0  0  0  0  0
   12.1394  -18.2880   23.8406 C   0  0  0  0  0  0  0  0  0  0  0  0
   13.0365  -18.4643   24.9963 C   0  0  0  0  0  0  0  0  0  0  0  0
   13.3817  -17.5323   25.9569 N   0  0  0  0  0  0  0  0  0  0  0  0
   14.2404  -18.0750   26.8309 C   0  0  0  0  0  0  0  0  0  0  0  0
   14.4574  -19.3381   26.4548 N   0  0  0  0  0  0  0  0  0  0  0  0
   13.7335  -19.5860   25.3442 C   0  0  0  0  0  0  0  0  0  0  0  0
   13.4051  -16.4379   22.8530 O   0  0  0  0  0  0  0  0  0  0  0  0
   13.6848  -16.3474   21.6084 O   0  0  0  0  0  0  0  0  0  0  0  0
  2  1  1  6
  3  2  1  0
  4  5  2  0
  4  2  1  0
  7  9  1  0
  7  6  1  0
  8  7  2  0
 10  9  1  0
 11 10  1  0
 11 12  1  0
 13 12  1  1
 13 14  1  0
 14  4  1  0
 15 13  1  0
 16 15  2  0
 17 15  1  0
 18 25  1  0
 18 17  1  0
 18 19  1  6
 20 19  1  0
 20 24  1  0
 21 20  2  0
 22 21  1  0
 22 23  1  0
 23 24  2  0
 25 27  1  0
 26 25  2  0
M  END
$$$$
