ARH.pdb
     RDKit          3D

 27 27  0  0  1  0  0  0  0  0999 V2000
    7.8217  -18.4436   27.7772 C   0  0  0  0  0  0  0  0  0  0  0  0
    7.0768  -19.0718   26.6333 C   0  0  2  0  0  0  0  0  0  0  0  0
    7.0630  -20.5116   26.8054 N   0  0  0  0  0  0  0  0  0  0  0  0
    7.6885  -18.6965   25.3319 C   0  0  0  0  0  0  0  0  0  0  0  0
    8.5367  -19.4615   24.8196 O   0  0  0  0  0  0  0  0  0  0  0  0
    7.5556  -11.7418   20.2379 N   0  0  0  0  0  0  0  0  0  0  0  0
    7.8815  -12.8153   19.3476 C   0  0  0  0  0  0  0  0  0  0  0  0
    8.6423  -12.5811   18.3332 N   0  0  0  0  0  0  0  0  0  0  0  0
    7.3836  -14.1134   19.5672 N   0  0  0  0  0  0  0  0  0  0  0  0
    6.7828  -14.5198   20.8157 C   0  0  0  0  0  0  0  0  0  0  0  0
    7.6715  -15.4973   21.4901 C   0  0  0  0  0  0  0  0  0  0  0  0
    7.1320  -16.0587   22.7719 C   0  0  0  0  0  0  0  0  0  0  0  0
    7.9854  -17.1253   23.3799 C   0  0  2  0  0  0  0  0  0  0  0  0
    7.3524  -17.5068   24.6436 N   0  0  0  0  0  0  0  0  0  0  0  0
    9.3422  -16.6067   23.7180 C   0  0  0  0  0  0  0  0  0  0  0  0
    9.4814  -15.6233   24.5125 O   0  0  0  0  0  0  0  0  0  0  0  0
    8.8472  -13.3348   17.6483 N   0  0  0  0  0  0  0  0  0  0  0  0
   10.5236  -17.1626   23.1895 C   0  0  2  0  0  0  0  0  0  0  0  0
   11.8691  -16.6787   23.4446 C   0  0  0  0  0  0  0  0  0  0  0  0
   12.7300  -17.7102   24.0776 C   0  0  0  0  0  0  0  0  0  0  0  0
   12.3987  -17.9520   25.4930 C   0  0  0  0  0  0  0  0  0  0  0  0
   11.7373  -17.1118   26.3689 N   0  0  0  0  0  0  0  0  0  0  0  0
   11.6506  -17.6879   27.5756 C   0  0  0  0  0  0  0  0  0  0  0  0
   12.2426  -18.8827   27.4978 N   0  0  0  0  0  0  0  0  0  0  0  0
   12.7001  -19.0544   26.2408 C   0  0  0  0  0  0  0  0  0  0  0  0
   12.4129  -16.2365   22.1469 O   0  0  0  0  0  0  0  0  0  0  0  0
   11.7851  -16.3876   21.0431 O   0  0  0  0  0  0  0  0  0  0  0  0
  2  1  1  1
  3  2  1  0
  4  5  2  0
  4  2  1  0
  7  9  1  0
  7  6  1  0
  8  7  2  0
 10  9  1  0
 11 10  1  0
 11 12  1  0
 13 12  1  1
 13 14  1  0
 14  4  1  0
 15 13  1  0
 16 15  2  0
 17 15  1  0
 18 25  1  0
 18 17  1  0
 18 19  1  6
 20 19  1  0
 20 24  1  0
 21 20  2  0
 22 21  1  0
 22 23  1  0
 23 24  2  0
 25 27  1  0
 26 25  2  0
M  END
$$$$
