ARH.pdb
     RDKit          3D

 27 27  0  0  1  0  0  0  0  0999 V2000
    8.1445  -18.9228   20.2623 C   0  0  0  0  0  0  0  0  0  0  0  0
    7.9053  -20.3533   19.8696 C   0  0  2  0  0  0  0  0  0  0  0  0
    6.7629  -20.4197   18.9790 N   0  0  0  0  0  0  0  0  0  0  0  0
    7.6961  -21.2051   21.0694 C   0  0  0  0  0  0  0  0  0  0  0  0
    6.6879  -21.0055   21.7841 O   0  0  0  0  0  0  0  0  0  0  0  0
    5.7437  -28.4372   22.8922 N   0  0  0  0  0  0  0  0  0  0  0  0
    6.5943  -28.2985   24.0361 C   0  0  0  0  0  0  0  0  0  0  0  0
    6.4435  -29.1030   25.0323 N   0  0  0  0  0  0  0  0  0  0  0  0
    7.5856  -27.3002   24.0833 N   0  0  0  0  0  0  0  0  0  0  0  0
    7.7131  -26.2762   23.0733 C   0  0  0  0  0  0  0  0  0  0  0  0
    8.8889  -25.4273   23.3841 C   0  0  0  0  0  0  0  0  0  0  0  0
    9.1618  -24.3403   22.3874 C   0  0  0  0  0  0  0  0  0  0  0  0
    8.3577  -23.0981   22.6010 C   0  0  2  0  0  0  0  0  0  0  0  0
    8.5909  -22.2364   21.4407 N   0  0  0  0  0  0  0  0  0  0  0  0
    8.8313  -22.3451   23.7979 C   0  0  0  0  0  0  0  0  0  0  0  0
    9.8981  -21.6544   23.7496 O   0  0  0  0  0  0  0  0  0  0  0  0
    7.0680  -29.0336   25.8596 N   0  0  0  0  0  0  0  0  0  0  0  0
    8.1408  -22.3538   25.0256 C   0  0  2  0  0  0  0  0  0  0  0  0
    8.4964  -21.5722   26.1971 C   0  0  0  0  0  0  0  0  0  0  0  0
    7.3773  -20.7159   26.6662 C   0  0  0  0  0  0  0  0  0  0  0  0
    7.1250  -19.5598   25.7880 C   0  0  0  0  0  0  0  0  0  0  0  0
    7.9374  -19.0541   24.7906 N   0  0  0  0  0  0  0  0  0  0  0  0
    7.3616  -17.9796   24.2344 C   0  0  0  0  0  0  0  0  0  0  0  0
    6.1941  -17.7803   24.8519 N   0  0  0  0  0  0  0  0  0  0  0  0
    6.0393  -18.7313   25.7955 C   0  0  0  0  0  0  0  0  0  0  0  0
    8.9198  -22.5321   27.2336 O   0  0  0  0  0  0  0  0  0  0  0  0
    8.8185  -23.7988   27.0901 O   0  0  0  0  0  0  0  0  0  0  0  0
  2  1  1  1
  3  2  1  0
  4  5  2  0
  4  2  1  0
  7  9  1  0
  7  6  1  0
  8  7  2  0
 10  9  1  0
 11 10  1  0
 11 12  1  0
 13 12  1  6
 13 14  1  0
 14  4  1  0
 15 13  1  0
 16 15  2  0
 17 15  1  0
 18 25  1  0
 18 17  1  0
 18 19  1  6
 20 19  1  0
 20 24  1  0
 21 20  2  0
 22 21  1  0
 22 23  1  0
 23 24  2  0
 25 27  1  0
 26 25  2  0
M  END
$$$$
