ARH.pdb
     RDKit          3D

 27 27  0  0  1  0  0  0  0  0999 V2000
    8.3283  -11.8785   19.7589 C   0  0  0  0  0  0  0  0  0  0  0  0
    8.4311  -13.1989   19.0489 C   0  0  2  0  0  0  0  0  0  0  0  0
    7.4315  -13.2564   18.0000 N   0  0  0  0  0  0  0  0  0  0  0  0
    8.2693  -14.3278   20.0018 C   0  0  0  0  0  0  0  0  0  0  0  0
    7.1333  -14.8304   20.1563 O   0  0  0  0  0  0  0  0  0  0  0  0
   13.1548  -21.1093   21.6074 N   0  0  0  0  0  0  0  0  0  0  0  0
   11.8335  -21.5252   21.9713 C   0  0  0  0  0  0  0  0  0  0  0  0
   11.6782  -22.6314   22.6153 N   0  0  0  0  0  0  0  0  0  0  0  0
   10.7114  -20.7445   21.6356 N   0  0  0  0  0  0  0  0  0  0  0  0
   10.8098  -19.5174   20.8809 C   0  0  0  0  0  0  0  0  0  0  0  0
   10.0586  -18.4495   21.5845 C   0  0  0  0  0  0  0  0  0  0  0  0
   10.1261  -17.0995   20.9348 C   0  0  0  0  0  0  0  0  0  0  0  0
    9.2221  -16.0790   21.5487 C   0  0  2  0  0  0  0  0  0  0  0  0
    9.3483  -14.8616   20.7454 N   0  0  0  0  0  0  0  0  0  0  0  0
    9.6591  -15.7293   22.9310 C   0  0  0  0  0  0  0  0  0  0  0  0
   10.8831  -15.4948   23.1846 O   0  0  0  0  0  0  0  0  0  0  0  0
   10.7244  -22.9747   22.8426 N   0  0  0  0  0  0  0  0  0  0  0  0
    8.7624  -15.6400   24.0136 C   0  0  2  0  0  0  0  0  0  0  0  0
    9.1382  -15.4689   25.4061 C   0  0  0  0  0  0  0  0  0  0  0  0
    7.9637  -15.2301   26.2832 C   0  0  0  0  0  0  0  0  0  0  0  0
    7.3395  -13.9124   26.0694 C   0  0  0  0  0  0  0  0  0  0  0  0
    7.8601  -12.8218   25.3985 N   0  0  0  0  0  0  0  0  0  0  0  0
    6.9916  -11.8023   25.4425 C   0  0  0  0  0  0  0  0  0  0  0  0
    5.9208  -12.2114   26.1282 N   0  0  0  0  0  0  0  0  0  0  0  0
    6.1196  -13.4885   26.5135 C   0  0  0  0  0  0  0  0  0  0  0  0
    9.8731  -16.6859   25.7987 O   0  0  0  0  0  0  0  0  0  0  0  0
   11.0015  -16.6523   26.3994 O   0  0  0  0  0  0  0  0  0  0  0  0
  2  1  1  1
  3  2  1  0
  4  5  2  0
  4  2  1  0
  7  9  1  0
  7  6  1  0
  8  7  2  0
 10  9  1  0
 11 10  1  0
 11 12  1  0
 13 12  1  6
 13 14  1  0
 14  4  1  0
 15 13  1  0
 16 15  2  0
 17 15  1  0
 18 25  1  0
 18 17  1  0
 18 19  1  6
 20 19  1  0
 20 24  1  0
 21 20  2  0
 22 21  1  0
 22 23  1  0
 23 24  2  0
 25 27  1  0
 26 25  2  0
M  END
$$$$
