ARH.pdb
     RDKit          3D

 27 27  0  0  1  0  0  0  0  0999 V2000
    6.9594  -22.4742   17.0794 C   0  0  0  0  0  0  0  0  0  0  0  0
    6.9565  -21.9099   18.4721 C   0  0  2  0  0  0  0  0  0  0  0  0
    5.7089  -21.2070   18.7002 N   0  0  0  0  0  0  0  0  0  0  0  0
    8.1210  -21.0108   18.6827 C   0  0  0  0  0  0  0  0  0  0  0  0
    9.2751  -21.4917   18.6206 O   0  0  0  0  0  0  0  0  0  0  0  0
    8.1196  -12.7795   16.6352 N   0  0  0  0  0  0  0  0  0  0  0  0
    8.0065  -13.8493   15.6896 C   0  0  0  0  0  0  0  0  0  0  0  0
    8.1050  -13.5881   14.4309 N   0  0  0  0  0  0  0  0  0  0  0  0
    7.7905  -15.1728   16.1175 N   0  0  0  0  0  0  0  0  0  0  0  0
    7.7916  -15.5546   17.5101 C   0  0  0  0  0  0  0  0  0  0  0  0
    8.3750  -16.9116   17.6441 C   0  0  0  0  0  0  0  0  0  0  0  0
    8.6388  -17.3470   19.0548 C   0  0  0  0  0  0  0  0  0  0  0  0
    9.1322  -18.7529   19.1793 C   0  0  2  0  0  0  0  0  0  0  0  0
    7.9813  -19.6286   18.9517 N   0  0  0  0  0  0  0  0  0  0  0  0
    9.6212  -19.0354   20.5596 C   0  0  0  0  0  0  0  0  0  0  0  0
    8.8457  -18.9135   21.5602 O   0  0  0  0  0  0  0  0  0  0  0  0
    8.0502  -14.3548   13.7319 N   0  0  0  0  0  0  0  0  0  0  0  0
   10.9412  -19.4450   20.8311 C   0  0  2  0  0  0  0  0  0  0  0  0
   11.4893  -19.6982   22.1521 C   0  0  0  0  0  0  0  0  0  0  0  0
   11.4739  -21.1412   22.5033 C   0  0  0  0  0  0  0  0  0  0  0  0
   12.0149  -21.4164   23.8461 C   0  0  0  0  0  0  0  0  0  0  0  0
   12.2793  -20.5144   24.8595 N   0  0  0  0  0  0  0  0  0  0  0  0
   12.7858  -21.1566   25.9209 C   0  0  0  0  0  0  0  0  0  0  0  0
   12.8544  -22.4548   25.6143 N   0  0  0  0  0  0  0  0  0  0  0  0
   12.3902  -22.6250   24.3595 C   0  0  0  0  0  0  0  0  0  0  0  0
   12.8591  -19.1515   22.1539 O   0  0  0  0  0  0  0  0  0  0  0  0
   13.6239  -19.1977   23.1777 O   0  0  0  0  0  0  0  0  0  0  0  0
  2  1  1  6
  3  2  1  0
  4  5  2  0
  4  2  1  0
  7  9  1  0
  7  6  1  0
  8  7  2  0
 10  9  1  0
 11 10  1  0
 11 12  1  0
 13 12  1  1
 13 14  1  0
 14  4  1  0
 15 13  1  0
 16 15  2  0
 17 15  1  0
 18 25  1  0
 18 17  1  0
 18 19  1  1
 20 19  1  0
 20 24  1  0
 21 20  2  0
 22 21  1  0
 22 23  1  0
 23 24  2  0
 25 27  1  0
 26 25  2  0
M  END
$$$$
