TTS.pdb
     RDKit          3D

 21 20  0  0  1  0  0  0  0  0999 V2000
   -4.8377  -27.1185   33.4042 C   0  0  0  0  0  0  0  0  0  0  0  0
   -3.3613  -26.9600   33.4937 C   0  0  1  0  0  0  0  0  0  0  0  0
   -2.8430  -28.0756   34.1517 O   0  0  0  0  0  0  0  0  0  0  0  0
   -2.6667  -26.7793   32.1860 C   0  0  2  0  0  0  0  0  0  0  0  0
   -1.2341  -26.8650   32.3240 N   0  0  0  0  0  0  0  0  0  0  0  0
   -3.0378  -25.5781   31.4479 C   0  0  0  0  0  0  0  0  0  0  0  0
   -2.6802  -24.4119   31.7730 O   0  0  0  0  0  0  0  0  0  0  0  0
   -2.5065  -24.8851   27.9332 C   0  0  0  0  0  0  0  0  0  0  0  0
   -4.0257  -24.9315   28.0470 C   0  0  1  0  0  0  0  0  0  0  0  0
   -4.4107  -26.2061   27.6471 O   0  0  0  0  0  0  0  0  0  0  0  0
   -4.3560  -24.6540   29.4875 C   0  0  2  0  0  0  0  0  0  0  0  0
   -3.8521  -25.7196   30.2897 N   0  0  0  0  0  0  0  0  0  0  0  0
   -5.7886  -24.3376   29.7229 C   0  0  0  0  0  0  0  0  0  0  0  0
   -6.5566  -25.2697   30.0490 O   0  0  0  0  0  0  0  0  0  0  0  0
   -7.3251  -20.8889   31.0788 O   0  0  0  0  0  0  0  0  0  0  0  0
   -8.0328  -21.3252   29.9742 C   0  0  0  0  0  0  0  0  0  0  0  0
   -7.7489  -22.8032   29.7501 C   0  0  2  0  0  0  0  0  0  0  0  0
   -6.3264  -23.0432   29.5979 N   0  0  0  0  0  0  0  0  0  0  0  0
   -8.5206  -23.2648   28.5828 C   0  0  0  0  0  0  0  0  0  0  0  0
   -7.8797  -23.6359   27.4124 O   0  0  0  0  0  0  0  0  0  0  0  0
   -9.7746  -23.3285   28.6333 O   0  0  0  0  0  0  0  0  0  0  0  0
  2  1  1  6
  2  4  1  0
  3  2  1  0
  4  5  1  1
  6  4  1  0
  6  7  2  0
  9  8  1  1
  9 11  1  0
 10  9  1  0
 11 12  1  1
 11 13  1  0
 12  6  1  0
 13 14  2  0
 13 18  1  0
 17 16  1  6
 16 15  1  0
 17 19  1  0
 18 17  1  0
 19 20  1  0
 21 19  2  0
M  END
$$$$
