TTS.pdb
     RDKit          3D

 21 20  0  0  1  0  0  0  0  0999 V2000
   -0.8590  -22.5090   21.3824 C   0  0  0  0  0  0  0  0  0  0  0  0
   -1.1573  -22.8192   22.8064 C   0  0  1  0  0  0  0  0  0  0  0  0
   -0.2996  -22.0627   23.6053 O   0  0  0  0  0  0  0  0  0  0  0  0
   -2.5706  -22.5818   23.2202 C   0  0  2  0  0  0  0  0  0  0  0  0
   -2.9999  -21.2396   22.9151 N   0  0  0  0  0  0  0  0  0  0  0  0
   -2.8742  -22.9122   24.6072 C   0  0  0  0  0  0  0  0  0  0  0  0
   -2.6417  -24.0368   25.1314 O   0  0  0  0  0  0  0  0  0  0  0  0
   -1.6292  -21.3220   27.4678 C   0  0  0  0  0  0  0  0  0  0  0  0
   -3.1182  -21.0306   27.6134 C   0  0  1  0  0  0  0  0  0  0  0  0
   -3.3144  -19.7403   27.1346 O   0  0  0  0  0  0  0  0  0  0  0  0
   -3.8393  -22.0659   26.7952 C   0  0  2  0  0  0  0  0  0  0  0  0
   -3.4686  -21.9126   25.4270 N   0  0  0  0  0  0  0  0  0  0  0  0
   -5.3061  -22.0992   27.0300 C   0  0  0  0  0  0  0  0  0  0  0  0
   -6.0542  -21.5498   26.1912 O   0  0  0  0  0  0  0  0  0  0  0  0
   -7.5026  -24.9252   27.5880 O   0  0  0  0  0  0  0  0  0  0  0  0
   -7.8754  -24.0843   28.6201 C   0  0  0  0  0  0  0  0  0  0  0  0
   -7.3339  -22.6885   28.3486 C   0  0  2  0  0  0  0  0  0  0  0  0
   -5.8976  -22.7170   28.1475 N   0  0  0  0  0  0  0  0  0  0  0  0
   -7.7243  -21.8018   29.4588 C   0  0  0  0  0  0  0  0  0  0  0  0
   -9.0563  -21.4982   29.6873 O   0  0  0  0  0  0  0  0  0  0  0  0
   -6.8517  -21.3073   30.2157 O   0  0  0  0  0  0  0  0  0  0  0  0
  2  1  1  6
  2  4  1  0
  3  2  1  0
  4  5  1  1
  6  4  1  0
  6  7  2  0
  9  8  1  6
  9 11  1  0
 10  9  1  0
 11 12  1  6
 11 13  1  0
 12  6  1  0
 13 14  2  0
 13 18  1  0
 17 16  1  1
 16 15  1  0
 17 19  1  0
 18 17  1  0
 19 20  1  0
 21 19  2  0
M  END
$$$$
