TTS.pdb
     RDKit          3D

 21 20  0  0  1  0  0  0  0  0999 V2000
    9.4227  -17.4277   14.7537 C   0  0  0  0  0  0  0  0  0  0  0  0
    9.7034  -16.7206   16.0320 C   0  0  1  0  0  0  0  0  0  0  0  0
   11.0581  -16.3882   16.0569 O   0  0  0  0  0  0  0  0  0  0  0  0
    8.8811  -15.4990   16.2699 C   0  0  2  0  0  0  0  0  0  0  0  0
    8.9570  -14.5782   15.1630 N   0  0  0  0  0  0  0  0  0  0  0  0
    9.1448  -14.8095   17.5269 C   0  0  0  0  0  0  0  0  0  0  0  0
    9.9030  -13.8060   17.6353 O   0  0  0  0  0  0  0  0  0  0  0  0
    6.5958  -13.5906   19.6145 C   0  0  0  0  0  0  0  0  0  0  0  0
    7.3291  -14.4802   20.6115 C   0  0  1  0  0  0  0  0  0  0  0  0
    6.5601  -15.6300   20.7513 O   0  0  0  0  0  0  0  0  0  0  0  0
    8.6834  -14.7598   20.0208 C   0  0  2  0  0  0  0  0  0  0  0  0
    8.5135  -15.2898   18.7082 N   0  0  0  0  0  0  0  0  0  0  0  0
    9.5628  -15.5744   20.8988 C   0  0  0  0  0  0  0  0  0  0  0  0
   10.0321  -16.6411   20.4439 O   0  0  0  0  0  0  0  0  0  0  0  0
    9.8953  -14.7300   24.8650 O   0  0  0  0  0  0  0  0  0  0  0  0
   10.9909  -15.4312   24.3967 C   0  0  0  0  0  0  0  0  0  0  0  0
   10.6266  -16.1106   23.0849 C   0  0  2  0  0  0  0  0  0  0  0  0
    9.8953  -15.2080   22.2162 N   0  0  0  0  0  0  0  0  0  0  0  0
    9.8677  -17.3389   23.3792 C   0  0  0  0  0  0  0  0  0  0  0  0
   10.4866  -18.4293   23.9679 O   0  0  0  0  0  0  0  0  0  0  0  0
    8.6450  -17.4143   23.0993 O   0  0  0  0  0  0  0  0  0  0  0  0
  2  1  1  6
  2  4  1  0
  3  2  1  0
  4  5  1  6
  6  4  1  0
  6  7  2  0
  9  8  1  6
  9 11  1  0
 10  9  1  0
 11 12  1  6
 11 13  1  0
 12  6  1  0
 13 14  2  0
 13 18  1  0
 17 16  1  1
 16 15  1  0
 17 19  1  0
 18 17  1  0
 19 20  1  0
 21 19  2  0
M  END
$$$$
