TTS.pdb
     RDKit          3D

 21 20  0  0  1  0  0  0  0  0999 V2000
    7.9069  -18.8128   18.2982 C   0  0  0  0  0  0  0  0  0  0  0  0
    8.4788  -18.2129   17.0630 C   0  0  1  0  0  0  0  0  0  0  0  0
    7.8642  -18.8123   15.9634 O   0  0  0  0  0  0  0  0  0  0  0  0
    8.3501  -16.7300   16.9649 C   0  0  2  0  0  0  0  0  0  0  0  0
    8.7021  -16.2473   15.6527 N   0  0  0  0  0  0  0  0  0  0  0  0
    9.0582  -15.9771   17.9930 C   0  0  0  0  0  0  0  0  0  0  0  0
   10.2936  -15.7205   17.9543 O   0  0  0  0  0  0  0  0  0  0  0  0
    7.4991  -12.9396   19.7851 C   0  0  0  0  0  0  0  0  0  0  0  0
    7.8420  -13.9580   20.8660 C   0  0  1  0  0  0  0  0  0  0  0  0
    6.6556  -14.6108   21.1810 O   0  0  0  0  0  0  0  0  0  0  0  0
    8.8697  -14.8821   20.2734 C   0  0  2  0  0  0  0  0  0  0  0  0
    8.3199  -15.4988   19.1114 N   0  0  0  0  0  0  0  0  0  0  0  0
    9.4526  -15.8357   21.2525 C   0  0  0  0  0  0  0  0  0  0  0  0
    9.0262  -17.0119   21.2618 O   0  0  0  0  0  0  0  0  0  0  0  0
   13.0093  -17.0163   24.2823 O   0  0  0  0  0  0  0  0  0  0  0  0
   12.4728  -16.0553   23.4457 C   0  0  0  0  0  0  0  0  0  0  0  0
   11.0713  -16.4788   23.0313 C   0  0  2  0  0  0  0  0  0  0  0  0
   10.4598  -15.4844   22.1704 N   0  0  0  0  0  0  0  0  0  0  0  0
   10.2731  -16.7344   24.2432 C   0  0  0  0  0  0  0  0  0  0  0  0
   10.5314  -17.8364   25.0415 O   0  0  0  0  0  0  0  0  0  0  0  0
    9.3442  -15.9538   24.5701 O   0  0  0  0  0  0  0  0  0  0  0  0
  2  1  1  1
  2  4  1  0
  3  2  1  0
  4  5  1  6
  6  4  1  0
  6  7  2  0
  9  8  1  6
  9 11  1  0
 10  9  1  0
 11 12  1  6
 11 13  1  0
 12  6  1  0
 13 14  2  0
 13 18  1  0
 17 16  1  1
 16 15  1  0
 17 19  1  0
 18 17  1  0
 19 20  1  0
 21 19  2  0
M  END
$$$$
