TTS.pdb
     RDKit          3D

 21 20  0  0  1  0  0  0  0  0999 V2000
    7.5529  -17.4802   13.8352 C   0  0  0  0  0  0  0  0  0  0  0  0
    8.3483  -16.7908   14.8863 C   0  0  1  0  0  0  0  0  0  0  0  0
    9.6949  -17.0915   14.6801 O   0  0  0  0  0  0  0  0  0  0  0  0
    8.1664  -15.3114   14.9452 C   0  0  2  0  0  0  0  0  0  0  0  0
    8.2919  -14.7040   13.6437 N   0  0  0  0  0  0  0  0  0  0  0  0
    9.0090  -14.6215   15.9143 C   0  0  0  0  0  0  0  0  0  0  0  0
   10.0971  -14.0514   15.6233 O   0  0  0  0  0  0  0  0  0  0  0  0
    7.2283  -12.7466   18.7344 C   0  0  0  0  0  0  0  0  0  0  0  0
    8.3045  -13.5824   19.4172 C   0  0  1  0  0  0  0  0  0  0  0  0
    7.6570  -14.6831   19.9670 O   0  0  0  0  0  0  0  0  0  0  0  0
    9.2904  -13.9669   18.3489 C   0  0  2  0  0  0  0  0  0  0  0  0
    8.5872  -14.5834   17.2727 N   0  0  0  0  0  0  0  0  0  0  0  0
   10.4443  -14.7545   18.8547 C   0  0  0  0  0  0  0  0  0  0  0  0
   10.5155  -15.9658   18.5499 O   0  0  0  0  0  0  0  0  0  0  0  0
   14.8364  -15.0867   20.7295 O   0  0  0  0  0  0  0  0  0  0  0  0
   13.8338  -14.2518   20.2724 C   0  0  0  0  0  0  0  0  0  0  0  0
   12.5332  -15.0361   20.1796 C   0  0  2  0  0  0  0  0  0  0  0  0
   11.4617  -14.2084   19.6591 N   0  0  0  0  0  0  0  0  0  0  0  0
   12.2154  -15.5904   21.5074 C   0  0  0  0  0  0  0  0  0  0  0  0
   12.9747  -16.6157   22.0465 O   0  0  0  0  0  0  0  0  0  0  0  0
   11.2483  -15.1393   22.1708 O   0  0  0  0  0  0  0  0  0  0  0  0
  2  1  1  6
  2  4  1  0
  3  2  1  0
  4  5  1  6
  6  4  1  0
  6  7  2  0
  9  8  1  6
  9 11  1  0
 10  9  1  0
 11 12  1  6
 11 13  1  0
 12  6  1  0
 13 14  2  0
 13 18  1  0
 17 16  1  1
 16 15  1  0
 17 19  1  0
 18 17  1  0
 19 20  1  0
 21 19  2  0
M  END
$$$$
