TTS.pdb
     RDKit          3D

 21 20  0  0  1  0  0  0  0  0999 V2000
    8.0982  -17.7935   14.6353 C   0  0  0  0  0  0  0  0  0  0  0  0
    8.5767  -17.2214   15.9224 C   0  0  1  0  0  0  0  0  0  0  0  0
    9.8436  -17.7426   16.1859 O   0  0  0  0  0  0  0  0  0  0  0  0
    8.6259  -15.7312   15.9697 C   0  0  2  0  0  0  0  0  0  0  0  0
    9.1993  -15.1757   14.7691 N   0  0  0  0  0  0  0  0  0  0  0  0
    9.2703  -15.1696   17.1506 C   0  0  0  0  0  0  0  0  0  0  0  0
   10.4831  -14.8222   17.1943 O   0  0  0  0  0  0  0  0  0  0  0  0
    7.3019  -12.8400   19.4519 C   0  0  0  0  0  0  0  0  0  0  0  0
    7.8672  -13.9233   20.3628 C   0  0  1  0  0  0  0  0  0  0  0  0
    6.8186  -14.7949   20.6341 O   0  0  0  0  0  0  0  0  0  0  0  0
    8.9840  -14.5830   19.6019 C   0  0  2  0  0  0  0  0  0  0  0  0
    8.4925  -14.9991   18.3299 N   0  0  0  0  0  0  0  0  0  0  0  0
    9.6802  -15.6503   20.3661 C   0  0  0  0  0  0  0  0  0  0  0  0
    9.8889  -16.7462   19.7998 O   0  0  0  0  0  0  0  0  0  0  0  0
   12.9184  -17.6019   22.6957 O   0  0  0  0  0  0  0  0  0  0  0  0
   12.2702  -16.6339   21.9514 C   0  0  0  0  0  0  0  0  0  0  0  0
   10.8144  -16.5590   22.3875 C   0  0  2  0  0  0  0  0  0  0  0  0
   10.1171  -15.4923   21.6944 N   0  0  0  0  0  0  0  0  0  0  0  0
   10.7632  -16.3999   23.8515 C   0  0  0  0  0  0  0  0  0  0  0  0
   11.2515  -17.3897   24.6884 O   0  0  0  0  0  0  0  0  0  0  0  0
   10.2744  -15.3611   24.3624 O   0  0  0  0  0  0  0  0  0  0  0  0
  2  1  1  6
  2  4  1  0
  3  2  1  0
  4  5  1  6
  6  4  1  0
  6  7  2  0
  9  8  1  6
  9 11  1  0
 10  9  1  0
 11 12  1  6
 11 13  1  0
 12  6  1  0
 13 14  2  0
 13 18  1  0
 17 16  1  6
 16 15  1  0
 17 19  1  0
 18 17  1  0
 19 20  1  0
 21 19  2  0
M  END
$$$$
