TTS.pdb
     RDKit          3D

 21 20  0  0  1  0  0  0  0  0999 V2000
   12.8099  -18.3573   21.1441 C   0  0  0  0  0  0  0  0  0  0  0  0
   11.6068  -18.5484   20.2904 C   0  0  1  0  0  0  0  0  0  0  0  0
   10.6031  -19.1178   21.0743 O   0  0  0  0  0  0  0  0  0  0  0  0
   11.0936  -17.3087   19.6383 C   0  0  2  0  0  0  0  0  0  0  0  0
   12.0191  -16.7962   18.6588 N   0  0  0  0  0  0  0  0  0  0  0  0
   10.6817  -16.2518   20.5540 C   0  0  0  0  0  0  0  0  0  0  0  0
   11.4807  -15.4436   21.1034 O   0  0  0  0  0  0  0  0  0  0  0  0
    7.5682  -14.1775   19.8348 C   0  0  0  0  0  0  0  0  0  0  0  0
    7.3603  -14.7763   21.2209 C   0  0  1  0  0  0  0  0  0  0  0  0
    6.5300  -15.8785   21.0520 O   0  0  0  0  0  0  0  0  0  0  0  0
    8.7229  -15.1531   21.7334 C   0  0  2  0  0  0  0  0  0  0  0  0
    9.2970  -16.1158   20.8522 N   0  0  0  0  0  0  0  0  0  0  0  0
    8.7348  -15.5523   23.1646 C   0  0  0  0  0  0  0  0  0  0  0  0
    9.1454  -16.6969   23.4583 O   0  0  0  0  0  0  0  0  0  0  0  0
    6.7919  -13.3623   26.0042 O   0  0  0  0  0  0  0  0  0  0  0  0
    7.8686  -14.0540   26.5273 C   0  0  0  0  0  0  0  0  0  0  0  0
    8.2483  -15.1807   25.5777 C   0  0  2  0  0  0  0  0  0  0  0  0
    8.3078  -14.7091   24.2072 N   0  0  0  0  0  0  0  0  0  0  0  0
    7.2911  -16.2882   25.7457 C   0  0  0  0  0  0  0  0  0  0  0  0
    7.1996  -16.9683   26.9488 O   0  0  0  0  0  0  0  0  0  0  0  0
    6.5424  -16.6321   24.7969 O   0  0  0  0  0  0  0  0  0  0  0  0
  2  1  1  1
  2  4  1  0
  3  2  1  0
  4  5  1  6
  6  4  1  0
  6  7  2  0
  9  8  1  6
  9 11  1  0
 10  9  1  0
 11 12  1  6
 11 13  1  0
 12  6  1  0
 13 14  2  0
 13 18  1  0
 17 16  1  1
 16 15  1  0
 17 19  1  0
 18 17  1  0
 19 20  1  0
 21 19  2  0
M  END
$$$$
