TTS.pdb
     RDKit          3D

 21 20  0  0  1  0  0  0  0  0999 V2000
    8.8137  -11.6467   19.5007 C   0  0  0  0  0  0  0  0  0  0  0  0
    9.0088  -12.9932   20.1021 C   0  0  1  0  0  0  0  0  0  0  0  0
    8.3226  -13.0311   21.3162 O   0  0  0  0  0  0  0  0  0  0  0  0
    8.5772  -14.1348   19.2444 C   0  0  2  0  0  0  0  0  0  0  0  0
    7.2396  -13.9494   18.7390 N   0  0  0  0  0  0  0  0  0  0  0  0
    8.7158  -15.4530   19.8512 C   0  0  0  0  0  0  0  0  0  0  0  0
    7.7445  -16.1431   20.2684 O   0  0  0  0  0  0  0  0  0  0  0  0
   10.3287  -18.2230   18.3934 C   0  0  0  0  0  0  0  0  0  0  0  0
   11.1623  -18.0701   19.6602 C   0  0  1  0  0  0  0  0  0  0  0  0
   12.3418  -17.4397   19.2804 O   0  0  0  0  0  0  0  0  0  0  0  0
   10.3457  -17.2413   20.6129 C   0  0  2  0  0  0  0  0  0  0  0  0
   10.0213  -16.0029   19.9854 N   0  0  0  0  0  0  0  0  0  0  0  0
   10.9571  -17.1013   21.9599 C   0  0  0  0  0  0  0  0  0  0  0  0
   11.5787  -16.0479   22.2231 O   0  0  0  0  0  0  0  0  0  0  0  0
   11.4932  -18.5136   26.5228 O   0  0  0  0  0  0  0  0  0  0  0  0
   10.7500  -18.5583   25.3579 C   0  0  0  0  0  0  0  0  0  0  0  0
   11.5573  -17.9409   24.2255 C   0  0  2  0  0  0  0  0  0  0  0  0
   10.8732  -18.0924   22.9553 N   0  0  0  0  0  0  0  0  0  0  0  0
   12.9001  -18.5474   24.2118 C   0  0  0  0  0  0  0  0  0  0  0  0
   13.7967  -18.3048   25.2393 O   0  0  0  0  0  0  0  0  0  0  0  0
   13.2513  -19.2954   23.2651 O   0  0  0  0  0  0  0  0  0  0  0  0
  2  1  1  6
  2  4  1  0
  3  2  1  0
  4  5  1  1
  6  4  1  0
  6  7  2  0
  9  8  1  6
  9 11  1  0
 10  9  1  0
 11 12  1  6
 11 13  1  0
 12  6  1  0
 13 14  2  0
 13 18  1  0
 17 16  1  1
 16 15  1  0
 17 19  1  0
 18 17  1  0
 19 20  1  0
 21 19  2  0
M  END
$$$$
