TTS.pdb
     RDKit          3D

 21 20  0  0  1  0  0  0  0  0999 V2000
   11.2658  -17.3285   15.5602 C   0  0  0  0  0  0  0  0  0  0  0  0
    9.7890  -17.3018   15.7369 C   0  0  1  0  0  0  0  0  0  0  0  0
    9.4542  -18.2138   16.7382 O   0  0  0  0  0  0  0  0  0  0  0  0
    9.2178  -15.9632   16.0640 C   0  0  2  0  0  0  0  0  0  0  0  0
    9.3368  -15.0453   14.9585 N   0  0  0  0  0  0  0  0  0  0  0  0
    9.7238  -15.3559   17.2889 C   0  0  0  0  0  0  0  0  0  0  0  0
   10.8215  -14.7378   17.3683 O   0  0  0  0  0  0  0  0  0  0  0  0
    7.5128  -13.2306   19.2743 C   0  0  0  0  0  0  0  0  0  0  0  0
    7.9924  -14.2550   20.2958 C   0  0  1  0  0  0  0  0  0  0  0  0
    6.9629  -15.1783   20.4393 O   0  0  0  0  0  0  0  0  0  0  0  0
    9.2439  -14.8689   19.7317 C   0  0  2  0  0  0  0  0  0  0  0  0
    8.9392  -15.4615   18.4713 N   0  0  0  0  0  0  0  0  0  0  0  0
    9.9456  -15.7743   20.6781 C   0  0  0  0  0  0  0  0  0  0  0  0
    9.9366  -17.0028   20.4415 O   0  0  0  0  0  0  0  0  0  0  0  0
   12.7274  -16.4617   24.5762 O   0  0  0  0  0  0  0  0  0  0  0  0
   12.1077  -15.5311   23.7630 C   0  0  0  0  0  0  0  0  0  0  0  0
   11.2155  -16.2543   22.7650 C   0  0  2  0  0  0  0  0  0  0  0  0
   10.6200  -15.3215   21.8272 N   0  0  0  0  0  0  0  0  0  0  0  0
   10.2012  -17.0259   23.5046 C   0  0  0  0  0  0  0  0  0  0  0  0
   10.5181  -18.2478   24.0745 O   0  0  0  0  0  0  0  0  0  0  0  0
    9.0312  -16.5846   23.6289 O   0  0  0  0  0  0  0  0  0  0  0  0
  2  1  1  1
  2  4  1  0
  3  2  1  0
  4  5  1  6
  6  4  1  0
  6  7  2  0
  9  8  1  6
  9 11  1  0
 10  9  1  0
 11 12  1  6
 11 13  1  0
 12  6  1  0
 13 14  2  0
 13 18  1  0
 17 16  1  1
 16 15  1  0
 17 19  1  0
 18 17  1  0
 19 20  1  0
 21 19  2  0
M  END
$$$$
