TTS.pdb
     RDKit          3D

 21 20  0  0  1  0  0  0  0  0999 V2000
   11.2737  -17.6468   27.2869 C   0  0  0  0  0  0  0  0  0  0  0  0
   10.2848  -18.6228   27.8183 C   0  0  1  0  0  0  0  0  0  0  0  0
   10.6033  -18.8827   29.1515 O   0  0  0  0  0  0  0  0  0  0  0  0
    8.8595  -18.1948   27.7157 C   0  0  2  0  0  0  0  0  0  0  0  0
    7.9794  -19.0879   28.4273 N   0  0  0  0  0  0  0  0  0  0  0  0
    8.3749  -17.9740   26.3587 C   0  0  0  0  0  0  0  0  0  0  0  0
    7.8607  -18.8741   25.6382 O   0  0  0  0  0  0  0  0  0  0  0  0
    6.4490  -14.9566   25.3693 C   0  0  0  0  0  0  0  0  0  0  0  0
    7.6291  -14.9385   24.4050 C   0  0  1  0  0  0  0  0  0  0  0  0
    8.4985  -13.9567   24.8666 O   0  0  0  0  0  0  0  0  0  0  0  0
    8.2369  -16.3134   24.4460 C   0  0  2  0  0  0  0  0  0  0  0  0
    8.4842  -16.6679   25.8046 N   0  0  0  0  0  0  0  0  0  0  0  0
    9.4106  -16.4760   23.5495 C   0  0  0  0  0  0  0  0  0  0  0  0
   10.5342  -16.6566   24.0693 O   0  0  0  0  0  0  0  0  0  0  0  0
   11.2160  -19.2769   20.8565 O   0  0  0  0  0  0  0  0  0  0  0  0
   10.2593  -18.6420   21.6265 C   0  0  0  0  0  0  0  0  0  0  0  0
   10.2735  -17.1528   21.3144 C   0  0  2  0  0  0  0  0  0  0  0  0
    9.3239  -16.4373   22.1454 N   0  0  0  0  0  0  0  0  0  0  0  0
   10.0096  -16.9647   19.8770 C   0  0  0  0  0  0  0  0  0  0  0  0
   11.0060  -17.1829   18.9400 O   0  0  0  0  0  0  0  0  0  0  0  0
    8.8735  -16.6027   19.4803 O   0  0  0  0  0  0  0  0  0  0  0  0
  2  1  1  1
  2  4  1  0
  3  2  1  0
  4  5  1  6
  6  4  1  0
  6  7  2  0
  9  8  1  1
  9 11  1  0
 10  9  1  0
 11 12  1  1
 11 13  1  0
 12  6  1  0
 13 14  2  0
 13 18  1  0
 17 16  1  1
 16 15  1  0
 17 19  1  0
 18 17  1  0
 19 20  1  0
 21 19  2  0
M  END
$$$$
