TTS.pdb
     RDKit          3D

 21 20  0  0  1  0  0  0  0  0999 V2000
   13.0515  -17.2683   17.4445 C   0  0  0  0  0  0  0  0  0  0  0  0
   13.9334  -16.0837   17.2661 C   0  0  1  0  0  0  0  0  0  0  0  0
   14.5570  -16.1889   16.0226 O   0  0  0  0  0  0  0  0  0  0  0  0
   13.2457  -14.7644   17.3742 C   0  0  2  0  0  0  0  0  0  0  0  0
   14.1049  -13.6781   16.9737 N   0  0  0  0  0  0  0  0  0  0  0  0
   12.6402  -14.4855   18.6706 C   0  0  0  0  0  0  0  0  0  0  0  0
   13.2777  -14.0430   19.6662 O   0  0  0  0  0  0  0  0  0  0  0  0
    9.0531  -13.0686   19.0238 C   0  0  0  0  0  0  0  0  0  0  0  0
    9.0844  -14.3923   19.7788 C   0  0  1  0  0  0  0  0  0  0  0  0
    8.5022  -15.3363   18.9405 O   0  0  0  0  0  0  0  0  0  0  0  0
   10.5308  -14.6881   20.0649 C   0  0  2  0  0  0  0  0  0  0  0  0
   11.2467  -14.7236   18.8325 N   0  0  0  0  0  0  0  0  0  0  0  0
   10.7387  -15.8809   20.9262 C   0  0  0  0  0  0  0  0  0  0  0  0
   11.0773  -16.9549   20.3811 O   0  0  0  0  0  0  0  0  0  0  0  0
   12.0550  -16.0949   24.6935 O   0  0  0  0  0  0  0  0  0  0  0  0
   10.8718  -16.7992   24.5696 C   0  0  0  0  0  0  0  0  0  0  0  0
   10.6150  -17.0908   23.0985 C   0  0  2  0  0  0  0  0  0  0  0  0
   10.5745  -15.8651   22.3237 N   0  0  0  0  0  0  0  0  0  0  0  0
    9.3695  -17.8688   22.9773 C   0  0  0  0  0  0  0  0  0  0  0  0
    8.2688  -17.3447   22.3199 O   0  0  0  0  0  0  0  0  0  0  0  0
    9.2886  -19.0218   23.4702 O   0  0  0  0  0  0  0  0  0  0  0  0
  2  1  1  6
  2  4  1  0
  3  2  1  0
  4  5  1  1
  6  4  1  0
  6  7  2  0
  9  8  1  6
  9 11  1  0
 10  9  1  0
 11 12  1  6
 11 13  1  0
 12  6  1  0
 13 14  2  0
 13 18  1  0
 17 16  1  1
 16 15  1  0
 17 19  1  0
 18 17  1  0
 19 20  1  0
 21 19  2  0
M  END
$$$$
