AMD.pdb
     RDKit          3D

 22 21  0  0  1  0  0  0  0  0999 V2000
   20.7661  -15.8416  -17.9052 C   0  0  0  0  0  0  0  0  0  0  0  0
   21.1395  -14.4611  -18.3267 C   0  0  2  0  0  0  0  0  0  0  0  0
   22.1660  -14.5226  -19.3364 N   0  0  0  0  0  0  0  0  0  0  0  0
   21.5107  -13.5629  -17.1994 C   0  0  0  0  0  0  0  0  0  0  0  0
   20.7375  -13.3698  -16.2241 O   0  0  0  0  0  0  0  0  0  0  0  0
   27.4827   -9.8023  -17.0099 C   0  0  0  0  0  0  0  0  0  0  0  0
   27.0137  -10.7554  -15.5569 S   0  0  0  0  0  0  0  0  0  0  0  0
   25.1916  -10.7767  -15.3450 C   0  0  0  0  0  0  0  0  0  0  0  0
   24.6729  -11.7897  -16.3482 C   0  0  0  0  0  0  0  0  0  0  0  0
   23.1626  -11.9288  -16.2839 C   0  0  2  0  0  0  0  0  0  0  0  0
   22.7811  -12.9281  -17.2702 N   0  0  0  0  0  0  0  0  0  0  0  0
   22.6136  -10.5857  -16.6514 C   0  0  0  0  0  0  0  0  0  0  0  0
   22.7012  -10.1334  -17.8189 O   0  0  0  0  0  0  0  0  0  0  0  0
   21.9794   -9.8011  -15.6675 N   0  0  0  0  0  0  0  0  0  0  0  0
   21.3830   -8.4833  -15.9395 C   0  0  1  0  0  0  0  0  0  0  0  0
   20.3531   -8.1610  -14.8847 C   0  0  0  0  0  0  0  0  0  0  0  0
   19.7396   -6.8630  -15.1593 C   0  0  0  0  0  0  0  0  0  0  0  0
   18.9075   -6.7748  -16.1193 O   0  0  0  0  0  0  0  0  0  0  0  0
   22.5168   -7.5343  -15.9033 C   0  0  0  0  0  0  0  0  0  0  0  0
   23.5415   -7.7223  -15.2270 O   0  0  0  0  0  0  0  0  0  0  0  0
   20.0389   -5.7524  -14.4164 O   0  0  0  0  0  0  0  0  0  0  0  0
   22.4869   -6.3414  -16.6533 O   0  0  0  0  0  0  0  0  0  0  0  0
  2  1  1  1
  3  2  1  0
  4 11  1  0
  4  2  1  0
  5  4  2  0
  6  7  1  0
  7  8  1  0
  8  9  1  0
 10  9  1  6
 10 11  1  0
 12 14  1  0
 12 10  1  0
 13 12  2  0
 15 14  1  0
 15 16  1  1
 17 16  1  0
 17 21  1  0
 18 17  2  0
 19 15  1  0
 20 19  2  0
 22 19  1  0
M  END
$$$$
