AMD.pdb
     RDKit          3D

 22 21  0  0  1  0  0  0  0  0999 V2000
   20.7618  -15.7497  -16.7916 C   0  0  0  0  0  0  0  0  0  0  0  0
   21.0411  -14.4140  -17.3924 C   0  0  2  0  0  0  0  0  0  0  0  0
   22.0015  -14.5523  -18.4580 N   0  0  0  0  0  0  0  0  0  0  0  0
   21.4418  -13.3765  -16.4033 C   0  0  0  0  0  0  0  0  0  0  0  0
   20.7344  -13.1148  -15.3945 O   0  0  0  0  0  0  0  0  0  0  0  0
   27.5684  -11.7208  -15.6055 C   0  0  0  0  0  0  0  0  0  0  0  0
   26.8450  -10.0743  -15.5324 S   0  0  0  0  0  0  0  0  0  0  0  0
   25.0431  -10.1624  -15.1994 C   0  0  0  0  0  0  0  0  0  0  0  0
   24.5350  -11.3482  -15.9976 C   0  0  0  0  0  0  0  0  0  0  0  0
   23.0385  -11.5428  -15.8330 C   0  0  2  0  0  0  0  0  0  0  0  0
   22.6625  -12.6891  -16.6464 N   0  0  0  0  0  0  0  0  0  0  0  0
   22.4048  -10.2918  -16.3562 C   0  0  0  0  0  0  0  0  0  0  0  0
   22.4211  -10.0043  -17.5778 O   0  0  0  0  0  0  0  0  0  0  0  0
   21.7703   -9.4072  -15.4612 N   0  0  0  0  0  0  0  0  0  0  0  0
   20.9972   -8.2314  -15.8926 C   0  0  1  0  0  0  0  0  0  0  0  0
   19.7595   -8.0930  -15.0403 C   0  0  0  0  0  0  0  0  0  0  0  0
   19.0282   -6.8817  -15.4068 C   0  0  0  0  0  0  0  0  0  0  0  0
   18.3341   -6.8902  -16.4744 O   0  0  0  0  0  0  0  0  0  0  0  0
   21.9132   -7.0839  -15.7150 C   0  0  0  0  0  0  0  0  0  0  0  0
   22.7788   -7.0340  -14.8255 O   0  0  0  0  0  0  0  0  0  0  0  0
   19.0749   -5.7504  -14.6368 O   0  0  0  0  0  0  0  0  0  0  0  0
   21.8450   -5.9640  -16.5682 O   0  0  0  0  0  0  0  0  0  0  0  0
  2  1  1  1
  3  2  1  0
  4 11  1  0
  4  2  1  0
  5  4  2  0
  6  7  1  0
  7  8  1  0
  8  9  1  0
 10  9  1  6
 10 11  1  0
 12 14  1  0
 12 10  1  0
 13 12  2  0
 15 14  1  0
 15 16  1  1
 17 16  1  0
 17 21  1  0
 18 17  2  0
 19 15  1  0
 20 19  2  0
 22 19  1  0
M  END
$$$$
