AMD.pdb
     RDKit          3D

 22 21  0  0  1  0  0  0  0  0999 V2000
   18.8084  -15.1810  -16.1899 C   0  0  0  0  0  0  0  0  0  0  0  0
   19.0065  -13.8668  -16.8656 C   0  0  2  0  0  0  0  0  0  0  0  0
   19.5942  -14.0728  -18.1653 N   0  0  0  0  0  0  0  0  0  0  0  0
   19.7656  -12.8766  -16.0541 C   0  0  0  0  0  0  0  0  0  0  0  0
   19.4250  -12.5844  -14.8772 O   0  0  0  0  0  0  0  0  0  0  0  0
   26.9077  -12.3263  -14.8478 C   0  0  0  0  0  0  0  0  0  0  0  0
   25.6876  -11.7971  -16.0606 S   0  0  0  0  0  0  0  0  0  0  0  0
   24.0185  -11.6846  -15.3077 C   0  0  0  0  0  0  0  0  0  0  0  0
   23.0800  -11.3174  -16.4416 C   0  0  0  0  0  0  0  0  0  0  0  0
   21.6379  -11.2256  -15.9765 C   0  0  2  0  0  0  0  0  0  0  0  0
   20.8969  -12.2706  -16.6663 N   0  0  0  0  0  0  0  0  0  0  0  0
   21.1593   -9.8713  -16.3976 C   0  0  0  0  0  0  0  0  0  0  0  0
   21.0818   -9.5448  -17.6069 O   0  0  0  0  0  0  0  0  0  0  0  0
   20.7831   -8.9312  -15.4173 N   0  0  0  0  0  0  0  0  0  0  0  0
   20.2881   -7.5818  -15.7339 C   0  0  1  0  0  0  0  0  0  0  0  0
   18.8010   -7.5120  -15.4865 C   0  0  0  0  0  0  0  0  0  0  0  0
   18.3241   -6.1421  -15.6662 C   0  0  0  0  0  0  0  0  0  0  0  0
   18.3972   -5.6200  -16.8254 O   0  0  0  0  0  0  0  0  0  0  0  0
   21.0344   -6.6781  -14.8318 C   0  0  0  0  0  0  0  0  0  0  0  0
   20.8805   -5.4456  -14.8216 O   0  0  0  0  0  0  0  0  0  0  0  0
   17.8084   -5.4158  -14.6262 O   0  0  0  0  0  0  0  0  0  0  0  0
   21.9799   -7.1860  -13.9180 O   0  0  0  0  0  0  0  0  0  0  0  0
  2  1  1  1
  3  2  1  0
  4 11  1  0
  4  2  1  0
  5  4  2  0
  6  7  1  0
  7  8  1  0
  8  9  1  0
 10  9  1  6
 10 11  1  0
 12 14  1  0
 12 10  1  0
 13 12  2  0
 15 14  1  0
 15 16  1  1
 17 16  1  0
 17 21  1  0
 18 17  2  0
 19 15  1  0
 20 19  2  0
 22 19  1  0
M  END
$$$$
