AMD.pdb
     RDKit          3D

 22 21  0  0  1  0  0  0  0  0999 V2000
   21.4431  -11.7563  -20.1283 C   0  0  0  0  0  0  0  0  0  0  0  0
   22.8131  -11.5262  -19.5871 C   0  0  2  0  0  0  0  0  0  0  0  0
   23.5828  -12.7410  -19.6817 N   0  0  0  0  0  0  0  0  0  0  0  0
   22.8338  -10.9511  -18.2145 C   0  0  0  0  0  0  0  0  0  0  0  0
   21.9609  -11.2511  -17.3575 O   0  0  0  0  0  0  0  0  0  0  0  0
   28.1656  -12.7500  -14.9209 C   0  0  0  0  0  0  0  0  0  0  0  0
   27.6288  -11.1145  -15.4468 S   0  0  0  0  0  0  0  0  0  0  0  0
   25.8487  -11.1182  -15.8903 C   0  0  0  0  0  0  0  0  0  0  0  0
   25.4936   -9.6716  -16.1777 C   0  0  0  0  0  0  0  0  0  0  0  0
   24.0341   -9.5121  -16.5636 C   0  0  2  0  0  0  0  0  0  0  0  0
   23.8853  -10.0438  -17.9097 N   0  0  0  0  0  0  0  0  0  0  0  0
   23.7658   -8.0397  -16.5433 C   0  0  0  0  0  0  0  0  0  0  0  0
   24.4267   -7.2382  -17.2477 O   0  0  0  0  0  0  0  0  0  0  0  0
   22.7458   -7.5303  -15.7150 N   0  0  0  0  0  0  0  0  0  0  0  0
   22.4217   -6.0982  -15.6128 C   0  0  1  0  0  0  0  0  0  0  0  0
   21.1506   -5.8066  -16.3722 C   0  0  0  0  0  0  0  0  0  0  0  0
   20.8188   -4.3866  -16.2728 C   0  0  0  0  0  0  0  0  0  0  0  0
   21.7652   -3.5515  -16.1035 O   0  0  0  0  0  0  0  0  0  0  0  0
   22.2631   -5.8432  -14.1647 C   0  0  0  0  0  0  0  0  0  0  0  0
   22.1064   -4.7079  -13.6857 O   0  0  0  0  0  0  0  0  0  0  0  0
   19.5268   -3.9405  -16.3545 O   0  0  0  0  0  0  0  0  0  0  0  0
   22.2830   -6.9036  -13.2362 O   0  0  0  0  0  0  0  0  0  0  0  0
  2  1  1  1
  3  2  1  0
  4 11  1  0
  4  2  1  0
  5  4  2  0
  6  7  1  0
  7  8  1  0
  8  9  1  0
 10  9  1  6
 10 11  1  0
 12 14  1  0
 12 10  1  0
 13 12  2  0
 15 14  1  0
 15 16  1  6
 17 16  1  0
 17 21  1  0
 18 17  2  0
 19 15  1  0
 20 19  2  0
 22 19  1  0
M  END
$$$$
