AMD.pdb
     RDKit          3D

 22 21  0  0  1  0  0  0  0  0999 V2000
   20.0604  -13.0211  -17.3297 C   0  0  0  0  0  0  0  0  0  0  0  0
   20.5255  -11.6784  -17.7811 C   0  0  2  0  0  0  0  0  0  0  0  0
   21.4945  -11.8300  -18.8372 N   0  0  0  0  0  0  0  0  0  0  0  0
   21.0223  -10.8077  -16.6810 C   0  0  0  0  0  0  0  0  0  0  0  0
   20.3382  -10.5938  -15.6452 O   0  0  0  0  0  0  0  0  0  0  0  0
   27.4432  -12.2615  -14.9004 C   0  0  0  0  0  0  0  0  0  0  0  0
   26.6925  -10.7857  -15.6061 S   0  0  0  0  0  0  0  0  0  0  0  0
   24.8670  -10.8285  -15.4298 C   0  0  0  0  0  0  0  0  0  0  0  0
   24.3760   -9.4749  -15.9074 C   0  0  0  0  0  0  0  0  0  0  0  0
   22.8650   -9.3575  -15.8216 C   0  0  2  0  0  0  0  0  0  0  0  0
   22.3079  -10.2240  -16.8491 N   0  0  0  0  0  0  0  0  0  0  0  0
   22.5505   -7.9230  -16.1111 C   0  0  0  0  0  0  0  0  0  0  0  0
   22.7632   -7.4150  -17.2389 O   0  0  0  0  0  0  0  0  0  0  0  0
   22.0005   -7.1135  -15.0970 N   0  0  0  0  0  0  0  0  0  0  0  0
   21.5931   -5.7147  -15.3059 C   0  0  1  0  0  0  0  0  0  0  0  0
   20.1113   -5.5719  -15.0591 C   0  0  0  0  0  0  0  0  0  0  0  0
   19.3587   -6.0646  -16.2112 C   0  0  0  0  0  0  0  0  0  0  0  0
   19.7885   -5.7938  -17.3790 O   0  0  0  0  0  0  0  0  0  0  0  0
   22.3864   -4.9347  -14.3314 C   0  0  0  0  0  0  0  0  0  0  0  0
   22.9729   -5.4474  -13.3640 O   0  0  0  0  0  0  0  0  0  0  0  0
   18.2137   -6.8007  -16.0634 O   0  0  0  0  0  0  0  0  0  0  0  0
   22.5171   -3.5369  -14.4577 O   0  0  0  0  0  0  0  0  0  0  0  0
  2  1  1  1
  3  2  1  0
  4 11  1  0
  4  2  1  0
  5  4  2  0
  6  7  1  0
  7  8  1  0
  8  9  1  0
 10  9  1  6
 10 11  1  0
 12 14  1  0
 12 10  1  0
 13 12  2  0
 15 14  1  0
 15 16  1  1
 17 16  1  0
 17 21  1  0
 18 17  2  0
 19 15  1  0
 20 19  2  0
 22 19  1  0
M  END
$$$$
