AMD.pdb
     RDKit          3D

 22 21  0  0  1  0  0  0  0  0999 V2000
   25.8163  -14.1799  -16.5139 C   0  0  0  0  0  0  0  0  0  0  0  0
   26.1465  -13.0029  -17.3674 C   0  0  2  0  0  0  0  0  0  0  0  0
   26.4946  -13.4471  -18.6935 N   0  0  0  0  0  0  0  0  0  0  0  0
   27.1790  -12.1027  -16.7852 C   0  0  0  0  0  0  0  0  0  0  0  0
   27.0391  -11.5840  -15.6460 O   0  0  0  0  0  0  0  0  0  0  0  0
   34.8959  -10.7515  -17.6038 C   0  0  0  0  0  0  0  0  0  0  0  0
   33.3750  -11.6522  -17.9429 S   0  0  0  0  0  0  0  0  0  0  0  0
   31.9268  -10.7947  -17.2129 C   0  0  0  0  0  0  0  0  0  0  0  0
   30.7125  -11.5895  -17.6549 C   0  0  0  0  0  0  0  0  0  0  0  0
   29.4310  -11.0542  -17.0422 C   0  0  2  0  0  0  0  0  0  0  0  0
   28.3356  -11.8512  -17.5731 N   0  0  0  0  0  0  0  0  0  0  0  0
   29.3226   -9.6334  -17.5007 C   0  0  0  0  0  0  0  0  0  0  0  0
   30.0193   -8.7209  -16.9937 O   0  0  0  0  0  0  0  0  0  0  0  0
   28.4173   -9.3019  -18.5286 N   0  0  0  0  0  0  0  0  0  0  0  0
   28.3203   -7.9592  -19.1235 C   0  0  1  0  0  0  0  0  0  0  0  0
   27.9843   -8.0733  -20.5903 C   0  0  0  0  0  0  0  0  0  0  0  0
   29.0935   -8.6906  -21.3148 C   0  0  0  0  0  0  0  0  0  0  0  0
   30.2823   -8.4490  -20.9271 O   0  0  0  0  0  0  0  0  0  0  0  0
   27.2441   -7.2819  -18.3682 C   0  0  0  0  0  0  0  0  0  0  0  0
   27.0315   -6.0598  -18.4324 O   0  0  0  0  0  0  0  0  0  0  0  0
   28.8843   -9.5117  -22.3904 O   0  0  0  0  0  0  0  0  0  0  0  0
   26.3874   -8.0099  -17.5181 O   0  0  0  0  0  0  0  0  0  0  0  0
  2  1  1  1
  3  2  1  0
  4 11  1  0
  4  2  1  0
  5  4  2  0
  6  7  1  0
  7  8  1  0
  8  9  1  0
 10  9  1  6
 10 11  1  0
 12 14  1  0
 12 10  1  0
 13 12  2  0
 15 14  1  0
 15 16  1  6
 17 16  1  0
 17 21  1  0
 18 17  2  0
 19 15  1  0
 20 19  2  0
 22 19  1  0
M  END
$$$$
