AMD.pdb
     RDKit          3D

 22 21  0  0  1  0  0  0  0  0999 V2000
   23.8176  -24.5733  -17.3320 C   0  0  0  0  0  0  0  0  0  0  0  0
   24.5560  -24.1381  -16.1121 C   0  0  2  0  0  0  0  0  0  0  0  0
   24.5217  -25.1865  -15.1238 N   0  0  0  0  0  0  0  0  0  0  0  0
   24.1024  -22.8310  -15.5633 C   0  0  0  0  0  0  0  0  0  0  0  0
   23.0102  -22.7147  -14.9468 O   0  0  0  0  0  0  0  0  0  0  0  0
   28.2774  -17.8270  -15.5486 C   0  0  0  0  0  0  0  0  0  0  0  0
   27.1800  -17.4604  -14.1699 S   0  0  0  0  0  0  0  0  0  0  0  0
   25.5444  -18.2583  -14.4017 C   0  0  0  0  0  0  0  0  0  0  0  0
   25.8359  -19.6394  -14.9577 C   0  0  0  0  0  0  0  0  0  0  0  0
   24.5635  -20.3900  -15.3068 C   0  0  2  0  0  0  0  0  0  0  0  0
   24.9577  -21.7133  -15.7655 N   0  0  0  0  0  0  0  0  0  0  0  0
   23.9239  -19.6142  -16.4156 C   0  0  0  0  0  0  0  0  0  0  0  0
   24.3831  -19.6306  -17.5835 O   0  0  0  0  0  0  0  0  0  0  0  0
   22.7750  -18.8421  -16.1510 N   0  0  0  0  0  0  0  0  0  0  0  0
   22.0516  -18.0823  -17.1833 C   0  0  1  0  0  0  0  0  0  0  0  0
   20.6719  -17.7287  -16.6846 C   0  0  0  0  0  0  0  0  0  0  0  0
   19.9543  -16.9533  -17.6947 C   0  0  0  0  0  0  0  0  0  0  0  0
   19.6015  -17.5357  -18.7709 O   0  0  0  0  0  0  0  0  0  0  0  0
   22.8733  -16.8751  -17.4173 C   0  0  0  0  0  0  0  0  0  0  0  0
   23.4583  -16.2621  -16.5091 O   0  0  0  0  0  0  0  0  0  0  0  0
   19.6589  -15.6288  -17.5117 O   0  0  0  0  0  0  0  0  0  0  0  0
   23.0350  -16.3496  -18.7152 O   0  0  0  0  0  0  0  0  0  0  0  0
  2  1  1  6
  3  2  1  0
  4 11  1  0
  4  2  1  0
  5  4  2  0
  6  7  1  0
  7  8  1  0
  8  9  1  0
 10  9  1  6
 10 11  1  0
 12 14  1  0
 12 10  1  0
 13 12  2  0
 15 14  1  0
 15 16  1  1
 17 16  1  0
 17 21  1  0
 18 17  2  0
 19 15  1  0
 20 19  2  0
 22 19  1  0
M  END
$$$$
