AMD.pdb
     RDKit          3D

 22 21  0  0  1  0  0  0  0  0999 V2000
   13.4421  -11.9567  -13.0023 C   0  0  0  0  0  0  0  0  0  0  0  0
   14.8383  -11.4416  -13.0931 C   0  0  2  0  0  0  0  0  0  0  0  0
   15.7156  -12.2766  -12.3119 N   0  0  0  0  0  0  0  0  0  0  0  0
   14.9763  -10.0004  -12.7478 C   0  0  0  0  0  0  0  0  0  0  0  0
   14.3337   -9.1078  -13.3617 O   0  0  0  0  0  0  0  0  0  0  0  0
   12.9953   -7.5888   -6.9042 C   0  0  0  0  0  0  0  0  0  0  0  0
   14.6510   -7.7502   -7.5912 S   0  0  0  0  0  0  0  0  0  0  0  0
   14.5907   -7.9292   -9.4160 C   0  0  0  0  0  0  0  0  0  0  0  0
   16.0266   -8.1448   -9.8555 C   0  0  0  0  0  0  0  0  0  0  0  0
   16.1436   -8.2810  -11.3629 C   0  0  2  0  0  0  0  0  0  0  0  0
   15.8689   -9.6716  -11.6910 N   0  0  0  0  0  0  0  0  0  0  0  0
   17.5598   -7.9284  -11.6953 C   0  0  0  0  0  0  0  0  0  0  0  0
   18.5269   -8.6000  -11.2608 O   0  0  0  0  0  0  0  0  0  0  0  0
   17.8242   -6.8149  -12.5176 N   0  0  0  0  0  0  0  0  0  0  0  0
   19.1565   -6.5046  -13.0609 C   0  0  1  0  0  0  0  0  0  0  0  0
   19.6860   -7.6932  -13.8252 C   0  0  0  0  0  0  0  0  0  0  0  0
   20.9512   -7.3526  -14.4731 C   0  0  0  0  0  0  0  0  0  0  0  0
   21.8592   -6.7929  -13.7773 O   0  0  0  0  0  0  0  0  0  0  0  0
   18.9481   -5.3367  -13.9439 C   0  0  0  0  0  0  0  0  0  0  0  0
   17.8448   -5.0379  -14.4300 O   0  0  0  0  0  0  0  0  0  0  0  0
   21.1775   -7.6174  -15.7973 O   0  0  0  0  0  0  0  0  0  0  0  0
   20.0192   -4.4861  -14.2844 O   0  0  0  0  0  0  0  0  0  0  0  0
  2  1  1  1
  3  2  1  0
  4 11  1  0
  4  2  1  0
  5  4  2  0
  6  7  1  0
  7  8  1  0
  8  9  1  0
 10  9  1  1
 10 11  1  0
 12 14  1  0
 12 10  1  0
 13 12  2  0
 15 14  1  0
 15 16  1  6
 17 16  1  0
 17 21  1  0
 18 17  2  0
 19 15  1  0
 20 19  2  0
 22 19  1  0
M  END
$$$$
