AMD.pdb
     RDKit          3D

 22 21  0  0  1  0  0  0  0  0999 V2000
   15.5858  -22.8672   -0.0639 C   0  0  0  0  0  0  0  0  0  0  0  0
   15.0882  -21.9243    0.9783 C   0  0  2  0  0  0  0  0  0  0  0  0
   14.3734  -20.8411    0.3517 N   0  0  0  0  0  0  0  0  0  0  0  0
   16.1428  -21.4394    1.9101 C   0  0  0  0  0  0  0  0  0  0  0  0
   16.8529  -22.2361    2.5790 O   0  0  0  0  0  0  0  0  0  0  0  0
   18.3580  -14.8240    2.1874 C   0  0  0  0  0  0  0  0  0  0  0  0
   19.5611  -16.1540    2.0357 S   0  0  0  0  0  0  0  0  0  0  0  0
   19.0362  -17.6275    2.9942 C   0  0  0  0  0  0  0  0  0  0  0  0
   17.9216  -18.2668    2.1878 C   0  0  0  0  0  0  0  0  0  0  0  0
   17.3346  -19.4767    2.8920 C   0  0  2  0  0  0  0  0  0  0  0  0
   16.3156  -20.0319    2.0144 N   0  0  0  0  0  0  0  0  0  0  0  0
   16.7200  -18.9555    4.1534 C   0  0  0  0  0  0  0  0  0  0  0  0
   15.6608  -18.2824    4.1429 O   0  0  0  0  0  0  0  0  0  0  0  0
   17.3396  -19.2230    5.3907 N   0  0  0  0  0  0  0  0  0  0  0  0
   16.7718  -18.8197    6.6873 C   0  0  1  0  0  0  0  0  0  0  0  0
   17.3494  -19.6770    7.7867 C   0  0  0  0  0  0  0  0  0  0  0  0
   16.8467  -21.0450    7.6759 C   0  0  0  0  0  0  0  0  0  0  0  0
   15.6961  -21.2301    7.1626 O   0  0  0  0  0  0  0  0  0  0  0  0
   17.1508  -17.3991    6.8468 C   0  0  0  0  0  0  0  0  0  0  0  0
   16.4612  -16.5755    7.4704 O   0  0  0  0  0  0  0  0  0  0  0  0
   17.5771  -22.1190    8.1093 O   0  0  0  0  0  0  0  0  0  0  0  0
   18.3428  -16.9000    6.2838 O   0  0  0  0  0  0  0  0  0  0  0  0
  2  1  1  6
  3  2  1  0
  4 11  1  0
  4  2  1  0
  5  4  2  0
  6  7  1  0
  7  8  1  0
  8  9  1  0
 10  9  1  6
 10 11  1  0
 12 14  1  0
 12 10  1  0
 13 12  2  0
 15 14  1  0
 15 16  1  1
 17 16  1  0
 17 21  1  0
 18 17  2  0
 19 15  1  0
 20 19  2  0
 22 19  1  0
M  END
$$$$
