AMD.pdb
     RDKit          3D

 22 21  0  0  1  0  0  0  0  0999 V2000
   28.1273  -18.4140  -15.9801 C   0  0  0  0  0  0  0  0  0  0  0  0
   28.8410  -19.7120  -15.8111 C   0  0  2  0  0  0  0  0  0  0  0  0
   28.9450  -20.3783  -17.0848 N   0  0  0  0  0  0  0  0  0  0  0  0
   28.2591  -20.5913  -14.7606 C   0  0  0  0  0  0  0  0  0  0  0  0
   27.4725  -21.5327  -15.0460 O   0  0  0  0  0  0  0  0  0  0  0  0
   32.5630  -21.7648  -10.2555 C   0  0  0  0  0  0  0  0  0  0  0  0
   30.9053  -21.8324   -9.5576 S   0  0  0  0  0  0  0  0  0  0  0  0
   29.6640  -22.2267  -10.8497 C   0  0  0  0  0  0  0  0  0  0  0  0
   28.9247  -20.9297  -11.1190 C   0  0  0  0  0  0  0  0  0  0  0  0
   28.0006  -21.0425  -12.3180 C   0  0  2  0  0  0  0  0  0  0  0  0
   28.6299  -20.3225  -13.4145 N   0  0  0  0  0  0  0  0  0  0  0  0
   26.7229  -20.3768  -11.9118 C   0  0  0  0  0  0  0  0  0  0  0  0
   26.6397  -19.1313  -11.7811 O   0  0  0  0  0  0  0  0  0  0  0  0
   25.5776  -21.1609  -11.6679 N   0  0  0  0  0  0  0  0  0  0  0  0
   24.2023  -20.6594  -11.8214 C   0  0  1  0  0  0  0  0  0  0  0  0
   23.5487  -21.3169  -13.0122 C   0  0  0  0  0  0  0  0  0  0  0  0
   22.1604  -20.8758  -13.1323 C   0  0  0  0  0  0  0  0  0  0  0  0
   21.7710  -19.8935  -12.4215 O   0  0  0  0  0  0  0  0  0  0  0  0
   23.5207  -21.0166  -10.5584 C   0  0  0  0  0  0  0  0  0  0  0  0
   22.3291  -20.7519  -10.3285 O   0  0  0  0  0  0  0  0  0  0  0  0
   21.2793  -21.4905  -13.9812 O   0  0  0  0  0  0  0  0  0  0  0  0
   24.2089  -21.6910   -9.5297 O   0  0  0  0  0  0  0  0  0  0  0  0
  2  1  1  6
  3  2  1  0
  4 11  1  0
  4  2  1  0
  5  4  2  0
  6  7  1  0
  7  8  1  0
  8  9  1  0
 10  9  1  1
 10 11  1  0
 12 14  1  0
 12 10  1  0
 13 12  2  0
 15 14  1  0
 15 16  1  6
 17 16  1  0
 17 21  1  0
 18 17  2  0
 19 15  1  0
 20 19  2  0
 22 19  1  0
M  END
$$$$
