AMD.pdb
     RDKit          3D

 22 21  0  0  1  0  0  0  0  0999 V2000
   18.6450  -14.7646  -18.5544 C   0  0  0  0  0  0  0  0  0  0  0  0
   19.1137  -13.3829  -18.8611 C   0  0  2  0  0  0  0  0  0  0  0  0
   20.0132  -13.4140  -19.9867 N   0  0  0  0  0  0  0  0  0  0  0  0
   19.6967  -12.6676  -17.6932 C   0  0  0  0  0  0  0  0  0  0  0  0
   19.0545  -12.5183  -16.6200 O   0  0  0  0  0  0  0  0  0  0  0  0
   26.6964  -10.4213  -14.8504 C   0  0  0  0  0  0  0  0  0  0  0  0
   25.6686  -11.1579  -16.1313 S   0  0  0  0  0  0  0  0  0  0  0  0
   23.8940  -10.7969  -15.8383 C   0  0  0  0  0  0  0  0  0  0  0  0
   23.1359  -11.5747  -16.8974 C   0  0  0  0  0  0  0  0  0  0  0  0
   21.6344  -11.3918  -16.7690 C   0  0  2  0  0  0  0  0  0  0  0  0
   21.0154  -12.1569  -17.8407 N   0  0  0  0  0  0  0  0  0  0  0  0
   21.3853   -9.9272  -16.9520 C   0  0  0  0  0  0  0  0  0  0  0  0
   21.6477   -9.3424  -18.0310 O   0  0  0  0  0  0  0  0  0  0  0  0
   20.8413   -9.1767  -15.8904 N   0  0  0  0  0  0  0  0  0  0  0  0
   20.5433   -7.7383  -15.9818 C   0  0  1  0  0  0  0  0  0  0  0  0
   19.0651   -7.5091  -15.7828 C   0  0  0  0  0  0  0  0  0  0  0  0
   18.7733   -6.0769  -15.7789 C   0  0  0  0  0  0  0  0  0  0  0  0
   19.2850   -5.3496  -16.6905 O   0  0  0  0  0  0  0  0  0  0  0  0
   21.3423   -7.1120  -14.9063 C   0  0  0  0  0  0  0  0  0  0  0  0
   21.9170   -7.7620  -14.0175 O   0  0  0  0  0  0  0  0  0  0  0  0
   17.9726   -5.5067  -14.8256 O   0  0  0  0  0  0  0  0  0  0  0  0
   21.4929   -5.7122  -14.8375 O   0  0  0  0  0  0  0  0  0  0  0  0
  2  1  1  1
  3  2  1  0
  4 11  1  0
  4  2  1  0
  5  4  2  0
  6  7  1  0
  7  8  1  0
  8  9  1  0
 10  9  1  6
 10 11  1  0
 12 14  1  0
 12 10  1  0
 13 12  2  0
 15 14  1  0
 15 16  1  1
 17 16  1  0
 17 21  1  0
 18 17  2  0
 19 15  1  0
 20 19  2  0
 22 19  1  0
M  END
$$$$
