VGT.pdb
     RDKit          3D

 19 18  0  0  1  0  0  0  0  0999 V2000
   18.3170  -13.4481  -20.8055 C   0  0  0  0  0  0  0  0  0  0  0  0
   17.7810  -12.7884  -19.5532 C   0  0  2  0  0  0  0  0  0  0  0  0
   17.0888  -11.5272  -19.9466 C   0  0  0  0  0  0  0  0  0  0  0  0
   18.8248  -12.6301  -18.4950 C   0  0  2  0  0  0  0  0  0  0  0  0
   19.5225  -13.8834  -18.3065 N   0  0  0  0  0  0  0  0  0  0  0  0
   18.3073  -12.1510  -17.2027 C   0  0  0  0  0  0  0  0  0  0  0  0
   17.8753  -12.9458  -16.3043 O   0  0  0  0  0  0  0  0  0  0  0  0
   18.2603  -10.7807  -16.8850 N   0  0  0  0  0  0  0  0  0  0  0  0
   17.7529  -10.3158  -15.5848 C   0  0  0  0  0  0  0  0  0  0  0  0
   18.7791   -9.5340  -14.8687 C   0  0  0  0  0  0  0  0  0  0  0  0
   18.4732   -9.0100  -13.7684 O   0  0  0  0  0  0  0  0  0  0  0  0
   22.4244  -10.6835  -14.1123 C   0  0  0  0  0  0  0  0  0  0  0  0
   22.4223   -9.3691  -14.8215 C   0  0  1  0  0  0  0  0  0  0  0  0
   22.6583   -9.5832  -16.1983 O   0  0  0  0  0  0  0  0  0  0  0  0
   21.1182   -8.6162  -14.6893 C   0  0  2  0  0  0  0  0  0  0  0  0
   20.0826   -9.3447  -15.3543 N   0  0  0  0  0  0  0  0  0  0  0  0
   21.2197   -7.2159  -15.0865 C   0  0  0  0  0  0  0  0  0  0  0  0
   20.4736   -6.7279  -15.9659 O   0  0  0  0  0  0  0  0  0  0  0  0
   22.1557   -6.3924  -14.4891 O   0  0  0  0  0  0  0  0  0  0  0  0
  2  1  1  6
  2  4  1  0
  3  2  1  0
  4  5  1  1
  6  4  1  0
  6  7  2  0
  8  6  1  0
  9  8  1  0
  9 10  1  0
 10 11  2  0
 10 16  1  0
 13 12  1  1
 13 15  1  0
 14 13  1  0
 15 17  1  0
 15 16  1  6
 17 18  2  0
 17 19  1  0
M  END
$$$$
