VGT.pdb
     RDKit          3D

 19 18  0  0  1  0  0  0  0  0999 V2000
   27.4214  -21.1631  -10.0334 C   0  0  0  0  0  0  0  0  0  0  0  0
   25.9527  -20.8541  -10.2293 C   0  0  2  0  0  0  0  0  0  0  0  0
   25.1798  -21.5528   -9.1621 C   0  0  0  0  0  0  0  0  0  0  0  0
   25.4889  -21.1268  -11.6239 C   0  0  2  0  0  0  0  0  0  0  0  0
   25.5605  -22.5465  -11.8931 N   0  0  0  0  0  0  0  0  0  0  0  0
   26.2264  -20.3872  -12.6614 C   0  0  0  0  0  0  0  0  0  0  0  0
   27.4452  -20.6366  -12.9403 O   0  0  0  0  0  0  0  0  0  0  0  0
   25.6236  -19.3573  -13.4076 N   0  0  0  0  0  0  0  0  0  0  0  0
   26.3639  -18.6433  -14.4593 C   0  0  0  0  0  0  0  0  0  0  0  0
   25.5261  -17.5953  -15.0735 C   0  0  0  0  0  0  0  0  0  0  0  0
   24.3425  -17.4635  -14.6728 O   0  0  0  0  0  0  0  0  0  0  0  0
   26.9603  -13.9753  -16.2706 C   0  0  0  0  0  0  0  0  0  0  0  0
   26.1346  -14.6731  -17.3012 C   0  0  1  0  0  0  0  0  0  0  0  0
   26.9895  -15.3178  -18.2235 O   0  0  0  0  0  0  0  0  0  0  0  0
   25.2082  -15.7183  -16.7233 C   0  0  2  0  0  0  0  0  0  0  0  0
   25.9842  -16.7360  -16.0846 N   0  0  0  0  0  0  0  0  0  0  0  0
   24.2341  -16.2197  -17.6870 C   0  0  0  0  0  0  0  0  0  0  0  0
   24.2494  -17.4098  -18.0762 O   0  0  0  0  0  0  0  0  0  0  0  0
   23.2636  -15.3757  -18.1938 O   0  0  0  0  0  0  0  0  0  0  0  0
  2  1  1  6
  2  4  1  0
  3  2  1  0
  4  5  1  6
  6  4  1  0
  6  7  2  0
  8  6  1  0
  9  8  1  0
  9 10  1  0
 10 11  2  0
 10 16  1  0
 13 12  1  1
 13 15  1  0
 14 13  1  0
 15 17  1  0
 15 16  1  6
 17 18  2  0
 17 19  1  0
M  END
$$$$
