VGT.pdb
     RDKit          3D

 19 18  0  0  1  0  0  0  0  0999 V2000
   20.6652  -15.7863  -17.0986 C   0  0  0  0  0  0  0  0  0  0  0  0
   19.4529  -15.2040  -17.7929 C   0  0  2  0  0  0  0  0  0  0  0  0
   19.0934  -16.0939  -18.9346 C   0  0  0  0  0  0  0  0  0  0  0  0
   19.6312  -13.7633  -18.1493 C   0  0  2  0  0  0  0  0  0  0  0  0
   20.6932  -13.6292  -19.1226 N   0  0  0  0  0  0  0  0  0  0  0  0
   19.8989  -12.8849  -16.9986 C   0  0  0  0  0  0  0  0  0  0  0  0
   19.0072  -12.6074  -16.1307 O   0  0  0  0  0  0  0  0  0  0  0  0
   21.1617  -12.2989  -16.7912 N   0  0  0  0  0  0  0  0  0  0  0  0
   21.4066  -11.3959  -15.6561 C   0  0  0  0  0  0  0  0  0  0  0  0
   21.1574   -9.9924  -16.0370 C   0  0  0  0  0  0  0  0  0  0  0  0
   21.4926   -9.6155  -17.1879 O   0  0  0  0  0  0  0  0  0  0  0  0
   17.8632   -8.4945  -16.0670 C   0  0  0  0  0  0  0  0  0  0  0  0
   18.7119   -7.5328  -15.3016 C   0  0  1  0  0  0  0  0  0  0  0  0
   18.4700   -7.6976  -13.9190 O   0  0  0  0  0  0  0  0  0  0  0  0
   20.1935   -7.7196  -15.5356 C   0  0  2  0  0  0  0  0  0  0  0  0
   20.5636   -9.0540  -15.1781 N   0  0  0  0  0  0  0  0  0  0  0  0
   21.0093   -6.6816  -14.9143 C   0  0  0  0  0  0  0  0  0  0  0  0
   20.9425   -5.4866  -15.2829 O   0  0  0  0  0  0  0  0  0  0  0  0
   21.8826   -7.0055  -13.8929 O   0  0  0  0  0  0  0  0  0  0  0  0
  2  1  1  6
  2  4  1  0
  3  2  1  0
  4  5  1  6
  6  4  1  0
  6  7  2  0
  8  6  1  0
  9  8  1  0
  9 10  1  0
 10 11  2  0
 10 16  1  0
 13 12  1  6
 13 15  1  0
 14 13  1  0
 15 17  1  0
 15 16  1  1
 17 18  2  0
 17 19  1  0
M  END
$$$$
