VGT.pdb
     RDKit          3D

 19 18  0  0  1  0  0  0  0  0999 V2000
   16.9412  -13.0913  -15.9221 C   0  0  0  0  0  0  0  0  0  0  0  0
   16.8039  -13.3379  -17.4091 C   0  0  2  0  0  0  0  0  0  0  0  0
   15.8245  -14.4440  -17.6130 C   0  0  0  0  0  0  0  0  0  0  0  0
   18.1235  -13.5328  -18.0838 C   0  0  2  0  0  0  0  0  0  0  0  0
   18.6537  -14.8371  -17.7510 N   0  0  0  0  0  0  0  0  0  0  0  0
   19.1213  -12.4967  -17.7704 C   0  0  0  0  0  0  0  0  0  0  0  0
   20.0675  -12.6910  -16.9383 O   0  0  0  0  0  0  0  0  0  0  0  0
   19.0860  -11.2264  -18.3753 N   0  0  0  0  0  0  0  0  0  0  0  0
   20.1237  -10.2209  -18.0993 C   0  0  0  0  0  0  0  0  0  0  0  0
   19.7116   -9.3279  -16.9994 C   0  0  0  0  0  0  0  0  0  0  0  0
   18.5527   -9.4515  -16.5297 O   0  0  0  0  0  0  0  0  0  0  0  0
   21.6481   -9.0407  -13.8351 C   0  0  0  0  0  0  0  0  0  0  0  0
   21.3941   -7.6488  -14.3136 C   0  0  1  0  0  0  0  0  0  0  0  0
   22.5555   -7.1571  -14.9513 O   0  0  0  0  0  0  0  0  0  0  0  0
   20.2513   -7.5502  -15.2980 C   0  0  2  0  0  0  0  0  0  0  0  0
   20.5493   -8.3450  -16.4491 N   0  0  0  0  0  0  0  0  0  0  0  0
   19.8683   -6.1747  -15.5988 C   0  0  0  0  0  0  0  0  0  0  0  0
   20.0115   -5.6896  -16.7444 O   0  0  0  0  0  0  0  0  0  0  0  0
   19.3329   -5.3724  -14.6085 O   0  0  0  0  0  0  0  0  0  0  0  0
  2  1  1  1
  2  4  1  0
  3  2  1  0
  4  5  1  1
  6  4  1  0
  6  7  2  0
  8  6  1  0
  9  8  1  0
  9 10  1  0
 10 11  2  0
 10 16  1  0
 13 12  1  6
 13 15  1  0
 14 13  1  0
 15 17  1  0
 15 16  1  6
 17 18  2  0
 17 19  1  0
M  END
$$$$
