VGT.pdb
     RDKit          3D

 19 18  0  0  1  0  0  0  0  0999 V2000
   17.5353  -12.0221  -16.7410 C   0  0  0  0  0  0  0  0  0  0  0  0
   18.4971  -11.6869  -17.8605 C   0  0  2  0  0  0  0  0  0  0  0  0
   18.0748  -12.4330  -19.0811 C   0  0  0  0  0  0  0  0  0  0  0  0
   19.9264  -11.8797  -17.4676 C   0  0  2  0  0  0  0  0  0  0  0  0
   20.1915  -13.2877  -17.2667 N   0  0  0  0  0  0  0  0  0  0  0  0
   20.3316  -11.1228  -16.2718 C   0  0  0  0  0  0  0  0  0  0  0  0
   20.4706  -11.6741  -15.1306 O   0  0  0  0  0  0  0  0  0  0  0  0
   20.5896   -9.7401  -16.3218 N   0  0  0  0  0  0  0  0  0  0  0  0
   21.1075   -9.0177  -15.1496 C   0  0  0  0  0  0  0  0  0  0  0  0
   21.3070   -7.5886  -15.4582 C   0  0  0  0  0  0  0  0  0  0  0  0
   21.2559   -7.2224  -16.6591 O   0  0  0  0  0  0  0  0  0  0  0  0
   19.4012   -5.3041  -15.9148 C   0  0  0  0  0  0  0  0  0  0  0  0
   20.1911   -4.6676  -14.8186 C   0  0  1  0  0  0  0  0  0  0  0  0
   19.5412   -4.8951  -13.5846 O   0  0  0  0  0  0  0  0  0  0  0  0
   21.5999   -5.2033  -14.7030 C   0  0  2  0  0  0  0  0  0  0  0  0
   21.5515   -6.6147  -14.4772 N   0  0  0  0  0  0  0  0  0  0  0  0
   22.4180   -4.4678  -13.7445 C   0  0  0  0  0  0  0  0  0  0  0  0
   22.8328   -5.0018  -12.6905 O   0  0  0  0  0  0  0  0  0  0  0  0
   22.7537   -3.1491  -13.9884 O   0  0  0  0  0  0  0  0  0  0  0  0
  2  1  1  1
  2  4  1  0
  3  2  1  0
  4  5  1  1
  6  4  1  0
  6  7  2  0
  8  6  1  0
  9  8  1  0
  9 10  1  0
 10 11  2  0
 10 16  1  0
 13 12  1  6
 13 15  1  0
 14 13  1  0
 15 17  1  0
 15 16  1  1
 17 18  2  0
 17 19  1  0
M  END
$$$$
