VGT.pdb
     RDKit          3D

 19 18  0  0  1  0  0  0  0  0999 V2000
   23.3284  -13.0316  -15.0568 C   0  0  0  0  0  0  0  0  0  0  0  0
   22.3291  -13.5686  -16.0588 C   0  0  2  0  0  0  0  0  0  0  0  0
   22.9940  -14.6388  -16.8571 C   0  0  0  0  0  0  0  0  0  0  0  0
   21.6872  -12.4871  -16.8667 C   0  0  2  0  0  0  0  0  0  0  0  0
   22.6730  -11.8707  -17.7277 N   0  0  0  0  0  0  0  0  0  0  0  0
   21.0129  -11.4530  -16.0645 C   0  0  0  0  0  0  0  0  0  0  0  0
   19.9526  -11.6910  -15.3978 O   0  0  0  0  0  0  0  0  0  0  0  0
   21.5041  -10.1363  -15.9886 N   0  0  0  0  0  0  0  0  0  0  0  0
   20.8127   -9.1086  -15.1950 C   0  0  0  0  0  0  0  0  0  0  0  0
   21.6216   -7.8776  -15.1091 C   0  0  0  0  0  0  0  0  0  0  0  0
   22.8036   -7.9067  -15.5346 O   0  0  0  0  0  0  0  0  0  0  0  0
   20.5727   -4.8619  -16.7603 C   0  0  0  0  0  0  0  0  0  0  0  0
   20.9321   -4.4210  -15.3793 C   0  0  1  0  0  0  0  0  0  0  0  0
   19.7500   -4.2428  -14.6256 O   0  0  0  0  0  0  0  0  0  0  0  0
   21.8051   -5.4093  -14.6403 C   0  0  2  0  0  0  0  0  0  0  0  0
   21.1379   -6.6727  -14.5754 N   0  0  0  0  0  0  0  0  0  0  0  0
   22.2759   -4.9102  -13.3526 C   0  0  0  0  0  0  0  0  0  0  0  0
   21.9174   -5.4367  -12.2743 O   0  0  0  0  0  0  0  0  0  0  0  0
   23.1388   -3.8313  -13.3012 O   0  0  0  0  0  0  0  0  0  0  0  0
  2  1  1  1
  2  4  1  0
  3  2  1  0
  4  5  1  1
  6  4  1  0
  6  7  2  0
  8  6  1  0
  9  8  1  0
  9 10  1  0
 10 11  2  0
 10 16  1  0
 13 12  1  6
 13 15  1  0
 14 13  1  0
 15 17  1  0
 15 16  1  1
 17 18  2  0
 17 19  1  0
M  END
$$$$
