VGT.pdb
     RDKit          3D

 19 18  0  0  1  0  0  0  0  0999 V2000
   18.1590  -12.9905  -15.4122 C   0  0  0  0  0  0  0  0  0  0  0  0
   17.8845  -12.6326  -16.8570 C   0  0  2  0  0  0  0  0  0  0  0  0
   18.0842  -13.8542  -17.6892 C   0  0  0  0  0  0  0  0  0  0  0  0
   18.6518  -11.4314  -17.3074 C   0  0  2  0  0  0  0  0  0  0  0  0
   20.0613  -11.7502  -17.3760 N   0  0  0  0  0  0  0  0  0  0  0  0
   18.4532  -10.2381  -16.4685 C   0  0  0  0  0  0  0  0  0  0  0  0
   17.3492   -9.6010  -16.4398 O   0  0  0  0  0  0  0  0  0  0  0  0
   19.4770   -9.7308  -15.6467 N   0  0  0  0  0  0  0  0  0  0  0  0
   19.2561   -8.5551  -14.7906 C   0  0  0  0  0  0  0  0  0  0  0  0
   20.5323   -7.8815  -14.4825 C   0  0  0  0  0  0  0  0  0  0  0  0
   21.4744   -8.5686  -14.0142 O   0  0  0  0  0  0  0  0  0  0  0  0
   22.5274   -6.3205  -16.9854 C   0  0  0  0  0  0  0  0  0  0  0  0
   22.3980   -5.2800  -15.9216 C   0  0  1  0  0  0  0  0  0  0  0  0
   21.4063   -4.3476  -16.3015 O   0  0  0  0  0  0  0  0  0  0  0  0
   22.0091   -5.8428  -14.5737 C   0  0  2  0  0  0  0  0  0  0  0  0
   20.7488   -6.5095  -14.6859 N   0  0  0  0  0  0  0  0  0  0  0  0
   22.0761   -4.8586  -13.4985 C   0  0  0  0  0  0  0  0  0  0  0  0
   21.0496   -4.4863  -12.8854 O   0  0  0  0  0  0  0  0  0  0  0  0
   23.2927   -4.3129  -13.1337 O   0  0  0  0  0  0  0  0  0  0  0  0
  2  1  1  1
  2  4  1  0
  3  2  1  0
  4  5  1  1
  6  4  1  0
  6  7  2  0
  8  6  1  0
  9  8  1  0
  9 10  1  0
 10 11  2  0
 10 16  1  0
 13 12  1  6
 13 15  1  0
 14 13  1  0
 15 17  1  0
 15 16  1  6
 17 18  2  0
 17 19  1  0
M  END
$$$$
