VGT.pdb
     RDKit          3D

 19 18  0  0  1  0  0  0  0  0999 V2000
   14.5912  -10.5420  -14.3791 C   0  0  0  0  0  0  0  0  0  0  0  0
   14.9231  -11.3084  -15.6413 C   0  0  2  0  0  0  0  0  0  0  0  0
   14.4696  -12.7186  -15.4671 C   0  0  0  0  0  0  0  0  0  0  0  0
   16.3525  -11.1525  -16.0496 C   0  0  2  0  0  0  0  0  0  0  0  0
   17.2044  -11.8735  -15.1289 N   0  0  0  0  0  0  0  0  0  0  0  0
   16.8028   -9.7546  -16.1513 C   0  0  0  0  0  0  0  0  0  0  0  0
   16.3820   -8.9673  -17.0616 O   0  0  0  0  0  0  0  0  0  0  0  0
   17.7285   -9.2060  -15.2441 N   0  0  0  0  0  0  0  0  0  0  0  0
   18.1279   -7.7924  -15.3228 C   0  0  0  0  0  0  0  0  0  0  0  0
   19.1838   -7.4885  -14.3379 C   0  0  0  0  0  0  0  0  0  0  0  0
   19.1352   -8.0505  -13.2151 O   0  0  0  0  0  0  0  0  0  0  0  0
   22.1778   -8.7465  -14.2324 C   0  0  0  0  0  0  0  0  0  0  0  0
   22.5135   -7.2911  -14.2372 C   0  0  1  0  0  0  0  0  0  0  0  0
   22.8338   -6.8922  -15.5545 O   0  0  0  0  0  0  0  0  0  0  0  0
   21.3843   -6.4116  -13.7512 C   0  0  2  0  0  0  0  0  0  0  0  0
   20.2423   -6.6019  -14.5910 N   0  0  0  0  0  0  0  0  0  0  0  0
   21.7763   -5.0173  -13.5747 C   0  0  0  0  0  0  0  0  0  0  0  0
   21.2845   -4.1039  -14.2763 O   0  0  0  0  0  0  0  0  0  0  0  0
   22.7115   -4.6767  -12.6153 O   0  0  0  0  0  0  0  0  0  0  0  0
  2  1  1  1
  2  4  1  0
  3  2  1  0
  4  5  1  1
  6  4  1  0
  6  7  2  0
  8  6  1  0
  9  8  1  0
  9 10  1  0
 10 11  2  0
 10 16  1  0
 13 12  1  6
 13 15  1  0
 14 13  1  0
 15 17  1  0
 15 16  1  6
 17 18  2  0
 17 19  1  0
M  END
$$$$
