LEG.pdb
     RDKit          3D

 22 21  0  0  1  0  0  0  0  0999 V2000
   26.8252  -14.3258  -15.8779 C   0  0  0  0  0  0  0  0  0  0  0  0
   25.4272  -14.5757  -16.3692 C   0  0  2  0  0  0  0  0  0  0  0  0
   25.4535  -15.5301  -17.5433 C   0  0  0  0  0  0  0  0  0  0  0  0
   24.7182  -13.3337  -16.7970 C   0  0  0  0  0  0  0  0  0  0  0  0
   24.6166  -12.3078  -15.6905 C   0  0  2  0  0  0  0  0  0  0  0  0
   24.1597  -12.8639  -14.4579 N   0  0  0  0  0  0  0  0  0  0  0  0
   23.8314  -11.1215  -16.1165 C   0  0  0  0  0  0  0  0  0  0  0  0
   24.0727  -10.5761  -17.2063 O   0  0  0  0  0  0  0  0  0  0  0  0
   22.7916  -10.5705  -15.3127 N   0  0  0  0  0  0  0  0  0  0  0  0
   22.0299   -9.3920  -15.7281 C   0  0  1  0  0  0  0  0  0  0  0  0
   20.5374   -9.6886  -15.6988 C   0  0  0  0  0  0  0  0  0  0  0  0
   19.7177   -8.4813  -16.0919 C   0  0  0  0  0  0  0  0  0  0  0  0
   18.2973   -8.8591  -16.0358 C   0  0  0  0  0  0  0  0  0  0  0  0
   17.4888   -8.1658  -15.3433 O   0  0  0  0  0  0  0  0  0  0  0  0
   22.3223   -8.3055  -14.7624 C   0  0  0  0  0  0  0  0  0  0  0  0
   22.3726   -8.5311  -13.5208 O   0  0  0  0  0  0  0  0  0  0  0  0
   17.7508   -9.9479  -16.7003 O   0  0  0  0  0  0  0  0  0  0  0  0
   22.5611   -6.9645  -15.1565 N   0  0  0  0  0  0  0  0  0  0  0  0
   22.7839   -5.9023  -14.1723 C   0  0  0  0  0  0  0  0  0  0  0  0
   21.5921   -5.0740  -13.9849 C   0  0  0  0  0  0  0  0  0  0  0  0
   21.6537   -3.9880  -13.1280 O   0  0  0  0  0  0  0  0  0  0  0  0
   20.5107   -5.3064  -14.5705 O   0  0  0  0  0  0  0  0  0  0  0  0
  2  1  1  6
  2  3  1  0
  4  2  1  0
  4  5  1  0
  5  7  1  0
  5  6  1  1
  7  9  1  0
  7  8  2  0
  9 10  1  0
 10 15  1  0
 10 11  1  1
 12 13  1  0
 12 11  1  0
 13 14  2  0
 15 16  2  0
 17 13  1  0
 18 15  1  0
 18 19  1  0
 19 20  1  0
 20 22  2  0
 20 21  1  0
M  END
$$$$
