LEG.pdb
     RDKit          3D

 22 21  0  0  1  0  0  0  0  0999 V2000
   26.0370  -21.5539  -15.6000 C   0  0  0  0  0  0  0  0  0  0  0  0
   25.3256  -22.6894  -14.9195 C   0  0  2  0  0  0  0  0  0  0  0  0
   25.7417  -24.0064  -15.5379 C   0  0  0  0  0  0  0  0  0  0  0  0
   23.8382  -22.5895  -14.9985 C   0  0  0  0  0  0  0  0  0  0  0  0
   23.3054  -21.3088  -14.3960 C   0  0  2  0  0  0  0  0  0  0  0  0
   23.8022  -21.0654  -13.0802 N   0  0  0  0  0  0  0  0  0  0  0  0
   21.8241  -21.2427  -14.4767 C   0  0  0  0  0  0  0  0  0  0  0  0
   21.2522  -21.4386  -15.5620 O   0  0  0  0  0  0  0  0  0  0  0  0
   21.0136  -20.9586  -13.3394 N   0  0  0  0  0  0  0  0  0  0  0  0
   19.5536  -20.9002  -13.4206 C   0  0  1  0  0  0  0  0  0  0  0  0
   18.9283  -21.8494  -12.4085 C   0  0  0  0  0  0  0  0  0  0  0  0
   18.9858  -23.2854  -12.8763 C   0  0  0  0  0  0  0  0  0  0  0  0
   18.4262  -24.1323  -11.8119 C   0  0  0  0  0  0  0  0  0  0  0  0
   18.3154  -25.3843  -11.9971 O   0  0  0  0  0  0  0  0  0  0  0  0
   19.1414  -19.5133  -13.0962 C   0  0  0  0  0  0  0  0  0  0  0  0
   17.9219  -19.2016  -12.9926 O   0  0  0  0  0  0  0  0  0  0  0  0
   17.9951  -23.6587  -10.5809 O   0  0  0  0  0  0  0  0  0  0  0  0
   20.0680  -18.4611  -12.8839 N   0  0  0  0  0  0  0  0  0  0  0  0
   19.6280  -17.1100  -12.5270 C   0  0  0  0  0  0  0  0  0  0  0  0
   18.9187  -16.4587  -13.6289 C   0  0  0  0  0  0  0  0  0  0  0  0
   18.4709  -15.1583  -13.4676 O   0  0  0  0  0  0  0  0  0  0  0  0
   18.6975  -17.0308  -14.7199 O   0  0  0  0  0  0  0  0  0  0  0  0
  2  1  1  6
  2  3  1  0
  4  2  1  0
  4  5  1  0
  5  7  1  0
  5  6  1  1
  7  9  1  0
  7  8  2  0
  9 10  1  0
 10 15  1  0
 10 11  1  1
 12 13  1  0
 12 11  1  0
 13 14  2  0
 15 16  2  0
 17 13  1  0
 18 15  1  0
 18 19  1  0
 19 20  1  0
 20 22  2  0
 20 21  1  0
M  END
$$$$
