LEG.pdb
     RDKit          3D

 22 21  0  0  1  0  0  0  0  0999 V2000
   16.6275  -10.0643  -17.9420 C   0  0  0  0  0  0  0  0  0  0  0  0
   15.8982   -9.3886  -16.8152 C   0  0  2  0  0  0  0  0  0  0  0  0
   14.8309   -8.4686  -17.3668 C   0  0  0  0  0  0  0  0  0  0  0  0
   16.7908   -8.5845  -15.9291 C   0  0  0  0  0  0  0  0  0  0  0  0
   17.8895   -9.4118  -15.3000 C   0  0  2  0  0  0  0  0  0  0  0  0
   17.4005  -10.3413  -14.3334 N   0  0  0  0  0  0  0  0  0  0  0  0
   18.9855   -8.5567  -14.7778 C   0  0  0  0  0  0  0  0  0  0  0  0
   18.9637   -8.1721  -13.5967 O   0  0  0  0  0  0  0  0  0  0  0  0
   20.0838   -8.1499  -15.5898 N   0  0  0  0  0  0  0  0  0  0  0  0
   21.1339   -7.2623  -15.0887 C   0  0  1  0  0  0  0  0  0  0  0  0
   22.5076   -7.8216  -15.4301 C   0  0  0  0  0  0  0  0  0  0  0  0
   22.8605   -9.0094  -14.5648 C   0  0  0  0  0  0  0  0  0  0  0  0
   24.1760   -9.5084  -14.9933 C   0  0  0  0  0  0  0  0  0  0  0  0
   24.7933   -8.9241  -15.9376 O   0  0  0  0  0  0  0  0  0  0  0  0
   20.9699   -5.9500  -15.7592 C   0  0  0  0  0  0  0  0  0  0  0  0
   21.2627   -5.7982  -16.9783 O   0  0  0  0  0  0  0  0  0  0  0  0
   24.8189  -10.6020  -14.4309 O   0  0  0  0  0  0  0  0  0  0  0  0
   20.4827   -4.7970  -15.0929 N   0  0  0  0  0  0  0  0  0  0  0  0
   20.3893   -3.5006  -15.7690 C   0  0  0  0  0  0  0  0  0  0  0  0
   19.8524   -2.4634  -14.8873 C   0  0  0  0  0  0  0  0  0  0  0  0
   19.3748   -2.8213  -13.6378 O   0  0  0  0  0  0  0  0  0  0  0  0
   19.8058   -1.2567  -15.2164 O   0  0  0  0  0  0  0  0  0  0  0  0
  2  1  1  6
  2  3  1  0
  4  2  1  0
  4  5  1  0
  5  7  1  0
  5  6  1  1
  7  9  1  0
  7  8  2  0
  9 10  1  0
 10 15  1  0
 10 11  1  6
 12 13  1  0
 12 11  1  0
 13 14  2  0
 15 16  2  0
 17 13  1  0
 18 15  1  0
 18 19  1  0
 19 20  1  0
 20 22  2  0
 20 21  1  0
M  END
$$$$
