LEG.pdb
     RDKit          3D

 22 21  0  0  1  0  0  0  0  0999 V2000
   18.6001  -11.7607  -17.3457 C   0  0  0  0  0  0  0  0  0  0  0  0
   18.9383  -12.1604  -15.9371 C   0  0  2  0  0  0  0  0  0  0  0  0
   17.6777  -12.2358  -15.1032 C   0  0  0  0  0  0  0  0  0  0  0  0
   19.8835  -11.2207  -15.2649 C   0  0  0  0  0  0  0  0  0  0  0  0
   21.1778  -11.0481  -16.0278 C   0  0  2  0  0  0  0  0  0  0  0  0
   22.0836  -12.1347  -15.8377 N   0  0  0  0  0  0  0  0  0  0  0  0
   21.7968   -9.7251  -15.7599 C   0  0  0  0  0  0  0  0  0  0  0  0
   22.5427   -9.5762  -14.7777 O   0  0  0  0  0  0  0  0  0  0  0  0
   21.5674   -8.5956  -16.5982 N   0  0  0  0  0  0  0  0  0  0  0  0
   22.3114   -7.3455  -16.4388 C   0  0  1  0  0  0  0  0  0  0  0  0
   22.4578   -6.6416  -17.7803 C   0  0  0  0  0  0  0  0  0  0  0  0
   23.2289   -5.3480  -17.6536 C   0  0  0  0  0  0  0  0  0  0  0  0
   23.3561   -4.7621  -18.9967 C   0  0  0  0  0  0  0  0  0  0  0  0
   23.8223   -5.4638  -19.9476 O   0  0  0  0  0  0  0  0  0  0  0  0
   21.5355   -6.4755  -15.5224 C   0  0  0  0  0  0  0  0  0  0  0  0
   20.2797   -6.3816  -15.6178 O   0  0  0  0  0  0  0  0  0  0  0  0
   22.9960   -3.4615  -19.3199 O   0  0  0  0  0  0  0  0  0  0  0  0
   22.1363   -5.7036  -14.4958 N   0  0  0  0  0  0  0  0  0  0  0  0
   21.3337   -4.9150  -13.5575 C   0  0  0  0  0  0  0  0  0  0  0  0
   20.7773   -3.7176  -14.1886 C   0  0  0  0  0  0  0  0  0  0  0  0
   19.9655   -2.8784  -13.4442 O   0  0  0  0  0  0  0  0  0  0  0  0
   21.0052   -3.4167  -15.3819 O   0  0  0  0  0  0  0  0  0  0  0  0
  2  1  1  6
  2  3  1  0
  4  2  1  0
  4  5  1  0
  5  7  1  0
  5  6  1  1
  7  9  1  0
  7  8  2  0
  9 10  1  0
 10 15  1  0
 10 11  1  6
 12 13  1  0
 12 11  1  0
 13 14  2  0
 15 16  2  0
 17 13  1  0
 18 15  1  0
 18 19  1  0
 19 20  1  0
 20 22  2  0
 20 21  1  0
M  END
$$$$
