LEG.pdb
     RDKit          3D

 22 21  0  0  1  0  0  0  0  0999 V2000
   19.0569  -13.6759  -16.2644 C   0  0  0  0  0  0  0  0  0  0  0  0
   17.7801  -12.9446  -16.5696 C   0  0  2  0  0  0  0  0  0  0  0  0
   17.1370  -13.5213  -17.8121 C   0  0  0  0  0  0  0  0  0  0  0  0
   17.9725  -11.4799  -16.7843 C   0  0  0  0  0  0  0  0  0  0  0  0
   18.5779  -10.7875  -15.5837 C   0  0  2  0  0  0  0  0  0  0  0  0
   17.8321  -11.0003  -14.3855 N   0  0  0  0  0  0  0  0  0  0  0  0
   18.8382   -9.3511  -15.8561 C   0  0  0  0  0  0  0  0  0  0  0  0
   19.4101   -9.0119  -16.9054 O   0  0  0  0  0  0  0  0  0  0  0  0
   18.4523   -8.3238  -14.9468 N   0  0  0  0  0  0  0  0  0  0  0  0
   18.6730   -6.9064  -15.2364 C   0  0  1  0  0  0  0  0  0  0  0  0
   17.3760   -6.1255  -15.0798 C   0  0  0  0  0  0  0  0  0  0  0  0
   17.5433   -4.6757  -15.4723 C   0  0  0  0  0  0  0  0  0  0  0  0
   16.2460   -4.0053  -15.2967 C   0  0  0  0  0  0  0  0  0  0  0  0
   16.1319   -2.7719  -15.5791 O   0  0  0  0  0  0  0  0  0  0  0  0
   19.6615   -6.3967  -14.2557 C   0  0  0  0  0  0  0  0  0  0  0  0
   19.6510   -6.7870  -13.0547 O   0  0  0  0  0  0  0  0  0  0  0  0
   15.0983   -4.6320  -14.8322 O   0  0  0  0  0  0  0  0  0  0  0  0
   20.6673   -5.4549  -14.5903 N   0  0  0  0  0  0  0  0  0  0  0  0
   21.6862   -5.0420  -13.6218 C   0  0  0  0  0  0  0  0  0  0  0  0
   22.6711   -4.1388  -14.2182 C   0  0  0  0  0  0  0  0  0  0  0  0
   23.6311   -3.5575  -13.4071 O   0  0  0  0  0  0  0  0  0  0  0  0
   22.6835   -3.8668  -15.4398 O   0  0  0  0  0  0  0  0  0  0  0  0
  2  1  1  6
  2  3  1  0
  4  2  1  0
  4  5  1  0
  5  7  1  0
  5  6  1  1
  7  9  1  0
  7  8  2  0
  9 10  1  0
 10 15  1  0
 10 11  1  1
 12 13  1  0
 12 11  1  0
 13 14  2  0
 15 16  2  0
 17 13  1  0
 18 15  1  0
 18 19  1  0
 19 20  1  0
 20 22  2  0
 20 21  1  0
M  END
$$$$
