LEG.pdb
     RDKit          3D

 22 21  0  0  1  0  0  0  0  0999 V2000
   16.0662  -12.6420  -15.2194 C   0  0  0  0  0  0  0  0  0  0  0  0
   17.5113  -12.9804  -15.4553 C   0  0  2  0  0  0  0  0  0  0  0  0
   17.8591  -14.2794  -14.7614 C   0  0  0  0  0  0  0  0  0  0  0  0
   18.4532  -11.9289  -14.9702 C   0  0  0  0  0  0  0  0  0  0  0  0
   18.2143  -10.5846  -15.6207 C   0  0  2  0  0  0  0  0  0  0  0  0
   18.2348  -10.6462  -17.0465 N   0  0  0  0  0  0  0  0  0  0  0  0
   19.1219   -9.5445  -15.0733 C   0  0  0  0  0  0  0  0  0  0  0  0
   19.2031   -9.3753  -13.8452 O   0  0  0  0  0  0  0  0  0  0  0  0
   19.9203   -8.7150  -15.9132 N   0  0  0  0  0  0  0  0  0  0  0  0
   20.8816   -7.7547  -15.3698 C   0  0  1  0  0  0  0  0  0  0  0  0
   22.2779   -8.0442  -15.9019 C   0  0  0  0  0  0  0  0  0  0  0  0
   22.8689   -9.2878  -15.2790 C   0  0  0  0  0  0  0  0  0  0  0  0
   24.1761   -9.5328  -15.9071 C   0  0  0  0  0  0  0  0  0  0  0  0
   24.5683   -8.7845  -16.8559 O   0  0  0  0  0  0  0  0  0  0  0  0
   20.4679   -6.4032  -15.8179 C   0  0  0  0  0  0  0  0  0  0  0  0
   19.8684   -6.2344  -16.9165 O   0  0  0  0  0  0  0  0  0  0  0  0
   25.0446  -10.5490  -15.5347 O   0  0  0  0  0  0  0  0  0  0  0  0
   20.7110   -5.2295  -15.0602 N   0  0  0  0  0  0  0  0  0  0  0  0
   20.2976   -3.9074  -15.5374 C   0  0  0  0  0  0  0  0  0  0  0  0
   20.6388   -2.8520  -14.5828 C   0  0  0  0  0  0  0  0  0  0  0  0
   20.3574   -1.5350  -14.9046 O   0  0  0  0  0  0  0  0  0  0  0  0
   21.1785   -3.0902  -13.4789 O   0  0  0  0  0  0  0  0  0  0  0  0
  2  1  1  1
  2  3  1  0
  4  2  1  0
  4  5  1  0
  5  7  1  0
  5  6  1  6
  7  9  1  0
  7  8  2  0
  9 10  1  0
 10 15  1  0
 10 11  1  6
 12 13  1  0
 12 11  1  0
 13 14  2  0
 15 16  2  0
 17 13  1  0
 18 15  1  0
 18 19  1  0
 19 20  1  0
 20 22  2  0
 20 21  1  0
M  END
$$$$
