LEG.pdb
     RDKit          3D

 22 21  0  0  1  0  0  0  0  0999 V2000
   18.1334  -13.1766  -15.2629 C   0  0  0  0  0  0  0  0  0  0  0  0
   18.5639  -12.5224  -16.5455 C   0  0  2  0  0  0  0  0  0  0  0  0
   18.3929  -13.4848  -17.7008 C   0  0  0  0  0  0  0  0  0  0  0  0
   19.9847  -12.0647  -16.5297 C   0  0  0  0  0  0  0  0  0  0  0  0
   20.2213  -10.9255  -15.5636 C   0  0  2  0  0  0  0  0  0  0  0  0
   19.0705  -10.1001  -15.3859 N   0  0  0  0  0  0  0  0  0  0  0  0
   21.4385  -10.1526  -15.9189 C   0  0  0  0  0  0  0  0  0  0  0  0
   22.5385  -10.7254  -15.9907 O   0  0  0  0  0  0  0  0  0  0  0  0
   21.3984   -8.7534  -16.1864 N   0  0  0  0  0  0  0  0  0  0  0  0
   22.5971   -7.9971  -16.5506 C   0  0  1  0  0  0  0  0  0  0  0  0
   22.5031   -7.5173  -17.9920 C   0  0  0  0  0  0  0  0  0  0  0  0
   22.7911   -8.6300  -18.9734 C   0  0  0  0  0  0  0  0  0  0  0  0
   22.7561   -8.0600  -20.3288 C   0  0  0  0  0  0  0  0  0  0  0  0
   21.8162   -8.3795  -21.1216 O   0  0  0  0  0  0  0  0  0  0  0  0
   22.6722   -6.8170  -15.6559 C   0  0  0  0  0  0  0  0  0  0  0  0
   23.6595   -6.0304  -15.6936 O   0  0  0  0  0  0  0  0  0  0  0  0
   23.6981   -7.1718  -20.8284 O   0  0  0  0  0  0  0  0  0  0  0  0
   21.6617   -6.4953  -14.7145 N   0  0  0  0  0  0  0  0  0  0  0  0
   21.7326   -5.2826  -13.8955 C   0  0  0  0  0  0  0  0  0  0  0  0
   21.3919   -4.0848  -14.6641 C   0  0  0  0  0  0  0  0  0  0  0  0
   21.3839   -2.8550  -14.0278 O   0  0  0  0  0  0  0  0  0  0  0  0
   21.1050   -4.1242  -15.8817 O   0  0  0  0  0  0  0  0  0  0  0  0
  2  1  1  1
  2  3  1  0
  4  2  1  0
  4  5  1  0
  5  7  1  0
  5  6  1  6
  7  9  1  0
  7  8  2  0
  9 10  1  0
 10 15  1  0
 10 11  1  6
 12 13  1  0
 12 11  1  0
 13 14  2  0
 15 16  2  0
 17 13  1  0
 18 15  1  0
 18 19  1  0
 19 20  1  0
 20 22  2  0
 20 21  1  0
M  END
$$$$
