LEG.pdb
     RDKit          3D

 22 21  0  0  1  0  0  0  0  0999 V2000
   23.3816  -14.6442  -15.3747 C   0  0  0  0  0  0  0  0  0  0  0  0
   24.4615  -13.8889  -16.0968 C   0  0  2  0  0  0  0  0  0  0  0  0
   25.7216  -13.8591  -15.2594 C   0  0  0  0  0  0  0  0  0  0  0  0
   24.0858  -12.4807  -16.4194 C   0  0  0  0  0  0  0  0  0  0  0  0
   22.8335  -12.3881  -17.2624 C   0  0  2  0  0  0  0  0  0  0  0  0
   22.9765  -13.0096  -18.5393 N   0  0  0  0  0  0  0  0  0  0  0  0
   22.3374  -10.9912  -17.3509 C   0  0  0  0  0  0  0  0  0  0  0  0
   22.7871  -10.2267  -18.2208 O   0  0  0  0  0  0  0  0  0  0  0  0
   21.3473  -10.4793  -16.4628 N   0  0  0  0  0  0  0  0  0  0  0  0
   20.8430   -9.1095  -16.5675 C   0  0  1  0  0  0  0  0  0  0  0  0
   19.3295   -9.0887  -16.4080 C   0  0  0  0  0  0  0  0  0  0  0  0
   18.6376   -9.8377  -17.5234 C   0  0  0  0  0  0  0  0  0  0  0  0
   17.9007  -10.9619  -16.9264 C   0  0  0  0  0  0  0  0  0  0  0  0
   16.9732  -10.7323  -16.0891 O   0  0  0  0  0  0  0  0  0  0  0  0
   21.4523   -8.3219  -15.4688 C   0  0  0  0  0  0  0  0  0  0  0  0
   21.4403   -8.7434  -14.2784 O   0  0  0  0  0  0  0  0  0  0  0  0
   18.1447  -12.2975  -17.2133 O   0  0  0  0  0  0  0  0  0  0  0  0
   22.0783   -7.0661  -15.6730 N   0  0  0  0  0  0  0  0  0  0  0  0
   22.6609   -6.3083  -14.5627 C   0  0  0  0  0  0  0  0  0  0  0  0
   21.7013   -5.3691  -13.9808 C   0  0  0  0  0  0  0  0  0  0  0  0
   22.1098   -4.5398  -12.9498 O   0  0  0  0  0  0  0  0  0  0  0  0
   20.5176   -5.2821  -14.3780 O   0  0  0  0  0  0  0  0  0  0  0  0
  2  1  1  1
  2  3  1  0
  4  2  1  0
  4  5  1  0
  5  7  1  0
  5  6  1  6
  7  9  1  0
  7  8  2  0
  9 10  1  0
 10 15  1  0
 10 11  1  1
 12 13  1  0
 12 11  1  0
 13 14  2  0
 15 16  2  0
 17 13  1  0
 18 15  1  0
 18 19  1  0
 19 20  1  0
 20 22  2  0
 20 21  1  0
M  END
$$$$
