LEG.pdb
     RDKit          3D

 22 21  0  0  1  0  0  0  0  0999 V2000
   16.1565  -13.8917  -15.8400 C   0  0  0  0  0  0  0  0  0  0  0  0
   17.2606  -13.4348  -16.7513 C   0  0  2  0  0  0  0  0  0  0  0  0
   18.5875  -13.9828  -16.2727 C   0  0  0  0  0  0  0  0  0  0  0  0
   17.3780  -11.9494  -16.8421 C   0  0  0  0  0  0  0  0  0  0  0  0
   18.2542  -11.3647  -15.7570 C   0  0  2  0  0  0  0  0  0  0  0  0
   17.7354  -11.5845  -14.4456 N   0  0  0  0  0  0  0  0  0  0  0  0
   18.5725   -9.9386  -16.0219 C   0  0  0  0  0  0  0  0  0  0  0  0
   19.0465   -9.6020  -17.1198 O   0  0  0  0  0  0  0  0  0  0  0  0
   18.3530   -8.9186  -15.0511 N   0  0  0  0  0  0  0  0  0  0  0  0
   18.6085   -7.5062  -15.3365 C   0  0  1  0  0  0  0  0  0  0  0  0
   17.3543   -6.6804  -15.0885 C   0  0  0  0  0  0  0  0  0  0  0  0
   16.3041   -6.9237  -16.1477 C   0  0  0  0  0  0  0  0  0  0  0  0
   15.0359   -6.3530  -15.6690 C   0  0  0  0  0  0  0  0  0  0  0  0
   14.9526   -5.9145  -14.4795 O   0  0  0  0  0  0  0  0  0  0  0  0
   19.6751   -7.0479  -14.4140 C   0  0  0  0  0  0  0  0  0  0  0  0
   19.7256   -7.4558  -13.2198 O   0  0  0  0  0  0  0  0  0  0  0  0
   13.8846   -6.2513  -16.4370 O   0  0  0  0  0  0  0  0  0  0  0  0
   20.6923   -6.1383  -14.7994 N   0  0  0  0  0  0  0  0  0  0  0  0
   21.7697   -5.7567  -13.8828 C   0  0  0  0  0  0  0  0  0  0  0  0
   22.8005   -4.9634  -14.5533 C   0  0  0  0  0  0  0  0  0  0  0  0
   23.8134   -4.3971  -13.7976 O   0  0  0  0  0  0  0  0  0  0  0  0
   22.8064   -4.7729  -15.7902 O   0  0  0  0  0  0  0  0  0  0  0  0
  2  1  1  1
  2  3  1  0
  4  2  1  0
  4  5  1  0
  5  7  1  0
  5  6  1  1
  7  9  1  0
  7  8  2  0
  9 10  1  0
 10 15  1  0
 10 11  1  1
 12 13  1  0
 12 11  1  0
 13 14  2  0
 15 16  2  0
 17 13  1  0
 18 15  1  0
 18 19  1  0
 19 20  1  0
 20 22  2  0
 20 21  1  0
M  END
$$$$
