LEG.pdb
     RDKit          3D

 22 21  0  0  1  0  0  0  0  0999 V2000
   28.4637  -19.6595   -5.2551 C   0  0  0  0  0  0  0  0  0  0  0  0
   27.8072  -19.1238   -6.4962 C   0  0  2  0  0  0  0  0  0  0  0  0
   26.6206  -18.2616   -6.1237 C   0  0  0  0  0  0  0  0  0  0  0  0
   27.3311  -20.1924   -7.4235 C   0  0  0  0  0  0  0  0  0  0  0  0
   25.8549  -20.0825   -7.7334 C   0  0  2  0  0  0  0  0  0  0  0  0
   25.0273  -20.5232   -6.6574 N   0  0  0  0  0  0  0  0  0  0  0  0
   25.5188  -20.7323   -9.0257 C   0  0  0  0  0  0  0  0  0  0  0  0
   25.4507  -21.9706   -9.0986 O   0  0  0  0  0  0  0  0  0  0  0  0
   25.2659  -19.9813  -10.2102 N   0  0  0  0  0  0  0  0  0  0  0  0
   24.9814  -20.6256  -11.4930 C   0  0  1  0  0  0  0  0  0  0  0  0
   23.6294  -20.1722  -12.0251 C   0  0  0  0  0  0  0  0  0  0  0  0
   23.2906  -20.8402  -13.3378 C   0  0  0  0  0  0  0  0  0  0  0  0
   21.9205  -20.4510  -13.7048 C   0  0  0  0  0  0  0  0  0  0  0  0
   21.4166  -19.3904  -13.2198 O   0  0  0  0  0  0  0  0  0  0  0  0
   26.0369  -20.2097  -12.4478 C   0  0  0  0  0  0  0  0  0  0  0  0
   26.6069  -19.0875  -12.3433 O   0  0  0  0  0  0  0  0  0  0  0  0
   21.1067  -21.1725  -14.5666 O   0  0  0  0  0  0  0  0  0  0  0  0
   26.4716  -21.0254  -13.5231 N   0  0  0  0  0  0  0  0  0  0  0  0
   27.5365  -20.5950  -14.4325 C   0  0  0  0  0  0  0  0  0  0  0  0
   27.7891  -21.5826  -15.4825 C   0  0  0  0  0  0  0  0  0  0  0  0
   28.7641  -21.3238  -16.4312 O   0  0  0  0  0  0  0  0  0  0  0  0
   27.1568  -22.6598  -15.5609 O   0  0  0  0  0  0  0  0  0  0  0  0
  2  1  1  1
  2  3  1  0
  4  2  1  0
  4  5  1  0
  5  7  1  0
  5  6  1  1
  7  9  1  0
  7  8  2  0
  9 10  1  0
 10 15  1  0
 10 11  1  6
 12 13  1  0
 12 11  1  0
 13 14  2  0
 15 16  2  0
 17 13  1  0
 18 15  1  0
 18 19  1  0
 19 20  1  0
 20 22  2  0
 20 21  1  0
M  END
$$$$
