LEG.pdb
     RDKit          3D

 22 21  0  0  1  0  0  0  0  0999 V2000
   17.8994  -14.3126    1.9711 C   0  0  0  0  0  0  0  0  0  0  0  0
   17.9268  -13.8795    3.4099 C   0  0  2  0  0  0  0  0  0  0  0  0
   19.1940  -13.1024    3.6931 C   0  0  0  0  0  0  0  0  0  0  0  0
   17.8559  -15.0178    4.3731 C   0  0  0  0  0  0  0  0  0  0  0  0
   16.5752  -15.8122    4.2463 C   0  0  2  0  0  0  0  0  0  0  0  0
   15.4381  -15.1176    4.7578 N   0  0  0  0  0  0  0  0  0  0  0  0
   16.7218  -17.1775    4.8115 C   0  0  0  0  0  0  0  0  0  0  0  0
   16.7323  -17.3419    6.0428 O   0  0  0  0  0  0  0  0  0  0  0  0
   16.8537  -18.3312    3.9853 N   0  0  0  0  0  0  0  0  0  0  0  0
   17.0299  -19.6719    4.5449 C   0  0  1  0  0  0  0  0  0  0  0  0
   16.5763  -20.7267    3.5458 C   0  0  0  0  0  0  0  0  0  0  0  0
   16.7121  -22.1242    4.1051 C   0  0  0  0  0  0  0  0  0  0  0  0
   16.2738  -23.0721    3.0695 C   0  0  0  0  0  0  0  0  0  0  0  0
   17.0751  -23.9673    2.6564 O   0  0  0  0  0  0  0  0  0  0  0  0
   18.4756  -19.8583    4.8164 C   0  0  0  0  0  0  0  0  0  0  0  0
   19.3490  -19.5067    3.9747 O   0  0  0  0  0  0  0  0  0  0  0  0
   15.0140  -23.0676    2.4877 O   0  0  0  0  0  0  0  0  0  0  0  0
   18.9692  -20.4325    6.0154 N   0  0  0  0  0  0  0  0  0  0  0  0
   20.4048  -20.6097    6.2483 C   0  0  0  0  0  0  0  0  0  0  0  0
   20.6770  -21.1717    7.5718 C   0  0  0  0  0  0  0  0  0  0  0  0
   21.9830  -21.4706    7.9218 O   0  0  0  0  0  0  0  0  0  0  0  0
   19.7731  -21.3958    8.4080 O   0  0  0  0  0  0  0  0  0  0  0  0
  2  1  1  6
  2  3  1  0
  4  2  1  0
  4  5  1  0
  5  7  1  0
  5  6  1  1
  7  9  1  0
  7  8  2  0
  9 10  1  0
 10 15  1  0
 10 11  1  6
 12 13  1  0
 12 11  1  0
 13 14  2  0
 15 16  2  0
 17 13  1  0
 18 15  1  0
 18 19  1  0
 19 20  1  0
 20 22  2  0
 20 21  1  0
M  END
$$$$
