LEG.pdb
     RDKit          3D

 22 21  0  0  1  0  0  0  0  0999 V2000
   26.6883  -14.6136  -15.1904 C   0  0  0  0  0  0  0  0  0  0  0  0
   25.3686  -13.9466  -15.4579 C   0  0  2  0  0  0  0  0  0  0  0  0
   24.7685  -14.4810  -16.7402 C   0  0  0  0  0  0  0  0  0  0  0  0
   25.4679  -12.4618  -15.5760 C   0  0  0  0  0  0  0  0  0  0  0  0
   24.1484  -11.7659  -15.3276 C   0  0  2  0  0  0  0  0  0  0  0  0
   23.0799  -12.3086  -16.1028 N   0  0  0  0  0  0  0  0  0  0  0  0
   24.2738  -10.2927  -15.4662 C   0  0  0  0  0  0  0  0  0  0  0  0
   25.1773   -9.6874  -14.8657 O   0  0  0  0  0  0  0  0  0  0  0  0
   23.3842   -9.5276  -16.2751 N   0  0  0  0  0  0  0  0  0  0  0  0
   23.5234   -8.0788  -16.4271 C   0  0  1  0  0  0  0  0  0  0  0  0
   23.2029   -7.6629  -17.8556 C   0  0  0  0  0  0  0  0  0  0  0  0
   21.8276   -8.1247  -18.2791 C   0  0  0  0  0  0  0  0  0  0  0  0
   21.5803   -7.6255  -19.6404 C   0  0  0  0  0  0  0  0  0  0  0  0
   22.2007   -8.1412  -20.6218 O   0  0  0  0  0  0  0  0  0  0  0  0
   22.5511   -7.4361  -15.5105 C   0  0  0  0  0  0  0  0  0  0  0  0
   21.6446   -8.1086  -14.9438 O   0  0  0  0  0  0  0  0  0  0  0  0
   20.6948   -6.6029  -19.9497 O   0  0  0  0  0  0  0  0  0  0  0  0
   22.5700   -6.0501  -15.2117 N   0  0  0  0  0  0  0  0  0  0  0  0
   21.6078   -5.4508  -14.2835 C   0  0  0  0  0  0  0  0  0  0  0  0
   21.8175   -4.0101  -14.1358 C   0  0  0  0  0  0  0  0  0  0  0  0
   20.9422   -3.2782  -13.3512 O   0  0  0  0  0  0  0  0  0  0  0  0
   22.7615   -3.4057  -14.6926 O   0  0  0  0  0  0  0  0  0  0  0  0
  2  1  1  6
  2  3  1  0
  4  2  1  0
  4  5  1  0
  5  7  1  0
  5  6  1  6
  7  9  1  0
  7  8  2  0
  9 10  1  0
 10 15  1  0
 10 11  1  6
 12 13  1  0
 12 11  1  0
 13 14  2  0
 15 16  2  0
 17 13  1  0
 18 15  1  0
 18 19  1  0
 19 20  1  0
 20 22  2  0
 20 21  1  0
M  END
$$$$
