LEG.pdb
     RDKit          3D

 22 21  0  0  1  0  0  0  0  0999 V2000
   23.8234  -13.1139  -14.5179 C   0  0  0  0  0  0  0  0  0  0  0  0
   24.2141  -12.8973  -15.9527 C   0  0  2  0  0  0  0  0  0  0  0  0
   25.7217  -12.8856  -16.0830 C   0  0  0  0  0  0  0  0  0  0  0  0
   23.6895  -11.6218  -16.5240 C   0  0  0  0  0  0  0  0  0  0  0  0
   22.1782  -11.5662  -16.5398 C   0  0  2  0  0  0  0  0  0  0  0  0
   21.5953  -12.5508  -17.3930 N   0  0  0  0  0  0  0  0  0  0  0  0
   21.6856  -10.1935  -16.8192 C   0  0  0  0  0  0  0  0  0  0  0  0
   21.7627   -9.7282  -17.9685 O   0  0  0  0  0  0  0  0  0  0  0  0
   21.1164   -9.3698  -15.8049 N   0  0  0  0  0  0  0  0  0  0  0  0
   20.5727   -8.0427  -16.0957 C   0  0  1  0  0  0  0  0  0  0  0  0
   19.0844   -7.9992  -15.7798 C   0  0  0  0  0  0  0  0  0  0  0  0
   18.5032   -6.6225  -16.0053 C   0  0  0  0  0  0  0  0  0  0  0  0
   17.0733   -6.6721  -15.6645 C   0  0  0  0  0  0  0  0  0  0  0  0
   16.5934   -7.7119  -15.1145 O   0  0  0  0  0  0  0  0  0  0  0  0
   21.2765   -7.0692  -15.2265 C   0  0  0  0  0  0  0  0  0  0  0  0
   21.5133   -7.3285  -14.0134 O   0  0  0  0  0  0  0  0  0  0  0  0
   16.1761   -5.6406  -15.9030 O   0  0  0  0  0  0  0  0  0  0  0  0
   21.7239   -5.8047  -15.6865 N   0  0  0  0  0  0  0  0  0  0  0  0
   22.4036   -4.8598  -14.7967 C   0  0  0  0  0  0  0  0  0  0  0  0
   21.4536   -4.0384  -14.0455 C   0  0  0  0  0  0  0  0  0  0  0  0
   20.0961   -4.2226  -14.2474 O   0  0  0  0  0  0  0  0  0  0  0  0
   21.8178   -3.1694  -13.2217 O   0  0  0  0  0  0  0  0  0  0  0  0
  2  1  1  1
  2  3  1  0
  4  2  1  0
  4  5  1  0
  5  7  1  0
  5  6  1  6
  7  9  1  0
  7  8  2  0
  9 10  1  0
 10 15  1  0
 10 11  1  1
 12 13  1  0
 12 11  1  0
 13 14  2  0
 15 16  2  0
 17 13  1  0
 18 15  1  0
 18 19  1  0
 19 20  1  0
 20 22  2  0
 20 21  1  0
M  END
$$$$
