LEG.pdb
     RDKit          3D

 22 21  0  0  1  0  0  0  0  0999 V2000
   17.7940  -12.3718  -17.2509 C   0  0  0  0  0  0  0  0  0  0  0  0
   19.0145  -12.8864  -16.5411 C   0  0  2  0  0  0  0  0  0  0  0  0
   18.6590  -13.2922  -15.1273 C   0  0  0  0  0  0  0  0  0  0  0  0
   20.1244  -11.8906  -16.4726 C   0  0  0  0  0  0  0  0  0  0  0  0
   20.5874  -11.4361  -17.8387 C   0  0  2  0  0  0  0  0  0  0  0  0
   21.2146  -12.4771  -18.5872 N   0  0  0  0  0  0  0  0  0  0  0  0
   21.4146  -10.2058  -17.7532 C   0  0  0  0  0  0  0  0  0  0  0  0
   22.6238  -10.2885  -17.4811 O   0  0  0  0  0  0  0  0  0  0  0  0
   20.8697   -8.9076  -17.9744 N   0  0  0  0  0  0  0  0  0  0  0  0
   21.6638   -7.6911  -17.7978 C   0  0  1  0  0  0  0  0  0  0  0  0
   21.3123   -6.6689  -18.8693 C   0  0  0  0  0  0  0  0  0  0  0  0
   21.8514   -7.0681  -20.2236 C   0  0  0  0  0  0  0  0  0  0  0  0
   21.4494   -6.0381  -21.1937 C   0  0  0  0  0  0  0  0  0  0  0  0
   20.9039   -4.9665  -20.7837 O   0  0  0  0  0  0  0  0  0  0  0  0
   21.3300   -7.1265  -16.4680 C   0  0  0  0  0  0  0  0  0  0  0  0
   20.1348   -6.8759  -16.1461 O   0  0  0  0  0  0  0  0  0  0  0  0
   21.6237   -6.1458  -22.5662 O   0  0  0  0  0  0  0  0  0  0  0  0
   22.3087   -6.8343  -15.4844 N   0  0  0  0  0  0  0  0  0  0  0  0
   21.9537   -6.2035  -14.2106 C   0  0  0  0  0  0  0  0  0  0  0  0
   21.5211   -7.1871  -13.2171 C   0  0  0  0  0  0  0  0  0  0  0  0
   21.3188   -8.4991  -13.6109 O   0  0  0  0  0  0  0  0  0  0  0  0
   21.3246   -6.8913  -12.0170 O   0  0  0  0  0  0  0  0  0  0  0  0
  2  1  1  1
  2  3  1  0
  4  2  1  0
  4  5  1  0
  5  7  1  0
  5  6  1  1
  7  9  1  0
  7  8  2  0
  9 10  1  0
 10 15  1  0
 10 11  1  6
 12 13  1  0
 12 11  1  0
 13 14  2  0
 15 16  2  0
 17 13  1  0
 18 15  1  0
 18 19  1  0
 19 20  1  0
 20 22  2  0
 20 21  1  0
M  END
$$$$
