LEG.pdb
     RDKit          3D

 22 21  0  0  1  0  0  0  0  0999 V2000
   24.0894  -30.8739   -9.0551 C   0  0  0  0  0  0  0  0  0  0  0  0
   23.7376  -32.2250   -9.6109 C   0  0  2  0  0  0  0  0  0  0  0  0
   22.2627  -32.2799   -9.9450 C   0  0  0  0  0  0  0  0  0  0  0  0
   24.0435  -33.3484   -8.6766 C   0  0  0  0  0  0  0  0  0  0  0  0
   25.5065  -33.4127   -8.2986 C   0  0  2  0  0  0  0  0  0  0  0  0
   26.3565  -33.6828   -9.4128 N   0  0  0  0  0  0  0  0  0  0  0  0
   25.7354  -34.3364   -7.1586 C   0  0  0  0  0  0  0  0  0  0  0  0
   26.2783  -35.4371   -7.3510 O   0  0  0  0  0  0  0  0  0  0  0  0
   25.3513  -34.0080   -5.8261 N   0  0  0  0  0  0  0  0  0  0  0  0
   25.6027  -34.9087   -4.7004 C   0  0  1  0  0  0  0  0  0  0  0  0
   26.9603  -34.6136   -4.0789 C   0  0  0  0  0  0  0  0  0  0  0  0
   27.2828  -35.5714   -2.9552 C   0  0  0  0  0  0  0  0  0  0  0  0
   28.6164  -35.2304   -2.4369 C   0  0  0  0  0  0  0  0  0  0  0  0
   29.5993  -35.9995   -2.6750 O   0  0  0  0  0  0  0  0  0  0  0  0
   24.5479  -34.6655   -3.6871 C   0  0  0  0  0  0  0  0  0  0  0  0
   24.2447  -33.4932   -3.3282 O   0  0  0  0  0  0  0  0  0  0  0  0
   28.8972  -34.0992   -1.6839 O   0  0  0  0  0  0  0  0  0  0  0  0
   23.8204  -35.7102   -3.0626 N   0  0  0  0  0  0  0  0  0  0  0  0
   22.8117  -35.4370   -2.0357 C   0  0  0  0  0  0  0  0  0  0  0  0
   23.4183  -34.9908   -0.7808 C   0  0  0  0  0  0  0  0  0  0  0  0
   22.6019  -34.7251    0.3056 O   0  0  0  0  0  0  0  0  0  0  0  0
   24.6531  -34.8377   -0.6460 O   0  0  0  0  0  0  0  0  0  0  0  0
  2  1  1  1
  2  3  1  0
  4  2  1  0
  4  5  1  0
  5  7  1  0
  5  6  1  6
  7  9  1  0
  7  8  2  0
  9 10  1  0
 10 15  1  0
 10 11  1  1
 12 13  1  0
 12 11  1  0
 13 14  2  0
 15 16  2  0
 17 13  1  0
 18 15  1  0
 18 19  1  0
 19 20  1  0
 20 22  2  0
 20 21  1  0
M  END
$$$$
