LMG.pdb
     RDKit          3D

 21 20  0  0  1  0  0  0  0  0999 V2000
    8.4603  -14.3718   18.5014 C   0  0  0  0  0  0  0  0  0  0  0  0
    7.6057  -13.7143   19.5918 C   0  0  2  0  0  0  0  0  0  0  0  0
    7.0771  -12.4002   19.0622 C   0  0  0  0  0  0  0  0  0  0  0  0
    8.5070  -13.5127   20.7676 C   0  0  0  0  0  0  0  0  0  0  0  0
    8.8410  -14.8216   21.4047 C   0  0  2  0  0  0  0  0  0  0  0  0
    7.7668  -15.7530   21.2041 N   0  0  0  0  0  0  0  0  0  0  0  0
    9.1168  -14.6051   22.8573 C   0  0  0  0  0  0  0  0  0  0  0  0
    9.9913  -13.7704   23.1769 O   0  0  0  0  0  0  0  0  0  0  0  0
    6.2273  -10.9877   26.7841 C   0  0  0  0  0  0  0  0  0  0  0  0
    7.1182  -12.5448   27.0692 S   0  0  0  0  0  0  0  0  0  0  0  0
    6.7236  -13.6816   25.6908 C   0  0  0  0  0  0  0  0  0  0  0  0
    7.4034  -14.9880   25.9754 C   0  0  0  0  0  0  0  0  0  0  0  0
    8.7130  -15.0655   25.2556 C   0  0  2  0  0  0  0  0  0  0  0  0
    8.4090  -15.3235   23.8372 N   0  0  0  0  0  0  0  0  0  0  0  0
    9.6214  -16.1218   25.7511 C   0  0  0  0  0  0  0  0  0  0  0  0
   10.0519  -16.1504   26.9211 O   0  0  0  0  0  0  0  0  0  0  0  0
   10.0499  -17.1761   24.8829 N   0  0  0  0  0  0  0  0  0  0  0  0
   11.0754  -18.1061   25.3210 C   0  0  0  0  0  0  0  0  0  0  0  0
   10.4377  -19.1691   26.1316 C   0  0  0  0  0  0  0  0  0  0  0  0
    9.1954  -18.9252   26.7267 O   0  0  0  0  0  0  0  0  0  0  0  0
   10.9888  -20.2774   26.2927 O   0  0  0  0  0  0  0  0  0  0  0  0
  2  3  1  6
  2  1  1  0
  4  5  1  0
  4  2  1  0
  5  6  1  1
  5  7  1  0
  7  8  2  0
  9 10  1  0
 10 11  1  0
 11 12  1  0
 13 12  1  1
 14  7  1  0
 14 13  1  0
 15 13  1  0
 15 16  2  0
 17 18  1  0
 17 15  1  0
 19 18  1  0
 20 19  1  0
 21 19  2  0
M  END
$$$$
