LMG.pdb
     RDKit          3D

 21 20  0  0  1  0  0  0  0  0999 V2000
    8.8407  -14.4190   18.5031 C   0  0  0  0  0  0  0  0  0  0  0  0
    7.8317  -13.7445   19.4404 C   0  0  2  0  0  0  0  0  0  0  0  0
    7.4935  -12.3803   18.8824 C   0  0  0  0  0  0  0  0  0  0  0  0
    8.4991  -13.6448   20.7746 C   0  0  0  0  0  0  0  0  0  0  0  0
    8.7034  -15.0022   21.3632 C   0  0  2  0  0  0  0  0  0  0  0  0
    7.5301  -15.8052   21.1629 N   0  0  0  0  0  0  0  0  0  0  0  0
    9.0339  -14.8643   22.8140 C   0  0  0  0  0  0  0  0  0  0  0  0
   10.0721  -14.2424   23.1291 O   0  0  0  0  0  0  0  0  0  0  0  0
    5.5016  -11.3713   27.1414 C   0  0  0  0  0  0  0  0  0  0  0  0
    7.0505  -12.3198   27.1092 S   0  0  0  0  0  0  0  0  0  0  0  0
    7.0966  -13.2728   25.5479 C   0  0  0  0  0  0  0  0  0  0  0  0
    7.3305  -14.7108   25.9044 C   0  0  0  0  0  0  0  0  0  0  0  0
    8.5523  -15.2302   25.2141 C   0  0  2  0  0  0  0  0  0  0  0  0
    8.1967  -15.4209   23.7971 N   0  0  0  0  0  0  0  0  0  0  0  0
    9.0642  -16.5073   25.7560 C   0  0  0  0  0  0  0  0  0  0  0  0
    9.2483  -16.7004   26.9741 O   0  0  0  0  0  0  0  0  0  0  0  0
    9.3748  -17.5951   24.8789 N   0  0  0  0  0  0  0  0  0  0  0  0
    9.9178  -18.8295   25.4169 C   0  0  0  0  0  0  0  0  0  0  0  0
   11.3911  -18.8058   25.2667 C   0  0  0  0  0  0  0  0  0  0  0  0
   12.1432  -19.8982   25.7118 O   0  0  0  0  0  0  0  0  0  0  0  0
   11.9725  -17.8293   24.7505 O   0  0  0  0  0  0  0  0  0  0  0  0
  2  3  1  6
  2  1  1  0
  4  5  1  0
  4  2  1  0
  5  6  1  1
  5  7  1  0
  7  8  2  0
  9 10  1  0
 10 11  1  0
 11 12  1  0
 13 12  1  1
 14  7  1  0
 14 13  1  0
 15 13  1  0
 15 16  2  0
 17 18  1  0
 17 15  1  0
 19 18  1  0
 20 19  1  0
 21 19  2  0
M  END
$$$$
