LMG.pdb
     RDKit          3D

 21 20  0  0  1  0  0  0  0  0999 V2000
    8.4018  -12.2898   19.7455 C   0  0  0  0  0  0  0  0  0  0  0  0
    8.0678  -13.7626   19.4784 C   0  0  2  0  0  0  0  0  0  0  0  0
    6.8330  -13.8260   18.6078 C   0  0  0  0  0  0  0  0  0  0  0  0
    7.8329  -14.3892   20.8155 C   0  0  0  0  0  0  0  0  0  0  0  0
    9.0498  -14.2704   21.6731 C   0  0  2  0  0  0  0  0  0  0  0  0
   10.1674  -14.9009   21.0288 N   0  0  0  0  0  0  0  0  0  0  0  0
    8.7709  -14.8786   23.0093 C   0  0  0  0  0  0  0  0  0  0  0  0
    9.5310  -15.7829   23.4194 O   0  0  0  0  0  0  0  0  0  0  0  0
    6.6470  -10.1480   27.4121 C   0  0  0  0  0  0  0  0  0  0  0  0
    5.9139  -11.7691   27.0456 S   0  0  0  0  0  0  0  0  0  0  0  0
    7.1716  -12.7737   26.1755 C   0  0  0  0  0  0  0  0  0  0  0  0
    6.5465  -14.0989   25.8545 C   0  0  0  0  0  0  0  0  0  0  0  0
    7.5245  -14.9819   25.1452 C   0  0  2  0  0  0  0  0  0  0  0  0
    7.6808  -14.4426   23.7831 N   0  0  0  0  0  0  0  0  0  0  0  0
    7.1144  -16.3998   25.0554 C   0  0  0  0  0  0  0  0  0  0  0  0
    6.0870  -16.7706   24.4540 O   0  0  0  0  0  0  0  0  0  0  0  0
    7.9027  -17.4234   25.6719 N   0  0  0  0  0  0  0  0  0  0  0  0
    7.5177  -18.8168   25.5370 C   0  0  0  0  0  0  0  0  0  0  0  0
    8.4510  -19.6469   26.3331 C   0  0  0  0  0  0  0  0  0  0  0  0
    7.9497  -20.4338   27.3754 O   0  0  0  0  0  0  0  0  0  0  0  0
    9.6753  -19.6563   26.0905 O   0  0  0  0  0  0  0  0  0  0  0  0
  2  3  1  6
  2  1  1  0
  4  5  1  0
  4  2  1  0
  5  6  1  6
  5  7  1  0
  7  8  2  0
  9 10  1  0
 10 11  1  0
 11 12  1  0
 13 12  1  6
 14  7  1  0
 14 13  1  0
 15 13  1  0
 15 16  2  0
 17 18  1  0
 17 15  1  0
 19 18  1  0
 20 19  1  0
 21 19  2  0
M  END
$$$$
