LMG.pdb
     RDKit          3D

 21 20  0  0  1  0  0  0  0  0999 V2000
    7.8422  -14.3822   18.0891 C   0  0  0  0  0  0  0  0  0  0  0  0
    7.7622  -13.5630   19.3830 C   0  0  2  0  0  0  0  0  0  0  0  0
    7.6119  -12.1028   19.0199 C   0  0  0  0  0  0  0  0  0  0  0  0
    9.0365  -13.8194   20.1220 C   0  0  0  0  0  0  0  0  0  0  0  0
    8.9532  -15.1003   20.8854 C   0  0  2  0  0  0  0  0  0  0  0  0
    7.7285  -15.7805   20.5701 N   0  0  0  0  0  0  0  0  0  0  0  0
    9.0595  -14.8092   22.3473 C   0  0  0  0  0  0  0  0  0  0  0  0
   10.0980  -14.2535   22.7672 O   0  0  0  0  0  0  0  0  0  0  0  0
    7.2014  -10.8206   27.2253 C   0  0  0  0  0  0  0  0  0  0  0  0
    6.1972  -12.3144   26.9802 S   0  0  0  0  0  0  0  0  0  0  0  0
    7.3293  -13.6981   26.5908 C   0  0  0  0  0  0  0  0  0  0  0  0
    7.1261  -14.0541   25.1479 C   0  0  0  0  0  0  0  0  0  0  0  0
    8.2205  -14.9565   24.6713 C   0  0  2  0  0  0  0  0  0  0  0  0
    8.0164  -15.1527   23.2254 N   0  0  0  0  0  0  0  0  0  0  0  0
    8.2556  -16.2777   25.3343 C   0  0  0  0  0  0  0  0  0  0  0  0
    7.2640  -17.0315   25.3946 O   0  0  0  0  0  0  0  0  0  0  0  0
    9.4602  -16.7504   25.9465 N   0  0  0  0  0  0  0  0  0  0  0  0
    9.4969  -18.0684   26.5546 C   0  0  0  0  0  0  0  0  0  0  0  0
   10.8288  -18.2705   27.1704 C   0  0  0  0  0  0  0  0  0  0  0  0
   11.0490  -19.3943   27.9738 O   0  0  0  0  0  0  0  0  0  0  0  0
   11.7568  -17.4566   26.9851 O   0  0  0  0  0  0  0  0  0  0  0  0
  2  3  1  6
  2  1  1  0
  4  5  1  0
  4  2  1  0
  5  6  1  1
  5  7  1  0
  7  8  2  0
  9 10  1  0
 10 11  1  0
 11 12  1  0
 13 12  1  1
 14  7  1  0
 14 13  1  0
 15 13  1  0
 15 16  2  0
 17 18  1  0
 17 15  1  0
 19 18  1  0
 20 19  1  0
 21 19  2  0
M  END
$$$$
