LMG.pdb
     RDKit          3D

 21 20  0  0  1  0  0  0  0  0999 V2000
    6.1507  -12.8454   25.6933 C   0  0  0  0  0  0  0  0  0  0  0  0
    6.7045  -13.4251   27.0007 C   0  0  2  0  0  0  0  0  0  0  0  0
    7.5198  -12.3566   27.6938 C   0  0  0  0  0  0  0  0  0  0  0  0
    7.5467  -14.5991   26.6161 C   0  0  0  0  0  0  0  0  0  0  0  0
    6.7337  -15.6093   25.8751 C   0  0  2  0  0  0  0  0  0  0  0  0
    6.5446  -16.7781   26.6875 N   0  0  0  0  0  0  0  0  0  0  0  0
    7.4153  -15.9398   24.5870 C   0  0  0  0  0  0  0  0  0  0  0  0
    8.0904  -16.9906   24.5259 O   0  0  0  0  0  0  0  0  0  0  0  0
    8.0258  -11.8380   19.2662 C   0  0  0  0  0  0  0  0  0  0  0  0
    7.7484  -13.5323   18.6728 S   0  0  0  0  0  0  0  0  0  0  0  0
    8.4044  -14.6861   19.9324 C   0  0  0  0  0  0  0  0  0  0  0  0
    7.6670  -14.4233   21.2118 C   0  0  0  0  0  0  0  0  0  0  0  0
    8.0960  -15.3882   22.2720 C   0  0  2  0  0  0  0  0  0  0  0  0
    7.2983  -15.0886   23.4739 N   0  0  0  0  0  0  0  0  0  0  0  0
    9.5316  -15.3165   22.6192 C   0  0  0  0  0  0  0  0  0  0  0  0
    9.9964  -14.4674   23.4053 O   0  0  0  0  0  0  0  0  0  0  0  0
   10.4627  -16.2431   22.0503 N   0  0  0  0  0  0  0  0  0  0  0  0
   11.8848  -16.0896   22.3005 C   0  0  0  0  0  0  0  0  0  0  0  0
   12.6184  -17.1056   21.5110 C   0  0  0  0  0  0  0  0  0  0  0  0
   14.0166  -17.0721   21.4812 O   0  0  0  0  0  0  0  0  0  0  0  0
   12.0116  -17.9900   20.8727 O   0  0  0  0  0  0  0  0  0  0  0  0
  2  3  1  6
  2  1  1  0
  4  5  1  0
  4  2  1  0
  5  6  1  1
  5  7  1  0
  7  8  2  0
  9 10  1  0
 10 11  1  0
 11 12  1  0
 13 12  1  6
 14  7  1  0
 14 13  1  0
 15 13  1  0
 15 16  2  0
 17 18  1  0
 17 15  1  0
 19 18  1  0
 20 19  1  0
 21 19  2  0
M  END
$$$$
