LMG.pdb
     RDKit          3D

 21 20  0  0  1  0  0  0  0  0999 V2000
   11.4039  -14.9049   29.7077 C   0  0  0  0  0  0  0  0  0  0  0  0
   10.3350  -14.8580   28.6091 C   0  0  2  0  0  0  0  0  0  0  0  0
    9.2895  -13.8370   28.9979 C   0  0  0  0  0  0  0  0  0  0  0  0
    9.7575  -16.2346   28.5259 C   0  0  0  0  0  0  0  0  0  0  0  0
   10.0771  -16.8602   27.2078 C   0  0  2  0  0  0  0  0  0  0  0  0
   11.3285  -16.3562   26.7163 N   0  0  0  0  0  0  0  0  0  0  0  0
    8.9615  -16.5886   26.2514 C   0  0  0  0  0  0  0  0  0  0  0  0
    7.8800  -17.1949   26.4142 O   0  0  0  0  0  0  0  0  0  0  0  0
    7.2874  -11.2382   26.6664 C   0  0  0  0  0  0  0  0  0  0  0  0
    6.0290  -12.3900   26.0425 S   0  0  0  0  0  0  0  0  0  0  0  0
    6.8052  -14.0387   25.8768 C   0  0  0  0  0  0  0  0  0  0  0  0
    7.4686  -14.0913   24.5326 C   0  0  0  0  0  0  0  0  0  0  0  0
    8.0046  -15.4626   24.2656 C   0  0  2  0  0  0  0  0  0  0  0  0
    9.1270  -15.6739   25.1963 N   0  0  0  0  0  0  0  0  0  0  0  0
    8.4826  -15.6736   22.8823 C   0  0  0  0  0  0  0  0  0  0  0  0
    7.7769  -15.4448   21.8799 O   0  0  0  0  0  0  0  0  0  0  0  0
    9.8064  -16.1605   22.6384 N   0  0  0  0  0  0  0  0  0  0  0  0
   10.2273  -16.4731   21.2844 C   0  0  0  0  0  0  0  0  0  0  0  0
   11.6260  -16.9589   21.3219 C   0  0  0  0  0  0  0  0  0  0  0  0
   11.8982  -18.2242   21.8528 O   0  0  0  0  0  0  0  0  0  0  0  0
   12.5649  -16.2598   20.8885 O   0  0  0  0  0  0  0  0  0  0  0  0
  2  3  1  1
  2  1  1  0
  4  5  1  0
  4  2  1  0
  5  6  1  6
  5  7  1  0
  7  8  2  0
  9 10  1  0
 10 11  1  0
 11 12  1  0
 13 12  1  6
 14  7  1  0
 14 13  1  0
 15 13  1  0
 15 16  2  0
 17 18  1  0
 17 15  1  0
 19 18  1  0
 20 19  1  0
 21 19  2  0
M  END
$$$$
