LMG.pdb
     RDKit          3D

 21 20  0  0  1  0  0  0  0  0999 V2000
    9.1437  -14.0546   18.6089 C   0  0  0  0  0  0  0  0  0  0  0  0
    7.8870  -13.6213   19.3737 C   0  0  2  0  0  0  0  0  0  0  0  0
    7.4189  -12.2950   18.8185 C   0  0  0  0  0  0  0  0  0  0  0  0
    8.2875  -13.5078   20.8098 C   0  0  0  0  0  0  0  0  0  0  0  0
    8.7013  -14.8384   21.3471 C   0  0  2  0  0  0  0  0  0  0  0  0
    7.6791  -15.8124   21.0858 N   0  0  0  0  0  0  0  0  0  0  0  0
    8.9796  -14.7129   22.8100 C   0  0  0  0  0  0  0  0  0  0  0  0
    9.8916  -13.9395   23.1758 O   0  0  0  0  0  0  0  0  0  0  0  0
    6.2235  -10.8391   26.7509 C   0  0  0  0  0  0  0  0  0  0  0  0
    6.5710  -12.5850   27.1124 S   0  0  0  0  0  0  0  0  0  0  0  0
    6.9341  -13.4279   25.5294 C   0  0  0  0  0  0  0  0  0  0  0  0
    7.2548  -14.8589   25.8442 C   0  0  0  0  0  0  0  0  0  0  0  0
    8.5317  -15.2685   25.1800 C   0  0  2  0  0  0  0  0  0  0  0  0
    8.2331  -15.4473   23.7484 N   0  0  0  0  0  0  0  0  0  0  0  0
    9.1212  -16.5181   25.7067 C   0  0  0  0  0  0  0  0  0  0  0  0
    9.3107  -16.7172   26.9230 O   0  0  0  0  0  0  0  0  0  0  0  0
    9.5053  -17.5708   24.8159 N   0  0  0  0  0  0  0  0  0  0  0  0
   10.0335  -18.8148   25.3466 C   0  0  0  0  0  0  0  0  0  0  0  0
   11.5035  -18.6893   25.4775 C   0  0  0  0  0  0  0  0  0  0  0  0
   12.1070  -17.4456   25.2632 O   0  0  0  0  0  0  0  0  0  0  0  0
   12.2122  -19.6727   25.7753 O   0  0  0  0  0  0  0  0  0  0  0  0
  2  3  1  6
  2  1  1  0
  4  5  1  0
  4  2  1  0
  5  6  1  1
  5  7  1  0
  7  8  2  0
  9 10  1  0
 10 11  1  0
 11 12  1  0
 13 12  1  1
 14  7  1  0
 14 13  1  0
 15 13  1  0
 15 16  2  0
 17 18  1  0
 17 15  1  0
 19 18  1  0
 20 19  1  0
 21 19  2  0
M  END
$$$$
