LMG.pdb
     RDKit          3D

 21 20  0  0  1  0  0  0  0  0999 V2000
    8.9489  -14.3206   18.5163 C   0  0  0  0  0  0  0  0  0  0  0  0
    7.8427  -13.7355   19.4028 C   0  0  2  0  0  0  0  0  0  0  0  0
    7.3558  -12.4475   18.7778 C   0  0  0  0  0  0  0  0  0  0  0  0
    8.4601  -13.4990   20.7439 C   0  0  0  0  0  0  0  0  0  0  0  0
    8.8290  -14.7946   21.3888 C   0  0  2  0  0  0  0  0  0  0  0  0
    7.7764  -15.7531   21.2013 N   0  0  0  0  0  0  0  0  0  0  0  0
    9.1074  -14.5606   22.8382 C   0  0  0  0  0  0  0  0  0  0  0  0
   10.0726  -13.8274   23.1457 O   0  0  0  0  0  0  0  0  0  0  0  0
    6.0413  -11.6362   27.7505 C   0  0  0  0  0  0  0  0  0  0  0  0
    7.2824  -11.8230   26.4372 S   0  0  0  0  0  0  0  0  0  0  0  0
    6.6981  -13.1224   25.2891 C   0  0  0  0  0  0  0  0  0  0  0  0
    7.1860  -14.4400   25.8140 C   0  0  0  0  0  0  0  0  0  0  0  0
    8.5250  -14.7721   25.2346 C   0  0  2  0  0  0  0  0  0  0  0  0
    8.3026  -15.1513   23.8284 N   0  0  0  0  0  0  0  0  0  0  0  0
    9.2325  -15.8736   25.9221 C   0  0  0  0  0  0  0  0  0  0  0  0
    9.3429  -15.9373   27.1625 O   0  0  0  0  0  0  0  0  0  0  0  0
    9.8313  -16.9332   25.1686 N   0  0  0  0  0  0  0  0  0  0  0  0
   10.4645  -18.0448   25.8553 C   0  0  0  0  0  0  0  0  0  0  0  0
   10.9257  -19.0261   24.8462 C   0  0  0  0  0  0  0  0  0  0  0  0
   11.5109  -20.2233   25.2718 O   0  0  0  0  0  0  0  0  0  0  0  0
   10.8015  -18.8036   23.6243 O   0  0  0  0  0  0  0  0  0  0  0  0
  2  3  1  6
  2  1  1  0
  4  5  1  0
  4  2  1  0
  5  6  1  1
  5  7  1  0
  7  8  2  0
  9 10  1  0
 10 11  1  0
 11 12  1  0
 13 12  1  1
 14  7  1  0
 14 13  1  0
 15 13  1  0
 15 16  2  0
 17 18  1  0
 17 15  1  0
 19 18  1  0
 20 19  1  0
 21 19  2  0
M  END
$$$$
