LMG.pdb
     RDKit          3D

 21 20  0  0  1  0  0  0  0  0999 V2000
    7.7084  -15.1526   19.8546 C   0  0  0  0  0  0  0  0  0  0  0  0
    7.4017  -13.8398   20.5855 C   0  0  2  0  0  0  0  0  0  0  0  0
    7.6734  -12.6891   19.6428 C   0  0  0  0  0  0  0  0  0  0  0  0
    8.3041  -13.8016   21.7770 C   0  0  0  0  0  0  0  0  0  0  0  0
    7.9175  -14.8542   22.7635 C   0  0  2  0  0  0  0  0  0  0  0  0
    6.5808  -14.6197   23.2324 N   0  0  0  0  0  0  0  0  0  0  0  0
    8.9015  -14.8592   23.8882 C   0  0  0  0  0  0  0  0  0  0  0  0
    8.9433  -13.8638   24.6438 O   0  0  0  0  0  0  0  0  0  0  0  0
    9.3394  -13.2924   28.8821 C   0  0  0  0  0  0  0  0  0  0  0  0
   10.5190  -14.2811   27.9172 S   0  0  0  0  0  0  0  0  0  0  0  0
    9.5775  -15.5734   27.0275 C   0  0  0  0  0  0  0  0  0  0  0  0
   10.5673  -16.4212   26.2849 C   0  0  0  0  0  0  0  0  0  0  0  0
   10.9213  -15.7888   24.9757 C   0  0  2  0  0  0  0  0  0  0  0  0
    9.7570  -15.9570   24.0887 N   0  0  0  0  0  0  0  0  0  0  0  0
   12.1123  -16.3690   24.3189 C   0  0  0  0  0  0  0  0  0  0  0  0
   12.3069  -17.5977   24.2329 O   0  0  0  0  0  0  0  0  0  0  0  0
   13.1100  -15.5187   23.7438 N   0  0  0  0  0  0  0  0  0  0  0  0
   14.2673  -16.0988   23.0861 C   0  0  0  0  0  0  0  0  0  0  0  0
   15.3727  -16.1952   24.0672 C   0  0  0  0  0  0  0  0  0  0  0  0
   16.6561  -15.7796   23.6969 O   0  0  0  0  0  0  0  0  0  0  0  0
   15.1792  -16.6402   25.2172 O   0  0  0  0  0  0  0  0  0  0  0  0
  2  3  1  6
  2  1  1  0
  4  5  1  0
  4  2  1  0
  5  6  1  1
  5  7  1  0
  7  8  2  0
  9 10  1  0
 10 11  1  0
 11 12  1  0
 13 12  1  1
 14  7  1  0
 14 13  1  0
 15 13  1  0
 15 16  2  0
 17 18  1  0
 17 15  1  0
 19 18  1  0
 20 19  1  0
 21 19  2  0
M  END
$$$$
