LMG.pdb
     RDKit          3D

 21 20  0  0  1  0  0  0  0  0999 V2000
    6.5664  -14.6197   19.8220 C   0  0  0  0  0  0  0  0  0  0  0  0
    7.7805  -13.7903   20.2577 C   0  0  2  0  0  0  0  0  0  0  0  0
    7.8554  -12.5541   19.3900 C   0  0  0  0  0  0  0  0  0  0  0  0
    8.9769  -14.6676   20.0726 C   0  0  0  0  0  0  0  0  0  0  0  0
    9.0042  -15.7448   21.1067 C   0  0  2  0  0  0  0  0  0  0  0  0
    7.8036  -16.5286   21.0303 N   0  0  0  0  0  0  0  0  0  0  0  0
    9.1717  -15.1262   22.4567 C   0  0  0  0  0  0  0  0  0  0  0  0
   10.1410  -14.3579   22.6407 O   0  0  0  0  0  0  0  0  0  0  0  0
    6.6905  -11.1867   28.0894 C   0  0  0  0  0  0  0  0  0  0  0  0
    6.1569  -12.2472   26.7146 S   0  0  0  0  0  0  0  0  0  0  0  0
    7.2656  -13.7018   26.6603 C   0  0  0  0  0  0  0  0  0  0  0  0
    7.1431  -14.3111   25.2952 C   0  0  0  0  0  0  0  0  0  0  0  0
    8.4787  -14.7771   24.8071 C   0  0  2  0  0  0  0  0  0  0  0  0
    8.2607  -15.4032   23.4914 N   0  0  0  0  0  0  0  0  0  0  0  0
    9.1489  -15.7503   25.6961 C   0  0  0  0  0  0  0  0  0  0  0  0
    9.5518  -15.4572   26.8392 O   0  0  0  0  0  0  0  0  0  0  0  0
    9.3646  -17.0981   25.2647 N   0  0  0  0  0  0  0  0  0  0  0  0
   10.6037  -17.7777   25.5979 C   0  0  0  0  0  0  0  0  0  0  0  0
   10.4076  -18.5332   26.8566 C   0  0  0  0  0  0  0  0  0  0  0  0
   11.4924  -19.2070   27.4278 O   0  0  0  0  0  0  0  0  0  0  0  0
    9.2927  -18.5791   27.4160 O   0  0  0  0  0  0  0  0  0  0  0  0
  2  3  1  6
  2  1  1  0
  4  5  1  0
  4  2  1  0
  5  6  1  1
  5  7  1  0
  7  8  2  0
  9 10  1  0
 10 11  1  0
 11 12  1  0
 13 12  1  1
 14  7  1  0
 14 13  1  0
 15 13  1  0
 15 16  2  0
 17 18  1  0
 17 15  1  0
 19 18  1  0
 20 19  1  0
 21 19  2  0
M  END
$$$$
