LMG.pdb
     RDKit          3D

 21 20  0  0  1  0  0  0  0  0999 V2000
    8.5070  -12.7184   19.9303 C   0  0  0  0  0  0  0  0  0  0  0  0
    7.9328  -14.1337   19.7917 C   0  0  2  0  0  0  0  0  0  0  0  0
    6.5525  -14.0357   19.1821 C   0  0  0  0  0  0  0  0  0  0  0  0
    7.8868  -14.7054   21.1724 C   0  0  0  0  0  0  0  0  0  0  0  0
    9.2546  -14.7460   21.7708 C   0  0  2  0  0  0  0  0  0  0  0  0
   10.0709  -15.6931   21.0648 N   0  0  0  0  0  0  0  0  0  0  0  0
    9.1467  -15.0872   23.2216 C   0  0  0  0  0  0  0  0  0  0  0  0
   10.0473  -15.7867   23.7348 O   0  0  0  0  0  0  0  0  0  0  0  0
    5.7379  -11.8706   27.6524 C   0  0  0  0  0  0  0  0  0  0  0  0
    6.9258  -11.0191   26.5737 S   0  0  0  0  0  0  0  0  0  0  0  0
    7.9155  -12.2917   25.7083 C   0  0  0  0  0  0  0  0  0  0  0  0
    7.3012  -13.6254   26.0143 C   0  0  0  0  0  0  0  0  0  0  0  0
    8.1411  -14.7303   25.4550 C   0  0  2  0  0  0  0  0  0  0  0  0
    8.0588  -14.6317   23.9873 N   0  0  0  0  0  0  0  0  0  0  0  0
    7.7215  -16.0866   25.8687 C   0  0  0  0  0  0  0  0  0  0  0  0
    7.7036  -16.4559   27.0596 O   0  0  0  0  0  0  0  0  0  0  0  0
    7.3105  -17.0485   24.8915 N   0  0  0  0  0  0  0  0  0  0  0  0
    6.7992  -18.3401   25.3140 C   0  0  0  0  0  0  0  0  0  0  0  0
    7.9433  -19.2532   25.5399 C   0  0  0  0  0  0  0  0  0  0  0  0
    8.0773  -20.3945   24.7422 O   0  0  0  0  0  0  0  0  0  0  0  0
    8.7889  -19.0222   26.4285 O   0  0  0  0  0  0  0  0  0  0  0  0
  2  3  1  1
  2  1  1  0
  4  5  1  0
  4  2  1  0
  5  6  1  6
  5  7  1  0
  7  8  2  0
  9 10  1  0
 10 11  1  0
 11 12  1  0
 13 12  1  1
 14  7  1  0
 14 13  1  0
 15 13  1  0
 15 16  2  0
 17 18  1  0
 17 15  1  0
 19 18  1  0
 20 19  1  0
 21 19  2  0
M  END
$$$$
