LMG.pdb
     RDKit          3D

 21 20  0  0  1  0  0  0  0  0999 V2000
    8.3218  -14.6907   18.0686 C   0  0  0  0  0  0  0  0  0  0  0  0
    7.8722  -13.8895   19.2965 C   0  0  2  0  0  0  0  0  0  0  0  0
    7.5810  -12.4698   18.8648 C   0  0  0  0  0  0  0  0  0  0  0  0
    9.0025  -13.9483   20.2734 C   0  0  0  0  0  0  0  0  0  0  0  0
    8.9680  -15.2290   21.0410 C   0  0  2  0  0  0  0  0  0  0  0  0
    7.7532  -15.9393   20.7558 N   0  0  0  0  0  0  0  0  0  0  0  0
    9.1014  -14.9317   22.4995 C   0  0  0  0  0  0  0  0  0  0  0  0
   10.1306  -14.3401   22.8923 O   0  0  0  0  0  0  0  0  0  0  0  0
    6.9939  -11.4710   28.3122 C   0  0  0  0  0  0  0  0  0  0  0  0
    6.8560  -12.0743   26.6044 S   0  0  0  0  0  0  0  0  0  0  0  0
    6.8944  -13.9032   26.6469 C   0  0  0  0  0  0  0  0  0  0  0  0
    6.8600  -14.3877   25.2278 C   0  0  0  0  0  0  0  0  0  0  0  0
    8.2102  -14.8775   24.8080 C   0  0  2  0  0  0  0  0  0  0  0  0
    8.0932  -15.3091   23.4042 N   0  0  0  0  0  0  0  0  0  0  0  0
    8.7299  -16.0030   25.6140 C   0  0  0  0  0  0  0  0  0  0  0  0
    8.8155  -15.9626   26.8574 O   0  0  0  0  0  0  0  0  0  0  0  0
    9.1647  -17.2101   24.9790 N   0  0  0  0  0  0  0  0  0  0  0  0
    9.5779  -18.3459   25.7837 C   0  0  0  0  0  0  0  0  0  0  0  0
   11.0093  -18.1875   26.1295 C   0  0  0  0  0  0  0  0  0  0  0  0
   11.3636  -17.4340   27.2537 O   0  0  0  0  0  0  0  0  0  0  0  0
   11.9039  -18.7139   25.4362 O   0  0  0  0  0  0  0  0  0  0  0  0
  2  3  1  6
  2  1  1  0
  4  5  1  0
  4  2  1  0
  5  6  1  1
  5  7  1  0
  7  8  2  0
  9 10  1  0
 10 11  1  0
 11 12  1  0
 13 12  1  1
 14  7  1  0
 14 13  1  0
 15 13  1  0
 15 16  2  0
 17 18  1  0
 17 15  1  0
 19 18  1  0
 20 19  1  0
 21 19  2  0
M  END
$$$$
