LMG.pdb
     RDKit          3D

 21 20  0  0  1  0  0  0  0  0999 V2000
    7.4843  -12.6556   19.2166 C   0  0  0  0  0  0  0  0  0  0  0  0
    7.5595  -13.6646   20.3690 C   0  0  2  0  0  0  0  0  0  0  0  0
    7.4019  -12.9173   21.6742 C   0  0  0  0  0  0  0  0  0  0  0  0
    8.8995  -14.3199   20.2669 C   0  0  0  0  0  0  0  0  0  0  0  0
    8.9890  -15.4822   21.2004 C   0  0  2  0  0  0  0  0  0  0  0  0
    7.7897  -16.2679   21.1220 N   0  0  0  0  0  0  0  0  0  0  0  0
    9.2280  -14.9812   22.5879 C   0  0  0  0  0  0  0  0  0  0  0  0
    9.5092  -13.7725   22.7415 O   0  0  0  0  0  0  0  0  0  0  0  0
    6.0772  -11.5599   27.1274 C   0  0  0  0  0  0  0  0  0  0  0  0
    7.4400  -12.5752   26.4859 S   0  0  0  0  0  0  0  0  0  0  0  0
    6.7646  -14.2208   26.0570 C   0  0  0  0  0  0  0  0  0  0  0  0
    7.3806  -14.6349   24.7535 C   0  0  0  0  0  0  0  0  0  0  0  0
    8.7010  -15.2997   24.9852 C   0  0  2  0  0  0  0  0  0  0  0  0
    9.1382  -15.8496   23.6902 N   0  0  0  0  0  0  0  0  0  0  0  0
    8.6694  -16.3904   25.9832 C   0  0  0  0  0  0  0  0  0  0  0  0
    8.5704  -16.1838   27.2090 O   0  0  0  0  0  0  0  0  0  0  0  0
    8.7538  -17.7574   25.5668 N   0  0  0  0  0  0  0  0  0  0  0  0
    9.9215  -18.2249   24.8415 C   0  0  0  0  0  0  0  0  0  0  0  0
   10.8891  -18.7882   25.8112 C   0  0  0  0  0  0  0  0  0  0  0  0
   11.4317  -20.0567   25.5798 O   0  0  0  0  0  0  0  0  0  0  0  0
   11.2283  -18.1516   26.8299 O   0  0  0  0  0  0  0  0  0  0  0  0
  2  3  1  1
  2  1  1  0
  4  5  1  0
  4  2  1  0
  5  6  1  1
  5  7  1  0
  7  8  2  0
  9 10  1  0
 10 11  1  0
 11 12  1  0
 13 12  1  6
 14  7  1  0
 14 13  1  0
 15 13  1  0
 15 16  2  0
 17 18  1  0
 17 15  1  0
 19 18  1  0
 20 19  1  0
 21 19  2  0
M  END
$$$$
