IPY.pdb
     RDKit          3D

 28 29  0  0  1  0  0  0  0  0999 V2000
   25.3711  -15.6862  -15.9421 C   0  0  0  0  0  0  0  0  0  0  0  0
   26.2112  -16.9015  -16.1509 C   0  0  0  0  0  0  0  0  0  0  0  0
   26.0652  -17.9989  -15.1567 C   0  0  2  0  0  0  0  0  0  0  0  0
   26.5587  -17.4299  -13.8234 C   0  0  0  0  0  0  0  0  0  0  0  0
   26.9259  -19.1907  -15.5557 C   0  0  2  0  0  0  0  0  0  0  0  0
   26.5620  -19.6415  -16.8389 N   0  0  0  0  0  0  0  0  0  0  0  0
   26.8561  -20.2676  -14.5473 C   0  0  0  0  0  0  0  0  0  0  0  0
   25.8454  -21.0657  -14.7165 O   0  0  0  0  0  0  0  0  0  0  0  0
   27.7436  -20.4749  -13.4893 N   0  0  0  0  0  0  0  0  0  0  0  0
   28.8362  -19.4964  -13.2209 C   0  0  0  0  0  0  0  0  0  0  0  0
   29.8990  -20.2575  -12.4953 C   0  0  0  0  0  0  0  0  0  0  0  0
   29.3804  -21.6502  -12.3517 C   0  0  0  0  0  0  0  0  0  0  0  0
   27.8631  -21.5054  -12.5296 C   0  0  1  0  0  0  0  0  0  0  0  0
   27.2103  -21.2732  -11.2305 C   0  0  0  0  0  0  0  0  0  0  0  0
   27.4544  -22.0972  -10.3122 O   0  0  0  0  0  0  0  0  0  0  0  0
   29.2205  -20.0144   -4.9821 O   0  0  0  0  0  0  0  0  0  0  0  0
   28.2339  -19.8552   -5.9584 C   0  0  0  0  0  0  0  0  0  0  0  0
   27.2210  -20.7819   -6.1190 C   0  0  0  0  0  0  0  0  0  0  0  0
   26.2385  -20.6354   -7.0816 C   0  0  0  0  0  0  0  0  0  0  0  0
   26.2250  -19.5432   -7.9367 C   0  0  0  0  0  0  0  0  0  0  0  0
   25.1684  -19.3723   -8.9643 C   0  0  0  0  0  0  0  0  0  0  0  0
   25.1770  -20.4076  -10.0334 C   0  0  2  0  0  0  0  0  0  0  0  0
   26.3307  -20.2059  -10.9190 N   0  0  0  0  0  0  0  0  0  0  0  0
   23.9145  -20.4472  -10.7715 C   0  0  0  0  0  0  0  0  0  0  0  0
   22.7518  -20.8823  -10.1685 O   0  0  0  0  0  0  0  0  0  0  0  0
   27.2439  -18.6246   -7.7650 C   0  0  0  0  0  0  0  0  0  0  0  0
   28.2208  -18.7705   -6.8071 C   0  0  0  0  0  0  0  0  0  0  0  0
   23.8730  -20.0852  -11.9660 O   0  0  0  0  0  0  0  0  0  0  0  0
  1  2  1  0
  2  3  1  0
  3  4  1  1
  5  3  1  0
  5  6  1  6
  7  9  1  0
  7  5  1  0
  8  7  2  0
  9 10  1  0
 10 11  1  0
 12 11  1  0
 13  9  1  0
 13 12  1  0
 13 14  1  1
 15 14  2  0
 16 17  1  0
 17 18  2  0
 18 19  1  0
 20 19  2  0
 20 21  1  0
 22 21  1  1
 22 24  1  0
 22 23  1  0
 23 14  1  0
 24 25  1  0
 26 20  1  0
 27 17  1  0
 27 26  2  0
 28 24  2  0
M  END
$$$$
