IPY.pdb
     RDKit          3D

 28 29  0  0  1  0  0  0  0  0999 V2000
   26.4342  -17.3380  -15.5495 C   0  0  0  0  0  0  0  0  0  0  0  0
   27.1161  -18.6494  -15.3453 C   0  0  0  0  0  0  0  0  0  0  0  0
   27.1066  -19.2045  -13.9648 C   0  0  2  0  0  0  0  0  0  0  0  0
   28.2353  -18.4917  -13.2146 C   0  0  0  0  0  0  0  0  0  0  0  0
   27.3783  -20.7031  -13.9966 C   0  0  2  0  0  0  0  0  0  0  0  0
   26.4306  -21.3487  -14.8135 N   0  0  0  0  0  0  0  0  0  0  0  0
   27.4183  -21.2724  -12.6343 C   0  0  0  0  0  0  0  0  0  0  0  0
   26.2917  -21.8036  -12.2657 O   0  0  0  0  0  0  0  0  0  0  0  0
   28.5131  -21.2785  -11.7675 N   0  0  0  0  0  0  0  0  0  0  0  0
   29.8317  -20.7472  -12.2170 C   0  0  0  0  0  0  0  0  0  0  0  0
   30.8576  -21.4189  -11.3614 C   0  0  0  0  0  0  0  0  0  0  0  0
   30.0984  -22.3064  -10.4314 C   0  0  0  0  0  0  0  0  0  0  0  0
   28.6771  -21.7277  -10.4376 C   0  0  1  0  0  0  0  0  0  0  0  0
   28.5264  -20.7162   -9.3785 C   0  0  0  0  0  0  0  0  0  0  0  0
   29.0651  -19.5969   -9.5756 O   0  0  0  0  0  0  0  0  0  0  0  0
   22.0277  -21.3524  -10.1066 O   0  0  0  0  0  0  0  0  0  0  0  0
   23.1497  -20.7282   -9.5562 C   0  0  0  0  0  0  0  0  0  0  0  0
   23.3857  -20.7376   -8.1943 C   0  0  0  0  0  0  0  0  0  0  0  0
   24.4929  -20.1234   -7.6373 C   0  0  0  0  0  0  0  0  0  0  0  0
   25.4244  -19.4645   -8.4264 C   0  0  0  0  0  0  0  0  0  0  0  0
   26.6208  -18.8131   -7.8385 C   0  0  0  0  0  0  0  0  0  0  0  0
   27.6062  -19.7576   -7.2452 C   0  0  2  0  0  0  0  0  0  0  0  0
   27.8300  -20.8877   -8.1555 N   0  0  0  0  0  0  0  0  0  0  0  0
   27.2109  -20.1966   -5.9068 C   0  0  0  0  0  0  0  0  0  0  0  0
   26.9368  -21.5239   -5.6461 O   0  0  0  0  0  0  0  0  0  0  0  0
   25.1758  -19.4629   -9.7865 C   0  0  0  0  0  0  0  0  0  0  0  0
   24.0745  -20.0743  -10.3402 C   0  0  0  0  0  0  0  0  0  0  0  0
   27.1153  -19.3692   -4.9763 O   0  0  0  0  0  0  0  0  0  0  0  0
  1  2  1  0
  2  3  1  0
  3  4  1  1
  5  3  1  0
  5  6  1  6
  7  9  1  0
  7  5  1  0
  8  7  2  0
  9 10  1  0
 10 11  1  0
 12 11  1  0
 13  9  1  0
 13 12  1  0
 13 14  1  1
 15 14  2  0
 16 17  1  0
 17 18  2  0
 18 19  1  0
 20 19  2  0
 20 21  1  0
 22 21  1  6
 22 24  1  0
 22 23  1  0
 23 14  1  0
 24 25  1  0
 26 20  1  0
 27 17  1  0
 27 26  2  0
 28 24  2  0
M  END
$$$$
