IPY.pdb
     RDKit          3D

 28 29  0  0  1  0  0  0  0  0999 V2000
   27.0729  -20.7396   -8.7913 C   0  0  0  0  0  0  0  0  0  0  0  0
   25.9078  -19.8099   -8.8580 C   0  0  0  0  0  0  0  0  0  0  0  0
   25.0284  -19.9185  -10.0535 C   0  0  2  0  0  0  0  0  0  0  0  0
   24.4088  -21.3177   -9.9969 C   0  0  0  0  0  0  0  0  0  0  0  0
   25.8498  -19.7724  -11.3279 C   0  0  2  0  0  0  0  0  0  0  0  0
   26.5143  -18.5311  -11.3349 N   0  0  0  0  0  0  0  0  0  0  0  0
   25.0155  -19.9635  -12.5316 C   0  0  0  0  0  0  0  0  0  0  0  0
   24.5328  -18.8540  -13.0041 O   0  0  0  0  0  0  0  0  0  0  0  0
   24.7253  -21.1773  -13.1581 N   0  0  0  0  0  0  0  0  0  0  0  0
   25.3303  -22.4453  -12.6588 C   0  0  0  0  0  0  0  0  0  0  0  0
   25.3312  -23.3849  -13.8218 C   0  0  0  0  0  0  0  0  0  0  0  0
   24.7110  -22.6358  -14.9546 C   0  0  0  0  0  0  0  0  0  0  0  0
   23.9222  -21.5102  -14.2723 C   0  0  1  0  0  0  0  0  0  0  0  0
   22.5454  -21.9452  -13.9841 C   0  0  0  0  0  0  0  0  0  0  0  0
   22.3976  -22.8286  -13.1012 O   0  0  0  0  0  0  0  0  0  0  0  0
   18.7946  -16.6004  -17.7025 O   0  0  0  0  0  0  0  0  0  0  0  0
   18.9172  -17.5839  -16.7180 C   0  0  0  0  0  0  0  0  0  0  0  0
   17.9672  -18.5765  -16.5668 C   0  0  0  0  0  0  0  0  0  0  0  0
   18.0773  -19.5558  -15.5962 C   0  0  0  0  0  0  0  0  0  0  0  0
   19.1548  -19.5866  -14.7230 C   0  0  0  0  0  0  0  0  0  0  0  0
   19.2868  -20.6401  -13.6865 C   0  0  0  0  0  0  0  0  0  0  0  0
   20.0382  -21.8465  -14.1280 C   0  0  2  0  0  0  0  0  0  0  0  0
   21.3699  -21.4602  -14.6110 N   0  0  0  0  0  0  0  0  0  0  0  0
   19.2958  -22.6251  -15.1194 C   0  0  0  0  0  0  0  0  0  0  0  0
   18.1112  -23.2516  -14.7893 O   0  0  0  0  0  0  0  0  0  0  0  0
   20.0971  -18.5880  -14.8854 C   0  0  0  0  0  0  0  0  0  0  0  0
   19.9873  -17.6142  -15.8513 C   0  0  0  0  0  0  0  0  0  0  0  0
   19.7283  -22.7337  -16.2859 O   0  0  0  0  0  0  0  0  0  0  0  0
  1  2  1  0
  2  3  1  0
  3  4  1  6
  5  3  1  0
  5  6  1  6
  7  9  1  0
  7  5  1  0
  8  7  2  0
  9 10  1  0
 10 11  1  0
 12 11  1  0
 13  9  1  0
 13 12  1  0
 13 14  1  1
 15 14  2  0
 16 17  1  0
 17 18  2  0
 18 19  1  0
 20 19  2  0
 20 21  1  0
 22 21  1  6
 22 24  1  0
 22 23  1  0
 23 14  1  0
 24 25  1  0
 26 20  1  0
 27 17  1  0
 27 26  2  0
 28 24  2  0
M  END
$$$$
