IPY.pdb
     RDKit          3D

 28 29  0  0  1  0  0  0  0  0999 V2000
   24.2664  -15.9619  -17.2253 C   0  0  0  0  0  0  0  0  0  0  0  0
   25.0194  -17.2440  -17.3500 C   0  0  0  0  0  0  0  0  0  0  0  0
   25.1477  -18.0709  -16.1196 C   0  0  2  0  0  0  0  0  0  0  0  0
   26.0704  -17.2899  -15.1795 C   0  0  0  0  0  0  0  0  0  0  0  0
   25.7757  -19.4182  -16.4522 C   0  0  2  0  0  0  0  0  0  0  0  0
   25.0498  -20.0490  -17.4805 N   0  0  0  0  0  0  0  0  0  0  0  0
   25.8926  -20.2695  -15.2509 C   0  0  0  0  0  0  0  0  0  0  0  0
   24.8408  -21.0002  -15.0342 O   0  0  0  0  0  0  0  0  0  0  0  0
   26.9853  -20.3392  -14.3843 N   0  0  0  0  0  0  0  0  0  0  0  0
   28.2035  -19.5188  -14.6418 C   0  0  0  0  0  0  0  0  0  0  0  0
   29.3285  -20.2305  -13.9611 C   0  0  0  0  0  0  0  0  0  0  0  0
   28.7225  -21.4331  -13.3163 C   0  0  0  0  0  0  0  0  0  0  0  0
   27.2302  -21.0910  -13.2128 C   0  0  1  0  0  0  0  0  0  0  0  0
   26.9401  -20.4256  -11.9318 C   0  0  0  0  0  0  0  0  0  0  0  0
   27.2650  -19.2149  -11.8296 O   0  0  0  0  0  0  0  0  0  0  0  0
   20.2560  -21.5231  -12.8396 O   0  0  0  0  0  0  0  0  0  0  0  0
   21.3685  -20.9644  -12.2056 C   0  0  0  0  0  0  0  0  0  0  0  0
   22.2902  -20.2049  -12.9014 C   0  0  0  0  0  0  0  0  0  0  0  0
   23.3954  -19.6463  -12.2851 C   0  0  0  0  0  0  0  0  0  0  0  0
   23.6312  -19.8245  -10.9297 C   0  0  0  0  0  0  0  0  0  0  0  0
   24.8078  -19.2192  -10.2583 C   0  0  0  0  0  0  0  0  0  0  0  0
   25.7798  -20.2057   -9.7133 C   0  0  2  0  0  0  0  0  0  0  0  0
   26.3285  -21.0245  -10.8017 N   0  0  0  0  0  0  0  0  0  0  0  0
   25.1969  -21.0219   -8.6482 C   0  0  0  0  0  0  0  0  0  0  0  0
   25.0667  -22.3886   -8.7903 O   0  0  0  0  0  0  0  0  0  0  0  0
   22.7015  -20.5862  -10.2464 C   0  0  0  0  0  0  0  0  0  0  0  0
   21.6021  -21.1413  -10.8597 C   0  0  0  0  0  0  0  0  0  0  0  0
   24.8065  -20.4879   -7.5890 O   0  0  0  0  0  0  0  0  0  0  0  0
  1  2  1  0
  2  3  1  0
  3  4  1  1
  5  3  1  0
  5  6  1  6
  7  9  1  0
  7  5  1  0
  8  7  2  0
  9 10  1  0
 10 11  1  0
 12 11  1  0
 13  9  1  0
 13 12  1  0
 13 14  1  1
 15 14  2  0
 16 17  1  0
 17 18  2  0
 18 19  1  0
 20 19  2  0
 20 21  1  0
 22 21  1  6
 22 24  1  0
 22 23  1  0
 23 14  1  0
 24 25  1  0
 26 20  1  0
 27 17  1  0
 27 26  2  0
 28 24  2  0
M  END
$$$$
