IPY.pdb
     RDKit          3D

 28 29  0  0  1  0  0  0  0  0999 V2000
   26.8439  -17.9262  -18.9853 C   0  0  0  0  0  0  0  0  0  0  0  0
   27.8195  -18.8281  -18.3062 C   0  0  0  0  0  0  0  0  0  0  0  0
   27.3286  -19.5766  -17.1176 C   0  0  2  0  0  0  0  0  0  0  0  0
   26.9885  -18.5196  -16.0631 C   0  0  0  0  0  0  0  0  0  0  0  0
   28.4192  -20.4982  -16.5868 C   0  0  2  0  0  0  0  0  0  0  0  0
   28.8000  -21.4190  -17.5815 N   0  0  0  0  0  0  0  0  0  0  0  0
   27.9982  -21.1688  -15.3400 C   0  0  0  0  0  0  0  0  0  0  0  0
   27.2864  -22.2358  -15.5449 O   0  0  0  0  0  0  0  0  0  0  0  0
   28.2917  -20.7615  -14.0369 N   0  0  0  0  0  0  0  0  0  0  0  0
   29.1584  -19.5721  -13.7975 C   0  0  0  0  0  0  0  0  0  0  0  0
   29.7484  -19.7619  -12.4368 C   0  0  0  0  0  0  0  0  0  0  0  0
   29.1911  -21.0486  -11.9242 C   0  0  0  0  0  0  0  0  0  0  0  0
   27.9312  -21.2751  -12.7706 C   0  0  1  0  0  0  0  0  0  0  0  0
   26.7576  -20.6656  -12.1235 C   0  0  0  0  0  0  0  0  0  0  0  0
   26.6439  -19.4157  -12.2054 O   0  0  0  0  0  0  0  0  0  0  0  0
   18.4208  -18.7308  -10.0489 O   0  0  0  0  0  0  0  0  0  0  0  0
   19.6200  -19.3588  -10.3940 C   0  0  0  0  0  0  0  0  0  0  0  0
   20.1761  -20.3413   -9.5966 C   0  0  0  0  0  0  0  0  0  0  0  0
   21.3626  -20.9705   -9.9275 C   0  0  0  0  0  0  0  0  0  0  0  0
   22.0543  -20.6414  -11.0841 C   0  0  0  0  0  0  0  0  0  0  0  0
   23.3216  -21.3194  -11.4527 C   0  0  0  0  0  0  0  0  0  0  0  0
   24.5475  -20.6597  -10.9267 C   0  0  2  0  0  0  0  0  0  0  0  0
   25.7431  -21.3581  -11.4155 N   0  0  0  0  0  0  0  0  0  0  0  0
   24.5304  -20.5491   -9.4680 C   0  0  0  0  0  0  0  0  0  0  0  0
   23.8913  -19.4981   -8.8422 O   0  0  0  0  0  0  0  0  0  0  0  0
   21.4868  -19.6572  -11.8721 C   0  0  0  0  0  0  0  0  0  0  0  0
   20.3063  -19.0319  -11.5427 C   0  0  0  0  0  0  0  0  0  0  0  0
   25.0988  -21.4110   -8.7654 O   0  0  0  0  0  0  0  0  0  0  0  0
  1  2  1  0
  2  3  1  0
  3  4  1  1
  5  3  1  0
  5  6  1  6
  7  9  1  0
  7  5  1  0
  8  7  2  0
  9 10  1  0
 10 11  1  0
 12 11  1  0
 13  9  1  0
 13 12  1  0
 13 14  1  1
 15 14  2  0
 16 17  1  0
 17 18  2  0
 18 19  1  0
 20 19  2  0
 20 21  1  0
 22 21  1  1
 22 24  1  0
 22 23  1  0
 23 14  1  0
 24 25  1  0
 26 20  1  0
 27 17  1  0
 27 26  2  0
 28 24  2  0
M  END
$$$$
