IPY.pdb
     RDKit          3D

 28 29  0  0  1  0  0  0  0  0999 V2000
   24.9235  -14.7640  -15.1790 C   0  0  0  0  0  0  0  0  0  0  0  0
   25.0879  -16.1553  -15.6923 C   0  0  0  0  0  0  0  0  0  0  0  0
   25.2365  -17.2333  -14.6774 C   0  0  2  0  0  0  0  0  0  0  0  0
   26.5958  -17.0023  -14.0111 C   0  0  0  0  0  0  0  0  0  0  0  0
   25.2215  -18.5991  -15.3519 C   0  0  2  0  0  0  0  0  0  0  0  0
   24.0645  -18.7347  -16.1427 N   0  0  0  0  0  0  0  0  0  0  0  0
   25.3510  -19.6893  -14.3640 C   0  0  0  0  0  0  0  0  0  0  0  0
   24.2098  -20.1918  -14.0002 O   0  0  0  0  0  0  0  0  0  0  0  0
   26.5395  -20.1866  -13.8254 N   0  0  0  0  0  0  0  0  0  0  0  0
   27.8371  -19.5117  -14.1149 C   0  0  0  0  0  0  0  0  0  0  0  0
   28.8915  -20.5566  -13.9365 C   0  0  0  0  0  0  0  0  0  0  0  0
   28.1716  -21.8007  -13.5328 C   0  0  0  0  0  0  0  0  0  0  0  0
   26.8237  -21.2974  -12.9992 C   0  0  1  0  0  0  0  0  0  0  0  0
   26.9053  -21.0372  -11.5523 C   0  0  0  0  0  0  0  0  0  0  0  0
   27.9044  -20.3923  -11.1425 O   0  0  0  0  0  0  0  0  0  0  0  0
   28.7394  -19.1967   -3.5343 O   0  0  0  0  0  0  0  0  0  0  0  0
   28.3891  -19.4544   -4.8619 C   0  0  0  0  0  0  0  0  0  0  0  0
   27.5360  -18.6194   -5.5586 C   0  0  0  0  0  0  0  0  0  0  0  0
   27.1818  -18.8637   -6.8732 C   0  0  0  0  0  0  0  0  0  0  0  0
   27.6705  -19.9668   -7.5578 C   0  0  0  0  0  0  0  0  0  0  0  0
   27.3051  -20.2299   -8.9716 C   0  0  0  0  0  0  0  0  0  0  0  0
   26.1907  -21.2004   -9.1483 C   0  0  2  0  0  0  0  0  0  0  0  0
   25.9612  -21.4473  -10.5775 N   0  0  0  0  0  0  0  0  0  0  0  0
   24.9732  -20.7718   -8.4596 C   0  0  0  0  0  0  0  0  0  0  0  0
   24.7149  -21.1643   -7.1619 O   0  0  0  0  0  0  0  0  0  0  0  0
   28.5225  -20.7933   -6.8490 C   0  0  0  0  0  0  0  0  0  0  0  0
   28.8748  -20.5497   -5.5414 C   0  0  0  0  0  0  0  0  0  0  0  0
   24.1458  -20.0399   -9.0421 O   0  0  0  0  0  0  0  0  0  0  0  0
  1  2  1  0
  2  3  1  0
  3  4  1  6
  5  3  1  0
  5  6  1  1
  7  9  1  0
  7  5  1  0
  8  7  2  0
  9 10  1  0
 10 11  1  0
 12 11  1  0
 13  9  1  0
 13 12  1  0
 13 14  1  1
 15 14  2  0
 16 17  1  0
 17 18  2  0
 18 19  1  0
 20 19  2  0
 20 21  1  0
 22 21  1  6
 22 24  1  0
 22 23  1  0
 23 14  1  0
 24 25  1  0
 26 20  1  0
 27 17  1  0
 27 26  2  0
 28 24  2  0
M  END
$$$$
