IPY.pdb
     RDKit          3D

 28 29  0  0  1  0  0  0  0  0999 V2000
   25.5652  -14.5401  -17.6102 C   0  0  0  0  0  0  0  0  0  0  0  0
   26.1969  -15.8696  -17.8543 C   0  0  0  0  0  0  0  0  0  0  0  0
   26.0230  -16.9012  -16.7961 C   0  0  2  0  0  0  0  0  0  0  0  0
   27.2491  -16.7843  -15.8861 C   0  0  0  0  0  0  0  0  0  0  0  0
   25.9757  -18.2914  -17.4169 C   0  0  2  0  0  0  0  0  0  0  0  0
   24.9487  -18.3568  -18.3778 N   0  0  0  0  0  0  0  0  0  0  0  0
   25.8386  -19.3383  -16.3840 C   0  0  0  0  0  0  0  0  0  0  0  0
   24.6032  -19.6261  -16.1044 O   0  0  0  0  0  0  0  0  0  0  0  0
   26.8784  -19.9988  -15.7263 N   0  0  0  0  0  0  0  0  0  0  0  0
   28.2977  -19.6586  -16.0311 C   0  0  0  0  0  0  0  0  0  0  0  0
   29.0965  -20.8693  -15.6682 C   0  0  0  0  0  0  0  0  0  0  0  0
   28.1151  -21.8674  -15.1488 C   0  0  0  0  0  0  0  0  0  0  0  0
   26.8960  -21.0235  -14.7532 C   0  0  1  0  0  0  0  0  0  0  0  0
   26.9981  -20.5948  -13.3484 C   0  0  0  0  0  0  0  0  0  0  0  0
   27.8743  -19.7350  -13.0750 O   0  0  0  0  0  0  0  0  0  0  0  0
   19.9147  -20.7597  -11.7635 O   0  0  0  0  0  0  0  0  0  0  0  0
   21.2474  -20.4274  -11.5084 C   0  0  0  0  0  0  0  0  0  0  0  0
   22.1224  -20.1157  -12.5319 C   0  0  0  0  0  0  0  0  0  0  0  0
   23.4440  -19.7850  -12.2922 C   0  0  0  0  0  0  0  0  0  0  0  0
   23.9557  -19.7511  -11.0032 C   0  0  0  0  0  0  0  0  0  0  0  0
   25.3689  -19.3861  -10.7362 C   0  0  0  0  0  0  0  0  0  0  0  0
   26.3379  -20.4997  -10.9253 C   0  0  2  0  0  0  0  0  0  0  0  0
   26.1996  -21.0625  -12.2744 N   0  0  0  0  0  0  0  0  0  0  0  0
   26.2124  -21.5212   -9.8854 C   0  0  0  0  0  0  0  0  0  0  0  0
   26.3622  -21.1998   -8.5516 O   0  0  0  0  0  0  0  0  0  0  0  0
   23.0696  -20.0652   -9.9894 C   0  0  0  0  0  0  0  0  0  0  0  0
   21.7550  -20.3937  -10.2283 C   0  0  0  0  0  0  0  0  0  0  0  0
   25.9666  -22.7060  -10.1942 O   0  0  0  0  0  0  0  0  0  0  0  0
  1  2  1  0
  2  3  1  0
  3  4  1  1
  5  3  1  0
  5  6  1  6
  7  9  1  0
  7  5  1  0
  8  7  2  0
  9 10  1  0
 10 11  1  0
 12 11  1  0
 13  9  1  0
 13 12  1  0
 13 14  1  1
 15 14  2  0
 16 17  1  0
 17 18  2  0
 18 19  1  0
 20 19  2  0
 20 21  1  0
 22 21  1  1
 22 24  1  0
 22 23  1  0
 23 14  1  0
 24 25  1  0
 26 20  1  0
 27 17  1  0
 27 26  2  0
 28 24  2  0
M  END
$$$$
