IPY.pdb
     RDKit          3D

 28 29  0  0  1  0  0  0  0  0999 V2000
   21.8740  -14.7327  -22.5550 C   0  0  0  0  0  0  0  0  0  0  0  0
   21.6383  -13.2867  -22.2721 C   0  0  0  0  0  0  0  0  0  0  0  0
   21.1349  -12.9403  -20.9154 C   0  0  2  0  0  0  0  0  0  0  0  0
   19.6902  -13.4449  -20.8589 C   0  0  0  0  0  0  0  0  0  0  0  0
   21.1592  -11.4307  -20.7129 C   0  0  2  0  0  0  0  0  0  0  0  0
   22.4664  -10.9400  -20.8936 N   0  0  0  0  0  0  0  0  0  0  0  0
   20.6004  -11.0543  -19.3986 C   0  0  0  0  0  0  0  0  0  0  0  0
   21.4779  -11.0774  -18.4411 O   0  0  0  0  0  0  0  0  0  0  0  0
   19.2773  -10.6988  -19.1285 N   0  0  0  0  0  0  0  0  0  0  0  0
   18.2848  -10.5954  -20.2363 C   0  0  0  0  0  0  0  0  0  0  0  0
   17.2223   -9.6630  -19.7492 C   0  0  0  0  0  0  0  0  0  0  0  0
   17.6253   -9.2687  -18.3667 C   0  0  0  0  0  0  0  0  0  0  0  0
   18.6007  -10.3706  -17.9319 C   0  0  1  0  0  0  0  0  0  0  0  0
   17.8785  -11.4656  -17.2632 C   0  0  0  0  0  0  0  0  0  0  0  0
   17.5649  -12.4586  -17.9684 O   0  0  0  0  0  0  0  0  0  0  0  0
   18.2490  -18.6300  -12.5698 O   0  0  0  0  0  0  0  0  0  0  0  0
   18.3175  -17.3997  -13.2281 C   0  0  0  0  0  0  0  0  0  0  0  0
   19.0733  -16.3553  -12.7297 C   0  0  0  0  0  0  0  0  0  0  0  0
   19.1492  -15.1327  -13.3722 C   0  0  0  0  0  0  0  0  0  0  0  0
   18.4646  -14.8970  -14.5555 C   0  0  0  0  0  0  0  0  0  0  0  0
   18.5497  -13.5925  -15.2573 C   0  0  0  0  0  0  0  0  0  0  0  0
   17.3035  -12.7809  -15.2002 C   0  0  2  0  0  0  0  0  0  0  0  0
   17.5031  -11.5038  -15.8966 N   0  0  0  0  0  0  0  0  0  0  0  0
   16.8309  -12.5938  -13.8283 C   0  0  0  0  0  0  0  0  0  0  0  0
   17.2799  -11.5394  -13.0593 O   0  0  0  0  0  0  0  0  0  0  0  0
   17.7126  -15.9500  -15.0423 C   0  0  0  0  0  0  0  0  0  0  0  0
   17.6377  -17.1662  -14.4031 C   0  0  0  0  0  0  0  0  0  0  0  0
   16.0090  -13.3924  -13.3320 O   0  0  0  0  0  0  0  0  0  0  0  0
  1  2  1  0
  2  3  1  0
  3  4  1  6
  5  3  1  0
  5  6  1  1
  7  9  1  0
  7  5  1  0
  8  7  2  0
  9 10  1  0
 10 11  1  0
 12 11  1  0
 13  9  1  0
 13 12  1  0
 13 14  1  6
 15 14  2  0
 16 17  1  0
 17 18  2  0
 18 19  1  0
 20 19  2  0
 20 21  1  0
 22 21  1  1
 22 24  1  0
 22 23  1  0
 23 14  1  0
 24 25  1  0
 26 20  1  0
 27 17  1  0
 27 26  2  0
 28 24  2  0
M  END
$$$$
