IPY.pdb
     RDKit          3D

 28 29  0  0  1  0  0  0  0  0999 V2000
   26.1267  -15.2595  -13.7993 C   0  0  0  0  0  0  0  0  0  0  0  0
   25.6108  -16.3642  -14.6595 C   0  0  0  0  0  0  0  0  0  0  0  0
   26.6192  -17.1531  -15.4176 C   0  0  2  0  0  0  0  0  0  0  0  0
   27.1738  -16.2111  -16.4901 C   0  0  0  0  0  0  0  0  0  0  0  0
   25.9589  -18.3544  -16.0819 C   0  0  2  0  0  0  0  0  0  0  0  0
   24.7517  -17.9655  -16.6932 N   0  0  0  0  0  0  0  0  0  0  0  0
   25.7657  -19.4614  -15.1234 C   0  0  0  0  0  0  0  0  0  0  0  0
   24.5167  -19.7587  -14.9263 O   0  0  0  0  0  0  0  0  0  0  0  0
   26.7682  -20.1665  -14.4543 N   0  0  0  0  0  0  0  0  0  0  0  0
   28.2018  -19.8100  -14.6562 C   0  0  0  0  0  0  0  0  0  0  0  0
   28.9809  -21.0440  -14.3308 C   0  0  0  0  0  0  0  0  0  0  0  0
   27.9736  -22.0722  -13.9344 C   0  0  0  0  0  0  0  0  0  0  0  0
   26.7331  -21.2537  -13.5520 C   0  0  1  0  0  0  0  0  0  0  0  0
   26.7562  -20.9196  -12.1183 C   0  0  0  0  0  0  0  0  0  0  0  0
   27.4105  -19.9005  -11.7789 O   0  0  0  0  0  0  0  0  0  0  0  0
   28.9404  -19.2967   -4.2437 O   0  0  0  0  0  0  0  0  0  0  0  0
   28.4548  -19.4524   -5.5443 C   0  0  0  0  0  0  0  0  0  0  0  0
   28.8999  -20.4725   -6.3639 C   0  0  0  0  0  0  0  0  0  0  0  0
   28.4267  -20.6373   -7.6532 C   0  0  0  0  0  0  0  0  0  0  0  0
   27.4763  -19.7792   -8.1868 C   0  0  0  0  0  0  0  0  0  0  0  0
   26.9548  -19.9556   -9.5647 C   0  0  0  0  0  0  0  0  0  0  0  0
   26.0123  -21.0962   -9.7242 C   0  0  2  0  0  0  0  0  0  0  0  0
   26.1089  -21.6416  -11.0840 N   0  0  0  0  0  0  0  0  0  0  0  0
   24.6402  -20.7299   -9.3724 C   0  0  0  0  0  0  0  0  0  0  0  0
   23.7460  -20.3134  -10.3376 O   0  0  0  0  0  0  0  0  0  0  0  0
   27.0403  -18.7635   -7.3563 C   0  0  0  0  0  0  0  0  0  0  0  0
   27.5109  -18.6003   -6.0737 C   0  0  0  0  0  0  0  0  0  0  0  0
   24.2584  -20.7895   -8.1849 O   0  0  0  0  0  0  0  0  0  0  0  0
  1  2  1  0
  2  3  1  0
  3  4  1  6
  5  3  1  0
  5  6  1  1
  7  9  1  0
  7  5  1  0
  8  7  2  0
  9 10  1  0
 10 11  1  0
 12 11  1  0
 13  9  1  0
 13 12  1  0
 13 14  1  1
 15 14  2  0
 16 17  1  0
 17 18  2  0
 18 19  1  0
 20 19  2  0
 20 21  1  0
 22 21  1  6
 22 24  1  0
 22 23  1  0
 23 14  1  0
 24 25  1  0
 26 20  1  0
 27 17  1  0
 27 26  2  0
 28 24  2  0
M  END
$$$$
