IPY.pdb
     RDKit          3D

 28 29  0  0  1  0  0  0  0  0999 V2000
   27.9252  -21.2577  -18.1640 C   0  0  0  0  0  0  0  0  0  0  0  0
   28.0786  -21.4302  -16.6899 C   0  0  0  0  0  0  0  0  0  0  0  0
   26.8279  -21.4864  -15.8856 C   0  0  2  0  0  0  0  0  0  0  0  0
   26.6454  -20.0877  -15.2894 C   0  0  0  0  0  0  0  0  0  0  0  0
   26.9670  -22.5079  -14.7642 C   0  0  2  0  0  0  0  0  0  0  0  0
   27.3040  -23.7670  -15.2965 N   0  0  0  0  0  0  0  0  0  0  0  0
   25.7479  -22.5639  -13.9322 C   0  0  0  0  0  0  0  0  0  0  0  0
   24.9199  -23.4964  -14.2955 O   0  0  0  0  0  0  0  0  0  0  0  0
   25.4406  -21.7359  -12.8506 N   0  0  0  0  0  0  0  0  0  0  0  0
   26.4070  -20.6923  -12.4034 C   0  0  0  0  0  0  0  0  0  0  0  0
   26.0917  -20.4306  -10.9655 C   0  0  0  0  0  0  0  0  0  0  0  0
   24.9406  -21.3202  -10.6297 C   0  0  0  0  0  0  0  0  0  0  0  0
   24.3209  -21.6613  -11.9915 C   0  0  1  0  0  0  0  0  0  0  0  0
   23.2831  -20.6794  -12.3475 C   0  0  0  0  0  0  0  0  0  0  0  0
   23.6722  -19.5289  -12.6742 O   0  0  0  0  0  0  0  0  0  0  0  0
   18.7413  -25.4116  -15.7216 O   0  0  0  0  0  0  0  0  0  0  0  0
   19.2722  -24.1554  -15.4184 C   0  0  0  0  0  0  0  0  0  0  0  0
   18.4688  -23.0341  -15.3307 C   0  0  0  0  0  0  0  0  0  0  0  0
   18.9823  -21.7852  -15.0312 C   0  0  0  0  0  0  0  0  0  0  0  0
   20.3381  -21.5995  -14.8034 C   0  0  0  0  0  0  0  0  0  0  0  0
   20.8957  -20.2655  -14.4701 C   0  0  0  0  0  0  0  0  0  0  0  0
   20.9642  -19.9744  -13.0122 C   0  0  2  0  0  0  0  0  0  0  0  0
   21.8845  -20.9112  -12.3554 N   0  0  0  0  0  0  0  0  0  0  0  0
   19.6407  -19.9719  -12.3887 C   0  0  0  0  0  0  0  0  0  0  0  0
   19.3279  -20.8618  -11.3812 O   0  0  0  0  0  0  0  0  0  0  0  0
   21.1297  -22.7293  -14.8946 C   0  0  0  0  0  0  0  0  0  0  0  0
   20.6184  -23.9715  -15.1922 C   0  0  0  0  0  0  0  0  0  0  0  0
   18.7706  -19.1584  -12.7636 O   0  0  0  0  0  0  0  0  0  0  0  0
  1  2  1  0
  2  3  1  0
  3  4  1  1
  5  3  1  0
  5  6  1  6
  7  9  1  0
  7  5  1  0
  8  7  2  0
  9 10  1  0
 10 11  1  0
 12 11  1  0
 13  9  1  0
 13 12  1  0
 13 14  1  6
 15 14  2  0
 16 17  1  0
 17 18  2  0
 18 19  1  0
 20 19  2  0
 20 21  1  0
 22 21  1  6
 22 24  1  0
 22 23  1  0
 23 14  1  0
 24 25  1  0
 26 20  1  0
 27 17  1  0
 27 26  2  0
 28 24  2  0
M  END
$$$$
