IPY.pdb
     RDKit          3D

 28 29  0  0  1  0  0  0  0  0999 V2000
   28.3068  -17.7633  -16.4875 C   0  0  0  0  0  0  0  0  0  0  0  0
   28.5546  -18.7249  -15.3738 C   0  0  0  0  0  0  0  0  0  0  0  0
   27.3636  -19.4001  -14.7908 C   0  0  2  0  0  0  0  0  0  0  0  0
   26.6859  -18.3611  -13.8928 C   0  0  0  0  0  0  0  0  0  0  0  0
   27.7930  -20.5988  -13.9547 C   0  0  2  0  0  0  0  0  0  0  0  0
   28.5835  -21.4695  -14.7287 N   0  0  0  0  0  0  0  0  0  0  0  0
   26.6286  -21.2855  -13.3596 C   0  0  0  0  0  0  0  0  0  0  0  0
   26.3038  -22.3790  -13.9808 O   0  0  0  0  0  0  0  0  0  0  0  0
   25.8964  -20.8676  -12.2464 N   0  0  0  0  0  0  0  0  0  0  0  0
   26.3760  -19.7264  -11.4153 C   0  0  0  0  0  0  0  0  0  0  0  0
   25.7693  -19.9207  -10.0627 C   0  0  0  0  0  0  0  0  0  0  0  0
   24.9433  -21.1608  -10.1581 C   0  0  0  0  0  0  0  0  0  0  0  0
   24.6955  -21.3312  -11.6629 C   0  0  1  0  0  0  0  0  0  0  0  0
   23.4594  -20.6396  -12.0646 C   0  0  0  0  0  0  0  0  0  0  0  0
   23.5248  -19.3927  -12.2160 O   0  0  0  0  0  0  0  0  0  0  0  0
   23.2224  -26.5615  -15.6046 O   0  0  0  0  0  0  0  0  0  0  0  0
   22.9187  -25.2156  -15.3854 C   0  0  0  0  0  0  0  0  0  0  0  0
   21.6208  -24.7465  -15.4623 C   0  0  0  0  0  0  0  0  0  0  0  0
   21.3074  -23.4166  -15.2472 C   0  0  0  0  0  0  0  0  0  0  0  0
   22.2894  -22.4853  -14.9424 C   0  0  0  0  0  0  0  0  0  0  0  0
   21.9606  -21.0590  -14.6988 C   0  0  0  0  0  0  0  0  0  0  0  0
   21.3236  -20.7912  -13.3807 C   0  0  2  0  0  0  0  0  0  0  0  0
   22.2008  -21.2498  -12.2962 N   0  0  0  0  0  0  0  0  0  0  0  0
   19.9833  -21.3706  -13.2892 C   0  0  0  0  0  0  0  0  0  0  0  0
   18.9630  -20.9352  -14.1104 O   0  0  0  0  0  0  0  0  0  0  0  0
   23.5827  -22.9682  -14.8689 C   0  0  0  0  0  0  0  0  0  0  0  0
   23.8940  -24.2913  -15.0825 C   0  0  0  0  0  0  0  0  0  0  0  0
   19.7438  -22.2732  -12.4601 O   0  0  0  0  0  0  0  0  0  0  0  0
  1  2  1  0
  2  3  1  0
  3  4  1  1
  5  3  1  0
  5  6  1  6
  7  9  1  0
  7  5  1  0
  8  7  2  0
  9 10  1  0
 10 11  1  0
 12 11  1  0
 13  9  1  0
 13 12  1  0
 13 14  1  6
 15 14  2  0
 16 17  1  0
 17 18  2  0
 18 19  1  0
 20 19  2  0
 20 21  1  0
 22 21  1  6
 22 24  1  0
 22 23  1  0
 23 14  1  0
 24 25  1  0
 26 20  1  0
 27 17  1  0
 27 26  2  0
 28 24  2  0
M  END
$$$$
