IPY.pdb
     RDKit          3D

 28 29  0  0  1  0  0  0  0  0999 V2000
   25.2572  -20.6210   -8.6259 C   0  0  0  0  0  0  0  0  0  0  0  0
   26.2859  -20.3492   -9.6719 C   0  0  0  0  0  0  0  0  0  0  0  0
   25.8201  -20.3335  -11.0850 C   0  0  2  0  0  0  0  0  0  0  0  0
   25.9301  -21.7776  -11.5825 C   0  0  0  0  0  0  0  0  0  0  0  0
   26.7150  -19.4319  -11.9257 C   0  0  2  0  0  0  0  0  0  0  0  0
   26.7454  -18.1352  -11.3781 N   0  0  0  0  0  0  0  0  0  0  0  0
   26.2971  -19.4278  -13.3424 C   0  0  0  0  0  0  0  0  0  0  0  0
   25.4057  -18.5227  -13.6129 O   0  0  0  0  0  0  0  0  0  0  0  0
   26.7625  -20.2764  -14.3490 N   0  0  0  0  0  0  0  0  0  0  0  0
   27.7100  -21.3807  -14.0239 C   0  0  0  0  0  0  0  0  0  0  0  0
   28.4462  -21.6758  -15.2913 C   0  0  0  0  0  0  0  0  0  0  0  0
   27.8893  -20.7431  -16.3156 C   0  0  0  0  0  0  0  0  0  0  0  0
   26.5286  -20.3257  -15.7419 C   0  0  1  0  0  0  0  0  0  0  0  0
   25.4716  -21.2429  -16.1993 C   0  0  0  0  0  0  0  0  0  0  0  0
   25.7376  -22.4721  -16.1903 O   0  0  0  0  0  0  0  0  0  0  0  0
   18.3890  -21.7409  -11.3680 O   0  0  0  0  0  0  0  0  0  0  0  0
   19.5338  -21.5007  -12.1317 C   0  0  0  0  0  0  0  0  0  0  0  0
   20.6361  -22.3318  -12.0615 C   0  0  0  0  0  0  0  0  0  0  0  0
   21.7752  -22.1047  -12.8125 C   0  0  0  0  0  0  0  0  0  0  0  0
   21.8642  -21.0237  -13.6773 C   0  0  0  0  0  0  0  0  0  0  0  0
   23.0778  -20.7793  -14.4953 C   0  0  0  0  0  0  0  0  0  0  0  0
   22.9758  -21.2510  -15.9031 C   0  0  2  0  0  0  0  0  0  0  0  0
   24.1807  -20.8681  -16.6499 N   0  0  0  0  0  0  0  0  0  0  0  0
   21.7514  -20.7831  -16.5530 C   0  0  0  0  0  0  0  0  0  0  0  0
   20.6135  -21.5639  -16.5715 O   0  0  0  0  0  0  0  0  0  0  0  0
   20.7548  -20.2009  -13.7374 C   0  0  0  0  0  0  0  0  0  0  0  0
   19.6217  -20.4274  -12.9904 C   0  0  0  0  0  0  0  0  0  0  0  0
   21.7207  -19.6628  -17.1039 O   0  0  0  0  0  0  0  0  0  0  0  0
  1  2  1  0
  2  3  1  0
  3  4  1  6
  5  3  1  0
  5  6  1  1
  7  9  1  0
  7  5  1  0
  8  7  2  0
  9 10  1  0
 10 11  1  0
 12 11  1  0
 13  9  1  0
 13 12  1  0
 13 14  1  1
 15 14  2  0
 16 17  1  0
 17 18  2  0
 18 19  1  0
 20 19  2  0
 20 21  1  0
 22 21  1  1
 22 24  1  0
 22 23  1  0
 23 14  1  0
 24 25  1  0
 26 20  1  0
 27 17  1  0
 27 26  2  0
 28 24  2  0
M  END
$$$$
