IPY.pdb
     RDKit          3D

 28 29  0  0  1  0  0  0  0  0999 V2000
   22.8699  -16.4953  -18.6502 C   0  0  0  0  0  0  0  0  0  0  0  0
   23.9572  -17.5168  -18.6721 C   0  0  0  0  0  0  0  0  0  0  0  0
   24.2324  -18.2335  -17.3975 C   0  0  2  0  0  0  0  0  0  0  0  0
   24.6999  -17.1656  -16.4044 C   0  0  0  0  0  0  0  0  0  0  0  0
   25.3356  -19.2644  -17.5991 C   0  0  2  0  0  0  0  0  0  0  0  0
   24.9990  -20.1320  -18.6556 N   0  0  0  0  0  0  0  0  0  0  0  0
   25.6243  -19.9961  -16.3490 C   0  0  0  0  0  0  0  0  0  0  0  0
   24.8071  -20.9815  -16.1295 O   0  0  0  0  0  0  0  0  0  0  0  0
   26.6492  -19.7199  -15.4416 N   0  0  0  0  0  0  0  0  0  0  0  0
   27.5858  -18.5859  -15.6866 C   0  0  0  0  0  0  0  0  0  0  0  0
   28.8371  -18.9188  -14.9390 C   0  0  0  0  0  0  0  0  0  0  0  0
   28.5791  -20.2286  -14.2705 C   0  0  0  0  0  0  0  0  0  0  0  0
   27.0488  -20.3358  -14.2340 C   0  0  1  0  0  0  0  0  0  0  0  0
   26.5193  -19.7511  -12.9909 C   0  0  0  0  0  0  0  0  0  0  0  0
   26.2650  -18.5194  -13.0011 O   0  0  0  0  0  0  0  0  0  0  0  0
   18.7689  -19.5803   -9.4625 O   0  0  0  0  0  0  0  0  0  0  0  0
   20.0125  -19.7914  -10.0630 C   0  0  0  0  0  0  0  0  0  0  0  0
   20.6123  -21.0367  -10.0627 C   0  0  0  0  0  0  0  0  0  0  0  0
   21.8430  -21.2584  -10.6539 C   0  0  0  0  0  0  0  0  0  0  0  0
   22.5371  -20.2328  -11.2790 C   0  0  0  0  0  0  0  0  0  0  0  0
   23.8523  -20.4643  -11.9257 C   0  0  0  0  0  0  0  0  0  0  0  0
   25.0233  -20.2471  -11.0332 C   0  0  2  0  0  0  0  0  0  0  0  0
   26.2701  -20.4487  -11.7821 N   0  0  0  0  0  0  0  0  0  0  0  0
   24.9607  -21.0784   -9.8310 C   0  0  0  0  0  0  0  0  0  0  0  0
   24.5048  -20.5642   -8.6341 O   0  0  0  0  0  0  0  0  0  0  0  0
   21.9257  -18.9928  -11.2716 C   0  0  0  0  0  0  0  0  0  0  0  0
   20.7012  -18.7728  -10.6837 C   0  0  0  0  0  0  0  0  0  0  0  0
   25.3223  -22.2730   -9.8730 O   0  0  0  0  0  0  0  0  0  0  0  0
  1  2  1  0
  2  3  1  0
  3  4  1  1
  5  3  1  0
  5  6  1  6
  7  9  1  0
  7  5  1  0
  8  7  2  0
  9 10  1  0
 10 11  1  0
 12 11  1  0
 13  9  1  0
 13 12  1  0
 13 14  1  1
 15 14  2  0
 16 17  1  0
 17 18  2  0
 18 19  1  0
 20 19  2  0
 20 21  1  0
 22 21  1  6
 22 24  1  0
 22 23  1  0
 23 14  1  0
 24 25  1  0
 26 20  1  0
 27 17  1  0
 27 26  2  0
 28 24  2  0
M  END
$$$$
