IPY.pdb
     RDKit          3D

 28 29  0  0  1  0  0  0  0  0999 V2000
   27.0792  -16.7086  -18.2389 C   0  0  0  0  0  0  0  0  0  0  0  0
   27.7097  -17.8545  -17.5207 C   0  0  0  0  0  0  0  0  0  0  0  0
   26.8265  -18.6617  -16.6362 C   0  0  2  0  0  0  0  0  0  0  0  0
   26.4852  -17.7621  -15.4448 C   0  0  0  0  0  0  0  0  0  0  0  0
   27.5614  -19.9032  -16.1474 C   0  0  2  0  0  0  0  0  0  0  0  0
   27.9925  -20.6728  -17.2447 N   0  0  0  0  0  0  0  0  0  0  0  0
   26.7312  -20.6868  -15.2103 C   0  0  0  0  0  0  0  0  0  0  0  0
   25.9353  -21.5236  -15.8047 O   0  0  0  0  0  0  0  0  0  0  0  0
   26.7396  -20.5964  -13.8168 N   0  0  0  0  0  0  0  0  0  0  0  0
   27.6904  -19.6773  -13.1280 C   0  0  0  0  0  0  0  0  0  0  0  0
   27.8734  -20.2327  -11.7520 C   0  0  0  0  0  0  0  0  0  0  0  0
   27.0089  -21.4480  -11.6820 C   0  0  0  0  0  0  0  0  0  0  0  0
   25.9898  -21.2486  -12.8119 C   0  0  1  0  0  0  0  0  0  0  0  0
   24.7994  -20.5390  -12.3147 C   0  0  0  0  0  0  0  0  0  0  0  0
   24.9030  -19.2971  -12.1449 O   0  0  0  0  0  0  0  0  0  0  0  0
   22.0601  -18.8056  -17.8408 O   0  0  0  0  0  0  0  0  0  0  0  0
   21.8557  -19.2230  -16.5233 C   0  0  0  0  0  0  0  0  0  0  0  0
   22.2187  -20.4885  -16.1023 C   0  0  0  0  0  0  0  0  0  0  0  0
   22.0217  -20.9134  -14.8008 C   0  0  0  0  0  0  0  0  0  0  0  0
   21.4460  -20.0821  -13.8511 C   0  0  0  0  0  0  0  0  0  0  0  0
   21.2417  -20.5257  -12.4499 C   0  0  0  0  0  0  0  0  0  0  0  0
   22.4136  -20.3080  -11.5588 C   0  0  2  0  0  0  0  0  0  0  0  0
   23.5461  -21.1270  -12.0088 N   0  0  0  0  0  0  0  0  0  0  0  0
   22.0867  -20.5429  -10.1523 C   0  0  0  0  0  0  0  0  0  0  0  0
   21.0678  -19.8473   -9.5335 O   0  0  0  0  0  0  0  0  0  0  0  0
   21.0877  -18.8196  -14.2859 C   0  0  0  0  0  0  0  0  0  0  0  0
   21.2842  -18.3972  -15.5806 C   0  0  0  0  0  0  0  0  0  0  0  0
   22.7310  -21.3820   -9.4887 O   0  0  0  0  0  0  0  0  0  0  0  0
  1  2  1  0
  2  3  1  0
  3  4  1  1
  5  3  1  0
  5  6  1  6
  7  9  1  0
  7  5  1  0
  8  7  2  0
  9 10  1  0
 10 11  1  0
 12 11  1  0
 13  9  1  0
 13 12  1  0
 13 14  1  1
 15 14  2  0
 16 17  1  0
 17 18  2  0
 18 19  1  0
 20 19  2  0
 20 21  1  0
 22 21  1  6
 22 24  1  0
 22 23  1  0
 23 14  1  0
 24 25  1  0
 26 20  1  0
 27 17  1  0
 27 26  2  0
 28 24  2  0
M  END
$$$$
