NPS.pdb
     RDKit          3D

 22 22  0  0  1  0  0  0  0  0999 V2000
   10.1894  -17.5075   15.8135 N   0  0  0  0  0  0  0  0  0  0  0  0
    8.7829  -17.5750   15.9558 C   0  0  0  0  0  0  0  0  0  0  0  0
    8.2989  -18.7478   16.1381 O   0  0  0  0  0  0  0  0  0  0  0  0
    7.8715  -16.4325   15.9137 C   0  0  0  0  0  0  0  0  0  0  0  0
    8.5407  -15.0885   15.7676 C   0  0  2  0  0  0  0  0  0  0  0  0
    9.1233  -15.0501   14.4711 N   0  0  0  0  0  0  0  0  0  0  0  0
    9.4005  -14.7801   16.9073 C   0  0  0  0  0  0  0  0  0  0  0  0
   10.5385  -15.3716   16.9238 O   0  0  0  0  0  0  0  0  0  0  0  0
    9.1571  -13.9245   17.9907 N   0  0  0  0  0  0  0  0  0  0  0  0
    8.4422  -12.6195   17.9156 C   0  0  0  0  0  0  0  0  0  0  0  0
    7.3784  -12.8603   19.0058 C   0  0  0  0  0  0  0  0  0  0  0  0
    7.9570  -13.9594   19.9054 C   0  0  0  0  0  0  0  0  0  0  0  0
    9.3908  -13.9572   19.3941 C   0  0  1  0  0  0  0  0  0  0  0  0
   10.2675  -14.9160   20.0012 C   0  0  0  0  0  0  0  0  0  0  0  0
   10.0909  -16.1449   19.9480 O   0  0  0  0  0  0  0  0  0  0  0  0
   14.6254  -15.5565   22.1669 O   0  0  0  0  0  0  0  0  0  0  0  0
   13.6558  -14.7288   21.6427 C   0  0  0  0  0  0  0  0  0  0  0  0
   12.3759  -15.4785   21.2836 C   0  0  2  0  0  0  0  0  0  0  0  0
   11.4522  -14.5386   20.7405 N   0  0  0  0  0  0  0  0  0  0  0  0
   11.8832  -16.0697   22.5768 C   0  0  0  0  0  0  0  0  0  0  0  0
   10.8808  -15.5117   23.1039 O   0  0  0  0  0  0  0  0  0  0  0  0
   12.4784  -17.1649   23.1767 O   0  0  0  0  0  0  0  0  0  0  0  0
  1  2  1  0
  2  4  1  0
  3  2  2  0
  4  5  1  0
  5  7  1  0
  5  6  1  6
  7  8  2  0
  9 13  1  0
  9  7  1  0
 10  9  1  0
 11 10  1  0
 11 12  1  0
 12 13  1  0
 13 14  1  6
 14 15  2  0
 14 19  1  0
 17 16  1  0
 18 17  1  1
 19 18  1  0
 20 18  1  0
 20 22  1  0
 21 20  2  0
M  END
$$$$
