NPS.pdb
     RDKit          3D

 22 22  0  0  1  0  0  0  0  0999 V2000
    9.0996  -18.4389   16.6666 N   0  0  0  0  0  0  0  0  0  0  0  0
    7.8346  -17.9095   17.0164 C   0  0  0  0  0  0  0  0  0  0  0  0
    7.0854  -18.6780   17.7170 O   0  0  0  0  0  0  0  0  0  0  0  0
    7.3397  -16.5840   16.6472 C   0  0  0  0  0  0  0  0  0  0  0  0
    8.4041  -15.5259   16.4952 C   0  0  2  0  0  0  0  0  0  0  0  0
    9.1559  -15.8529   15.3335 N   0  0  0  0  0  0  0  0  0  0  0  0
    9.1378  -15.3072   17.7390 C   0  0  0  0  0  0  0  0  0  0  0  0
   10.0985  -16.1246   17.9712 O   0  0  0  0  0  0  0  0  0  0  0  0
    8.9401  -14.3249   18.7194 N   0  0  0  0  0  0  0  0  0  0  0  0
    8.6515  -12.8875   18.4546 C   0  0  0  0  0  0  0  0  0  0  0  0
    7.3722  -12.7346   19.3020 C   0  0  0  0  0  0  0  0  0  0  0  0
    7.4305  -13.8647   20.3371 C   0  0  0  0  0  0  0  0  0  0  0  0
    8.8774  -14.2948   20.1409 C   0  0  1  0  0  0  0  0  0  0  0  0
    9.3122  -15.3968   20.9490 C   0  0  0  0  0  0  0  0  0  0  0  0
    8.7720  -16.5159   20.9401 O   0  0  0  0  0  0  0  0  0  0  0  0
   12.8529  -17.1192   23.8578 O   0  0  0  0  0  0  0  0  0  0  0  0
   12.3502  -16.1716   22.9922 C   0  0  0  0  0  0  0  0  0  0  0  0
   10.8736  -16.3910   22.6753 C   0  0  2  0  0  0  0  0  0  0  0  0
   10.4322  -15.3083   21.8601 N   0  0  0  0  0  0  0  0  0  0  0  0
   10.1776  -16.4120   24.0094 C   0  0  0  0  0  0  0  0  0  0  0  0
    9.5464  -15.3667   24.3303 O   0  0  0  0  0  0  0  0  0  0  0  0
   10.2120  -17.5045   24.8572 O   0  0  0  0  0  0  0  0  0  0  0  0
  1  2  1  0
  2  4  1  0
  3  2  2  0
  4  5  1  0
  5  7  1  0
  5  6  1  6
  7  8  2  0
  9 13  1  0
  9  7  1  0
 10  9  1  0
 11 10  1  0
 11 12  1  0
 12 13  1  0
 13 14  1  1
 14 15  2  0
 14 19  1  0
 17 16  1  0
 18 17  1  1
 19 18  1  0
 20 18  1  0
 20 22  1  0
 21 20  2  0
M  END
$$$$
