NPS.pdb
     RDKit          3D

 22 22  0  0  1  0  0  0  0  0999 V2000
    9.7612  -18.3788   16.3783 N   0  0  0  0  0  0  0  0  0  0  0  0
   10.4285  -17.4538   15.5403 C   0  0  0  0  0  0  0  0  0  0  0  0
   11.5457  -17.8511   15.0536 O   0  0  0  0  0  0  0  0  0  0  0  0
    9.9437  -16.1172   15.1992 C   0  0  0  0  0  0  0  0  0  0  0  0
    8.8466  -15.5906   16.0905 C   0  0  2  0  0  0  0  0  0  0  0  0
    8.3103  -14.4365   15.4563 N   0  0  0  0  0  0  0  0  0  0  0  0
    9.2853  -15.4605   17.4776 C   0  0  0  0  0  0  0  0  0  0  0  0
    9.9942  -16.4283   17.9315 O   0  0  0  0  0  0  0  0  0  0  0  0
    9.0408  -14.4223   18.3871 N   0  0  0  0  0  0  0  0  0  0  0  0
    8.9183  -12.9795   18.0367 C   0  0  0  0  0  0  0  0  0  0  0  0
    7.5526  -12.6843   18.6892 C   0  0  0  0  0  0  0  0  0  0  0  0
    7.3684  -13.7676   19.7590 C   0  0  0  0  0  0  0  0  0  0  0  0
    8.7854  -14.3232   19.7836 C   0  0  1  0  0  0  0  0  0  0  0  0
    9.0065  -15.4196   20.6811 C   0  0  0  0  0  0  0  0  0  0  0  0
    8.2171  -16.3693   20.8198 O   0  0  0  0  0  0  0  0  0  0  0  0
   12.7900  -16.1059   22.3027 O   0  0  0  0  0  0  0  0  0  0  0  0
   11.8539  -17.1067   22.1539 C   0  0  0  0  0  0  0  0  0  0  0  0
   10.4288  -16.6180   22.3978 C   0  0  2  0  0  0  0  0  0  0  0  0
   10.1815  -15.5240   21.5183 N   0  0  0  0  0  0  0  0  0  0  0  0
   10.3922  -16.1987   23.8426 C   0  0  0  0  0  0  0  0  0  0  0  0
   10.1200  -14.9869   24.0693 O   0  0  0  0  0  0  0  0  0  0  0  0
   10.6396  -17.0738   24.8850 O   0  0  0  0  0  0  0  0  0  0  0  0
  1  2  1  0
  2  4  1  0
  3  2  2  0
  4  5  1  0
  5  7  1  0
  5  6  1  6
  7  8  2  0
  9 13  1  0
  9  7  1  0
 10  9  1  0
 11 10  1  0
 11 12  1  0
 12 13  1  0
 13 14  1  6
 14 15  2  0
 14 19  1  0
 17 16  1  0
 18 17  1  6
 19 18  1  0
 20 18  1  0
 20 22  1  0
 21 20  2  0
M  END
$$$$
