NPS.pdb
     RDKit          3D

 22 22  0  0  1  0  0  0  0  0999 V2000
    8.9481  -18.6175   16.3318 N   0  0  0  0  0  0  0  0  0  0  0  0
    8.2204  -17.5007   15.8562 C   0  0  0  0  0  0  0  0  0  0  0  0
    7.8426  -17.5641   14.6330 O   0  0  0  0  0  0  0  0  0  0  0  0
    7.8774  -16.3162   16.6419 C   0  0  0  0  0  0  0  0  0  0  0  0
    8.8637  -15.1791   16.5442 C   0  0  2  0  0  0  0  0  0  0  0  0
    9.7001  -15.4459   15.4257 N   0  0  0  0  0  0  0  0  0  0  0  0
    9.5102  -14.9057   17.8250 C   0  0  0  0  0  0  0  0  0  0  0  0
   10.6251  -15.5069   18.0269 O   0  0  0  0  0  0  0  0  0  0  0  0
    9.0829  -14.0745   18.8698 N   0  0  0  0  0  0  0  0  0  0  0  0
    8.5855  -12.6789   18.7135 C   0  0  0  0  0  0  0  0  0  0  0  0
    7.2386  -12.8151   19.4522 C   0  0  0  0  0  0  0  0  0  0  0  0
    7.4021  -14.0254   20.3797 C   0  0  0  0  0  0  0  0  0  0  0  0
    8.9102  -14.2043   20.2765 C   0  0  1  0  0  0  0  0  0  0  0  0
    9.4565  -15.3050   21.0156 C   0  0  0  0  0  0  0  0  0  0  0  0
    9.1006  -16.4857   20.8614 O   0  0  0  0  0  0  0  0  0  0  0  0
   13.0242  -16.7054   24.0810 O   0  0  0  0  0  0  0  0  0  0  0  0
   12.3740  -15.7275   23.3593 C   0  0  0  0  0  0  0  0  0  0  0  0
   11.0834  -16.2311   22.7191 C   0  0  2  0  0  0  0  0  0  0  0  0
   10.4838  -15.1427   22.0209 N   0  0  0  0  0  0  0  0  0  0  0  0
   10.2288  -16.7056   23.8634 C   0  0  0  0  0  0  0  0  0  0  0  0
    9.3056  -15.9286   24.2351 O   0  0  0  0  0  0  0  0  0  0  0  0
   10.4231  -17.9227   24.4915 O   0  0  0  0  0  0  0  0  0  0  0  0
  1  2  1  0
  2  4  1  0
  3  2  2  0
  4  5  1  0
  5  7  1  0
  5  6  1  6
  7  8  2  0
  9 13  1  0
  9  7  1  0
 10  9  1  0
 11 10  1  0
 11 12  1  0
 12 13  1  0
 13 14  1  6
 14 15  2  0
 14 19  1  0
 17 16  1  0
 18 17  1  1
 19 18  1  0
 20 18  1  0
 20 22  1  0
 21 20  2  0
M  END
$$$$
