NPS.pdb
     RDKit          3D

 22 22  0  0  1  0  0  0  0  0999 V2000
    9.2850  -17.8460   16.1461 N   0  0  0  0  0  0  0  0  0  0  0  0
    7.9508  -17.3755   16.1833 C   0  0  0  0  0  0  0  0  0  0  0  0
    7.0423  -18.2793   16.1561 O   0  0  0  0  0  0  0  0  0  0  0  0
    7.5495  -15.9711   16.2519 C   0  0  0  0  0  0  0  0  0  0  0  0
    8.6894  -14.9837   16.2871 C   0  0  2  0  0  0  0  0  0  0  0  0
    9.5184  -15.2618   15.1659 N   0  0  0  0  0  0  0  0  0  0  0  0
    9.3227  -14.9278   17.6021 C   0  0  0  0  0  0  0  0  0  0  0  0
   10.2863  -15.7526   17.7927 O   0  0  0  0  0  0  0  0  0  0  0  0
    9.0255  -14.0957   18.6903 N   0  0  0  0  0  0  0  0  0  0  0  0
    8.7080  -12.6427   18.6038 C   0  0  0  0  0  0  0  0  0  0  0  0
    7.3692  -12.6387   19.3690 C   0  0  0  0  0  0  0  0  0  0  0  0
    7.3938  -13.8996   20.2417 C   0  0  0  0  0  0  0  0  0  0  0  0
    8.8643  -14.2642   20.0942 C   0  0  1  0  0  0  0  0  0  0  0  0
    9.2791  -15.4568   20.7739 C   0  0  0  0  0  0  0  0  0  0  0  0
    8.9020  -16.5984   20.4592 O   0  0  0  0  0  0  0  0  0  0  0  0
   12.5272  -18.1074   22.6420 O   0  0  0  0  0  0  0  0  0  0  0  0
   12.0378  -16.9369   22.1029 C   0  0  0  0  0  0  0  0  0  0  0  0
   10.6222  -16.6197   22.5767 C   0  0  2  0  0  0  0  0  0  0  0  0
   10.1848  -15.4430   21.9016 N   0  0  0  0  0  0  0  0  0  0  0  0
   10.7363  -16.4075   24.0622 C   0  0  0  0  0  0  0  0  0  0  0  0
   10.6137  -15.2193   24.4711 O   0  0  0  0  0  0  0  0  0  0  0  0
   10.9633  -17.4410   24.9531 O   0  0  0  0  0  0  0  0  0  0  0  0
  1  2  1  0
  2  4  1  0
  3  2  2  0
  4  5  1  0
  5  7  1  0
  5  6  1  6
  7  8  2  0
  9 13  1  0
  9  7  1  0
 10  9  1  0
 11 10  1  0
 11 12  1  0
 12 13  1  0
 13 14  1  6
 14 15  2  0
 14 19  1  0
 17 16  1  0
 18 17  1  6
 19 18  1  0
 20 18  1  0
 20 22  1  0
 21 20  2  0
M  END
$$$$
