NPS.pdb
     RDKit          3D

 22 22  0  0  1  0  0  0  0  0999 V2000
    8.1720  -16.6412   13.9882 N   0  0  0  0  0  0  0  0  0  0  0  0
    7.5563  -16.9559   15.2231 C   0  0  0  0  0  0  0  0  0  0  0  0
    6.6283  -17.8385   15.1719 O   0  0  0  0  0  0  0  0  0  0  0  0
    7.8984  -16.3633   16.5153 C   0  0  0  0  0  0  0  0  0  0  0  0
    8.9348  -15.2687   16.4601 C   0  0  2  0  0  0  0  0  0  0  0  0
    9.7781  -15.5468   15.3496 N   0  0  0  0  0  0  0  0  0  0  0  0
    9.5702  -15.0527   17.7574 C   0  0  0  0  0  0  0  0  0  0  0  0
   10.5770  -15.8036   18.0174 O   0  0  0  0  0  0  0  0  0  0  0  0
    9.2343  -14.1358   18.7631 N   0  0  0  0  0  0  0  0  0  0  0  0
    8.9299  -12.6932   18.5486 C   0  0  0  0  0  0  0  0  0  0  0  0
    7.5611  -12.6242   19.2555 C   0  0  0  0  0  0  0  0  0  0  0  0
    7.5422  -13.8118   20.2257 C   0  0  0  0  0  0  0  0  0  0  0  0
    9.0151  -14.1916   20.1681 C   0  0  1  0  0  0  0  0  0  0  0  0
    9.3942  -15.3278   20.9566 C   0  0  0  0  0  0  0  0  0  0  0  0
    8.7868  -16.4119   20.9436 O   0  0  0  0  0  0  0  0  0  0  0  0
   13.2015  -15.9062   22.0325 O   0  0  0  0  0  0  0  0  0  0  0  0
   12.3672  -16.2221   23.0833 C   0  0  0  0  0  0  0  0  0  0  0  0
   10.9227  -16.4385   22.6408 C   0  0  2  0  0  0  0  0  0  0  0  0
   10.5312  -15.3186   21.8508 N   0  0  0  0  0  0  0  0  0  0  0  0
   10.1256  -16.5364   23.9135 C   0  0  0  0  0  0  0  0  0  0  0  0
    9.3327  -15.5839   24.1546 O   0  0  0  0  0  0  0  0  0  0  0  0
   10.2368  -17.6014   24.7892 O   0  0  0  0  0  0  0  0  0  0  0  0
  1  2  1  0
  2  4  1  0
  3  2  2  0
  4  5  1  0
  5  7  1  0
  5  6  1  6
  7  8  2  0
  9 13  1  0
  9  7  1  0
 10  9  1  0
 11 10  1  0
 11 12  1  0
 12 13  1  0
 13 14  1  6
 14 15  2  0
 14 19  1  0
 17 16  1  0
 18 17  1  1
 19 18  1  0
 20 18  1  0
 20 22  1  0
 21 20  2  0
M  END
$$$$
