NPS.pdb
     RDKit          3D

 22 22  0  0  1  0  0  0  0  0999 V2000
   -1.7600  -29.2230   29.2829 N   0  0  0  0  0  0  0  0  0  0  0  0
   -1.5607  -27.9445   29.8562 C   0  0  0  0  0  0  0  0  0  0  0  0
   -0.4608  -27.7878   30.4954 O   0  0  0  0  0  0  0  0  0  0  0  0
   -2.4940  -26.8223   29.7690 C   0  0  0  0  0  0  0  0  0  0  0  0
   -2.8732  -26.4163   28.3665 C   0  0  2  0  0  0  0  0  0  0  0  0
   -1.6713  -26.0622   27.6943 N   0  0  0  0  0  0  0  0  0  0  0  0
   -3.9673  -25.4488   28.3553 C   0  0  0  0  0  0  0  0  0  0  0  0
   -3.9424  -24.5676   29.2870 O   0  0  0  0  0  0  0  0  0  0  0  0
   -5.0457  -25.3460   27.4656 N   0  0  0  0  0  0  0  0  0  0  0  0
   -4.9697  -25.5467   25.9913 C   0  0  0  0  0  0  0  0  0  0  0  0
   -6.0820  -26.6027   25.8305 C   0  0  0  0  0  0  0  0  0  0  0  0
   -6.9826  -26.4379   27.0609 C   0  0  0  0  0  0  0  0  0  0  0  0
   -6.4448  -25.1100   27.5752 C   0  0  1  0  0  0  0  0  0  0  0  0
   -7.0459  -24.6229   28.7826 C   0  0  0  0  0  0  0  0  0  0  0  0
   -7.1029  -25.2757   29.8384 O   0  0  0  0  0  0  0  0  0  0  0  0
   -6.8498  -20.9151   30.1914 O   0  0  0  0  0  0  0  0  0  0  0  0
   -8.1643  -21.3191   30.0977 C   0  0  0  0  0  0  0  0  0  0  0  0
   -8.3097  -22.8378   30.0563 C   0  0  2  0  0  0  0  0  0  0  0  0
   -7.6487  -23.3120   28.8860 N   0  0  0  0  0  0  0  0  0  0  0  0
   -9.7916  -23.0959   30.0100 C   0  0  0  0  0  0  0  0  0  0  0  0
  -10.2746  -23.3969   28.8830 O   0  0  0  0  0  0  0  0  0  0  0  0
  -10.6033  -23.0144   31.1272 O   0  0  0  0  0  0  0  0  0  0  0  0
  1  2  1  0
  2  4  1  0
  3  2  2  0
  4  5  1  0
  5  7  1  0
  5  6  1  1
  7  8  2  0
  9 13  1  0
  9  7  1  0
 10  9  1  0
 11 10  1  0
 11 12  1  0
 12 13  1  0
 13 14  1  1
 14 15  2  0
 14 19  1  0
 17 16  1  0
 18 17  1  6
 19 18  1  0
 20 18  1  0
 20 22  1  0
 21 20  2  0
M  END
$$$$
