NPS.pdb
     RDKit          3D

 22 22  0  0  1  0  0  0  0  0999 V2000
    7.7068  -18.1704   17.5775 N   0  0  0  0  0  0  0  0  0  0  0  0
    8.0971  -17.4431   16.4278 C   0  0  0  0  0  0  0  0  0  0  0  0
    8.7728  -18.0994   15.5585 O   0  0  0  0  0  0  0  0  0  0  0  0
    7.7888  -16.0373   16.1697 C   0  0  0  0  0  0  0  0  0  0  0  0
    8.9602  -15.0949   16.2936 C   0  0  2  0  0  0  0  0  0  0  0  0
    9.8723  -15.4224   15.2532 N   0  0  0  0  0  0  0  0  0  0  0  0
    9.4776  -15.0437   17.6585 C   0  0  0  0  0  0  0  0  0  0  0  0
   10.3709  -15.9168   17.9496 O   0  0  0  0  0  0  0  0  0  0  0  0
    9.1348  -14.1706   18.7003 N   0  0  0  0  0  0  0  0  0  0  0  0
    8.8168  -12.7236   18.5437 C   0  0  0  0  0  0  0  0  0  0  0  0
    7.4486  -12.6954   19.2544 C   0  0  0  0  0  0  0  0  0  0  0  0
    7.4421  -13.9207   20.1767 C   0  0  0  0  0  0  0  0  0  0  0  0
    8.9184  -14.2843   20.1023 C   0  0  1  0  0  0  0  0  0  0  0  0
    9.3091  -15.4473   20.8446 C   0  0  0  0  0  0  0  0  0  0  0  0
    8.6676  -16.5116   20.8500 O   0  0  0  0  0  0  0  0  0  0  0  0
   13.1029  -15.6869   22.5999 O   0  0  0  0  0  0  0  0  0  0  0  0
   12.3840  -16.8206   22.2874 C   0  0  0  0  0  0  0  0  0  0  0  0
   10.8789  -16.6229   22.4446 C   0  0  2  0  0  0  0  0  0  0  0  0
   10.4993  -15.4913   21.6655 N   0  0  0  0  0  0  0  0  0  0  0  0
   10.6577  -16.3941   23.9155 C   0  0  0  0  0  0  0  0  0  0  0  0
   10.1600  -15.2808   24.2423 O   0  0  0  0  0  0  0  0  0  0  0  0
   10.9740  -17.3361   24.8779 O   0  0  0  0  0  0  0  0  0  0  0  0
  1  2  1  0
  2  4  1  0
  3  2  2  0
  4  5  1  0
  5  7  1  0
  5  6  1  6
  7  8  2  0
  9 13  1  0
  9  7  1  0
 10  9  1  0
 11 10  1  0
 11 12  1  0
 12 13  1  0
 13 14  1  6
 14 15  2  0
 14 19  1  0
 17 16  1  0
 18 17  1  1
 19 18  1  0
 20 18  1  0
 20 22  1  0
 21 20  2  0
M  END
$$$$
