NPS.pdb
     RDKit          3D

 22 22  0  0  1  0  0  0  0  0999 V2000
    7.8811  -17.7491   13.4006 N   0  0  0  0  0  0  0  0  0  0  0  0
    7.4806  -17.1008   14.5933 C   0  0  0  0  0  0  0  0  0  0  0  0
    6.2245  -16.8716   14.7058 O   0  0  0  0  0  0  0  0  0  0  0  0
    8.3742  -16.6898   15.6751 C   0  0  0  0  0  0  0  0  0  0  0  0
    8.7901  -15.2402   15.6422 C   0  0  2  0  0  0  0  0  0  0  0  0
    9.3201  -14.9864   14.3474 N   0  0  0  0  0  0  0  0  0  0  0  0
    9.6130  -14.8821   16.7945 C   0  0  0  0  0  0  0  0  0  0  0  0
   10.7865  -15.3990   16.8241 O   0  0  0  0  0  0  0  0  0  0  0  0
    9.3006  -14.0487   17.8775 N   0  0  0  0  0  0  0  0  0  0  0  0
    8.6530  -12.7108   17.7777 C   0  0  0  0  0  0  0  0  0  0  0  0
    7.4775  -12.9348   18.7504 C   0  0  0  0  0  0  0  0  0  0  0  0
    7.9170  -14.0855   19.6640 C   0  0  0  0  0  0  0  0  0  0  0  0
    9.3930  -14.1339   19.2951 C   0  0  1  0  0  0  0  0  0  0  0  0
   10.1637  -15.1494   19.9516 C   0  0  0  0  0  0  0  0  0  0  0  0
    9.7377  -16.2911   20.1954 O   0  0  0  0  0  0  0  0  0  0  0  0
   14.2202  -14.4607   21.1404 O   0  0  0  0  0  0  0  0  0  0  0  0
   13.7796  -15.6768   20.6642 C   0  0  0  0  0  0  0  0  0  0  0  0
   12.3186  -15.9486   21.0119 C   0  0  2  0  0  0  0  0  0  0  0  0
   11.5238  -14.9381   20.3965 N   0  0  0  0  0  0  0  0  0  0  0  0
   12.2470  -15.8849   22.5138 C   0  0  0  0  0  0  0  0  0  0  0  0
   11.5278  -14.9702   23.0038 O   0  0  0  0  0  0  0  0  0  0  0  0
   12.9228  -16.7686   23.3359 O   0  0  0  0  0  0  0  0  0  0  0  0
  1  2  1  0
  2  4  1  0
  3  2  2  0
  4  5  1  0
  5  7  1  0
  5  6  1  6
  7  8  2  0
  9 13  1  0
  9  7  1  0
 10  9  1  0
 11 10  1  0
 11 12  1  0
 12 13  1  0
 13 14  1  6
 14 15  2  0
 14 19  1  0
 17 16  1  0
 18 17  1  1
 19 18  1  0
 20 18  1  0
 20 22  1  0
 21 20  2  0
M  END
$$$$
