NPS.pdb
     RDKit          3D

 22 22  0  0  1  0  0  0  0  0999 V2000
    6.3152  -19.6236   17.7520 N   0  0  0  0  0  0  0  0  0  0  0  0
    5.7312  -18.9820   18.8702 C   0  0  0  0  0  0  0  0  0  0  0  0
    4.6557  -19.5165   19.3180 O   0  0  0  0  0  0  0  0  0  0  0  0
    6.2567  -17.7887   19.5320 C   0  0  0  0  0  0  0  0  0  0  0  0
    7.4198  -17.1316   18.8315 C   0  0  2  0  0  0  0  0  0  0  0  0
    8.0493  -18.1304   18.0390 N   0  0  0  0  0  0  0  0  0  0  0  0
    8.2566  -16.3728   19.7573 C   0  0  0  0  0  0  0  0  0  0  0  0
    8.9016  -17.0660   20.6226 O   0  0  0  0  0  0  0  0  0  0  0  0
    8.4562  -14.9874   19.8340 N   0  0  0  0  0  0  0  0  0  0  0  0
    8.6389  -14.0764   18.6694 C   0  0  0  0  0  0  0  0  0  0  0  0
    7.5385  -13.0449   18.9907 C   0  0  0  0  0  0  0  0  0  0  0  0
    7.2896  -13.1696   20.4989 C   0  0  0  0  0  0  0  0  0  0  0  0
    8.4993  -14.0149   20.8721 C   0  0  1  0  0  0  0  0  0  0  0  0
    8.5998  -14.3774   22.2559 C   0  0  0  0  0  0  0  0  0  0  0  0
    7.7022  -14.1733   23.0908 O   0  0  0  0  0  0  0  0  0  0  0  0
    9.3013  -17.7899   23.8117 O   0  0  0  0  0  0  0  0  0  0  0  0
    8.8570  -16.6041   24.3559 C   0  0  0  0  0  0  0  0  0  0  0  0
    9.8529  -15.4629   24.1684 C   0  0  2  0  0  0  0  0  0  0  0  0
    9.7677  -15.0214   22.8158 N   0  0  0  0  0  0  0  0  0  0  0  0
   11.2007  -16.0531   24.4845 C   0  0  0  0  0  0  0  0  0  0  0  0
   11.9673  -16.2609   23.5031 O   0  0  0  0  0  0  0  0  0  0  0  0
   11.6025  -16.3607   25.7719 O   0  0  0  0  0  0  0  0  0  0  0  0
  1  2  1  0
  2  4  1  0
  3  2  2  0
  4  5  1  0
  5  7  1  0
  5  6  1  1
  7  8  2  0
  9 13  1  0
  9  7  1  0
 10  9  1  0
 11 10  1  0
 11 12  1  0
 12 13  1  0
 13 14  1  1
 14 15  2  0
 14 19  1  0
 17 16  1  0
 18 17  1  6
 19 18  1  0
 20 18  1  0
 20 22  1  0
 21 20  2  0
M  END
$$$$
