NPS.pdb
     RDKit          3D

 22 22  0  0  1  0  0  0  0  0999 V2000
    7.0127  -15.7656   13.9540 N   0  0  0  0  0  0  0  0  0  0  0  0
    7.5362  -16.7179   14.8606 C   0  0  0  0  0  0  0  0  0  0  0  0
    7.4656  -17.9409   14.4836 O   0  0  0  0  0  0  0  0  0  0  0  0
    8.1373  -16.4112   16.1578 C   0  0  0  0  0  0  0  0  0  0  0  0
    9.0267  -15.1929   16.1759 C   0  0  2  0  0  0  0  0  0  0  0  0
    9.9153  -15.3074   15.0718 N   0  0  0  0  0  0  0  0  0  0  0  0
    9.6097  -14.9623   17.4951 C   0  0  0  0  0  0  0  0  0  0  0  0
   10.6880  -15.6088   17.7493 O   0  0  0  0  0  0  0  0  0  0  0  0
    9.1558  -14.1298   18.5275 N   0  0  0  0  0  0  0  0  0  0  0  0
    8.6663  -12.7330   18.3572 C   0  0  0  0  0  0  0  0  0  0  0  0
    7.2992  -12.8656   19.0583 C   0  0  0  0  0  0  0  0  0  0  0  0
    7.4339  -14.0761   19.9903 C   0  0  0  0  0  0  0  0  0  0  0  0
    8.9438  -14.2588   19.9288 C   0  0  1  0  0  0  0  0  0  0  0  0
    9.4667  -15.3607   20.6830 C   0  0  0  0  0  0  0  0  0  0  0  0
    9.1784  -16.5489   20.4611 O   0  0  0  0  0  0  0  0  0  0  0  0
   12.9768  -16.9059   23.6546 O   0  0  0  0  0  0  0  0  0  0  0  0
   12.3451  -15.8976   22.9587 C   0  0  0  0  0  0  0  0  0  0  0  0
   10.9278  -16.2749   22.5366 C   0  0  2  0  0  0  0  0  0  0  0  0
   10.3886  -15.1907   21.7847 N   0  0  0  0  0  0  0  0  0  0  0  0
   10.1752  -16.4996   23.8203 C   0  0  0  0  0  0  0  0  0  0  0  0
    9.3608  -15.5965   24.1596 O   0  0  0  0  0  0  0  0  0  0  0  0
   10.3479  -17.6258   24.6047 O   0  0  0  0  0  0  0  0  0  0  0  0
  1  2  1  0
  2  4  1  0
  3  2  2  0
  4  5  1  0
  5  7  1  0
  5  6  1  6
  7  8  2  0
  9 13  1  0
  9  7  1  0
 10  9  1  0
 11 10  1  0
 11 12  1  0
 12 13  1  0
 13 14  1  6
 14 15  2  0
 14 19  1  0
 17 16  1  0
 18 17  1  1
 19 18  1  0
 20 18  1  0
 20 22  1  0
 21 20  2  0
M  END
$$$$
