WSK.pdb
     RDKit          3D

 30 31  0  0  1  0  0  0  0  0999 V2000
   24.3794  -20.7837   -9.3962 N   0  0  0  0  0  0  0  0  0  0  0  0
   25.5902  -20.2159   -9.9448 C   0  0  1  0  0  0  0  0  0  0  0  0
   26.7709  -20.9087   -9.2766 C   0  0  0  0  0  0  0  0  0  0  0  0
   26.7475  -20.6387   -7.8193 C   0  0  0  0  0  0  0  0  0  0  0  0
   25.6639  -20.7112   -6.9686 C   0  0  0  0  0  0  0  0  0  0  0  0
   26.0507  -20.3989   -5.7215 N   0  0  0  0  0  0  0  0  0  0  0  0
   27.3737  -20.1150   -5.7024 C   0  0  0  0  0  0  0  0  0  0  0  0
   28.2378  -19.7452   -4.6968 C   0  0  0  0  0  0  0  0  0  0  0  0
   29.5573  -19.5224   -5.0119 C   0  0  0  0  0  0  0  0  0  0  0  0
   30.0269  -19.6625   -6.3119 C   0  0  0  0  0  0  0  0  0  0  0  0
   29.1401  -20.0336   -7.2975 C   0  0  0  0  0  0  0  0  0  0  0  0
   27.8108  -20.2649   -7.0169 C   0  0  0  0  0  0  0  0  0  0  0  0
   25.6017  -20.4222  -11.4023 C   0  0  0  0  0  0  0  0  0  0  0  0
   25.1536  -21.4953  -11.8741 O   0  0  0  0  0  0  0  0  0  0  0  0
   27.4542  -17.8041  -13.6714 O   0  0  0  0  0  0  0  0  0  0  0  0
   26.4104  -18.3472  -14.4058 C   0  0  0  0  0  0  0  0  0  0  0  0
   26.0583  -19.6862  -13.7392 C   0  0  2  0  0  0  0  0  0  0  0  0
   26.1046  -19.4509  -12.3204 N   0  0  0  0  0  0  0  0  0  0  0  0
   27.1416  -20.6264  -14.1741 C   0  0  0  0  0  0  0  0  0  0  0  0
   28.1944  -20.6106  -13.4967 O   0  0  0  0  0  0  0  0  0  0  0  0
   27.0273  -21.4832  -15.2587 N   0  0  0  0  0  0  0  0  0  0  0  0
   28.1039  -22.4048  -15.7231 C   0  0  1  0  0  0  0  0  0  0  0  0
   27.5058  -23.7189  -15.9965 C   0  0  0  0  0  0  0  0  0  0  0  0
   28.2062  -24.9061  -16.3963 C   0  0  0  0  0  0  0  0  0  0  0  0
   27.5892  -26.1801  -16.7685 C   0  0  0  0  0  0  0  0  0  0  0  0
   28.7888  -27.1543  -17.0384 C   0  0  0  0  0  0  0  0  0  0  0  0
   28.2991  -28.4907  -17.2453 N   0  0  0  0  0  0  0  0  0  0  0  0
   28.6805  -21.6919  -16.8762 C   0  0  0  0  0  0  0  0  0  0  0  0
   30.0040  -21.9128  -17.2809 O   0  0  0  0  0  0  0  0  0  0  0  0
   28.0498  -20.8683  -17.5495 O   0  0  0  0  0  0  0  0  0  0  0  0
  2  1  1  1
  2 13  1  0
  2  3  1  0
  3  4  1  0
  4  5  2  0
  6  5  1  0
  7  6  1  0
  8  7  2  0
  9  8  1  0
 10  9  2  0
 10 11  1  0
 11 12  2  0
 12  7  1  0
 12  4  1  0
 13 14  2  0
 17 16  1  6
 16 15  1  0
 18 17  1  0
 18 13  1  0
 19 20  2  0
 19 17  1  0
 21 19  1  0
 22 28  1  0
 22 21  1  0
 22 23  1  6
 24 23  1  0
 25 24  1  0
 26 27  1  0
 26 25  1  0
 28 29  1  0
 30 28  2  0
M  END
$$$$
