WSK.pdb
     RDKit          3D

 30 31  0  0  1  0  0  0  0  0999 V2000
   25.6141  -22.3664  -13.1834 N   0  0  0  0  0  0  0  0  0  0  0  0
   25.1063  -21.4053  -12.2307 C   0  0  1  0  0  0  0  0  0  0  0  0
   25.4900  -20.0163  -12.7244 C   0  0  0  0  0  0  0  0  0  0  0  0
   26.9652  -19.9138  -12.8268 C   0  0  0  0  0  0  0  0  0  0  0  0
   27.6995  -19.3563  -13.8530 C   0  0  0  0  0  0  0  0  0  0  0  0
   29.0088  -19.4519  -13.5713 N   0  0  0  0  0  0  0  0  0  0  0  0
   29.1839  -20.0620  -12.3763 C   0  0  0  0  0  0  0  0  0  0  0  0
   30.3049  -20.3952  -11.6502 C   0  0  0  0  0  0  0  0  0  0  0  0
   30.1413  -21.0273  -10.4404 C   0  0  0  0  0  0  0  0  0  0  0  0
   28.8795  -21.3314   -9.9449 C   0  0  0  0  0  0  0  0  0  0  0  0
   27.7762  -20.9863  -10.6925 C   0  0  0  0  0  0  0  0  0  0  0  0
   27.9035  -20.3519  -11.9093 C   0  0  0  0  0  0  0  0  0  0  0  0
   23.6453  -21.5538  -12.1288 C   0  0  0  0  0  0  0  0  0  0  0  0
   23.0004  -21.9755  -13.1193 O   0  0  0  0  0  0  0  0  0  0  0  0
   21.3461  -20.3101   -8.9666 O   0  0  0  0  0  0  0  0  0  0  0  0
   21.4356  -21.6841   -9.1336 C   0  0  0  0  0  0  0  0  0  0  0  0
   21.6893  -21.9262  -10.6297 C   0  0  2  0  0  0  0  0  0  0  0  0
   22.9130  -21.2375  -10.9443 N   0  0  0  0  0  0  0  0  0  0  0  0
   20.5158  -21.3019  -11.3225 C   0  0  0  0  0  0  0  0  0  0  0  0
   20.7082  -20.1747  -11.8322 O   0  0  0  0  0  0  0  0  0  0  0  0
   19.2697  -21.9030  -11.4180 N   0  0  0  0  0  0  0  0  0  0  0  0
   18.1016  -21.3144  -12.1344 C   0  0  1  0  0  0  0  0  0  0  0  0
   17.4696  -22.3688  -12.9395 C   0  0  0  0  0  0  0  0  0  0  0  0
   16.2733  -22.2405  -13.7217 C   0  0  0  0  0  0  0  0  0  0  0  0
   15.6475  -23.3030  -14.5103 C   0  0  0  0  0  0  0  0  0  0  0  0
   14.3361  -22.6665  -15.0899 C   0  0  0  0  0  0  0  0  0  0  0  0
   13.6578  -23.6178  -15.9288 N   0  0  0  0  0  0  0  0  0  0  0  0
   17.2916  -20.7455  -11.0431 C   0  0  0  0  0  0  0  0  0  0  0  0
   16.3892  -19.6988  -11.2761 O   0  0  0  0  0  0  0  0  0  0  0  0
   17.3525  -21.1439   -9.8740 O   0  0  0  0  0  0  0  0  0  0  0  0
  2  1  1  6
  2 13  1  0
  2  3  1  0
  3  4  1  0
  4  5  2  0
  6  5  1  0
  7  6  1  0
  8  7  2  0
  9  8  1  0
 10  9  2  0
 10 11  1  0
 11 12  2  0
 12  7  1  0
 12  4  1  0
 13 14  2  0
 17 16  1  1
 16 15  1  0
 18 17  1  0
 18 13  1  0
 19 20  2  0
 19 17  1  0
 21 19  1  0
 22 28  1  0
 22 21  1  0
 22 23  1  1
 24 23  1  0
 25 24  1  0
 26 27  1  0
 26 25  1  0
 28 29  1  0
 30 28  2  0
M  END
$$$$
