WSK.pdb
     RDKit          3D

 30 31  0  0  1  0  0  0  0  0999 V2000
   25.9246  -20.1681  -15.0257 N   0  0  0  0  0  0  0  0  0  0  0  0
   24.7566  -19.3389  -14.8323 C   0  0  1  0  0  0  0  0  0  0  0  0
   24.2727  -18.8925  -16.2059 C   0  0  0  0  0  0  0  0  0  0  0  0
   25.3070  -18.0470  -16.8481 C   0  0  0  0  0  0  0  0  0  0  0  0
   26.0185  -18.3181  -17.9985 C   0  0  0  0  0  0  0  0  0  0  0  0
   26.8578  -17.3025  -18.2569 N   0  0  0  0  0  0  0  0  0  0  0  0
   26.7347  -16.3449  -17.3088 C   0  0  0  0  0  0  0  0  0  0  0  0
   27.3552  -15.1312  -17.1175 C   0  0  0  0  0  0  0  0  0  0  0  0
   26.9979  -14.3743  -16.0268 C   0  0  0  0  0  0  0  0  0  0  0  0
   26.0334  -14.8086  -15.1262 C   0  0  0  0  0  0  0  0  0  0  0  0
   25.4292  -16.0267  -15.3427 C   0  0  0  0  0  0  0  0  0  0  0  0
   25.7631  -16.8110  -16.4255 C   0  0  0  0  0  0  0  0  0  0  0  0
   23.7251  -20.1168  -14.1267 C   0  0  0  0  0  0  0  0  0  0  0  0
   23.8359  -21.3650  -14.0598 O   0  0  0  0  0  0  0  0  0  0  0  0
   20.4442  -18.3024  -12.8772 O   0  0  0  0  0  0  0  0  0  0  0  0
   20.7595  -19.3258  -11.9957 C   0  0  0  0  0  0  0  0  0  0  0  0
   21.6418  -20.3149  -12.7731 C   0  0  2  0  0  0  0  0  0  0  0  0
   22.5879  -19.5160  -13.5061 N   0  0  0  0  0  0  0  0  0  0  0  0
   20.6976  -21.0278  -13.6935 C   0  0  0  0  0  0  0  0  0  0  0  0
   20.6123  -20.5768  -14.8583 O   0  0  0  0  0  0  0  0  0  0  0  0
   19.9421  -22.1288  -13.3188 N   0  0  0  0  0  0  0  0  0  0  0  0
   19.0776  -22.9141  -14.2462 C   0  0  1  0  0  0  0  0  0  0  0  0
   19.1903  -24.3365  -13.8953 C   0  0  0  0  0  0  0  0  0  0  0  0
   18.5347  -25.4301  -14.5541 C   0  0  0  0  0  0  0  0  0  0  0  0
   18.5223  -26.8211  -14.0986 C   0  0  0  0  0  0  0  0  0  0  0  0
   17.7253  -27.6064  -15.1982 C   0  0  0  0  0  0  0  0  0  0  0  0
   17.6251  -28.9944  -14.8348 N   0  0  0  0  0  0  0  0  0  0  0  0
   17.7515  -22.2965  -14.0714 C   0  0  0  0  0  0  0  0  0  0  0  0
   17.4726  -21.4695  -12.9748 O   0  0  0  0  0  0  0  0  0  0  0  0
   16.8158  -22.4629  -14.8625 O   0  0  0  0  0  0  0  0  0  0  0  0
  2  1  1  6
  2 13  1  0
  2  3  1  0
  3  4  1  0
  4  5  2  0
  6  5  1  0
  7  6  1  0
  8  7  2  0
  9  8  1  0
 10  9  2  0
 10 11  1  0
 11 12  2  0
 12  7  1  0
 12  4  1  0
 13 14  2  0
 17 16  1  1
 16 15  1  0
 18 17  1  0
 18 13  1  0
 19 20  2  0
 19 17  1  0
 21 19  1  0
 22 28  1  0
 22 21  1  0
 22 23  1  1
 24 23  1  0
 25 24  1  0
 26 27  1  0
 26 25  1  0
 28 29  1  0
 30 28  2  0
M  END
$$$$
