WSK.pdb
     RDKit          3D

 30 31  0  0  1  0  0  0  0  0999 V2000
   25.6473  -21.0494  -13.4901 N   0  0  0  0  0  0  0  0  0  0  0  0
   24.8392  -19.9590  -12.9928 C   0  0  1  0  0  0  0  0  0  0  0  0
   25.3072  -19.6430  -11.5781 C   0  0  0  0  0  0  0  0  0  0  0  0
   26.2889  -20.6629  -11.1386 C   0  0  0  0  0  0  0  0  0  0  0  0
   26.0319  -21.8484  -10.4815 C   0  0  0  0  0  0  0  0  0  0  0  0
   27.1854  -22.4996  -10.2629 N   0  0  0  0  0  0  0  0  0  0  0  0
   28.2234  -21.7850  -10.7559 C   0  0  0  0  0  0  0  0  0  0  0  0
   29.5817  -22.0059  -10.7870 C   0  0  0  0  0  0  0  0  0  0  0  0
   30.3887  -21.0611  -11.3753 C   0  0  0  0  0  0  0  0  0  0  0  0
   29.8626  -19.9019  -11.9319 C   0  0  0  0  0  0  0  0  0  0  0  0
   28.5004  -19.7075  -11.8865 C   0  0  0  0  0  0  0  0  0  0  0  0
   27.6622  -20.6337  -11.3047 C   0  0  0  0  0  0  0  0  0  0  0  0
   24.9978  -18.7970  -13.8826 C   0  0  0  0  0  0  0  0  0  0  0  0
   24.3859  -17.7336  -13.6187 O   0  0  0  0  0  0  0  0  0  0  0  0
   27.9826  -18.6601  -16.3914 O   0  0  0  0  0  0  0  0  0  0  0  0
   27.4172  -17.4211  -16.1289 C   0  0  0  0  0  0  0  0  0  0  0  0
   25.9169  -17.6648  -15.9037 C   0  0  2  0  0  0  0  0  0  0  0  0
   25.8232  -18.8177  -15.0477 N   0  0  0  0  0  0  0  0  0  0  0  0
   25.3667  -17.9500  -17.2686 C   0  0  0  0  0  0  0  0  0  0  0  0
   25.4986  -19.1231  -17.6856 O   0  0  0  0  0  0  0  0  0  0  0  0
   24.7391  -16.9990  -18.0593 N   0  0  0  0  0  0  0  0  0  0  0  0
   24.2113  -17.2565  -19.4302 C   0  0  1  0  0  0  0  0  0  0  0  0
   22.7500  -17.1047  -19.4026 C   0  0  0  0  0  0  0  0  0  0  0  0
   22.0238  -15.9267  -19.0225 C   0  0  0  0  0  0  0  0  0  0  0  0
   20.5710  -15.7593  -19.0829 C   0  0  0  0  0  0  0  0  0  0  0  0
   20.3079  -14.2831  -18.6219 C   0  0  0  0  0  0  0  0  0  0  0  0
   18.8928  -14.0369  -18.5472 N   0  0  0  0  0  0  0  0  0  0  0  0
   24.9569  -16.2958  -20.2618 C   0  0  0  0  0  0  0  0  0  0  0  0
   25.8190  -15.3517  -19.6877 O   0  0  0  0  0  0  0  0  0  0  0  0
   24.8737  -16.2582  -21.4951 O   0  0  0  0  0  0  0  0  0  0  0  0
  2  1  1  6
  2 13  1  0
  2  3  1  0
  3  4  1  0
  4  5  2  0
  6  5  1  0
  7  6  1  0
  8  7  2  0
  9  8  1  0
 10  9  2  0
 10 11  1  0
 11 12  2  0
 12  7  1  0
 12  4  1  0
 13 14  2  0
 17 16  1  6
 16 15  1  0
 18 17  1  0
 18 13  1  0
 19 20  2  0
 19 17  1  0
 21 19  1  0
 22 28  1  0
 22 21  1  0
 22 23  1  1
 24 23  1  0
 25 24  1  0
 26 27  1  0
 26 25  1  0
 28 29  1  0
 30 28  2  0
M  END
$$$$
