WSK.pdb
     RDKit          3D

 30 31  0  0  1  0  0  0  0  0999 V2000
   16.2011  -13.9546    7.0545 N   0  0  0  0  0  0  0  0  0  0  0  0
   16.0640  -15.2834    6.5024 C   0  0  1  0  0  0  0  0  0  0  0  0
   17.4311  -15.7144    5.9871 C   0  0  0  0  0  0  0  0  0  0  0  0
   17.6780  -15.1045    4.6588 C   0  0  0  0  0  0  0  0  0  0  0  0
   17.9038  -13.7737    4.3741 C   0  0  0  0  0  0  0  0  0  0  0  0
   18.0898  -13.6227    3.0531 N   0  0  0  0  0  0  0  0  0  0  0  0
   17.9959  -14.8204    2.4304 C   0  0  0  0  0  0  0  0  0  0  0  0
   18.1045  -15.2017    1.1122 C   0  0  0  0  0  0  0  0  0  0  0  0
   17.9522  -16.5312    0.7972 C   0  0  0  0  0  0  0  0  0  0  0  0
   17.6938  -17.4839    1.7747 C   0  0  0  0  0  0  0  0  0  0  0  0
   17.5905  -17.0739    3.0849 C   0  0  0  0  0  0  0  0  0  0  0  0
   17.7376  -15.7495    3.4362 C   0  0  0  0  0  0  0  0  0  0  0  0
   15.5749  -16.1929    7.5515 C   0  0  0  0  0  0  0  0  0  0  0  0
   16.2270  -16.3076    8.6175 O   0  0  0  0  0  0  0  0  0  0  0  0
   12.4908  -16.4654    9.3255 O   0  0  0  0  0  0  0  0  0  0  0  0
   12.5584  -17.7232    8.7450 C   0  0  0  0  0  0  0  0  0  0  0  0
   14.0348  -17.9626    8.3927 C   0  0  2  0  0  0  0  0  0  0  0  0
   14.3800  -16.9631    7.4167 N   0  0  0  0  0  0  0  0  0  0  0  0
   14.0684  -19.3397    7.8018 C   0  0  0  0  0  0  0  0  0  0  0  0
   13.6905  -19.4422    6.6127 O   0  0  0  0  0  0  0  0  0  0  0  0
   14.4875  -20.4648    8.4960 N   0  0  0  0  0  0  0  0  0  0  0  0
   14.5510  -21.8381    7.9179 C   0  0  1  0  0  0  0  0  0  0  0  0
   15.8191  -21.9781    7.1888 C   0  0  0  0  0  0  0  0  0  0  0  0
   16.0759  -22.8656    6.0906 C   0  0  0  0  0  0  0  0  0  0  0  0
   17.3390  -22.9813    5.3601 C   0  0  0  0  0  0  0  0  0  0  0  0
   17.0873  -24.0877    4.2769 C   0  0  0  0  0  0  0  0  0  0  0  0
   18.2776  -24.2893    3.4951 N   0  0  0  0  0  0  0  0  0  0  0  0
   14.3696  -22.7055    9.0948 C   0  0  0  0  0  0  0  0  0  0  0  0
   13.9070  -24.0220    8.9643 O   0  0  0  0  0  0  0  0  0  0  0  0
   14.6075  -22.3384   10.2515 O   0  0  0  0  0  0  0  0  0  0  0  0
  2  1  1  1
  2 13  1  0
  2  3  1  0
  3  4  1  0
  4  5  2  0
  6  5  1  0
  7  6  1  0
  8  7  2  0
  9  8  1  0
 10  9  2  0
 10 11  1  0
 11 12  2  0
 12  7  1  0
 12  4  1  0
 13 14  2  0
 17 16  1  6
 16 15  1  0
 18 17  1  0
 18 13  1  0
 19 20  2  0
 19 17  1  0
 21 19  1  0
 22 28  1  0
 22 21  1  0
 22 23  1  1
 24 23  1  0
 25 24  1  0
 26 27  1  0
 26 25  1  0
 28 29  1  0
 30 28  2  0
M  END
$$$$
