WSK.pdb
     RDKit          3D

 30 31  0  0  1  0  0  0  0  0999 V2000
   24.6234  -19.4382  -10.7643 N   0  0  0  0  0  0  0  0  0  0  0  0
   25.8514  -20.1126  -11.1200 C   0  0  1  0  0  0  0  0  0  0  0  0
   26.0628  -21.2458  -10.1244 C   0  0  0  0  0  0  0  0  0  0  0  0
   26.3137  -20.6841   -8.7758 C   0  0  0  0  0  0  0  0  0  0  0  0
   25.3782  -20.2581   -7.8557 C   0  0  0  0  0  0  0  0  0  0  0  0
   26.0027  -19.8206   -6.7506 N   0  0  0  0  0  0  0  0  0  0  0  0
   27.3428  -19.9384   -6.8963 C   0  0  0  0  0  0  0  0  0  0  0  0
   28.4045  -19.6370   -6.0736 C   0  0  0  0  0  0  0  0  0  0  0  0
   29.6789  -19.8803   -6.5282 C   0  0  0  0  0  0  0  0  0  0  0  0
   29.9100  -20.4186   -7.7879 C   0  0  0  0  0  0  0  0  0  0  0  0
   28.8291  -20.7104   -8.5892 C   0  0  0  0  0  0  0  0  0  0  0  0
   27.5383  -20.4794   -8.1655 C   0  0  0  0  0  0  0  0  0  0  0  0
   25.7401  -20.6216  -12.4968 C   0  0  0  0  0  0  0  0  0  0  0  0
   24.6106  -20.9320  -12.9472 O   0  0  0  0  0  0  0  0  0  0  0  0
   28.9099  -21.8597  -14.7718 O   0  0  0  0  0  0  0  0  0  0  0  0
   28.0711  -20.9536  -15.4036 C   0  0  0  0  0  0  0  0  0  0  0  0
   26.6894  -21.1084  -14.7491 C   0  0  2  0  0  0  0  0  0  0  0  0
   26.8671  -20.7837  -13.3586 N   0  0  0  0  0  0  0  0  0  0  0  0
   26.3387  -22.5540  -14.9336 C   0  0  0  0  0  0  0  0  0  0  0  0
   26.6838  -23.3300  -14.0136 O   0  0  0  0  0  0  0  0  0  0  0  0
   25.6702  -23.0480  -16.0437 N   0  0  0  0  0  0  0  0  0  0  0  0
   25.2805  -24.4757  -16.2279 C   0  0  1  0  0  0  0  0  0  0  0  0
   23.8144  -24.5544  -16.2857 C   0  0  0  0  0  0  0  0  0  0  0  0
   23.0118  -25.7080  -15.9945 C   0  0  0  0  0  0  0  0  0  0  0  0
   22.6473  -26.1827  -14.6588 C   0  0  0  0  0  0  0  0  0  0  0  0
   21.7986  -27.4796  -14.9011 C   0  0  0  0  0  0  0  0  0  0  0  0
   21.4754  -28.0972  -13.6430 N   0  0  0  0  0  0  0  0  0  0  0  0
   26.0089  -24.8669  -17.4473 C   0  0  0  0  0  0  0  0  0  0  0  0
   26.3295  -26.2066  -17.7054 O   0  0  0  0  0  0  0  0  0  0  0  0
   26.3787  -24.0575  -18.3060 O   0  0  0  0  0  0  0  0  0  0  0  0
  2  1  1  1
  2 13  1  0
  2  3  1  0
  3  4  1  0
  4  5  2  0
  6  5  1  0
  7  6  1  0
  8  7  2  0
  9  8  1  0
 10  9  2  0
 10 11  1  0
 11 12  2  0
 12  7  1  0
 12  4  1  0
 13 14  2  0
 17 16  1  6
 16 15  1  0
 18 17  1  0
 18 13  1  0
 19 20  2  0
 19 17  1  0
 21 19  1  0
 22 28  1  0
 22 21  1  0
 22 23  1  6
 24 23  1  0
 25 24  1  0
 26 27  1  0
 26 25  1  0
 28 29  1  0
 30 28  2  0
M  END
$$$$
