WSK.pdb
     RDKit          3D

 30 31  0  0  1  0  0  0  0  0999 V2000
   22.6500  -21.8373  -15.5448 N   0  0  0  0  0  0  0  0  0  0  0  0
   21.3640  -22.4772  -15.7062 C   0  0  1  0  0  0  0  0  0  0  0  0
   21.5218  -23.5784  -16.7468 C   0  0  0  0  0  0  0  0  0  0  0  0
   21.8454  -22.9777  -18.0627 C   0  0  0  0  0  0  0  0  0  0  0  0
   23.0890  -22.8533  -18.6466 C   0  0  0  0  0  0  0  0  0  0  0  0
   22.9651  -22.2594  -19.8443 N   0  0  0  0  0  0  0  0  0  0  0  0
   21.6651  -21.9760  -20.0904 C   0  0  0  0  0  0  0  0  0  0  0  0
   21.0208  -21.3812  -21.1515 C   0  0  0  0  0  0  0  0  0  0  0  0
   19.6551  -21.2348  -21.0937 C   0  0  0  0  0  0  0  0  0  0  0  0
   18.9239  -21.6716  -19.9962 C   0  0  0  0  0  0  0  0  0  0  0  0
   19.5946  -22.2630  -18.9494 C   0  0  0  0  0  0  0  0  0  0  0  0
   20.9628  -22.4258  -18.9741 C   0  0  0  0  0  0  0  0  0  0  0  0
   20.9312  -23.0226  -14.4092 C   0  0  0  0  0  0  0  0  0  0  0  0
   21.7956  -23.4228  -13.5921 O   0  0  0  0  0  0  0  0  0  0  0  0
   17.1222  -23.0063  -13.6223 O   0  0  0  0  0  0  0  0  0  0  0  0
   17.8011  -23.1767  -12.4249 C   0  0  0  0  0  0  0  0  0  0  0  0
   19.1840  -23.7421  -12.7840 C   0  0  2  0  0  0  0  0  0  0  0  0
   19.5588  -23.1223  -14.0274 N   0  0  0  0  0  0  0  0  0  0  0  0
   18.9633  -25.2152  -12.9509 C   0  0  0  0  0  0  0  0  0  0  0  0
   18.8083  -25.6231  -14.1244 O   0  0  0  0  0  0  0  0  0  0  0  0
   18.9260  -26.1123  -11.8940 N   0  0  0  0  0  0  0  0  0  0  0  0
   18.6691  -27.5744  -12.0368 C   0  0  1  0  0  0  0  0  0  0  0  0
   18.9771  -28.2284  -10.7575 C   0  0  0  0  0  0  0  0  0  0  0  0
   18.9062  -29.6351  -10.4820 C   0  0  0  0  0  0  0  0  0  0  0  0
   19.0905  -30.2617   -9.1721 C   0  0  0  0  0  0  0  0  0  0  0  0
   18.8471  -31.7928   -9.4112 C   0  0  0  0  0  0  0  0  0  0  0  0
   19.0343  -32.5175   -8.1829 N   0  0  0  0  0  0  0  0  0  0  0  0
   17.2651  -27.6258  -12.4806 C   0  0  0  0  0  0  0  0  0  0  0  0
   16.8240  -28.5981  -13.3886 O   0  0  0  0  0  0  0  0  0  0  0  0
   16.4007  -26.8319  -12.0911 O   0  0  0  0  0  0  0  0  0  0  0  0
  2  1  1  1
  2 13  1  0
  2  3  1  0
  3  4  1  0
  4  5  2  0
  6  5  1  0
  7  6  1  0
  8  7  2  0
  9  8  1  0
 10  9  2  0
 10 11  1  0
 11 12  2  0
 12  7  1  0
 12  4  1  0
 13 14  2  0
 17 16  1  6
 16 15  1  0
 18 17  1  0
 18 13  1  0
 19 20  2  0
 19 17  1  0
 21 19  1  0
 22 28  1  0
 22 21  1  0
 22 23  1  1
 24 23  1  0
 25 24  1  0
 26 27  1  0
 26 25  1  0
 28 29  1  0
 30 28  2  0
M  END
$$$$
