WSK.pdb
     RDKit          3D

 30 31  0  0  1  0  0  0  0  0999 V2000
   26.5759  -20.5316  -12.9743 N   0  0  0  0  0  0  0  0  0  0  0  0
   25.5873  -21.1327  -12.1079 C   0  0  1  0  0  0  0  0  0  0  0  0
   25.7723  -20.5440  -10.7153 C   0  0  0  0  0  0  0  0  0  0  0  0
   27.0891  -20.9539  -10.1719 C   0  0  0  0  0  0  0  0  0  0  0  0
   28.1440  -21.5163  -10.8603 C   0  0  0  0  0  0  0  0  0  0  0  0
   29.1635  -21.7388  -10.0156 N   0  0  0  0  0  0  0  0  0  0  0  0
   28.8278  -21.3409   -8.7666 C   0  0  0  0  0  0  0  0  0  0  0  0
   29.5024  -21.3528   -7.5668 C   0  0  0  0  0  0  0  0  0  0  0  0
   28.8663  -20.8659   -6.4495 C   0  0  0  0  0  0  0  0  0  0  0  0
   27.5706  -20.3684   -6.5106 C   0  0  0  0  0  0  0  0  0  0  0  0
   26.9202  -20.3687   -7.7240 C   0  0  0  0  0  0  0  0  0  0  0  0
   27.5277  -20.8490   -8.8639 C   0  0  0  0  0  0  0  0  0  0  0  0
   24.2442  -20.8458  -12.6376 C   0  0  0  0  0  0  0  0  0  0  0  0
   23.9978  -19.7063  -13.1021 O   0  0  0  0  0  0  0  0  0  0  0  0
   22.3014  -21.5629  -14.9819 O   0  0  0  0  0  0  0  0  0  0  0  0
   21.6013  -20.7721  -14.0828 C   0  0  0  0  0  0  0  0  0  0  0  0
   21.8141  -21.3964  -12.6949 C   0  0  2  0  0  0  0  0  0  0  0  0
   23.1914  -21.8106  -12.6498 N   0  0  0  0  0  0  0  0  0  0  0  0
   20.8867  -22.5734  -12.6588 C   0  0  0  0  0  0  0  0  0  0  0  0
   21.2699  -23.6000  -13.2644 O   0  0  0  0  0  0  0  0  0  0  0  0
   19.6644  -22.5701  -12.0035 N   0  0  0  0  0  0  0  0  0  0  0  0
   18.7982  -23.7712  -11.8272 C   0  0  1  0  0  0  0  0  0  0  0  0
   17.9786  -23.5814  -10.6225 C   0  0  0  0  0  0  0  0  0  0  0  0
   18.2378  -24.1297   -9.3218 C   0  0  0  0  0  0  0  0  0  0  0  0
   17.3538  -24.0316   -8.1593 C   0  0  0  0  0  0  0  0  0  0  0  0
   18.0963  -24.8026   -7.0124 C   0  0  0  0  0  0  0  0  0  0  0  0
   17.3310  -24.7301   -5.7967 N   0  0  0  0  0  0  0  0  0  0  0  0
   18.0753  -23.8535  -13.1083 C   0  0  0  0  0  0  0  0  0  0  0  0
   17.7458  -25.0900  -13.6799 O   0  0  0  0  0  0  0  0  0  0  0  0
   17.7190  -22.8593  -13.7516 O   0  0  0  0  0  0  0  0  0  0  0  0
  2  1  1  6
  2 13  1  0
  2  3  1  0
  3  4  1  0
  4  5  2  0
  6  5  1  0
  7  6  1  0
  8  7  2  0
  9  8  1  0
 10  9  2  0
 10 11  1  0
 11 12  2  0
 12  7  1  0
 12  4  1  0
 13 14  2  0
 17 16  1  6
 16 15  1  0
 18 17  1  0
 18 13  1  0
 19 20  2  0
 19 17  1  0
 21 19  1  0
 22 28  1  0
 22 21  1  0
 22 23  1  1
 24 23  1  0
 25 24  1  0
 26 27  1  0
 26 25  1  0
 28 29  1  0
 30 28  2  0
M  END
$$$$
