QNK.pdb
     RDKit          3D

 27 26  0  0  1  0  0  0  0  0999 V2000
   12.0402  -14.2033   20.1596 N   0  0  0  0  0  0  0  0  0  0  0  0
   12.1130  -13.2955   19.0659 C   0  0  0  0  0  0  0  0  0  0  0  0
   13.2603  -12.9713   18.6777 O   0  0  0  0  0  0  0  0  0  0  0  0
   10.8605  -12.8160   18.4851 C   0  0  0  0  0  0  0  0  0  0  0  0
    9.6477  -13.5879   18.8727 C   0  0  0  0  0  0  0  0  0  0  0  0
    9.4511  -14.8921   18.1849 C   0  0  2  0  0  0  0  0  0  0  0  0
    8.2475  -14.9596   17.3940 N   0  0  0  0  0  0  0  0  0  0  0  0
    9.4874  -15.9594   19.2296 C   0  0  0  0  0  0  0  0  0  0  0  0
    8.4110  -16.2948   19.7844 O   0  0  0  0  0  0  0  0  0  0  0  0
    9.5202  -20.5598   19.7513 N   0  0  0  0  0  0  0  0  0  0  0  0
   10.5454  -19.6478   19.3894 C   0  0  0  0  0  0  0  0  0  0  0  0
   10.7777  -19.5112   18.1603 O   0  0  0  0  0  0  0  0  0  0  0  0
   11.3380  -18.8677   20.3357 C   0  0  0  0  0  0  0  0  0  0  0  0
   10.7469  -17.5569   20.7206 C   0  0  2  0  0  0  0  0  0  0  0  0
   10.6856  -16.6148   19.6262 N   0  0  0  0  0  0  0  0  0  0  0  0
   11.3802  -16.9627   21.9270 C   0  0  0  0  0  0  0  0  0  0  0  0
   12.4833  -16.3676   21.8262 O   0  0  0  0  0  0  0  0  0  0  0  0
   10.7942  -17.0328   23.2132 N   0  0  0  0  0  0  0  0  0  0  0  0
   11.4829  -16.4084   24.3744 C   0  0  1  0  0  0  0  0  0  0  0  0
   10.6906  -16.6746   25.6156 C   0  0  0  0  0  0  0  0  0  0  0  0
   11.4519  -16.2622   26.8371 C   0  0  0  0  0  0  0  0  0  0  0  0
   10.7000  -16.6419   28.1123 C   0  0  0  0  0  0  0  0  0  0  0  0
   11.4280  -16.1944   29.3349 C   0  0  0  0  0  0  0  0  0  0  0  0
   10.7585  -16.5471   30.5685 N   0  0  0  0  0  0  0  0  0  0  0  0
   12.8625  -16.8684   24.4387 C   0  0  0  0  0  0  0  0  0  0  0  0
   13.7867  -16.0105   24.6494 O   0  0  0  0  0  0  0  0  0  0  0  0
   13.2948  -18.1655   24.2966 O   0  0  0  0  0  0  0  0  0  0  0  0
  2  1  1  0
  3  2  2  0
  4  2  1  0
  5  4  1  0
  6  5  1  0
  6  7  1  1
  8  9  2  0
  8  6  1  0
 10 11  1  0
 11 13  1  0
 12 11  2  0
 14 13  1  6
 14 15  1  0
 15  8  1  0
 16 14  1  0
 16 18  1  0
 17 16  2  0
 18 19  1  0
 19 25  1  0
 20 21  1  0
 19 20  1  1
 22 21  1  0
 23 22  1  0
 24 23  1  0
 25 26  2  0
 25 27  1  0
M  END
$$$$
