QNK.pdb
     RDKit          3D

 27 26  0  0  1  0  0  0  0  0999 V2000
    8.1817  -13.7870   15.5397 N   0  0  0  0  0  0  0  0  0  0  0  0
    6.9527  -14.0432   16.2104 C   0  0  0  0  0  0  0  0  0  0  0  0
    6.0646  -14.6360   15.5532 O   0  0  0  0  0  0  0  0  0  0  0  0
    6.8208  -13.6015   17.5974 C   0  0  0  0  0  0  0  0  0  0  0  0
    7.9542  -12.7838   18.1109 C   0  0  0  0  0  0  0  0  0  0  0  0
    9.2465  -13.4961   18.2983 C   0  0  2  0  0  0  0  0  0  0  0  0
    9.6052  -14.3545   17.1969 N   0  0  0  0  0  0  0  0  0  0  0  0
    9.1590  -14.2524   19.5836 C   0  0  0  0  0  0  0  0  0  0  0  0
    8.7047  -13.6650   20.5973 O   0  0  0  0  0  0  0  0  0  0  0  0
    9.5845  -19.7026   22.2230 N   0  0  0  0  0  0  0  0  0  0  0  0
    9.0594  -18.3844   22.2040 C   0  0  0  0  0  0  0  0  0  0  0  0
    8.7296  -17.8872   23.3119 O   0  0  0  0  0  0  0  0  0  0  0  0
    8.8786  -17.5772   21.0006 C   0  0  0  0  0  0  0  0  0  0  0  0
    9.6354  -16.2956   20.9836 C   0  0  2  0  0  0  0  0  0  0  0  0
    9.5665  -15.6087   19.7137 N   0  0  0  0  0  0  0  0  0  0  0  0
   11.0363  -16.4387   21.4595 C   0  0  0  0  0  0  0  0  0  0  0  0
   11.7608  -17.3607   21.0054 O   0  0  0  0  0  0  0  0  0  0  0  0
   11.6118  -15.5722   22.4191 N   0  0  0  0  0  0  0  0  0  0  0  0
   12.4032  -16.1370   23.5448 C   0  0  1  0  0  0  0  0  0  0  0  0
   11.4915  -16.9079   24.4469 C   0  0  0  0  0  0  0  0  0  0  0  0
   12.2684  -17.6404   25.4964 C   0  0  0  0  0  0  0  0  0  0  0  0
   11.3614  -18.5549   26.3190 C   0  0  0  0  0  0  0  0  0  0  0  0
   12.1382  -19.3531   27.3112 C   0  0  0  0  0  0  0  0  0  0  0  0
   11.3134  -20.2031   28.1430 N   0  0  0  0  0  0  0  0  0  0  0  0
   13.5212  -16.9111   23.0257 C   0  0  0  0  0  0  0  0  0  0  0  0
   14.6944  -16.4051   23.0756 O   0  0  0  0  0  0  0  0  0  0  0  0
   13.4533  -18.1679   22.4729 O   0  0  0  0  0  0  0  0  0  0  0  0
  2  1  1  0
  3  2  2  0
  4  2  1  0
  5  4  1  0
  6  5  1  0
  6  7  1  6
  8  9  2  0
  8  6  1  0
 10 11  1  0
 11 13  1  0
 12 11  2  0
 14 13  1  6
 14 15  1  0
 15  8  1  0
 16 14  1  0
 16 18  1  0
 17 16  2  0
 18 19  1  0
 19 25  1  0
 20 21  1  0
 19 20  1  6
 22 21  1  0
 23 22  1  0
 24 23  1  0
 25 26  2  0
 25 27  1  0
M  END
$$$$
