QNK.pdb
     RDKit          3D

 27 26  0  0  1  0  0  0  0  0999 V2000
    8.9245  -15.2822   13.4694 N   0  0  0  0  0  0  0  0  0  0  0  0
    8.9056  -16.6997   13.5956 C   0  0  0  0  0  0  0  0  0  0  0  0
    8.3236  -17.3389   12.6874 O   0  0  0  0  0  0  0  0  0  0  0  0
    9.5583  -17.2957   14.7597 C   0  0  0  0  0  0  0  0  0  0  0  0
   10.0219  -16.3258   15.7899 C   0  0  0  0  0  0  0  0  0  0  0  0
   10.4881  -16.9072   17.0772 C   0  0  2  0  0  0  0  0  0  0  0  0
    9.6678  -17.9900   17.5601 N   0  0  0  0  0  0  0  0  0  0  0  0
   10.5721  -15.7922   18.0679 C   0  0  0  0  0  0  0  0  0  0  0  0
   11.5253  -14.9784   17.9782 O   0  0  0  0  0  0  0  0  0  0  0  0
    7.5794  -11.8312   18.9958 N   0  0  0  0  0  0  0  0  0  0  0  0
    7.8243  -13.2222   19.1335 C   0  0  0  0  0  0  0  0  0  0  0  0
    7.5094  -13.9546   18.1600 O   0  0  0  0  0  0  0  0  0  0  0  0
    8.4096  -13.8519   20.3139 C   0  0  0  0  0  0  0  0  0  0  0  0
    9.7083  -14.5408   20.0803 C   0  0  2  0  0  0  0  0  0  0  0  0
    9.6218  -15.6085   19.1099 N   0  0  0  0  0  0  0  0  0  0  0  0
   10.3665  -14.9869   21.3362 C   0  0  0  0  0  0  0  0  0  0  0  0
    9.6664  -15.3067   22.3305 O   0  0  0  0  0  0  0  0  0  0  0  0
   11.7721  -15.0729   21.4757 N   0  0  0  0  0  0  0  0  0  0  0  0
   12.3576  -15.8945   22.5688 C   0  0  1  0  0  0  0  0  0  0  0  0
   11.7570  -17.2644   22.5281 C   0  0  0  0  0  0  0  0  0  0  0  0
   12.2904  -18.1176   23.6368 C   0  0  0  0  0  0  0  0  0  0  0  0
   11.6251  -19.4934   23.6457 C   0  0  0  0  0  0  0  0  0  0  0  0
   12.1762  -20.3647   24.7237 C   0  0  0  0  0  0  0  0  0  0  0  0
   11.6408  -21.7093   24.7112 N   0  0  0  0  0  0  0  0  0  0  0  0
   13.8103  -15.8784   22.4776 C   0  0  0  0  0  0  0  0  0  0  0  0
   14.4942  -15.9720   23.5538 O   0  0  0  0  0  0  0  0  0  0  0  0
   14.5518  -15.7736   21.3249 O   0  0  0  0  0  0  0  0  0  0  0  0
  2  1  1  0
  3  2  2  0
  4  2  1  0
  5  4  1  0
  6  5  1  0
  6  7  1  1
  8  9  2  0
  8  6  1  0
 10 11  1  0
 11 13  1  0
 12 11  2  0
 14 13  1  1
 14 15  1  0
 15  8  1  0
 16 14  1  0
 16 18  1  0
 17 16  2  0
 18 19  1  0
 19 25  1  0
 20 21  1  0
 19 20  1  6
 22 21  1  0
 23 22  1  0
 24 23  1  0
 25 26  2  0
 25 27  1  0
M  END
$$$$
