QNK.pdb
     RDKit          3D

 27 26  0  0  1  0  0  0  0  0999 V2000
    8.3554  -13.1169   15.3294 N   0  0  0  0  0  0  0  0  0  0  0  0
    7.6659  -14.3143   15.6706 C   0  0  0  0  0  0  0  0  0  0  0  0
    7.3884  -15.0933   14.7281 O   0  0  0  0  0  0  0  0  0  0  0  0
    7.3377  -14.5426   17.0765 C   0  0  0  0  0  0  0  0  0  0  0  0
    7.6988  -13.4307   17.9985 C   0  0  0  0  0  0  0  0  0  0  0  0
    8.9812  -13.5798   18.7373 C   0  0  2  0  0  0  0  0  0  0  0  0
   10.0295  -14.2023   17.9678 N   0  0  0  0  0  0  0  0  0  0  0  0
    8.6903  -14.3380   19.9912 C   0  0  0  0  0  0  0  0  0  0  0  0
    7.5043  -14.3859   20.4036 O   0  0  0  0  0  0  0  0  0  0  0  0
    6.8525  -17.9109   18.9610 N   0  0  0  0  0  0  0  0  0  0  0  0
    7.6314  -17.4974   20.0728 C   0  0  0  0  0  0  0  0  0  0  0  0
    7.0215  -17.3132   21.1579 O   0  0  0  0  0  0  0  0  0  0  0  0
    9.0742  -17.2745   20.0421 C   0  0  0  0  0  0  0  0  0  0  0  0
    9.5985  -16.3993   21.1260 C   0  0  2  0  0  0  0  0  0  0  0  0
    9.6948  -15.0094   20.7413 N   0  0  0  0  0  0  0  0  0  0  0  0
   10.8677  -16.8988   21.7169 C   0  0  0  0  0  0  0  0  0  0  0  0
   10.9563  -18.0967   22.0890 O   0  0  0  0  0  0  0  0  0  0  0  0
   12.0084  -16.0789   21.8872 N   0  0  0  0  0  0  0  0  0  0  0  0
   13.3273  -16.6994   22.1840 C   0  0  1  0  0  0  0  0  0  0  0  0
   14.1907  -16.6233   20.9643 C   0  0  0  0  0  0  0  0  0  0  0  0
   14.2035  -15.2359   20.4015 C   0  0  0  0  0  0  0  0  0  0  0  0
   14.9879  -15.1774   19.0911 C   0  0  0  0  0  0  0  0  0  0  0  0
   14.9267  -13.8213   18.4728 C   0  0  0  0  0  0  0  0  0  0  0  0
   15.5603  -13.7487   17.1736 N   0  0  0  0  0  0  0  0  0  0  0  0
   13.9109  -16.0822   23.3661 C   0  0  0  0  0  0  0  0  0  0  0  0
   15.0749  -16.4544   23.7420 O   0  0  0  0  0  0  0  0  0  0  0  0
   13.3316  -15.1098   24.1460 O   0  0  0  0  0  0  0  0  0  0  0  0
  2  1  1  0
  3  2  2  0
  4  2  1  0
  5  4  1  0
  6  5  1  0
  6  7  1  6
  8  9  2  0
  8  6  1  0
 10 11  1  0
 11 13  1  0
 12 11  2  0
 14 13  1  6
 14 15  1  0
 15  8  1  0
 16 14  1  0
 16 18  1  0
 17 16  2  0
 18 19  1  0
 19 25  1  0
 20 21  1  0
 19 20  1  6
 22 21  1  0
 23 22  1  0
 24 23  1  0
 25 26  2  0
 25 27  1  0
M  END
$$$$
