QNK.pdb
     RDKit          3D

 27 26  0  0  1  0  0  0  0  0999 V2000
    8.4604  -12.9082   16.3550 N   0  0  0  0  0  0  0  0  0  0  0  0
    8.3101  -14.2787   16.7085 C   0  0  0  0  0  0  0  0  0  0  0  0
    7.3675  -14.9012   16.1644 O   0  0  0  0  0  0  0  0  0  0  0  0
    9.2543  -14.8496   17.6670 C   0  0  0  0  0  0  0  0  0  0  0  0
   10.3473  -13.9353   18.0987 C   0  0  0  0  0  0  0  0  0  0  0  0
   11.3452  -14.5042   19.0437 C   0  0  2  0  0  0  0  0  0  0  0  0
   11.7249  -15.8625   18.7444 N   0  0  0  0  0  0  0  0  0  0  0  0
   10.7805  -14.3782   20.4210 C   0  0  0  0  0  0  0  0  0  0  0  0
   11.1258  -13.3965   21.1252 O   0  0  0  0  0  0  0  0  0  0  0  0
    6.4016  -15.0975   20.6354 N   0  0  0  0  0  0  0  0  0  0  0  0
    6.9467  -14.9503   21.9372 C   0  0  0  0  0  0  0  0  0  0  0  0
    6.4737  -14.0286   22.6514 O   0  0  0  0  0  0  0  0  0  0  0  0
    8.0060  -15.7859   22.4959 C   0  0  0  0  0  0  0  0  0  0  0  0
    9.3839  -15.2468   22.3333 C   0  0  2  0  0  0  0  0  0  0  0  0
    9.8686  -15.3193   20.9735 N   0  0  0  0  0  0  0  0  0  0  0  0
   10.3549  -15.8262   23.2981 C   0  0  0  0  0  0  0  0  0  0  0  0
   10.1001  -15.8092   24.5293 O   0  0  0  0  0  0  0  0  0  0  0  0
   11.5797  -16.4097   22.8955 N   0  0  0  0  0  0  0  0  0  0  0  0
   12.4823  -17.0106   23.9137 C   0  0  1  0  0  0  0  0  0  0  0  0
   11.8533  -18.2570   24.4521 C   0  0  0  0  0  0  0  0  0  0  0  0
   12.7483  -18.9213   25.4518 C   0  0  0  0  0  0  0  0  0  0  0  0
   12.0528  -20.1108   26.1129 C   0  0  0  0  0  0  0  0  0  0  0  0
   12.8857  -20.7007   27.2007 C   0  0  0  0  0  0  0  0  0  0  0  0
   12.1870  -21.6907   27.9922 N   0  0  0  0  0  0  0  0  0  0  0  0
   13.8076  -17.2101   23.3456 C   0  0  0  0  0  0  0  0  0  0  0  0
   14.7475  -17.6208   24.1088 O   0  0  0  0  0  0  0  0  0  0  0  0
   14.1710  -17.0022   22.0362 O   0  0  0  0  0  0  0  0  0  0  0  0
  2  1  1  0
  3  2  2  0
  4  2  1  0
  5  4  1  0
  6  5  1  0
  6  7  1  6
  8  9  2  0
  8  6  1  0
 10 11  1  0
 11 13  1  0
 12 11  2  0
 14 13  1  6
 14 15  1  0
 15  8  1  0
 16 14  1  0
 16 18  1  0
 17 16  2  0
 18 19  1  0
 19 25  1  0
 20 21  1  0
 19 20  1  6
 22 21  1  0
 23 22  1  0
 24 23  1  0
 25 26  2  0
 25 27  1  0
M  END
$$$$
