QNK.pdb
     RDKit          3D

 27 26  0  0  1  0  0  0  0  0999 V2000
    6.3016  -13.3775   17.2456 N   0  0  0  0  0  0  0  0  0  0  0  0
    7.1618  -14.0872   16.3612 C   0  0  0  0  0  0  0  0  0  0  0  0
    6.6793  -14.4228   15.2537 O   0  0  0  0  0  0  0  0  0  0  0  0
    8.5258  -14.3674   16.8054 C   0  0  0  0  0  0  0  0  0  0  0  0
    8.8810  -13.8161   18.1422 C   0  0  0  0  0  0  0  0  0  0  0  0
   10.2480  -14.1275   18.6394 C   0  0  2  0  0  0  0  0  0  0  0  0
   10.9381  -15.1273   17.8631 N   0  0  0  0  0  0  0  0  0  0  0  0
   10.1226  -14.5290   20.0728 C   0  0  0  0  0  0  0  0  0  0  0  0
    9.2821  -13.9338   20.7928 O   0  0  0  0  0  0  0  0  0  0  0  0
    9.6449  -18.4404   20.5510 N   0  0  0  0  0  0  0  0  0  0  0  0
    8.8073  -17.6985   21.4238 C   0  0  0  0  0  0  0  0  0  0  0  0
    7.6272  -18.1110   21.5671 O   0  0  0  0  0  0  0  0  0  0  0  0
    9.2181  -16.5044   22.1570 C   0  0  0  0  0  0  0  0  0  0  0  0
   10.6409  -16.1094   21.9689 C   0  0  2  0  0  0  0  0  0  0  0  0
   10.9115  -15.5553   20.6618 N   0  0  0  0  0  0  0  0  0  0  0  0
   11.5981  -17.1910   22.3201 C   0  0  0  0  0  0  0  0  0  0  0  0
   11.3455  -17.9635   23.2797 O   0  0  0  0  0  0  0  0  0  0  0  0
   12.8071  -17.4027   21.6156 N   0  0  0  0  0  0  0  0  0  0  0  0
   14.0773  -16.8327   22.1392 C   0  0  1  0  0  0  0  0  0  0  0  0
   14.2300  -15.4315   21.6365 C   0  0  0  0  0  0  0  0  0  0  0  0
   14.2024  -15.3922   20.1400 C   0  0  0  0  0  0  0  0  0  0  0  0
   15.1530  -14.3260   19.5968 C   0  0  0  0  0  0  0  0  0  0  0  0
   15.0594  -14.2092   18.1127 C   0  0  0  0  0  0  0  0  0  0  0  0
   15.7298  -13.0421   17.5807 N   0  0  0  0  0  0  0  0  0  0  0  0
   14.1139  -16.9522   23.5894 C   0  0  0  0  0  0  0  0  0  0  0  0
   13.2776  -16.2777   24.2825 O   0  0  0  0  0  0  0  0  0  0  0  0
   14.9739  -17.7378   24.3194 O   0  0  0  0  0  0  0  0  0  0  0  0
  2  1  1  0
  3  2  2  0
  4  2  1  0
  5  4  1  0
  6  5  1  0
  6  7  1  6
  8  9  2  0
  8  6  1  0
 10 11  1  0
 11 13  1  0
 12 11  2  0
 14 13  1  6
 14 15  1  0
 15  8  1  0
 16 14  1  0
 16 18  1  0
 17 16  2  0
 18 19  1  0
 19 25  1  0
 20 21  1  0
 19 20  1  1
 22 21  1  0
 23 22  1  0
 24 23  1  0
 25 26  2  0
 25 27  1  0
M  END
$$$$
