QNK.pdb
     RDKit          3D

 27 26  0  0  1  0  0  0  0  0999 V2000
    7.2435  -12.5954   17.8839 N   0  0  0  0  0  0  0  0  0  0  0  0
    7.5181  -13.5491   16.8637 C   0  0  0  0  0  0  0  0  0  0  0  0
    7.7906  -13.0960   15.7268 O   0  0  0  0  0  0  0  0  0  0  0  0
    7.4627  -14.9670   17.2142 C   0  0  0  0  0  0  0  0  0  0  0  0
    7.7577  -15.2775   18.6402 C   0  0  0  0  0  0  0  0  0  0  0  0
    8.9362  -14.5897   19.2324 C   0  0  2  0  0  0  0  0  0  0  0  0
   10.0385  -14.4276   18.3174 N   0  0  0  0  0  0  0  0  0  0  0  0
    9.3364  -15.3558   20.4509 C   0  0  0  0  0  0  0  0  0  0  0  0
    8.4389  -15.7375   21.2431 O   0  0  0  0  0  0  0  0  0  0  0  0
   13.1163  -14.4596   21.1521 N   0  0  0  0  0  0  0  0  0  0  0  0
   13.4649  -15.7723   21.5633 C   0  0  0  0  0  0  0  0  0  0  0  0
   14.6916  -16.0506   21.5985 O   0  0  0  0  0  0  0  0  0  0  0  0
   12.5080  -16.8077   21.9432 C   0  0  0  0  0  0  0  0  0  0  0  0
   11.0843  -16.3734   21.9579 C   0  0  2  0  0  0  0  0  0  0  0  0
   10.6884  -15.6739   20.7566 N   0  0  0  0  0  0  0  0  0  0  0  0
   10.7172  -15.6178   23.1842 C   0  0  0  0  0  0  0  0  0  0  0  0
   10.8332  -14.3659   23.2064 O   0  0  0  0  0  0  0  0  0  0  0  0
   10.2328  -16.2470   24.3556 N   0  0  0  0  0  0  0  0  0  0  0  0
    9.5209  -15.4440   25.3856 C   0  0  1  0  0  0  0  0  0  0  0  0
    8.3732  -14.7298   24.7436 C   0  0  0  0  0  0  0  0  0  0  0  0
    7.6169  -13.9174   25.7484 C   0  0  0  0  0  0  0  0  0  0  0  0
    6.4935  -13.1220   25.0845 C   0  0  0  0  0  0  0  0  0  0  0  0
    5.7049  -12.3438   26.0833 C   0  0  0  0  0  0  0  0  0  0  0  0
    6.5191  -11.7221   27.1057 N   0  0  0  0  0  0  0  0  0  0  0  0
    9.1418  -16.2956   26.5036 C   0  0  0  0  0  0  0  0  0  0  0  0
    8.9772  -17.5462   26.2948 O   0  0  0  0  0  0  0  0  0  0  0  0
    8.9381  -15.8912   27.8015 O   0  0  0  0  0  0  0  0  0  0  0  0
  2  1  1  0
  3  2  2  0
  4  2  1  0
  5  4  1  0
  6  5  1  0
  6  7  1  6
  8  9  2  0
  8  6  1  0
 10 11  1  0
 11 13  1  0
 12 11  2  0
 14 13  1  6
 14 15  1  0
 15  8  1  0
 16 14  1  0
 16 18  1  0
 17 16  2  0
 18 19  1  0
 19 25  1  0
 20 21  1  0
 19 20  1  6
 22 21  1  0
 23 22  1  0
 24 23  1  0
 25 26  2  0
 25 27  1  0
M  END
$$$$
