QNK.pdb
     RDKit          3D

 27 26  0  0  1  0  0  0  0  0999 V2000
    8.8892  -13.5990   16.1466 N   0  0  0  0  0  0  0  0  0  0  0  0
    7.5866  -13.8998   16.6351 C   0  0  0  0  0  0  0  0  0  0  0  0
    6.8066  -14.4781   15.8419 O   0  0  0  0  0  0  0  0  0  0  0  0
    7.2611  -13.5168   18.0075 C   0  0  0  0  0  0  0  0  0  0  0  0
    8.3292  -12.7675   18.7250 C   0  0  0  0  0  0  0  0  0  0  0  0
    9.4523  -13.5797   19.2650 C   0  0  2  0  0  0  0  0  0  0  0  0
   10.1068  -14.4011   18.2772 N   0  0  0  0  0  0  0  0  0  0  0  0
    8.9126  -14.3959   20.3938 C   0  0  0  0  0  0  0  0  0  0  0  0
    8.2117  -13.8257   21.2670 O   0  0  0  0  0  0  0  0  0  0  0  0
    6.3867  -17.0107   19.8437 N   0  0  0  0  0  0  0  0  0  0  0  0
    7.1551  -18.1001   20.3301 C   0  0  0  0  0  0  0  0  0  0  0  0
    6.8148  -19.2506   19.9509 O   0  0  0  0  0  0  0  0  0  0  0  0
    8.2990  -17.9766   21.2292 C   0  0  0  0  0  0  0  0  0  0  0  0
    8.6426  -16.5825   21.6218 C   0  0  2  0  0  0  0  0  0  0  0  0
    9.1554  -15.7909   20.5265 N   0  0  0  0  0  0  0  0  0  0  0  0
    9.5259  -16.5130   22.8153 C   0  0  0  0  0  0  0  0  0  0  0  0
   10.7713  -16.6221   22.6797 O   0  0  0  0  0  0  0  0  0  0  0  0
    9.0283  -16.3265   24.1269 N   0  0  0  0  0  0  0  0  0  0  0  0
    9.9712  -16.2877   25.2767 C   0  0  1  0  0  0  0  0  0  0  0  0
    9.3766  -15.4576   26.3706 C   0  0  0  0  0  0  0  0  0  0  0  0
   10.2724  -15.4289   27.5699 C   0  0  0  0  0  0  0  0  0  0  0  0
    9.6578  -14.6040   28.7002 C   0  0  0  0  0  0  0  0  0  0  0  0
   10.5711  -14.5145   29.8761 C   0  0  0  0  0  0  0  0  0  0  0  0
   10.0566  -13.6876   30.9467 N   0  0  0  0  0  0  0  0  0  0  0  0
   10.3183  -17.6428   25.6793 C   0  0  0  0  0  0  0  0  0  0  0  0
    9.4336  -18.5600   25.5754 O   0  0  0  0  0  0  0  0  0  0  0  0
   11.5323  -18.0593   26.1714 O   0  0  0  0  0  0  0  0  0  0  0  0
  2  1  1  0
  3  2  2  0
  4  2  1  0
  5  4  1  0
  6  5  1  0
  6  7  1  6
  8  9  2  0
  8  6  1  0
 10 11  1  0
 11 13  1  0
 12 11  2  0
 14 13  1  6
 14 15  1  0
 15  8  1  0
 16 14  1  0
 16 18  1  0
 17 16  2  0
 18 19  1  0
 19 25  1  0
 20 21  1  0
 19 20  1  1
 22 21  1  0
 23 22  1  0
 24 23  1  0
 25 26  2  0
 25 27  1  0
M  END
$$$$
