QNK.pdb
     RDKit          3D

 27 26  0  0  1  0  0  0  0  0999 V2000
    8.8785  -12.4073   17.9176 N   0  0  0  0  0  0  0  0  0  0  0  0
    8.3374  -13.6406   17.4571 C   0  0  0  0  0  0  0  0  0  0  0  0
    7.9963  -13.6916   16.2517 O   0  0  0  0  0  0  0  0  0  0  0  0
    8.2221  -14.7408   18.4124 C   0  0  0  0  0  0  0  0  0  0  0  0
    8.6673  -14.4244   19.7976 C   0  0  0  0  0  0  0  0  0  0  0  0
    8.4344  -15.4795   20.8199 C   0  0  2  0  0  0  0  0  0  0  0  0
    7.1065  -16.0400   20.7886 N   0  0  0  0  0  0  0  0  0  0  0  0
    8.7545  -14.8888   22.1542 C   0  0  0  0  0  0  0  0  0  0  0  0
    9.9443  -14.5682   22.4003 O   0  0  0  0  0  0  0  0  0  0  0  0
    8.6541  -12.9776   27.0586 N   0  0  0  0  0  0  0  0  0  0  0  0
    7.4478  -12.7140   26.3593 C   0  0  0  0  0  0  0  0  0  0  0  0
    6.6393  -11.9156   26.9000 O   0  0  0  0  0  0  0  0  0  0  0  0
    7.0869  -13.2997   25.0713 C   0  0  0  0  0  0  0  0  0  0  0  0
    8.0972  -14.2309   24.4987 C   0  0  2  0  0  0  0  0  0  0  0  0
    7.7736  -14.6720   23.1609 N   0  0  0  0  0  0  0  0  0  0  0  0
    8.4133  -15.3728   25.3963 C   0  0  0  0  0  0  0  0  0  0  0  0
    7.5461  -16.2571   25.6134 O   0  0  0  0  0  0  0  0  0  0  0  0
    9.6676  -15.5212   26.0346 N   0  0  0  0  0  0  0  0  0  0  0  0
    9.9342  -16.7226   26.8702 C   0  0  1  0  0  0  0  0  0  0  0  0
   10.8731  -17.6299   26.1392 C   0  0  0  0  0  0  0  0  0  0  0  0
   11.1728  -18.8550   26.9459 C   0  0  0  0  0  0  0  0  0  0  0  0
   12.1998  -19.7426   26.2437 C   0  0  0  0  0  0  0  0  0  0  0  0
   12.2806  -21.0936   26.8709 C   0  0  0  0  0  0  0  0  0  0  0  0
   13.3717  -21.9006   26.3680 N   0  0  0  0  0  0  0  0  0  0  0  0
   10.4031  -16.3165   28.1871 C   0  0  0  0  0  0  0  0  0  0  0  0
    9.9888  -16.9592   29.2117 O   0  0  0  0  0  0  0  0  0  0  0  0
   11.2728  -15.2873   28.4591 O   0  0  0  0  0  0  0  0  0  0  0  0
  2  1  1  0
  3  2  2  0
  4  2  1  0
  5  4  1  0
  6  5  1  0
  6  7  1  1
  8  9  2  0
  8  6  1  0
 10 11  1  0
 11 13  1  0
 12 11  2  0
 14 13  1  1
 14 15  1  0
 15  8  1  0
 16 14  1  0
 16 18  1  0
 17 16  2  0
 18 19  1  0
 19 25  1  0
 20 21  1  0
 19 20  1  6
 22 21  1  0
 23 22  1  0
 24 23  1  0
 25 26  2  0
 25 27  1  0
M  END
$$$$
