QNK.pdb
     RDKit          3D

 27 26  0  0  1  0  0  0  0  0999 V2000
    7.2802  -12.1538   17.7115 N   0  0  0  0  0  0  0  0  0  0  0  0
    7.2735  -13.4850   17.2078 C   0  0  0  0  0  0  0  0  0  0  0  0
    6.5766  -13.6982   16.1875 O   0  0  0  0  0  0  0  0  0  0  0  0
    8.0697  -14.4902   17.9092 C   0  0  0  0  0  0  0  0  0  0  0  0
    8.7115  -14.0221   19.1685 C   0  0  0  0  0  0  0  0  0  0  0  0
   10.0031  -14.6671   19.5269 C   0  0  2  0  0  0  0  0  0  0  0  0
   10.6736  -15.2902   18.4131 N   0  0  0  0  0  0  0  0  0  0  0  0
    9.7271  -15.6435   20.6233 C   0  0  0  0  0  0  0  0  0  0  0  0
    9.0765  -15.2546   21.6255 O   0  0  0  0  0  0  0  0  0  0  0  0
    8.8255  -21.4925   21.9219 N   0  0  0  0  0  0  0  0  0  0  0  0
    9.6570  -20.3711   22.1764 C   0  0  0  0  0  0  0  0  0  0  0  0
   10.0986  -20.2443   23.3478 O   0  0  0  0  0  0  0  0  0  0  0  0
   10.0293  -19.3679   21.1828 C   0  0  0  0  0  0  0  0  0  0  0  0
    9.8627  -17.9555   21.6223 C   0  0  2  0  0  0  0  0  0  0  0  0
   10.1672  -16.9954   20.5858 N   0  0  0  0  0  0  0  0  0  0  0  0
   10.5800  -17.6495   22.8877 C   0  0  0  0  0  0  0  0  0  0  0  0
   11.8341  -17.5570   22.8898 O   0  0  0  0  0  0  0  0  0  0  0  0
    9.9113  -17.4520   24.1191 N   0  0  0  0  0  0  0  0  0  0  0  0
   10.6771  -17.0027   25.3125 C   0  0  1  0  0  0  0  0  0  0  0  0
    9.8314  -16.0622   26.1122 C   0  0  0  0  0  0  0  0  0  0  0  0
   10.5348  -15.6412   27.3651 C   0  0  0  0  0  0  0  0  0  0  0  0
    9.6671  -14.6966   28.1961 C   0  0  0  0  0  0  0  0  0  0  0  0
   10.3692  -14.2499   29.4341 C   0  0  0  0  0  0  0  0  0  0  0  0
    9.5877  -13.3426   30.2470 N   0  0  0  0  0  0  0  0  0  0  0  0
   11.1530  -18.1576   26.0600 C   0  0  0  0  0  0  0  0  0  0  0  0
   12.2907  -18.0879   26.6392 O   0  0  0  0  0  0  0  0  0  0  0  0
   10.4916  -19.3520   26.2197 O   0  0  0  0  0  0  0  0  0  0  0  0
  2  1  1  0
  3  2  2  0
  4  2  1  0
  5  4  1  0
  6  5  1  0
  6  7  1  6
  8  9  2  0
  8  6  1  0
 10 11  1  0
 11 13  1  0
 12 11  2  0
 14 13  1  6
 14 15  1  0
 15  8  1  0
 16 14  1  0
 16 18  1  0
 17 16  2  0
 18 19  1  0
 19 25  1  0
 20 21  1  0
 19 20  1  1
 22 21  1  0
 23 22  1  0
 24 23  1  0
 25 26  2  0
 25 27  1  0
M  END
$$$$
