QNK.pdb
     RDKit          3D

 27 26  0  0  1  0  0  0  0  0999 V2000
    8.8809  -12.7895   15.8289 N   0  0  0  0  0  0  0  0  0  0  0  0
    7.9546  -13.6544   16.4766 C   0  0  0  0  0  0  0  0  0  0  0  0
    7.6734  -14.7238   15.8854 O   0  0  0  0  0  0  0  0  0  0  0  0
    7.4083  -13.2360   17.7660 C   0  0  0  0  0  0  0  0  0  0  0  0
    8.3205  -13.4194   18.9285 C   0  0  0  0  0  0  0  0  0  0  0  0
    8.7449  -14.8155   19.2170 C   0  0  2  0  0  0  0  0  0  0  0  0
    7.7199  -15.7997   18.9731 N   0  0  0  0  0  0  0  0  0  0  0  0
    9.2244  -14.8548   20.6313 C   0  0  0  0  0  0  0  0  0  0  0  0
   10.1572  -14.0847   20.9717 O   0  0  0  0  0  0  0  0  0  0  0  0
    9.5300  -15.1488   26.1722 N   0  0  0  0  0  0  0  0  0  0  0  0
    8.7201  -15.9890   25.3649 C   0  0  0  0  0  0  0  0  0  0  0  0
    8.3918  -17.1018   25.8521 O   0  0  0  0  0  0  0  0  0  0  0  0
    8.2484  -15.6529   24.0245 C   0  0  0  0  0  0  0  0  0  0  0  0
    9.2355  -15.8830   22.9344 C   0  0  2  0  0  0  0  0  0  0  0  0
    8.6734  -15.7246   21.6123 N   0  0  0  0  0  0  0  0  0  0  0  0
    9.9692  -17.1683   23.0731 C   0  0  0  0  0  0  0  0  0  0  0  0
    9.7018  -18.1277   22.3055 O   0  0  0  0  0  0  0  0  0  0  0  0
   10.9761  -17.3747   24.0457 N   0  0  0  0  0  0  0  0  0  0  0  0
   11.9856  -18.4492   23.8483 C   0  0  1  0  0  0  0  0  0  0  0  0
   12.6753  -18.2391   22.5371 C   0  0  0  0  0  0  0  0  0  0  0  0
   13.6874  -19.3132   22.2848 C   0  0  0  0  0  0  0  0  0  0  0  0
   14.4671  -19.0477   20.9975 C   0  0  0  0  0  0  0  0  0  0  0  0
   15.4194  -20.1545   20.6922 C   0  0  0  0  0  0  0  0  0  0  0  0
   16.1762  -19.9476   19.4760 N   0  0  0  0  0  0  0  0  0  0  0  0
   12.8844  -18.5015   24.9921 C   0  0  0  0  0  0  0  0  0  0  0  0
   13.4311  -19.6174   25.2931 O   0  0  0  0  0  0  0  0  0  0  0  0
   13.2237  -17.4490   25.8086 O   0  0  0  0  0  0  0  0  0  0  0  0
  2  1  1  0
  3  2  2  0
  4  2  1  0
  5  4  1  0
  6  5  1  0
  6  7  1  1
  8  9  2  0
  8  6  1  0
 10 11  1  0
 11 13  1  0
 12 11  2  0
 14 13  1  1
 14 15  1  0
 15  8  1  0
 16 14  1  0
 16 18  1  0
 17 16  2  0
 18 19  1  0
 19 25  1  0
 20 21  1  0
 19 20  1  6
 22 21  1  0
 23 22  1  0
 24 23  1  0
 25 26  2  0
 25 27  1  0
M  END
$$$$
