TPR.pdb
     RDKit          3D

 26 26  0  0  1  0  0  0  0  0999 V2000
    8.5644  -16.3255   14.5366 C   0  0  0  0  0  0  0  0  0  0  0  0
    8.7686  -16.0968   16.0117 C   0  0  1  0  0  0  0  0  0  0  0  0
    9.4241  -17.2296   16.5329 O   0  0  0  0  0  0  0  0  0  0  0  0
    9.6482  -14.9040   16.2213 C   0  0  2  0  0  0  0  0  0  0  0  0
   10.7973  -14.9935   15.3925 N   0  0  0  0  0  0  0  0  0  0  0  0
    9.9072  -14.6210   17.6473 C   0  0  0  0  0  0  0  0  0  0  0  0
   11.0650  -14.8855   18.0603 O   0  0  0  0  0  0  0  0  0  0  0  0
    8.9609  -14.0824   18.5708 N   0  0  0  0  0  0  0  0  0  0  0  0
    7.5950  -13.6834   18.3160 C   0  0  0  0  0  0  0  0  0  0  0  0
    7.0542  -13.2097   19.6710 C   0  0  0  0  0  0  0  0  0  0  0  0
    8.3439  -12.7545   20.3855 C   0  0  0  0  0  0  0  0  0  0  0  0
    9.2666  -13.8766   19.9431 C   0  0  1  0  0  0  0  0  0  0  0  0
    8.9875  -15.0883   20.7763 C   0  0  0  0  0  0  0  0  0  0  0  0
    8.1801  -15.9839   20.5301 O   0  0  0  0  0  0  0  0  0  0  0  0
   15.6761  -14.5846   18.8231 N   0  0  0  0  0  0  0  0  0  0  0  0
   15.8442  -14.5762   20.2337 C   0  0  0  0  0  0  0  0  0  0  0  0
   16.9067  -13.9583   20.7025 N   0  0  0  0  0  0  0  0  0  0  0  0
   14.9736  -15.1692   21.1689 N   0  0  0  0  0  0  0  0  0  0  0  0
   13.8588  -15.9588   20.7164 C   0  0  0  0  0  0  0  0  0  0  0  0
   12.7348  -15.8468   21.7651 C   0  0  0  0  0  0  0  0  0  0  0  0
   11.5687  -16.6808   21.3549 C   0  0  0  0  0  0  0  0  0  0  0  0
   10.4145  -16.5124   22.2876 C   0  0  2  0  0  0  0  0  0  0  0  0
    9.7393  -15.2249   22.0081 N   0  0  0  0  0  0  0  0  0  0  0  0
   10.9845  -16.3497   23.6831 C   0  0  0  0  0  0  0  0  0  0  0  0
   11.0253  -15.1261   24.3020 O   0  0  0  0  0  0  0  0  0  0  0  0
   11.4225  -17.3680   24.2478 O   0  0  0  0  0  0  0  0  0  0  0  0
  2  1  1  6
  2  3  1  0
  2  4  1  0
  4  5  1  6
  6  8  1  0
  6  4  1  0
  7  6  2  0
  8  9  1  0
 10  9  1  0
 10 11  1  0
 12  8  1  0
 12 13  1  1
 12 11  1  0
 13 14  2  0
 16 15  1  0
 17 16  2  0
 18 16  1  0
 19 18  1  0
 20 19  1  0
 20 21  1  0
 22 21  1  6
 22 24  1  0
 23 22  1  0
 23 13  1  0
 24 26  2  0
 24 25  1  0
M  END
$$$$
