TPR.pdb
     RDKit          3D

 26 26  0  0  1  0  0  0  0  0999 V2000
    7.6128  -17.1926   16.8698 C   0  0  0  0  0  0  0  0  0  0  0  0
    8.5830  -16.8200   15.7789 C   0  0  1  0  0  0  0  0  0  0  0  0
    7.9907  -17.1588   14.5465 O   0  0  0  0  0  0  0  0  0  0  0  0
    8.8218  -15.3426   15.7979 C   0  0  2  0  0  0  0  0  0  0  0  0
    9.4406  -14.9327   14.5878 N   0  0  0  0  0  0  0  0  0  0  0  0
    9.4729  -14.8788   17.0395 C   0  0  0  0  0  0  0  0  0  0  0  0
   10.7170  -15.0484   17.1060 O   0  0  0  0  0  0  0  0  0  0  0  0
    8.8086  -14.2669   18.1453 N   0  0  0  0  0  0  0  0  0  0  0  0
    7.4275  -13.8497   18.2353 C   0  0  0  0  0  0  0  0  0  0  0  0
    7.2677  -13.2884   19.6538 C   0  0  0  0  0  0  0  0  0  0  0  0
    8.7041  -12.8256   19.9753 C   0  0  0  0  0  0  0  0  0  0  0  0
    9.4676  -13.9926   19.3740 C   0  0  1  0  0  0  0  0  0  0  0  0
    9.4076  -15.1490   20.3224 C   0  0  0  0  0  0  0  0  0  0  0  0
    8.5425  -16.0232   20.3675 O   0  0  0  0  0  0  0  0  0  0  0  0
   13.7958  -14.7567   17.6027 N   0  0  0  0  0  0  0  0  0  0  0  0
   14.8986  -14.9520   18.4768 C   0  0  0  0  0  0  0  0  0  0  0  0
   15.8913  -14.0941   18.3828 N   0  0  0  0  0  0  0  0  0  0  0  0
   15.0185  -15.9805   19.4319 N   0  0  0  0  0  0  0  0  0  0  0  0
   13.9336  -16.9032   19.6379 C   0  0  0  0  0  0  0  0  0  0  0  0
   13.0305  -16.3401   20.7528 C   0  0  0  0  0  0  0  0  0  0  0  0
   11.8463  -17.2254   20.9467 C   0  0  0  0  0  0  0  0  0  0  0  0
   10.8217  -16.5911   21.8289 C   0  0  2  0  0  0  0  0  0  0  0  0
   10.4747  -15.2534   21.2979 N   0  0  0  0  0  0  0  0  0  0  0  0
   11.4875  -16.3119   23.1622 C   0  0  0  0  0  0  0  0  0  0  0  0
   11.7091  -17.3114   24.0754 O   0  0  0  0  0  0  0  0  0  0  0  0
   11.8211  -15.1380   23.4038 O   0  0  0  0  0  0  0  0  0  0  0  0
  2  1  1  1
  2  3  1  0
  2  4  1  0
  4  5  1  6
  6  8  1  0
  6  4  1  0
  7  6  2  0
  8  9  1  0
 10  9  1  0
 10 11  1  0
 12  8  1  0
 12 13  1  1
 12 11  1  0
 13 14  2  0
 16 15  1  0
 17 16  2  0
 18 16  1  0
 19 18  1  0
 20 19  1  0
 20 21  1  0
 22 21  1  6
 22 24  1  0
 23 22  1  0
 23 13  1  0
 24 26  2  0
 24 25  1  0
M  END
$$$$
