TPR.pdb
     RDKit          3D

 26 26  0  0  1  0  0  0  0  0999 V2000
    7.2332  -17.3348   17.4906 C   0  0  0  0  0  0  0  0  0  0  0  0
    8.4004  -17.2117   16.5458 C   0  0  1  0  0  0  0  0  0  0  0  0
    7.9388  -17.5283   15.2530 O   0  0  0  0  0  0  0  0  0  0  0  0
    8.8970  -15.7997   16.5373 C   0  0  2  0  0  0  0  0  0  0  0  0
    9.7208  -15.5791   15.4025 N   0  0  0  0  0  0  0  0  0  0  0  0
    9.4663  -15.3801   17.8336 C   0  0  0  0  0  0  0  0  0  0  0  0
   10.6561  -15.7239   18.0503 O   0  0  0  0  0  0  0  0  0  0  0  0
    8.7803  -14.6306   18.8366 N   0  0  0  0  0  0  0  0  0  0  0  0
    7.4149  -14.1561   18.8166 C   0  0  0  0  0  0  0  0  0  0  0  0
    7.2167  -13.4422   20.1597 C   0  0  0  0  0  0  0  0  0  0  0  0
    8.6556  -13.0005   20.4993 C   0  0  0  0  0  0  0  0  0  0  0  0
    9.3958  -14.2518   20.0601 C   0  0  1  0  0  0  0  0  0  0  0  0
    9.2469  -15.2981   21.1200 C   0  0  0  0  0  0  0  0  0  0  0  0
    8.2691  -16.0203   21.3127 O   0  0  0  0  0  0  0  0  0  0  0  0
   13.0511  -20.7555   20.6487 N   0  0  0  0  0  0  0  0  0  0  0  0
   13.8347  -19.7739   19.9847 C   0  0  0  0  0  0  0  0  0  0  0  0
   14.2935  -20.0860   18.7921 N   0  0  0  0  0  0  0  0  0  0  0  0
   14.1597  -18.5005   20.4919 N   0  0  0  0  0  0  0  0  0  0  0  0
   13.7091  -18.1095   21.8015 C   0  0  0  0  0  0  0  0  0  0  0  0
   12.2487  -17.6312   21.6831 C   0  0  0  0  0  0  0  0  0  0  0  0
   11.7362  -17.2189   23.0215 C   0  0  0  0  0  0  0  0  0  0  0  0
   10.3587  -16.6488   22.9332 C   0  0  2  0  0  0  0  0  0  0  0  0
   10.3662  -15.4816   22.0225 N   0  0  0  0  0  0  0  0  0  0  0  0
   10.0241  -16.0694   24.2938 C   0  0  0  0  0  0  0  0  0  0  0  0
    9.8554  -14.7202   24.4760 O   0  0  0  0  0  0  0  0  0  0  0  0
    9.9143  -16.8630   25.2456 O   0  0  0  0  0  0  0  0  0  0  0  0
  2  1  1  1
  2  3  1  0
  2  4  1  0
  4  5  1  6
  6  8  1  0
  6  4  1  0
  7  6  2  0
  8  9  1  0
 10  9  1  0
 10 11  1  0
 12  8  1  0
 12 13  1  1
 12 11  1  0
 13 14  2  0
 16 15  1  0
 17 16  2  0
 18 16  1  0
 19 18  1  0
 20 19  1  0
 20 21  1  0
 22 21  1  1
 22 24  1  0
 23 22  1  0
 23 13  1  0
 24 26  2  0
 24 25  1  0
M  END
$$$$
