TPR.pdb
     RDKit          3D

 26 26  0  0  1  0  0  0  0  0999 V2000
    7.2102  -18.5746   18.5161 C   0  0  0  0  0  0  0  0  0  0  0  0
    8.0393  -18.0028   17.3955 C   0  0  1  0  0  0  0  0  0  0  0  0
    7.4982  -18.4708   16.1819 O   0  0  0  0  0  0  0  0  0  0  0  0
    7.9461  -16.5090   17.4092 C   0  0  2  0  0  0  0  0  0  0  0  0
    8.2645  -15.9885   16.1274 N   0  0  0  0  0  0  0  0  0  0  0  0
    8.6627  -15.8962   18.5457 C   0  0  0  0  0  0  0  0  0  0  0  0
    9.9130  -15.8234   18.4342 O   0  0  0  0  0  0  0  0  0  0  0  0
    8.0542  -15.3927   19.7351 N   0  0  0  0  0  0  0  0  0  0  0  0
    6.6527  -15.3970   20.0895 C   0  0  0  0  0  0  0  0  0  0  0  0
    6.5875  -14.7579   21.4824 C   0  0  0  0  0  0  0  0  0  0  0  0
    7.8406  -13.8576   21.4772 C   0  0  0  0  0  0  0  0  0  0  0  0
    8.8071  -14.8036   20.7863 C   0  0  1  0  0  0  0  0  0  0  0  0
    9.2858  -15.8155   21.7799 C   0  0  0  0  0  0  0  0  0  0  0  0
    8.8911  -16.9748   21.9020 O   0  0  0  0  0  0  0  0  0  0  0  0
   17.9348  -15.5389   23.6138 N   0  0  0  0  0  0  0  0  0  0  0  0
   17.4754  -16.8281   23.2329 C   0  0  0  0  0  0  0  0  0  0  0  0
   18.3390  -17.8167   23.3184 N   0  0  0  0  0  0  0  0  0  0  0  0
   16.1796  -17.1368   22.7745 N   0  0  0  0  0  0  0  0  0  0  0  0
   15.1766  -16.1074   22.7009 C   0  0  0  0  0  0  0  0  0  0  0  0
   13.8161  -16.7373   23.0582 C   0  0  0  0  0  0  0  0  0  0  0  0
   12.7152  -15.7747   22.7661 C   0  0  0  0  0  0  0  0  0  0  0  0
   11.3758  -16.3568   23.0788 C   0  0  2  0  0  0  0  0  0  0  0  0
   10.3191  -15.3904   22.7033 N   0  0  0  0  0  0  0  0  0  0  0  0
   11.2746  -16.4664   24.5876 C   0  0  0  0  0  0  0  0  0  0  0  0
   10.4425  -15.6499   25.3109 O   0  0  0  0  0  0  0  0  0  0  0  0
   11.9810  -17.3217   25.1508 O   0  0  0  0  0  0  0  0  0  0  0  0
  2  1  1  1
  2  3  1  0
  2  4  1  0
  4  5  1  6
  6  8  1  0
  6  4  1  0
  7  6  2  0
  8  9  1  0
 10  9  1  0
 10 11  1  0
 12  8  1  0
 12 13  1  1
 12 11  1  0
 13 14  2  0
 16 15  1  0
 17 16  2  0
 18 16  1  0
 19 18  1  0
 20 19  1  0
 20 21  1  0
 22 21  1  1
 22 24  1  0
 23 22  1  0
 23 13  1  0
 24 26  2  0
 24 25  1  0
M  END
$$$$
