TPR.pdb
     RDKit          3D

 26 26  0  0  1  0  0  0  0  0999 V2000
    7.3844  -13.7286   16.8597 C   0  0  0  0  0  0  0  0  0  0  0  0
    7.9953  -14.2923   18.1163 C   0  0  1  0  0  0  0  0  0  0  0  0
    9.1831  -14.9568   17.7529 O   0  0  0  0  0  0  0  0  0  0  0  0
    8.3450  -13.1779   19.0523 C   0  0  2  0  0  0  0  0  0  0  0  0
    9.0153  -12.1425   18.3494 N   0  0  0  0  0  0  0  0  0  0  0  0
    9.0063  -13.6465   20.2866 C   0  0  0  0  0  0  0  0  0  0  0  0
   10.2557  -13.5113   20.3280 O   0  0  0  0  0  0  0  0  0  0  0  0
    8.3465  -14.2296   21.4105 N   0  0  0  0  0  0  0  0  0  0  0  0
    6.9309  -14.4590   21.5924 C   0  0  0  0  0  0  0  0  0  0  0  0
    6.8049  -15.1328   22.9646 C   0  0  0  0  0  0  0  0  0  0  0  0
    8.0575  -14.6034   23.6939 C   0  0  0  0  0  0  0  0  0  0  0  0
    9.0530  -14.6981   22.5509 C   0  0  1  0  0  0  0  0  0  0  0  0
    9.4873  -16.1232   22.4056 C   0  0  0  0  0  0  0  0  0  0  0  0
    8.9346  -16.9996   21.7415 O   0  0  0  0  0  0  0  0  0  0  0  0
   15.4984  -15.5173   16.4832 N   0  0  0  0  0  0  0  0  0  0  0  0
   15.5990  -15.1289   17.8461 C   0  0  0  0  0  0  0  0  0  0  0  0
   16.2124  -13.9927   18.0972 N   0  0  0  0  0  0  0  0  0  0  0  0
   15.0993  -15.8531   18.9462 N   0  0  0  0  0  0  0  0  0  0  0  0
   14.0209  -15.3158   19.7332 C   0  0  0  0  0  0  0  0  0  0  0  0
   13.6080  -16.3789   20.7700 C   0  0  0  0  0  0  0  0  0  0  0  0
   12.3330  -15.9787   21.4318 C   0  0  0  0  0  0  0  0  0  0  0  0
   11.8331  -17.0412   22.3546 C   0  0  2  0  0  0  0  0  0  0  0  0
   10.6806  -16.5220   23.1252 N   0  0  0  0  0  0  0  0  0  0  0  0
   12.9118  -17.2780   23.3935 C   0  0  0  0  0  0  0  0  0  0  0  0
   13.9175  -18.1879   23.1872 O   0  0  0  0  0  0  0  0  0  0  0  0
   12.8491  -16.6206   24.4478 O   0  0  0  0  0  0  0  0  0  0  0  0
  2  1  1  6
  2  3  1  0
  2  4  1  0
  4  5  1  6
  6  8  1  0
  6  4  1  0
  7  6  2  0
  8  9  1  0
 10  9  1  0
 10 11  1  0
 12  8  1  0
 12 13  1  6
 12 11  1  0
 13 14  2  0
 16 15  1  0
 17 16  2  0
 18 16  1  0
 19 18  1  0
 20 19  1  0
 20 21  1  0
 22 21  1  6
 22 24  1  0
 23 22  1  0
 23 13  1  0
 24 26  2  0
 24 25  1  0
M  END
$$$$
