TPR.pdb
     RDKit          3D

 26 26  0  0  1  0  0  0  0  0999 V2000
    6.0430  -15.7757   20.8484 C   0  0  0  0  0  0  0  0  0  0  0  0
    6.7288  -15.5326   22.1677 C   0  0  1  0  0  0  0  0  0  0  0  0
    7.4048  -16.7165   22.5224 O   0  0  0  0  0  0  0  0  0  0  0  0
    7.7393  -14.4385   22.0180 C   0  0  2  0  0  0  0  0  0  0  0  0
    8.6083  -14.7222   20.9319 N   0  0  0  0  0  0  0  0  0  0  0  0
    8.3991  -14.0837   23.2906 C   0  0  0  0  0  0  0  0  0  0  0  0
    9.6170  -14.3821   23.3819 O   0  0  0  0  0  0  0  0  0  0  0  0
    7.7696  -13.4424   24.4000 N   0  0  0  0  0  0  0  0  0  0  0  0
    6.3855  -13.0471   24.5330 C   0  0  0  0  0  0  0  0  0  0  0  0
    6.2741  -12.4353   25.9352 C   0  0  0  0  0  0  0  0  0  0  0  0
    7.7133  -11.9346   26.1778 C   0  0  0  0  0  0  0  0  0  0  0  0
    8.4738  -13.1096   25.5885 C   0  0  1  0  0  0  0  0  0  0  0  0
    8.4764  -14.2300   26.5811 C   0  0  0  0  0  0  0  0  0  0  0  0
    7.5353  -14.9728   26.8588 O   0  0  0  0  0  0  0  0  0  0  0  0
   12.5423  -20.9861   30.8717 N   0  0  0  0  0  0  0  0  0  0  0  0
   12.4617  -20.3991   29.5804 C   0  0  0  0  0  0  0  0  0  0  0  0
   13.2729  -20.8731   28.6598 N   0  0  0  0  0  0  0  0  0  0  0  0
   11.5905  -19.3582   29.2035 N   0  0  0  0  0  0  0  0  0  0  0  0
   11.7014  -18.7622   27.8984 C   0  0  0  0  0  0  0  0  0  0  0  0
   10.5190  -17.7912   27.7127 C   0  0  0  0  0  0  0  0  0  0  0  0
   10.9259  -16.4105   28.1023 C   0  0  0  0  0  0  0  0  0  0  0  0
    9.7416  -15.5296   28.3300 C   0  0  2  0  0  0  0  0  0  0  0  0
    9.7128  -14.4670   27.2996 N   0  0  0  0  0  0  0  0  0  0  0  0
    9.9745  -14.7914   29.6337 C   0  0  0  0  0  0  0  0  0  0  0  0
    9.9629  -15.4458   30.8393 O   0  0  0  0  0  0  0  0  0  0  0  0
   10.1705  -13.5644   29.5727 O   0  0  0  0  0  0  0  0  0  0  0  0
  2  1  1  6
  2  3  1  0
  2  4  1  0
  4  5  1  6
  6  8  1  0
  6  4  1  0
  7  6  2  0
  8  9  1  0
 10  9  1  0
 10 11  1  0
 12  8  1  0
 12 13  1  1
 12 11  1  0
 13 14  2  0
 16 15  1  0
 17 16  2  0
 18 16  1  0
 19 18  1  0
 20 19  1  0
 20 21  1  0
 22 21  1  6
 22 24  1  0
 23 22  1  0
 23 13  1  0
 24 26  2  0
 24 25  1  0
M  END
$$$$
