TPR.pdb
     RDKit          3D

 26 26  0  0  1  0  0  0  0  0999 V2000
    6.2799  -13.2863   19.3683 C   0  0  0  0  0  0  0  0  0  0  0  0
    6.7802  -13.8440   20.6754 C   0  0  1  0  0  0  0  0  0  0  0  0
    7.3234  -15.1177   20.4164 O   0  0  0  0  0  0  0  0  0  0  0  0
    7.8670  -12.9681   21.2157 C   0  0  2  0  0  0  0  0  0  0  0  0
    8.8609  -12.7561   20.2246 N   0  0  0  0  0  0  0  0  0  0  0  0
    8.3619  -13.4093   22.5353 C   0  0  0  0  0  0  0  0  0  0  0  0
    9.5010  -13.9414   22.5469 O   0  0  0  0  0  0  0  0  0  0  0  0
    7.6575  -13.2800   23.7704 N   0  0  0  0  0  0  0  0  0  0  0  0
    6.3499  -12.7059   23.9947 C   0  0  0  0  0  0  0  0  0  0  0  0
    6.0940  -12.8617   25.4990 C   0  0  0  0  0  0  0  0  0  0  0  0
    7.5296  -12.8817   26.0643 C   0  0  0  0  0  0  0  0  0  0  0  0
    8.1884  -13.7458   25.0034 C   0  0  1  0  0  0  0  0  0  0  0  0
    7.8447  -15.1788   25.2658 C   0  0  0  0  0  0  0  0  0  0  0  0
    6.8358  -15.7767   24.8925 O   0  0  0  0  0  0  0  0  0  0  0  0
   10.9942  -19.1117   19.8640 N   0  0  0  0  0  0  0  0  0  0  0  0
   11.0473  -20.1708   20.8094 C   0  0  0  0  0  0  0  0  0  0  0  0
   10.9366  -21.3942   20.3389 N   0  0  0  0  0  0  0  0  0  0  0  0
   11.2086  -20.0232   22.2010 N   0  0  0  0  0  0  0  0  0  0  0  0
   11.2137  -18.7107   22.7910 C   0  0  0  0  0  0  0  0  0  0  0  0
   10.3185  -18.7453   24.0452 C   0  0  0  0  0  0  0  0  0  0  0  0
    9.9086  -17.3610   24.4185 C   0  0  0  0  0  0  0  0  0  0  0  0
    9.0662  -17.3485   25.6517 C   0  0  2  0  0  0  0  0  0  0  0  0
    8.7926  -15.9483   26.0471 N   0  0  0  0  0  0  0  0  0  0  0  0
    9.9125  -17.9056   26.7797 C   0  0  0  0  0  0  0  0  0  0  0  0
   10.4460  -17.0899   27.7451 O   0  0  0  0  0  0  0  0  0  0  0  0
   10.1134  -19.1332   26.7957 O   0  0  0  0  0  0  0  0  0  0  0  0
  2  1  1  6
  2  3  1  0
  2  4  1  0
  4  5  1  6
  6  8  1  0
  6  4  1  0
  7  6  2  0
  8  9  1  0
 10  9  1  0
 10 11  1  0
 12  8  1  0
 12 13  1  1
 12 11  1  0
 13 14  2  0
 16 15  1  0
 17 16  2  0
 18 16  1  0
 19 18  1  0
 20 19  1  0
 20 21  1  0
 22 21  1  6
 22 24  1  0
 23 22  1  0
 23 13  1  0
 24 26  2  0
 24 25  1  0
M  END
$$$$
