TPR.pdb
     RDKit          3D

 26 26  0  0  1  0  0  0  0  0999 V2000
    6.8755  -17.8843   19.0218 C   0  0  0  0  0  0  0  0  0  0  0  0
    7.9608  -18.0202   17.9856 C   0  0  1  0  0  0  0  0  0  0  0  0
    7.3823  -18.5866   16.8328 O   0  0  0  0  0  0  0  0  0  0  0  0
    8.4931  -16.6670   17.6308 C   0  0  2  0  0  0  0  0  0  0  0  0
    9.2126  -16.7307   16.4087 N   0  0  0  0  0  0  0  0  0  0  0  0
    9.1928  -16.0094   18.7527 C   0  0  0  0  0  0  0  0  0  0  0  0
   10.3812  -16.3702   18.9485 O   0  0  0  0  0  0  0  0  0  0  0  0
    8.6315  -15.0174   19.6125 N   0  0  0  0  0  0  0  0  0  0  0  0
    7.3441  -14.3689   19.5035 C   0  0  0  0  0  0  0  0  0  0  0  0
    7.2662  -13.4228   20.7084 C   0  0  0  0  0  0  0  0  0  0  0  0
    8.7571  -13.1341   20.9817 C   0  0  0  0  0  0  0  0  0  0  0  0
    9.3116  -14.5306   20.7612 C   0  0  1  0  0  0  0  0  0  0  0  0
    9.0363  -15.3572   21.9784 C   0  0  0  0  0  0  0  0  0  0  0  0
    7.9750  -15.9056   22.2742 O   0  0  0  0  0  0  0  0  0  0  0  0
   15.3328  -20.2789   22.3883 N   0  0  0  0  0  0  0  0  0  0  0  0
   14.1808  -20.3366   21.5589 C   0  0  0  0  0  0  0  0  0  0  0  0
   14.2567  -21.0957   20.4873 N   0  0  0  0  0  0  0  0  0  0  0  0
   12.9694  -19.6544   21.7859 N   0  0  0  0  0  0  0  0  0  0  0  0
   12.7849  -18.8953   22.9944 C   0  0  0  0  0  0  0  0  0  0  0  0
   11.4701  -18.1013   22.8660 C   0  0  0  0  0  0  0  0  0  0  0  0
   11.2097  -17.3383   24.1205 C   0  0  0  0  0  0  0  0  0  0  0  0
    9.9726  -16.5083   24.0147 C   0  0  2  0  0  0  0  0  0  0  0  0
   10.1288  -15.5292   22.9154 N   0  0  0  0  0  0  0  0  0  0  0  0
    9.8901  -15.6627   25.2705 C   0  0  0  0  0  0  0  0  0  0  0  0
    9.5345  -16.2070   26.4786 O   0  0  0  0  0  0  0  0  0  0  0  0
   10.1504  -14.4507   25.1659 O   0  0  0  0  0  0  0  0  0  0  0  0
  2  1  1  1
  2  3  1  0
  2  4  1  0
  4  5  1  6
  6  8  1  0
  6  4  1  0
  7  6  2  0
  8  9  1  0
 10  9  1  0
 10 11  1  0
 12  8  1  0
 12 13  1  1
 12 11  1  0
 13 14  2  0
 16 15  1  0
 17 16  2  0
 18 16  1  0
 19 18  1  0
 20 19  1  0
 20 21  1  0
 22 21  1  1
 22 24  1  0
 23 22  1  0
 23 13  1  0
 24 26  2  0
 24 25  1  0
M  END
$$$$
