TPR.pdb
     RDKit          3D

 26 26  0  0  1  0  0  0  0  0999 V2000
    8.1748  -16.4606   17.3604 C   0  0  0  0  0  0  0  0  0  0  0  0
    8.6854  -15.1641   16.7875 C   0  0  1  0  0  0  0  0  0  0  0  0
    8.1157  -15.0085   15.5085 O   0  0  0  0  0  0  0  0  0  0  0  0
    8.2390  -14.0218   17.6455 C   0  0  2  0  0  0  0  0  0  0  0  0
    8.3026  -12.8074   16.9131 N   0  0  0  0  0  0  0  0  0  0  0  0
    8.8907  -14.0057   18.9705 C   0  0  0  0  0  0  0  0  0  0  0  0
   10.0866  -13.6182   18.9918 O   0  0  0  0  0  0  0  0  0  0  0  0
    8.2770  -14.3902   20.2010 N   0  0  0  0  0  0  0  0  0  0  0  0
    6.9630  -14.9583   20.4020 C   0  0  0  0  0  0  0  0  0  0  0  0
    6.8529  -15.1940   21.9137 C   0  0  0  0  0  0  0  0  0  0  0  0
    7.8181  -14.1273   22.4720 C   0  0  0  0  0  0  0  0  0  0  0  0
    8.9362  -14.2655   21.4536 C   0  0  1  0  0  0  0  0  0  0  0  0
    9.7502  -15.4754   21.7912 C   0  0  0  0  0  0  0  0  0  0  0  0
    9.5952  -16.6154   21.3540 O   0  0  0  0  0  0  0  0  0  0  0  0
   18.6472  -15.6852   22.9803 N   0  0  0  0  0  0  0  0  0  0  0  0
   17.9156  -16.8546   22.6403 C   0  0  0  0  0  0  0  0  0  0  0  0
   18.5376  -17.7536   21.9086 N   0  0  0  0  0  0  0  0  0  0  0  0
   16.5876  -17.1327   23.0191 N   0  0  0  0  0  0  0  0  0  0  0  0
   15.5747  -16.1182   22.8942 C   0  0  0  0  0  0  0  0  0  0  0  0
   14.2562  -16.6854   23.4557 C   0  0  0  0  0  0  0  0  0  0  0  0
   13.1624  -15.6837   23.3007 C   0  0  0  0  0  0  0  0  0  0  0  0
   11.9078  -16.3114   22.7882 C   0  0  2  0  0  0  0  0  0  0  0  0
   10.8334  -15.2942   22.7372 N   0  0  0  0  0  0  0  0  0  0  0  0
   11.4431  -17.3058   23.8342 C   0  0  0  0  0  0  0  0  0  0  0  0
   12.0064  -18.5524   23.9377 O   0  0  0  0  0  0  0  0  0  0  0  0
   10.5238  -16.9532   24.5946 O   0  0  0  0  0  0  0  0  0  0  0  0
  2  1  1  1
  2  3  1  0
  2  4  1  0
  4  5  1  6
  6  8  1  0
  6  4  1  0
  7  6  2  0
  8  9  1  0
 10  9  1  0
 10 11  1  0
 12  8  1  0
 12 13  1  1
 12 11  1  0
 13 14  2  0
 16 15  1  0
 17 16  2  0
 18 16  1  0
 19 18  1  0
 20 19  1  0
 20 21  1  0
 22 21  1  1
 22 24  1  0
 23 22  1  0
 23 13  1  0
 24 26  2  0
 24 25  1  0
M  END
$$$$
