TPR.pdb
     RDKit          3D

 26 26  0  0  1  0  0  0  0  0999 V2000
   10.8440  -15.3215   15.9081 C   0  0  0  0  0  0  0  0  0  0  0  0
   10.5090  -15.3942   17.3753 C   0  0  1  0  0  0  0  0  0  0  0  0
   11.2794  -16.4304   17.9386 O   0  0  0  0  0  0  0  0  0  0  0  0
   10.8852  -14.1089   18.0438 C   0  0  2  0  0  0  0  0  0  0  0  0
   12.2182  -13.7556   17.7069 N   0  0  0  0  0  0  0  0  0  0  0  0
   10.5625  -14.0915   19.4847 C   0  0  0  0  0  0  0  0  0  0  0  0
   11.5439  -14.1299   20.2698 O   0  0  0  0  0  0  0  0  0  0  0  0
    9.2480  -14.0367   20.0393 N   0  0  0  0  0  0  0  0  0  0  0  0
    7.9854  -13.9952   19.3365 C   0  0  0  0  0  0  0  0  0  0  0  0
    6.9140  -13.9735   20.4339 C   0  0  0  0  0  0  0  0  0  0  0  0
    7.6767  -13.3266   21.6089 C   0  0  0  0  0  0  0  0  0  0  0  0
    9.0110  -14.0320   21.4403 C   0  0  1  0  0  0  0  0  0  0  0  0
    8.9010  -15.4144   22.0035 C   0  0  0  0  0  0  0  0  0  0  0  0
    8.3500  -16.3830   21.4812 O   0  0  0  0  0  0  0  0  0  0  0  0
   16.2077  -17.1682   21.2878 N   0  0  0  0  0  0  0  0  0  0  0  0
   15.8318  -16.1377   22.1905 C   0  0  0  0  0  0  0  0  0  0  0  0
   16.7684  -15.2832   22.5412 N   0  0  0  0  0  0  0  0  0  0  0  0
   14.5473  -15.9531   22.7387 N   0  0  0  0  0  0  0  0  0  0  0  0
   13.4867  -16.8703   22.4150 C   0  0  0  0  0  0  0  0  0  0  0  0
   12.2574  -16.5025   23.2689 C   0  0  0  0  0  0  0  0  0  0  0  0
   11.1211  -17.4128   22.9469 C   0  0  0  0  0  0  0  0  0  0  0  0
    9.8782  -17.0238   23.6779 C   0  0  2  0  0  0  0  0  0  0  0  0
    9.4990  -15.6424   23.3041 N   0  0  0  0  0  0  0  0  0  0  0  0
   10.2308  -16.9380   25.1501 C   0  0  0  0  0  0  0  0  0  0  0  0
   10.2692  -15.7351   25.8085 O   0  0  0  0  0  0  0  0  0  0  0  0
   10.4924  -18.0006   25.7417 O   0  0  0  0  0  0  0  0  0  0  0  0
  2  1  1  6
  2  3  1  0
  2  4  1  0
  4  5  1  1
  6  8  1  0
  6  4  1  0
  7  6  2  0
  8  9  1  0
 10  9  1  0
 10 11  1  0
 12  8  1  0
 12 13  1  6
 12 11  1  0
 13 14  2  0
 16 15  1  0
 17 16  2  0
 18 16  1  0
 19 18  1  0
 20 19  1  0
 20 21  1  0
 22 21  1  6
 22 24  1  0
 23 22  1  0
 23 13  1  0
 24 26  2  0
 24 25  1  0
M  END
$$$$
