TPR.pdb
     RDKit          3D

 26 26  0  0  1  0  0  0  0  0999 V2000
    6.9140  -11.2908   27.0653 C   0  0  0  0  0  0  0  0  0  0  0  0
    7.5278  -12.3306   26.1641 C   0  0  1  0  0  0  0  0  0  0  0  0
    8.2869  -13.2008   26.9710 O   0  0  0  0  0  0  0  0  0  0  0  0
    6.4473  -13.1249   25.4995 C   0  0  2  0  0  0  0  0  0  0  0  0
    5.5224  -13.5964   26.4678 N   0  0  0  0  0  0  0  0  0  0  0  0
    6.9698  -14.1413   24.5643 C   0  0  0  0  0  0  0  0  0  0  0  0
    6.8458  -15.3390   24.9264 O   0  0  0  0  0  0  0  0  0  0  0  0
    7.5922  -13.8702   23.3083 N   0  0  0  0  0  0  0  0  0  0  0  0
    7.8030  -12.5870   22.6769 C   0  0  0  0  0  0  0  0  0  0  0  0
    8.5376  -12.8984   21.3668 C   0  0  0  0  0  0  0  0  0  0  0  0
    8.0667  -14.3383   21.0738 C   0  0  0  0  0  0  0  0  0  0  0  0
    8.1267  -14.8973   22.4846 C   0  0  1  0  0  0  0  0  0  0  0  0
    9.5514  -15.2116   22.8193 C   0  0  0  0  0  0  0  0  0  0  0  0
   10.4580  -14.4042   23.0215 O   0  0  0  0  0  0  0  0  0  0  0  0
   11.2144  -14.9539   27.6240 N   0  0  0  0  0  0  0  0  0  0  0  0
   11.0328  -16.0412   28.5201 C   0  0  0  0  0  0  0  0  0  0  0  0
   11.3229  -15.8247   29.7847 N   0  0  0  0  0  0  0  0  0  0  0  0
   10.5696  -17.3252   28.1716 N   0  0  0  0  0  0  0  0  0  0  0  0
   11.1118  -17.9997   27.0218 C   0  0  0  0  0  0  0  0  0  0  0  0
   10.4593  -17.3986   25.7614 C   0  0  0  0  0  0  0  0  0  0  0  0
   11.0734  -17.9888   24.5374 C   0  0  0  0  0  0  0  0  0  0  0  0
   11.2384  -16.9710   23.4571 C   0  0  2  0  0  0  0  0  0  0  0  0
    9.9099  -16.6131   22.9105 N   0  0  0  0  0  0  0  0  0  0  0  0
   11.9549  -17.6496   22.3059 C   0  0  0  0  0  0  0  0  0  0  0  0
   13.3227  -17.7490   22.2724 O   0  0  0  0  0  0  0  0  0  0  0  0
   11.2565  -18.1092   21.3847 O   0  0  0  0  0  0  0  0  0  0  0  0
  2  1  1  1
  2  3  1  0
  2  4  1  0
  4  5  1  1
  6  8  1  0
  6  4  1  0
  7  6  2  0
  8  9  1  0
 10  9  1  0
 10 11  1  0
 12  8  1  0
 12 13  1  1
 12 11  1  0
 13 14  2  0
 16 15  1  0
 17 16  2  0
 18 16  1  0
 19 18  1  0
 20 19  1  0
 20 21  1  0
 22 21  1  1
 22 24  1  0
 23 22  1  0
 23 13  1  0
 24 26  2  0
 24 25  1  0
M  END
$$$$
