TPR.pdb
     RDKit          3D

 26 26  0  0  1  0  0  0  0  0999 V2000
    7.5089  -16.1558   18.0214 C   0  0  0  0  0  0  0  0  0  0  0  0
    8.3948  -15.0841   17.4411 C   0  0  1  0  0  0  0  0  0  0  0  0
    7.8547  -14.7122   16.1943 O   0  0  0  0  0  0  0  0  0  0  0  0
    8.3884  -13.8840   18.3355 C   0  0  2  0  0  0  0  0  0  0  0  0
    8.7668  -12.7280   17.6036 N   0  0  0  0  0  0  0  0  0  0  0  0
    9.1124  -14.1050   19.6035 C   0  0  0  0  0  0  0  0  0  0  0  0
   10.3675  -14.0857   19.5321 O   0  0  0  0  0  0  0  0  0  0  0  0
    8.5057  -14.3348   20.8753 N   0  0  0  0  0  0  0  0  0  0  0  0
    7.0996  -14.4778   21.1791 C   0  0  0  0  0  0  0  0  0  0  0  0
    7.0379  -14.7340   22.6902 C   0  0  0  0  0  0  0  0  0  0  0  0
    8.3269  -14.0429   23.1818 C   0  0  0  0  0  0  0  0  0  0  0  0
    9.2650  -14.4746   22.0683 C   0  0  1  0  0  0  0  0  0  0  0  0
    9.6853  -15.8903   22.3126 C   0  0  0  0  0  0  0  0  0  0  0  0
    9.0420  -16.9069   22.0535 O   0  0  0  0  0  0  0  0  0  0  0  0
   14.2810  -15.5601   17.5056 N   0  0  0  0  0  0  0  0  0  0  0  0
   14.7835  -14.9797   18.7009 C   0  0  0  0  0  0  0  0  0  0  0  0
   15.6403  -13.9905   18.5674 N   0  0  0  0  0  0  0  0  0  0  0  0
   14.4433  -15.3706   20.0108 N   0  0  0  0  0  0  0  0  0  0  0  0
   13.5800  -16.5020   20.2243 C   0  0  0  0  0  0  0  0  0  0  0  0
   13.3739  -16.6680   21.7427 C   0  0  0  0  0  0  0  0  0  0  0  0
   12.4443  -17.8029   22.0108 C   0  0  0  0  0  0  0  0  0  0  0  0
   11.4763  -17.4776   23.1006 C   0  0  2  0  0  0  0  0  0  0  0  0
   10.9836  -16.0927   22.9246 N   0  0  0  0  0  0  0  0  0  0  0  0
   12.2573  -17.4430   24.3998 C   0  0  0  0  0  0  0  0  0  0  0  0
   12.8734  -18.5641   24.8952 O   0  0  0  0  0  0  0  0  0  0  0  0
   12.3145  -16.3591   25.0077 O   0  0  0  0  0  0  0  0  0  0  0  0
  2  1  1  1
  2  3  1  0
  2  4  1  0
  4  5  1  6
  6  8  1  0
  6  4  1  0
  7  6  2  0
  8  9  1  0
 10  9  1  0
 10 11  1  0
 12  8  1  0
 12 13  1  1
 12 11  1  0
 13 14  2  0
 16 15  1  0
 17 16  2  0
 18 16  1  0
 19 18  1  0
 20 19  1  0
 20 21  1  0
 22 21  1  6
 22 24  1  0
 23 22  1  0
 23 13  1  0
 24 26  2  0
 24 25  1  0
M  END
$$$$
