DPI.pdb
     RDKit          3D

 24 24  0  0  1  0  0  0  0  0999 V2000
   23.4906  -20.8608  -16.0587 N   0  0  0  0  0  0  0  0  0  0  0  0
   24.4291  -19.9944  -15.3502 C   0  0  1  0  0  0  0  0  0  0  0  0
   23.7058  -18.7138  -15.0769 C   0  0  0  0  0  0  0  0  0  0  0  0
   23.3744  -17.9647  -16.3025 C   0  0  0  0  0  0  0  0  0  0  0  0
   22.2156  -17.5352  -16.5758 O   0  0  0  0  0  0  0  0  0  0  0  0
   24.9389  -20.5964  -14.1046 C   0  0  0  0  0  0  0  0  0  0  0  0
   24.1183  -21.2516  -13.3791 O   0  0  0  0  0  0  0  0  0  0  0  0
   24.4032  -17.7181  -17.2104 O   0  0  0  0  0  0  0  0  0  0  0  0
   26.2808  -20.4969  -13.6579 N   0  0  0  0  0  0  0  0  0  0  0  0
   27.3306  -19.8121  -14.3892 C   0  0  0  0  0  0  0  0  0  0  0  0
   28.5242  -20.7130  -14.1601 C   0  0  0  0  0  0  0  0  0  0  0  0
   28.4026  -20.9022  -12.6394 C   0  0  0  0  0  0  0  0  0  0  0  0
   26.8816  -21.0158  -12.4578 C   0  0  1  0  0  0  0  0  0  0  0  0
   26.5289  -20.2276  -11.2563 C   0  0  0  0  0  0  0  0  0  0  0  0
   26.3177  -18.9910  -11.3256 O   0  0  0  0  0  0  0  0  0  0  0  0
   22.7057  -20.0365   -7.1473 C   0  0  0  0  0  0  0  0  0  0  0  0
   24.1612  -20.3464   -7.0091 C   0  0  0  0  0  0  0  0  0  0  0  0
   24.7485  -21.0245   -8.2118 C   0  0  2  0  0  0  0  0  0  0  0  0
   25.3319  -22.3398   -7.7780 C   0  0  0  0  0  0  0  0  0  0  0  0
   25.8310  -20.2152   -8.8799 C   0  0  2  0  0  0  0  0  0  0  0  0
   26.4265  -20.8809   -9.9977 N   0  0  0  0  0  0  0  0  0  0  0  0
   26.8804  -19.9610   -7.8626 C   0  0  0  0  0  0  0  0  0  0  0  0
   27.8812  -20.7227   -7.8343 O   0  0  0  0  0  0  0  0  0  0  0  0
   26.7868  -18.9137   -6.9498 O   0  0  0  0  0  0  0  0  0  0  0  0
  2  1  1  1
  2  3  1  0
  3  4  1  0
  4  8  1  0
  5  4  2  0
  6  7  2  0
  6  2  1  0
  9  6  1  0
 10  9  1  0
 11 10  1  0
 12 11  1  0
 12 13  1  0
 13 14  1  1
 13  9  1  0
 14 21  1  0
 15 14  2  0
 17 16  1  0
 18 20  1  0
 18 17  1  0
 18 19  1  1
 20 22  1  0
 20 21  1  6
 22 23  2  0
 22 24  1  0
M  END
$$$$
