DPI.pdb
     RDKit          3D

 24 24  0  0  1  0  0  0  0  0999 V2000
   23.8088  -22.6949  -13.7117 N   0  0  0  0  0  0  0  0  0  0  0  0
   24.1208  -21.4069  -13.0976 C   0  0  1  0  0  0  0  0  0  0  0  0
   22.8320  -20.8627  -12.5676 C   0  0  0  0  0  0  0  0  0  0  0  0
   21.8798  -20.4946  -13.6311 C   0  0  0  0  0  0  0  0  0  0  0  0
   20.6581  -20.8253  -13.6302 O   0  0  0  0  0  0  0  0  0  0  0  0
   25.1357  -21.5086  -12.0329 C   0  0  0  0  0  0  0  0  0  0  0  0
   25.0465  -22.4842  -11.2147 O   0  0  0  0  0  0  0  0  0  0  0  0
   22.3600  -19.7371  -14.6985 O   0  0  0  0  0  0  0  0  0  0  0  0
   26.2056  -20.5952  -11.8565 N   0  0  0  0  0  0  0  0  0  0  0  0
   26.4437  -19.4493  -12.7145 C   0  0  0  0  0  0  0  0  0  0  0  0
   27.9530  -19.4301  -12.8162 C   0  0  0  0  0  0  0  0  0  0  0  0
   28.3030  -19.5830  -11.3272 C   0  0  0  0  0  0  0  0  0  0  0  0
   27.2400  -20.5869  -10.8564 C   0  0  1  0  0  0  0  0  0  0  0  0
   26.7559  -20.1189   -9.5388 C   0  0  0  0  0  0  0  0  0  0  0  0
   25.7883  -19.3231   -9.4439 O   0  0  0  0  0  0  0  0  0  0  0  0
   29.7664  -20.3058   -4.5047 C   0  0  0  0  0  0  0  0  0  0  0  0
   29.1791  -20.2759   -5.8787 C   0  0  0  0  0  0  0  0  0  0  0  0
   27.7470  -20.7205   -5.9303 C   0  0  2  0  0  0  0  0  0  0  0  0
   27.7188  -22.2156   -6.0809 C   0  0  0  0  0  0  0  0  0  0  0  0
   26.9760  -20.1076   -7.0719 C   0  0  2  0  0  0  0  0  0  0  0  0
   27.3972  -20.5778   -8.3559 N   0  0  0  0  0  0  0  0  0  0  0  0
   27.1893  -18.6409   -7.0083 C   0  0  0  0  0  0  0  0  0  0  0  0
   26.5527  -17.9821   -6.1462 O   0  0  0  0  0  0  0  0  0  0  0  0
   28.0653  -17.9833   -7.8681 O   0  0  0  0  0  0  0  0  0  0  0  0
  2  1  1  1
  2  3  1  0
  3  4  1  0
  4  8  1  0
  5  4  2  0
  6  7  2  0
  6  2  1  0
  9  6  1  0
 10  9  1  0
 11 10  1  0
 12 11  1  0
 12 13  1  0
 13 14  1  1
 13  9  1  0
 14 21  1  0
 15 14  2  0
 17 16  1  0
 18 20  1  0
 18 17  1  0
 18 19  1  6
 20 22  1  0
 20 21  1  6
 22 23  2  0
 22 24  1  0
M  END
$$$$
