DPI.pdb
     RDKit          3D

 24 24  0  0  1  0  0  0  0  0999 V2000
   24.4401  -21.3827  -12.3734 N   0  0  0  0  0  0  0  0  0  0  0  0
   25.8096  -20.9054  -12.2004 C   0  0  1  0  0  0  0  0  0  0  0  0
   25.7969  -19.4444  -12.5219 C   0  0  0  0  0  0  0  0  0  0  0  0
   25.7610  -19.1720  -13.9702 C   0  0  0  0  0  0  0  0  0  0  0  0
   24.7012  -18.9223  -14.6155 O   0  0  0  0  0  0  0  0  0  0  0  0
   26.3365  -21.1497  -10.8452 C   0  0  0  0  0  0  0  0  0  0  0  0
   25.4968  -21.3643   -9.9083 O   0  0  0  0  0  0  0  0  0  0  0  0
   26.9698  -19.1922  -14.6644 O   0  0  0  0  0  0  0  0  0  0  0  0
   27.7146  -21.1628  -10.5121 N   0  0  0  0  0  0  0  0  0  0  0  0
   28.7784  -20.8499  -11.4481 C   0  0  0  0  0  0  0  0  0  0  0  0
   29.8483  -21.8492  -11.0668 C   0  0  0  0  0  0  0  0  0  0  0  0
   29.8428  -21.6478   -9.5429 C   0  0  0  0  0  0  0  0  0  0  0  0
   28.3445  -21.4695   -9.2553 C   0  0  1  0  0  0  0  0  0  0  0  0
   28.2201  -20.3711   -8.2717 C   0  0  0  0  0  0  0  0  0  0  0  0
   28.2002  -19.1685   -8.6351 O   0  0  0  0  0  0  0  0  0  0  0  0
   27.7954  -19.5090   -2.1090 C   0  0  0  0  0  0  0  0  0  0  0  0
   27.5430  -19.0609   -3.5123 C   0  0  0  0  0  0  0  0  0  0  0  0
   27.6916  -20.1545   -4.5287 C   0  0  2  0  0  0  0  0  0  0  0  0
   28.8348  -21.0372   -4.1133 C   0  0  0  0  0  0  0  0  0  0  0  0
   27.9627  -19.6393   -5.9195 C   0  0  2  0  0  0  0  0  0  0  0  0
   28.1209  -20.6809   -6.8877 N   0  0  0  0  0  0  0  0  0  0  0  0
   29.2178  -18.8507   -5.8588 C   0  0  0  0  0  0  0  0  0  0  0  0
   30.2944  -19.4170   -6.1794 O   0  0  0  0  0  0  0  0  0  0  0  0
   29.2340  -17.5165   -5.4610 O   0  0  0  0  0  0  0  0  0  0  0  0
  2  1  1  1
  2  3  1  0
  3  4  1  0
  4  8  1  0
  5  4  2  0
  6  7  2  0
  6  2  1  0
  9  6  1  0
 10  9  1  0
 11 10  1  0
 12 11  1  0
 12 13  1  0
 13 14  1  1
 13  9  1  0
 14 21  1  0
 15 14  2  0
 17 16  1  0
 18 20  1  0
 18 17  1  0
 18 19  1  1
 20 22  1  0
 20 21  1  6
 22 23  2  0
 22 24  1  0
M  END
$$$$
