DPI.pdb
     RDKit          3D

 24 24  0  0  1  0  0  0  0  0999 V2000
   18.6931  -11.0875  -19.1000 N   0  0  0  0  0  0  0  0  0  0  0  0
   18.2853   -9.7371  -18.7211 C   0  0  1  0  0  0  0  0  0  0  0  0
   17.0992   -9.8853  -17.8216 C   0  0  0  0  0  0  0  0  0  0  0  0
   15.9281  -10.4679  -18.5014 C   0  0  0  0  0  0  0  0  0  0  0  0
   15.0660  -11.1935  -17.9252 O   0  0  0  0  0  0  0  0  0  0  0  0
   19.3625   -8.9746  -18.0636 C   0  0  0  0  0  0  0  0  0  0  0  0
   20.2032   -9.6210  -17.3533 O   0  0  0  0  0  0  0  0  0  0  0  0
   15.7664  -10.1997  -19.8600 O   0  0  0  0  0  0  0  0  0  0  0  0
   19.5281   -7.5704  -18.1675 N   0  0  0  0  0  0  0  0  0  0  0  0
   18.6639   -6.7074  -18.9514 C   0  0  0  0  0  0  0  0  0  0  0  0
   19.6444   -5.7169  -19.5398 C   0  0  0  0  0  0  0  0  0  0  0  0
   20.4299   -5.3611  -18.2671 C   0  0  0  0  0  0  0  0  0  0  0  0
   20.5233   -6.7240  -17.5647 C   0  0  1  0  0  0  0  0  0  0  0  0
   20.2750   -6.4872  -16.1254 C   0  0  0  0  0  0  0  0  0  0  0  0
   19.1075   -6.3844  -15.6726 O   0  0  0  0  0  0  0  0  0  0  0  0
   23.0679   -9.5229  -12.7626 C   0  0  0  0  0  0  0  0  0  0  0  0
   22.7931   -8.2192  -13.4399 C   0  0  0  0  0  0  0  0  0  0  0  0
   21.4285   -7.6669  -13.1501 C   0  0  2  0  0  0  0  0  0  0  0  0
   20.4038   -8.6553  -13.6312 C   0  0  0  0  0  0  0  0  0  0  0  0
   21.1701   -6.3414  -13.8206 C   0  0  2  0  0  0  0  0  0  0  0  0
   21.3782   -6.3734  -15.2359 N   0  0  0  0  0  0  0  0  0  0  0  0
   22.1060   -5.3574  -13.2236 C   0  0  0  0  0  0  0  0  0  0  0  0
   21.9473   -5.0388  -12.0171 O   0  0  0  0  0  0  0  0  0  0  0  0
   23.1427   -4.7848  -13.9559 O   0  0  0  0  0  0  0  0  0  0  0  0
  2  1  1  1
  2  3  1  0
  3  4  1  0
  4  8  1  0
  5  4  2  0
  6  7  2  0
  6  2  1  0
  9  6  1  0
 10  9  1  0
 11 10  1  0
 12 11  1  0
 12 13  1  0
 13 14  1  1
 13  9  1  0
 14 21  1  0
 15 14  2  0
 17 16  1  0
 18 20  1  0
 18 17  1  0
 18 19  1  6
 20 22  1  0
 20 21  1  6
 22 23  2  0
 22 24  1  0
M  END
$$$$
