DPI.pdb
     RDKit          3D

 24 24  0  0  1  0  0  0  0  0999 V2000
   18.0769  -11.5974  -15.4290 N   0  0  0  0  0  0  0  0  0  0  0  0
   18.4065  -10.1784  -15.3238 C   0  0  1  0  0  0  0  0  0  0  0  0
   17.4492   -9.4501  -16.2132 C   0  0  0  0  0  0  0  0  0  0  0  0
   17.6238   -9.7769  -17.6400 C   0  0  0  0  0  0  0  0  0  0  0  0
   18.7218  -10.1450  -18.1508 O   0  0  0  0  0  0  0  0  0  0  0  0
   18.3395   -9.6739  -13.9400 C   0  0  0  0  0  0  0  0  0  0  0  0
   17.4632  -10.1800  -13.1621 O   0  0  0  0  0  0  0  0  0  0  0  0
   16.5091   -9.6722  -18.4708 O   0  0  0  0  0  0  0  0  0  0  0  0
   19.1840   -8.6637  -13.4141 N   0  0  0  0  0  0  0  0  0  0  0  0
   20.1473   -7.9193  -14.2039 C   0  0  0  0  0  0  0  0  0  0  0  0
   21.3170   -7.7942  -13.2527 C   0  0  0  0  0  0  0  0  0  0  0  0
   20.5648   -7.3271  -11.9961 C   0  0  0  0  0  0  0  0  0  0  0  0
   19.2828   -8.1704  -12.0661 C   0  0  1  0  0  0  0  0  0  0  0  0
   18.1587   -7.2805  -11.7003 C   0  0  0  0  0  0  0  0  0  0  0  0
   17.7090   -6.4307  -12.5092 O   0  0  0  0  0  0  0  0  0  0  0  0
   12.9824   -7.4934   -8.5390 C   0  0  0  0  0  0  0  0  0  0  0  0
   14.1135   -6.6645   -9.0561 C   0  0  0  0  0  0  0  0  0  0  0  0
   15.2811   -7.4742   -9.5379 C   0  0  2  0  0  0  0  0  0  0  0  0
   15.7986   -8.2924   -8.3884 C   0  0  0  0  0  0  0  0  0  0  0  0
   16.4093   -6.6288  -10.0727 C   0  0  2  0  0  0  0  0  0  0  0  0
   17.5747   -7.3879  -10.4086 N   0  0  0  0  0  0  0  0  0  0  0  0
   16.7657   -5.6519   -9.0146 C   0  0  0  0  0  0  0  0  0  0  0  0
   17.6995   -5.9431   -8.2236 O   0  0  0  0  0  0  0  0  0  0  0  0
   16.1010   -4.4362   -8.8769 O   0  0  0  0  0  0  0  0  0  0  0  0
  2  1  1  1
  2  3  1  0
  3  4  1  0
  4  8  1  0
  5  4  2  0
  6  7  2  0
  6  2  1  0
  9  6  1  0
 10  9  1  0
 11 10  1  0
 12 11  1  0
 12 13  1  0
 13 14  1  6
 13  9  1  0
 14 21  1  0
 15 14  2  0
 17 16  1  0
 18 20  1  0
 18 17  1  0
 18 19  1  1
 20 22  1  0
 20 21  1  1
 22 23  2  0
 22 24  1  0
M  END
$$$$
