DPI.pdb
     RDKit          3D

 24 24  0  0  1  0  0  0  0  0999 V2000
   27.4021  -19.2327  -19.7033 N   0  0  0  0  0  0  0  0  0  0  0  0
   26.4432  -18.5650  -18.8270 C   0  0  1  0  0  0  0  0  0  0  0  0
   25.0833  -19.0107  -19.2629 C   0  0  0  0  0  0  0  0  0  0  0  0
   24.6603  -18.4089  -20.5404 C   0  0  0  0  0  0  0  0  0  0  0  0
   24.9633  -18.8778  -21.6763 O   0  0  0  0  0  0  0  0  0  0  0  0
   26.6690  -18.8570  -17.3995 C   0  0  0  0  0  0  0  0  0  0  0  0
   27.2288  -19.9638  -17.0982 O   0  0  0  0  0  0  0  0  0  0  0  0
   23.8801  -17.2547  -20.4871 O   0  0  0  0  0  0  0  0  0  0  0  0
   26.3064  -17.9903  -16.3377 N   0  0  0  0  0  0  0  0  0  0  0  0
   25.6637  -16.7027  -16.5249 C   0  0  0  0  0  0  0  0  0  0  0  0
   26.3354  -15.8503  -15.4709 C   0  0  0  0  0  0  0  0  0  0  0  0
   26.2119  -16.8006  -14.2690 C   0  0  0  0  0  0  0  0  0  0  0  0
   26.4779  -18.1662  -14.9200 C   0  0  1  0  0  0  0  0  0  0  0  0
   25.5047  -19.1187  -14.3413 C   0  0  0  0  0  0  0  0  0  0  0  0
   24.4229  -19.3813  -14.9238 O   0  0  0  0  0  0  0  0  0  0  0  0
   24.8719  -20.6638   -9.0879 C   0  0  0  0  0  0  0  0  0  0  0  0
   25.8199  -20.5482  -10.2375 C   0  0  0  0  0  0  0  0  0  0  0  0
   25.4992  -21.4707  -11.3764 C   0  0  2  0  0  0  0  0  0  0  0  0
   26.7630  -22.1701  -11.7918 C   0  0  0  0  0  0  0  0  0  0  0  0
   24.9281  -20.7571  -12.5756 C   0  0  2  0  0  0  0  0  0  0  0  0
   25.7978  -19.7501  -13.1017 N   0  0  0  0  0  0  0  0  0  0  0  0
   23.6627  -20.1151  -12.1430 C   0  0  0  0  0  0  0  0  0  0  0  0
   23.6393  -18.8630  -12.0237 O   0  0  0  0  0  0  0  0  0  0  0  0
   22.5148  -20.8541  -11.8691 O   0  0  0  0  0  0  0  0  0  0  0  0
  2  1  1  6
  2  3  1  0
  3  4  1  0
  4  8  1  0
  5  4  2  0
  6  7  2  0
  6  2  1  0
  9  6  1  0
 10  9  1  0
 11 10  1  0
 12 11  1  0
 12 13  1  0
 13 14  1  1
 13  9  1  0
 14 21  1  0
 15 14  2  0
 17 16  1  0
 18 20  1  0
 18 17  1  0
 18 19  1  6
 20 22  1  0
 20 21  1  1
 22 23  2  0
 22 24  1  0
M  END
$$$$
