DPI.pdb
     RDKit          3D

 24 24  0  0  1  0  0  0  0  0999 V2000
   24.2428  -17.9503  -15.9252 N   0  0  0  0  0  0  0  0  0  0  0  0
   25.5747  -18.0617  -15.3361 C   0  0  1  0  0  0  0  0  0  0  0  0
   25.9275  -16.7037  -14.8172 C   0  0  0  0  0  0  0  0  0  0  0  0
   26.6419  -15.8754  -15.8055 C   0  0  0  0  0  0  0  0  0  0  0  0
   27.7380  -16.2072  -16.3443 O   0  0  0  0  0  0  0  0  0  0  0  0
   25.6483  -19.0769  -14.2695 C   0  0  0  0  0  0  0  0  0  0  0  0
   24.6172  -19.2486  -13.5370 O   0  0  0  0  0  0  0  0  0  0  0  0
   26.0705  -14.6551  -16.1636 O   0  0  0  0  0  0  0  0  0  0  0  0
   26.7881  -19.8767  -14.0023 N   0  0  0  0  0  0  0  0  0  0  0  0
   28.0726  -19.7019  -14.6545 C   0  0  0  0  0  0  0  0  0  0  0  0
   28.5328  -21.1298  -14.8494 C   0  0  0  0  0  0  0  0  0  0  0  0
   28.2573  -21.6730  -13.4379 C   0  0  0  0  0  0  0  0  0  0  0  0
   26.9340  -20.9768  -13.0865 C   0  0  1  0  0  0  0  0  0  0  0  0
   27.0371  -20.5365  -11.6776 C   0  0  0  0  0  0  0  0  0  0  0  0
   28.1008  -20.0456  -11.2234 O   0  0  0  0  0  0  0  0  0  0  0  0
   28.1566  -20.4603   -6.7817 C   0  0  0  0  0  0  0  0  0  0  0  0
   26.8101  -19.9710   -7.2073 C   0  0  0  0  0  0  0  0  0  0  0  0
   26.6927  -19.7428   -8.6855 C   0  0  2  0  0  0  0  0  0  0  0  0
   25.8270  -18.5355   -8.9127 C   0  0  0  0  0  0  0  0  0  0  0  0
   26.0890  -20.9126   -9.4206 C   0  0  2  0  0  0  0  0  0  0  0  0
   25.9115  -20.6708  -10.8197 N   0  0  0  0  0  0  0  0  0  0  0  0
   24.7627  -21.1771   -8.8110 C   0  0  0  0  0  0  0  0  0  0  0  0
   24.7163  -21.4775   -7.5903 O   0  0  0  0  0  0  0  0  0  0  0  0
   23.5828  -21.1023   -9.5465 O   0  0  0  0  0  0  0  0  0  0  0  0
  2  1  1  1
  2  3  1  0
  3  4  1  0
  4  8  1  0
  5  4  2  0
  6  7  2  0
  6  2  1  0
  9  6  1  0
 10  9  1  0
 11 10  1  0
 12 11  1  0
 12 13  1  0
 13 14  1  1
 13  9  1  0
 14 21  1  0
 15 14  2  0
 17 16  1  0
 18 20  1  0
 18 17  1  0
 18 19  1  1
 20 22  1  0
 20 21  1  6
 22 23  2  0
 22 24  1  0
M  END
$$$$
