DPI.pdb
     RDKit          3D

 24 24  0  0  1  0  0  0  0  0999 V2000
   16.3109  -29.3183   -1.3291 N   0  0  0  0  0  0  0  0  0  0  0  0
   16.8962  -27.9862   -1.2014 C   0  0  1  0  0  0  0  0  0  0  0  0
   15.7717  -27.0098   -1.3435 C   0  0  0  0  0  0  0  0  0  0  0  0
   15.1193  -27.0686   -2.6641 C   0  0  0  0  0  0  0  0  0  0  0  0
   15.7488  -27.1052   -3.7615 O   0  0  0  0  0  0  0  0  0  0  0  0
   17.6134  -27.7933    0.0723 C   0  0  0  0  0  0  0  0  0  0  0  0
   17.1702  -28.3994    1.1044 O   0  0  0  0  0  0  0  0  0  0  0  0
   13.7257  -27.0846   -2.6992 O   0  0  0  0  0  0  0  0  0  0  0  0
   18.7638  -26.9794    0.2282 N   0  0  0  0  0  0  0  0  0  0  0  0
   19.3620  -26.2063   -0.8443 C   0  0  0  0  0  0  0  0  0  0  0  0
   20.8414  -26.3662   -0.5713 C   0  0  0  0  0  0  0  0  0  0  0  0
   20.8499  -26.0553    0.9341 C   0  0  0  0  0  0  0  0  0  0  0  0
   19.5591  -26.7428    1.4038 C   0  0  1  0  0  0  0  0  0  0  0  0
   18.9032  -25.8248    2.3611 C   0  0  0  0  0  0  0  0  0  0  0  0
   18.1957  -24.8650    1.9649 O   0  0  0  0  0  0  0  0  0  0  0  0
   15.5166  -25.7658    7.1951 C   0  0  0  0  0  0  0  0  0  0  0  0
   16.6524  -25.0786    6.5084 C   0  0  0  0  0  0  0  0  0  0  0  0
   17.3852  -25.9543    5.5352 C   0  0  2  0  0  0  0  0  0  0  0  0
   18.1027  -27.0258    6.3071 C   0  0  0  0  0  0  0  0  0  0  0  0
   18.3941  -25.2032    4.7039 C   0  0  2  0  0  0  0  0  0  0  0  0
   19.0759  -26.0314    3.7570 N   0  0  0  0  0  0  0  0  0  0  0  0
   19.3920  -24.6276    5.6387 C   0  0  0  0  0  0  0  0  0  0  0  0
   19.0797  -23.5925    6.2818 O   0  0  0  0  0  0  0  0  0  0  0  0
   20.6497  -25.1970    5.8198 O   0  0  0  0  0  0  0  0  0  0  0  0
  2  1  1  1
  2  3  1  0
  3  4  1  0
  4  8  1  0
  5  4  2  0
  6  7  2  0
  6  2  1  0
  9  6  1  0
 10  9  1  0
 11 10  1  0
 12 11  1  0
 12 13  1  0
 13 14  1  1
 13  9  1  0
 14 21  1  0
 15 14  2  0
 17 16  1  0
 18 20  1  0
 18 17  1  0
 18 19  1  1
 20 22  1  0
 20 21  1  6
 22 23  2  0
 22 24  1  0
M  END
$$$$
