DPI.pdb
     RDKit          3D

 24 24  0  0  1  0  0  0  0  0999 V2000
   26.9958  -22.9765  -16.4389 N   0  0  0  0  0  0  0  0  0  0  0  0
   26.8498  -21.8467  -15.5247 C   0  0  1  0  0  0  0  0  0  0  0  0
   26.6758  -20.6284  -16.3751 C   0  0  0  0  0  0  0  0  0  0  0  0
   27.8541  -20.3342  -17.2107 C   0  0  0  0  0  0  0  0  0  0  0  0
   29.0485  -20.5311  -16.8412 O   0  0  0  0  0  0  0  0  0  0  0  0
   25.7241  -22.0085  -14.5864 C   0  0  0  0  0  0  0  0  0  0  0  0
   24.6854  -22.6235  -15.0010 O   0  0  0  0  0  0  0  0  0  0  0  0
   27.6326  -19.8081  -18.4827 O   0  0  0  0  0  0  0  0  0  0  0  0
   25.7175  -21.5269  -13.2529 N   0  0  0  0  0  0  0  0  0  0  0  0
   26.8016  -20.7661  -12.6598 C   0  0  0  0  0  0  0  0  0  0  0  0
   26.8481  -21.3148  -11.2507 C   0  0  0  0  0  0  0  0  0  0  0  0
   25.3507  -21.2468  -10.9096 C   0  0  0  0  0  0  0  0  0  0  0  0
   24.7066  -21.6684  -12.2389 C   0  0  1  0  0  0  0  0  0  0  0  0
   23.5473  -20.7760  -12.4605 C   0  0  0  0  0  0  0  0  0  0  0  0
   23.6918  -19.5325  -12.5676 O   0  0  0  0  0  0  0  0  0  0  0  0
   19.6811  -22.3687  -15.9015 C   0  0  0  0  0  0  0  0  0  0  0  0
   20.2366  -22.1497  -14.5314 C   0  0  0  0  0  0  0  0  0  0  0  0
   20.5692  -20.7161  -14.2394 C   0  0  2  0  0  0  0  0  0  0  0  0
   21.5963  -20.2543  -15.2347 C   0  0  0  0  0  0  0  0  0  0  0  0
   21.1165  -20.5047  -12.8505 C   0  0  2  0  0  0  0  0  0  0  0  0
   22.2435  -21.3350  -12.5542 N   0  0  0  0  0  0  0  0  0  0  0  0
   20.0264  -20.8228  -11.8959 C   0  0  0  0  0  0  0  0  0  0  0  0
   19.0289  -20.0576  -11.8526 O   0  0  0  0  0  0  0  0  0  0  0  0
   20.0789  -21.9331  -11.0572 O   0  0  0  0  0  0  0  0  0  0  0  0
  2  1  1  6
  2  3  1  0
  3  4  1  0
  4  8  1  0
  5  4  2  0
  6  7  2  0
  6  2  1  0
  9  6  1  0
 10  9  1  0
 11 10  1  0
 12 11  1  0
 12 13  1  0
 13 14  1  6
 13  9  1  0
 14 21  1  0
 15 14  2  0
 17 16  1  0
 18 20  1  0
 18 17  1  0
 18 19  1  6
 20 22  1  0
 20 21  1  1
 22 23  2  0
 22 24  1  0
M  END
$$$$
