DPI.pdb
     RDKit          3D

 24 24  0  0  1  0  0  0  0  0999 V2000
   24.0324  -22.3563  -12.6616 N   0  0  0  0  0  0  0  0  0  0  0  0
   24.9937  -21.2899  -12.3930 C   0  0  1  0  0  0  0  0  0  0  0  0
   24.2101  -20.0181  -12.3137 C   0  0  0  0  0  0  0  0  0  0  0  0
   23.6388  -19.6100  -13.6100 C   0  0  0  0  0  0  0  0  0  0  0  0
   24.2655  -19.6698  -14.7079 O   0  0  0  0  0  0  0  0  0  0  0  0
   25.7727  -21.5151  -11.1617 C   0  0  0  0  0  0  0  0  0  0  0  0
   25.1722  -22.0345  -10.1623 O   0  0  0  0  0  0  0  0  0  0  0  0
   22.3297  -19.1305  -13.6200 O   0  0  0  0  0  0  0  0  0  0  0  0
   27.1455  -21.1937  -11.0125 N   0  0  0  0  0  0  0  0  0  0  0  0
   27.9406  -20.5374  -12.0338 C   0  0  0  0  0  0  0  0  0  0  0  0
   29.2703  -21.2491  -11.9148 C   0  0  0  0  0  0  0  0  0  0  0  0
   29.4511  -21.1814  -10.3897 C   0  0  0  0  0  0  0  0  0  0  0  0
   28.0185  -21.4262   -9.8926 C   0  0  1  0  0  0  0  0  0  0  0  0
   27.7799  -20.4830   -8.7778 C   0  0  0  0  0  0  0  0  0  0  0  0
   27.1949  -19.3868   -8.9640 O   0  0  0  0  0  0  0  0  0  0  0  0
   27.9068  -22.3718   -3.3705 C   0  0  0  0  0  0  0  0  0  0  0  0
   27.4752  -21.7090   -4.6386 C   0  0  0  0  0  0  0  0  0  0  0  0
   28.3373  -20.5461   -5.0330 C   0  0  2  0  0  0  0  0  0  0  0  0
   28.2108  -19.4819   -3.9793 C   0  0  0  0  0  0  0  0  0  0  0  0
   27.9580  -19.9510   -6.3654 C   0  0  2  0  0  0  0  0  0  0  0  0
   28.2207  -20.8224   -7.4694 N   0  0  0  0  0  0  0  0  0  0  0  0
   28.7559  -18.7121   -6.5361 C   0  0  0  0  0  0  0  0  0  0  0  0
   29.8919  -18.8026   -7.0688 O   0  0  0  0  0  0  0  0  0  0  0  0
   28.2850  -17.4673   -6.1266 O   0  0  0  0  0  0  0  0  0  0  0  0
  2  1  1  1
  2  3  1  0
  3  4  1  0
  4  8  1  0
  5  4  2  0
  6  7  2  0
  6  2  1  0
  9  6  1  0
 10  9  1  0
 11 10  1  0
 12 11  1  0
 12 13  1  0
 13 14  1  1
 13  9  1  0
 14 21  1  0
 15 14  2  0
 17 16  1  0
 18 20  1  0
 18 17  1  0
 18 19  1  1
 20 22  1  0
 20 21  1  6
 22 23  2  0
 22 24  1  0
M  END
$$$$
