DPI.pdb
     RDKit          3D

 24 24  0  0  1  0  0  0  0  0999 V2000
   19.1446  -14.9779  -17.9902 N   0  0  0  0  0  0  0  0  0  0  0  0
   19.5331  -13.6979  -18.5768 C   0  0  1  0  0  0  0  0  0  0  0  0
   18.2920  -13.1013  -19.1613 C   0  0  0  0  0  0  0  0  0  0  0  0
   17.7112  -13.9195  -20.2413 C   0  0  0  0  0  0  0  0  0  0  0  0
   18.3622  -14.3245  -21.2483 O   0  0  0  0  0  0  0  0  0  0  0  0
   20.1568  -12.7846  -17.6017 C   0  0  0  0  0  0  0  0  0  0  0  0
   19.6418  -12.7142  -16.4360 O   0  0  0  0  0  0  0  0  0  0  0  0
   16.3641  -14.2644  -20.1412 O   0  0  0  0  0  0  0  0  0  0  0  0
   21.2916  -11.9787  -17.8715 N   0  0  0  0  0  0  0  0  0  0  0  0
   22.0036  -11.9775  -19.1361 C   0  0  0  0  0  0  0  0  0  0  0  0
   23.4455  -11.8569  -18.6946 C   0  0  0  0  0  0  0  0  0  0  0  0
   23.3012  -10.7007  -17.6919 C   0  0  0  0  0  0  0  0  0  0  0  0
   21.9632  -11.0365  -17.0163 C   0  0  1  0  0  0  0  0  0  0  0  0
   21.2196   -9.7653  -16.8728 C   0  0  0  0  0  0  0  0  0  0  0  0
   20.6586   -9.2225  -17.8573 O   0  0  0  0  0  0  0  0  0  0  0  0
   18.0686   -8.8778  -12.4678 C   0  0  0  0  0  0  0  0  0  0  0  0
   19.3237   -8.7031  -13.2602 C   0  0  0  0  0  0  0  0  0  0  0  0
   19.0916   -8.1762  -14.6457 C   0  0  2  0  0  0  0  0  0  0  0  0
   18.2465   -9.1672  -15.3956 C   0  0  0  0  0  0  0  0  0  0  0  0
   20.3677   -7.9518  -15.4169 C   0  0  2  0  0  0  0  0  0  0  0  0
   21.1373   -9.1446  -15.5964 N   0  0  0  0  0  0  0  0  0  0  0  0
   21.1775   -6.9733  -14.6505 C   0  0  0  0  0  0  0  0  0  0  0  0
   20.7813   -5.7804  -14.5996 O   0  0  0  0  0  0  0  0  0  0  0  0
   22.3505   -7.3373  -13.9943 O   0  0  0  0  0  0  0  0  0  0  0  0
  2  1  1  1
  2  3  1  0
  3  4  1  0
  4  8  1  0
  5  4  2  0
  6  7  2  0
  6  2  1  0
  9  6  1  0
 10  9  1  0
 11 10  1  0
 12 11  1  0
 12 13  1  0
 13 14  1  6
 13  9  1  0
 14 21  1  0
 15 14  2  0
 17 16  1  0
 18 20  1  0
 18 17  1  0
 18 19  1  6
 20 22  1  0
 20 21  1  1
 22 23  2  0
 22 24  1  0
M  END
$$$$
