GLN.pdb
     RDKit          3D

 21 20  0  0  1  0  0  0  0  0999 V2000
   21.0647  -21.7871   -6.6743 N   0  0  0  0  0  0  0  0  0  0  0  0
   22.1962  -22.3596   -7.3590 C   0  0  0  0  0  0  0  0  0  0  0  0
   22.9056  -21.3768   -8.1919 C   0  0  0  0  0  0  0  0  0  0  0  0
   22.2857  -20.3909   -8.6639 O   0  0  0  0  0  0  0  0  0  0  0  0
   26.4949  -18.6550   -7.4597 C   0  0  0  0  0  0  0  0  0  0  0  0
   27.0114  -20.0037   -7.9169 C   0  0  2  0  0  0  0  0  0  0  0  0
   28.4605  -20.1033   -7.6909 C   0  0  0  0  0  0  0  0  0  0  0  0
   26.4219  -20.4919   -9.1767 C   0  0  0  0  0  0  0  0  0  0  0  0
   24.9791  -20.5376   -9.3759 C   0  0  2  0  0  0  0  0  0  0  0  0
   24.2711  -21.4638   -8.5081 N   0  0  0  0  0  0  0  0  0  0  0  0
   24.5550  -20.8581  -10.7479 C   0  0  0  0  0  0  0  0  0  0  0  0
   24.4066  -22.0198  -11.2206 O   0  0  0  0  0  0  0  0  0  0  0  0
   21.2957  -20.2493  -15.1281 N   0  0  0  0  0  0  0  0  0  0  0  0
   22.2434  -19.2466  -14.8158 C   0  0  0  0  0  0  0  0  0  0  0  0
   22.6639  -18.5406  -15.7660 O   0  0  0  0  0  0  0  0  0  0  0  0
   22.7377  -19.0137  -13.4436 C   0  0  0  0  0  0  0  0  0  0  0  0
   23.6883  -20.0740  -13.0070 C   0  0  2  0  0  0  0  0  0  0  0  0
   24.2616  -19.8168  -11.7060 N   0  0  0  0  0  0  0  0  0  0  0  0
   24.8103  -20.2532  -13.9520 C   0  0  0  0  0  0  0  0  0  0  0  0
   25.9538  -19.8194  -13.6789 O   0  0  0  0  0  0  0  0  0  0  0  0
   24.6691  -20.9000  -15.1755 O   0  0  0  0  0  0  0  0  0  0  0  0
  1  2  1  0
  2  3  1  0
  3  4  2  0
  3 10  1  0
  6  5  1  6
  6  7  1  0
  8  6  1  0
  9  8  1  6
  9 11  1  0
 10  9  1  0
 11 12  2  0
 11 18  1  0
 13 14  1  0
 14 16  1  0
 14 15  2  0
 17 16  1  6
 17 19  1  0
 18 17  1  0
 19 21  1  0
 20 19  2  0
M  END
$$$$
