GLN.pdb
     RDKit          3D

 21 20  0  0  1  0  0  0  0  0999 V2000
   22.6022  -14.5617  -17.5490 N   0  0  0  0  0  0  0  0  0  0  0  0
   22.1375  -13.2843  -18.0273 C   0  0  0  0  0  0  0  0  0  0  0  0
   22.6126  -12.1665  -17.1979 C   0  0  0  0  0  0  0  0  0  0  0  0
   22.2255  -12.0604  -16.0071 O   0  0  0  0  0  0  0  0  0  0  0  0
   26.1789  -10.7566  -15.0241 C   0  0  0  0  0  0  0  0  0  0  0  0
   26.3631  -10.3804  -16.4800 C   0  0  2  0  0  0  0  0  0  0  0  0
   27.7605  -10.0068  -16.7420 C   0  0  0  0  0  0  0  0  0  0  0  0
   25.2626   -9.5842  -17.0523 C   0  0  0  0  0  0  0  0  0  0  0  0
   23.8709   -9.9902  -16.9047 C   0  0  2  0  0  0  0  0  0  0  0  0
   23.4970  -11.1766  -17.6562 N   0  0  0  0  0  0  0  0  0  0  0  0
   22.8852   -8.9562  -17.2571 C   0  0  0  0  0  0  0  0  0  0  0  0
   22.4982   -8.6753  -18.4260 O   0  0  0  0  0  0  0  0  0  0  0  0
   19.3226   -5.1477  -16.9356 N   0  0  0  0  0  0  0  0  0  0  0  0
   18.9655   -6.3379  -16.2597 C   0  0  0  0  0  0  0  0  0  0  0  0
   17.7761   -6.4388  -15.8681 O   0  0  0  0  0  0  0  0  0  0  0  0
   19.9242   -7.4330  -16.0089 C   0  0  0  0  0  0  0  0  0  0  0  0
   21.2799   -7.1183  -16.5395 C   0  0  2  0  0  0  0  0  0  0  0  0
   22.2539   -8.1433  -16.2427 N   0  0  0  0  0  0  0  0  0  0  0  0
   21.8122   -5.8436  -16.0142 C   0  0  0  0  0  0  0  0  0  0  0  0
   22.3547   -5.7921  -14.8858 O   0  0  0  0  0  0  0  0  0  0  0  0
   21.7451   -4.6493  -16.7243 O   0  0  0  0  0  0  0  0  0  0  0  0
  1  2  1  0
  2  3  1  0
  3  4  2  0
  3 10  1  0
  6  5  1  1
  6  7  1  0
  8  6  1  0
  9  8  1  6
  9 11  1  0
 10  9  1  0
 11 12  2  0
 11 18  1  0
 13 14  1  0
 14 16  1  0
 14 15  2  0
 17 16  1  1
 17 19  1  0
 18 17  1  0
 19 21  1  0
 20 19  2  0
M  END
$$$$
