GLN.pdb
     RDKit          3D

 21 20  0  0  1  0  0  0  0  0999 V2000
   20.9298  -12.1999  -18.5717 N   0  0  0  0  0  0  0  0  0  0  0  0
   21.0331  -10.7628  -18.5433 C   0  0  0  0  0  0  0  0  0  0  0  0
   21.5618  -10.2623  -17.2654 C   0  0  0  0  0  0  0  0  0  0  0  0
   20.9402  -10.4899  -16.1973 O   0  0  0  0  0  0  0  0  0  0  0  0
   27.0274   -9.9796  -15.6007 C   0  0  0  0  0  0  0  0  0  0  0  0
   25.5338  -10.1186  -15.3888 C   0  0  2  0  0  0  0  0  0  0  0  0
   25.0929  -11.4828  -15.7136 C   0  0  0  0  0  0  0  0  0  0  0  0
   24.7404   -8.9577  -15.8308 C   0  0  0  0  0  0  0  0  0  0  0  0
   23.2857   -9.0100  -15.8996 C   0  0  2  0  0  0  0  0  0  0  0  0
   22.7507   -9.5239  -17.1493 N   0  0  0  0  0  0  0  0  0  0  0  0
   22.6097   -7.7246  -15.6639 C   0  0  0  0  0  0  0  0  0  0  0  0
   22.6976   -7.0277  -14.6143 O   0  0  0  0  0  0  0  0  0  0  0  0
   21.6791   -2.3037  -17.2454 N   0  0  0  0  0  0  0  0  0  0  0  0
   20.9710   -3.5249  -17.3372 C   0  0  0  0  0  0  0  0  0  0  0  0
   19.7172   -3.4647  -17.2869 O   0  0  0  0  0  0  0  0  0  0  0  0
   21.6454   -4.8304  -17.4860 C   0  0  0  0  0  0  0  0  0  0  0  0
   21.1335   -5.8354  -16.5133 C   0  0  2  0  0  0  0  0  0  0  0  0
   21.7513   -7.1327  -16.6644 N   0  0  0  0  0  0  0  0  0  0  0  0
   19.6724   -6.0318  -16.6174 C   0  0  0  0  0  0  0  0  0  0  0  0
   19.1901   -6.8162  -17.4674 O   0  0  0  0  0  0  0  0  0  0  0  0
   18.7630   -5.3726  -15.7966 O   0  0  0  0  0  0  0  0  0  0  0  0
  1  2  1  0
  2  3  1  0
  3  4  2  0
  3 10  1  0
  6  5  1  6
  6  7  1  0
  8  6  1  0
  9  8  1  6
  9 11  1  0
 10  9  1  0
 11 12  2  0
 11 18  1  0
 13 14  1  0
 14 16  1  0
 14 15  2  0
 17 16  1  6
 17 19  1  0
 18 17  1  0
 19 21  1  0
 20 19  2  0
M  END
$$$$
