GLN.pdb
     RDKit          3D

 21 20  0  0  1  0  0  0  0  0999 V2000
   31.2843  -22.4254  -10.7527 N   0  0  0  0  0  0  0  0  0  0  0  0
   30.5889  -21.1640  -10.7094 C   0  0  0  0  0  0  0  0  0  0  0  0
   29.2455  -21.2824  -10.1224 C   0  0  0  0  0  0  0  0  0  0  0  0
   28.6531  -22.3905  -10.1304 O   0  0  0  0  0  0  0  0  0  0  0  0
   27.7003  -21.0896   -5.9279 C   0  0  0  0  0  0  0  0  0  0  0  0
   27.8239  -19.7004   -6.5192 C   0  0  2  0  0  0  0  0  0  0  0  0
   27.8267  -18.6865   -5.4547 C   0  0  0  0  0  0  0  0  0  0  0  0
   27.0386  -19.4839   -7.7477 C   0  0  0  0  0  0  0  0  0  0  0  0
   27.2349  -20.3083   -8.9332 C   0  0  2  0  0  0  0  0  0  0  0  0
   28.5545  -20.2106   -9.5343 N   0  0  0  0  0  0  0  0  0  0  0  0
   26.2724  -20.0668  -10.0196 C   0  0  0  0  0  0  0  0  0  0  0  0
   26.2057  -19.0219  -10.7258 O   0  0  0  0  0  0  0  0  0  0  0  0
   22.9288  -21.0700  -13.9165 N   0  0  0  0  0  0  0  0  0  0  0  0
   23.8154  -22.1414  -13.6572 C   0  0  0  0  0  0  0  0  0  0  0  0
   23.8684  -23.0601  -14.5124 O   0  0  0  0  0  0  0  0  0  0  0  0
   24.6557  -22.2078  -12.4445 C   0  0  0  0  0  0  0  0  0  0  0  0
   24.5036  -20.9939  -11.5948 C   0  0  2  0  0  0  0  0  0  0  0  0
   25.2815  -21.0553  -10.3788 N   0  0  0  0  0  0  0  0  0  0  0  0
   23.0997  -20.7479  -11.2042 C   0  0  0  0  0  0  0  0  0  0  0  0
   22.2084  -20.6046  -12.0735 O   0  0  0  0  0  0  0  0  0  0  0  0
   22.6905  -20.6621   -9.8775 O   0  0  0  0  0  0  0  0  0  0  0  0
  1  2  1  0
  2  3  1  0
  3  4  2  0
  3 10  1  0
  6  5  1  1
  6  7  1  0
  8  6  1  0
  9  8  1  1
  9 11  1  0
 10  9  1  0
 11 12  2  0
 11 18  1  0
 13 14  1  0
 14 16  1  0
 14 15  2  0
 17 16  1  1
 17 19  1  0
 18 17  1  0
 19 21  1  0
 20 19  2  0
M  END
$$$$
