GLN.pdb
     RDKit          3D

 21 20  0  0  1  0  0  0  0  0999 V2000
   23.8022  -12.6493  -20.0221 N   0  0  0  0  0  0  0  0  0  0  0  0
   22.6936  -11.8736  -19.5260 C   0  0  0  0  0  0  0  0  0  0  0  0
   23.0597  -11.0484  -18.3650 C   0  0  0  0  0  0  0  0  0  0  0  0
   22.3107  -11.0174  -17.3565 O   0  0  0  0  0  0  0  0  0  0  0  0
   26.3284  -11.3183  -15.3927 C   0  0  0  0  0  0  0  0  0  0  0  0
   26.8527  -10.5317  -16.5765 C   0  0  2  0  0  0  0  0  0  0  0  0
   28.3187  -10.4370  -16.5227 C   0  0  0  0  0  0  0  0  0  0  0  0
   26.0458   -9.3515  -16.9352 C   0  0  0  0  0  0  0  0  0  0  0  0
   24.6097   -9.4499  -17.1616 C   0  0  2  0  0  0  0  0  0  0  0  0
   24.2246  -10.2668  -18.3002 N   0  0  0  0  0  0  0  0  0  0  0  0
   23.9216   -8.1606  -17.3326 C   0  0  0  0  0  0  0  0  0  0  0  0
   24.0882   -7.3587  -18.2940 O   0  0  0  0  0  0  0  0  0  0  0  0
   20.6683   -4.1315  -16.7677 N   0  0  0  0  0  0  0  0  0  0  0  0
   20.1411   -5.3622  -17.2242 C   0  0  0  0  0  0  0  0  0  0  0  0
   19.0045   -5.3349  -17.7587 O   0  0  0  0  0  0  0  0  0  0  0  0
   20.8685   -6.6409  -17.0933 C   0  0  0  0  0  0  0  0  0  0  0  0
   22.2262   -6.4519  -16.5109 C   0  0  2  0  0  0  0  0  0  0  0  0
   22.9556   -7.6906  -16.3662 N   0  0  0  0  0  0  0  0  0  0  0  0
   22.1877   -5.8087  -15.1808 C   0  0  0  0  0  0  0  0  0  0  0  0
   22.3573   -6.4827  -14.1380 O   0  0  0  0  0  0  0  0  0  0  0  0
   21.9659   -4.4463  -15.0086 O   0  0  0  0  0  0  0  0  0  0  0  0
  1  2  1  0
  2  3  1  0
  3  4  2  0
  3 10  1  0
  6  5  1  1
  6  7  1  0
  8  6  1  0
  9  8  1  6
  9 11  1  0
 10  9  1  0
 11 12  2  0
 11 18  1  0
 13 14  1  0
 14 16  1  0
 14 15  2  0
 17 16  1  1
 17 19  1  0
 18 17  1  0
 19 21  1  0
 20 19  2  0
M  END
$$$$
