GLN.pdb
     RDKit          3D

 21 20  0  0  1  0  0  0  0  0999 V2000
   21.2868  -13.7179  -19.4424 N   0  0  0  0  0  0  0  0  0  0  0  0
   20.4476  -13.3909  -18.3174 C   0  0  0  0  0  0  0  0  0  0  0  0
   21.0843  -12.4333  -17.4005 C   0  0  0  0  0  0  0  0  0  0  0  0
   20.4930  -12.0847  -16.3480 O   0  0  0  0  0  0  0  0  0  0  0  0
   26.7675  -10.3025  -16.0043 C   0  0  0  0  0  0  0  0  0  0  0  0
   25.2714  -10.1949  -15.7921 C   0  0  2  0  0  0  0  0  0  0  0  0
   24.9558  -10.1708  -14.3565 C   0  0  0  0  0  0  0  0  0  0  0  0
   24.4601  -11.0076  -16.7162 C   0  0  0  0  0  0  0  0  0  0  0  0
   23.0049  -10.9312  -16.7220 C   0  0  2  0  0  0  0  0  0  0  0  0
   22.3473  -11.8616  -17.6242 N   0  0  0  0  0  0  0  0  0  0  0  0
   22.4575   -9.6020  -17.0359 C   0  0  0  0  0  0  0  0  0  0  0  0
   22.4638   -9.0526  -18.1730 O   0  0  0  0  0  0  0  0  0  0  0  0
   18.7873   -5.7614  -17.9127 N   0  0  0  0  0  0  0  0  0  0  0  0
   19.0352   -6.3841  -16.6669 C   0  0  0  0  0  0  0  0  0  0  0  0
   18.6468   -5.7786  -15.6370 O   0  0  0  0  0  0  0  0  0  0  0  0
   19.7182   -7.6882  -16.5473 C   0  0  0  0  0  0  0  0  0  0  0  0
   21.1782   -7.5311  -16.2982 C   0  0  2  0  0  0  0  0  0  0  0  0
   21.8407   -8.7839  -16.0169 N   0  0  0  0  0  0  0  0  0  0  0  0
   21.4658   -6.6210  -15.1699 C   0  0  0  0  0  0  0  0  0  0  0  0
   21.3603   -5.3795  -15.3049 O   0  0  0  0  0  0  0  0  0  0  0  0
   21.8626   -7.0762  -13.9167 O   0  0  0  0  0  0  0  0  0  0  0  0
  1  2  1  0
  2  3  1  0
  3  4  2  0
  3 10  1  0
  6  5  1  1
  6  7  1  0
  8  6  1  0
  9  8  1  6
  9 11  1  0
 10  9  1  0
 11 12  2  0
 11 18  1  0
 13 14  1  0
 14 16  1  0
 14 15  2  0
 17 16  1  1
 17 19  1  0
 18 17  1  0
 19 21  1  0
 20 19  2  0
M  END
$$$$
