GLN.pdb
     RDKit          3D

 21 20  0  0  1  0  0  0  0  0999 V2000
   19.2763  -15.4431  -17.8732 N   0  0  0  0  0  0  0  0  0  0  0  0
   19.1287  -14.0443  -18.1869 C   0  0  0  0  0  0  0  0  0  0  0  0
   19.6994  -13.1721  -17.1494 C   0  0  0  0  0  0  0  0  0  0  0  0
   19.0202  -12.8784  -16.1337 O   0  0  0  0  0  0  0  0  0  0  0  0
   22.8078  -13.8209  -14.1113 C   0  0  0  0  0  0  0  0  0  0  0  0
   23.5166  -13.4016  -15.3828 C   0  0  2  0  0  0  0  0  0  0  0  0
   24.9575  -13.6752  -15.2827 C   0  0  0  0  0  0  0  0  0  0  0  0
   23.0412  -12.1316  -15.9605 C   0  0  0  0  0  0  0  0  0  0  0  0
   21.6212  -11.8640  -16.1488 C   0  0  2  0  0  0  0  0  0  0  0  0
   20.9914  -12.6257  -17.2143 N   0  0  0  0  0  0  0  0  0  0  0  0
   21.2869  -10.4537  -16.4025 C   0  0  0  0  0  0  0  0  0  0  0  0
   21.4886   -9.8318  -17.4831 O   0  0  0  0  0  0  0  0  0  0  0  0
   17.9750   -5.9059  -16.3986 N   0  0  0  0  0  0  0  0  0  0  0  0
   18.6303   -6.4889  -15.2888 C   0  0  0  0  0  0  0  0  0  0  0  0
   18.9677   -5.7198  -14.3545 O   0  0  0  0  0  0  0  0  0  0  0  0
   18.9203   -7.9344  -15.2008 C   0  0  0  0  0  0  0  0  0  0  0  0
   20.3249   -8.2448  -15.5871 C   0  0  2  0  0  0  0  0  0  0  0  0
   20.6722   -9.6326  -15.3847 N   0  0  0  0  0  0  0  0  0  0  0  0
   21.3100   -7.4339  -14.8414 C   0  0  0  0  0  0  0  0  0  0  0  0
   21.9338   -7.9184  -13.8685 O   0  0  0  0  0  0  0  0  0  0  0  0
   21.5990   -6.1126  -15.1665 O   0  0  0  0  0  0  0  0  0  0  0  0
  1  2  1  0
  2  3  1  0
  3  4  2  0
  3 10  1  0
  6  5  1  1
  6  7  1  0
  8  6  1  0
  9  8  1  6
  9 11  1  0
 10  9  1  0
 11 12  2  0
 11 18  1  0
 13 14  1  0
 14 16  1  0
 14 15  2  0
 17 16  1  1
 17 19  1  0
 18 17  1  0
 19 21  1  0
 20 19  2  0
M  END
$$$$
