GLN.pdb
     RDKit          3D

 21 20  0  0  1  0  0  0  0  0999 V2000
   25.2623  -20.0723   -8.3031 N   0  0  0  0  0  0  0  0  0  0  0  0
   25.3776  -21.0305   -9.3733 C   0  0  0  0  0  0  0  0  0  0  0  0
   25.3082  -20.4016  -10.7010 C   0  0  0  0  0  0  0  0  0  0  0  0
   25.0563  -19.1746  -10.8013 O   0  0  0  0  0  0  0  0  0  0  0  0
   27.8450  -18.8442  -14.2600 C   0  0  0  0  0  0  0  0  0  0  0  0
   27.8709  -20.3586  -14.2287 C   0  0  2  0  0  0  0  0  0  0  0  0
   28.8671  -20.8758  -15.1779 C   0  0  0  0  0  0  0  0  0  0  0  0
   26.5444  -20.9932  -14.1263 C   0  0  0  0  0  0  0  0  0  0  0  0
   25.5227  -20.4825  -13.2215 C   0  0  2  0  0  0  0  0  0  0  0  0
   25.5099  -21.0967  -11.9044 N   0  0  0  0  0  0  0  0  0  0  0  0
   24.1450  -20.5768  -13.7294 C   0  0  0  0  0  0  0  0  0  0  0  0
   23.4616  -21.6356  -13.8128 O   0  0  0  0  0  0  0  0  0  0  0  0
   18.9079  -18.4209  -14.1862 N   0  0  0  0  0  0  0  0  0  0  0  0
   20.0123  -18.1084  -15.0132 C   0  0  0  0  0  0  0  0  0  0  0  0
   19.7694  -17.8461  -16.2175 O   0  0  0  0  0  0  0  0  0  0  0  0
   21.4022  -18.0828  -14.5144 C   0  0  0  0  0  0  0  0  0  0  0  0
   22.0416  -19.4265  -14.5791 C   0  0  2  0  0  0  0  0  0  0  0  0
   23.4341  -19.4078  -14.1944 N   0  0  0  0  0  0  0  0  0  0  0  0
   21.9683  -20.0245  -15.9285 C   0  0  0  0  0  0  0  0  0  0  0  0
   20.9601  -20.6770  -16.2865 O   0  0  0  0  0  0  0  0  0  0  0  0
   22.9912  -19.9027  -16.8634 O   0  0  0  0  0  0  0  0  0  0  0  0
  1  2  1  0
  2  3  1  0
  3  4  2  0
  3 10  1  0
  6  5  1  6
  6  7  1  0
  8  6  1  0
  9  8  1  6
  9 11  1  0
 10  9  1  0
 11 12  2  0
 11 18  1  0
 13 14  1  0
 14 16  1  0
 14 15  2  0
 17 16  1  6
 17 19  1  0
 18 17  1  0
 19 21  1  0
 20 19  2  0
M  END
$$$$
