GLN.pdb
     RDKit          3D

 21 20  0  0  1  0  0  0  0  0999 V2000
   22.6158  -15.0696  -18.1783 N   0  0  0  0  0  0  0  0  0  0  0  0
   23.1877  -13.8678  -18.7309 C   0  0  0  0  0  0  0  0  0  0  0  0
   23.5937  -12.9091  -17.6921 C   0  0  0  0  0  0  0  0  0  0  0  0
   22.9456  -12.8364  -16.6181 O   0  0  0  0  0  0  0  0  0  0  0  0
   27.3196  -12.4822  -15.3190 C   0  0  0  0  0  0  0  0  0  0  0  0
   27.5159  -11.6696  -16.5823 C   0  0  2  0  0  0  0  0  0  0  0  0
   28.9332  -11.3187  -16.7532 C   0  0  0  0  0  0  0  0  0  0  0  0
   26.4673  -10.6651  -16.8352 C   0  0  0  0  0  0  0  0  0  0  0  0
   25.0549  -11.0235  -16.8466 C   0  0  2  0  0  0  0  0  0  0  0  0
   24.6899  -12.0405  -17.8185 N   0  0  0  0  0  0  0  0  0  0  0  0
   24.1338   -9.8977  -17.0679 C   0  0  0  0  0  0  0  0  0  0  0  0
   23.7904   -9.4372  -18.1927 O   0  0  0  0  0  0  0  0  0  0  0  0
   20.3176   -9.7429  -13.7268 N   0  0  0  0  0  0  0  0  0  0  0  0
   20.6928   -9.1199  -14.9402 C   0  0  0  0  0  0  0  0  0  0  0  0
   20.1905   -9.5765  -15.9972 O   0  0  0  0  0  0  0  0  0  0  0  0
   21.6314   -7.9810  -14.9968 C   0  0  0  0  0  0  0  0  0  0  0  0
   22.5913   -8.1066  -16.1288 C   0  0  2  0  0  0  0  0  0  0  0  0
   23.5219   -9.1989  -15.9609 N   0  0  0  0  0  0  0  0  0  0  0  0
   23.3890   -6.8795  -16.3340 C   0  0  0  0  0  0  0  0  0  0  0  0
   24.6395   -6.9076  -16.2562 O   0  0  0  0  0  0  0  0  0  0  0  0
   22.8138   -5.6456  -16.6196 O   0  0  0  0  0  0  0  0  0  0  0  0
  1  2  1  0
  2  3  1  0
  3  4  2  0
  3 10  1  0
  6  5  1  1
  6  7  1  0
  8  6  1  0
  9  8  1  6
  9 11  1  0
 10  9  1  0
 11 12  2  0
 11 18  1  0
 13 14  1  0
 14 16  1  0
 14 15  2  0
 17 16  1  1
 17 19  1  0
 18 17  1  0
 19 21  1  0
 20 19  2  0
M  END
$$$$
