GLN.pdb
     RDKit          3D

 21 20  0  0  1  0  0  0  0  0999 V2000
   28.8211  -20.9822  -16.8610 N   0  0  0  0  0  0  0  0  0  0  0  0
   28.2073  -20.0464  -15.9532 C   0  0  0  0  0  0  0  0  0  0  0  0
   27.3545  -20.7086  -14.9545 C   0  0  0  0  0  0  0  0  0  0  0  0
   27.0822  -21.9296  -15.0732 O   0  0  0  0  0  0  0  0  0  0  0  0
   25.3913  -19.7861   -9.0956 C   0  0  0  0  0  0  0  0  0  0  0  0
   25.4433  -20.6822  -10.3159 C   0  0  2  0  0  0  0  0  0  0  0  0
   25.7617  -22.0636   -9.9266 C   0  0  0  0  0  0  0  0  0  0  0  0
   26.0876  -20.0767  -11.4953 C   0  0  0  0  0  0  0  0  0  0  0  0
   26.0098  -20.6995  -12.8104 C   0  0  2  0  0  0  0  0  0  0  0  0
   26.8044  -20.0529  -13.8412 N   0  0  0  0  0  0  0  0  0  0  0  0
   24.6492  -20.8181  -13.3580 C   0  0  0  0  0  0  0  0  0  0  0  0
   24.0059  -19.8990  -13.9380 O   0  0  0  0  0  0  0  0  0  0  0  0
   24.1297  -25.3501  -14.7876 N   0  0  0  0  0  0  0  0  0  0  0  0
   23.3027  -24.2518  -15.1209 C   0  0  0  0  0  0  0  0  0  0  0  0
   23.4332  -23.7657  -16.2719 O   0  0  0  0  0  0  0  0  0  0  0  0
   22.3192  -23.6776  -14.1805 C   0  0  0  0  0  0  0  0  0  0  0  0
   22.6109  -22.2497  -13.8731 C   0  0  2  0  0  0  0  0  0  0  0  0
   23.9092  -22.0562  -13.2695 N   0  0  0  0  0  0  0  0  0  0  0  0
   21.6118  -21.6503  -12.9638 C   0  0  0  0  0  0  0  0  0  0  0  0
   21.8952  -21.4150  -11.7660 O   0  0  0  0  0  0  0  0  0  0  0  0
   20.3243  -21.3179  -13.3726 O   0  0  0  0  0  0  0  0  0  0  0  0
  1  2  1  0
  2  3  1  0
  3  4  2  0
  3 10  1  0
  6  5  1  1
  6  7  1  0
  8  6  1  0
  9  8  1  1
  9 11  1  0
 10  9  1  0
 11 12  2  0
 11 18  1  0
 13 14  1  0
 14 16  1  0
 14 15  2  0
 17 16  1  1
 17 19  1  0
 18 17  1  0
 19 21  1  0
 20 19  2  0
M  END
$$$$
