GLN.pdb
     RDKit          3D

 21 20  0  0  1  0  0  0  0  0999 V2000
   21.4876  -21.9488   -6.4508 N   0  0  0  0  0  0  0  0  0  0  0  0
   22.7502  -22.4409   -6.9414 C   0  0  0  0  0  0  0  0  0  0  0  0
   23.4933  -21.4238   -7.7007 C   0  0  0  0  0  0  0  0  0  0  0  0
   22.8716  -20.5171   -8.3093 O   0  0  0  0  0  0  0  0  0  0  0  0
   26.9646  -18.5269   -6.6575 C   0  0  0  0  0  0  0  0  0  0  0  0
   27.5336  -19.8754   -7.0482 C   0  0  2  0  0  0  0  0  0  0  0  0
   28.9580  -19.9550   -6.6938 C   0  0  0  0  0  0  0  0  0  0  0  0
   27.0629  -20.3870   -8.3479 C   0  0  0  0  0  0  0  0  0  0  0  0
   25.6427  -20.4909   -8.6574 C   0  0  2  0  0  0  0  0  0  0  0  0
   24.8939  -21.3922   -7.7977 N   0  0  0  0  0  0  0  0  0  0  0  0
   25.3397  -20.8981  -10.0385 C   0  0  0  0  0  0  0  0  0  0  0  0
   25.4354  -22.0704  -10.4986 O   0  0  0  0  0  0  0  0  0  0  0  0
   22.1510  -20.5943  -14.6491 N   0  0  0  0  0  0  0  0  0  0  0  0
   23.1691  -19.6606  -14.3445 C   0  0  0  0  0  0  0  0  0  0  0  0
   23.7680  -19.1306  -15.3133 O   0  0  0  0  0  0  0  0  0  0  0  0
   23.5368  -19.3025  -12.9596 C   0  0  0  0  0  0  0  0  0  0  0  0
   24.4435  -20.3121  -12.3456 C   0  0  2  0  0  0  0  0  0  0  0  0
   24.8875  -19.9407  -11.0218 N   0  0  0  0  0  0  0  0  0  0  0  0
   25.6522  -20.5577  -13.1597 C   0  0  0  0  0  0  0  0  0  0  0  0
   25.6061  -21.3017  -14.1671 O   0  0  0  0  0  0  0  0  0  0  0  0
   26.8877  -19.9907  -12.8645 O   0  0  0  0  0  0  0  0  0  0  0  0
  1  2  1  0
  2  3  1  0
  3  4  2  0
  3 10  1  0
  6  5  1  6
  6  7  1  0
  8  6  1  0
  9  8  1  1
  9 11  1  0
 10  9  1  0
 11 12  2  0
 11 18  1  0
 13 14  1  0
 14 16  1  0
 14 15  2  0
 17 16  1  6
 17 19  1  0
 18 17  1  0
 19 21  1  0
 20 19  2  0
M  END
$$$$
