GLN.pdb
     RDKit          3D

 21 20  0  0  1  0  0  0  0  0999 V2000
   31.3562  -22.3203   -9.9165 N   0  0  0  0  0  0  0  0  0  0  0  0
   30.7325  -21.0418   -9.6857 C   0  0  0  0  0  0  0  0  0  0  0  0
   29.4896  -21.1549   -8.9075 C   0  0  0  0  0  0  0  0  0  0  0  0
   28.7800  -22.1873   -9.0057 O   0  0  0  0  0  0  0  0  0  0  0  0
   28.7099  -21.2839   -4.5581 C   0  0  0  0  0  0  0  0  0  0  0  0
   28.6926  -19.8230   -4.9585 C   0  0  2  0  0  0  0  0  0  0  0  0
   28.7792  -18.9626   -3.7697 C   0  0  0  0  0  0  0  0  0  0  0  0
   27.7512  -19.4952   -6.0443 C   0  0  0  0  0  0  0  0  0  0  0  0
   27.7650  -20.2181   -7.3095 C   0  0  2  0  0  0  0  0  0  0  0  0
   29.0235  -20.1592   -8.0338 N   0  0  0  0  0  0  0  0  0  0  0  0
   26.7240  -19.8094   -8.2657 C   0  0  0  0  0  0  0  0  0  0  0  0
   26.5722  -18.6477   -8.7373 O   0  0  0  0  0  0  0  0  0  0  0  0
   24.4579  -22.0870  -13.1922 N   0  0  0  0  0  0  0  0  0  0  0  0
   24.9547  -21.0105  -12.4206 C   0  0  0  0  0  0  0  0  0  0  0  0
   24.7295  -19.8499  -12.8456 O   0  0  0  0  0  0  0  0  0  0  0  0
   25.7088  -21.2075  -11.1661 C   0  0  0  0  0  0  0  0  0  0  0  0
   25.0297  -20.5720  -10.0028 C   0  0  2  0  0  0  0  0  0  0  0  0
   25.7481  -20.7524   -8.7623 N   0  0  0  0  0  0  0  0  0  0  0  0
   23.6606  -21.0881   -9.7945 C   0  0  0  0  0  0  0  0  0  0  0  0
   22.7977  -20.9991  -10.6989 O   0  0  0  0  0  0  0  0  0  0  0  0
   23.2547  -21.6909   -8.6084 O   0  0  0  0  0  0  0  0  0  0  0  0
  1  2  1  0
  2  3  1  0
  3  4  2  0
  3 10  1  0
  6  5  1  1
  6  7  1  0
  8  6  1  0
  9  8  1  1
  9 11  1  0
 10  9  1  0
 11 12  2  0
 11 18  1  0
 13 14  1  0
 14 16  1  0
 14 15  2  0
 17 16  1  6
 17 19  1  0
 18 17  1  0
 19 21  1  0
 20 19  2  0
M  END
$$$$
