GLN.pdb
     RDKit          3D

 21 20  0  0  1  0  0  0  0  0999 V2000
   28.3351  -20.6562  -16.0427 N   0  0  0  0  0  0  0  0  0  0  0  0
   27.4876  -19.8074  -15.2438 C   0  0  0  0  0  0  0  0  0  0  0  0
   26.5451  -20.5740  -14.4150 C   0  0  0  0  0  0  0  0  0  0  0  0
   26.2835  -21.7685  -14.7045 O   0  0  0  0  0  0  0  0  0  0  0  0
   26.6172  -22.0295  -10.3013 C   0  0  0  0  0  0  0  0  0  0  0  0
   26.0215  -20.6401  -10.2039 C   0  0  2  0  0  0  0  0  0  0  0  0
   25.9858  -20.1926   -8.8041 C   0  0  0  0  0  0  0  0  0  0  0  0
   24.8657  -20.4043  -11.0877 C   0  0  0  0  0  0  0  0  0  0  0  0
   24.9007  -20.7610  -12.5002 C   0  0  2  0  0  0  0  0  0  0  0  0
   25.8949  -20.0497  -13.2861 N   0  0  0  0  0  0  0  0  0  0  0  0
   23.6231  -20.5949  -13.2109 C   0  0  0  0  0  0  0  0  0  0  0  0
   23.1539  -19.5025  -13.6370 O   0  0  0  0  0  0  0  0  0  0  0  0
   20.0575  -22.3182  -17.3225 N   0  0  0  0  0  0  0  0  0  0  0  0
   20.1589  -22.7533  -15.9803 C   0  0  0  0  0  0  0  0  0  0  0  0
   19.0975  -23.1160  -15.4145 O   0  0  0  0  0  0  0  0  0  0  0  0
   21.4405  -22.7918  -15.2473 C   0  0  0  0  0  0  0  0  0  0  0  0
   21.5833  -21.6391  -14.3149 C   0  0  2  0  0  0  0  0  0  0  0  0
   22.7658  -21.7244  -13.4891 N   0  0  0  0  0  0  0  0  0  0  0  0
   20.4253  -21.4972  -13.4077 C   0  0  0  0  0  0  0  0  0  0  0  0
   20.4858  -21.9018  -12.2232 O   0  0  0  0  0  0  0  0  0  0  0  0
   19.2239  -20.9188  -13.8041 O   0  0  0  0  0  0  0  0  0  0  0  0
  1  2  1  0
  2  3  1  0
  3  4  2  0
  3 10  1  0
  6  5  1  1
  6  7  1  0
  8  6  1  0
  9  8  1  1
  9 11  1  0
 10  9  1  0
 11 12  2  0
 11 18  1  0
 13 14  1  0
 14 16  1  0
 14 15  2  0
 17 16  1  1
 17 19  1  0
 18 17  1  0
 19 21  1  0
 20 19  2  0
M  END
$$$$
