GLN.pdb
     RDKit          3D

 21 20  0  0  1  0  0  0  0  0999 V2000
   28.5107  -19.7763  -15.9251 N   0  0  0  0  0  0  0  0  0  0  0  0
   27.4331  -19.0777  -15.2712 C   0  0  0  0  0  0  0  0  0  0  0  0
   26.4685  -19.9935  -14.6435 C   0  0  0  0  0  0  0  0  0  0  0  0
   26.3668  -21.1761  -15.0558 O   0  0  0  0  0  0  0  0  0  0  0  0
   26.4103  -22.1193  -10.9749 C   0  0  0  0  0  0  0  0  0  0  0  0
   25.7879  -20.7736  -10.6639 C   0  0  2  0  0  0  0  0  0  0  0  0
   25.7579  -20.5439   -9.2122 C   0  0  0  0  0  0  0  0  0  0  0  0
   24.6184  -20.4318  -11.4933 C   0  0  0  0  0  0  0  0  0  0  0  0
   24.6641  -20.5160  -12.9474 C   0  0  2  0  0  0  0  0  0  0  0  0
   25.6250  -19.6291  -13.5814 N   0  0  0  0  0  0  0  0  0  0  0  0
   23.3785  -20.2736  -13.6208 C   0  0  0  0  0  0  0  0  0  0  0  0
   22.8777  -19.1405  -13.8662 O   0  0  0  0  0  0  0  0  0  0  0  0
   18.9932  -20.8919  -16.3529 N   0  0  0  0  0  0  0  0  0  0  0  0
   19.9347  -21.8840  -16.7139 C   0  0  0  0  0  0  0  0  0  0  0  0
   19.6918  -22.5543  -17.7483 O   0  0  0  0  0  0  0  0  0  0  0  0
   21.1595  -22.1459  -15.9312 C   0  0  0  0  0  0  0  0  0  0  0  0
   21.3202  -21.1798  -14.8091 C   0  0  2  0  0  0  0  0  0  0  0  0
   22.5503  -21.3673  -14.0748 N   0  0  0  0  0  0  0  0  0  0  0  0
   20.2125  -21.2548  -13.8337 C   0  0  0  0  0  0  0  0  0  0  0  0
   20.3737  -21.8115  -12.7225 O   0  0  0  0  0  0  0  0  0  0  0  0
   18.9511  -20.7242  -14.0834 O   0  0  0  0  0  0  0  0  0  0  0  0
  1  2  1  0
  2  3  1  0
  3  4  2  0
  3 10  1  0
  6  5  1  1
  6  7  1  0
  8  6  1  0
  9  8  1  1
  9 11  1  0
 10  9  1  0
 11 12  2  0
 11 18  1  0
 13 14  1  0
 14 16  1  0
 14 15  2  0
 17 16  1  6
 17 19  1  0
 18 17  1  0
 19 21  1  0
 20 19  2  0
M  END
$$$$
