ECM.pdb
     RDKit          3D

 24 23  0  0  1  0  0  0  0  0999 V2000
   19.3229  -14.5764  -19.5052 N   0  0  0  0  0  0  0  0  0  0  0  0
   19.9458  -13.9973  -18.3038 C   0  0  1  0  0  0  0  0  0  0  0  0
   21.0820  -14.9208  -17.9516 C   0  0  0  0  0  0  0  0  0  0  0  0
   20.6892  -16.2265  -17.3667 C   0  0  0  0  0  0  0  0  0  0  0  0
   21.8585  -17.1088  -17.1891 C   0  0  0  0  0  0  0  0  0  0  0  0
   21.7170  -18.2762  -16.7777 O   0  0  0  0  0  0  0  0  0  0  0  0
   20.5634  -12.6806  -18.6281 C   0  0  0  0  0  0  0  0  0  0  0  0
   21.0813  -12.5370  -19.7653 O   0  0  0  0  0  0  0  0  0  0  0  0
   23.1467  -16.6365  -17.4844 O   0  0  0  0  0  0  0  0  0  0  0  0
   20.6065  -11.5887  -17.7498 N   0  0  0  0  0  0  0  0  0  0  0  0
   21.2469  -10.3426  -18.1102 C   0  0  1  0  0  0  0  0  0  0  0  0
   20.1387   -9.2877  -18.2022 C   0  0  0  0  0  0  0  0  0  0  0  0
   18.5100  -10.0824  -18.1537 S   0  0  0  0  0  0  0  0  0  0  0  0
   22.2481   -9.9159  -17.1075 C   0  0  0  0  0  0  0  0  0  0  0  0
   21.9104   -9.8648  -15.8963 O   0  0  0  0  0  0  0  0  0  0  0  0
   27.5501  -12.5132  -15.2741 C   0  0  0  0  0  0  0  0  0  0  0  0
   28.1547  -10.8133  -15.4265 S   0  0  0  0  0  0  0  0  0  0  0  0
   26.7501   -9.7031  -15.3759 C   0  0  0  0  0  0  0  0  0  0  0  0
   25.6820  -10.0372  -16.3631 C   0  0  0  0  0  0  0  0  0  0  0  0
   24.5300   -9.0872  -16.4040 C   0  0  2  0  0  0  0  0  0  0  0  0
   23.5853   -9.5533  -17.4149 N   0  0  0  0  0  0  0  0  0  0  0  0
   24.8980   -7.6739  -16.6124 C   0  0  0  0  0  0  0  0  0  0  0  0
   24.9951   -7.2201  -17.7803 O   0  0  0  0  0  0  0  0  0  0  0  0
   25.1505   -6.7904  -15.5735 O   0  0  0  0  0  0  0  0  0  0  0  0
  2  1  1  6
  3  2  1  0
  4  3  1  0
  5  6  2  0
  5  4  1  0
  7  8  2  0
  7  2  1  0
  9  5  1  0
 10  7  1  0
 11 10  1  0
 11 14  1  0
 11 12  1  1
 13 12  1  0
 14 21  1  0
 15 14  2  0
 17 16  1  0
 18 17  1  0
 20 19  1  6
 19 18  1  0
 20 22  1  0
 21 20  1  0
 22 23  2  0
 22 24  1  0
M  END
$$$$
