ECM.pdb
     RDKit          3D

 24 23  0  0  1  0  0  0  0  0999 V2000
   23.5091  -19.7911  -12.3975 N   0  0  0  0  0  0  0  0  0  0  0  0
   23.0023  -19.9827  -11.0289 C   0  0  1  0  0  0  0  0  0  0  0  0
   21.9441  -21.0490  -11.1346 C   0  0  0  0  0  0  0  0  0  0  0  0
   21.6723  -21.5489  -12.5047 C   0  0  0  0  0  0  0  0  0  0  0  0
   20.9947  -20.5264  -13.3248 C   0  0  0  0  0  0  0  0  0  0  0  0
   19.8787  -20.0828  -12.9931 O   0  0  0  0  0  0  0  0  0  0  0  0
   24.0733  -20.5426  -10.1572 C   0  0  0  0  0  0  0  0  0  0  0  0
   23.7326  -21.0533   -9.0595 O   0  0  0  0  0  0  0  0  0  0  0  0
   21.6063  -20.0427  -14.4917 O   0  0  0  0  0  0  0  0  0  0  0  0
   25.4380  -20.5385  -10.4783 N   0  0  0  0  0  0  0  0  0  0  0  0
   26.4442  -20.9973   -9.5456 C   0  0  1  0  0  0  0  0  0  0  0  0
   27.6637  -21.4073  -10.3788 C   0  0  0  0  0  0  0  0  0  0  0  0
   29.1750  -21.2766   -9.3860 S   0  0  0  0  0  0  0  0  0  0  0  0
   26.8391  -19.9444   -8.5836 C   0  0  0  0  0  0  0  0  0  0  0  0
   26.8518  -18.7459   -8.9670 O   0  0  0  0  0  0  0  0  0  0  0  0
   25.4678  -19.7373   -2.6115 C   0  0  0  0  0  0  0  0  0  0  0  0
   27.1924  -19.2620   -2.3310 S   0  0  0  0  0  0  0  0  0  0  0  0
   28.0637  -19.3332   -3.8942 C   0  0  0  0  0  0  0  0  0  0  0  0
   27.1841  -19.1390   -5.0839 C   0  0  0  0  0  0  0  0  0  0  0  0
   27.8772  -19.1898   -6.4062 C   0  0  2  0  0  0  0  0  0  0  0  0
   27.2113  -20.1894   -7.2363 N   0  0  0  0  0  0  0  0  0  0  0  0
   29.3324  -19.4215   -6.3356 C   0  0  0  0  0  0  0  0  0  0  0  0
   29.8091  -20.5180   -6.7227 O   0  0  0  0  0  0  0  0  0  0  0  0
   30.2321  -18.4809   -5.8566 O   0  0  0  0  0  0  0  0  0  0  0  0
  2  1  1  6
  3  2  1  0
  4  3  1  0
  5  6  2  0
  5  4  1  0
  7  8  2  0
  7  2  1  0
  9  5  1  0
 10  7  1  0
 11 10  1  0
 11 14  1  0
 11 12  1  6
 13 12  1  0
 14 21  1  0
 15 14  2  0
 17 16  1  0
 18 17  1  0
 20 19  1  1
 19 18  1  0
 20 22  1  0
 21 20  1  0
 22 23  2  0
 22 24  1  0
M  END
$$$$
