ECM.pdb
     RDKit          3D

 24 23  0  0  1  0  0  0  0  0999 V2000
   28.1157  -20.7610  -15.7310 N   0  0  0  0  0  0  0  0  0  0  0  0
   27.6428  -20.0022  -14.5616 C   0  0  1  0  0  0  0  0  0  0  0  0
   26.9647  -18.7790  -15.1199 C   0  0  0  0  0  0  0  0  0  0  0  0
   27.8542  -17.8095  -15.8055 C   0  0  0  0  0  0  0  0  0  0  0  0
   28.2625  -18.3025  -17.1350 C   0  0  0  0  0  0  0  0  0  0  0  0
   29.4663  -18.3527  -17.4519 O   0  0  0  0  0  0  0  0  0  0  0  0
   26.5892  -20.7711  -13.8410 C   0  0  0  0  0  0  0  0  0  0  0  0
   25.8116  -21.4865  -14.5232 O   0  0  0  0  0  0  0  0  0  0  0  0
   27.2917  -18.7212  -18.0579 O   0  0  0  0  0  0  0  0  0  0  0  0
   26.4057  -20.7511  -12.4513 N   0  0  0  0  0  0  0  0  0  0  0  0
   25.3012  -21.4364  -11.8161 C   0  0  1  0  0  0  0  0  0  0  0  0
   25.5115  -21.3042  -10.3036 C   0  0  0  0  0  0  0  0  0  0  0  0
   25.5022  -19.5573   -9.8188 S   0  0  0  0  0  0  0  0  0  0  0  0
   23.9924  -20.8508  -12.1823 C   0  0  0  0  0  0  0  0  0  0  0  0
   23.9566  -19.6723  -12.6222 O   0  0  0  0  0  0  0  0  0  0  0  0
   18.3819  -20.4554  -16.9716 C   0  0  0  0  0  0  0  0  0  0  0  0
   19.8677  -21.2575  -16.3177 S   0  0  0  0  0  0  0  0  0  0  0  0
   20.0559  -20.7920  -14.5985 C   0  0  0  0  0  0  0  0  0  0  0  0
   21.3286  -21.2675  -13.9812 C   0  0  0  0  0  0  0  0  0  0  0  0
   21.4910  -20.9538  -12.5298 C   0  0  2  0  0  0  0  0  0  0  0  0
   22.7518  -21.5310  -12.0728 N   0  0  0  0  0  0  0  0  0  0  0  0
   20.3613  -21.3663  -11.6754 C   0  0  0  0  0  0  0  0  0  0  0  0
   20.4207  -22.4508  -11.0431 O   0  0  0  0  0  0  0  0  0  0  0  0
   19.2069  -20.6132  -11.5213 O   0  0  0  0  0  0  0  0  0  0  0  0
  2  1  1  6
  3  2  1  0
  4  3  1  0
  5  6  2  0
  5  4  1  0
  7  8  2  0
  7  2  1  0
  9  5  1  0
 10  7  1  0
 11 10  1  0
 11 14  1  0
 11 12  1  1
 13 12  1  0
 14 21  1  0
 15 14  2  0
 17 16  1  0
 18 17  1  0
 20 19  1  6
 19 18  1  0
 20 22  1  0
 21 20  1  0
 22 23  2  0
 22 24  1  0
M  END
$$$$
