ECM.pdb
     RDKit          3D

 24 23  0  0  1  0  0  0  0  0999 V2000
   17.7306  -10.2348  -14.1338 N   0  0  0  0  0  0  0  0  0  0  0  0
   18.4518   -9.4115  -15.1181 C   0  0  1  0  0  0  0  0  0  0  0  0
   17.4257   -9.0209  -16.1487 C   0  0  0  0  0  0  0  0  0  0  0  0
   17.1554  -10.0325  -17.1998 C   0  0  0  0  0  0  0  0  0  0  0  0
   16.1715   -9.5371  -18.1816 C   0  0  0  0  0  0  0  0  0  0  0  0
   15.0555  -10.0798  -18.2920 O   0  0  0  0  0  0  0  0  0  0  0  0
   18.9140   -8.1429  -14.4877 C   0  0  0  0  0  0  0  0  0  0  0  0
   18.1289   -7.5567  -13.6990 O   0  0  0  0  0  0  0  0  0  0  0  0
   16.4875   -8.4440  -19.0031 O   0  0  0  0  0  0  0  0  0  0  0  0
   20.1673   -7.5571  -14.7147 N   0  0  0  0  0  0  0  0  0  0  0  0
   20.5484   -6.3044  -14.0994 C   0  0  1  0  0  0  0  0  0  0  0  0
   22.0431   -6.4088  -13.7759 C   0  0  0  0  0  0  0  0  0  0  0  0
   22.6610   -4.8251  -13.1460 S   0  0  0  0  0  0  0  0  0  0  0  0
   20.3198   -5.1477  -14.9935 C   0  0  0  0  0  0  0  0  0  0  0  0
   20.7888   -5.1809  -16.1608 O   0  0  0  0  0  0  0  0  0  0  0  0
   14.9055   -2.2171  -16.1946 C   0  0  0  0  0  0  0  0  0  0  0  0
   15.9305   -0.7247  -16.1653 S   0  0  0  0  0  0  0  0  0  0  0  0
   17.6499   -1.2130  -16.2799 C   0  0  0  0  0  0  0  0  0  0  0  0
   18.0013   -2.3865  -15.4276 C   0  0  0  0  0  0  0  0  0  0  0  0
   19.4186   -2.8475  -15.5277 C   0  0  2  0  0  0  0  0  0  0  0  0
   19.5979   -3.9823  -14.6268 N   0  0  0  0  0  0  0  0  0  0  0  0
   20.4302   -1.7997  -15.2926 C   0  0  0  0  0  0  0  0  0  0  0  0
   21.0932   -1.8009  -14.2251 O   0  0  0  0  0  0  0  0  0  0  0  0
   20.7034   -0.7863  -16.1992 O   0  0  0  0  0  0  0  0  0  0  0  0
  2  1  1  1
  3  2  1  0
  4  3  1  0
  5  6  2  0
  5  4  1  0
  7  8  2  0
  7  2  1  0
  9  5  1  0
 10  7  1  0
 11 10  1  0
 11 14  1  0
 11 12  1  6
 13 12  1  0
 14 21  1  0
 15 14  2  0
 17 16  1  0
 18 17  1  0
 20 19  1  1
 19 18  1  0
 20 22  1  0
 21 20  1  0
 22 23  2  0
 22 24  1  0
M  END
$$$$
