ECM.pdb
     RDKit          3D

 24 23  0  0  1  0  0  0  0  0999 V2000
   19.6172  -13.3201  -16.0762 N   0  0  0  0  0  0  0  0  0  0  0  0
   19.3858  -11.9889  -16.6604 C   0  0  1  0  0  0  0  0  0  0  0  0
   17.9062  -11.7410  -16.5296 C   0  0  0  0  0  0  0  0  0  0  0  0
   17.0397  -12.5454  -17.4258 C   0  0  0  0  0  0  0  0  0  0  0  0
   15.6196  -12.1742  -17.2748 C   0  0  0  0  0  0  0  0  0  0  0  0
   15.0536  -11.4658  -18.1292 O   0  0  0  0  0  0  0  0  0  0  0  0
   20.0585  -10.9428  -15.8396 C   0  0  0  0  0  0  0  0  0  0  0  0
   19.6889  -10.8029  -14.6456 O   0  0  0  0  0  0  0  0  0  0  0  0
   14.8914  -12.6193  -16.1607 O   0  0  0  0  0  0  0  0  0  0  0  0
   21.0774  -10.1021  -16.3092 N   0  0  0  0  0  0  0  0  0  0  0  0
   21.7899   -9.2001  -15.4307 C   0  0  1  0  0  0  0  0  0  0  0  0
   23.2773   -9.5498  -15.5517 C   0  0  0  0  0  0  0  0  0  0  0  0
   23.7237  -10.8218  -14.3395 S   0  0  0  0  0  0  0  0  0  0  0  0
   21.5880   -7.7814  -15.7999 C   0  0  0  0  0  0  0  0  0  0  0  0
   21.7827   -7.4311  -16.9929 O   0  0  0  0  0  0  0  0  0  0  0  0
   17.2206   -1.5062  -15.8155 C   0  0  0  0  0  0  0  0  0  0  0  0
   17.5041   -3.1944  -15.2255 S   0  0  0  0  0  0  0  0  0  0  0  0
   19.2379   -3.5888  -15.4405 C   0  0  0  0  0  0  0  0  0  0  0  0
   19.5735   -5.0123  -15.1438 C   0  0  0  0  0  0  0  0  0  0  0  0
   21.0157   -5.3727  -15.2907 C   0  0  2  0  0  0  0  0  0  0  0  0
   21.1839   -6.7674  -14.8931 N   0  0  0  0  0  0  0  0  0  0  0  0
   21.9532   -4.4854  -14.5766 C   0  0  0  0  0  0  0  0  0  0  0  0
   22.3693   -4.8065  -13.4351 O   0  0  0  0  0  0  0  0  0  0  0  0
   22.4171   -3.2872  -15.0989 O   0  0  0  0  0  0  0  0  0  0  0  0
  2  1  1  1
  3  2  1  0
  4  3  1  0
  5  6  2  0
  5  4  1  0
  7  8  2  0
  7  2  1  0
  9  5  1  0
 10  7  1  0
 11 10  1  0
 11 14  1  0
 11 12  1  6
 13 12  1  0
 14 21  1  0
 15 14  2  0
 17 16  1  0
 18 17  1  0
 20 19  1  1
 19 18  1  0
 20 22  1  0
 21 20  1  0
 22 23  2  0
 22 24  1  0
M  END
$$$$
