ECM.pdb
     RDKit          3D

 24 23  0  0  1  0  0  0  0  0999 V2000
   24.4402  -19.1121  -17.9581 N   0  0  0  0  0  0  0  0  0  0  0  0
   25.2400  -19.9727  -17.0713 C   0  0  1  0  0  0  0  0  0  0  0  0
   26.6771  -19.6291  -17.3618 C   0  0  0  0  0  0  0  0  0  0  0  0
   26.9907  -18.1801  -17.4198 C   0  0  0  0  0  0  0  0  0  0  0  0
   28.4158  -17.9510  -17.7259 C   0  0  0  0  0  0  0  0  0  0  0  0
   28.8938  -18.2975  -18.8230 O   0  0  0  0  0  0  0  0  0  0  0  0
   25.0028  -19.6054  -15.6468 C   0  0  0  0  0  0  0  0  0  0  0  0
   24.7067  -18.4107  -15.3879 O   0  0  0  0  0  0  0  0  0  0  0  0
   29.2485  -17.3370  -16.7777 O   0  0  0  0  0  0  0  0  0  0  0  0
   25.0875  -20.5031  -14.5733 N   0  0  0  0  0  0  0  0  0  0  0  0
   24.5812  -20.1729  -13.2589 C   0  0  1  0  0  0  0  0  0  0  0  0
   23.2258  -20.8749  -13.1192 C   0  0  0  0  0  0  0  0  0  0  0  0
   22.5222  -20.5605  -11.4782 S   0  0  0  0  0  0  0  0  0  0  0  0
   25.4838  -20.6298  -12.1789 C   0  0  0  0  0  0  0  0  0  0  0  0
   25.7382  -21.8583  -12.0797 O   0  0  0  0  0  0  0  0  0  0  0  0
   28.9942  -19.8444   -5.5467 C   0  0  0  0  0  0  0  0  0  0  0  0
   28.7527  -19.5177   -7.3113 S   0  0  0  0  0  0  0  0  0  0  0  0
   27.0050  -19.2622   -7.6086 C   0  0  0  0  0  0  0  0  0  0  0  0
   26.6698  -18.9935   -9.0377 C   0  0  0  0  0  0  0  0  0  0  0  0
   26.4465  -20.2064   -9.8806 C   0  0  2  0  0  0  0  0  0  0  0  0
   26.0955  -19.7709  -11.2292 N   0  0  0  0  0  0  0  0  0  0  0  0
   25.4607  -21.1631   -9.3428 C   0  0  0  0  0  0  0  0  0  0  0  0
   25.8329  -22.3105   -8.9901 O   0  0  0  0  0  0  0  0  0  0  0  0
   24.1131  -20.8689   -9.1976 O   0  0  0  0  0  0  0  0  0  0  0  0
  2  1  1  6
  3  2  1  0
  4  3  1  0
  5  6  2  0
  5  4  1  0
  7  8  2  0
  7  2  1  0
  9  5  1  0
 10  7  1  0
 11 10  1  0
 11 14  1  0
 11 12  1  1
 13 12  1  0
 14 21  1  0
 15 14  2  0
 17 16  1  0
 18 17  1  0
 20 19  1  1
 19 18  1  0
 20 22  1  0
 21 20  1  0
 22 23  2  0
 22 24  1  0
M  END
$$$$
