ECM.pdb
     RDKit          3D

 24 23  0  0  1  0  0  0  0  0999 V2000
   19.1760  -12.8323  -16.7716 N   0  0  0  0  0  0  0  0  0  0  0  0
   18.7433  -11.4255  -16.7964 C   0  0  1  0  0  0  0  0  0  0  0  0
   17.3941  -11.4050  -16.1277 C   0  0  0  0  0  0  0  0  0  0  0  0
   16.2721  -11.9498  -16.9310 C   0  0  0  0  0  0  0  0  0  0  0  0
   14.9860  -11.8099  -16.2213 C   0  0  0  0  0  0  0  0  0  0  0  0
   14.2430  -10.8338  -16.4390 O   0  0  0  0  0  0  0  0  0  0  0  0
   19.6429  -10.5954  -15.9466 C   0  0  0  0  0  0  0  0  0  0  0  0
   20.2535  -11.1634  -15.0051 O   0  0  0  0  0  0  0  0  0  0  0  0
   14.5877  -12.7816  -15.2903 O   0  0  0  0  0  0  0  0  0  0  0  0
   19.8551   -9.2212  -16.1257 N   0  0  0  0  0  0  0  0  0  0  0  0
   20.8542   -8.4972  -15.3705 C   0  0  1  0  0  0  0  0  0  0  0  0
   22.1946   -9.1934  -15.6314 C   0  0  0  0  0  0  0  0  0  0  0  0
   23.5528   -8.2284  -14.9166 S   0  0  0  0  0  0  0  0  0  0  0  0
   20.9499   -7.0790  -15.7821 C   0  0  0  0  0  0  0  0  0  0  0  0
   21.2747   -6.8119  -16.9683 O   0  0  0  0  0  0  0  0  0  0  0  0
   17.7149   -0.2172  -16.3950 C   0  0  0  0  0  0  0  0  0  0  0  0
   17.6618   -1.9161  -15.7707 S   0  0  0  0  0  0  0  0  0  0  0  0
   19.3325   -2.5603  -15.7315 C   0  0  0  0  0  0  0  0  0  0  0  0
   19.4137   -4.0025  -15.3565 C   0  0  0  0  0  0  0  0  0  0  0  0
   20.7868   -4.5903  -15.3717 C   0  0  2  0  0  0  0  0  0  0  0  0
   20.6983   -5.9771  -14.9239 N   0  0  0  0  0  0  0  0  0  0  0  0
   21.7947   -3.8333  -14.6052 C   0  0  0  0  0  0  0  0  0  0  0  0
   22.0947   -4.1965  -13.4401 O   0  0  0  0  0  0  0  0  0  0  0  0
   22.4498   -2.7163  -15.1019 O   0  0  0  0  0  0  0  0  0  0  0  0
  2  1  1  1
  3  2  1  0
  4  3  1  0
  5  6  2  0
  5  4  1  0
  7  8  2  0
  7  2  1  0
  9  5  1  0
 10  7  1  0
 11 10  1  0
 11 14  1  0
 11 12  1  6
 13 12  1  0
 14 21  1  0
 15 14  2  0
 17 16  1  0
 18 17  1  0
 20 19  1  1
 19 18  1  0
 20 22  1  0
 21 20  1  0
 22 23  2  0
 22 24  1  0
M  END
$$$$
