ECM.pdb
     RDKit          3D

 24 23  0  0  1  0  0  0  0  0999 V2000
   26.8049  -18.1543  -17.6126 N   0  0  0  0  0  0  0  0  0  0  0  0
   27.2086  -19.1870  -16.6445 C   0  0  1  0  0  0  0  0  0  0  0  0
   28.6149  -18.8334  -16.2381 C   0  0  0  0  0  0  0  0  0  0  0  0
   29.6564  -19.0588  -17.2704 C   0  0  0  0  0  0  0  0  0  0  0  0
   29.4814  -20.3653  -17.9335 C   0  0  0  0  0  0  0  0  0  0  0  0
   29.2482  -20.4314  -19.1556 O   0  0  0  0  0  0  0  0  0  0  0  0
   26.3799  -19.0871  -15.4100 C   0  0  0  0  0  0  0  0  0  0  0  0
   26.3238  -17.9743  -14.8266 O   0  0  0  0  0  0  0  0  0  0  0  0
   29.5771  -21.5503  -17.1879 O   0  0  0  0  0  0  0  0  0  0  0  0
   25.6571  -20.1518  -14.8537 N   0  0  0  0  0  0  0  0  0  0  0  0
   24.8422  -19.9865  -13.6699 C   0  0  1  0  0  0  0  0  0  0  0  0
   23.4355  -20.4767  -14.0309 C   0  0  0  0  0  0  0  0  0  0  0  0
   22.3923  -20.5369  -12.5493 S   0  0  0  0  0  0  0  0  0  0  0  0
   25.3545  -20.7682  -12.5225 C   0  0  0  0  0  0  0  0  0  0  0  0
   25.3263  -22.0249  -12.5833 O   0  0  0  0  0  0  0  0  0  0  0  0
   29.0900  -18.9736   -7.5573 C   0  0  0  0  0  0  0  0  0  0  0  0
   27.7420  -19.6779   -6.5747 S   0  0  0  0  0  0  0  0  0  0  0  0
   26.6455  -20.5731   -7.6721 C   0  0  0  0  0  0  0  0  0  0  0  0
   26.7294  -20.1357   -9.0964 C   0  0  0  0  0  0  0  0  0  0  0  0
   25.8445  -20.8759  -10.0453 C   0  0  2  0  0  0  0  0  0  0  0  0
   25.8851  -20.1966  -11.3370 N   0  0  0  0  0  0  0  0  0  0  0  0
   24.4597  -21.0738   -9.5767 C   0  0  0  0  0  0  0  0  0  0  0  0
   23.5698  -20.2444   -9.8923 O   0  0  0  0  0  0  0  0  0  0  0  0
   24.0669  -22.1456   -8.7890 O   0  0  0  0  0  0  0  0  0  0  0  0
  2  1  1  6
  3  2  1  0
  4  3  1  0
  5  6  2  0
  5  4  1  0
  7  8  2  0
  7  2  1  0
  9  5  1  0
 10  7  1  0
 11 10  1  0
 11 14  1  0
 11 12  1  6
 13 12  1  0
 14 21  1  0
 15 14  2  0
 17 16  1  0
 18 17  1  0
 20 19  1  1
 19 18  1  0
 20 22  1  0
 21 20  1  0
 22 23  2  0
 22 24  1  0
M  END
$$$$
