ECM.pdb
     RDKit          3D

 24 23  0  0  1  0  0  0  0  0999 V2000
   17.7574  -10.3285  -14.4614 N   0  0  0  0  0  0  0  0  0  0  0  0
   18.7695   -9.6361  -15.2757 C   0  0  1  0  0  0  0  0  0  0  0  0
   18.0818   -9.2932  -16.5708 C   0  0  0  0  0  0  0  0  0  0  0  0
   16.6248   -9.5693  -16.6157 C   0  0  0  0  0  0  0  0  0  0  0  0
   16.0558   -9.2372  -17.9360 C   0  0  0  0  0  0  0  0  0  0  0  0
   15.7468  -10.1378  -18.7395 O   0  0  0  0  0  0  0  0  0  0  0  0
   19.1391   -8.3385  -14.6431 C   0  0  0  0  0  0  0  0  0  0  0  0
   18.2986   -7.7932  -13.8828 O   0  0  0  0  0  0  0  0  0  0  0  0
   15.8571   -7.8961  -18.2985 O   0  0  0  0  0  0  0  0  0  0  0  0
   20.3629   -7.6829  -14.8384 N   0  0  0  0  0  0  0  0  0  0  0  0
   20.6691   -6.4265  -14.1900 C   0  0  1  0  0  0  0  0  0  0  0  0
   22.1971   -6.3141  -14.1454 C   0  0  0  0  0  0  0  0  0  0  0  0
   22.6891   -4.7488  -13.3743 S   0  0  0  0  0  0  0  0  0  0  0  0
   20.1132   -5.2670  -14.9225 C   0  0  0  0  0  0  0  0  0  0  0  0
   20.1924   -5.2479  -16.1783 O   0  0  0  0  0  0  0  0  0  0  0  0
   14.1089   -0.9809  -16.5980 C   0  0  0  0  0  0  0  0  0  0  0  0
   14.8798   -2.2538  -15.5662 S   0  0  0  0  0  0  0  0  0  0  0  0
   16.6587   -2.0855  -15.6892 C   0  0  0  0  0  0  0  0  0  0  0  0
   17.4159   -3.1686  -14.9958 C   0  0  0  0  0  0  0  0  0  0  0  0
   18.9036   -3.0522  -15.0635 C   0  0  2  0  0  0  0  0  0  0  0  0
   19.4860   -4.1546  -14.3037 N   0  0  0  0  0  0  0  0  0  0  0  0
   19.4444   -1.7486  -14.6342 C   0  0  0  0  0  0  0  0  0  0  0  0
   19.9791   -1.6371  -13.5024 O   0  0  0  0  0  0  0  0  0  0  0  0
   19.3992   -0.6076  -15.4214 O   0  0  0  0  0  0  0  0  0  0  0  0
  2  1  1  1
  3  2  1  0
  4  3  1  0
  5  6  2  0
  5  4  1  0
  7  8  2  0
  7  2  1  0
  9  5  1  0
 10  7  1  0
 11 10  1  0
 11 14  1  0
 11 12  1  6
 13 12  1  0
 14 21  1  0
 15 14  2  0
 17 16  1  0
 18 17  1  0
 20 19  1  1
 19 18  1  0
 20 22  1  0
 21 20  1  0
 22 23  2  0
 22 24  1  0
M  END
$$$$
