ECM.pdb
     RDKit          3D

 24 23  0  0  1  0  0  0  0  0999 V2000
   25.5997  -19.0022  -16.2700 N   0  0  0  0  0  0  0  0  0  0  0  0
   26.1290  -19.9194  -15.2476 C   0  0  1  0  0  0  0  0  0  0  0  0
   27.6047  -19.6298  -15.1689 C   0  0  0  0  0  0  0  0  0  0  0  0
   28.4912  -20.8193  -15.1479 C   0  0  0  0  0  0  0  0  0  0  0  0
   28.2725  -21.6730  -16.3314 C   0  0  0  0  0  0  0  0  0  0  0  0
   27.7870  -22.8140  -16.2109 O   0  0  0  0  0  0  0  0  0  0  0  0
   25.5653  -19.5803  -13.9106 C   0  0  0  0  0  0  0  0  0  0  0  0
   25.3795  -18.3660  -13.6404 O   0  0  0  0  0  0  0  0  0  0  0  0
   28.6117  -21.2028  -17.6095 O   0  0  0  0  0  0  0  0  0  0  0  0
   25.2272  -20.5249  -12.9314 N   0  0  0  0  0  0  0  0  0  0  0  0
   24.6573  -20.1371  -11.6595 C   0  0  1  0  0  0  0  0  0  0  0  0
   23.1604  -20.4587  -11.7305 C   0  0  0  0  0  0  0  0  0  0  0  0
   22.3894  -20.2205  -10.1070 S   0  0  0  0  0  0  0  0  0  0  0  0
   25.2633  -20.8708  -10.5262 C   0  0  0  0  0  0  0  0  0  0  0  0
   25.2471  -22.1290  -10.5396 O   0  0  0  0  0  0  0  0  0  0  0  0
   27.7156  -17.9340   -5.0790 C   0  0  0  0  0  0  0  0  0  0  0  0
   28.4775  -19.5758   -5.0276 S   0  0  0  0  0  0  0  0  0  0  0  0
   27.5008  -20.6882   -6.0358 C   0  0  0  0  0  0  0  0  0  0  0  0
   27.1080  -20.1163   -7.3571 C   0  0  0  0  0  0  0  0  0  0  0  0
   26.2173  -20.9806   -8.1882 C   0  0  2  0  0  0  0  0  0  0  0  0
   25.8727  -20.2505   -9.4046 N   0  0  0  0  0  0  0  0  0  0  0  0
   25.0157  -21.4821   -7.4945 C   0  0  0  0  0  0  0  0  0  0  0  0
   23.9399  -20.8364   -7.5644 O   0  0  0  0  0  0  0  0  0  0  0  0
   24.9975  -22.6522   -6.7502 O   0  0  0  0  0  0  0  0  0  0  0  0
  2  1  1  6
  3  2  1  0
  4  3  1  0
  5  6  2  0
  5  4  1  0
  7  8  2  0
  7  2  1  0
  9  5  1  0
 10  7  1  0
 11 10  1  0
 11 14  1  0
 11 12  1  6
 13 12  1  0
 14 21  1  0
 15 14  2  0
 17 16  1  0
 18 17  1  0
 20 19  1  1
 19 18  1  0
 20 22  1  0
 21 20  1  0
 22 23  2  0
 22 24  1  0
M  END
$$$$
