ECM.pdb
     RDKit          3D

 24 23  0  0  1  0  0  0  0  0999 V2000
   19.6087  -11.1005  -16.5483 N   0  0  0  0  0  0  0  0  0  0  0  0
   20.6203  -10.0469  -16.7310 C   0  0  1  0  0  0  0  0  0  0  0  0
   20.4938   -9.6085  -18.1661 C   0  0  0  0  0  0  0  0  0  0  0  0
   21.0790  -10.5292  -19.1717 C   0  0  0  0  0  0  0  0  0  0  0  0
   21.8541   -9.7918  -20.1880 C   0  0  0  0  0  0  0  0  0  0  0  0
   21.8542  -10.1606  -21.3780 O   0  0  0  0  0  0  0  0  0  0  0  0
   20.2805   -8.8576  -15.8999 C   0  0  0  0  0  0  0  0  0  0  0  0
   19.0801   -8.4835  -15.8698 O   0  0  0  0  0  0  0  0  0  0  0  0
   22.6013   -8.6625  -19.8193 O   0  0  0  0  0  0  0  0  0  0  0  0
   21.2102   -8.1260  -15.1477 N   0  0  0  0  0  0  0  0  0  0  0  0
   20.8128   -7.0101  -14.3171 C   0  0  1  0  0  0  0  0  0  0  0  0
   21.3180   -7.3120  -12.9018 C   0  0  0  0  0  0  0  0  0  0  0  0
   20.6181   -8.8745  -12.3054 S   0  0  0  0  0  0  0  0  0  0  0  0
   21.3922   -5.7303  -14.7820 C   0  0  0  0  0  0  0  0  0  0  0  0
   22.6193   -5.6840  -15.0570 O   0  0  0  0  0  0  0  0  0  0  0  0
   20.3873    0.8119  -18.9028 C   0  0  0  0  0  0  0  0  0  0  0  0
   19.6893   -0.7375  -18.2776 S   0  0  0  0  0  0  0  0  0  0  0  0
   20.7863   -1.3896  -17.0210 C   0  0  0  0  0  0  0  0  0  0  0  0
   20.3640   -2.7154  -16.4814 C   0  0  0  0  0  0  0  0  0  0  0  0
   21.2563   -3.2912  -15.4309 C   0  0  2  0  0  0  0  0  0  0  0  0
   20.6542   -4.5290  -14.9442 N   0  0  0  0  0  0  0  0  0  0  0  0
   21.5850   -2.3729  -14.3241 C   0  0  0  0  0  0  0  0  0  0  0  0
   22.4251   -1.4556  -14.5031 O   0  0  0  0  0  0  0  0  0  0  0  0
   21.0104   -2.4599  -13.0648 O   0  0  0  0  0  0  0  0  0  0  0  0
  2  1  1  1
  3  2  1  0
  4  3  1  0
  5  6  2  0
  5  4  1  0
  7  8  2  0
  7  2  1  0
  9  5  1  0
 10  7  1  0
 11 10  1  0
 11 14  1  0
 11 12  1  1
 13 12  1  0
 14 21  1  0
 15 14  2  0
 17 16  1  0
 18 17  1  0
 20 19  1  6
 19 18  1  0
 20 22  1  0
 21 20  1  0
 22 23  2  0
 22 24  1  0
M  END
$$$$
