ECM.pdb
     RDKit          3D

 24 23  0  0  1  0  0  0  0  0999 V2000
   17.9125  -10.5736  -15.2816 N   0  0  0  0  0  0  0  0  0  0  0  0
   18.3047  -10.1619  -13.9239 C   0  0  1  0  0  0  0  0  0  0  0  0
   19.2248   -8.9841  -14.1078 C   0  0  0  0  0  0  0  0  0  0  0  0
   20.5758   -9.3017  -14.6323 C   0  0  0  0  0  0  0  0  0  0  0  0
   21.3795   -8.0788  -14.8217 C   0  0  0  0  0  0  0  0  0  0  0  0
   21.6807   -7.6872  -15.9655 O   0  0  0  0  0  0  0  0  0  0  0  0
   17.1193   -9.6530  -13.1780 C   0  0  0  0  0  0  0  0  0  0  0  0
   16.2428   -9.0231  -13.8238 O   0  0  0  0  0  0  0  0  0  0  0  0
   21.8129   -7.3430  -13.7080 O   0  0  0  0  0  0  0  0  0  0  0  0
   16.9144   -9.8289  -11.8023 N   0  0  0  0  0  0  0  0  0  0  0  0
   15.7057   -9.3806  -11.1459 C   0  0  1  0  0  0  0  0  0  0  0  0
   15.1941  -10.5595  -10.3106 C   0  0  0  0  0  0  0  0  0  0  0  0
   13.7872  -10.0426   -9.2907 S   0  0  0  0  0  0  0  0  0  0  0  0
   15.9458   -8.2196  -10.2602 C   0  0  0  0  0  0  0  0  0  0  0  0
   16.8627   -8.2911   -9.4012 O   0  0  0  0  0  0  0  0  0  0  0  0
   15.9065   -0.4312   -9.5973 C   0  0  0  0  0  0  0  0  0  0  0  0
   15.5237   -1.8895  -10.6000 S   0  0  0  0  0  0  0  0  0  0  0  0
   15.6980   -3.3472   -9.5741 C   0  0  0  0  0  0  0  0  0  0  0  0
   15.4674   -4.6286  -10.3035 C   0  0  0  0  0  0  0  0  0  0  0  0
   15.5147   -5.8610   -9.4607 C   0  0  2  0  0  0  0  0  0  0  0  0
   15.2063   -7.0094  -10.3078 N   0  0  0  0  0  0  0  0  0  0  0  0
   14.6596   -5.8245   -8.2591 C   0  0  0  0  0  0  0  0  0  0  0  0
   13.5432   -6.4013   -8.2702 O   0  0  0  0  0  0  0  0  0  0  0  0
   15.0191   -5.1767   -7.0866 O   0  0  0  0  0  0  0  0  0  0  0  0
  2  1  1  6
  3  2  1  0
  4  3  1  0
  5  6  2  0
  5  4  1  0
  7  8  2  0
  7  2  1  0
  9  5  1  0
 10  7  1  0
 11 10  1  0
 11 14  1  0
 11 12  1  1
 13 12  1  0
 14 21  1  0
 15 14  2  0
 17 16  1  0
 18 17  1  0
 20 19  1  6
 19 18  1  0
 20 22  1  0
 21 20  1  0
 22 23  2  0
 22 24  1  0
M  END
$$$$
