DLK.pdb
     RDKit          3D

 26 25  0  0  1  0  0  0  0  0999 V2000
   21.9558  -13.7948  -18.0993 N   0  0  0  0  0  0  0  0  0  0  0  0
   22.5274  -12.6723  -18.8422 C   0  0  1  0  0  0  0  0  0  0  0  0
   21.5122  -12.3279  -19.9224 C   0  0  0  0  0  0  0  0  0  0  0  0
   21.4590  -13.4563  -20.9141 C   0  0  0  0  0  0  0  0  0  0  0  0
   22.4924  -13.9318  -21.4329 O   0  0  0  0  0  0  0  0  0  0  0  0
   22.6102  -11.5206  -17.9108 C   0  0  0  0  0  0  0  0  0  0  0  0
   21.6597  -11.2315  -17.1086 O   0  0  0  0  0  0  0  0  0  0  0  0
   20.2293  -13.9826  -21.2615 O   0  0  0  0  0  0  0  0  0  0  0  0
   25.2938  -10.7873  -14.6860 C   0  0  0  0  0  0  0  0  0  0  0  0
   25.9802  -10.4581  -16.0127 C   0  0  2  0  0  0  0  0  0  0  0  0
   27.4325  -10.2688  -15.7440 C   0  0  0  0  0  0  0  0  0  0  0  0
   25.2741   -9.2446  -16.5687 C   0  0  0  0  0  0  0  0  0  0  0  0
   23.8463   -9.5128  -16.9763 C   0  0  2  0  0  0  0  0  0  0  0  0
   23.7442  -10.6650  -17.8464 N   0  0  0  0  0  0  0  0  0  0  0  0
   23.0941   -8.3503  -17.4324 C   0  0  0  0  0  0  0  0  0  0  0  0
   23.2795   -7.9282  -18.6200 O   0  0  0  0  0  0  0  0  0  0  0  0
   22.1621   -7.6522  -16.6420 N   0  0  0  0  0  0  0  0  0  0  0  0
   21.4436   -6.4308  -17.1694 C   0  0  1  0  0  0  0  0  0  0  0  0
   19.9959   -6.7862  -17.1832 C   0  0  0  0  0  0  0  0  0  0  0  0
   18.9621   -5.8556  -17.5826 C   0  0  0  0  0  0  0  0  0  0  0  0
   17.5429   -6.2083  -17.6911 C   0  0  0  0  0  0  0  0  0  0  0  0
   16.6955   -5.0390  -18.1738 C   0  0  0  0  0  0  0  0  0  0  0  0
   15.3032   -5.4908  -18.1444 N   0  0  0  0  0  0  0  0  0  0  0  0
   21.8936   -5.2918  -16.3980 C   0  0  0  0  0  0  0  0  0  0  0  0
   21.8690   -3.9956  -16.8229 O   0  0  0  0  0  0  0  0  0  0  0  0
   22.3725   -5.4559  -15.2118 O   0  0  0  0  0  0  0  0  0  0  0  0
  2  1  1  1
  2  3  1  0
  3  4  1  0
  4  8  1  0
  5  4  2  0
  6  7  2  0
  6  2  1  0
 10 11  1  1
 10  9  1  0
 10 12  1  0
 13 12  1  6
 13 14  1  0
 14  6  1  0
 15 13  1  0
 16 15  2  0
 17 15  1  0
 18 17  1  0
 19 20  1  0
 18 19  1  1
 20 21  1  0
 21 22  1  0
 23 22  1  0
 24 18  1  0
 24 25  1  0
 26 24  2  0
M  END
$$$$
