DLK.pdb
     RDKit          3D

 26 25  0  0  1  0  0  0  0  0999 V2000
   16.9567  -12.5549  -16.1858 N   0  0  0  0  0  0  0  0  0  0  0  0
   17.2491  -11.2374  -16.7490 C   0  0  1  0  0  0  0  0  0  0  0  0
   15.9278  -10.4823  -16.7494 C   0  0  0  0  0  0  0  0  0  0  0  0
   15.0036  -11.1246  -17.7459 C   0  0  0  0  0  0  0  0  0  0  0  0
   15.3191  -11.2650  -18.9476 O   0  0  0  0  0  0  0  0  0  0  0  0
   18.1676  -10.5479  -15.8100 C   0  0  0  0  0  0  0  0  0  0  0  0
   18.0783  -10.6989  -14.5451 O   0  0  0  0  0  0  0  0  0  0  0  0
   13.7681  -11.5727  -17.3186 O   0  0  0  0  0  0  0  0  0  0  0  0
   23.2831   -8.3194  -15.2877 C   0  0  0  0  0  0  0  0  0  0  0  0
   22.4909   -9.2654  -14.3838 C   0  0  2  0  0  0  0  0  0  0  0  0
   23.4497  -10.2263  -13.7718 C   0  0  0  0  0  0  0  0  0  0  0  0
   21.4283   -9.8953  -15.2524 C   0  0  0  0  0  0  0  0  0  0  0  0
   20.1758   -9.0623  -15.3710 C   0  0  2  0  0  0  0  0  0  0  0  0
   19.2033   -9.6778  -16.2488 N   0  0  0  0  0  0  0  0  0  0  0  0
   20.3874   -7.6408  -15.6158 C   0  0  0  0  0  0  0  0  0  0  0  0
   20.8182   -7.2733  -16.7570 O   0  0  0  0  0  0  0  0  0  0  0  0
   20.1437   -6.6307  -14.6666 N   0  0  0  0  0  0  0  0  0  0  0  0
   20.3021   -5.1685  -15.0176 C   0  0  1  0  0  0  0  0  0  0  0  0
   18.9800   -4.5388  -14.7383 C   0  0  0  0  0  0  0  0  0  0  0  0
   18.7420   -3.1179  -14.8749 C   0  0  0  0  0  0  0  0  0  0  0  0
   17.4188   -2.4964  -14.7593 C   0  0  0  0  0  0  0  0  0  0  0  0
   17.4384   -1.0257  -15.1532 C   0  0  0  0  0  0  0  0  0  0  0  0
   16.0495   -0.5639  -15.1158 N   0  0  0  0  0  0  0  0  0  0  0  0
   21.4843   -4.6817  -14.3392 C   0  0  0  0  0  0  0  0  0  0  0  0
   22.2780   -3.6620  -14.7772 O   0  0  0  0  0  0  0  0  0  0  0  0
   21.8703   -5.2215  -13.2333 O   0  0  0  0  0  0  0  0  0  0  0  0
  2  1  1  1
  2  3  1  0
  3  4  1  0
  4  8  1  0
  5  4  2  0
  6  7  2  0
  6  2  1  0
 10 11  1  6
 10  9  1  0
 10 12  1  0
 13 12  1  6
 13 14  1  0
 14  6  1  0
 15 13  1  0
 16 15  2  0
 17 15  1  0
 18 17  1  0
 19 20  1  0
 18 19  1  1
 20 21  1  0
 21 22  1  0
 23 22  1  0
 24 18  1  0
 24 25  1  0
 26 24  2  0
M  END
$$$$
