DLK.pdb
     RDKit          3D

 26 25  0  0  1  0  0  0  0  0999 V2000
   27.5677  -22.2258  -16.9662 N   0  0  0  0  0  0  0  0  0  0  0  0
   27.3801  -20.9995  -16.1917 C   0  0  1  0  0  0  0  0  0  0  0  0
   26.7172  -20.0077  -17.1365 C   0  0  0  0  0  0  0  0  0  0  0  0
   27.7754  -19.3810  -18.0007 C   0  0  0  0  0  0  0  0  0  0  0  0
   27.5058  -18.4961  -18.8418 O   0  0  0  0  0  0  0  0  0  0  0  0
   26.4188  -21.3051  -15.1039 C   0  0  0  0  0  0  0  0  0  0  0  0
   25.4944  -22.1748  -15.2444 O   0  0  0  0  0  0  0  0  0  0  0  0
   29.0857  -19.7971  -17.8595 O   0  0  0  0  0  0  0  0  0  0  0  0
   23.9141  -20.2563  -10.3358 C   0  0  0  0  0  0  0  0  0  0  0  0
   25.2535  -20.9909  -10.2591 C   0  0  2  0  0  0  0  0  0  0  0  0
   25.8471  -20.7253   -8.9196 C   0  0  0  0  0  0  0  0  0  0  0  0
   26.0764  -20.5005  -11.4265 C   0  0  0  0  0  0  0  0  0  0  0  0
   25.5152  -20.9003  -12.7689 C   0  0  2  0  0  0  0  0  0  0  0  0
   26.4588  -20.6564  -13.8390 N   0  0  0  0  0  0  0  0  0  0  0  0
   24.1616  -20.4362  -13.0475 C   0  0  0  0  0  0  0  0  0  0  0  0
   23.9274  -19.1841  -13.0288 O   0  0  0  0  0  0  0  0  0  0  0  0
   23.0795  -21.2866  -13.3420 N   0  0  0  0  0  0  0  0  0  0  0  0
   21.7011  -20.7340  -13.6263 C   0  0  1  0  0  0  0  0  0  0  0  0
   21.2150  -21.4585  -14.8352 C   0  0  0  0  0  0  0  0  0  0  0  0
   19.9410  -21.1764  -15.4609 C   0  0  0  0  0  0  0  0  0  0  0  0
   19.4267  -21.8988  -16.6288 C   0  0  0  0  0  0  0  0  0  0  0  0
   18.1574  -21.2662  -17.1826 C   0  0  0  0  0  0  0  0  0  0  0  0
   17.8115  -22.0128  -18.3936 N   0  0  0  0  0  0  0  0  0  0  0  0
   20.9406  -20.8025  -12.3968 C   0  0  0  0  0  0  0  0  0  0  0  0
   20.0152  -19.8850  -11.9929 O   0  0  0  0  0  0  0  0  0  0  0  0
   21.1154  -21.7816  -11.5756 O   0  0  0  0  0  0  0  0  0  0  0  0
  2  1  1  6
  2  3  1  0
  3  4  1  0
  4  8  1  0
  5  4  2  0
  6  7  2  0
  6  2  1  0
 10 11  1  1
 10  9  1  0
 10 12  1  0
 13 12  1  1
 13 14  1  0
 14  6  1  0
 15 13  1  0
 16 15  2  0
 17 15  1  0
 18 17  1  0
 19 20  1  0
 18 19  1  6
 20 21  1  0
 21 22  1  0
 23 22  1  0
 24 18  1  0
 24 25  1  0
 26 24  2  0
M  END
$$$$
