DLK.pdb
     RDKit          3D

 26 25  0  0  1  0  0  0  0  0999 V2000
   21.2196  -13.6508  -19.3769 N   0  0  0  0  0  0  0  0  0  0  0  0
   20.2193  -13.1697  -18.4248 C   0  0  1  0  0  0  0  0  0  0  0  0
   19.7011  -14.4064  -17.7049 C   0  0  0  0  0  0  0  0  0  0  0  0
   18.9734  -15.2730  -18.6944 C   0  0  0  0  0  0  0  0  0  0  0  0
   18.5165  -14.8165  -19.7649 O   0  0  0  0  0  0  0  0  0  0  0  0
   20.9247  -12.3253  -17.4297 C   0  0  0  0  0  0  0  0  0  0  0  0
   20.3662  -11.9529  -16.3433 O   0  0  0  0  0  0  0  0  0  0  0  0
   18.8055  -16.6149  -18.4101 O   0  0  0  0  0  0  0  0  0  0  0  0
   26.6713  -10.3935  -16.1572 C   0  0  0  0  0  0  0  0  0  0  0  0
   25.1862  -10.2220  -15.8339 C   0  0  2  0  0  0  0  0  0  0  0  0
   24.9959  -10.5047  -14.3844 C   0  0  0  0  0  0  0  0  0  0  0  0
   24.4375  -11.1462  -16.7644 C   0  0  0  0  0  0  0  0  0  0  0  0
   22.9409  -10.9578  -16.7246 C   0  0  2  0  0  0  0  0  0  0  0  0
   22.2609  -11.8751  -17.6141 N   0  0  0  0  0  0  0  0  0  0  0  0
   22.4785   -9.5786  -16.8198 C   0  0  0  0  0  0  0  0  0  0  0  0
   22.6764   -8.9397  -17.9041 O   0  0  0  0  0  0  0  0  0  0  0  0
   21.8170   -8.8935  -15.7835 N   0  0  0  0  0  0  0  0  0  0  0  0
   21.2615   -7.5026  -15.9910 C   0  0  1  0  0  0  0  0  0  0  0  0
   19.7901   -7.6745  -16.1586 C   0  0  0  0  0  0  0  0  0  0  0  0
   19.1686   -7.9176  -17.4427 C   0  0  0  0  0  0  0  0  0  0  0  0
   17.7216   -8.0547  -17.6372 C   0  0  0  0  0  0  0  0  0  0  0  0
   17.3600   -8.3203  -19.0922 C   0  0  0  0  0  0  0  0  0  0  0  0
   15.9298   -8.6324  -19.1178 N   0  0  0  0  0  0  0  0  0  0  0  0
   21.7674   -6.6661  -14.9238 C   0  0  0  0  0  0  0  0  0  0  0  0
   21.9608   -5.3180  -15.0062 O   0  0  0  0  0  0  0  0  0  0  0  0
   22.0844   -7.1823  -13.7851 O   0  0  0  0  0  0  0  0  0  0  0  0
  2  1  1  6
  2  3  1  0
  3  4  1  0
  4  8  1  0
  5  4  2  0
  6  7  2  0
  6  2  1  0
 10 11  1  1
 10  9  1  0
 10 12  1  0
 13 12  1  6
 13 14  1  0
 14  6  1  0
 15 13  1  0
 16 15  2  0
 17 15  1  0
 18 17  1  0
 19 20  1  0
 18 19  1  1
 20 21  1  0
 21 22  1  0
 23 22  1  0
 24 18  1  0
 24 25  1  0
 26 24  2  0
M  END
$$$$
