DLK.pdb
     RDKit          3D

 26 25  0  0  1  0  0  0  0  0999 V2000
   35.0092   -3.6192  -15.5684 N   0  0  0  0  0  0  0  0  0  0  0  0
   34.2258   -4.6290  -14.8576 C   0  0  1  0  0  0  0  0  0  0  0  0
   32.9314   -3.9405  -14.4497 C   0  0  0  0  0  0  0  0  0  0  0  0
   33.2215   -2.9969  -13.3161 C   0  0  0  0  0  0  0  0  0  0  0  0
   33.0185   -1.7667  -13.4095 O   0  0  0  0  0  0  0  0  0  0  0  0
   33.8875   -5.6947  -15.8326 C   0  0  0  0  0  0  0  0  0  0  0  0
   33.6386   -5.4346  -17.0578 O   0  0  0  0  0  0  0  0  0  0  0  0
   33.7280   -3.5067  -12.1358 O   0  0  0  0  0  0  0  0  0  0  0  0
   36.0585   -9.2518  -17.2034 C   0  0  0  0  0  0  0  0  0  0  0  0
   35.4908   -9.4871  -15.8027 C   0  0  2  0  0  0  0  0  0  0  0  0
   36.0531  -10.7662  -15.2880 C   0  0  0  0  0  0  0  0  0  0  0  0
   33.9873   -9.4655  -15.9426 C   0  0  0  0  0  0  0  0  0  0  0  0
   33.4429   -8.1297  -16.3855 C   0  0  2  0  0  0  0  0  0  0  0  0
   33.8171   -7.0691  -15.4743 N   0  0  0  0  0  0  0  0  0  0  0  0
   32.0365   -8.1204  -16.7691 C   0  0  0  0  0  0  0  0  0  0  0  0
   31.1520   -8.0825  -15.8530 O   0  0  0  0  0  0  0  0  0  0  0  0
   31.5802   -8.1484  -18.1002 N   0  0  0  0  0  0  0  0  0  0  0  0
   30.1044   -8.2088  -18.4235 C   0  0  1  0  0  0  0  0  0  0  0  0
   29.9119   -7.3227  -19.6069 C   0  0  0  0  0  0  0  0  0  0  0  0
   28.6205   -7.1028  -20.2219 C   0  0  0  0  0  0  0  0  0  0  0  0
   28.3986   -6.1986  -21.3548 C   0  0  0  0  0  0  0  0  0  0  0  0
   26.9210   -6.0518  -21.6919 C   0  0  0  0  0  0  0  0  0  0  0  0
   26.8418   -5.1499  -22.8426 N   0  0  0  0  0  0  0  0  0  0  0  0
   29.7318   -9.6048  -18.5065 C   0  0  0  0  0  0  0  0  0  0  0  0
   30.5826  -10.6289  -18.8047 O   0  0  0  0  0  0  0  0  0  0  0  0
   28.5116   -9.9675  -18.2997 O   0  0  0  0  0  0  0  0  0  0  0  0
  2  1  1  6
  2  3  1  0
  3  4  1  0
  4  8  1  0
  5  4  2  0
  6  7  2  0
  6  2  1  0
 10 11  1  6
 10  9  1  0
 10 12  1  0
 13 12  1  1
 13 14  1  0
 14  6  1  0
 15 13  1  0
 16 15  2  0
 17 15  1  0
 18 17  1  0
 19 20  1  0
 18 19  1  6
 20 21  1  0
 21 22  1  0
 23 22  1  0
 24 18  1  0
 24 25  1  0
 26 24  2  0
M  END
$$$$
