DLK.pdb
     RDKit          3D

 26 25  0  0  1  0  0  0  0  0999 V2000
   28.2238  -16.1811  -19.7412 N   0  0  0  0  0  0  0  0  0  0  0  0
   28.5768  -14.9225  -20.3969 C   0  0  1  0  0  0  0  0  0  0  0  0
   27.4410  -14.6246  -21.3650 C   0  0  0  0  0  0  0  0  0  0  0  0
   27.4840  -15.6268  -22.4846 C   0  0  0  0  0  0  0  0  0  0  0  0
   28.5621  -16.0211  -22.9800 O   0  0  0  0  0  0  0  0  0  0  0  0
   28.5774  -13.8655  -19.3561 C   0  0  0  0  0  0  0  0  0  0  0  0
   27.6757  -13.8058  -18.4539 O   0  0  0  0  0  0  0  0  0  0  0  0
   26.2944  -16.1262  -22.9798 O   0  0  0  0  0  0  0  0  0  0  0  0
   31.8079  -12.9939  -16.8501 C   0  0  0  0  0  0  0  0  0  0  0  0
   32.0605  -12.1641  -18.1099 C   0  0  2  0  0  0  0  0  0  0  0  0
   33.4271  -11.5813  -18.0097 C   0  0  0  0  0  0  0  0  0  0  0  0
   30.9427  -11.1515  -18.1849 C   0  0  0  0  0  0  0  0  0  0  0  0
   29.5753  -11.7736  -18.3261 C   0  0  2  0  0  0  0  0  0  0  0  0
   29.5738  -12.8529  -19.2904 N   0  0  0  0  0  0  0  0  0  0  0  0
   28.4705  -10.8346  -18.4775 C   0  0  0  0  0  0  0  0  0  0  0  0
   28.1852  -10.4072  -19.6432 O   0  0  0  0  0  0  0  0  0  0  0  0
   27.6836  -10.3615  -17.4108 N   0  0  0  0  0  0  0  0  0  0  0  0
   26.5232   -9.4215  -17.6475 C   0  0  1  0  0  0  0  0  0  0  0  0
   25.6444   -9.5526  -16.4504 C   0  0  0  0  0  0  0  0  0  0  0  0
   24.3858   -8.8505  -16.3190 C   0  0  0  0  0  0  0  0  0  0  0  0
   23.5702   -8.8567  -15.1003 C   0  0  0  0  0  0  0  0  0  0  0  0
   22.3510   -7.9525  -15.2202 C   0  0  0  0  0  0  0  0  0  0  0  0
   21.5849   -8.1166  -13.9834 N   0  0  0  0  0  0  0  0  0  0  0  0
   27.0721   -8.1279  -17.9941 C   0  0  0  0  0  0  0  0  0  0  0  0
   26.5062   -7.2412  -18.8630 O   0  0  0  0  0  0  0  0  0  0  0  0
   28.1858   -7.7325  -17.4776 O   0  0  0  0  0  0  0  0  0  0  0  0
  2  1  1  1
  2  3  1  0
  3  4  1  0
  4  8  1  0
  5  4  2  0
  6  7  2  0
  6  2  1  0
 10 11  1  1
 10  9  1  0
 10 12  1  0
 13 12  1  6
 13 14  1  0
 14  6  1  0
 15 13  1  0
 16 15  2  0
 17 15  1  0
 18 17  1  0
 19 20  1  0
 18 19  1  1
 20 21  1  0
 21 22  1  0
 23 22  1  0
 24 18  1  0
 24 25  1  0
 26 24  2  0
M  END
$$$$
