DLK.pdb
     RDKit          3D

 26 25  0  0  1  0  0  0  0  0999 V2000
   21.6009  -22.3761  -13.5818 N   0  0  0  0  0  0  0  0  0  0  0  0
   21.4522  -20.9286  -13.7273 C   0  0  1  0  0  0  0  0  0  0  0  0
   20.4643  -20.5014  -12.6514 C   0  0  0  0  0  0  0  0  0  0  0  0
   19.1191  -21.0935  -12.9670 C   0  0  0  0  0  0  0  0  0  0  0  0
   18.9321  -21.8165  -13.9698 O   0  0  0  0  0  0  0  0  0  0  0  0
   22.7648  -20.3142  -13.4103 C   0  0  0  0  0  0  0  0  0  0  0  0
   22.9477  -19.0512  -13.4557 O   0  0  0  0  0  0  0  0  0  0  0  0
   18.0583  -20.8294  -12.1216 O   0  0  0  0  0  0  0  0  0  0  0  0
   24.4196  -19.5987  -10.0674 C   0  0  0  0  0  0  0  0  0  0  0  0
   24.7924  -21.0566  -10.3410 C   0  0  2  0  0  0  0  0  0  0  0  0
   25.3027  -21.6462   -9.0725 C   0  0  0  0  0  0  0  0  0  0  0  0
   25.7874  -21.0365  -11.4769 C   0  0  0  0  0  0  0  0  0  0  0  0
   25.2109  -20.5233  -12.7733 C   0  0  2  0  0  0  0  0  0  0  0  0
   23.9020  -21.0822  -13.0370 N   0  0  0  0  0  0  0  0  0  0  0  0
   26.1144  -20.5504  -13.9171 C   0  0  0  0  0  0  0  0  0  0  0  0
   27.2692  -20.0258  -13.7980 O   0  0  0  0  0  0  0  0  0  0  0  0
   25.7968  -21.1259  -15.1616 N   0  0  0  0  0  0  0  0  0  0  0  0
   26.7657  -21.0736  -16.3212 C   0  0  1  0  0  0  0  0  0  0  0  0
   27.4053  -22.4191  -16.3763 C   0  0  0  0  0  0  0  0  0  0  0  0
   28.5028  -22.7315  -17.2664 C   0  0  0  0  0  0  0  0  0  0  0  0
   29.1065  -24.0628  -17.3830 C   0  0  0  0  0  0  0  0  0  0  0  0
   30.2182  -24.1005  -18.4227 C   0  0  0  0  0  0  0  0  0  0  0  0
   30.7261  -25.4735  -18.4429 N   0  0  0  0  0  0  0  0  0  0  0  0
   26.0430  -20.5770  -17.4726 C   0  0  0  0  0  0  0  0  0  0  0  0
   26.6028  -19.9163  -18.5269 O   0  0  0  0  0  0  0  0  0  0  0  0
   24.7661  -20.7359  -17.5594 O   0  0  0  0  0  0  0  0  0  0  0  0
  2  1  1  1
  2  3  1  0
  3  4  1  0
  4  8  1  0
  5  4  2  0
  6  7  2  0
  6  2  1  0
 10 11  1  1
 10  9  1  0
 10 12  1  0
 13 12  1  1
 13 14  1  0
 14  6  1  0
 15 13  1  0
 16 15  2  0
 17 15  1  0
 18 17  1  0
 19 20  1  0
 18 19  1  6
 20 21  1  0
 21 22  1  0
 23 22  1  0
 24 18  1  0
 24 25  1  0
 26 24  2  0
M  END
$$$$
