PQN.pdb
     RDKit          3D

 25 25  0  0  1  0  0  0  0  0999 V2000
   27.4172  -21.4931  -15.2285 N   0  0  0  0  0  0  0  0  0  0  0  0
   27.8194  -20.7988  -16.4364 C   0  0  0  0  0  0  0  0  0  0  0  0
   28.3178  -19.4306  -16.0280 C   0  0  0  0  0  0  0  0  0  0  0  0
   28.2143  -19.3968  -14.5087 C   0  0  0  0  0  0  0  0  0  0  0  0
   27.2749  -20.5399  -14.1799 C   0  0  1  0  0  0  0  0  0  0  0  0
   25.8943  -19.9627  -14.1017 C   0  0  0  0  0  0  0  0  0  0  0  0
   25.7242  -19.0107  -13.3309 O   0  0  0  0  0  0  0  0  0  0  0  0
   22.6700  -17.7262  -18.5280 N   0  0  0  0  0  0  0  0  0  0  0  0
   21.6923  -17.7892  -17.5071 C   0  0  0  0  0  0  0  0  0  0  0  0
   20.6252  -17.1454  -17.6754 O   0  0  0  0  0  0  0  0  0  0  0  0
   21.8816  -18.5824  -16.2574 C   0  0  0  0  0  0  0  0  0  0  0  0
   23.2639  -19.1883  -16.2586 C   0  0  0  0  0  0  0  0  0  0  0  0
   23.5225  -20.0402  -15.0264 C   0  0  2  0  0  0  0  0  0  0  0  0
   24.8585  -20.5064  -14.8845 N   0  0  0  0  0  0  0  0  0  0  0  0
   22.4886  -21.0364  -14.7587 C   0  0  0  0  0  0  0  0  0  0  0  0
   22.3797  -22.1185  -15.4101 O   0  0  0  0  0  0  0  0  0  0  0  0
   19.6170  -23.7808  -11.0514 N   0  0  0  0  0  0  0  0  0  0  0  0
   19.0406  -22.5971  -11.5663 C   0  0  0  0  0  0  0  0  0  0  0  0
   17.8034  -22.4819  -11.6581 O   0  0  0  0  0  0  0  0  0  0  0  0
   19.9321  -21.4800  -11.9989 C   0  0  0  0  0  0  0  0  0  0  0  0
   20.5814  -21.8800  -13.3205 C   0  0  2  0  0  0  0  0  0  0  0  0
   21.5124  -20.8492  -13.7241 N   0  0  0  0  0  0  0  0  0  0  0  0
   19.5062  -21.9660  -14.3265 C   0  0  0  0  0  0  0  0  0  0  0  0
   18.8629  -23.1850  -14.5530 O   0  0  0  0  0  0  0  0  0  0  0  0
   19.1574  -20.9643  -14.9865 O   0  0  0  0  0  0  0  0  0  0  0  0
  1  2  1  0
  3  2  1  0
  4  5  1  0
  4  3  1  0
  5  6  1  6
  5  1  1  0
  6  7  2  0
  9 11  1  0
  9  8  1  0
 10  9  2  0
 13 12  1  6
 12 11  1  0
 14 13  1  0
 14  6  1  0
 15 22  1  0
 15 13  1  0
 16 15  2  0
 17 18  1  0
 18 20  1  0
 19 18  2  0
 21 22  1  0
 21 20  1  1
 23 21  1  0
 24 23  1  0
 25 23  2  0
M  END
$$$$
