PQN.pdb
     RDKit          3D

 25 25  0  0  1  0  0  0  0  0999 V2000
   16.7461  -11.1460  -15.5783 N   0  0  0  0  0  0  0  0  0  0  0  0
   17.9807  -11.2536  -16.3314 C   0  0  0  0  0  0  0  0  0  0  0  0
   18.9178  -12.1394  -15.5412 C   0  0  0  0  0  0  0  0  0  0  0  0
   18.1316  -12.5656  -14.3081 C   0  0  0  0  0  0  0  0  0  0  0  0
   16.9883  -11.5728  -14.2413 C   0  0  1  0  0  0  0  0  0  0  0  0
   17.4306  -10.4562  -13.3451 C   0  0  0  0  0  0  0  0  0  0  0  0
   17.8316  -10.7643  -12.2166 O   0  0  0  0  0  0  0  0  0  0  0  0
   19.8218   -5.5590  -15.9150 N   0  0  0  0  0  0  0  0  0  0  0  0
   20.5173   -6.6280  -15.3022 C   0  0  0  0  0  0  0  0  0  0  0  0
   21.6811   -6.8798  -15.7067 O   0  0  0  0  0  0  0  0  0  0  0  0
   19.9256   -7.4533  -14.2087 C   0  0  0  0  0  0  0  0  0  0  0  0
   18.5450   -6.9352  -13.8873 C   0  0  0  0  0  0  0  0  0  0  0  0
   17.7210   -7.9383  -13.0962 C   0  0  2  0  0  0  0  0  0  0  0  0
   17.3768   -9.1252  -13.7998 N   0  0  0  0  0  0  0  0  0  0  0  0
   16.6363   -7.3433  -12.3201 C   0  0  0  0  0  0  0  0  0  0  0  0
   15.4280   -7.3380  -12.7035 O   0  0  0  0  0  0  0  0  0  0  0  0
   15.0477   -5.3256   -6.9349 N   0  0  0  0  0  0  0  0  0  0  0  0
   14.7084   -6.0412   -8.1059 C   0  0  0  0  0  0  0  0  0  0  0  0
   13.5240   -6.1093   -8.4869 O   0  0  0  0  0  0  0  0  0  0  0  0
   15.7875   -6.7160   -8.8868 C   0  0  0  0  0  0  0  0  0  0  0  0
   15.8301   -6.0841  -10.2750 C   0  0  2  0  0  0  0  0  0  0  0  0
   16.8742   -6.7145  -11.0527 N   0  0  0  0  0  0  0  0  0  0  0  0
   16.1688   -4.6598  -10.0960 C   0  0  0  0  0  0  0  0  0  0  0  0
   15.1568   -3.7327   -9.8359 O   0  0  0  0  0  0  0  0  0  0  0  0
   17.3504   -4.2619  -10.1743 O   0  0  0  0  0  0  0  0  0  0  0  0
  1  2  1  0
  3  2  1  0
  4  5  1  0
  4  3  1  0
  5  6  1  1
  5  1  1  0
  6  7  2  0
  9 11  1  0
  9  8  1  0
 10  9  2  0
 13 12  1  6
 12 11  1  0
 14 13  1  0
 14  6  1  0
 15 22  1  0
 15 13  1  0
 16 15  2  0
 17 18  1  0
 18 20  1  0
 19 18  2  0
 21 22  1  0
 21 20  1  1
 23 21  1  0
 24 23  1  0
 25 23  2  0
M  END
$$$$
