PQN.pdb
     RDKit          3D

 25 25  0  0  1  0  0  0  0  0999 V2000
   32.4241  -36.4688   -5.3347 N   0  0  0  0  0  0  0  0  0  0  0  0
   32.0361  -36.1176   -6.6871 C   0  0  0  0  0  0  0  0  0  0  0  0
   32.5443  -34.7188   -6.9556 C   0  0  0  0  0  0  0  0  0  0  0  0
   33.2819  -34.3039   -5.6891 C   0  0  0  0  0  0  0  0  0  0  0  0
   32.7861  -35.2792   -4.6402 C   0  0  1  0  0  0  0  0  0  0  0  0
   31.6233  -34.6294   -3.9538 C   0  0  0  0  0  0  0  0  0  0  0  0
   31.8612  -33.6283   -3.2680 O   0  0  0  0  0  0  0  0  0  0  0  0
   25.5234  -33.8900   -3.5747 N   0  0  0  0  0  0  0  0  0  0  0  0
   26.2189  -32.8428   -4.2241 C   0  0  0  0  0  0  0  0  0  0  0  0
   25.6387  -31.7325   -4.3345 O   0  0  0  0  0  0  0  0  0  0  0  0
   27.5965  -33.0089   -4.7732 C   0  0  0  0  0  0  0  0  0  0  0  0
   28.0115  -34.4541   -4.6439 C   0  0  0  0  0  0  0  0  0  0  0  0
   29.1010  -34.6515   -3.6022 C   0  0  2  0  0  0  0  0  0  0  0  0
   30.3295  -35.1633   -4.1032 N   0  0  0  0  0  0  0  0  0  0  0  0
   28.6379  -35.2627   -2.3591 C   0  0  0  0  0  0  0  0  0  0  0  0
   27.5806  -34.9036   -1.7589 O   0  0  0  0  0  0  0  0  0  0  0  0
   28.1061  -40.3576    0.7902 N   0  0  0  0  0  0  0  0  0  0  0  0
   28.2863  -38.9609    0.6658 C   0  0  0  0  0  0  0  0  0  0  0  0
   28.1112  -38.2091    1.6439 O   0  0  0  0  0  0  0  0  0  0  0  0
   28.6924  -38.3925   -0.6540 C   0  0  0  0  0  0  0  0  0  0  0  0
   28.9738  -36.9054   -0.4602 C   0  0  2  0  0  0  0  0  0  0  0  0
   29.3641  -36.3262   -1.7268 N   0  0  0  0  0  0  0  0  0  0  0  0
   30.1055  -36.7943    0.4791 C   0  0  0  0  0  0  0  0  0  0  0  0
   29.8693  -36.8070    1.8558 O   0  0  0  0  0  0  0  0  0  0  0  0
   31.2796  -36.6864    0.0661 O   0  0  0  0  0  0  0  0  0  0  0  0
  1  2  1  0
  3  2  1  0
  4  5  1  0
  4  3  1  0
  5  6  1  6
  5  1  1  0
  6  7  2  0
  9 11  1  0
  9  8  1  0
 10  9  2  0
 13 12  1  6
 12 11  1  0
 14 13  1  0
 14  6  1  0
 15 22  1  0
 15 13  1  0
 16 15  2  0
 17 18  1  0
 18 20  1  0
 19 18  2  0
 21 22  1  0
 21 20  1  6
 23 21  1  0
 24 23  1  0
 25 23  2  0
M  END
$$$$
