PQN.pdb
     RDKit          3D

 25 25  0  0  1  0  0  0  0  0999 V2000
   18.1472  -12.0910  -15.6230 N   0  0  0  0  0  0  0  0  0  0  0  0
   17.1533  -13.0165  -15.1145 C   0  0  0  0  0  0  0  0  0  0  0  0
   15.8131  -12.3181  -15.1709 C   0  0  0  0  0  0  0  0  0  0  0  0
   16.0925  -10.9502  -15.7798 C   0  0  0  0  0  0  0  0  0  0  0  0
   17.5907  -10.7801  -15.6266 C   0  0  1  0  0  0  0  0  0  0  0  0
   17.8183  -10.0478  -14.3391 C   0  0  0  0  0  0  0  0  0  0  0  0
   17.8824  -10.7273  -13.3079 O   0  0  0  0  0  0  0  0  0  0  0  0
   22.1151   -7.0605  -13.0464 N   0  0  0  0  0  0  0  0  0  0  0  0
   21.3466   -6.2339  -12.1930 C   0  0  0  0  0  0  0  0  0  0  0  0
   21.9381   -5.6588  -11.2439 O   0  0  0  0  0  0  0  0  0  0  0  0
   19.8809   -6.0245  -12.3791 C   0  0  0  0  0  0  0  0  0  0  0  0
   19.4204   -6.7904  -13.5952 C   0  0  0  0  0  0  0  0  0  0  0  0
   18.3280   -7.7951  -13.2660 C   0  0  2  0  0  0  0  0  0  0  0  0
   17.9472   -8.6462  -14.3398 N   0  0  0  0  0  0  0  0  0  0  0  0
   17.2194   -7.2427  -12.4921 C   0  0  0  0  0  0  0  0  0  0  0  0
   16.2731   -6.5769  -13.0098 O   0  0  0  0  0  0  0  0  0  0  0  0
   14.9084   -6.8561   -6.9105 N   0  0  0  0  0  0  0  0  0  0  0  0
   14.7098   -7.2489   -8.2539 C   0  0  0  0  0  0  0  0  0  0  0  0
   13.5862   -7.1521   -8.7836 O   0  0  0  0  0  0  0  0  0  0  0  0
   15.8647   -7.7811   -9.0367 C   0  0  0  0  0  0  0  0  0  0  0  0
   16.0342   -6.9101  -10.2780 C   0  0  2  0  0  0  0  0  0  0  0  0
   17.1306   -7.4210  -11.0713 N   0  0  0  0  0  0  0  0  0  0  0  0
   16.3782   -5.5527   -9.8149 C   0  0  0  0  0  0  0  0  0  0  0  0
   17.7175   -5.1982   -9.6372 O   0  0  0  0  0  0  0  0  0  0  0  0
   15.4901   -4.7076   -9.5749 O   0  0  0  0  0  0  0  0  0  0  0  0
  1  2  1  0
  3  2  1  0
  4  5  1  0
  4  3  1  0
  5  6  1  1
  5  1  1  0
  6  7  2  0
  9 11  1  0
  9  8  1  0
 10  9  2  0
 13 12  1  6
 12 11  1  0
 14 13  1  0
 14  6  1  0
 15 22  1  0
 15 13  1  0
 16 15  2  0
 17 18  1  0
 18 20  1  0
 19 18  2  0
 21 22  1  0
 21 20  1  1
 23 21  1  0
 24 23  1  0
 25 23  2  0
M  END
$$$$
