PQN.pdb
     RDKit          3D

 25 25  0  0  1  0  0  0  0  0999 V2000
   26.2982  -18.6663  -15.6646 N   0  0  0  0  0  0  0  0  0  0  0  0
   27.0198  -17.7946  -14.7579 C   0  0  0  0  0  0  0  0  0  0  0  0
   28.3664  -18.4302  -14.4938 C   0  0  0  0  0  0  0  0  0  0  0  0
   28.3891  -19.6996  -15.3353 C   0  0  0  0  0  0  0  0  0  0  0  0
   26.9314  -19.9420  -15.6721 C   0  0  1  0  0  0  0  0  0  0  0  0
   26.3887  -20.8671  -14.6256 C   0  0  0  0  0  0  0  0  0  0  0  0
   26.8761  -22.0022  -14.5692 O   0  0  0  0  0  0  0  0  0  0  0  0
   25.6428  -20.6514   -8.7270 N   0  0  0  0  0  0  0  0  0  0  0  0
   26.6810  -20.8796   -9.6610 C   0  0  0  0  0  0  0  0  0  0  0  0
   27.8628  -20.9013   -9.2316 O   0  0  0  0  0  0  0  0  0  0  0  0
   26.4244  -21.0929  -11.1155 C   0  0  0  0  0  0  0  0  0  0  0  0
   24.9421  -20.9874  -11.3788 C   0  0  0  0  0  0  0  0  0  0  0  0
   24.5990  -21.1997  -12.8445 C   0  0  2  0  0  0  0  0  0  0  0  0
   25.3668  -20.4306  -13.7617 N   0  0  0  0  0  0  0  0  0  0  0  0
   23.1662  -21.2455  -13.1239 C   0  0  0  0  0  0  0  0  0  0  0  0
   22.4220  -22.2147  -12.7865 O   0  0  0  0  0  0  0  0  0  0  0  0
   20.7682  -18.8888  -10.8824 N   0  0  0  0  0  0  0  0  0  0  0  0
   20.1960  -19.6225  -11.9467 C   0  0  0  0  0  0  0  0  0  0  0  0
   19.5562  -20.6683  -11.7243 O   0  0  0  0  0  0  0  0  0  0  0  0
   20.3642  -19.1294  -13.3461 C   0  0  0  0  0  0  0  0  0  0  0  0
   21.0909  -20.2094  -14.1423 C   0  0  2  0  0  0  0  0  0  0  0  0
   22.4987  -20.1779  -13.8116 N   0  0  0  0  0  0  0  0  0  0  0  0
   20.9335  -19.8785  -15.5709 C   0  0  0  0  0  0  0  0  0  0  0  0
   19.6610  -19.8765  -16.1473 O   0  0  0  0  0  0  0  0  0  0  0  0
   21.9219  -19.5996  -16.2822 O   0  0  0  0  0  0  0  0  0  0  0  0
  1  2  1  0
  3  2  1  0
  4  5  1  0
  4  3  1  0
  5  6  1  1
  5  1  1  0
  6  7  2  0
  9 11  1  0
  9  8  1  0
 10  9  2  0
 13 12  1  1
 12 11  1  0
 14 13  1  0
 14  6  1  0
 15 22  1  0
 15 13  1  0
 16 15  2  0
 17 18  1  0
 18 20  1  0
 19 18  2  0
 21 22  1  0
 21 20  1  1
 23 21  1  0
 24 23  1  0
 25 23  2  0
M  END
$$$$
