PQN.pdb
     RDKit          3D

 25 25  0  0  1  0  0  0  0  0999 V2000
   25.7613  -21.5993  -15.5009 N   0  0  0  0  0  0  0  0  0  0  0  0
   25.9095  -20.7120  -16.6382 C   0  0  0  0  0  0  0  0  0  0  0  0
   26.5540  -19.4385  -16.1384 C   0  0  0  0  0  0  0  0  0  0  0  0
   26.8028  -19.6644  -14.6528 C   0  0  0  0  0  0  0  0  0  0  0  0
   25.9093  -20.8385  -14.3061 C   0  0  1  0  0  0  0  0  0  0  0  0
   24.6130  -20.2709  -13.8132 C   0  0  0  0  0  0  0  0  0  0  0  0
   24.4567  -19.0487  -13.9179 O   0  0  0  0  0  0  0  0  0  0  0  0
   20.1341  -18.2787  -15.4887 N   0  0  0  0  0  0  0  0  0  0  0  0
   20.7064  -19.4719  -15.9896 C   0  0  0  0  0  0  0  0  0  0  0  0
   20.4865  -19.7691  -17.1916 O   0  0  0  0  0  0  0  0  0  0  0  0
   21.5496  -20.3749  -15.1527 C   0  0  0  0  0  0  0  0  0  0  0  0
   21.5337  -19.8866  -13.7248 C   0  0  0  0  0  0  0  0  0  0  0  0
   22.3350  -20.7861  -12.7975 C   0  0  2  0  0  0  0  0  0  0  0  0
   23.6378  -21.1212  -13.2588 N   0  0  0  0  0  0  0  0  0  0  0  0
   21.5732  -21.8983  -12.2356 C   0  0  0  0  0  0  0  0  0  0  0  0
   21.6703  -23.0905  -12.6554 O   0  0  0  0  0  0  0  0  0  0  0  0
   19.2852  -24.4970   -7.9390 N   0  0  0  0  0  0  0  0  0  0  0  0
   18.5770  -23.4893   -8.6330 C   0  0  0  0  0  0  0  0  0  0  0  0
   17.3382  -23.5515   -8.7513 O   0  0  0  0  0  0  0  0  0  0  0  0
   19.3303  -22.3433   -9.2237 C   0  0  0  0  0  0  0  0  0  0  0  0
   19.8743  -22.7853  -10.5790 C   0  0  2  0  0  0  0  0  0  0  0  0
   20.6493  -21.7082  -11.1546 N   0  0  0  0  0  0  0  0  0  0  0  0
   18.7137  -23.0502  -11.4497 C   0  0  0  0  0  0  0  0  0  0  0  0
   18.2067  -24.3475  -11.5556 O   0  0  0  0  0  0  0  0  0  0  0  0
   18.1715  -22.1321  -12.1007 O   0  0  0  0  0  0  0  0  0  0  0  0
  1  2  1  0
  3  2  1  0
  4  5  1  0
  4  3  1  0
  5  6  1  6
  5  1  1  0
  6  7  2  0
  9 11  1  0
  9  8  1  0
 10  9  2  0
 13 12  1  6
 12 11  1  0
 14 13  1  0
 14  6  1  0
 15 22  1  0
 15 13  1  0
 16 15  2  0
 17 18  1  0
 18 20  1  0
 19 18  2  0
 21 22  1  0
 21 20  1  1
 23 21  1  0
 24 23  1  0
 25 23  2  0
M  END
$$$$
