PQN.pdb
     RDKit          3D

 25 25  0  0  1  0  0  0  0  0999 V2000
   21.5179  -11.7471  -18.9953 N   0  0  0  0  0  0  0  0  0  0  0  0
   21.5717  -13.1005  -18.4774 C   0  0  0  0  0  0  0  0  0  0  0  0
   20.3086  -13.3305  -17.6783 C   0  0  0  0  0  0  0  0  0  0  0  0
   19.5083  -12.0404  -17.8020 C   0  0  0  0  0  0  0  0  0  0  0  0
   20.5262  -11.0218  -18.2749 C   0  0  1  0  0  0  0  0  0  0  0  0
   21.0713  -10.3483  -17.0523 C   0  0  0  0  0  0  0  0  0  0  0  0
   20.2683  -10.0809  -16.1507 O   0  0  0  0  0  0  0  0  0  0  0  0
   27.0974  -10.6953  -15.1327 N   0  0  0  0  0  0  0  0  0  0  0  0
   26.6043  -10.8066  -16.4543 C   0  0  0  0  0  0  0  0  0  0  0  0
   27.3768  -11.2687  -17.3323 O   0  0  0  0  0  0  0  0  0  0  0  0
   25.2195  -10.4011  -16.8348 C   0  0  0  0  0  0  0  0  0  0  0  0
   24.5226   -9.8215  -15.6281 C   0  0  0  0  0  0  0  0  0  0  0  0
   23.1254   -9.3186  -15.9538 C   0  0  2  0  0  0  0  0  0  0  0  0
   22.4434  -10.0457  -16.9679 N   0  0  0  0  0  0  0  0  0  0  0  0
   23.0207   -7.8656  -16.0583 C   0  0  0  0  0  0  0  0  0  0  0  0
   23.6018   -7.1892  -16.9592 O   0  0  0  0  0  0  0  0  0  0  0  0
   21.0480   -3.0896  -16.9107 N   0  0  0  0  0  0  0  0  0  0  0  0
   20.6373   -3.8034  -15.7616 C   0  0  0  0  0  0  0  0  0  0  0  0
   20.1857   -3.2013  -14.7686 O   0  0  0  0  0  0  0  0  0  0  0  0
   20.7482   -5.2924  -15.7495 C   0  0  0  0  0  0  0  0  0  0  0  0
   22.1233   -5.6582  -15.1985 C   0  0  2  0  0  0  0  0  0  0  0  0
   22.2406   -7.0983  -15.1304 N   0  0  0  0  0  0  0  0  0  0  0  0
   22.2047   -5.1123  -13.8308 C   0  0  0  0  0  0  0  0  0  0  0  0
   22.5007   -3.7607  -13.6390 O   0  0  0  0  0  0  0  0  0  0  0  0
   22.0147   -5.8391  -12.8327 O   0  0  0  0  0  0  0  0  0  0  0  0
  1  2  1  0
  3  2  1  0
  4  5  1  0
  4  3  1  0
  5  6  1  1
  5  1  1  0
  6  7  2  0
  9 11  1  0
  9  8  1  0
 10  9  2  0
 13 12  1  6
 12 11  1  0
 14 13  1  0
 14  6  1  0
 15 22  1  0
 15 13  1  0
 16 15  2  0
 17 18  1  0
 18 20  1  0
 19 18  2  0
 21 22  1  0
 21 20  1  1
 23 21  1  0
 24 23  1  0
 25 23  2  0
M  END
$$$$
