PQN.pdb
     RDKit          3D

 25 25  0  0  1  0  0  0  0  0999 V2000
   19.3524  -11.8998    6.6799 N   0  0  0  0  0  0  0  0  0  0  0  0
   19.8129  -11.7654    8.0485 C   0  0  0  0  0  0  0  0  0  0  0  0
   20.6778  -12.9672    8.3557 C   0  0  0  0  0  0  0  0  0  0  0  0
   20.7181  -13.7794    7.0677 C   0  0  0  0  0  0  0  0  0  0  0  0
   19.5498  -13.2470    6.2622 C   0  0  1  0  0  0  0  0  0  0  0  0
   18.3747  -14.1272    6.5620 C   0  0  0  0  0  0  0  0  0  0  0  0
   17.5357  -13.6947    7.3608 O   0  0  0  0  0  0  0  0  0  0  0  0
   14.6670  -17.1897    2.8061 N   0  0  0  0  0  0  0  0  0  0  0  0
   14.6202  -15.9027    3.3921 C   0  0  0  0  0  0  0  0  0  0  0  0
   13.8133  -15.0671    2.9104 O   0  0  0  0  0  0  0  0  0  0  0  0
   15.4822  -15.5101    4.5453 C   0  0  0  0  0  0  0  0  0  0  0  0
   16.4075  -16.6529    4.8850 C   0  0  0  0  0  0  0  0  0  0  0  0
   17.2487  -16.3682    6.1189 C   0  0  2  0  0  0  0  0  0  0  0  0
   18.2633  -15.3872    5.9445 N   0  0  0  0  0  0  0  0  0  0  0  0
   17.6629  -17.5625    6.8504 C   0  0  0  0  0  0  0  0  0  0  0  0
   16.8554  -18.3028    7.4883 O   0  0  0  0  0  0  0  0  0  0  0  0
   20.9894  -22.3937    6.5371 N   0  0  0  0  0  0  0  0  0  0  0  0
   19.9162  -21.5839    6.9744 C   0  0  0  0  0  0  0  0  0  0  0  0
   19.1459  -21.9809    7.8697 O   0  0  0  0  0  0  0  0  0  0  0  0
   19.7145  -20.2416    6.3522 C   0  0  0  0  0  0  0  0  0  0  0  0
   19.4598  -19.2367    7.4718 C   0  0  2  0  0  0  0  0  0  0  0  0
   19.0348  -17.9800    6.8953 N   0  0  0  0  0  0  0  0  0  0  0  0
   20.7419  -19.0268    8.1699 C   0  0  0  0  0  0  0  0  0  0  0  0
   21.2190  -19.9982    9.0530 O   0  0  0  0  0  0  0  0  0  0  0  0
   21.4144  -17.9898    7.9879 O   0  0  0  0  0  0  0  0  0  0  0  0
  1  2  1  0
  3  2  1  0
  4  5  1  0
  4  3  1  0
  5  6  1  1
  5  1  1  0
  6  7  2  0
  9 11  1  0
  9  8  1  0
 10  9  2  0
 13 12  1  6
 12 11  1  0
 14 13  1  0
 14  6  1  0
 15 22  1  0
 15 13  1  0
 16 15  2  0
 17 18  1  0
 18 20  1  0
 19 18  2  0
 21 22  1  0
 21 20  1  6
 23 21  1  0
 24 23  1  0
 25 23  2  0
M  END
$$$$
