PQN.pdb
     RDKit          3D

 25 25  0  0  1  0  0  0  0  0999 V2000
   19.9892  -15.7480  -16.9516 N   0  0  0  0  0  0  0  0  0  0  0  0
   18.7865  -15.9098  -17.7454 C   0  0  0  0  0  0  0  0  0  0  0  0
   19.1957  -16.5143  -19.0699 C   0  0  0  0  0  0  0  0  0  0  0  0
   20.7009  -16.7262  -18.9727 C   0  0  0  0  0  0  0  0  0  0  0  0
   21.1204  -15.8473  -17.8113 C   0  0  1  0  0  0  0  0  0  0  0  0
   21.5305  -14.5266  -18.3882 C   0  0  0  0  0  0  0  0  0  0  0  0
   22.2710  -14.5495  -19.3783 O   0  0  0  0  0  0  0  0  0  0  0  0
   23.5214  -11.5670  -21.1415 N   0  0  0  0  0  0  0  0  0  0  0  0
   22.7986  -10.3772  -20.8884 C   0  0  0  0  0  0  0  0  0  0  0  0
   23.2768   -9.2968  -21.3191 O   0  0  0  0  0  0  0  0  0  0  0  0
   21.5076  -10.3619  -20.1401 C   0  0  0  0  0  0  0  0  0  0  0  0
   21.1527  -11.7713  -19.7336 C   0  0  0  0  0  0  0  0  0  0  0  0
   21.2977  -11.9950  -18.2369 C   0  0  2  0  0  0  0  0  0  0  0  0
   21.0756  -13.3306  -17.8019 N   0  0  0  0  0  0  0  0  0  0  0  0
   20.6707  -10.9644  -17.4135 C   0  0  0  0  0  0  0  0  0  0  0  0
   19.4160  -10.7979  -17.3432 O   0  0  0  0  0  0  0  0  0  0  0  0
   19.9554   -7.4492  -13.8157 N   0  0  0  0  0  0  0  0  0  0  0  0
   20.9269   -8.3647  -13.3501 C   0  0  0  0  0  0  0  0  0  0  0  0
   21.2565   -8.3834  -12.1486 O   0  0  0  0  0  0  0  0  0  0  0  0
   21.5556   -9.3149  -14.3152 C   0  0  0  0  0  0  0  0  0  0  0  0
   20.8648   -9.1419  -15.6647 C   0  0  2  0  0  0  0  0  0  0  0  0
   21.4493  -10.0584  -16.6191 N   0  0  0  0  0  0  0  0  0  0  0  0
   21.1252   -7.7616  -16.1144 C   0  0  0  0  0  0  0  0  0  0  0  0
   20.3235   -6.7167  -15.6491 O   0  0  0  0  0  0  0  0  0  0  0  0
   22.0536   -7.5057  -16.9101 O   0  0  0  0  0  0  0  0  0  0  0  0
  1  2  1  0
  3  2  1  0
  4  5  1  0
  4  3  1  0
  5  6  1  6
  5  1  1  0
  6  7  2  0
  9 11  1  0
  9  8  1  0
 10  9  2  0
 13 12  1  6
 12 11  1  0
 14 13  1  0
 14  6  1  0
 15 22  1  0
 15 13  1  0
 16 15  2  0
 17 18  1  0
 18 20  1  0
 19 18  2  0
 21 22  1  0
 21 20  1  1
 23 21  1  0
 24 23  1  0
 25 23  2  0
M  END
$$$$
