PQN.pdb
     RDKit          3D

 25 25  0  0  1  0  0  0  0  0999 V2000
   26.3676  -20.3138  -16.8435 N   0  0  0  0  0  0  0  0  0  0  0  0
   26.4190  -19.2912  -17.8704 C   0  0  0  0  0  0  0  0  0  0  0  0
   27.1716  -18.1112  -17.2975 C   0  0  0  0  0  0  0  0  0  0  0  0
   27.5832  -18.5340  -15.8933 C   0  0  0  0  0  0  0  0  0  0  0  0
   26.6872  -19.7183  -15.5899 C   0  0  1  0  0  0  0  0  0  0  0  0
   25.4831  -19.1840  -14.8756 C   0  0  0  0  0  0  0  0  0  0  0  0
   25.5254  -18.0055  -14.5033 O   0  0  0  0  0  0  0  0  0  0  0  0
   21.3311  -16.1702  -15.8576 N   0  0  0  0  0  0  0  0  0  0  0  0
   21.8344  -17.1724  -16.7203 C   0  0  0  0  0  0  0  0  0  0  0  0
   21.6930  -17.0063  -17.9588 O   0  0  0  0  0  0  0  0  0  0  0  0
   22.5174  -18.4003  -16.2176 C   0  0  0  0  0  0  0  0  0  0  0  0
   22.4778  -18.4080  -14.7089 C   0  0  0  0  0  0  0  0  0  0  0  0
   23.0987  -19.6649  -14.1209 C   0  0  2  0  0  0  0  0  0  0  0  0
   24.3698  -20.0161  -14.6532 N   0  0  0  0  0  0  0  0  0  0  0  0
   22.1654  -20.7774  -13.9643 C   0  0  0  0  0  0  0  0  0  0  0  0
   22.1042  -21.7531  -14.7712 O   0  0  0  0  0  0  0  0  0  0  0  0
   19.4467  -24.3545  -11.8835 N   0  0  0  0  0  0  0  0  0  0  0  0
   19.5744  -23.4189  -10.8314 C   0  0  0  0  0  0  0  0  0  0  0  0
   19.3077  -23.7433   -9.6583 O   0  0  0  0  0  0  0  0  0  0  0  0
   20.0361  -22.0328  -11.1399 C   0  0  0  0  0  0  0  0  0  0  0  0
   20.3740  -21.9684  -12.6264 C   0  0  2  0  0  0  0  0  0  0  0  0
   21.2414  -20.8364  -12.8684 N   0  0  0  0  0  0  0  0  0  0  0  0
   19.1080  -21.7574  -13.3530 C   0  0  0  0  0  0  0  0  0  0  0  0
   18.3239  -22.8552  -13.7153 O   0  0  0  0  0  0  0  0  0  0  0  0
   18.7201  -20.6090  -13.6551 O   0  0  0  0  0  0  0  0  0  0  0  0
  1  2  1  0
  3  2  1  0
  4  5  1  0
  4  3  1  0
  5  6  1  6
  5  1  1  0
  6  7  2  0
  9 11  1  0
  9  8  1  0
 10  9  2  0
 13 12  1  6
 12 11  1  0
 14 13  1  0
 14  6  1  0
 15 22  1  0
 15 13  1  0
 16 15  2  0
 17 18  1  0
 18 20  1  0
 19 18  2  0
 21 22  1  0
 21 20  1  1
 23 21  1  0
 24 23  1  0
 25 23  2  0
M  END
$$$$
