PQN.pdb
     RDKit          3D

 25 25  0  0  1  0  0  0  0  0999 V2000
   16.6001  -11.6803  -12.7249 N   0  0  0  0  0  0  0  0  0  0  0  0
   15.1897  -11.9487  -12.5210 C   0  0  0  0  0  0  0  0  0  0  0  0
   14.4560  -11.4813  -13.7581 C   0  0  0  0  0  0  0  0  0  0  0  0
   15.5355  -10.9649  -14.7005 C   0  0  0  0  0  0  0  0  0  0  0  0
   16.7383  -10.7585  -13.8017 C   0  0  1  0  0  0  0  0  0  0  0  0
   16.7080   -9.3294  -13.3519 C   0  0  0  0  0  0  0  0  0  0  0  0
   16.6765   -8.4618  -14.2325 O   0  0  0  0  0  0  0  0  0  0  0  0
   14.8430   -7.4179   -7.5283 N   0  0  0  0  0  0  0  0  0  0  0  0
   14.0441   -7.7665   -8.6429 C   0  0  0  0  0  0  0  0  0  0  0  0
   12.8115   -7.9290   -8.4541 O   0  0  0  0  0  0  0  0  0  0  0  0
   14.6064   -7.9444  -10.0137 C   0  0  0  0  0  0  0  0  0  0  0  0
   16.0938   -7.6915   -9.9768 C   0  0  0  0  0  0  0  0  0  0  0  0
   16.7233   -7.7429  -11.3596 C   0  0  2  0  0  0  0  0  0  0  0  0
   16.7179   -9.0235  -11.9780 N   0  0  0  0  0  0  0  0  0  0  0  0
   17.9794   -7.0066  -11.4740 C   0  0  0  0  0  0  0  0  0  0  0  0
   18.9771   -7.2112  -10.7193 O   0  0  0  0  0  0  0  0  0  0  0  0
   22.5762   -5.0878  -12.7266 N   0  0  0  0  0  0  0  0  0  0  0  0
   21.5723   -5.1883  -13.7169 C   0  0  0  0  0  0  0  0  0  0  0  0
   21.6813   -4.5737  -14.7953 O   0  0  0  0  0  0  0  0  0  0  0  0
   20.3756   -6.0432  -13.4584 C   0  0  0  0  0  0  0  0  0  0  0  0
   19.3969   -5.2393  -12.6075 C   0  0  2  0  0  0  0  0  0  0  0  0
   18.1663   -5.9859  -12.4648 N   0  0  0  0  0  0  0  0  0  0  0  0
   19.1097   -3.9896  -13.3361 C   0  0  0  0  0  0  0  0  0  0  0  0
   17.9761   -3.9038  -14.1479 O   0  0  0  0  0  0  0  0  0  0  0  0
   19.8655   -2.9992  -13.2433 O   0  0  0  0  0  0  0  0  0  0  0  0
  1  2  1  0
  3  2  1  0
  4  5  1  0
  4  3  1  0
  5  6  1  1
  5  1  1  0
  6  7  2  0
  9 11  1  0
  9  8  1  0
 10  9  2  0
 13 12  1  1
 12 11  1  0
 14 13  1  0
 14  6  1  0
 15 22  1  0
 15 13  1  0
 16 15  2  0
 17 18  1  0
 18 20  1  0
 19 18  2  0
 21 22  1  0
 21 20  1  6
 23 21  1  0
 24 23  1  0
 25 23  2  0
M  END
$$$$
