PQN.pdb
     RDKit          3D

 25 25  0  0  1  0  0  0  0  0999 V2000
   27.7941  -19.2111  -17.3579 N   0  0  0  0  0  0  0  0  0  0  0  0
   27.0456  -18.4838  -18.3648 C   0  0  0  0  0  0  0  0  0  0  0  0
   26.5022  -17.2334  -17.7103 C   0  0  0  0  0  0  0  0  0  0  0  0
   27.0175  -17.2675  -16.2773 C   0  0  0  0  0  0  0  0  0  0  0  0
   27.4381  -18.7093  -16.0734 C   0  0  1  0  0  0  0  0  0  0  0  0
   26.2669  -19.4257  -15.4729 C   0  0  0  0  0  0  0  0  0  0  0  0
   25.4942  -19.9951  -16.2527 O   0  0  0  0  0  0  0  0  0  0  0  0
   25.6718  -20.2262   -9.0842 N   0  0  0  0  0  0  0  0  0  0  0  0
   24.5006  -20.8127   -9.6193 C   0  0  0  0  0  0  0  0  0  0  0  0
   23.6785  -21.3214   -8.8151 O   0  0  0  0  0  0  0  0  0  0  0  0
   24.2124  -20.8467  -11.0831 C   0  0  0  0  0  0  0  0  0  0  0  0
   25.3313  -20.1577  -11.8255 C   0  0  0  0  0  0  0  0  0  0  0  0
   25.0737  -20.0858  -13.3220 C   0  0  2  0  0  0  0  0  0  0  0  0
   26.0835  -19.4286  -14.0774 N   0  0  0  0  0  0  0  0  0  0  0  0
   23.7034  -19.7265  -13.6775 C   0  0  0  0  0  0  0  0  0  0  0  0
   23.2640  -18.5380  -13.6413 O   0  0  0  0  0  0  0  0  0  0  0  0
   18.9242  -21.3934  -17.0488 N   0  0  0  0  0  0  0  0  0  0  0  0
   19.8052  -20.5406  -16.3451 C   0  0  0  0  0  0  0  0  0  0  0  0
   19.5165  -19.3426  -16.1611 O   0  0  0  0  0  0  0  0  0  0  0  0
   21.0899  -21.0917  -15.8200 C   0  0  0  0  0  0  0  0  0  0  0  0
   21.4013  -20.3875  -14.5027 C   0  0  2  0  0  0  0  0  0  0  0  0
   22.7507  -20.7140  -14.0964 N   0  0  0  0  0  0  0  0  0  0  0  0
   20.4635  -20.9146  -13.4938 C   0  0  0  0  0  0  0  0  0  0  0  0
   19.4411  -20.0991  -13.0029 O   0  0  0  0  0  0  0  0  0  0  0  0
   20.5660  -22.0833  -13.0645 O   0  0  0  0  0  0  0  0  0  0  0  0
  1  2  1  0
  3  2  1  0
  4  5  1  0
  4  3  1  0
  5  6  1  6
  5  1  1  0
  6  7  2  0
  9 11  1  0
  9  8  1  0
 10  9  2  0
 13 12  1  1
 12 11  1  0
 14 13  1  0
 14  6  1  0
 15 22  1  0
 15 13  1  0
 16 15  2  0
 17 18  1  0
 18 20  1  0
 19 18  2  0
 21 22  1  0
 21 20  1  6
 23 21  1  0
 24 23  1  0
 25 23  2  0
M  END
$$$$
