PQN.pdb
     RDKit          3D

 25 25  0  0  1  0  0  0  0  0999 V2000
   27.0164  -19.7273  -15.8093 N   0  0  0  0  0  0  0  0  0  0  0  0
   27.9694  -19.0125  -14.9825 C   0  0  0  0  0  0  0  0  0  0  0  0
   28.8898  -20.0391  -14.3612 C   0  0  0  0  0  0  0  0  0  0  0  0
   28.4319  -21.3829  -14.9131 C   0  0  0  0  0  0  0  0  0  0  0  0
   27.0413  -21.1047  -15.4480 C   0  0  1  0  0  0  0  0  0  0  0  0
   26.0763  -21.4359  -14.3505 C   0  0  0  0  0  0  0  0  0  0  0  0
   26.1115  -22.5858  -13.8970 O   0  0  0  0  0  0  0  0  0  0  0  0
   24.2526  -21.0086   -9.1861 N   0  0  0  0  0  0  0  0  0  0  0  0
   25.5478  -20.7067   -9.6691 C   0  0  0  0  0  0  0  0  0  0  0  0
   26.5311  -21.0329   -8.9563 O   0  0  0  0  0  0  0  0  0  0  0  0
   25.7823  -20.0255  -10.9760 C   0  0  0  0  0  0  0  0  0  0  0  0
   24.4532  -19.7218  -11.6231 C   0  0  0  0  0  0  0  0  0  0  0  0
   24.2023  -20.5750  -12.8560 C   0  0  2  0  0  0  0  0  0  0  0  0
   25.1807  -20.4566  -13.8813 N   0  0  0  0  0  0  0  0  0  0  0  0
   22.8173  -20.5659  -13.3194 C   0  0  0  0  0  0  0  0  0  0  0  0
   22.3074  -19.6046  -13.9696 O   0  0  0  0  0  0  0  0  0  0  0  0
   20.4519  -22.8282  -15.8834 N   0  0  0  0  0  0  0  0  0  0  0  0
   20.0633  -23.6653  -14.8125 C   0  0  0  0  0  0  0  0  0  0  0  0
   19.7630  -24.8574  -15.0160 O   0  0  0  0  0  0  0  0  0  0  0  0
   20.0178  -23.1060  -13.4288 C   0  0  0  0  0  0  0  0  0  0  0  0
   20.5456  -21.6753  -13.4811 C   0  0  2  0  0  0  0  0  0  0  0  0
   21.9300  -21.6636  -13.0621 N   0  0  0  0  0  0  0  0  0  0  0  0
   19.7546  -20.8830  -12.5211 C   0  0  0  0  0  0  0  0  0  0  0  0
   18.5157  -20.3634  -12.9037 O   0  0  0  0  0  0  0  0  0  0  0  0
   20.1732  -20.6636  -11.3646 O   0  0  0  0  0  0  0  0  0  0  0  0
  1  2  1  0
  3  2  1  0
  4  5  1  0
  4  3  1  0
  5  6  1  1
  5  1  1  0
  6  7  2  0
  9 11  1  0
  9  8  1  0
 10  9  2  0
 13 12  1  1
 12 11  1  0
 14 13  1  0
 14  6  1  0
 15 22  1  0
 15 13  1  0
 16 15  2  0
 17 18  1  0
 18 20  1  0
 19 18  2  0
 21 22  1  0
 21 20  1  1
 23 21  1  0
 24 23  1  0
 25 23  2  0
M  END
$$$$
