PQN.pdb
     RDKit          3D

 25 25  0  0  1  0  0  0  0  0999 V2000
   17.3740  -12.9544  -16.5996 N   0  0  0  0  0  0  0  0  0  0  0  0
   17.5328  -14.1874  -15.8531 C   0  0  0  0  0  0  0  0  0  0  0  0
   16.3176  -14.3397  -14.9659 C   0  0  0  0  0  0  0  0  0  0  0  0
   15.4332  -13.1395  -15.2778 C   0  0  0  0  0  0  0  0  0  0  0  0
   16.3661  -12.1676  -15.9723 C   0  0  1  0  0  0  0  0  0  0  0  0
   16.9128  -11.2558  -14.9162 C   0  0  0  0  0  0  0  0  0  0  0  0
   16.8850  -11.6643  -13.7494 O   0  0  0  0  0  0  0  0  0  0  0  0
   21.4095   -8.8176  -14.0823 N   0  0  0  0  0  0  0  0  0  0  0  0
   20.8627   -7.5999  -13.6128 C   0  0  0  0  0  0  0  0  0  0  0  0
   21.5233   -6.9482  -12.7642 O   0  0  0  0  0  0  0  0  0  0  0  0
   19.5493   -7.0712  -14.0842 C   0  0  0  0  0  0  0  0  0  0  0  0
   18.9485   -8.0422  -15.0710 C   0  0  0  0  0  0  0  0  0  0  0  0
   17.9456   -8.9813  -14.4201 C   0  0  2  0  0  0  0  0  0  0  0  0
   17.4265   -9.9946  -15.2722 N   0  0  0  0  0  0  0  0  0  0  0  0
   16.9551   -8.3121  -13.5810 C   0  0  0  0  0  0  0  0  0  0  0  0
   15.8441   -7.8877  -14.0198 O   0  0  0  0  0  0  0  0  0  0  0  0
   14.5374   -6.3107   -9.5858 N   0  0  0  0  0  0  0  0  0  0  0  0
   15.5523   -7.0945   -8.9906 C   0  0  0  0  0  0  0  0  0  0  0  0
   15.5959   -7.2431   -7.7542 O   0  0  0  0  0  0  0  0  0  0  0  0
   16.5747   -7.7475   -9.8611 C   0  0  0  0  0  0  0  0  0  0  0  0
   16.2074   -7.4628  -11.3145 C   0  0  2  0  0  0  0  0  0  0  0  0
   17.1817   -8.0874  -12.1823 N   0  0  0  0  0  0  0  0  0  0  0  0
   16.2744   -6.0016  -11.5033 C   0  0  0  0  0  0  0  0  0  0  0  0
   15.1079   -5.2371  -11.4252 O   0  0  0  0  0  0  0  0  0  0  0  0
   17.3603   -5.4292  -11.7351 O   0  0  0  0  0  0  0  0  0  0  0  0
  1  2  1  0
  3  2  1  0
  4  5  1  0
  4  3  1  0
  5  6  1  1
  5  1  1  0
  6  7  2  0
  9 11  1  0
  9  8  1  0
 10  9  2  0
 13 12  1  6
 12 11  1  0
 14 13  1  0
 14  6  1  0
 15 22  1  0
 15 13  1  0
 16 15  2  0
 17 18  1  0
 18 20  1  0
 19 18  2  0
 21 22  1  0
 21 20  1  1
 23 21  1  0
 24 23  1  0
 25 23  2  0
M  END
$$$$
