PQN.pdb
     RDKit          3D

 25 25  0  0  1  0  0  0  0  0999 V2000
   28.3997  -21.0043  -15.8800 N   0  0  0  0  0  0  0  0  0  0  0  0
   29.0790  -22.2512  -16.1747 C   0  0  0  0  0  0  0  0  0  0  0  0
   28.2144  -23.0189  -17.1495 C   0  0  0  0  0  0  0  0  0  0  0  0
   27.0170  -22.1193  -17.4270 C   0  0  0  0  0  0  0  0  0  0  0  0
   27.0405  -21.1170  -16.2903 C   0  0  1  0  0  0  0  0  0  0  0  0
   26.1503  -21.6569  -15.2126 C   0  0  0  0  0  0  0  0  0  0  0  0
   25.4477  -22.6336  -15.4985 O   0  0  0  0  0  0  0  0  0  0  0  0
   26.4241  -20.3042   -8.9228 N   0  0  0  0  0  0  0  0  0  0  0  0
   25.2049  -20.9962   -9.1145 C   0  0  0  0  0  0  0  0  0  0  0  0
   24.5933  -21.4021   -8.0934 O   0  0  0  0  0  0  0  0  0  0  0  0
   24.6292  -21.2557  -10.4665 C   0  0  0  0  0  0  0  0  0  0  0  0
   25.6294  -20.8447  -11.5193 C   0  0  0  0  0  0  0  0  0  0  0  0
   25.1458  -21.1523  -12.9273 C   0  0  2  0  0  0  0  0  0  0  0  0
   26.1378  -21.0527  -13.9414 N   0  0  0  0  0  0  0  0  0  0  0  0
   23.8568  -20.5529  -13.2625 C   0  0  0  0  0  0  0  0  0  0  0  0
   23.6546  -19.3017  -13.2793 O   0  0  0  0  0  0  0  0  0  0  0  0
   22.3283  -21.9386  -17.2655 N   0  0  0  0  0  0  0  0  0  0  0  0
   21.7095  -21.0097  -16.3979 C   0  0  0  0  0  0  0  0  0  0  0  0
   21.8092  -19.7850  -16.6045 O   0  0  0  0  0  0  0  0  0  0  0  0
   20.9299  -21.5119  -15.2275 C   0  0  0  0  0  0  0  0  0  0  0  0
   21.4395  -20.7965  -13.9798 C   0  0  2  0  0  0  0  0  0  0  0  0
   22.7172  -21.3571  -13.5986 N   0  0  0  0  0  0  0  0  0  0  0  0
   20.4684  -21.0566  -12.9006 C   0  0  0  0  0  0  0  0  0  0  0  0
   20.8180  -21.8942  -11.8388 O   0  0  0  0  0  0  0  0  0  0  0  0
   19.3307  -20.5408  -12.9170 O   0  0  0  0  0  0  0  0  0  0  0  0
  1  2  1  0
  3  2  1  0
  4  5  1  0
  4  3  1  0
  5  6  1  1
  5  1  1  0
  6  7  2  0
  9 11  1  0
  9  8  1  0
 10  9  2  0
 13 12  1  1
 12 11  1  0
 14 13  1  0
 14  6  1  0
 15 22  1  0
 15 13  1  0
 16 15  2  0
 17 18  1  0
 18 20  1  0
 19 18  2  0
 21 22  1  0
 21 20  1  6
 23 21  1  0
 24 23  1  0
 25 23  2  0
M  END
$$$$
