LSY.pdb
     RDKit          3D

 27 27  0  0  1  0  0  0  0  0999 V2000
    7.3501  -11.9384   20.0173 C   0  0  0  0  0  0  0  0  0  0  0  0
    8.0568  -13.2110   19.7094 C   0  0  1  0  0  0  0  0  0  0  0  0
    9.5372  -13.0075   19.4486 C   0  0  0  0  0  0  0  0  0  0  0  0
    7.9332  -14.1828   20.8367 C   0  0  0  0  0  0  0  0  0  0  0  0
    8.6574  -15.4565   20.5464 C   0  0  2  0  0  0  0  0  0  0  0  0
    8.0498  -16.1177   19.4200 N   0  0  0  0  0  0  0  0  0  0  0  0
    8.6422  -16.2867   21.7736 C   0  0  0  0  0  0  0  0  0  0  0  0
    7.5664  -16.9291   22.0334 O   0  0  0  0  0  0  0  0  0  0  0  0
   11.9011  -18.1310   23.1718 O   0  0  0  0  0  0  0  0  0  0  0  0
   10.6154  -18.4424   23.5494 C   0  0  0  0  0  0  0  0  0  0  0  0
    9.7566  -17.2203   23.7787 C   0  0  2  0  0  0  0  0  0  0  0  0
    9.7712  -16.3636   22.6211 N   0  0  0  0  0  0  0  0  0  0  0  0
   10.1442  -16.4688   24.9814 C   0  0  0  0  0  0  0  0  0  0  0  0
   11.0202  -15.5736   24.8695 O   0  0  0  0  0  0  0  0  0  0  0  0
    6.1112  -11.5135   25.4319 O   0  0  0  0  0  0  0  0  0  0  0  0
    6.7954  -12.4947   26.1355 C   0  0  0  0  0  0  0  0  0  0  0  0
    8.0045  -12.1757   26.7237 C   0  0  0  0  0  0  0  0  0  0  0  0
    8.7178  -13.1133   27.4301 C   0  0  0  0  0  0  0  0  0  0  0  0
    8.2026  -14.4054   27.5485 C   0  0  0  0  0  0  0  0  0  0  0  0
    8.9369  -15.4635   28.2747 C   0  0  0  0  0  0  0  0  0  0  0  0
   10.0730  -15.9848   27.4696 C   0  0  2  0  0  0  0  0  0  0  0  0
    9.6061  -16.6740   26.2650 N   0  0  0  0  0  0  0  0  0  0  0  0
   10.9700  -16.8698   28.2176 C   0  0  0  0  0  0  0  0  0  0  0  0
   11.6973  -16.4204   29.2933 O   0  0  0  0  0  0  0  0  0  0  0  0
    6.9864  -14.7125   26.9521 C   0  0  0  0  0  0  0  0  0  0  0  0
    6.2743  -13.7709   26.2452 C   0  0  0  0  0  0  0  0  0  0  0  0
   11.0835  -18.0658   27.8726 O   0  0  0  0  0  0  0  0  0  0  0  0
  2  1  1  1
  2  4  1  0
  2  3  1  0
  5  4  1  0
  5  6  1  6
  7  5  1  0
  8  7  2  0
  9 10  1  0
 11 10  1  6
 11 12  1  0
 12  7  1  0
 13 22  1  0
 13 11  1  0
 14 13  2  0
 16 15  1  0
 17 16  2  0
 18 17  1  0
 19 25  1  0
 19 18  2  0
 21 20  1  1
 20 19  1  0
 21 23  1  0
 21 22  1  0
 23 24  1  0
 25 26  2  0
 26 16  1  0
 27 23  2  0
M  END
$$$$
