LSY.pdb
     RDKit          3D

 27 27  0  0  1  0  0  0  0  0999 V2000
    7.5703  -12.3518   18.2894 C   0  0  0  0  0  0  0  0  0  0  0  0
    8.3166  -13.5795   17.9030 C   0  0  1  0  0  0  0  0  0  0  0  0
    9.8206  -13.3904   17.9617 C   0  0  0  0  0  0  0  0  0  0  0  0
    7.9767  -14.7226   18.8021 C   0  0  0  0  0  0  0  0  0  0  0  0
    8.7748  -15.9403   18.4689 C   0  0  2  0  0  0  0  0  0  0  0  0
    8.1163  -16.6854   17.4265 N   0  0  0  0  0  0  0  0  0  0  0  0
    8.9540  -16.7293   19.7103 C   0  0  0  0  0  0  0  0  0  0  0  0
    7.9265  -17.3357   20.1729 O   0  0  0  0  0  0  0  0  0  0  0  0
   11.8572  -18.5954   23.0849 O   0  0  0  0  0  0  0  0  0  0  0  0
   11.6768  -18.0568   21.8319 C   0  0  0  0  0  0  0  0  0  0  0  0
   10.3235  -17.4070   21.6594 C   0  0  2  0  0  0  0  0  0  0  0  0
   10.2097  -16.8067   20.3552 N   0  0  0  0  0  0  0  0  0  0  0  0
   10.0268  -16.4209   22.7087 C   0  0  0  0  0  0  0  0  0  0  0  0
   10.6416  -15.3242   22.6883 O   0  0  0  0  0  0  0  0  0  0  0  0
    6.3778  -10.8100   28.0905 O   0  0  0  0  0  0  0  0  0  0  0  0
    6.6308  -11.8458   27.2022 C   0  0  0  0  0  0  0  0  0  0  0  0
    6.0501  -13.0789   27.4297 C   0  0  0  0  0  0  0  0  0  0  0  0
    6.2711  -14.1339   26.5783 C   0  0  0  0  0  0  0  0  0  0  0  0
    7.0974  -13.9448   25.4690 C   0  0  0  0  0  0  0  0  0  0  0  0
    7.3926  -15.0495   24.5316 C   0  0  0  0  0  0  0  0  0  0  0  0
    8.7623  -15.5879   24.7427 C   0  0  2  0  0  0  0  0  0  0  0  0
    9.0974  -16.6088   23.7480 N   0  0  0  0  0  0  0  0  0  0  0  0
    8.9835  -16.1290   26.0864 C   0  0  0  0  0  0  0  0  0  0  0  0
    9.4399  -15.3424   27.1165 O   0  0  0  0  0  0  0  0  0  0  0  0
    7.6749  -12.7003   25.2523 C   0  0  0  0  0  0  0  0  0  0  0  0
    7.4513  -11.6455   26.1073 C   0  0  0  0  0  0  0  0  0  0  0  0
    8.7553  -17.3378   26.3086 O   0  0  0  0  0  0  0  0  0  0  0  0
  2  1  1  1
  2  4  1  0
  2  3  1  0
  5  4  1  0
  5  6  1  6
  7  5  1  0
  8  7  2  0
  9 10  1  0
 11 10  1  1
 11 12  1  0
 12  7  1  0
 13 22  1  0
 13 11  1  0
 14 13  2  0
 16 15  1  0
 17 16  2  0
 18 17  1  0
 19 25  1  0
 19 18  2  0
 21 20  1  1
 20 19  1  0
 21 23  1  0
 21 22  1  0
 23 24  1  0
 25 26  2  0
 26 16  1  0
 27 23  2  0
M  END
$$$$
