LSY.pdb
     RDKit          3D

 27 27  0  0  1  0  0  0  0  0999 V2000
    6.7976  -14.0490   18.7301 C   0  0  0  0  0  0  0  0  0  0  0  0
    8.2271  -13.6908   18.9342 C   0  0  1  0  0  0  0  0  0  0  0  0
    8.4363  -12.1973   19.0982 C   0  0  0  0  0  0  0  0  0  0  0  0
    8.7805  -14.3538   20.1526 C   0  0  0  0  0  0  0  0  0  0  0  0
   10.1712  -13.8940   20.4450 C   0  0  2  0  0  0  0  0  0  0  0  0
   11.0201  -14.1544   19.3106 N   0  0  0  0  0  0  0  0  0  0  0  0
   10.6347  -14.5773   21.6754 C   0  0  0  0  0  0  0  0  0  0  0  0
   11.5647  -15.4471   21.5479 O   0  0  0  0  0  0  0  0  0  0  0  0
    8.5964  -14.3437   25.3962 O   0  0  0  0  0  0  0  0  0  0  0  0
    9.9708  -14.2932   25.3629 C   0  0  0  0  0  0  0  0  0  0  0  0
   10.5538  -14.9342   24.1248 C   0  0  2  0  0  0  0  0  0  0  0  0
   10.0705  -14.2789   22.9368 N   0  0  0  0  0  0  0  0  0  0  0  0
   10.2973  -16.3801   24.0570 C   0  0  0  0  0  0  0  0  0  0  0  0
    9.2686  -16.7762   23.4518 O   0  0  0  0  0  0  0  0  0  0  0  0
   15.9766  -19.0862   21.0819 O   0  0  0  0  0  0  0  0  0  0  0  0
   14.7071  -19.1590   21.6376 C   0  0  0  0  0  0  0  0  0  0  0  0
   14.4994  -19.9864   22.7248 C   0  0  0  0  0  0  0  0  0  0  0  0
   13.2604  -20.0913   23.3086 C   0  0  0  0  0  0  0  0  0  0  0  0
   12.2024  -19.3453   22.7862 C   0  0  0  0  0  0  0  0  0  0  0  0
   10.8411  -19.4360   23.3562 C   0  0  0  0  0  0  0  0  0  0  0  0
   10.7692  -18.7891   24.6930 C   0  0  2  0  0  0  0  0  0  0  0  0
   11.1219  -17.3698   24.6226 N   0  0  0  0  0  0  0  0  0  0  0  0
   11.5948  -19.4441   25.7112 C   0  0  0  0  0  0  0  0  0  0  0  0
   11.4752  -20.7850   25.9861 O   0  0  0  0  0  0  0  0  0  0  0  0
   12.4250  -18.5178   21.6930 C   0  0  0  0  0  0  0  0  0  0  0  0
   13.6675  -18.4149   21.1106 C   0  0  0  0  0  0  0  0  0  0  0  0
   12.4307  -18.7712   26.3523 O   0  0  0  0  0  0  0  0  0  0  0  0
  2  1  1  1
  2  4  1  0
  2  3  1  0
  5  4  1  0
  5  6  1  6
  7  5  1  0
  8  7  2  0
  9 10  1  0
 11 10  1  1
 11 12  1  0
 12  7  1  0
 13 22  1  0
 13 11  1  0
 14 13  2  0
 16 15  1  0
 17 16  2  0
 18 17  1  0
 19 25  1  0
 19 18  2  0
 21 20  1  6
 20 19  1  0
 21 23  1  0
 21 22  1  0
 23 24  1  0
 25 26  2  0
 26 16  1  0
 27 23  2  0
M  END
$$$$
