LSY.pdb
     RDKit          3D

 27 27  0  0  1  0  0  0  0  0999 V2000
    7.3614  -11.8528   19.2893 C   0  0  0  0  0  0  0  0  0  0  0  0
    7.8790  -13.1163   18.6984 C   0  0  1  0  0  0  0  0  0  0  0  0
    9.2927  -12.9750   18.1666 C   0  0  0  0  0  0  0  0  0  0  0  0
    7.8911  -14.2179   19.7067 C   0  0  0  0  0  0  0  0  0  0  0  0
    8.4126  -15.4906   19.1242 C   0  0  2  0  0  0  0  0  0  0  0  0
    7.4499  -16.0356   18.2015 N   0  0  0  0  0  0  0  0  0  0  0  0
    8.7239  -16.4157   20.2391 C   0  0  0  0  0  0  0  0  0  0  0  0
    7.7491  -16.7922   20.9778 O   0  0  0  0  0  0  0  0  0  0  0  0
   12.6437  -18.0282   20.9683 O   0  0  0  0  0  0  0  0  0  0  0  0
   11.4624  -18.6908   21.2098 C   0  0  0  0  0  0  0  0  0  0  0  0
   10.3268  -17.7594   21.5653 C   0  0  2  0  0  0  0  0  0  0  0  0
   10.0445  -16.8618   20.4749 N   0  0  0  0  0  0  0  0  0  0  0  0
   10.5739  -17.0057   22.8030 C   0  0  0  0  0  0  0  0  0  0  0  0
   11.1130  -15.8731   22.7148 O   0  0  0  0  0  0  0  0  0  0  0  0
   10.7366  -13.9724   30.9960 O   0  0  0  0  0  0  0  0  0  0  0  0
   10.3902  -14.5786   29.7967 C   0  0  0  0  0  0  0  0  0  0  0  0
   10.4157  -15.9577   29.7125 C   0  0  0  0  0  0  0  0  0  0  0  0
   10.0809  -16.6025   28.5468 C   0  0  0  0  0  0  0  0  0  0  0  0
    9.7107  -15.8415   27.4364 C   0  0  0  0  0  0  0  0  0  0  0  0
    9.3645  -16.4781   26.1476 C   0  0  0  0  0  0  0  0  0  0  0  0
   10.5767  -16.7275   25.3236 C   0  0  2  0  0  0  0  0  0  0  0  0
   10.2512  -17.4564   24.0961 N   0  0  0  0  0  0  0  0  0  0  0  0
   11.6421  -17.4345   26.0393 C   0  0  0  0  0  0  0  0  0  0  0  0
   12.6506  -16.7601   26.6845 O   0  0  0  0  0  0  0  0  0  0  0  0
    9.6895  -14.4562   27.5348 C   0  0  0  0  0  0  0  0  0  0  0  0
   10.0254  -13.8134   28.7041 C   0  0  0  0  0  0  0  0  0  0  0  0
   11.6416  -18.6842   26.0662 O   0  0  0  0  0  0  0  0  0  0  0  0
  2  1  1  1
  2  4  1  0
  2  3  1  0
  5  4  1  0
  5  6  1  6
  7  5  1  0
  8  7  2  0
  9 10  1  0
 11 10  1  6
 11 12  1  0
 12  7  1  0
 13 22  1  0
 13 11  1  0
 14 13  2  0
 16 15  1  0
 17 16  2  0
 18 17  1  0
 19 25  1  0
 19 18  2  0
 21 20  1  1
 20 19  1  0
 21 23  1  0
 21 22  1  0
 23 24  1  0
 25 26  2  0
 26 16  1  0
 27 23  2  0
M  END
$$$$
