LSY.pdb
     RDKit          3D

 27 27  0  0  1  0  0  0  0  0999 V2000
    7.6155  -11.8349   19.3196 C   0  0  0  0  0  0  0  0  0  0  0  0
    8.4728  -13.0364   19.1325 C   0  0  1  0  0  0  0  0  0  0  0  0
    9.9029  -12.8084   19.5840 C   0  0  0  0  0  0  0  0  0  0  0  0
    7.9437  -14.2015   19.9026 C   0  0  0  0  0  0  0  0  0  0  0  0
    8.8307  -15.3960   19.7709 C   0  0  2  0  0  0  0  0  0  0  0  0
    8.6351  -16.0096   18.4823 N   0  0  0  0  0  0  0  0  0  0  0  0
    8.5356  -16.3168   20.8937 C   0  0  0  0  0  0  0  0  0  0  0  0
    7.6721  -17.2378   20.6850 O   0  0  0  0  0  0  0  0  0  0  0  0
   10.9087  -18.5367   22.5899 O   0  0  0  0  0  0  0  0  0  0  0  0
    9.5382  -18.5155   22.7071 C   0  0  0  0  0  0  0  0  0  0  0  0
    9.0071  -17.1777   23.1675 C   0  0  2  0  0  0  0  0  0  0  0  0
    9.1826  -16.1806   22.1433 N   0  0  0  0  0  0  0  0  0  0  0  0
    9.6092  -16.7301   24.4318 C   0  0  0  0  0  0  0  0  0  0  0  0
   10.7302  -16.1617   24.3909 O   0  0  0  0  0  0  0  0  0  0  0  0
    6.1814  -11.2215   25.5626 O   0  0  0  0  0  0  0  0  0  0  0  0
    6.7785  -12.3458   26.1153 C   0  0  0  0  0  0  0  0  0  0  0  0
    5.9864  -13.4275   26.4500 C   0  0  0  0  0  0  0  0  0  0  0  0
    6.5321  -14.5620   26.9994 C   0  0  0  0  0  0  0  0  0  0  0  0
    7.9101  -14.6108   27.2183 C   0  0  0  0  0  0  0  0  0  0  0  0
    8.5511  -15.7946   27.8298 C   0  0  0  0  0  0  0  0  0  0  0  0
    9.5985  -16.3633   26.9410 C   0  0  2  0  0  0  0  0  0  0  0  0
    9.0235  -16.8888   25.7011 N   0  0  0  0  0  0  0  0  0  0  0  0
   10.4121  -17.4030   27.5770 C   0  0  0  0  0  0  0  0  0  0  0  0
   11.2102  -17.1333   28.6625 O   0  0  0  0  0  0  0  0  0  0  0  0
    8.6945  -13.5163   26.8775 C   0  0  0  0  0  0  0  0  0  0  0  0
    8.1445  -12.3814   26.3271 C   0  0  0  0  0  0  0  0  0  0  0  0
   10.3864  -18.5678   27.1243 O   0  0  0  0  0  0  0  0  0  0  0  0
  2  1  1  1
  2  4  1  0
  2  3  1  0
  5  4  1  0
  5  6  1  6
  7  5  1  0
  8  7  2  0
  9 10  1  0
 11 10  1  6
 11 12  1  0
 12  7  1  0
 13 22  1  0
 13 11  1  0
 14 13  2  0
 16 15  1  0
 17 16  2  0
 18 17  1  0
 19 25  1  0
 19 18  2  0
 21 20  1  1
 20 19  1  0
 21 23  1  0
 21 22  1  0
 23 24  1  0
 25 26  2  0
 26 16  1  0
 27 23  2  0
M  END
$$$$
