LSY.pdb
     RDKit          3D

 27 27  0  0  1  0  0  0  0  0999 V2000
    7.3599  -12.4568   18.0539 C   0  0  0  0  0  0  0  0  0  0  0  0
    8.2468  -13.5893   18.4339 C   0  0  1  0  0  0  0  0  0  0  0  0
    9.5392  -13.1268   19.0796 C   0  0  0  0  0  0  0  0  0  0  0  0
    7.5691  -14.5040   19.4007 C   0  0  0  0  0  0  0  0  0  0  0  0
    8.5259  -15.4885   19.9891 C   0  0  2  0  0  0  0  0  0  0  0  0
    8.5513  -16.6843   19.1862 N   0  0  0  0  0  0  0  0  0  0  0  0
    8.1184  -15.7484   21.3898 C   0  0  0  0  0  0  0  0  0  0  0  0
    8.1752  -14.7666   22.2086 O   0  0  0  0  0  0  0  0  0  0  0  0
    7.6889  -19.6574   22.9502 O   0  0  0  0  0  0  0  0  0  0  0  0
    6.8144  -18.6771   23.3586 C   0  0  0  0  0  0  0  0  0  0  0  0
    7.3698  -17.2825   23.1842 C   0  0  2  0  0  0  0  0  0  0  0  0
    7.6856  -17.0296   21.8020 N   0  0  0  0  0  0  0  0  0  0  0  0
    8.5398  -17.0244   24.0361 C   0  0  0  0  0  0  0  0  0  0  0  0
    9.6840  -17.2341   23.5585 O   0  0  0  0  0  0  0  0  0  0  0  0
    5.3481  -11.7856   27.2399 O   0  0  0  0  0  0  0  0  0  0  0  0
    6.4960  -12.5272   26.9988 C   0  0  0  0  0  0  0  0  0  0  0  0
    6.5951  -13.2422   25.8204 C   0  0  0  0  0  0  0  0  0  0  0  0
    7.7117  -13.9905   25.5376 C   0  0  0  0  0  0  0  0  0  0  0  0
    8.7563  -14.0212   26.4633 C   0  0  0  0  0  0  0  0  0  0  0  0
    9.9720  -14.8286   26.2259 C   0  0  0  0  0  0  0  0  0  0  0  0
    9.6585  -16.2815   26.1872 C   0  0  2  0  0  0  0  0  0  0  0  0
    8.4809  -16.5552   25.3612 N   0  0  0  0  0  0  0  0  0  0  0  0
    9.4719  -16.8809   27.5113 C   0  0  0  0  0  0  0  0  0  0  0  0
   10.4673  -16.8660   28.4584 O   0  0  0  0  0  0  0  0  0  0  0  0
    8.6435  -13.2981   27.6439 C   0  0  0  0  0  0  0  0  0  0  0  0
    7.5235  -12.5494   27.9240 C   0  0  0  0  0  0  0  0  0  0  0  0
    8.3819  -17.4241   27.7932 O   0  0  0  0  0  0  0  0  0  0  0  0
  2  1  1  1
  2  4  1  0
  2  3  1  0
  5  4  1  0
  5  6  1  6
  7  5  1  0
  8  7  2  0
  9 10  1  0
 11 10  1  6
 11 12  1  0
 12  7  1  0
 13 22  1  0
 13 11  1  0
 14 13  2  0
 16 15  1  0
 17 16  2  0
 18 17  1  0
 19 25  1  0
 19 18  2  0
 21 20  1  1
 20 19  1  0
 21 23  1  0
 21 22  1  0
 23 24  1  0
 25 26  2  0
 26 16  1  0
 27 23  2  0
M  END
$$$$
