LSY.pdb
     RDKit          3D

 27 27  0  0  1  0  0  0  0  0999 V2000
   12.3530  -21.7884   17.5763 C   0  0  0  0  0  0  0  0  0  0  0  0
   11.0189  -21.4294   17.0242 C   0  0  1  0  0  0  0  0  0  0  0  0
   10.1965  -22.6473   16.6481 C   0  0  0  0  0  0  0  0  0  0  0  0
   10.2213  -20.6415   18.0109 C   0  0  0  0  0  0  0  0  0  0  0  0
    8.8852  -20.2632   17.4608 C   0  0  2  0  0  0  0  0  0  0  0  0
    9.0491  -19.3118   16.3916 N   0  0  0  0  0  0  0  0  0  0  0  0
    8.0596  -19.7372   18.5731 C   0  0  0  0  0  0  0  0  0  0  0  0
    8.1976  -18.5005   18.8715 O   0  0  0  0  0  0  0  0  0  0  0  0
    5.0675  -22.0638   20.5372 O   0  0  0  0  0  0  0  0  0  0  0  0
    4.9909  -20.7014   20.3625 C   0  0  0  0  0  0  0  0  0  0  0  0
    6.3464  -20.0338   20.3368 C   0  0  2  0  0  0  0  0  0  0  0  0
    7.1577  -20.5698   19.2744 N   0  0  0  0  0  0  0  0  0  0  0  0
    7.0525  -20.1280   21.6228 C   0  0  0  0  0  0  0  0  0  0  0  0
    7.9926  -20.9565   21.7283 O   0  0  0  0  0  0  0  0  0  0  0  0
    9.5194  -19.2756   29.9936 O   0  0  0  0  0  0  0  0  0  0  0  0
    8.9138  -19.0643   28.7629 C   0  0  0  0  0  0  0  0  0  0  0  0
    7.5919  -19.4309   28.5964 C   0  0  0  0  0  0  0  0  0  0  0  0
    6.9500  -19.2413   27.3968 C   0  0  0  0  0  0  0  0  0  0  0  0
    7.6550  -18.6681   26.3369 C   0  0  0  0  0  0  0  0  0  0  0  0
    7.0251  -18.4626   25.0150 C   0  0  0  0  0  0  0  0  0  0  0  0
    7.3700  -19.5608   24.0739 C   0  0  2  0  0  0  0  0  0  0  0  0
    6.7566  -19.3549   22.7604 N   0  0  0  0  0  0  0  0  0  0  0  0
    7.0197  -20.8947   24.5690 C   0  0  0  0  0  0  0  0  0  0  0  0
    7.9457  -21.7051   25.1805 O   0  0  0  0  0  0  0  0  0  0  0  0
    8.9832  -18.3045   26.5179 C   0  0  0  0  0  0  0  0  0  0  0  0
    9.6232  -18.4958   27.7210 C   0  0  0  0  0  0  0  0  0  0  0  0
    5.8501  -21.3144   24.4330 O   0  0  0  0  0  0  0  0  0  0  0  0
  2  1  1  1
  2  4  1  0
  2  3  1  0
  5  4  1  0
  5  6  1  6
  7  5  1  0
  8  7  2  0
  9 10  1  0
 11 10  1  1
 11 12  1  0
 12  7  1  0
 13 22  1  0
 13 11  1  0
 14 13  2  0
 16 15  1  0
 17 16  2  0
 18 17  1  0
 19 25  1  0
 19 18  2  0
 21 20  1  1
 20 19  1  0
 21 23  1  0
 21 22  1  0
 23 24  1  0
 25 26  2  0
 26 16  1  0
 27 23  2  0
M  END
$$$$
