LSY.pdb
     RDKit          3D

 27 27  0  0  1  0  0  0  0  0999 V2000
    7.4520  -11.9902   19.9123 C   0  0  0  0  0  0  0  0  0  0  0  0
    8.0659  -13.3268   19.6882 C   0  0  1  0  0  0  0  0  0  0  0  0
    9.5574  -13.2464   19.4233 C   0  0  0  0  0  0  0  0  0  0  0  0
    7.8719  -14.2149   20.8731 C   0  0  0  0  0  0  0  0  0  0  0  0
    8.4754  -15.5634   20.6541 C   0  0  2  0  0  0  0  0  0  0  0  0
    7.7427  -16.2660   19.6320 N   0  0  0  0  0  0  0  0  0  0  0  0
    8.4824  -16.2825   21.9497 C   0  0  0  0  0  0  0  0  0  0  0  0
    7.3833  -16.8162   22.3299 O   0  0  0  0  0  0  0  0  0  0  0  0
    9.8095  -19.5528   23.1588 O   0  0  0  0  0  0  0  0  0  0  0  0
   10.5539  -18.4697   23.5654 C   0  0  0  0  0  0  0  0  0  0  0  0
    9.7084  -17.2547   23.8695 C   0  0  2  0  0  0  0  0  0  0  0  0
    9.6566  -16.3731   22.7319 N   0  0  0  0  0  0  0  0  0  0  0  0
   10.1627  -16.5288   25.0644 C   0  0  0  0  0  0  0  0  0  0  0  0
   11.1381  -15.7433   24.9508 O   0  0  0  0  0  0  0  0  0  0  0  0
    6.0860  -11.5199   25.4648 O   0  0  0  0  0  0  0  0  0  0  0  0
    6.8149  -12.4654   26.1724 C   0  0  0  0  0  0  0  0  0  0  0  0
    6.3100  -13.7461   26.2927 C   0  0  0  0  0  0  0  0  0  0  0  0
    6.9955  -14.7158   26.9832 C   0  0  0  0  0  0  0  0  0  0  0  0
    8.2204  -14.3899   27.5683 C   0  0  0  0  0  0  0  0  0  0  0  0
    8.9914  -15.3840   28.3450 C   0  0  0  0  0  0  0  0  0  0  0  0
   10.0948  -15.9662   27.5361 C   0  0  2  0  0  0  0  0  0  0  0  0
    9.5857  -16.6442   26.3424 N   0  0  0  0  0  0  0  0  0  0  0  0
   10.9554  -16.8851   28.2859 C   0  0  0  0  0  0  0  0  0  0  0  0
   11.7871  -16.4429   29.2863 O   0  0  0  0  0  0  0  0  0  0  0  0
    8.7161  -13.0987   27.4398 C   0  0  0  0  0  0  0  0  0  0  0  0
    8.0270  -12.1298   26.7472 C   0  0  0  0  0  0  0  0  0  0  0  0
   10.9398  -18.1047   28.0123 O   0  0  0  0  0  0  0  0  0  0  0  0
  2  1  1  1
  2  4  1  0
  2  3  1  0
  5  4  1  0
  5  6  1  6
  7  5  1  0
  8  7  2  0
  9 10  1  0
 11 10  1  6
 11 12  1  0
 12  7  1  0
 13 22  1  0
 13 11  1  0
 14 13  2  0
 16 15  1  0
 17 16  2  0
 18 17  1  0
 19 25  1  0
 19 18  2  0
 21 20  1  1
 20 19  1  0
 21 23  1  0
 21 22  1  0
 23 24  1  0
 25 26  2  0
 26 16  1  0
 27 23  2  0
M  END
$$$$
