LSY.pdb
     RDKit          3D

 27 27  0  0  1  0  0  0  0  0999 V2000
    6.8538  -12.3214   19.5650 C   0  0  0  0  0  0  0  0  0  0  0  0
    8.0331  -13.2113   19.7405 C   0  0  1  0  0  0  0  0  0  0  0  0
    9.3399  -12.4431   19.7980 C   0  0  0  0  0  0  0  0  0  0  0  0
    7.9274  -14.0041   21.0018 C   0  0  0  0  0  0  0  0  0  0  0  0
    9.1804  -14.7691   21.2769 C   0  0  2  0  0  0  0  0  0  0  0  0
    9.4413  -15.6838   20.1951 N   0  0  0  0  0  0  0  0  0  0  0  0
    9.0261  -15.4549   22.5814 C   0  0  0  0  0  0  0  0  0  0  0  0
    8.1673  -14.9734   23.3988 O   0  0  0  0  0  0  0  0  0  0  0  0
   11.4443  -18.7379   23.6541 O   0  0  0  0  0  0  0  0  0  0  0  0
   10.1454  -18.6780   24.1033 C   0  0  0  0  0  0  0  0  0  0  0  0
    9.6084  -17.2669   24.1661 C   0  0  2  0  0  0  0  0  0  0  0  0
    9.7978  -16.5938   22.9070 N   0  0  0  0  0  0  0  0  0  0  0  0
   10.1937  -16.4827   25.2633 C   0  0  0  0  0  0  0  0  0  0  0  0
   11.1592  -15.7202   25.0032 O   0  0  0  0  0  0  0  0  0  0  0  0
    6.0484  -11.7449   25.2998 O   0  0  0  0  0  0  0  0  0  0  0  0
    6.8660  -12.5511   26.0792 C   0  0  0  0  0  0  0  0  0  0  0  0
    6.3462  -13.7164   26.6097 C   0  0  0  0  0  0  0  0  0  0  0  0
    7.1169  -14.5463   27.3870 C   0  0  0  0  0  0  0  0  0  0  0  0
    8.4449  -14.1960   27.6377 C   0  0  0  0  0  0  0  0  0  0  0  0
    9.3155  -15.0362   28.4875 C   0  0  0  0  0  0  0  0  0  0  0  0
   10.3523  -15.7318   27.6802 C   0  0  2  0  0  0  0  0  0  0  0  0
    9.7538  -16.5174   26.5992 N   0  0  0  0  0  0  0  0  0  0  0  0
   11.2384  -16.5906   28.4705 C   0  0  0  0  0  0  0  0  0  0  0  0
   12.0655  -16.0780   29.4407 O   0  0  0  0  0  0  0  0  0  0  0  0
    8.9545  -13.0217   27.0984 C   0  0  0  0  0  0  0  0  0  0  0  0
    8.1796  -12.1927   26.3200 C   0  0  0  0  0  0  0  0  0  0  0  0
   11.2494  -17.8228   28.2608 O   0  0  0  0  0  0  0  0  0  0  0  0
  2  1  1  1
  2  4  1  0
  2  3  1  0
  5  4  1  0
  5  6  1  6
  7  5  1  0
  8  7  2  0
  9 10  1  0
 11 10  1  6
 11 12  1  0
 12  7  1  0
 13 22  1  0
 13 11  1  0
 14 13  2  0
 16 15  1  0
 17 16  2  0
 18 17  1  0
 19 25  1  0
 19 18  2  0
 21 20  1  1
 20 19  1  0
 21 23  1  0
 21 22  1  0
 23 24  1  0
 25 26  2  0
 26 16  1  0
 27 23  2  0
M  END
$$$$
