LSY.pdb
     RDKit          3D

 27 27  0  0  1  0  0  0  0  0999 V2000
    7.6012  -11.8565   19.1891 C   0  0  0  0  0  0  0  0  0  0  0  0
    8.3832  -13.0988   18.9468 C   0  0  1  0  0  0  0  0  0  0  0  0
    9.8694  -12.9078   19.1834 C   0  0  0  0  0  0  0  0  0  0  0  0
    7.9290  -14.2050   19.8414 C   0  0  0  0  0  0  0  0  0  0  0  0
    8.7578  -15.4343   19.6600 C   0  0  2  0  0  0  0  0  0  0  0  0
    8.3593  -16.1184   18.4565 N   0  0  0  0  0  0  0  0  0  0  0  0
    8.6096  -16.2745   20.8715 C   0  0  0  0  0  0  0  0  0  0  0  0
    7.4797  -16.8470   21.0531 O   0  0  0  0  0  0  0  0  0  0  0  0
   11.8164  -18.1654   22.3832 O   0  0  0  0  0  0  0  0  0  0  0  0
   10.5171  -18.5616   22.6012 C   0  0  0  0  0  0  0  0  0  0  0  0
    9.5817  -17.4014   22.8511 C   0  0  2  0  0  0  0  0  0  0  0  0
    9.6744  -16.4347   21.7876 N   0  0  0  0  0  0  0  0  0  0  0  0
    9.8067  -16.7583   24.1538 C   0  0  0  0  0  0  0  0  0  0  0  0
   10.6723  -15.8493   24.2292 O   0  0  0  0  0  0  0  0  0  0  0  0
    6.1971  -11.2411   26.1465 O   0  0  0  0  0  0  0  0  0  0  0  0
    6.7058  -12.4878   26.4823 C   0  0  0  0  0  0  0  0  0  0  0  0
    8.0170  -12.5825   26.9081 C   0  0  0  0  0  0  0  0  0  0  0  0
    8.5646  -13.7947   27.2513 C   0  0  0  0  0  0  0  0  0  0  0  0
    7.7737  -14.9418   27.1643 C   0  0  0  0  0  0  0  0  0  0  0  0
    8.3150  -16.2771   27.4959 C   0  0  0  0  0  0  0  0  0  0  0  0
    9.5062  -16.6001   26.6668 C   0  0  2  0  0  0  0  0  0  0  0  0
    9.1216  -17.0828   25.3390 N   0  0  0  0  0  0  0  0  0  0  0  0
   10.4150  -17.5662   27.2896 C   0  0  0  0  0  0  0  0  0  0  0  0
   11.2192  -17.2230   28.3495 O   0  0  0  0  0  0  0  0  0  0  0  0
    6.4573  -14.8323   26.7346 C   0  0  0  0  0  0  0  0  0  0  0  0
    5.9120  -13.6164   26.3916 C   0  0  0  0  0  0  0  0  0  0  0  0
   10.4671  -18.7349   26.8491 O   0  0  0  0  0  0  0  0  0  0  0  0
  2  1  1  1
  2  4  1  0
  2  3  1  0
  5  4  1  0
  5  6  1  6
  7  5  1  0
  8  7  2  0
  9 10  1  0
 11 10  1  6
 11 12  1  0
 12  7  1  0
 13 22  1  0
 13 11  1  0
 14 13  2  0
 16 15  1  0
 17 16  2  0
 18 17  1  0
 19 25  1  0
 19 18  2  0
 21 20  1  1
 20 19  1  0
 21 23  1  0
 21 22  1  0
 23 24  1  0
 25 26  2  0
 26 16  1  0
 27 23  2  0
M  END
$$$$
