LSY.pdb
     RDKit          3D

 27 27  0  0  1  0  0  0  0  0999 V2000
    8.4431  -13.5826   18.6118 C   0  0  0  0  0  0  0  0  0  0  0  0
    8.5734  -13.4027   20.0830 C   0  0  1  0  0  0  0  0  0  0  0  0
    8.4538  -11.9508   20.5057 C   0  0  0  0  0  0  0  0  0  0  0  0
    7.5200  -14.1674   20.8152 C   0  0  0  0  0  0  0  0  0  0  0  0
    7.7082  -15.6417   20.6676 C   0  0  2  0  0  0  0  0  0  0  0  0
    6.5569  -16.2186   20.0220 N   0  0  0  0  0  0  0  0  0  0  0  0
    7.9563  -16.2128   22.0121 C   0  0  0  0  0  0  0  0  0  0  0  0
    6.9628  -16.2715   22.8165 O   0  0  0  0  0  0  0  0  0  0  0  0
   11.4694  -18.3285   22.9445 O   0  0  0  0  0  0  0  0  0  0  0  0
   10.2705  -18.5107   23.5942 C   0  0  0  0  0  0  0  0  0  0  0  0
    9.4557  -17.2419   23.6934 C   0  0  2  0  0  0  0  0  0  0  0  0
    9.2392  -16.6727   22.3883 N   0  0  0  0  0  0  0  0  0  0  0  0
   10.0553  -16.2487   24.5963 C   0  0  0  0  0  0  0  0  0  0  0  0
   10.8875  -15.4349   24.1205 O   0  0  0  0  0  0  0  0  0  0  0  0
    4.9228  -13.0222   26.4227 O   0  0  0  0  0  0  0  0  0  0  0  0
    6.2659  -13.2957   26.6402 C   0  0  0  0  0  0  0  0  0  0  0  0
    6.7162  -14.5939   26.4941 C   0  0  0  0  0  0  0  0  0  0  0  0
    8.0365  -14.9130   26.6986 C   0  0  0  0  0  0  0  0  0  0  0  0
    8.9277  -13.9008   27.0595 C   0  0  0  0  0  0  0  0  0  0  0  0
   10.3550  -14.1877   27.3177 C   0  0  0  0  0  0  0  0  0  0  0  0
   10.6997  -15.5887   26.9585 C   0  0  2  0  0  0  0  0  0  0  0  0
    9.7685  -16.1342   25.9689 N   0  0  0  0  0  0  0  0  0  0  0  0
   10.7694  -16.4934   28.1091 C   0  0  0  0  0  0  0  0  0  0  0  0
   10.0495  -17.6630   28.1539 O   0  0  0  0  0  0  0  0  0  0  0  0
    8.4617  -12.6003   27.2032 C   0  0  0  0  0  0  0  0  0  0  0  0
    7.1384  -12.2841   26.9974 C   0  0  0  0  0  0  0  0  0  0  0  0
   11.4991  -16.1991   29.0804 O   0  0  0  0  0  0  0  0  0  0  0  0
  2  1  1  6
  2  4  1  0
  2  3  1  0
  5  4  1  0
  5  6  1  1
  7  5  1  0
  8  7  2  0
  9 10  1  0
 11 10  1  6
 11 12  1  0
 12  7  1  0
 13 22  1  0
 13 11  1  0
 14 13  2  0
 16 15  1  0
 17 16  2  0
 18 17  1  0
 19 25  1  0
 19 18  2  0
 21 20  1  1
 20 19  1  0
 21 23  1  0
 21 22  1  0
 23 24  1  0
 25 26  2  0
 26 16  1  0
 27 23  2  0
M  END
$$$$
