LSY.pdb
     RDKit          3D

 27 27  0  0  1  0  0  0  0  0999 V2000
    6.6838  -12.8660   18.3461 C   0  0  0  0  0  0  0  0  0  0  0  0
    7.9538  -13.5411   18.7269 C   0  0  1  0  0  0  0  0  0  0  0  0
    9.1215  -12.5772   18.8197 C   0  0  0  0  0  0  0  0  0  0  0  0
    7.8287  -14.2170   20.0528 C   0  0  0  0  0  0  0  0  0  0  0  0
    9.0935  -14.9127   20.4367 C   0  0  2  0  0  0  0  0  0  0  0  0
    9.4833  -15.8273   19.3943 N   0  0  0  0  0  0  0  0  0  0  0  0
    8.8731  -15.5877   21.7373 C   0  0  0  0  0  0  0  0  0  0  0  0
    8.4404  -14.8700   22.7043 O   0  0  0  0  0  0  0  0  0  0  0  0
   10.4392  -19.4069   22.5799 O   0  0  0  0  0  0  0  0  0  0  0  0
    9.2048  -19.0817   23.0930 C   0  0  0  0  0  0  0  0  0  0  0  0
    8.9817  -17.5903   23.1903 C   0  0  2  0  0  0  0  0  0  0  0  0
    9.1317  -16.9680   21.9002 N   0  0  0  0  0  0  0  0  0  0  0  0
    9.8589  -16.9462   24.1788 C   0  0  0  0  0  0  0  0  0  0  0  0
   11.0110  -16.5962   23.8162 O   0  0  0  0  0  0  0  0  0  0  0  0
    5.6325  -12.0645   26.7756 O   0  0  0  0  0  0  0  0  0  0  0  0
    6.8500  -12.7238   26.6814 C   0  0  0  0  0  0  0  0  0  0  0  0
    7.6721  -12.7718   27.7911 C   0  0  0  0  0  0  0  0  0  0  0  0
    8.8861  -13.4129   27.7461 C   0  0  0  0  0  0  0  0  0  0  0  0
    9.2845  -14.0217   26.5546 C   0  0  0  0  0  0  0  0  0  0  0  0
   10.5908  -14.7044   26.4381 C   0  0  0  0  0  0  0  0  0  0  0  0
   10.4402  -16.1810   26.5255 C   0  0  2  0  0  0  0  0  0  0  0  0
    9.5076  -16.6864   25.5161 N   0  0  0  0  0  0  0  0  0  0  0  0
   10.0263  -16.6552   27.8488 C   0  0  0  0  0  0  0  0  0  0  0  0
    8.9005  -17.4239   28.0218 O   0  0  0  0  0  0  0  0  0  0  0  0
    8.4486  -13.9656   25.4467 C   0  0  0  0  0  0  0  0  0  0  0  0
    7.2330  -13.3227   25.4953 C   0  0  0  0  0  0  0  0  0  0  0  0
   10.7090  -16.3547   28.8518 O   0  0  0  0  0  0  0  0  0  0  0  0
  2  1  1  1
  2  4  1  0
  2  3  1  0
  5  4  1  0
  5  6  1  6
  7  5  1  0
  8  7  2  0
  9 10  1  0
 11 10  1  6
 11 12  1  0
 12  7  1  0
 13 22  1  0
 13 11  1  0
 14 13  2  0
 16 15  1  0
 17 16  2  0
 18 17  1  0
 19 25  1  0
 19 18  2  0
 21 20  1  1
 20 19  1  0
 21 23  1  0
 21 22  1  0
 23 24  1  0
 25 26  2  0
 26 16  1  0
 27 23  2  0
M  END
$$$$
