LSY.pdb
     RDKit          3D

 27 27  0  0  1  0  0  0  0  0999 V2000
    7.3581  -11.9102   20.4255 C   0  0  0  0  0  0  0  0  0  0  0  0
    7.8666  -13.2675   20.0897 C   0  0  1  0  0  0  0  0  0  0  0  0
    9.3265  -13.2578   19.6777 C   0  0  0  0  0  0  0  0  0  0  0  0
    7.7393  -14.1944   21.2538 C   0  0  0  0  0  0  0  0  0  0  0  0
    8.3702  -15.5189   20.9737 C   0  0  2  0  0  0  0  0  0  0  0  0
    7.5637  -16.2548   20.0339 N   0  0  0  0  0  0  0  0  0  0  0  0
    8.5411  -16.2310   22.2618 C   0  0  0  0  0  0  0  0  0  0  0  0
    7.4895  -16.7125   22.8093 O   0  0  0  0  0  0  0  0  0  0  0  0
   12.2123  -17.7439   23.3926 O   0  0  0  0  0  0  0  0  0  0  0  0
   11.0129  -18.2321   23.8571 C   0  0  0  0  0  0  0  0  0  0  0  0
    9.9756  -17.1518   24.0585 C   0  0  2  0  0  0  0  0  0  0  0  0
    9.8148  -16.3708   22.8592 N   0  0  0  0  0  0  0  0  0  0  0  0
   10.2745  -16.2813   25.2048 C   0  0  0  0  0  0  0  0  0  0  0  0
   11.0806  -15.3306   25.0383 O   0  0  0  0  0  0  0  0  0  0  0  0
    5.7285  -11.9550   25.0244 O   0  0  0  0  0  0  0  0  0  0  0  0
    6.5119  -12.7402   25.8584 C   0  0  0  0  0  0  0  0  0  0  0  0
    7.6781  -12.2092   26.3757 C   0  0  0  0  0  0  0  0  0  0  0  0
    8.4857  -12.9480   27.2056 C   0  0  0  0  0  0  0  0  0  0  0  0
    8.1118  -14.2548   27.5239 C   0  0  0  0  0  0  0  0  0  0  0  0
    8.9531  -15.1068   28.3913 C   0  0  0  0  0  0  0  0  0  0  0  0
   10.1301  -15.6364   27.6530 C   0  0  2  0  0  0  0  0  0  0  0  0
    9.7232  -16.4286   26.4908 N   0  0  0  0  0  0  0  0  0  0  0  0
   11.0415  -16.4275   28.4841 C   0  0  0  0  0  0  0  0  0  0  0  0
   11.3448  -17.7335   28.1830 O   0  0  0  0  0  0  0  0  0  0  0  0
    6.9372  -14.7762   26.9968 C   0  0  0  0  0  0  0  0  0  0  0  0
    6.1303  -14.0333   26.1658 C   0  0  0  0  0  0  0  0  0  0  0  0
   11.5590  -15.9082   29.4965 O   0  0  0  0  0  0  0  0  0  0  0  0
  2  1  1  1
  2  4  1  0
  2  3  1  0
  5  4  1  0
  5  6  1  6
  7  5  1  0
  8  7  2  0
  9 10  1  0
 11 10  1  6
 11 12  1  0
 12  7  1  0
 13 22  1  0
 13 11  1  0
 14 13  2  0
 16 15  1  0
 17 16  2  0
 18 17  1  0
 19 25  1  0
 19 18  2  0
 21 20  1  1
 20 19  1  0
 21 23  1  0
 21 22  1  0
 23 24  1  0
 25 26  2  0
 26 16  1  0
 27 23  2  0
M  END
$$$$
