LSY.pdb
     RDKit          3D

 27 27  0  0  1  0  0  0  0  0999 V2000
    7.6233  -11.7305   19.2564 C   0  0  0  0  0  0  0  0  0  0  0  0
    8.4829  -12.9238   19.0310 C   0  0  1  0  0  0  0  0  0  0  0  0
    9.8622  -12.7730   19.6440 C   0  0  0  0  0  0  0  0  0  0  0  0
    7.8669  -14.1509   19.6185 C   0  0  0  0  0  0  0  0  0  0  0  0
    8.7742  -15.3315   19.5014 C   0  0  2  0  0  0  0  0  0  0  0  0
    8.6553  -15.9102   18.1876 N   0  0  0  0  0  0  0  0  0  0  0  0
    8.4309  -16.2870   20.5807 C   0  0  0  0  0  0  0  0  0  0  0  0
    7.5409  -17.1691   20.3214 O   0  0  0  0  0  0  0  0  0  0  0  0
   10.6183  -18.6314   22.1705 O   0  0  0  0  0  0  0  0  0  0  0  0
    9.2611  -18.5816   22.3898 C   0  0  0  0  0  0  0  0  0  0  0  0
    8.7878  -17.2211   22.8465 C   0  0  2  0  0  0  0  0  0  0  0  0
    9.0620  -16.2239   21.8442 N   0  0  0  0  0  0  0  0  0  0  0  0
    9.3610  -16.8231   24.1404 C   0  0  0  0  0  0  0  0  0  0  0  0
   10.4664  -16.2236   24.1446 O   0  0  0  0  0  0  0  0  0  0  0  0
    6.3154  -11.2093   26.0630 O   0  0  0  0  0  0  0  0  0  0  0  0
    6.8051  -12.4470   26.4557 C   0  0  0  0  0  0  0  0  0  0  0  0
    8.1238  -12.5479   26.8562 C   0  0  0  0  0  0  0  0  0  0  0  0
    8.6533  -13.7515   27.2536 C   0  0  0  0  0  0  0  0  0  0  0  0
    7.8361  -14.8834   27.2483 C   0  0  0  0  0  0  0  0  0  0  0  0
    8.3564  -16.2105   27.6410 C   0  0  0  0  0  0  0  0  0  0  0  0
    9.3726  -16.7021   26.6734 C   0  0  2  0  0  0  0  0  0  0  0  0
    8.7637  -17.0625   25.3915 N   0  0  0  0  0  0  0  0  0  0  0  0
   10.1628  -17.8320   27.1696 C   0  0  0  0  0  0  0  0  0  0  0  0
   11.1204  -17.6729   28.1421 O   0  0  0  0  0  0  0  0  0  0  0  0
    6.5125  -14.7678   26.8431 C   0  0  0  0  0  0  0  0  0  0  0  0
    5.9853  -13.5605   26.4458 C   0  0  0  0  0  0  0  0  0  0  0  0
    9.9677  -18.9735   26.6991 O   0  0  0  0  0  0  0  0  0  0  0  0
  2  1  1  1
  2  4  1  0
  2  3  1  0
  5  4  1  0
  5  6  1  6
  7  5  1  0
  8  7  2  0
  9 10  1  0
 11 10  1  6
 11 12  1  0
 12  7  1  0
 13 22  1  0
 13 11  1  0
 14 13  2  0
 16 15  1  0
 17 16  2  0
 18 17  1  0
 19 25  1  0
 19 18  2  0
 21 20  1  1
 20 19  1  0
 21 23  1  0
 21 22  1  0
 23 24  1  0
 25 26  2  0
 26 16  1  0
 27 23  2  0
M  END
$$$$
