LSY.pdb
     RDKit          3D

 27 27  0  0  1  0  0  0  0  0999 V2000
    6.6754  -12.4931   18.0626 C   0  0  0  0  0  0  0  0  0  0  0  0
    8.0513  -13.0110   18.2908 C   0  0  1  0  0  0  0  0  0  0  0  0
    8.9791  -11.9633   18.8761 C   0  0  0  0  0  0  0  0  0  0  0  0
    8.0416  -14.1715   19.2309 C   0  0  0  0  0  0  0  0  0  0  0  0
    9.4267  -14.6079   19.5798 C   0  0  2  0  0  0  0  0  0  0  0  0
   10.0800  -15.1396   18.4112 N   0  0  0  0  0  0  0  0  0  0  0  0
    9.3367  -15.5931   20.6830 C   0  0  0  0  0  0  0  0  0  0  0  0
    8.6221  -15.2752   21.6959 O   0  0  0  0  0  0  0  0  0  0  0  0
   11.9902  -18.8602   21.1016 O   0  0  0  0  0  0  0  0  0  0  0  0
   10.6543  -19.0500   21.3700 C   0  0  0  0  0  0  0  0  0  0  0  0
    9.9338  -17.7661   21.7103 C   0  0  2  0  0  0  0  0  0  0  0  0
   10.0140  -16.8322   20.6168 N   0  0  0  0  0  0  0  0  0  0  0  0
   10.4233  -17.1497   22.9519 C   0  0  0  0  0  0  0  0  0  0  0  0
   11.4830  -16.4744   22.9058 O   0  0  0  0  0  0  0  0  0  0  0  0
   11.2424  -14.2933   31.2116 O   0  0  0  0  0  0  0  0  0  0  0  0
   10.7338  -14.7520   30.0046 C   0  0  0  0  0  0  0  0  0  0  0  0
   10.5208  -16.1074   29.8405 C   0  0  0  0  0  0  0  0  0  0  0  0
   10.0190  -16.6083   28.6640 C   0  0  0  0  0  0  0  0  0  0  0  0
    9.7233  -15.7238   27.6251 C   0  0  0  0  0  0  0  0  0  0  0  0
    9.2049  -16.2063   26.3272 C   0  0  0  0  0  0  0  0  0  0  0  0
   10.3076  -16.6549   25.4363 C   0  0  2  0  0  0  0  0  0  0  0  0
    9.7923  -17.2564   24.2049 N   0  0  0  0  0  0  0  0  0  0  0  0
   11.2424  -17.5845   26.0758 C   0  0  0  0  0  0  0  0  0  0  0  0
   10.9799  -18.9307   26.1592 O   0  0  0  0  0  0  0  0  0  0  0  0
    9.9424  -14.3638   27.8034 C   0  0  0  0  0  0  0  0  0  0  0  0
   10.4451  -13.8654   28.9834 C   0  0  0  0  0  0  0  0  0  0  0  0
   12.3080  -17.1486   26.5627 O   0  0  0  0  0  0  0  0  0  0  0  0
  2  1  1  1
  2  4  1  0
  2  3  1  0
  5  4  1  0
  5  6  1  6
  7  5  1  0
  8  7  2  0
  9 10  1  0
 11 10  1  6
 11 12  1  0
 12  7  1  0
 13 22  1  0
 13 11  1  0
 14 13  2  0
 16 15  1  0
 17 16  2  0
 18 17  1  0
 19 25  1  0
 19 18  2  0
 21 20  1  1
 20 19  1  0
 21 23  1  0
 21 22  1  0
 23 24  1  0
 25 26  2  0
 26 16  1  0
 27 23  2  0
M  END
$$$$
