LSY.pdb
     RDKit          3D

 27 27  0  0  1  0  0  0  0  0999 V2000
    7.4596  -12.0105   19.1616 C   0  0  0  0  0  0  0  0  0  0  0  0
    8.5100  -12.9215   18.6321 C   0  0  1  0  0  0  0  0  0  0  0  0
    9.7421  -12.9668   19.5159 C   0  0  0  0  0  0  0  0  0  0  0  0
    7.9993  -14.3196   18.5092 C   0  0  0  0  0  0  0  0  0  0  0  0
    9.0969  -15.2794   18.1855 C   0  0  2  0  0  0  0  0  0  0  0  0
    8.9013  -15.8168   16.8634 N   0  0  0  0  0  0  0  0  0  0  0  0
    9.1174  -16.3281   19.2321 C   0  0  0  0  0  0  0  0  0  0  0  0
    8.3883  -17.3620   19.0402 O   0  0  0  0  0  0  0  0  0  0  0  0
   11.1222  -19.4174   21.6080 O   0  0  0  0  0  0  0  0  0  0  0  0
   10.9105  -18.3752   20.7353 C   0  0  0  0  0  0  0  0  0  0  0  0
   10.0445  -17.2837   21.3204 C   0  0  2  0  0  0  0  0  0  0  0  0
    9.9104  -16.1890   20.3942 N   0  0  0  0  0  0  0  0  0  0  0  0
   10.5347  -16.8026   22.6202 C   0  0  0  0  0  0  0  0  0  0  0  0
   11.6473  -16.2179   22.6594 O   0  0  0  0  0  0  0  0  0  0  0  0
   11.0799  -14.3094   31.0453 O   0  0  0  0  0  0  0  0  0  0  0  0
   10.6296  -14.7694   29.8159 C   0  0  0  0  0  0  0  0  0  0  0  0
   10.3294  -13.8514   28.8276 C   0  0  0  0  0  0  0  0  0  0  0  0
    9.8806  -14.2589   27.5949 C   0  0  0  0  0  0  0  0  0  0  0  0
    9.7294  -15.6248   27.3490 C   0  0  0  0  0  0  0  0  0  0  0  0
    9.2263  -16.1223   26.0507 C   0  0  0  0  0  0  0  0  0  0  0  0
   10.3435  -16.4408   25.1228 C   0  0  2  0  0  0  0  0  0  0  0  0
    9.8493  -16.9459   23.8404 N   0  0  0  0  0  0  0  0  0  0  0  0
   11.3175  -17.3869   25.6738 C   0  0  0  0  0  0  0  0  0  0  0  0
   12.5013  -16.9646   26.2290 O   0  0  0  0  0  0  0  0  0  0  0  0
   10.0346  -16.5367   28.3514 C   0  0  0  0  0  0  0  0  0  0  0  0
   10.4841  -16.1250   29.5851 C   0  0  0  0  0  0  0  0  0  0  0  0
   11.0730  -18.6123   25.6393 O   0  0  0  0  0  0  0  0  0  0  0  0
  2  1  1  1
  2  4  1  0
  2  3  1  0
  5  4  1  0
  5  6  1  6
  7  5  1  0
  8  7  2  0
  9 10  1  0
 11 10  1  6
 11 12  1  0
 12  7  1  0
 13 22  1  0
 13 11  1  0
 14 13  2  0
 16 15  1  0
 17 16  2  0
 18 17  1  0
 19 25  1  0
 19 18  2  0
 21 20  1  1
 20 19  1  0
 21 23  1  0
 21 22  1  0
 23 24  1  0
 25 26  2  0
 26 16  1  0
 27 23  2  0
M  END
$$$$
