LSY.pdb
     RDKit          3D

 27 27  0  0  1  0  0  0  0  0999 V2000
    9.7600  -13.4677   19.6669 C   0  0  0  0  0  0  0  0  0  0  0  0
    8.3441  -13.6230   20.0963 C   0  0  1  0  0  0  0  0  0  0  0  0
    7.5964  -12.3035   20.1285 C   0  0  0  0  0  0  0  0  0  0  0  0
    7.5987  -14.5342   19.1772 C   0  0  0  0  0  0  0  0  0  0  0  0
    8.1935  -15.9042   19.1596 C   0  0  2  0  0  0  0  0  0  0  0  0
    7.4968  -16.7266   18.2039 N   0  0  0  0  0  0  0  0  0  0  0  0
    8.1349  -16.4511   20.5354 C   0  0  0  0  0  0  0  0  0  0  0  0
    6.9751  -16.6474   21.0393 O   0  0  0  0  0  0  0  0  0  0  0  0
    9.7600  -19.5094   23.6044 O   0  0  0  0  0  0  0  0  0  0  0  0
    9.6954  -18.8538   22.3967 C   0  0  0  0  0  0  0  0  0  0  0  0
    9.2406  -17.4188   22.5291 C   0  0  2  0  0  0  0  0  0  0  0  0
    9.3136  -16.7426   21.2596 N   0  0  0  0  0  0  0  0  0  0  0  0
    9.9895  -16.6759   23.5531 C   0  0  0  0  0  0  0  0  0  0  0  0
   11.1906  -16.3852   23.3208 O   0  0  0  0  0  0  0  0  0  0  0  0
    4.9201  -12.4189   26.7843 O   0  0  0  0  0  0  0  0  0  0  0  0
    6.2227  -12.8417   26.5599 C   0  0  0  0  0  0  0  0  0  0  0  0
    6.5092  -13.5396   25.4021 C   0  0  0  0  0  0  0  0  0  0  0  0
    7.7835  -13.9783   25.1365 C   0  0  0  0  0  0  0  0  0  0  0  0
    8.7965  -13.7086   26.0585 C   0  0  0  0  0  0  0  0  0  0  0  0
   10.1816  -14.1772   25.8395 C   0  0  0  0  0  0  0  0  0  0  0  0
   10.2613  -15.6617   25.8613 C   0  0  2  0  0  0  0  0  0  0  0  0
    9.4626  -16.2584   24.7890 N   0  0  0  0  0  0  0  0  0  0  0  0
    9.8723  -16.2552   27.1434 C   0  0  0  0  0  0  0  0  0  0  0  0
   10.5596  -15.9867   28.3026 O   0  0  0  0  0  0  0  0  0  0  0  0
    8.4946  -13.0064   27.2183 C   0  0  0  0  0  0  0  0  0  0  0  0
    7.2169  -12.5683   27.4812 C   0  0  0  0  0  0  0  0  0  0  0  0
    8.8918  -17.0290   27.1914 O   0  0  0  0  0  0  0  0  0  0  0  0
  2  1  1  6
  2  4  1  0
  2  3  1  0
  5  4  1  0
  5  6  1  6
  7  5  1  0
  8  7  2  0
  9 10  1  0
 11 10  1  6
 11 12  1  0
 12  7  1  0
 13 22  1  0
 13 11  1  0
 14 13  2  0
 16 15  1  0
 17 16  2  0
 18 17  1  0
 19 25  1  0
 19 18  2  0
 21 20  1  1
 20 19  1  0
 21 23  1  0
 21 22  1  0
 23 24  1  0
 25 26  2  0
 26 16  1  0
 27 23  2  0
M  END
$$$$
