VKD.pdb
     RDKit          3D

 25 24  0  0  1  0  0  0  0  0999 V2000
    8.6829  -12.6534   17.0289 C   0  0  0  0  0  0  0  0  0  0  0  0
    9.0187  -13.4269   18.2808 C   0  0  2  0  0  0  0  0  0  0  0  0
   10.3561  -14.0986   18.1170 C   0  0  0  0  0  0  0  0  0  0  0  0
    7.9286  -14.4607   18.5611 C   0  0  2  0  0  0  0  0  0  0  0  0
    6.7359  -13.7122   18.8780 N   0  0  0  0  0  0  0  0  0  0  0  0
    8.3534  -15.2275   19.7324 C   0  0  0  0  0  0  0  0  0  0  0  0
    8.4197  -14.6374   20.8589 O   0  0  0  0  0  0  0  0  0  0  0  0
    8.7008  -16.6127   19.6834 N   0  0  0  0  0  0  0  0  0  0  0  0
    9.1481  -17.3461   20.8354 C   0  0  1  0  0  0  0  0  0  0  0  0
    8.5557  -18.7019   20.9581 C   0  0  0  0  0  0  0  0  0  0  0  0
    7.1094  -18.8544   20.6716 C   0  0  0  0  0  0  0  0  0  0  0  0
    6.7036  -20.2803   20.6319 C   0  0  0  0  0  0  0  0  0  0  0  0
    5.2187  -20.4808   20.4354 C   0  0  0  0  0  0  0  0  0  0  0  0
    4.8269  -21.8422   20.3365 N   0  0  0  0  0  0  0  0  0  0  0  0
   10.6037  -17.2498   21.0775 C   0  0  0  0  0  0  0  0  0  0  0  0
   11.4607  -17.4088   20.1459 O   0  0  0  0  0  0  0  0  0  0  0  0
   11.1732  -16.9713   22.3581 N   0  0  0  0  0  0  0  0  0  0  0  0
   12.5998  -16.9043   22.5633 C   0  0  1  0  0  0  0  0  0  0  0  0
   12.9531  -15.5323   23.1085 C   0  0  0  0  0  0  0  0  0  0  0  0
   14.4070  -15.3245   23.2655 C   0  0  0  0  0  0  0  0  0  0  0  0
   15.0047  -15.7211   24.2864 O   0  0  0  0  0  0  0  0  0  0  0  0
   13.0005  -17.9472   23.5239 C   0  0  0  0  0  0  0  0  0  0  0  0
   12.2385  -18.2353   24.4671 O   0  0  0  0  0  0  0  0  0  0  0  0
   15.1577  -14.6861   22.2928 O   0  0  0  0  0  0  0  0  0  0  0  0
   14.2024  -18.5972   23.3818 O   0  0  0  0  0  0  0  0  0  0  0  0
  2  1  1  6
  3  2  1  0
  4  2  1  0
  4  5  1  1
  6  7  2  0
  6  4  1  0
  8  6  1  0
  9  8  1  0
  9 10  1  6
 11 10  1  0
 11 12  1  0
 13 12  1  0
 13 14  1  0
 15  9  1  0
 16 15  2  0
 17 15  1  0
 18 22  1  0
 18 17  1  0
 18 19  1  1
 20 21  2  0
 20 19  1  0
 22 25  1  0
 23 22  2  0
 24 20  1  0
M  END
$$$$
