VKD.pdb
     RDKit          3D

 25 24  0  0  1  0  0  0  0  0999 V2000
    6.8176  -13.3790   20.4941 C   0  0  0  0  0  0  0  0  0  0  0  0
    8.0912  -13.2327   19.6973 C   0  0  2  0  0  0  0  0  0  0  0  0
    7.7734  -12.6843   18.3317 C   0  0  0  0  0  0  0  0  0  0  0  0
    8.7915  -14.5863   19.5835 C   0  0  2  0  0  0  0  0  0  0  0  0
    7.9383  -15.4133   18.7641 N   0  0  0  0  0  0  0  0  0  0  0  0
    8.8689  -15.1458   20.9331 C   0  0  0  0  0  0  0  0  0  0  0  0
    9.6408  -14.5925   21.7815 O   0  0  0  0  0  0  0  0  0  0  0  0
    8.1212  -16.2875   21.3566 N   0  0  0  0  0  0  0  0  0  0  0  0
    8.3469  -16.9454   22.6141 C   0  0  1  0  0  0  0  0  0  0  0  0
    7.3056  -17.9410   22.9726 C   0  0  0  0  0  0  0  0  0  0  0  0
    7.5409  -18.7912   24.1638 C   0  0  0  0  0  0  0  0  0  0  0  0
    6.4930  -19.8299   24.3142 C   0  0  0  0  0  0  0  0  0  0  0  0
    6.7038  -20.7325   25.5078 C   0  0  0  0  0  0  0  0  0  0  0  0
    5.8454  -21.8635   25.5366 N   0  0  0  0  0  0  0  0  0  0  0  0
    9.7482  -17.3678   22.8250 C   0  0  0  0  0  0  0  0  0  0  0  0
   10.2912  -18.2937   22.1354 O   0  0  0  0  0  0  0  0  0  0  0  0
   10.6089  -16.7834   23.8045 N   0  0  0  0  0  0  0  0  0  0  0  0
   11.8774  -17.3728   24.1583 C   0  0  1  0  0  0  0  0  0  0  0  0
   12.9492  -16.2991   24.1053 C   0  0  0  0  0  0  0  0  0  0  0  0
   13.8632  -16.4447   22.9543 C   0  0  0  0  0  0  0  0  0  0  0  0
   14.6327  -15.5191   22.6256 O   0  0  0  0  0  0  0  0  0  0  0  0
   11.7895  -17.9308   25.5193 C   0  0  0  0  0  0  0  0  0  0  0  0
   12.7302  -18.6194   25.9599 O   0  0  0  0  0  0  0  0  0  0  0  0
   13.9014  -17.6057   22.2006 O   0  0  0  0  0  0  0  0  0  0  0  0
   10.6816  -17.6944   26.2963 O   0  0  0  0  0  0  0  0  0  0  0  0
  2  1  1  1
  3  2  1  0
  4  2  1  0
  4  5  1  6
  6  7  2  0
  6  4  1  0
  8  6  1  0
  9  8  1  0
  9 10  1  6
 11 10  1  0
 11 12  1  0
 13 12  1  0
 13 14  1  0
 15  9  1  0
 16 15  2  0
 17 15  1  0
 18 22  1  0
 18 17  1  0
 18 19  1  1
 20 21  2  0
 20 19  1  0
 22 25  1  0
 23 22  2  0
 24 20  1  0
M  END
$$$$
