VKD.pdb
     RDKit          3D

 25 24  0  0  1  0  0  0  0  0999 V2000
    6.5793  -11.5915   27.1715 C   0  0  0  0  0  0  0  0  0  0  0  0
    7.3061  -12.5938   26.3081 C   0  0  2  0  0  0  0  0  0  0  0  0
    8.0584  -11.8736   25.2209 C   0  0  0  0  0  0  0  0  0  0  0  0
    6.3077  -13.5824   25.7068 C   0  0  2  0  0  0  0  0  0  0  0  0
    5.7587  -14.3249   26.8161 N   0  0  0  0  0  0  0  0  0  0  0  0
    7.0646  -14.4842   24.8383 C   0  0  0  0  0  0  0  0  0  0  0  0
    7.7764  -15.3945   25.3732 O   0  0  0  0  0  0  0  0  0  0  0  0
    7.0500  -14.4003   23.4119 N   0  0  0  0  0  0  0  0  0  0  0  0
    7.7408  -15.3365   22.5682 C   0  0  1  0  0  0  0  0  0  0  0  0
    7.3804  -15.2377   21.1314 C   0  0  0  0  0  0  0  0  0  0  0  0
    7.9462  -16.2464   20.2044 C   0  0  0  0  0  0  0  0  0  0  0  0
    7.2580  -17.5544   20.3274 C   0  0  0  0  0  0  0  0  0  0  0  0
    7.8093  -18.6166   19.4046 C   0  0  0  0  0  0  0  0  0  0  0  0
    7.2007  -19.8903   19.5598 N   0  0  0  0  0  0  0  0  0  0  0  0
    9.1834  -15.4604   22.8682 C   0  0  0  0  0  0  0  0  0  0  0  0
    9.9472  -14.4436   22.9702 O   0  0  0  0  0  0  0  0  0  0  0  0
    9.8420  -16.7122   23.0705 N   0  0  0  0  0  0  0  0  0  0  0  0
   11.2667  -16.8027   23.2799 C   0  0  1  0  0  0  0  0  0  0  0  0
   11.5713  -18.0848   24.0334 C   0  0  0  0  0  0  0  0  0  0  0  0
   11.3777  -17.9630   25.4926 C   0  0  0  0  0  0  0  0  0  0  0  0
   11.9405  -17.0574   26.1406 O   0  0  0  0  0  0  0  0  0  0  0  0
   11.9487  -16.8111   21.9738 C   0  0  0  0  0  0  0  0  0  0  0  0
   11.2736  -16.9220   20.9320 O   0  0  0  0  0  0  0  0  0  0  0  0
   10.5697  -18.8427   26.1931 O   0  0  0  0  0  0  0  0  0  0  0  0
   13.3159  -16.6972   21.9037 O   0  0  0  0  0  0  0  0  0  0  0  0
  2  1  1  6
  3  2  1  0
  4  2  1  0
  4  5  1  1
  6  7  2  0
  6  4  1  0
  8  6  1  0
  9  8  1  0
  9 10  1  6
 11 10  1  0
 11 12  1  0
 13 12  1  0
 13 14  1  0
 15  9  1  0
 16 15  2  0
 17 15  1  0
 18 22  1  0
 18 17  1  0
 18 19  1  6
 20 21  2  0
 20 19  1  0
 22 25  1  0
 23 22  2  0
 24 20  1  0
M  END
$$$$
