VKD.pdb
     RDKit          3D

 25 24  0  0  1  0  0  0  0  0999 V2000
    7.0826  -12.5433   18.6530 C   0  0  0  0  0  0  0  0  0  0  0  0
    7.6665  -13.2577   19.8476 C   0  0  2  0  0  0  0  0  0  0  0  0
    8.9235  -12.5577   20.2910 C   0  0  0  0  0  0  0  0  0  0  0  0
    7.9598  -14.7142   19.4899 C   0  0  2  0  0  0  0  0  0  0  0  0
    6.7398  -15.2448   18.9302 N   0  0  0  0  0  0  0  0  0  0  0  0
    8.2710  -15.4100   20.7387 C   0  0  0  0  0  0  0  0  0  0  0  0
    7.7695  -14.9723   21.8243 O   0  0  0  0  0  0  0  0  0  0  0  0
    9.1127  -16.5625   20.8095 N   0  0  0  0  0  0  0  0  0  0  0  0
    9.5253  -17.1521   22.0535 C   0  0  1  0  0  0  0  0  0  0  0  0
    8.7882  -18.3902   22.4111 C   0  0  0  0  0  0  0  0  0  0  0  0
    7.3112  -18.3775   22.2866 C   0  0  0  0  0  0  0  0  0  0  0  0
    6.7297  -19.7258   22.4952 C   0  0  0  0  0  0  0  0  0  0  0  0
    5.2196  -19.7475   22.4417 C   0  0  0  0  0  0  0  0  0  0  0  0
    4.6512  -21.0295   22.6658 N   0  0  0  0  0  0  0  0  0  0  0  0
   10.9918  -17.1939   22.2382 C   0  0  0  0  0  0  0  0  0  0  0  0
   11.7883  -17.5074   21.2922 O   0  0  0  0  0  0  0  0  0  0  0  0
   11.6397  -16.8887   23.4746 N   0  0  0  0  0  0  0  0  0  0  0  0
   13.0250  -17.2138   23.7136 C   0  0  1  0  0  0  0  0  0  0  0  0
   13.8393  -15.9328   23.6980 C   0  0  0  0  0  0  0  0  0  0  0  0
   15.2469  -16.1421   23.3022 C   0  0  0  0  0  0  0  0  0  0  0  0
   15.6810  -17.2863   23.0588 O   0  0  0  0  0  0  0  0  0  0  0  0
   13.1482  -17.8737   25.0253 C   0  0  0  0  0  0  0  0  0  0  0  0
   14.2535  -18.3267   25.3806 O   0  0  0  0  0  0  0  0  0  0  0  0
   16.1329  -15.0844   23.1868 O   0  0  0  0  0  0  0  0  0  0  0  0
   12.0556  -17.9886   25.8501 O   0  0  0  0  0  0  0  0  0  0  0  0
  2  1  1  6
  3  2  1  0
  4  2  1  0
  4  5  1  1
  6  7  2  0
  6  4  1  0
  8  6  1  0
  9  8  1  0
  9 10  1  6
 11 10  1  0
 11 12  1  0
 13 12  1  0
 13 14  1  0
 15  9  1  0
 16 15  2  0
 17 15  1  0
 18 22  1  0
 18 17  1  0
 18 19  1  1
 20 21  2  0
 20 19  1  0
 22 25  1  0
 23 22  2  0
 24 20  1  0
M  END
$$$$
