VKD.pdb
     RDKit          3D

 25 24  0  0  1  0  0  0  0  0999 V2000
    8.4298  -13.5880   16.3413 C   0  0  0  0  0  0  0  0  0  0  0  0
    8.7272  -14.1203   17.7221 C   0  0  2  0  0  0  0  0  0  0  0  0
    9.2158  -15.5409   17.6222 C   0  0  0  0  0  0  0  0  0  0  0  0
    7.4719  -14.0432   18.5904 C   0  0  2  0  0  0  0  0  0  0  0  0
    7.2093  -12.6388   18.7945 N   0  0  0  0  0  0  0  0  0  0  0  0
    7.7944  -14.6741   19.8704 C   0  0  0  0  0  0  0  0  0  0  0  0
    8.6413  -14.1086   20.6350 O   0  0  0  0  0  0  0  0  0  0  0  0
    7.2079  -15.8990   20.3147 N   0  0  0  0  0  0  0  0  0  0  0  0
    7.6333  -16.5807   21.5061 C   0  0  1  0  0  0  0  0  0  0  0  0
    6.7325  -17.6828   21.9280 C   0  0  0  0  0  0  0  0  0  0  0  0
    7.1789  -18.5549   23.0404 C   0  0  0  0  0  0  0  0  0  0  0  0
    6.2954  -19.7349   23.2031 C   0  0  0  0  0  0  0  0  0  0  0  0
    6.7117  -20.6506   24.3310 C   0  0  0  0  0  0  0  0  0  0  0  0
    5.8834  -21.7940   24.4835 N   0  0  0  0  0  0  0  0  0  0  0  0
    9.0816  -16.8773   21.5406 C   0  0  0  0  0  0  0  0  0  0  0  0
    9.6725  -17.4952   20.5937 O   0  0  0  0  0  0  0  0  0  0  0  0
    9.9378  -16.5014   22.6209 N   0  0  0  0  0  0  0  0  0  0  0  0
   11.3128  -16.9325   22.6937 C   0  0  1  0  0  0  0  0  0  0  0  0
   12.2148  -15.7471   22.4011 C   0  0  0  0  0  0  0  0  0  0  0  0
   13.6527  -16.0753   22.4816 C   0  0  0  0  0  0  0  0  0  0  0  0
   14.0318  -17.2307   22.7612 O   0  0  0  0  0  0  0  0  0  0  0  0
   11.5864  -17.4531   24.0448 C   0  0  0  0  0  0  0  0  0  0  0  0
   12.5384  -18.2389   24.2163 O   0  0  0  0  0  0  0  0  0  0  0  0
   14.6287  -15.1204   22.2516 O   0  0  0  0  0  0  0  0  0  0  0  0
   10.8005  -17.0757   25.1064 O   0  0  0  0  0  0  0  0  0  0  0  0
  2  1  1  6
  3  2  1  0
  4  2  1  0
  4  5  1  1
  6  7  2  0
  6  4  1  0
  8  6  1  0
  9  8  1  0
  9 10  1  6
 11 10  1  0
 11 12  1  0
 13 12  1  0
 13 14  1  0
 15  9  1  0
 16 15  2  0
 17 15  1  0
 18 22  1  0
 18 17  1  0
 18 19  1  1
 20 21  2  0
 20 19  1  0
 22 25  1  0
 23 22  2  0
 24 20  1  0
M  END
$$$$
