VKD.pdb
     RDKit          3D

 25 24  0  0  1  0  0  0  0  0999 V2000
    7.5294  -12.6682   19.7072 C   0  0  0  0  0  0  0  0  0  0  0  0
    8.4545  -13.5413   18.8946 C   0  0  2  0  0  0  0  0  0  0  0  0
    7.8934  -13.7208   17.5091 C   0  0  0  0  0  0  0  0  0  0  0  0
    8.6301  -14.8944   19.5830 C   0  0  2  0  0  0  0  0  0  0  0  0
    7.3647  -15.5771   19.4577 N   0  0  0  0  0  0  0  0  0  0  0  0
    8.9065  -14.6268   20.9945 C   0  0  0  0  0  0  0  0  0  0  0  0
   10.0285  -14.1148   21.3119 O   0  0  0  0  0  0  0  0  0  0  0  0
    7.9809  -14.9096   22.0457 N   0  0  0  0  0  0  0  0  0  0  0  0
    8.2708  -14.6550   23.4300 C   0  0  1  0  0  0  0  0  0  0  0  0
    7.1700  -13.9838   24.1661 C   0  0  0  0  0  0  0  0  0  0  0  0
    7.4084  -13.6124   25.5811 C   0  0  0  0  0  0  0  0  0  0  0  0
    6.2414  -12.9122   26.1705 C   0  0  0  0  0  0  0  0  0  0  0  0
    6.4258  -12.5499   27.6260 C   0  0  0  0  0  0  0  0  0  0  0  0
    5.2783  -11.9681   28.2272 N   0  0  0  0  0  0  0  0  0  0  0  0
    8.9183  -15.7890   24.1238 C   0  0  0  0  0  0  0  0  0  0  0  0
    8.3529  -16.9264   24.2431 O   0  0  0  0  0  0  0  0  0  0  0  0
   10.2182  -15.7147   24.7125 N   0  0  0  0  0  0  0  0  0  0  0  0
   10.8279  -16.8466   25.3673 C   0  0  1  0  0  0  0  0  0  0  0  0
   12.3372  -16.7096   25.2798 C   0  0  0  0  0  0  0  0  0  0  0  0
   12.8663  -16.9508   23.9220 C   0  0  0  0  0  0  0  0  0  0  0  0
   12.2466  -17.6680   23.1106 O   0  0  0  0  0  0  0  0  0  0  0  0
   10.4051  -16.8755   26.7785 C   0  0  0  0  0  0  0  0  0  0  0  0
   10.5522  -17.9216   27.4398 O   0  0  0  0  0  0  0  0  0  0  0  0
   14.0620  -16.3944   23.4999 O   0  0  0  0  0  0  0  0  0  0  0  0
    9.8544  -15.7600   27.3612 O   0  0  0  0  0  0  0  0  0  0  0  0
  2  1  1  1
  3  2  1  0
  4  2  1  0
  4  5  1  1
  6  7  2  0
  6  4  1  0
  8  6  1  0
  9  8  1  0
  9 10  1  1
 11 10  1  0
 11 12  1  0
 13 12  1  0
 13 14  1  0
 15  9  1  0
 16 15  2  0
 17 15  1  0
 18 22  1  0
 18 17  1  0
 18 19  1  1
 20 21  2  0
 20 19  1  0
 22 25  1  0
 23 22  2  0
 24 20  1  0
M  END
$$$$
