VKD.pdb
     RDKit          3D

 25 24  0  0  1  0  0  0  0  0999 V2000
    7.8973  -13.3613   27.2160 C   0  0  0  0  0  0  0  0  0  0  0  0
    6.8929  -12.5828   26.4015 C   0  0  2  0  0  0  0  0  0  0  0  0
    6.0998  -11.6781   27.3067 C   0  0  0  0  0  0  0  0  0  0  0  0
    5.9674  -13.5459   25.6590 C   0  0  2  0  0  0  0  0  0  0  0  0
    5.5030  -14.4958   26.6415 N   0  0  0  0  0  0  0  0  0  0  0  0
    6.7785  -14.2344   24.6548 C   0  0  0  0  0  0  0  0  0  0  0  0
    7.3044  -15.3544   24.9561 O   0  0  0  0  0  0  0  0  0  0  0  0
    7.0159  -13.7169   23.3442 N   0  0  0  0  0  0  0  0  0  0  0  0
    7.7394  -14.4438   22.3376 C   0  0  1  0  0  0  0  0  0  0  0  0
    7.6831  -13.8283   20.9877 C   0  0  0  0  0  0  0  0  0  0  0  0
    8.3407  -14.5472   19.8706 C   0  0  0  0  0  0  0  0  0  0  0  0
    8.2064  -13.8133   18.5890 C   0  0  0  0  0  0  0  0  0  0  0  0
    8.7848  -14.5534   17.4052 C   0  0  0  0  0  0  0  0  0  0  0  0
    8.7193  -13.8321   16.1836 N   0  0  0  0  0  0  0  0  0  0  0  0
    9.0688  -14.9160   22.7804 C   0  0  0  0  0  0  0  0  0  0  0  0
    9.8922  -14.1567   23.3911 O   0  0  0  0  0  0  0  0  0  0  0  0
    9.5431  -16.2473   22.5694 N   0  0  0  0  0  0  0  0  0  0  0  0
   10.8876  -16.6441   22.9109 C   0  0  1  0  0  0  0  0  0  0  0  0
   10.8631  -18.0747   23.4181 C   0  0  0  0  0  0  0  0  0  0  0  0
   10.5346  -18.1779   24.8544 C   0  0  0  0  0  0  0  0  0  0  0  0
    9.4994  -18.7613   25.2350 O   0  0  0  0  0  0  0  0  0  0  0  0
   11.7400  -16.5483   21.7127 C   0  0  0  0  0  0  0  0  0  0  0  0
   11.2163  -16.3104   20.6071 O   0  0  0  0  0  0  0  0  0  0  0  0
   11.3569  -17.6352   25.8274 O   0  0  0  0  0  0  0  0  0  0  0  0
   13.0995  -16.7189   21.8124 O   0  0  0  0  0  0  0  0  0  0  0  0
  2  1  1  1
  3  2  1  0
  4  2  1  0
  4  5  1  1
  6  7  2  0
  6  4  1  0
  8  6  1  0
  9  8  1  0
  9 10  1  6
 11 10  1  0
 11 12  1  0
 13 12  1  0
 13 14  1  0
 15  9  1  0
 16 15  2  0
 17 15  1  0
 18 22  1  0
 18 17  1  0
 18 19  1  6
 20 21  2  0
 20 19  1  0
 22 25  1  0
 23 22  2  0
 24 20  1  0
M  END
$$$$
