VKD.pdb
     RDKit          3D

 25 24  0  0  1  0  0  0  0  0999 V2000
    9.2263  -15.5660   19.1749 C   0  0  0  0  0  0  0  0  0  0  0  0
    7.7975  -15.0799   19.1442 C   0  0  2  0  0  0  0  0  0  0  0  0
    7.3075  -15.0395   17.7212 C   0  0  0  0  0  0  0  0  0  0  0  0
    7.7058  -13.6951   19.7840 C   0  0  2  0  0  0  0  0  0  0  0  0
    8.5950  -12.8438   19.0306 N   0  0  0  0  0  0  0  0  0  0  0  0
    8.1934  -13.8223   21.1575 C   0  0  0  0  0  0  0  0  0  0  0  0
    9.4409  -13.6931   21.3782 O   0  0  0  0  0  0  0  0  0  0  0  0
    7.3419  -14.0853   22.2745 N   0  0  0  0  0  0  0  0  0  0  0  0
    7.8399  -14.2594   23.6112 C   0  0  1  0  0  0  0  0  0  0  0  0
    6.8637  -13.9057   24.6723 C   0  0  0  0  0  0  0  0  0  0  0  0
    7.1573  -12.7240   25.5177 C   0  0  0  0  0  0  0  0  0  0  0  0
    6.0648  -12.4531   26.4834 C   0  0  0  0  0  0  0  0  0  0  0  0
    6.3153  -11.2450   27.3560 C   0  0  0  0  0  0  0  0  0  0  0  0
    5.2814  -10.9846   28.2941 N   0  0  0  0  0  0  0  0  0  0  0  0
    8.5877  -15.5193   23.8114 C   0  0  0  0  0  0  0  0  0  0  0  0
    8.0995  -16.6569   23.5031 O   0  0  0  0  0  0  0  0  0  0  0  0
    9.9067  -15.5749   24.3582 N   0  0  0  0  0  0  0  0  0  0  0  0
   10.6206  -16.8195   24.5102 C   0  0  1  0  0  0  0  0  0  0  0  0
   12.0963  -16.5732   24.2529 C   0  0  0  0  0  0  0  0  0  0  0  0
   12.9322  -17.7727   24.4626 C   0  0  0  0  0  0  0  0  0  0  0  0
   12.4755  -18.9159   24.2594 O   0  0  0  0  0  0  0  0  0  0  0  0
   10.4251  -17.3258   25.8801 C   0  0  0  0  0  0  0  0  0  0  0  0
   10.3210  -18.5532   26.0694 O   0  0  0  0  0  0  0  0  0  0  0  0
   14.2458  -17.6758   24.8897 O   0  0  0  0  0  0  0  0  0  0  0  0
   10.3587  -16.4539   26.9396 O   0  0  0  0  0  0  0  0  0  0  0  0
  2  1  1  6
  3  2  1  0
  4  2  1  0
  4  5  1  6
  6  7  2  0
  6  4  1  0
  8  6  1  0
  9  8  1  0
  9 10  1  1
 11 10  1  0
 11 12  1  0
 13 12  1  0
 13 14  1  0
 15  9  1  0
 16 15  2  0
 17 15  1  0
 18 22  1  0
 18 17  1  0
 18 19  1  1
 20 21  2  0
 20 19  1  0
 22 25  1  0
 23 22  2  0
 24 20  1  0
M  END
$$$$
