VKD.pdb
     RDKit          3D

 25 24  0  0  1  0  0  0  0  0999 V2000
    9.5808  -12.8290   19.4009 C   0  0  0  0  0  0  0  0  0  0  0  0
    8.7904  -13.7500   18.5035 C   0  0  2  0  0  0  0  0  0  0  0  0
    8.4517  -13.0384   17.2207 C   0  0  0  0  0  0  0  0  0  0  0  0
    7.5184  -14.2058   19.2175 C   0  0  2  0  0  0  0  0  0  0  0  0
    6.7941  -13.0041   19.5560 N   0  0  0  0  0  0  0  0  0  0  0  0
    7.9337  -14.8907   20.4417 C   0  0  0  0  0  0  0  0  0  0  0  0
    8.2812  -14.1903   21.4468 O   0  0  0  0  0  0  0  0  0  0  0  0
    7.9716  -16.3130   20.5744 N   0  0  0  0  0  0  0  0  0  0  0  0
    8.4801  -16.9741   21.7447 C   0  0  1  0  0  0  0  0  0  0  0  0
    7.6829  -18.1522   22.1696 C   0  0  0  0  0  0  0  0  0  0  0  0
    8.1649  -18.9310   23.3351 C   0  0  0  0  0  0  0  0  0  0  0  0
    7.2667  -20.0695   23.6458 C   0  0  0  0  0  0  0  0  0  0  0  0
    7.6358  -20.8015   24.9153 C   0  0  0  0  0  0  0  0  0  0  0  0
    6.8047  -21.9166   25.2026 N   0  0  0  0  0  0  0  0  0  0  0  0
    9.9482  -17.1514   21.7410 C   0  0  0  0  0  0  0  0  0  0  0  0
   10.5897  -17.4943   20.6929 O   0  0  0  0  0  0  0  0  0  0  0  0
   10.7690  -16.9547   22.8939 N   0  0  0  0  0  0  0  0  0  0  0  0
   12.1833  -17.2398   22.8845 C   0  0  1  0  0  0  0  0  0  0  0  0
   12.9446  -15.9397   22.6983 C   0  0  0  0  0  0  0  0  0  0  0  0
   14.4014  -16.1337   22.5502 C   0  0  0  0  0  0  0  0  0  0  0  0
   14.8692  -17.2376   22.2046 O   0  0  0  0  0  0  0  0  0  0  0  0
   12.5598  -17.8658   24.1642 C   0  0  0  0  0  0  0  0  0  0  0  0
   11.8942  -17.6142   25.1873 O   0  0  0  0  0  0  0  0  0  0  0  0
   15.2979  -15.1056   22.7875 O   0  0  0  0  0  0  0  0  0  0  0  0
   13.6339  -18.7198   24.2298 O   0  0  0  0  0  0  0  0  0  0  0  0
  2  1  1  1
  3  2  1  0
  4  2  1  0
  4  5  1  1
  6  7  2  0
  6  4  1  0
  8  6  1  0
  9  8  1  0
  9 10  1  6
 11 10  1  0
 11 12  1  0
 13 12  1  0
 13 14  1  0
 15  9  1  0
 16 15  2  0
 17 15  1  0
 18 22  1  0
 18 17  1  0
 18 19  1  1
 20 21  2  0
 20 19  1  0
 22 25  1  0
 23 22  2  0
 24 20  1  0
M  END
$$$$
