VKD.pdb
     RDKit          3D

 25 24  0  0  1  0  0  0  0  0999 V2000
    8.5606  -12.3771   20.0990 C   0  0  0  0  0  0  0  0  0  0  0  0
    7.6453  -13.5285   19.7599 C   0  0  2  0  0  0  0  0  0  0  0  0
    6.5519  -13.6260   20.7902 C   0  0  0  0  0  0  0  0  0  0  0  0
    8.4459  -14.8289   19.7007 C   0  0  2  0  0  0  0  0  0  0  0  0
    7.5123  -15.8591   19.3131 N   0  0  0  0  0  0  0  0  0  0  0  0
    8.9369  -15.0941   21.0531 C   0  0  0  0  0  0  0  0  0  0  0  0
    9.8525  -14.3480   21.5289 O   0  0  0  0  0  0  0  0  0  0  0  0
    8.4428  -16.1519   21.8770 N   0  0  0  0  0  0  0  0  0  0  0  0
    8.9675  -16.4320   23.1852 C   0  0  1  0  0  0  0  0  0  0  0  0
    8.0013  -17.0954   24.0964 C   0  0  0  0  0  0  0  0  0  0  0  0
    8.5237  -17.6766   25.3560 C   0  0  0  0  0  0  0  0  0  0  0  0
    7.4605  -18.3662   26.1264 C   0  0  0  0  0  0  0  0  0  0  0  0
    7.9285  -18.8946   27.4626 C   0  0  0  0  0  0  0  0  0  0  0  0
    6.8958  -19.4652   28.2530 N   0  0  0  0  0  0  0  0  0  0  0  0
   10.3366  -16.9906   23.1734 C   0  0  0  0  0  0  0  0  0  0  0  0
   10.6097  -18.1116   22.6289 O   0  0  0  0  0  0  0  0  0  0  0  0
   11.4615  -16.3332   23.7601 N   0  0  0  0  0  0  0  0  0  0  0  0
   12.7488  -16.9745   23.8751 C   0  0  1  0  0  0  0  0  0  0  0  0
   13.8353  -15.9292   23.6980 C   0  0  0  0  0  0  0  0  0  0  0  0
   14.1799  -15.6812   22.2833 C   0  0  0  0  0  0  0  0  0  0  0  0
   13.7980  -16.4581   21.3847 O   0  0  0  0  0  0  0  0  0  0  0  0
   12.8618  -17.5989   25.2050 C   0  0  0  0  0  0  0  0  0  0  0  0
   12.1342  -17.1966   26.1334 O   0  0  0  0  0  0  0  0  0  0  0  0
   14.9348  -14.5848   21.9020 O   0  0  0  0  0  0  0  0  0  0  0  0
   13.7600  -18.6158   25.4204 O   0  0  0  0  0  0  0  0  0  0  0  0
  2  1  1  1
  3  2  1  0
  4  2  1  0
  4  5  1  1
  6  7  2  0
  6  4  1  0
  8  6  1  0
  9  8  1  0
  9 10  1  6
 11 10  1  0
 11 12  1  0
 13 12  1  0
 13 14  1  0
 15  9  1  0
 16 15  2  0
 17 15  1  0
 18 22  1  0
 18 17  1  0
 18 19  1  1
 20 21  2  0
 20 19  1  0
 22 25  1  0
 23 22  2  0
 24 20  1  0
M  END
$$$$
