VKD.pdb
     RDKit          3D

 25 24  0  0  1  0  0  0  0  0999 V2000
    8.0518  -13.9571   17.2545 C   0  0  0  0  0  0  0  0  0  0  0  0
    8.6250  -14.2606   18.6175 C   0  0  2  0  0  0  0  0  0  0  0  0
    9.0960  -15.6900   18.6613 C   0  0  0  0  0  0  0  0  0  0  0  0
    7.5689  -14.0093   19.6932 C   0  0  2  0  0  0  0  0  0  0  0  0
    7.2430  -12.6053   19.6171 N   0  0  0  0  0  0  0  0  0  0  0  0
    8.1920  -14.2999   20.9845 C   0  0  0  0  0  0  0  0  0  0  0  0
    9.0088  -13.4544   21.4739 O   0  0  0  0  0  0  0  0  0  0  0  0
    7.9336  -15.4888   21.7339 N   0  0  0  0  0  0  0  0  0  0  0  0
    8.6306  -15.8126   22.9483 C   0  0  1  0  0  0  0  0  0  0  0  0
    7.7761  -16.4375   23.9892 C   0  0  0  0  0  0  0  0  0  0  0  0
    8.4356  -16.9346   25.2201 C   0  0  0  0  0  0  0  0  0  0  0  0
    7.4621  -17.5445   26.1581 C   0  0  0  0  0  0  0  0  0  0  0  0
    8.0907  -18.0554   27.4339 C   0  0  0  0  0  0  0  0  0  0  0  0
    7.1903  -18.7498   28.2846 N   0  0  0  0  0  0  0  0  0  0  0  0
    9.9515  -16.4405   22.7304 C   0  0  0  0  0  0  0  0  0  0  0  0
   10.0833  -17.5571   22.1276 O   0  0  0  0  0  0  0  0  0  0  0  0
   11.1820  -15.8600   23.1669 N   0  0  0  0  0  0  0  0  0  0  0  0
   12.4454  -16.5405   23.0165 C   0  0  1  0  0  0  0  0  0  0  0  0
   13.5261  -15.5121   22.7355 C   0  0  0  0  0  0  0  0  0  0  0  0
   13.7071  -15.2358   21.2958 C   0  0  0  0  0  0  0  0  0  0  0  0
   13.3251  -16.0526   20.4333 O   0  0  0  0  0  0  0  0  0  0  0  0
   12.7539  -17.2695   24.2593 C   0  0  0  0  0  0  0  0  0  0  0  0
   12.1999  -16.9281   25.3222 O   0  0  0  0  0  0  0  0  0  0  0  0
   14.3035  -14.0682   20.8506 O   0  0  0  0  0  0  0  0  0  0  0  0
   13.6432  -18.3165   24.2475 O   0  0  0  0  0  0  0  0  0  0  0  0
  2  1  1  6
  3  2  1  0
  4  2  1  0
  4  5  1  1
  6  7  2  0
  6  4  1  0
  8  6  1  0
  9  8  1  0
  9 10  1  1
 11 10  1  0
 11 12  1  0
 13 12  1  0
 13 14  1  0
 15  9  1  0
 16 15  2  0
 17 15  1  0
 18 22  1  0
 18 17  1  0
 18 19  1  1
 20 21  2  0
 20 19  1  0
 22 25  1  0
 23 22  2  0
 24 20  1  0
M  END
$$$$
