VKD.pdb
     RDKit          3D

 25 24  0  0  1  0  0  0  0  0999 V2000
    7.5730  -12.6936   20.9855 C   0  0  0  0  0  0  0  0  0  0  0  0
    8.3490  -13.2615   19.8220 C   0  0  2  0  0  0  0  0  0  0  0  0
    8.0348  -12.4795   18.5745 C   0  0  0  0  0  0  0  0  0  0  0  0
    7.9985  -14.7371   19.6341 C   0  0  2  0  0  0  0  0  0  0  0  0
    6.6181  -14.7727   19.2141 N   0  0  0  0  0  0  0  0  0  0  0  0
    8.1313  -15.3810   20.9411 C   0  0  0  0  0  0  0  0  0  0  0  0
    7.7087  -14.7650   21.9724 O   0  0  0  0  0  0  0  0  0  0  0  0
    8.7131  -16.6727   21.1273 N   0  0  0  0  0  0  0  0  0  0  0  0
    8.8867  -17.2709   22.4224 C   0  0  1  0  0  0  0  0  0  0  0  0
    7.8838  -18.3165   22.7462 C   0  0  0  0  0  0  0  0  0  0  0  0
    8.0231  -19.0344   24.0355 C   0  0  0  0  0  0  0  0  0  0  0  0
    7.0712  -20.1668   24.1406 C   0  0  0  0  0  0  0  0  0  0  0  0
    7.1695  -20.9196   25.4473 C   0  0  0  0  0  0  0  0  0  0  0  0
    6.1660  -21.9092   25.6216 N   0  0  0  0  0  0  0  0  0  0  0  0
   10.2920  -17.5973   22.7468 C   0  0  0  0  0  0  0  0  0  0  0  0
   11.0103  -18.3361   21.9946 O   0  0  0  0  0  0  0  0  0  0  0  0
   10.9632  -17.1192   23.9141 N   0  0  0  0  0  0  0  0  0  0  0  0
   12.2161  -17.6788   24.3600 C   0  0  1  0  0  0  0  0  0  0  0  0
   13.2595  -16.5768   24.3987 C   0  0  0  0  0  0  0  0  0  0  0  0
   13.9290  -16.3625   23.0997 C   0  0  0  0  0  0  0  0  0  0  0  0
   13.6718  -17.0890   22.1184 O   0  0  0  0  0  0  0  0  0  0  0  0
   12.0387  -18.2528   25.7055 C   0  0  0  0  0  0  0  0  0  0  0  0
   10.9705  -18.0585   26.3173 O   0  0  0  0  0  0  0  0  0  0  0  0
   14.8613  -15.3544   22.9217 O   0  0  0  0  0  0  0  0  0  0  0  0
   13.0405  -18.9961   26.2808 O   0  0  0  0  0  0  0  0  0  0  0  0
  2  1  1  1
  3  2  1  0
  4  2  1  0
  4  5  1  1
  6  7  2  0
  6  4  1  0
  8  6  1  0
  9  8  1  0
  9 10  1  6
 11 10  1  0
 11 12  1  0
 13 12  1  0
 13 14  1  0
 15  9  1  0
 16 15  2  0
 17 15  1  0
 18 22  1  0
 18 17  1  0
 18 19  1  1
 20 21  2  0
 20 19  1  0
 22 25  1  0
 23 22  2  0
 24 20  1  0
M  END
$$$$
