VKD.pdb
     RDKit          3D

 25 24  0  0  1  0  0  0  0  0999 V2000
    7.7384  -15.2213   17.0542 C   0  0  0  0  0  0  0  0  0  0  0  0
    8.2345  -15.0715   18.4719 C   0  0  2  0  0  0  0  0  0  0  0  0
    7.8489  -16.2860   19.2738 C   0  0  0  0  0  0  0  0  0  0  0  0
    7.6480  -13.8062   19.0969 C   0  0  2  0  0  0  0  0  0  0  0  0
    8.1737  -12.6995   18.3339 N   0  0  0  0  0  0  0  0  0  0  0  0
    8.1440  -13.7352   20.4714 C   0  0  0  0  0  0  0  0  0  0  0  0
    9.3968  -13.6134   20.6643 O   0  0  0  0  0  0  0  0  0  0  0  0
    7.2949  -13.7952   21.6192 N   0  0  0  0  0  0  0  0  0  0  0  0
    7.7996  -13.7791   22.9647 C   0  0  1  0  0  0  0  0  0  0  0  0
    6.8849  -13.1452   23.9473 C   0  0  0  0  0  0  0  0  0  0  0  0
    7.2861  -13.1557   25.3742 C   0  0  0  0  0  0  0  0  0  0  0  0
    6.2860  -12.4752   26.2322 C   0  0  0  0  0  0  0  0  0  0  0  0
    6.6676  -12.4404   27.6940 C   0  0  0  0  0  0  0  0  0  0  0  0
    5.7224  -11.7801   28.5231 N   0  0  0  0  0  0  0  0  0  0  0  0
    8.4216  -15.0529   23.3853 C   0  0  0  0  0  0  0  0  0  0  0  0
    7.7969  -16.1642   23.3368 O   0  0  0  0  0  0  0  0  0  0  0  0
    9.7604  -15.1528   23.8746 N   0  0  0  0  0  0  0  0  0  0  0  0
   10.3508  -16.4185   24.2367 C   0  0  1  0  0  0  0  0  0  0  0  0
   11.8231  -16.3966   23.8677 C   0  0  0  0  0  0  0  0  0  0  0  0
   12.5399  -17.6276   24.2582 C   0  0  0  0  0  0  0  0  0  0  0  0
   11.9184  -18.6277   24.6711 O   0  0  0  0  0  0  0  0  0  0  0  0
   10.1974  -16.6271   25.6873 C   0  0  0  0  0  0  0  0  0  0  0  0
    9.8751  -15.6663   26.4127 O   0  0  0  0  0  0  0  0  0  0  0  0
   13.9194  -17.7190   24.1818 O   0  0  0  0  0  0  0  0  0  0  0  0
   10.4070  -17.8689   26.2361 O   0  0  0  0  0  0  0  0  0  0  0  0
  2  1  1  6
  3  2  1  0
  4  2  1  0
  4  5  1  6
  6  7  2  0
  6  4  1  0
  8  6  1  0
  9  8  1  0
  9 10  1  1
 11 10  1  0
 11 12  1  0
 13 12  1  0
 13 14  1  0
 15  9  1  0
 16 15  2  0
 17 15  1  0
 18 22  1  0
 18 17  1  0
 18 19  1  1
 20 21  2  0
 20 19  1  0
 22 25  1  0
 23 22  2  0
 24 20  1  0
M  END
$$$$
