VKD.pdb
     RDKit          3D

 25 24  0  0  1  0  0  0  0  0999 V2000
    6.9792  -13.1516   20.8980 C   0  0  0  0  0  0  0  0  0  0  0  0
    7.9683  -13.1815   19.7582 C   0  0  2  0  0  0  0  0  0  0  0  0
    7.2783  -12.7880   18.4792 C   0  0  0  0  0  0  0  0  0  0  0  0
    8.5757  -14.5783   19.6337 C   0  0  2  0  0  0  0  0  0  0  0  0
    7.5308  -15.4266   19.1124 N   0  0  0  0  0  0  0  0  0  0  0  0
    8.9347  -15.0136   20.9835 C   0  0  0  0  0  0  0  0  0  0  0  0
    9.8465  -14.3811   21.6081 O   0  0  0  0  0  0  0  0  0  0  0  0
    8.3147  -16.1174   21.6460 N   0  0  0  0  0  0  0  0  0  0  0  0
    8.7586  -16.6119   22.9203 C   0  0  1  0  0  0  0  0  0  0  0  0
    7.7709  -17.4785   23.6114 C   0  0  0  0  0  0  0  0  0  0  0  0
    8.2146  -18.2016   24.8269 C   0  0  0  0  0  0  0  0  0  0  0  0
    7.1886  -19.1616   25.3015 C   0  0  0  0  0  0  0  0  0  0  0  0
    7.6324  -19.9815   26.4908 C   0  0  0  0  0  0  0  0  0  0  0  0
    6.6948  -20.9685   26.8952 N   0  0  0  0  0  0  0  0  0  0  0  0
   10.1566  -17.0934   22.9208 C   0  0  0  0  0  0  0  0  0  0  0  0
   10.5327  -18.0925   22.2222 O   0  0  0  0  0  0  0  0  0  0  0  0
   11.1980  -16.4901   23.6910 N   0  0  0  0  0  0  0  0  0  0  0  0
   12.5319  -17.0382   23.7372 C   0  0  1  0  0  0  0  0  0  0  0  0
   13.5301  -15.9214   23.4909 C   0  0  0  0  0  0  0  0  0  0  0  0
   14.9340  -16.3798   23.5118 C   0  0  0  0  0  0  0  0  0  0  0  0
   15.2116  -17.5893   23.6413 O   0  0  0  0  0  0  0  0  0  0  0  0
   12.7633  -17.6382   25.0630 C   0  0  0  0  0  0  0  0  0  0  0  0
   13.7536  -18.3749   25.2365 O   0  0  0  0  0  0  0  0  0  0  0  0
   15.9891  -15.4914   23.3894 O   0  0  0  0  0  0  0  0  0  0  0  0
   11.8967  -17.3881   26.0991 O   0  0  0  0  0  0  0  0  0  0  0  0
  2  1  1  1
  3  2  1  0
  4  2  1  0
  4  5  1  1
  6  7  2  0
  6  4  1  0
  8  6  1  0
  9  8  1  0
  9 10  1  6
 11 10  1  0
 11 12  1  0
 13 12  1  0
 13 14  1  0
 15  9  1  0
 16 15  2  0
 17 15  1  0
 18 22  1  0
 18 17  1  0
 18 19  1  1
 20 21  2  0
 20 19  1  0
 22 25  1  0
 23 22  2  0
 24 20  1  0
M  END
$$$$
