VKD.pdb
     RDKit          3D

 25 24  0  0  1  0  0  0  0  0999 V2000
    8.6998  -13.0037   20.2978 C   0  0  0  0  0  0  0  0  0  0  0  0
    8.8068  -14.0445   19.2098 C   0  0  2  0  0  0  0  0  0  0  0  0
    9.3616  -13.4146   17.9600 C   0  0  0  0  0  0  0  0  0  0  0  0
    7.4328  -14.6564   18.9390 C   0  0  2  0  0  0  0  0  0  0  0  0
    6.5802  -13.5662   18.5293 N   0  0  0  0  0  0  0  0  0  0  0  0
    6.9503  -15.2086   20.2050 C   0  0  0  0  0  0  0  0  0  0  0  0
    6.5808  -14.4054   21.1216 O   0  0  0  0  0  0  0  0  0  0  0  0
    6.8696  -16.6098   20.4734 N   0  0  0  0  0  0  0  0  0  0  0  0
    6.4221  -17.1385   21.7325 C   0  0  1  0  0  0  0  0  0  0  0  0
    5.4090  -18.2169   21.6111 C   0  0  0  0  0  0  0  0  0  0  0  0
    4.1074  -17.8777   20.9883 C   0  0  0  0  0  0  0  0  0  0  0  0
    3.1999  -19.0495   20.9368 C   0  0  0  0  0  0  0  0  0  0  0  0
    1.8998  -18.7758   20.2167 C   0  0  0  0  0  0  0  0  0  0  0  0
    0.9451  -19.8211   20.3291 N   0  0  0  0  0  0  0  0  0  0  0  0
    7.5128  -17.3791   22.7016 C   0  0  0  0  0  0  0  0  0  0  0  0
    8.5600  -18.0412   22.3973 O   0  0  0  0  0  0  0  0  0  0  0  0
    7.4934  -16.8962   24.0463 N   0  0  0  0  0  0  0  0  0  0  0  0
    8.5368  -17.2166   24.9899 C   0  0  1  0  0  0  0  0  0  0  0  0
    8.7626  -16.0202   25.8966 C   0  0  0  0  0  0  0  0  0  0  0  0
   10.1365  -15.9476   26.4341 C   0  0  0  0  0  0  0  0  0  0  0  0
   10.4927  -14.9949   27.1567 O   0  0  0  0  0  0  0  0  0  0  0  0
    8.1256  -18.3844   25.7888 C   0  0  0  0  0  0  0  0  0  0  0  0
    6.9126  -18.6000   25.9773 O   0  0  0  0  0  0  0  0  0  0  0  0
   11.0757  -16.9271   26.1588 O   0  0  0  0  0  0  0  0  0  0  0  0
    9.0695  -19.2288   26.3209 O   0  0  0  0  0  0  0  0  0  0  0  0
  2  1  1  1
  3  2  1  0
  4  2  1  0
  4  5  1  1
  6  7  2  0
  6  4  1  0
  8  6  1  0
  9  8  1  0
  9 10  1  6
 11 10  1  0
 11 12  1  0
 13 12  1  0
 13 14  1  0
 15  9  1  0
 16 15  2  0
 17 15  1  0
 18 22  1  0
 18 17  1  0
 18 19  1  1
 20 21  2  0
 20 19  1  0
 22 25  1  0
 23 22  2  0
 24 20  1  0
M  END
$$$$
