HDK.pdb
     RDKit          3D

 28 28  0  0  1  0  0  0  0  0999 V2000
   20.5732  -12.2501  -16.6766 N   0  0  0  0  0  0  0  0  0  0  0  0
   19.6554  -11.3100  -17.2915 C   0  0  1  0  0  0  0  0  0  0  0  0
   18.3771  -12.0785  -17.5874 C   0  0  0  0  0  0  0  0  0  0  0  0
   18.6850  -13.1059  -18.6176 C   0  0  0  0  0  0  0  0  0  0  0  0
   19.9472  -13.5929  -18.9146 C   0  0  0  0  0  0  0  0  0  0  0  0
   19.8551  -14.4998  -19.8863 N   0  0  0  0  0  0  0  0  0  0  0  0
   18.5543  -14.5830  -20.1968 C   0  0  0  0  0  0  0  0  0  0  0  0
   17.8325  -13.7483  -19.4407 N   0  0  0  0  0  0  0  0  0  0  0  0
   19.3483  -10.1842  -16.3548 C   0  0  0  0  0  0  0  0  0  0  0  0
   18.4920  -10.2970  -15.4462 O   0  0  0  0  0  0  0  0  0  0  0  0
   20.0358   -8.9545  -16.4875 N   0  0  0  0  0  0  0  0  0  0  0  0
   19.9018   -7.8379  -15.5778 C   0  0  1  0  0  0  0  0  0  0  0  0
   21.2488   -7.3046  -15.1694 C   0  0  0  0  0  0  0  0  0  0  0  0
   22.0285   -8.2556  -14.3781 C   0  0  0  0  0  0  0  0  0  0  0  0
   21.6566   -8.6487  -13.2572 O   0  0  0  0  0  0  0  0  0  0  0  0
   19.1410   -6.7242  -16.1543 C   0  0  0  0  0  0  0  0  0  0  0  0
   19.3836   -6.3157  -17.3024 O   0  0  0  0  0  0  0  0  0  0  0  0
   23.2229   -8.7376  -14.8913 O   0  0  0  0  0  0  0  0  0  0  0  0
   18.1303   -6.1239  -15.3867 N   0  0  0  0  0  0  0  0  0  0  0  0
   17.2198   -5.0692  -15.9980 C   0  0  1  0  0  0  0  0  0  0  0  0
   15.9270   -5.3997  -15.3699 C   0  0  0  0  0  0  0  0  0  0  0  0
   14.7046   -4.6397  -15.5543 C   0  0  0  0  0  0  0  0  0  0  0  0
   13.4309   -5.0613  -14.9323 C   0  0  0  0  0  0  0  0  0  0  0  0
   12.3678   -4.0187  -15.3472 C   0  0  0  0  0  0  0  0  0  0  0  0
   11.1740   -4.2578  -14.5951 N   0  0  0  0  0  0  0  0  0  0  0  0
   17.8864   -3.8131  -15.6214 C   0  0  0  0  0  0  0  0  0  0  0  0
   17.8411   -2.6378  -16.3372 O   0  0  0  0  0  0  0  0  0  0  0  0
   18.5993   -3.7240  -14.5450 O   0  0  0  0  0  0  0  0  0  0  0  0
  2  1  1  1
  2  3  1  0
  4  3  1  0
  4  5  2  0
  6  5  1  0
  7  8  2  0
  7  6  1  0
  8  4  1  0
  9  2  1  0
 10  9  2  0
 11  9  1  0
 12 11  1  0
 13 14  1  0
 12 13  1  6
 14 15  2  0
 16 12  1  0
 16 19  1  0
 17 16  2  0
 18 14  1  0
 20 19  1  0
 20 21  1  1
 21 22  1  0
 23 22  1  0
 24 25  1  0
 24 23  1  0
 26 20  1  0
 26 27  1  0
 28 26  2  0
M  END
$$$$
