HDK.pdb
     RDKit          3D

 28 28  0  0  1  0  0  0  0  0999 V2000
   17.5449  -12.6146  -16.3968 N   0  0  0  0  0  0  0  0  0  0  0  0
   18.9168  -12.1447  -16.3623 C   0  0  1  0  0  0  0  0  0  0  0  0
   19.6280  -12.7881  -17.5424 C   0  0  0  0  0  0  0  0  0  0  0  0
   19.7635  -14.2422  -17.2617 C   0  0  0  0  0  0  0  0  0  0  0  0
   20.8955  -14.8614  -16.7580 C   0  0  0  0  0  0  0  0  0  0  0  0
   20.6669  -16.1678  -16.6311 N   0  0  0  0  0  0  0  0  0  0  0  0
   19.4096  -16.3688  -17.0486 C   0  0  0  0  0  0  0  0  0  0  0  0
   18.8484  -15.2170  -17.4332 N   0  0  0  0  0  0  0  0  0  0  0  0
   18.9677  -10.6563  -16.5077 C   0  0  0  0  0  0  0  0  0  0  0  0
   19.0946  -10.1069  -17.6274 O   0  0  0  0  0  0  0  0  0  0  0  0
   18.8711   -9.8360  -15.3588 N   0  0  0  0  0  0  0  0  0  0  0  0
   18.8553   -8.3898  -15.3829 C   0  0  1  0  0  0  0  0  0  0  0  0
   17.7736   -7.8429  -14.4903 C   0  0  0  0  0  0  0  0  0  0  0  0
   16.4289   -8.2394  -14.9065 C   0  0  0  0  0  0  0  0  0  0  0  0
   16.0110   -8.0554  -16.0643 O   0  0  0  0  0  0  0  0  0  0  0  0
   20.1267   -7.8009  -14.9493 C   0  0  0  0  0  0  0  0  0  0  0  0
   20.7839   -8.3148  -14.0285 O   0  0  0  0  0  0  0  0  0  0  0  0
   15.5888   -8.8409  -13.9820 O   0  0  0  0  0  0  0  0  0  0  0  0
   20.5924   -6.6432  -15.5926 N   0  0  0  0  0  0  0  0  0  0  0  0
   21.9932   -6.1170  -15.3169 C   0  0  1  0  0  0  0  0  0  0  0  0
   22.3146   -5.4574  -16.5962 C   0  0  0  0  0  0  0  0  0  0  0  0
   23.4964   -4.6488  -16.8308 C   0  0  0  0  0  0  0  0  0  0  0  0
   23.7347   -3.9869  -18.1317 C   0  0  0  0  0  0  0  0  0  0  0  0
   25.0390   -3.1709  -17.9824 C   0  0  0  0  0  0  0  0  0  0  0  0
   24.7975   -2.0815  -17.0865 N   0  0  0  0  0  0  0  0  0  0  0  0
   21.7925   -5.2812  -14.1232 C   0  0  0  0  0  0  0  0  0  0  0  0
   20.5917   -4.7450  -13.7150 O   0  0  0  0  0  0  0  0  0  0  0  0
   22.7770   -4.9731  -13.3418 O   0  0  0  0  0  0  0  0  0  0  0  0
  2  1  1  6
  2  3  1  0
  4  3  1  0
  4  5  2  0
  6  5  1  0
  7  8  2  0
  7  6  1  0
  8  4  1  0
  9  2  1  0
 10  9  2  0
 11  9  1  0
 12 11  1  0
 13 14  1  0
 12 13  1  1
 14 15  2  0
 16 12  1  0
 16 19  1  0
 17 16  2  0
 18 14  1  0
 20 19  1  0
 20 21  1  6
 21 22  1  0
 23 22  1  0
 24 25  1  0
 24 23  1  0
 26 20  1  0
 26 27  1  0
 28 26  2  0
M  END
$$$$
