HDK.pdb
     RDKit          3D

 28 28  0  0  1  0  0  0  0  0999 V2000
   17.5348  -11.3273  -16.8135 N   0  0  0  0  0  0  0  0  0  0  0  0
   17.4100  -10.9256  -15.4252 C   0  0  1  0  0  0  0  0  0  0  0  0
   17.6796  -12.1650  -14.5865 C   0  0  0  0  0  0  0  0  0  0  0  0
   16.6040  -13.1533  -14.8659 C   0  0  0  0  0  0  0  0  0  0  0  0
   15.5262  -12.9505  -15.7119 C   0  0  0  0  0  0  0  0  0  0  0  0
   14.7620  -14.0417  -15.7258 N   0  0  0  0  0  0  0  0  0  0  0  0
   15.3495  -14.9190  -14.9008 C   0  0  0  0  0  0  0  0  0  0  0  0
   16.4633  -14.3998  -14.3724 N   0  0  0  0  0  0  0  0  0  0  0  0
   18.4191   -9.8733  -15.0886 C   0  0  0  0  0  0  0  0  0  0  0  0
   18.5246   -9.4074  -13.9295 O   0  0  0  0  0  0  0  0  0  0  0  0
   19.2831   -9.3827  -16.0960 N   0  0  0  0  0  0  0  0  0  0  0  0
   20.2033   -8.2802  -15.9217 C   0  0  1  0  0  0  0  0  0  0  0  0
   21.5755   -8.6315  -16.4310 C   0  0  0  0  0  0  0  0  0  0  0  0
   22.5735   -7.5989  -16.1551 C   0  0  0  0  0  0  0  0  0  0  0  0
   22.2988   -6.5616  -15.5245 O   0  0  0  0  0  0  0  0  0  0  0  0
   19.7705   -7.0642  -16.6183 C   0  0  0  0  0  0  0  0  0  0  0  0
   19.6450   -7.0503  -17.8544 O   0  0  0  0  0  0  0  0  0  0  0  0
   23.8708   -7.7787  -16.6102 O   0  0  0  0  0  0  0  0  0  0  0  0
   19.4991   -5.9110  -15.8649 N   0  0  0  0  0  0  0  0  0  0  0  0
   19.0258   -4.6362  -16.5476 C   0  0  1  0  0  0  0  0  0  0  0  0
   17.7722   -4.3633  -15.8202 C   0  0  0  0  0  0  0  0  0  0  0  0
   17.0009   -3.1401  -15.9404 C   0  0  0  0  0  0  0  0  0  0  0  0
   15.7336   -2.9495  -15.2024 C   0  0  0  0  0  0  0  0  0  0  0  0
   15.1410   -1.6034  -15.6780 C   0  0  0  0  0  0  0  0  0  0  0  0
   14.6115   -1.7765  -16.9961 N   0  0  0  0  0  0  0  0  0  0  0  0
   20.1659   -3.7269  -16.3541 C   0  0  0  0  0  0  0  0  0  0  0  0
   20.4329   -2.6071  -17.1095 O   0  0  0  0  0  0  0  0  0  0  0  0
   21.0399   -3.9296  -15.4215 O   0  0  0  0  0  0  0  0  0  0  0  0
  2  1  1  6
  2  3  1  0
  4  3  1  0
  4  5  2  0
  6  5  1  0
  7  8  2  0
  7  6  1  0
  8  4  1  0
  9  2  1  0
 10  9  2  0
 11  9  1  0
 12 11  1  0
 13 14  1  0
 12 13  1  6
 14 15  2  0
 16 12  1  0
 16 19  1  0
 17 16  2  0
 18 14  1  0
 20 19  1  0
 20 21  1  1
 21 22  1  0
 23 22  1  0
 24 25  1  0
 24 23  1  0
 26 20  1  0
 26 27  1  0
 28 26  2  0
M  END
$$$$
