HDK.pdb
     RDKit          3D

 28 28  0  0  1  0  0  0  0  0999 V2000
   18.9729  -13.0508  -15.6234 N   0  0  0  0  0  0  0  0  0  0  0  0
   18.4966  -11.9188  -16.3953 C   0  0  1  0  0  0  0  0  0  0  0  0
   17.0055  -12.1304  -16.6052 C   0  0  0  0  0  0  0  0  0  0  0  0
   16.8305  -13.2159  -17.6065 C   0  0  0  0  0  0  0  0  0  0  0  0
   17.6916  -13.4863  -18.6573 C   0  0  0  0  0  0  0  0  0  0  0  0
   17.2293  -14.5241  -19.3533 N   0  0  0  0  0  0  0  0  0  0  0  0
   16.0941  -14.9019  -18.7501 C   0  0  0  0  0  0  0  0  0  0  0  0
   15.8374  -14.1231  -17.6932 N   0  0  0  0  0  0  0  0  0  0  0  0
   18.7128  -10.6418  -15.6459 C   0  0  0  0  0  0  0  0  0  0  0  0
   18.3039  -10.4894  -14.4706 O   0  0  0  0  0  0  0  0  0  0  0  0
   19.3953   -9.5703  -16.2689 N   0  0  0  0  0  0  0  0  0  0  0  0
   19.6297   -8.2808  -15.6567 C   0  0  1  0  0  0  0  0  0  0  0  0
   21.0884   -7.9127  -15.7057 C   0  0  0  0  0  0  0  0  0  0  0  0
   21.9154   -8.7172  -14.8072 C   0  0  0  0  0  0  0  0  0  0  0  0
   22.6800   -9.6056  -15.2258 O   0  0  0  0  0  0  0  0  0  0  0  0
   18.8785   -7.2001  -16.3041 C   0  0  0  0  0  0  0  0  0  0  0  0
   18.8194   -7.1205  -17.5426 O   0  0  0  0  0  0  0  0  0  0  0  0
   21.8476   -8.4846  -13.4420 O   0  0  0  0  0  0  0  0  0  0  0  0
   18.2243   -6.2528  -15.5005 N   0  0  0  0  0  0  0  0  0  0  0  0
   17.4062   -5.1367  -16.1331 C   0  0  1  0  0  0  0  0  0  0  0  0
   16.0684   -5.4004  -15.5711 C   0  0  0  0  0  0  0  0  0  0  0  0
   14.9103   -4.5489  -15.7695 C   0  0  0  0  0  0  0  0  0  0  0  0
   13.5803   -4.9162  -15.2371 C   0  0  0  0  0  0  0  0  0  0  0  0
   12.5873   -3.8467  -15.7465 C   0  0  0  0  0  0  0  0  0  0  0  0
   11.2775   -4.1757  -15.2733 N   0  0  0  0  0  0  0  0  0  0  0  0
   18.1263   -3.9282  -15.7029 C   0  0  0  0  0  0  0  0  0  0  0  0
   18.1369   -2.7236  -16.3697 O   0  0  0  0  0  0  0  0  0  0  0  0
   18.8371   -3.9153  -14.6216 O   0  0  0  0  0  0  0  0  0  0  0  0
  2  1  1  1
  2  3  1  0
  4  3  1  0
  4  5  2  0
  6  5  1  0
  7  8  2  0
  7  6  1  0
  8  4  1  0
  9  2  1  0
 10  9  2  0
 11  9  1  0
 12 11  1  0
 13 14  1  0
 12 13  1  6
 14 15  2  0
 16 12  1  0
 16 19  1  0
 17 16  2  0
 18 14  1  0
 20 19  1  0
 20 21  1  1
 21 22  1  0
 23 22  1  0
 24 25  1  0
 24 23  1  0
 26 20  1  0
 26 27  1  0
 28 26  2  0
M  END
$$$$
