HDK.pdb
     RDKit          3D

 28 28  0  0  1  0  0  0  0  0999 V2000
   21.4271  -18.6453  -11.1580 N   0  0  0  0  0  0  0  0  0  0  0  0
   22.0108  -19.4721  -12.1971 C   0  0  1  0  0  0  0  0  0  0  0  0
   21.7248  -20.9165  -11.8174 C   0  0  0  0  0  0  0  0  0  0  0  0
   22.2099  -21.1325  -10.4283 C   0  0  0  0  0  0  0  0  0  0  0  0
   23.3999  -20.6503   -9.9086 C   0  0  0  0  0  0  0  0  0  0  0  0
   23.5151  -21.0315   -8.6372 N   0  0  0  0  0  0  0  0  0  0  0  0
   22.4142  -21.7432   -8.3599 C   0  0  0  0  0  0  0  0  0  0  0  0
   21.6145  -21.8148   -9.4298 N   0  0  0  0  0  0  0  0  0  0  0  0
   21.3806  -19.1765  -13.5217 C   0  0  0  0  0  0  0  0  0  0  0  0
   21.8010  -19.6954  -14.5827 O   0  0  0  0  0  0  0  0  0  0  0  0
   20.2803  -18.2895  -13.5922 N   0  0  0  0  0  0  0  0  0  0  0  0
   19.6310  -17.8845  -14.8197 C   0  0  1  0  0  0  0  0  0  0  0  0
   18.1689  -17.6058  -14.5951 C   0  0  0  0  0  0  0  0  0  0  0  0
   17.4086  -18.7949  -14.2123 C   0  0  0  0  0  0  0  0  0  0  0  0
   17.5157  -19.8756  -14.8203 O   0  0  0  0  0  0  0  0  0  0  0  0
   20.2264  -16.6790  -15.4058 C   0  0  0  0  0  0  0  0  0  0  0  0
   20.4759  -15.6864  -14.7014 O   0  0  0  0  0  0  0  0  0  0  0  0
   16.5381  -18.7189  -13.1358 O   0  0  0  0  0  0  0  0  0  0  0  0
   20.5117  -16.6629  -16.7804 N   0  0  0  0  0  0  0  0  0  0  0  0
   21.2291  -15.4760  -17.4064 C   0  0  1  0  0  0  0  0  0  0  0  0
   22.0851  -16.1448  -18.4038 C   0  0  0  0  0  0  0  0  0  0  0  0
   22.9330  -15.4528  -19.3566 C   0  0  0  0  0  0  0  0  0  0  0  0
   23.8607  -16.1884  -20.2428 C   0  0  0  0  0  0  0  0  0  0  0  0
   24.6584  -15.1248  -21.0314 C   0  0  0  0  0  0  0  0  0  0  0  0
   25.6131  -15.7919  -21.8629 N   0  0  0  0  0  0  0  0  0  0  0  0
   20.1143  -14.6411  -17.8799 C   0  0  0  0  0  0  0  0  0  0  0  0
   20.1898  -13.2983  -18.1749 O   0  0  0  0  0  0  0  0  0  0  0  0
   18.9298  -15.1326  -18.0541 O   0  0  0  0  0  0  0  0  0  0  0  0
  2  1  1  1
  2  3  1  0
  4  3  1  0
  4  5  2  0
  6  5  1  0
  7  8  2  0
  7  6  1  0
  8  4  1  0
  9  2  1  0
 10  9  2  0
 11  9  1  0
 12 11  1  0
 13 14  1  0
 12 13  1  1
 14 15  2  0
 16 12  1  0
 16 19  1  0
 17 16  2  0
 18 14  1  0
 20 19  1  0
 20 21  1  6
 21 22  1  0
 23 22  1  0
 24 25  1  0
 24 23  1  0
 26 20  1  0
 26 27  1  0
 28 26  2  0
M  END
$$$$
