HDK.pdb
     RDKit          3D

 28 28  0  0  1  0  0  0  0  0999 V2000
   20.2762  -12.7630  -16.0792 N   0  0  0  0  0  0  0  0  0  0  0  0
   20.4528  -14.0558  -16.7130 C   0  0  1  0  0  0  0  0  0  0  0  0
   21.8124  -14.0259  -17.3934 C   0  0  0  0  0  0  0  0  0  0  0  0
   21.6853  -13.2284  -18.6422 C   0  0  0  0  0  0  0  0  0  0  0  0
   20.5034  -12.7176  -19.1527 C   0  0  0  0  0  0  0  0  0  0  0  0
   20.7570  -12.0568  -20.2815 N   0  0  0  0  0  0  0  0  0  0  0  0
   22.0790  -12.1500  -20.4792 C   0  0  0  0  0  0  0  0  0  0  0  0
   22.6562  -12.8540  -19.4991 N   0  0  0  0  0  0  0  0  0  0  0  0
   20.4362  -15.1497  -15.6922 C   0  0  0  0  0  0  0  0  0  0  0  0
   21.0389  -15.0404  -14.5984 O   0  0  0  0  0  0  0  0  0  0  0  0
   19.7250  -16.3442  -15.9562 N   0  0  0  0  0  0  0  0  0  0  0  0
   19.5895  -17.4412  -15.0230 C   0  0  1  0  0  0  0  0  0  0  0  0
   18.1478  -17.6655  -14.6532 C   0  0  0  0  0  0  0  0  0  0  0  0
   17.9224  -17.6977  -13.2087 C   0  0  0  0  0  0  0  0  0  0  0  0
   16.8085  -17.4637  -12.7051 O   0  0  0  0  0  0  0  0  0  0  0  0
   20.1124  -18.7050  -15.5527 C   0  0  0  0  0  0  0  0  0  0  0  0
   19.7805  -19.1072  -16.6805 O   0  0  0  0  0  0  0  0  0  0  0  0
   18.9838  -17.9988  -12.3690 O   0  0  0  0  0  0  0  0  0  0  0  0
   20.9973  -19.4569  -14.7636 N   0  0  0  0  0  0  0  0  0  0  0  0
   21.6736  -20.6968  -15.3295 C   0  0  1  0  0  0  0  0  0  0  0  0
   23.0926  -20.4097  -15.0483 C   0  0  0  0  0  0  0  0  0  0  0  0
   24.2091  -21.1261  -15.6364 C   0  0  0  0  0  0  0  0  0  0  0  0
   25.6037  -20.8569  -15.2244 C   0  0  0  0  0  0  0  0  0  0  0  0
   26.4979  -21.8379  -16.0165 C   0  0  0  0  0  0  0  0  0  0  0  0
   27.8382  -21.7336  -15.5260 N   0  0  0  0  0  0  0  0  0  0  0  0
   21.0147  -21.7859  -14.5922 C   0  0  0  0  0  0  0  0  0  0  0  0
   20.8637  -23.0788  -15.0412 O   0  0  0  0  0  0  0  0  0  0  0  0
   20.5026  -21.5936  -13.4194 O   0  0  0  0  0  0  0  0  0  0  0  0
  2  1  1  1
  2  3  1  0
  4  3  1  0
  4  5  2  0
  6  5  1  0
  7  8  2  0
  7  6  1  0
  8  4  1  0
  9  2  1  0
 10  9  2  0
 11  9  1  0
 12 11  1  0
 13 14  1  0
 12 13  1  6
 14 15  2  0
 16 12  1  0
 16 19  1  0
 17 16  2  0
 18 14  1  0
 20 19  1  0
 20 21  1  1
 21 22  1  0
 23 22  1  0
 24 25  1  0
 24 23  1  0
 26 20  1  0
 26 27  1  0
 28 26  2  0
M  END
$$$$
