HDK.pdb
     RDKit          3D

 28 28  0  0  1  0  0  0  0  0999 V2000
   19.9937  -11.4167  -17.9264 N   0  0  0  0  0  0  0  0  0  0  0  0
   19.0781  -11.5189  -16.8059 C   0  0  1  0  0  0  0  0  0  0  0  0
   19.5916  -12.6466  -15.9244 C   0  0  0  0  0  0  0  0  0  0  0  0
   19.3430  -13.9322  -16.6293 C   0  0  0  0  0  0  0  0  0  0  0  0
   19.7380  -14.2287  -17.9234 C   0  0  0  0  0  0  0  0  0  0  0  0
   19.3513  -15.4656  -18.2326 N   0  0  0  0  0  0  0  0  0  0  0  0
   18.7220  -15.9414  -17.1495 C   0  0  0  0  0  0  0  0  0  0  0  0
   18.7073  -15.0291  -16.1713 N   0  0  0  0  0  0  0  0  0  0  0  0
   19.0635  -10.2459  -16.0197 C   0  0  0  0  0  0  0  0  0  0  0  0
   18.3514  -10.1105  -14.9969 O   0  0  0  0  0  0  0  0  0  0  0  0
   19.8704   -9.1587  -16.4309 N   0  0  0  0  0  0  0  0  0  0  0  0
   19.9253   -7.8784  -15.7598 C   0  0  1  0  0  0  0  0  0  0  0  0
   21.3235   -7.5663  -15.2977 C   0  0  0  0  0  0  0  0  0  0  0  0
   21.7651   -8.4111  -14.1887 C   0  0  0  0  0  0  0  0  0  0  0  0
   21.2563   -8.3383  -13.0552 O   0  0  0  0  0  0  0  0  0  0  0  0
   19.4837   -6.7706  -16.6136 C   0  0  0  0  0  0  0  0  0  0  0  0
   19.8640   -6.6867  -17.7934 O   0  0  0  0  0  0  0  0  0  0  0  0
   22.7851   -9.3251  -14.4044 O   0  0  0  0  0  0  0  0  0  0  0  0
   18.6210   -5.8021  -16.0760 N   0  0  0  0  0  0  0  0  0  0  0  0
   18.2233   -4.5826  -16.8944 C   0  0  1  0  0  0  0  0  0  0  0  0
   16.7570   -4.5906  -16.7368 C   0  0  0  0  0  0  0  0  0  0  0  0
   15.8757   -3.5279  -17.1839 C   0  0  0  0  0  0  0  0  0  0  0  0
   14.4081   -3.6239  -17.0288 C   0  0  0  0  0  0  0  0  0  0  0  0
   13.8082   -2.3627  -17.6912 C   0  0  0  0  0  0  0  0  0  0  0  0
   12.3832   -2.4913  -17.7138 N   0  0  0  0  0  0  0  0  0  0  0  0
   18.9953   -3.5041  -16.2582 C   0  0  0  0  0  0  0  0  0  0  0  0
   19.3064   -3.4257  -14.9192 O   0  0  0  0  0  0  0  0  0  0  0  0
   19.4511   -2.5056  -16.9439 O   0  0  0  0  0  0  0  0  0  0  0  0
  2  1  1  6
  2  3  1  0
  4  3  1  0
  4  5  2  0
  6  5  1  0
  7  8  2  0
  7  6  1  0
  8  4  1  0
  9  2  1  0
 10  9  2  0
 11  9  1  0
 12 11  1  0
 13 14  1  0
 12 13  1  6
 14 15  2  0
 16 12  1  0
 16 19  1  0
 17 16  2  0
 18 14  1  0
 20 19  1  0
 20 21  1  1
 21 22  1  0
 23 22  1  0
 24 25  1  0
 24 23  1  0
 26 20  1  0
 26 27  1  0
 28 26  2  0
M  END
$$$$
