HDK.pdb
     RDKit          3D

 28 28  0  0  1  0  0  0  0  0999 V2000
   14.7029  -11.6712  -11.0698 N   0  0  0  0  0  0  0  0  0  0  0  0
   15.0185  -10.4142  -11.7215 C   0  0  1  0  0  0  0  0  0  0  0  0
   13.9229  -10.1672  -12.7466 C   0  0  0  0  0  0  0  0  0  0  0  0
   14.0802  -11.1646  -13.8385 C   0  0  0  0  0  0  0  0  0  0  0  0
   14.7481  -10.9501  -15.0328 C   0  0  0  0  0  0  0  0  0  0  0  0
   14.6934  -12.0546  -15.7758 N   0  0  0  0  0  0  0  0  0  0  0  0
   14.0014  -12.9516  -15.0604 C   0  0  0  0  0  0  0  0  0  0  0  0
   13.6229  -12.4317  -13.8875 N   0  0  0  0  0  0  0  0  0  0  0  0
   15.0270   -9.2940  -10.7293 C   0  0  0  0  0  0  0  0  0  0  0  0
   14.1734   -9.2167   -9.8145 O   0  0  0  0  0  0  0  0  0  0  0  0
   16.0196   -8.2892  -10.8150 N   0  0  0  0  0  0  0  0  0  0  0  0
   16.0931   -7.1332   -9.9486 C   0  0  1  0  0  0  0  0  0  0  0  0
   17.5050   -6.6226   -9.8420 C   0  0  0  0  0  0  0  0  0  0  0  0
   17.6390   -5.4870   -8.9303 C   0  0  0  0  0  0  0  0  0  0  0  0
   17.8088   -4.3238   -9.3391 O   0  0  0  0  0  0  0  0  0  0  0  0
   15.2545   -6.0225  -10.4116 C   0  0  0  0  0  0  0  0  0  0  0  0
   15.2379   -5.6954  -11.6102 O   0  0  0  0  0  0  0  0  0  0  0  0
   17.5751   -5.7107   -7.5635 O   0  0  0  0  0  0  0  0  0  0  0  0
   14.4674   -5.3314   -9.4768 N   0  0  0  0  0  0  0  0  0  0  0  0
   13.5552   -4.1982   -9.9229 C   0  0  1  0  0  0  0  0  0  0  0  0
   12.4032   -4.3776   -9.0198 C   0  0  0  0  0  0  0  0  0  0  0  0
   12.3401   -3.8800   -7.6581 C   0  0  0  0  0  0  0  0  0  0  0  0
   11.1481   -4.0971   -6.8101 C   0  0  0  0  0  0  0  0  0  0  0  0
   11.4051   -3.3477   -5.4828 C   0  0  0  0  0  0  0  0  0  0  0  0
   10.2556   -3.4956   -4.6435 N   0  0  0  0  0  0  0  0  0  0  0  0
   14.4090   -3.0128   -9.7505 C   0  0  0  0  0  0  0  0  0  0  0  0
   14.0466   -1.7169  -10.0423 O   0  0  0  0  0  0  0  0  0  0  0  0
   15.6172   -3.1115   -9.2973 O   0  0  0  0  0  0  0  0  0  0  0  0
  2  1  1  1
  2  3  1  0
  4  3  1  0
  4  5  2  0
  6  5  1  0
  7  8  2  0
  7  6  1  0
  8  4  1  0
  9  2  1  0
 10  9  2  0
 11  9  1  0
 12 11  1  0
 13 14  1  0
 12 13  1  6
 14 15  2  0
 16 12  1  0
 16 19  1  0
 17 16  2  0
 18 14  1  0
 20 19  1  0
 20 21  1  1
 21 22  1  0
 23 22  1  0
 24 25  1  0
 24 23  1  0
 26 20  1  0
 26 27  1  0
 28 26  2  0
M  END
$$$$
