HDK.pdb
     RDKit          3D

 28 28  0  0  1  0  0  0  0  0999 V2000
   26.7211  -35.5903   -5.7606 N   0  0  0  0  0  0  0  0  0  0  0  0
   26.6962  -34.4621   -4.8492 C   0  0  1  0  0  0  0  0  0  0  0  0
   25.5490  -33.5681   -5.2928 C   0  0  0  0  0  0  0  0  0  0  0  0
   25.9480  -32.9016   -6.5610 C   0  0  0  0  0  0  0  0  0  0  0  0
   27.1218  -33.1370   -7.2577 C   0  0  0  0  0  0  0  0  0  0  0  0
   27.1530  -32.3690   -8.3460 N   0  0  0  0  0  0  0  0  0  0  0  0
   26.0158  -31.6603   -8.3351 C   0  0  0  0  0  0  0  0  0  0  0  0
   25.2756  -31.9688   -7.2644 N   0  0  0  0  0  0  0  0  0  0  0  0
   26.4485  -34.9228   -3.4472 C   0  0  0  0  0  0  0  0  0  0  0  0
   25.7153  -35.9083   -3.1966 O   0  0  0  0  0  0  0  0  0  0  0  0
   27.0521  -34.2367   -2.3668 N   0  0  0  0  0  0  0  0  0  0  0  0
   26.8780  -34.5858   -0.9739 C   0  0  1  0  0  0  0  0  0  0  0  0
   27.9890  -34.0221   -0.1292 C   0  0  0  0  0  0  0  0  0  0  0  0
   27.9295  -34.4580    1.2655 C   0  0  0  0  0  0  0  0  0  0  0  0
   27.0761  -35.2676    1.6721 O   0  0  0  0  0  0  0  0  0  0  0  0
   25.6102  -34.0982   -0.4206 C   0  0  0  0  0  0  0  0  0  0  0  0
   25.3299  -32.8880   -0.4445 O   0  0  0  0  0  0  0  0  0  0  0  0
   28.8538  -33.9541    2.1677 O   0  0  0  0  0  0  0  0  0  0  0  0
   24.7140  -35.0228    0.1389 N   0  0  0  0  0  0  0  0  0  0  0  0
   23.3262  -34.5827    0.5811 C   0  0  1  0  0  0  0  0  0  0  0  0
   22.6485  -35.8814    0.7519 C   0  0  0  0  0  0  0  0  0  0  0  0
   21.2117  -36.0510    0.8644 C   0  0  0  0  0  0  0  0  0  0  0  0
   20.5996  -37.3906    0.9985 C   0  0  0  0  0  0  0  0  0  0  0  0
   19.0703  -37.1752    1.0643 C   0  0  0  0  0  0  0  0  0  0  0  0
   18.4368  -38.4445    1.2528 N   0  0  0  0  0  0  0  0  0  0  0  0
   23.6121  -33.7736    1.7759 C   0  0  0  0  0  0  0  0  0  0  0  0
   24.8092  -33.7465    2.4557 O   0  0  0  0  0  0  0  0  0  0  0  0
   22.7150  -33.0006    2.2978 O   0  0  0  0  0  0  0  0  0  0  0  0
  2  1  1  6
  2  3  1  0
  4  3  1  0
  4  5  2  0
  6  5  1  0
  7  8  2  0
  7  6  1  0
  8  4  1  0
  9  2  1  0
 10  9  2  0
 11  9  1  0
 12 11  1  0
 13 14  1  0
 12 13  1  1
 14 15  2  0
 16 12  1  0
 16 19  1  0
 17 16  2  0
 18 14  1  0
 20 19  1  0
 20 21  1  1
 21 22  1  0
 23 22  1  0
 24 25  1  0
 24 23  1  0
 26 20  1  0
 26 27  1  0
 28 26  2  0
M  END
$$$$
