HDK.pdb
     RDKit          3D

 28 28  0  0  1  0  0  0  0  0999 V2000
   15.8985  -25.4061   -5.3624 N   0  0  0  0  0  0  0  0  0  0  0  0
   15.2321  -24.6040   -4.3540 C   0  0  1  0  0  0  0  0  0  0  0  0
   13.8013  -24.4064   -4.8292 C   0  0  0  0  0  0  0  0  0  0  0  0
   13.8326  -23.5403   -6.0377 C   0  0  0  0  0  0  0  0  0  0  0  0
   13.5731  -22.1798   -6.0583 C   0  0  0  0  0  0  0  0  0  0  0  0
   13.6902  -21.7251   -7.3051 N   0  0  0  0  0  0  0  0  0  0  0  0
   14.0186  -22.7832   -8.0588 C   0  0  0  0  0  0  0  0  0  0  0  0
   14.1090  -23.8881   -7.3103 N   0  0  0  0  0  0  0  0  0  0  0  0
   15.2207  -25.3157   -3.0377 C   0  0  0  0  0  0  0  0  0  0  0  0
   15.0804  -26.5591   -2.9613 O   0  0  0  0  0  0  0  0  0  0  0  0
   15.3714  -24.5771   -1.8402 N   0  0  0  0  0  0  0  0  0  0  0  0
   15.3593  -25.1543   -0.5138 C   0  0  1  0  0  0  0  0  0  0  0  0
   16.2834  -24.4093    0.4118 C   0  0  0  0  0  0  0  0  0  0  0  0
   16.3965  -25.0274    1.7323 C   0  0  0  0  0  0  0  0  0  0  0  0
   16.2277  -24.3830    2.7836 O   0  0  0  0  0  0  0  0  0  0  0  0
   14.0249  -25.1499    0.0950 C   0  0  0  0  0  0  0  0  0  0  0  0
   13.3478  -24.1088    0.1347 O   0  0  0  0  0  0  0  0  0  0  0  0
   16.7020  -26.3770    1.8192 O   0  0  0  0  0  0  0  0  0  0  0  0
   13.5215  -26.3442    0.6347 N   0  0  0  0  0  0  0  0  0  0  0  0
   12.1490  -26.3772    1.2906 C   0  0  1  0  0  0  0  0  0  0  0  0
   11.3182  -26.9256    0.2026 C   0  0  0  0  0  0  0  0  0  0  0  0
    9.8864  -26.7244    0.0794 C   0  0  0  0  0  0  0  0  0  0  0  0
    9.1042  -27.3727   -0.9954 C   0  0  0  0  0  0  0  0  0  0  0  0
    7.6517  -26.8626   -0.8568 C   0  0  0  0  0  0  0  0  0  0  0  0
    6.8654  -27.4280   -1.9103 N   0  0  0  0  0  0  0  0  0  0  0  0
   12.3841  -27.2043    2.4842 C   0  0  0  0  0  0  0  0  0  0  0  0
   11.4141  -27.6409    3.3584 O   0  0  0  0  0  0  0  0  0  0  0  0
   13.5744  -27.5914    2.8132 O   0  0  0  0  0  0  0  0  0  0  0  0
  2  1  1  6
  2  3  1  0
  4  3  1  0
  4  5  2  0
  6  5  1  0
  7  8  2  0
  7  6  1  0
  8  4  1  0
  9  2  1  0
 10  9  2  0
 11  9  1  0
 12 11  1  0
 13 14  1  0
 12 13  1  1
 14 15  2  0
 16 12  1  0
 16 19  1  0
 17 16  2  0
 18 14  1  0
 20 19  1  0
 20 21  1  6
 21 22  1  0
 23 22  1  0
 24 25  1  0
 24 23  1  0
 26 20  1  0
 26 27  1  0
 28 26  2  0
M  END
$$$$
