HDK.pdb
     RDKit          3D

 28 28  0  0  1  0  0  0  0  0999 V2000
   18.5802  -14.9596  -18.5512 N   0  0  0  0  0  0  0  0  0  0  0  0
   19.4881  -14.2139  -17.7004 C   0  0  1  0  0  0  0  0  0  0  0  0
   20.8658  -14.3184  -18.3352 C   0  0  0  0  0  0  0  0  0  0  0  0
   21.3482  -15.7145  -18.1622 C   0  0  0  0  0  0  0  0  0  0  0  0
   21.1266  -16.7568  -19.0472 C   0  0  0  0  0  0  0  0  0  0  0  0
   21.6992  -17.8650  -18.5791 N   0  0  0  0  0  0  0  0  0  0  0  0
   22.2729  -17.5261  -17.4166 C   0  0  0  0  0  0  0  0  0  0  0  0
   22.0712  -16.2312  -17.1486 N   0  0  0  0  0  0  0  0  0  0  0  0
   19.0842  -12.7747  -17.6328 C   0  0  0  0  0  0  0  0  0  0  0  0
   19.0253  -12.0572  -18.6592 O   0  0  0  0  0  0  0  0  0  0  0  0
   18.7578  -12.1961  -16.3834 N   0  0  0  0  0  0  0  0  0  0  0  0
   18.2716  -10.8451  -16.2074 C   0  0  1  0  0  0  0  0  0  0  0  0
   17.3255  -10.7555  -15.0401 C   0  0  0  0  0  0  0  0  0  0  0  0
   16.1271  -11.5768  -15.2064 C   0  0  0  0  0  0  0  0  0  0  0  0
   15.4892  -11.6118  -16.2746 O   0  0  0  0  0  0  0  0  0  0  0  0
   19.3510   -9.8789  -15.9775 C   0  0  0  0  0  0  0  0  0  0  0  0
   20.3430  -10.1846  -15.2947 O   0  0  0  0  0  0  0  0  0  0  0  0
   15.6839  -12.3436  -14.1397 O   0  0  0  0  0  0  0  0  0  0  0  0
   19.2464   -8.5979  -16.5426 N   0  0  0  0  0  0  0  0  0  0  0  0
   20.4249   -7.6364  -16.4997 C   0  0  1  0  0  0  0  0  0  0  0  0
   20.0558   -6.6745  -17.5549 C   0  0  0  0  0  0  0  0  0  0  0  0
   20.8480   -5.5170  -17.9266 C   0  0  0  0  0  0  0  0  0  0  0  0
   20.3809   -4.5565  -18.9495 C   0  0  0  0  0  0  0  0  0  0  0  0
   21.5029   -3.5068  -19.1182 C   0  0  0  0  0  0  0  0  0  0  0  0
   21.0820   -2.5378  -20.0834 N   0  0  0  0  0  0  0  0  0  0  0  0
   20.4189   -7.1846  -15.0997 C   0  0  0  0  0  0  0  0  0  0  0  0
   21.5188   -6.7489  -14.3952 O   0  0  0  0  0  0  0  0  0  0  0  0
   19.3305   -7.1705  -14.3999 O   0  0  0  0  0  0  0  0  0  0  0  0
  2  1  1  6
  2  3  1  0
  4  3  1  0
  4  5  2  0
  6  5  1  0
  7  8  2  0
  7  6  1  0
  8  4  1  0
  9  2  1  0
 10  9  2  0
 11  9  1  0
 12 11  1  0
 13 14  1  0
 12 13  1  1
 14 15  2  0
 16 12  1  0
 16 19  1  0
 17 16  2  0
 18 14  1  0
 20 19  1  0
 20 21  1  6
 21 22  1  0
 23 22  1  0
 24 25  1  0
 24 23  1  0
 26 20  1  0
 26 27  1  0
 28 26  2  0
M  END
$$$$
