HDK.pdb
     RDKit          3D

 28 28  0  0  1  0  0  0  0  0999 V2000
   26.1771  -21.8990  -11.3470 N   0  0  0  0  0  0  0  0  0  0  0  0
   25.8935  -20.6996  -12.1121 C   0  0  1  0  0  0  0  0  0  0  0  0
   26.9606  -20.6082  -13.1915 C   0  0  0  0  0  0  0  0  0  0  0  0
   28.2904  -20.6048  -12.5257 C   0  0  0  0  0  0  0  0  0  0  0  0
   29.3405  -21.4575  -12.8237 C   0  0  0  0  0  0  0  0  0  0  0  0
   30.3775  -21.1759  -12.0360 N   0  0  0  0  0  0  0  0  0  0  0  0
   29.9865  -20.1610  -11.2533 C   0  0  0  0  0  0  0  0  0  0  0  0
   28.7289  -19.8029  -11.5349 N   0  0  0  0  0  0  0  0  0  0  0  0
   24.5465  -20.7923  -12.7570 C   0  0  0  0  0  0  0  0  0  0  0  0
   24.4022  -21.2288  -13.9233 O   0  0  0  0  0  0  0  0  0  0  0  0
   23.3971  -20.3796  -12.0422 N   0  0  0  0  0  0  0  0  0  0  0  0
   22.0424  -20.4805  -12.5391 C   0  0  1  0  0  0  0  0  0  0  0  0
   21.0422  -20.3471  -11.4221 C   0  0  0  0  0  0  0  0  0  0  0  0
   19.6627  -20.5651  -11.8557 C   0  0  0  0  0  0  0  0  0  0  0  0
   18.8155  -19.6533  -11.8577 O   0  0  0  0  0  0  0  0  0  0  0  0
   21.7271  -19.4560  -13.5402 C   0  0  0  0  0  0  0  0  0  0  0  0
   22.0268  -18.2657  -13.3476 O   0  0  0  0  0  0  0  0  0  0  0  0
   19.2828  -21.8293  -12.2796 O   0  0  0  0  0  0  0  0  0  0  0  0
   21.0791  -19.8415  -14.7245 N   0  0  0  0  0  0  0  0  0  0  0  0
   20.8201  -18.8270  -15.8285 C   0  0  1  0  0  0  0  0  0  0  0  0
   21.5861  -19.4093  -16.9461 C   0  0  0  0  0  0  0  0  0  0  0  0
   22.1991  -18.6396  -18.0125 C   0  0  0  0  0  0  0  0  0  0  0  0
   22.9110  -19.2970  -19.1298 C   0  0  0  0  0  0  0  0  0  0  0  0
   23.5051  -18.1683  -20.0030 C   0  0  0  0  0  0  0  0  0  0  0  0
   24.1930  -18.7596  -21.1098 N   0  0  0  0  0  0  0  0  0  0  0  0
   19.3515  -18.8122  -15.9119 C   0  0  0  0  0  0  0  0  0  0  0  0
   18.5944  -17.8322  -16.5139 O   0  0  0  0  0  0  0  0  0  0  0  0
   18.6367  -19.7598  -15.3962 O   0  0  0  0  0  0  0  0  0  0  0  0
  2  1  1  6
  2  3  1  0
  4  3  1  0
  4  5  2  0
  6  5  1  0
  7  8  2  0
  7  6  1  0
  8  4  1  0
  9  2  1  0
 10  9  2  0
 11  9  1  0
 12 11  1  0
 13 14  1  0
 12 13  1  1
 14 15  2  0
 16 12  1  0
 16 19  1  0
 17 16  2  0
 18 14  1  0
 20 19  1  0
 20 21  1  6
 21 22  1  0
 23 22  1  0
 24 25  1  0
 24 23  1  0
 26 20  1  0
 26 27  1  0
 28 26  2  0
M  END
$$$$
