NFM.pdb
     RDKit          3D

 28 28  0  0  1  0  0  0  0  0999 V2000
   10.3583  -19.3903   17.9519 N   0  0  0  0  0  0  0  0  0  0  0  0
   10.8237  -18.0825   17.6735 C   0  0  0  0  0  0  0  0  0  0  0  0
   11.2705  -17.8490   16.5246 O   0  0  0  0  0  0  0  0  0  0  0  0
   10.7541  -17.0720   18.7552 C   0  0  0  0  0  0  0  0  0  0  0  0
   10.2368  -17.6716   20.0470 C   0  0  2  0  0  0  0  0  0  0  0  0
    8.9741  -18.3489   19.8617 N   0  0  0  0  0  0  0  0  0  0  0  0
   10.1099  -16.6139   21.0933 C   0  0  0  0  0  0  0  0  0  0  0  0
   11.0806  -15.8524   21.3839 O   0  0  0  0  0  0  0  0  0  0  0  0
    8.9104  -16.4111   21.8065 N   0  0  0  0  0  0  0  0  0  0  0  0
    8.7464  -15.4422   22.8707 C   0  0  1  0  0  0  0  0  0  0  0  0
    7.3058  -15.4235   23.3331 C   0  0  0  0  0  0  0  0  0  0  0  0
    7.0893  -14.4413   24.4267 C   0  0  0  0  0  0  0  0  0  0  0  0
    6.3296  -14.7541   25.5442 C   0  0  0  0  0  0  0  0  0  0  0  0
    6.1279  -13.8410   26.5635 C   0  0  0  0  0  0  0  0  0  0  0  0
    6.6774  -12.5734   26.5107 C   0  0  0  0  0  0  0  0  0  0  0  0
    7.4333  -12.2555   25.4034 C   0  0  0  0  0  0  0  0  0  0  0  0
    7.6291  -13.1757   24.3891 C   0  0  0  0  0  0  0  0  0  0  0  0
    9.7263  -15.7016   23.9198 C   0  0  0  0  0  0  0  0  0  0  0  0
   10.7414  -14.9424   24.0148 O   0  0  0  0  0  0  0  0  0  0  0  0
   11.6435  -12.5598   27.8968 C   0  0  0  0  0  0  0  0  0  0  0  0
   10.5469  -13.7126   28.7690 S   0  0  0  0  0  0  0  0  0  0  0  0
   10.9437  -15.3837   28.1135 C   0  0  0  0  0  0  0  0  0  0  0  0
   10.2596  -15.4976   26.7941 C   0  0  0  0  0  0  0  0  0  0  0  0
   10.4993  -16.8065   26.0688 C   0  0  2  0  0  0  0  0  0  0  0  0
    9.6619  -16.7365   24.8686 N   0  0  0  0  0  0  0  0  0  0  0  0
   10.2359  -17.9984   26.8611 C   0  0  0  0  0  0  0  0  0  0  0  0
   11.0744  -18.4613   27.6797 O   0  0  0  0  0  0  0  0  0  0  0  0
    9.0427  -18.6903   26.7572 O   0  0  0  0  0  0  0  0  0  0  0  0
  1  2  1  0
  2  3  2  0
  4  5  1  0
  4  2  1  0
  5  6  1  6
  7  5  1  0
  7  8  2  0
  9  7  1  0
 10  9  1  0
 10 11  1  1
 11 12  1  0
 12 17  2  0
 13 12  1  0
 13 14  2  0
 14 15  1  0
 15 16  2  0
 17 16  1  0
 18 10  1  0
 19 18  2  0
 21 20  1  0
 22 21  1  0
 24 23  1  1
 23 22  1  0
 24 25  1  0
 25 18  1  0
 26 24  1  0
 27 26  2  0
 28 26  1  0
M  END
$$$$
