NFM.pdb
     RDKit          3D

 28 28  0  0  1  0  0  0  0  0999 V2000
   12.3752  -20.4040   19.3820 N   0  0  0  0  0  0  0  0  0  0  0  0
   11.1101  -20.1895   19.9802 C   0  0  0  0  0  0  0  0  0  0  0  0
   10.1670  -20.9485   19.6506 O   0  0  0  0  0  0  0  0  0  0  0  0
   10.9788  -19.0832   20.9575 C   0  0  0  0  0  0  0  0  0  0  0  0
    9.8465  -18.1457   20.5906 C   0  0  2  0  0  0  0  0  0  0  0  0
    9.9414  -17.6920   19.2220 N   0  0  0  0  0  0  0  0  0  0  0  0
    9.8181  -16.9798   21.5230 C   0  0  0  0  0  0  0  0  0  0  0  0
   10.8347  -16.2410   21.6879 O   0  0  0  0  0  0  0  0  0  0  0  0
    8.6652  -16.6449   22.2628 N   0  0  0  0  0  0  0  0  0  0  0  0
    8.5792  -15.5274   23.1803 C   0  0  1  0  0  0  0  0  0  0  0  0
    7.1457  -15.3349   23.6252 C   0  0  0  0  0  0  0  0  0  0  0  0
    7.0074  -14.1921   24.5644 C   0  0  0  0  0  0  0  0  0  0  0  0
    7.6022  -12.9654   24.3085 C   0  0  0  0  0  0  0  0  0  0  0  0
    7.4736  -11.9002   25.1816 C   0  0  0  0  0  0  0  0  0  0  0  0
    6.7438  -12.0142   26.3503 C   0  0  0  0  0  0  0  0  0  0  0  0
    6.1502  -13.2299   26.6112 C   0  0  0  0  0  0  0  0  0  0  0  0
    6.2848  -14.2894   25.7318 C   0  0  0  0  0  0  0  0  0  0  0  0
    9.5401  -15.7115   24.2625 C   0  0  0  0  0  0  0  0  0  0  0  0
   10.4092  -14.8084   24.4736 O   0  0  0  0  0  0  0  0  0  0  0  0
    9.8091  -14.2311   30.2022 C   0  0  0  0  0  0  0  0  0  0  0  0
    9.9271  -13.4283   28.5793 S   0  0  0  0  0  0  0  0  0  0  0  0
   10.7962  -14.6228   27.4849 C   0  0  0  0  0  0  0  0  0  0  0  0
    9.8351  -15.7292   27.2131 C   0  0  0  0  0  0  0  0  0  0  0  0
   10.3901  -16.8537   26.3623 C   0  0  2  0  0  0  0  0  0  0  0  0
    9.6058  -16.8191   25.1252 N   0  0  0  0  0  0  0  0  0  0  0  0
   10.3700  -18.1635   26.9961 C   0  0  0  0  0  0  0  0  0  0  0  0
    9.5045  -19.0346   26.7140 O   0  0  0  0  0  0  0  0  0  0  0  0
   11.3071  -18.5242   27.9475 O   0  0  0  0  0  0  0  0  0  0  0  0
  1  2  1  0
  2  3  2  0
  4  5  1  0
  4  2  1  0
  5  6  1  6
  7  5  1  0
  7  8  2  0
  9  7  1  0
 10  9  1  0
 10 11  1  1
 11 12  1  0
 12 17  2  0
 13 12  1  0
 13 14  2  0
 14 15  1  0
 15 16  2  0
 17 16  1  0
 18 10  1  0
 19 18  2  0
 21 20  1  0
 22 21  1  0
 24 23  1  1
 23 22  1  0
 24 25  1  0
 25 18  1  0
 26 24  1  0
 27 26  2  0
 28 26  1  0
M  END
$$$$
