NFM.pdb
     RDKit          3D

 28 28  0  0  1  0  0  0  0  0999 V2000
   10.4401  -20.2641   18.4156 N   0  0  0  0  0  0  0  0  0  0  0  0
   10.8335  -20.4842   19.7577 C   0  0  0  0  0  0  0  0  0  0  0  0
   11.1461  -21.6513   20.0955 O   0  0  0  0  0  0  0  0  0  0  0  0
   10.8515  -19.3235   20.6789 C   0  0  0  0  0  0  0  0  0  0  0  0
   10.1630  -18.1180   20.0717 C   0  0  2  0  0  0  0  0  0  0  0  0
   10.8386  -17.6505   18.8831 N   0  0  0  0  0  0  0  0  0  0  0  0
   10.0623  -17.0192   21.0776 C   0  0  0  0  0  0  0  0  0  0  0  0
   10.9866  -16.1628   21.2151 O   0  0  0  0  0  0  0  0  0  0  0  0
    8.9401  -16.8806   21.9203 N   0  0  0  0  0  0  0  0  0  0  0  0
    8.8030  -15.8578   22.9368 C   0  0  1  0  0  0  0  0  0  0  0  0
    7.3693  -15.3772   22.9941 C   0  0  0  0  0  0  0  0  0  0  0  0
    7.1473  -14.4343   24.1207 C   0  0  0  0  0  0  0  0  0  0  0  0
    7.6816  -13.1543   24.1127 C   0  0  0  0  0  0  0  0  0  0  0  0
    7.4751  -12.2751   25.1605 C   0  0  0  0  0  0  0  0  0  0  0  0
    6.7244  -12.6369   26.2637 C   0  0  0  0  0  0  0  0  0  0  0  0
    6.1905  -13.9070   26.2787 C   0  0  0  0  0  0  0  0  0  0  0  0
    6.4029  -14.7792   25.2259 C   0  0  0  0  0  0  0  0  0  0  0  0
    9.3371  -16.3533   24.2006 C   0  0  0  0  0  0  0  0  0  0  0  0
    8.8493  -17.4154   24.7004 O   0  0  0  0  0  0  0  0  0  0  0  0
    9.3099  -12.8347   28.4355 C   0  0  0  0  0  0  0  0  0  0  0  0
    9.6922  -14.1362   29.6406 S   0  0  0  0  0  0  0  0  0  0  0  0
   10.4391  -15.5137   28.6792 C   0  0  0  0  0  0  0  0  0  0  0  0
   10.2325  -15.1895   27.2391 C   0  0  0  0  0  0  0  0  0  0  0  0
   10.7928  -16.2146   26.2738 C   0  0  2  0  0  0  0  0  0  0  0  0
   10.3700  -15.7601   24.9466 N   0  0  0  0  0  0  0  0  0  0  0  0
   10.3930  -17.5875   26.5442 C   0  0  0  0  0  0  0  0  0  0  0  0
    9.2363  -18.0150   26.2858 O   0  0  0  0  0  0  0  0  0  0  0  0
   11.2681  -18.5022   27.1019 O   0  0  0  0  0  0  0  0  0  0  0  0
  1  2  1  0
  2  3  2  0
  4  5  1  0
  4  2  1  0
  5  6  1  6
  7  5  1  0
  7  8  2  0
  9  7  1  0
 10  9  1  0
 10 11  1  1
 11 12  1  0
 12 17  2  0
 13 12  1  0
 13 14  2  0
 14 15  1  0
 15 16  2  0
 17 16  1  0
 18 10  1  0
 19 18  2  0
 21 20  1  0
 22 21  1  0
 24 23  1  1
 23 22  1  0
 24 25  1  0
 25 18  1  0
 26 24  1  0
 27 26  2  0
 28 26  1  0
M  END
$$$$
