NFM.pdb
     RDKit          3D

 28 28  0  0  1  0  0  0  0  0999 V2000
   10.8170  -19.4483   18.0378 N   0  0  0  0  0  0  0  0  0  0  0  0
   11.1628  -18.1102   17.7310 C   0  0  0  0  0  0  0  0  0  0  0  0
   11.6838  -17.8785   16.6134 O   0  0  0  0  0  0  0  0  0  0  0  0
   10.8882  -17.0677   18.7478 C   0  0  0  0  0  0  0  0  0  0  0  0
   10.3638  -17.6688   20.0361 C   0  0  2  0  0  0  0  0  0  0  0  0
    9.0818  -18.3092   19.8521 N   0  0  0  0  0  0  0  0  0  0  0  0
   10.2732  -16.6209   21.0960 C   0  0  0  0  0  0  0  0  0  0  0  0
   11.2754  -15.9119   21.4112 O   0  0  0  0  0  0  0  0  0  0  0  0
    9.0747  -16.3697   21.7953 N   0  0  0  0  0  0  0  0  0  0  0  0
    8.9194  -15.3475   22.8097 C   0  0  1  0  0  0  0  0  0  0  0  0
    7.4679  -15.2509   23.2261 C   0  0  0  0  0  0  0  0  0  0  0  0
    7.2689  -14.2523   24.3081 C   0  0  0  0  0  0  0  0  0  0  0  0
    6.5712  -14.5646   25.4655 C   0  0  0  0  0  0  0  0  0  0  0  0
    6.3858  -13.6362   26.4741 C   0  0  0  0  0  0  0  0  0  0  0  0
    6.8904  -12.3532   26.3702 C   0  0  0  0  0  0  0  0  0  0  0  0
    7.5845  -12.0357   25.2231 C   0  0  0  0  0  0  0  0  0  0  0  0
    7.7645  -12.9712   24.2199 C   0  0  0  0  0  0  0  0  0  0  0  0
    9.8571  -15.5971   23.8991 C   0  0  0  0  0  0  0  0  0  0  0  0
   10.8420  -14.8090   24.0556 O   0  0  0  0  0  0  0  0  0  0  0  0
   10.5967  -13.7299   30.6490 C   0  0  0  0  0  0  0  0  0  0  0  0
    9.9386  -13.8261   28.9607 S   0  0  0  0  0  0  0  0  0  0  0  0
   10.6239  -15.3707   28.2368 C   0  0  0  0  0  0  0  0  0  0  0  0
   10.0907  -15.4638   26.8480 C   0  0  0  0  0  0  0  0  0  0  0  0
   10.5287  -16.6973   26.0842 C   0  0  2  0  0  0  0  0  0  0  0  0
    9.7812  -16.6517   24.8249 N   0  0  0  0  0  0  0  0  0  0  0  0
   10.3414  -17.9525   26.7962 C   0  0  0  0  0  0  0  0  0  0  0  0
    9.3359  -18.6885   26.6099 O   0  0  0  0  0  0  0  0  0  0  0  0
   11.2642  -18.4076   27.7208 O   0  0  0  0  0  0  0  0  0  0  0  0
  1  2  1  0
  2  3  2  0
  4  5  1  0
  4  2  1  0
  5  6  1  6
  7  5  1  0
  7  8  2  0
  9  7  1  0
 10  9  1  0
 10 11  1  1
 11 12  1  0
 12 17  2  0
 13 12  1  0
 13 14  2  0
 14 15  1  0
 15 16  2  0
 17 16  1  0
 18 10  1  0
 19 18  2  0
 21 20  1  0
 22 21  1  0
 24 23  1  1
 23 22  1  0
 24 25  1  0
 25 18  1  0
 26 24  1  0
 27 26  2  0
 28 26  1  0
M  END
$$$$
