NFM.pdb
     RDKit          3D

 28 28  0  0  1  0  0  0  0  0999 V2000
   11.8364  -18.9613   17.9073 N   0  0  0  0  0  0  0  0  0  0  0  0
   11.9758  -17.5651   17.7184 C   0  0  0  0  0  0  0  0  0  0  0  0
   12.5826  -17.1675   16.6948 O   0  0  0  0  0  0  0  0  0  0  0  0
   11.3970  -16.6614   18.7403 C   0  0  0  0  0  0  0  0  0  0  0  0
   10.8782  -17.4318   19.9375 C   0  0  2  0  0  0  0  0  0  0  0  0
    9.7151  -18.2235   19.6089 N   0  0  0  0  0  0  0  0  0  0  0  0
   10.5693  -16.4964   21.0597 C   0  0  0  0  0  0  0  0  0  0  0  0
   11.4197  -15.6490   21.4662 O   0  0  0  0  0  0  0  0  0  0  0  0
    9.3232  -16.5097   21.7195 N   0  0  0  0  0  0  0  0  0  0  0  0
    8.9967  -15.6863   22.8656 C   0  0  1  0  0  0  0  0  0  0  0  0
    7.5176  -15.3670   22.8662 C   0  0  0  0  0  0  0  0  0  0  0  0
    7.1221  -14.5828   24.0646 C   0  0  0  0  0  0  0  0  0  0  0  0
    6.4039  -15.1563   25.1034 C   0  0  0  0  0  0  0  0  0  0  0  0
    6.0358  -14.4278   26.2202 C   0  0  0  0  0  0  0  0  0  0  0  0
    6.3699  -13.0923   26.3481 C   0  0  0  0  0  0  0  0  0  0  0  0
    7.0833  -12.5158   25.3200 C   0  0  0  0  0  0  0  0  0  0  0  0
    7.4467  -13.2529   24.2070 C   0  0  0  0  0  0  0  0  0  0  0  0
    9.4886  -16.3267   24.0805 C   0  0  0  0  0  0  0  0  0  0  0  0
    9.5300  -17.5961   24.1333 O   0  0  0  0  0  0  0  0  0  0  0  0
    9.9065  -12.9730   29.1237 C   0  0  0  0  0  0  0  0  0  0  0  0
   10.9294  -14.2327   29.9358 S   0  0  0  0  0  0  0  0  0  0  0  0
   10.8387  -15.7256   28.8668 C   0  0  0  0  0  0  0  0  0  0  0  0
   10.5119  -15.2472   27.4934 C   0  0  0  0  0  0  0  0  0  0  0  0
   10.3743  -16.3451   26.4579 C   0  0  2  0  0  0  0  0  0  0  0  0
    9.9379  -15.6645   25.2359 N   0  0  0  0  0  0  0  0  0  0  0  0
    9.4832  -17.4313   26.8371 C   0  0  0  0  0  0  0  0  0  0  0  0
    9.8908  -18.4528   27.4518 O   0  0  0  0  0  0  0  0  0  0  0  0
    8.1323  -17.3990   26.5416 O   0  0  0  0  0  0  0  0  0  0  0  0
  1  2  1  0
  2  3  2  0
  4  5  1  0
  4  2  1  0
  5  6  1  6
  7  5  1  0
  7  8  2  0
  9  7  1  0
 10  9  1  0
 10 11  1  1
 11 12  1  0
 12 17  2  0
 13 12  1  0
 13 14  2  0
 14 15  1  0
 15 16  2  0
 17 16  1  0
 18 10  1  0
 19 18  2  0
 21 20  1  0
 22 21  1  0
 24 23  1  1
 23 22  1  0
 24 25  1  0
 25 18  1  0
 26 24  1  0
 27 26  2  0
 28 26  1  0
M  END
$$$$
