NFM.pdb
     RDKit          3D

 28 28  0  0  1  0  0  0  0  0999 V2000
    9.1411  -17.0734   15.7010 N   0  0  0  0  0  0  0  0  0  0  0  0
   10.1120  -17.2252   16.7201 C   0  0  0  0  0  0  0  0  0  0  0  0
   11.0167  -18.0775   16.5488 O   0  0  0  0  0  0  0  0  0  0  0  0
    9.9993  -16.3691   17.9245 C   0  0  0  0  0  0  0  0  0  0  0  0
   10.0315  -17.1897   19.1978 C   0  0  2  0  0  0  0  0  0  0  0  0
    8.9779  -18.1778   19.2316 N   0  0  0  0  0  0  0  0  0  0  0  0
    9.9435  -16.2962   20.3909 C   0  0  0  0  0  0  0  0  0  0  0  0
   10.7749  -15.3574   20.5757 O   0  0  0  0  0  0  0  0  0  0  0  0
    8.9369  -16.4517   21.3661 N   0  0  0  0  0  0  0  0  0  0  0  0
    8.8026  -15.6169   22.5422 C   0  0  1  0  0  0  0  0  0  0  0  0
    7.3588  -15.1981   22.7148 C   0  0  0  0  0  0  0  0  0  0  0  0
    7.1566  -14.4121   23.9593 C   0  0  0  0  0  0  0  0  0  0  0  0
    6.5599  -14.9686   25.0810 C   0  0  0  0  0  0  0  0  0  0  0  0
    6.3718  -14.2383   26.2407 C   0  0  0  0  0  0  0  0  0  0  0  0
    6.7724  -12.9181   26.3304 C   0  0  0  0  0  0  0  0  0  0  0  0
    7.3658  -12.3586   25.2200 C   0  0  0  0  0  0  0  0  0  0  0  0
    7.5494  -13.0972   24.0647 C   0  0  0  0  0  0  0  0  0  0  0  0
    9.3875  -16.2985   23.6917 C   0  0  0  0  0  0  0  0  0  0  0  0
    8.8206  -17.3438   24.1410 O   0  0  0  0  0  0  0  0  0  0  0  0
   10.6295  -12.7702   28.8628 C   0  0  0  0  0  0  0  0  0  0  0  0
    9.4530  -14.1494   28.9412 S   0  0  0  0  0  0  0  0  0  0  0  0
   10.2688  -15.5605   28.0910 C   0  0  0  0  0  0  0  0  0  0  0  0
   10.1498  -15.3031   26.6277 C   0  0  0  0  0  0  0  0  0  0  0  0
   10.8720  -16.3046   25.7490 C   0  0  2  0  0  0  0  0  0  0  0  0
   10.5516  -15.9079   24.3754 N   0  0  0  0  0  0  0  0  0  0  0  0
   10.5433  -17.6969   26.0161 C   0  0  0  0  0  0  0  0  0  0  0  0
    9.3662  -18.1385   25.9331 O   0  0  0  0  0  0  0  0  0  0  0  0
   11.5127  -18.6155   26.3765 O   0  0  0  0  0  0  0  0  0  0  0  0
  1  2  1  0
  2  3  2  0
  4  5  1  0
  4  2  1  0
  5  6  1  6
  7  5  1  0
  7  8  2  0
  9  7  1  0
 10  9  1  0
 10 11  1  1
 11 12  1  0
 12 17  2  0
 13 12  1  0
 13 14  2  0
 14 15  1  0
 15 16  2  0
 17 16  1  0
 18 10  1  0
 19 18  2  0
 21 20  1  0
 22 21  1  0
 24 23  1  1
 23 22  1  0
 24 25  1  0
 25 18  1  0
 26 24  1  0
 27 26  2  0
 28 26  1  0
M  END
$$$$
