NFM.pdb
     RDKit          3D

 28 28  0  0  1  0  0  0  0  0999 V2000
   10.9187  -17.0305   16.1567 N   0  0  0  0  0  0  0  0  0  0  0  0
   11.7021  -17.3356   17.2958 C   0  0  0  0  0  0  0  0  0  0  0  0
   12.5265  -18.2773   17.2079 O   0  0  0  0  0  0  0  0  0  0  0  0
   11.4999  -16.5246   18.5195 C   0  0  0  0  0  0  0  0  0  0  0  0
   10.9042  -17.3483   19.6431 C   0  0  2  0  0  0  0  0  0  0  0  0
    9.6762  -17.9977   19.2459 N   0  0  0  0  0  0  0  0  0  0  0  0
   10.6738  -16.4929   20.8450 C   0  0  0  0  0  0  0  0  0  0  0  0
   11.5956  -15.7685   21.3267 O   0  0  0  0  0  0  0  0  0  0  0  0
    9.4260  -16.4489   21.5005 N   0  0  0  0  0  0  0  0  0  0  0  0
    9.1262  -15.5935   22.6303 C   0  0  1  0  0  0  0  0  0  0  0  0
    7.6526  -15.2501   22.6401 C   0  0  0  0  0  0  0  0  0  0  0  0
    7.2992  -14.3644   23.7795 C   0  0  0  0  0  0  0  0  0  0  0  0
    6.7254  -14.8658   24.9385 C   0  0  0  0  0  0  0  0  0  0  0  0
    6.3967  -14.0426   26.0004 C   0  0  0  0  0  0  0  0  0  0  0  0
    6.6274  -12.6804   25.9508 C   0  0  0  0  0  0  0  0  0  0  0  0
    7.1971  -12.1751   24.8025 C   0  0  0  0  0  0  0  0  0  0  0  0
    7.5222  -13.0066   23.7456 C   0  0  0  0  0  0  0  0  0  0  0  0
    9.6220  -16.2130   23.8545 C   0  0  0  0  0  0  0  0  0  0  0  0
    9.6258  -17.4809   23.9443 O   0  0  0  0  0  0  0  0  0  0  0  0
   11.0091  -12.6690   28.9411 C   0  0  0  0  0  0  0  0  0  0  0  0
   10.4472  -14.1684   29.7946 S   0  0  0  0  0  0  0  0  0  0  0  0
   10.8138  -15.5661   28.6580 C   0  0  0  0  0  0  0  0  0  0  0  0
   10.3977  -15.1279   27.2954 C   0  0  0  0  0  0  0  0  0  0  0  0
   10.5358  -16.1879   26.2211 C   0  0  2  0  0  0  0  0  0  0  0  0
   10.1137  -15.5315   24.9810 N   0  0  0  0  0  0  0  0  0  0  0  0
    9.7979  -17.4154   26.4787 C   0  0  0  0  0  0  0  0  0  0  0  0
    8.5451  -17.4844   26.3637 O   0  0  0  0  0  0  0  0  0  0  0  0
   10.4374  -18.5795   26.8652 O   0  0  0  0  0  0  0  0  0  0  0  0
  1  2  1  0
  2  3  2  0
  4  5  1  0
  4  2  1  0
  5  6  1  6
  7  5  1  0
  7  8  2  0
  9  7  1  0
 10  9  1  0
 10 11  1  1
 11 12  1  0
 12 17  2  0
 13 12  1  0
 13 14  2  0
 14 15  1  0
 15 16  2  0
 17 16  1  0
 18 10  1  0
 19 18  2  0
 21 20  1  0
 22 21  1  0
 24 23  1  1
 23 22  1  0
 24 25  1  0
 25 18  1  0
 26 24  1  0
 27 26  2  0
 28 26  1  0
M  END
$$$$
