NFM.pdb
     RDKit          3D

 28 28  0  0  1  0  0  0  0  0999 V2000
   11.3182  -20.8648   18.8931 N   0  0  0  0  0  0  0  0  0  0  0  0
   10.2184  -20.1567   19.4349 C   0  0  0  0  0  0  0  0  0  0  0  0
    9.0637  -20.5640   19.1612 O   0  0  0  0  0  0  0  0  0  0  0  0
   10.4994  -18.9798   20.2905 C   0  0  0  0  0  0  0  0  0  0  0  0
    9.7335  -17.7572   19.8274 C   0  0  2  0  0  0  0  0  0  0  0  0
   10.2196  -17.2620   18.5601 N   0  0  0  0  0  0  0  0  0  0  0  0
    9.7982  -16.6837   20.8633 C   0  0  0  0  0  0  0  0  0  0  0  0
   10.8095  -15.9269   20.9680 O   0  0  0  0  0  0  0  0  0  0  0  0
    8.7432  -16.4602   21.7719 N   0  0  0  0  0  0  0  0  0  0  0  0
    8.7409  -15.4218   22.7818 C   0  0  1  0  0  0  0  0  0  0  0  0
    7.3387  -14.8829   22.9638 C   0  0  0  0  0  0  0  0  0  0  0  0
    7.2568  -13.9278   24.0989 C   0  0  0  0  0  0  0  0  0  0  0  0
    6.5945  -14.2510   25.2739 C   0  0  0  0  0  0  0  0  0  0  0  0
    6.5182  -13.3631   26.3319 C   0  0  0  0  0  0  0  0  0  0  0  0
    7.1015  -12.1116   26.2620 C   0  0  0  0  0  0  0  0  0  0  0  0
    7.7611  -11.7834   25.0976 C   0  0  0  0  0  0  0  0  0  0  0  0
    7.8317  -12.6784   24.0450 C   0  0  0  0  0  0  0  0  0  0  0  0
    9.3696  -15.9251   23.9983 C   0  0  0  0  0  0  0  0  0  0  0  0
    8.8075  -16.8706   24.6353 O   0  0  0  0  0  0  0  0  0  0  0  0
    9.8749  -13.0642   28.8158 C   0  0  0  0  0  0  0  0  0  0  0  0
    9.7092  -14.7571   29.4476 S   0  0  0  0  0  0  0  0  0  0  0  0
   10.6386  -15.8280   28.2775 C   0  0  0  0  0  0  0  0  0  0  0  0
   10.3271  -15.3325   26.9067 C   0  0  0  0  0  0  0  0  0  0  0  0
   11.1516  -15.9649   25.8036 C   0  0  2  0  0  0  0  0  0  0  0  0
   10.5723  -15.4591   24.5564 N   0  0  0  0  0  0  0  0  0  0  0  0
   11.2058  -17.4186   25.8413 C   0  0  0  0  0  0  0  0  0  0  0  0
   12.1582  -18.0429   26.3805 O   0  0  0  0  0  0  0  0  0  0  0  0
   10.2073  -18.1971   25.2842 O   0  0  0  0  0  0  0  0  0  0  0  0
  1  2  1  0
  2  3  2  0
  4  5  1  0
  4  2  1  0
  5  6  1  6
  7  5  1  0
  7  8  2  0
  9  7  1  0
 10  9  1  0
 10 11  1  1
 11 12  1  0
 12 17  2  0
 13 12  1  0
 13 14  2  0
 14 15  1  0
 15 16  2  0
 17 16  1  0
 18 10  1  0
 19 18  2  0
 21 20  1  0
 22 21  1  0
 24 23  1  1
 23 22  1  0
 24 25  1  0
 25 18  1  0
 26 24  1  0
 27 26  2  0
 28 26  1  0
M  END
$$$$
