NFM.pdb
     RDKit          3D

 28 28  0  0  1  0  0  0  0  0999 V2000
    9.7271  -16.5844   16.2430 N   0  0  0  0  0  0  0  0  0  0  0  0
   10.7553  -17.0831   17.0786 C   0  0  0  0  0  0  0  0  0  0  0  0
   11.3884  -18.0953   16.6926 O   0  0  0  0  0  0  0  0  0  0  0  0
   11.0196  -16.3794   18.3558 C   0  0  0  0  0  0  0  0  0  0  0  0
   10.6137  -17.2188   19.5501 C   0  0  2  0  0  0  0  0  0  0  0  0
    9.4487  -18.0272   19.2727 N   0  0  0  0  0  0  0  0  0  0  0  0
   10.3689  -16.3456   20.7364 C   0  0  0  0  0  0  0  0  0  0  0  0
   11.2662  -15.5684   21.1808 O   0  0  0  0  0  0  0  0  0  0  0  0
    9.1342  -16.3425   21.4175 N   0  0  0  0  0  0  0  0  0  0  0  0
    8.8650  -15.5770   22.6174 C   0  0  1  0  0  0  0  0  0  0  0  0
    7.3955  -15.2221   22.6835 C   0  0  0  0  0  0  0  0  0  0  0  0
    7.0820  -14.3853   23.8704 C   0  0  0  0  0  0  0  0  0  0  0  0
    7.4612  -13.0529   23.9405 C   0  0  0  0  0  0  0  0  0  0  0  0
    7.1693  -12.2723   25.0445 C   0  0  0  0  0  0  0  0  0  0  0  0
    6.4846  -12.7896   26.1285 C   0  0  0  0  0  0  0  0  0  0  0  0
    6.1048  -14.1126   26.0660 C   0  0  0  0  0  0  0  0  0  0  0  0
    6.4016  -14.8852   24.9574 C   0  0  0  0  0  0  0  0  0  0  0  0
    9.3772  -16.2966   23.7785 C   0  0  0  0  0  0  0  0  0  0  0  0
    9.8699  -17.4569   23.6150 O   0  0  0  0  0  0  0  0  0  0  0  0
   10.7831  -12.6833   29.0081 C   0  0  0  0  0  0  0  0  0  0  0  0
   10.5865  -14.3348   29.7337 S   0  0  0  0  0  0  0  0  0  0  0  0
   11.0832  -15.5260   28.4245 C   0  0  0  0  0  0  0  0  0  0  0  0
   10.1924  -15.2718   27.2567 C   0  0  0  0  0  0  0  0  0  0  0  0
   10.3164  -16.2835   26.1352 C   0  0  2  0  0  0  0  0  0  0  0  0
    9.3845  -15.8242   25.1021 N   0  0  0  0  0  0  0  0  0  0  0  0
   10.0722  -17.6628   26.5300 C   0  0  0  0  0  0  0  0  0  0  0  0
    8.9359  -18.1989   26.4351 O   0  0  0  0  0  0  0  0  0  0  0  0
   11.0817  -18.4638   27.0327 O   0  0  0  0  0  0  0  0  0  0  0  0
  1  2  1  0
  2  3  2  0
  4  5  1  0
  4  2  1  0
  5  6  1  6
  7  5  1  0
  7  8  2  0
  9  7  1  0
 10  9  1  0
 10 11  1  1
 11 12  1  0
 12 17  2  0
 13 12  1  0
 13 14  2  0
 14 15  1  0
 15 16  2  0
 17 16  1  0
 18 10  1  0
 19 18  2  0
 21 20  1  0
 22 21  1  0
 24 23  1  1
 23 22  1  0
 24 25  1  0
 25 18  1  0
 26 24  1  0
 27 26  2  0
 28 26  1  0
M  END
$$$$
