TKE.pdb
     RDKit          3D

 26 25  0  0  1  0  0  0  0  0999 V2000
   29.7281  -19.9719  -18.9528 C   0  0  0  0  0  0  0  0  0  0  0  0
   28.5321  -19.3596  -18.2534 C   0  0  1  0  0  0  0  0  0  0  0  0
   27.6759  -18.9564  -19.3167 O   0  0  0  0  0  0  0  0  0  0  0  0
   27.7477  -20.4007  -17.4449 C   0  0  2  0  0  0  0  0  0  0  0  0
   27.0812  -21.2584  -18.4470 N   0  0  0  0  0  0  0  0  0  0  0  0
   26.6508  -19.8099  -16.6542 C   0  0  0  0  0  0  0  0  0  0  0  0
   26.8886  -19.0075  -15.7068 O   0  0  0  0  0  0  0  0  0  0  0  0
   25.2514  -20.0648  -16.8645 N   0  0  0  0  0  0  0  0  0  0  0  0
   24.2448  -19.6033  -15.9556 C   0  0  1  0  0  0  0  0  0  0  0  0
   23.2236  -18.7808  -16.7677 C   0  0  0  0  0  0  0  0  0  0  0  0
   23.1565  -19.2768  -18.1790 C   0  0  0  0  0  0  0  0  0  0  0  0
   22.2231  -18.4341  -18.9765 C   0  0  0  0  0  0  0  0  0  0  0  0
   21.9883  -18.9680  -20.3693 C   0  0  0  0  0  0  0  0  0  0  0  0
   21.0126  -18.0789  -20.9858 N   0  0  0  0  0  0  0  0  0  0  0  0
   23.5519  -20.6655  -15.1842 C   0  0  0  0  0  0  0  0  0  0  0  0
   22.4792  -21.1491  -15.6394 O   0  0  0  0  0  0  0  0  0  0  0  0
   24.0137  -21.1822  -13.9577 N   0  0  0  0  0  0  0  0  0  0  0  0
   23.3750  -21.3205  -12.7203 C   0  0  1  0  0  0  0  0  0  0  0  0
   24.1247  -20.9130  -11.5065 C   0  0  0  0  0  0  0  0  0  0  0  0
   23.4044  -21.2684  -10.2338 C   0  0  0  0  0  0  0  0  0  0  0  0
   24.1981  -20.9155   -9.0382 C   0  0  0  0  0  0  0  0  0  0  0  0
   25.2585  -20.2510   -9.0956 O   0  0  0  0  0  0  0  0  0  0  0  0
   21.9640  -20.8674  -12.6506 C   0  0  0  0  0  0  0  0  0  0  0  0
   21.6667  -19.5396  -12.8886 O   0  0  0  0  0  0  0  0  0  0  0  0
   23.7609  -21.3323   -7.7936 O   0  0  0  0  0  0  0  0  0  0  0  0
   21.0462  -21.6447  -12.3855 O   0  0  0  0  0  0  0  0  0  0  0  0
  2  3  1  0
  2  1  1  6
  4  2  1  0
  4  5  1  6
  6  4  1  0
  7  6  2  0
  8  6  1  0
  9 10  1  6
  9  8  1  0
 11 10  1  0
 11 12  1  0
 13 14  1  0
 13 12  1  0
 15  9  1  0
 16 15  2  0
 17 15  1  0
 18 17  1  0
 19 20  1  0
 18 19  1  1
 20 21  1  0
 21 25  1  0
 21 22  2  0
 23 18  1  0
 23 24  1  0
 26 23  2  0
M  END
$$$$
