TKE.pdb
     RDKit          3D

 26 25  0  0  1  0  0  0  0  0999 V2000
   16.4540  -10.1849  -14.8507 C   0  0  0  0  0  0  0  0  0  0  0  0
   16.7245  -11.3428  -13.9122 C   0  0  1  0  0  0  0  0  0  0  0  0
   17.9913  -11.0378  -13.3393 O   0  0  0  0  0  0  0  0  0  0  0  0
   15.7269  -11.3800  -12.7477 C   0  0  2  0  0  0  0  0  0  0  0  0
   14.4175  -11.6889  -13.3593 N   0  0  0  0  0  0  0  0  0  0  0  0
   15.5479  -10.0665  -12.0994 C   0  0  0  0  0  0  0  0  0  0  0  0
   15.1383   -9.0662  -12.7549 O   0  0  0  0  0  0  0  0  0  0  0  0
   15.8035   -9.7891  -10.7119 N   0  0  0  0  0  0  0  0  0  0  0  0
   15.6409   -8.4810  -10.1509 C   0  0  1  0  0  0  0  0  0  0  0  0
   14.7318   -8.6134   -8.9120 C   0  0  0  0  0  0  0  0  0  0  0  0
   13.2904   -8.5377   -9.3107 C   0  0  0  0  0  0  0  0  0  0  0  0
   12.4210   -8.5501   -8.1018 C   0  0  0  0  0  0  0  0  0  0  0  0
   10.9486   -8.4960   -8.4321 C   0  0  0  0  0  0  0  0  0  0  0  0
   10.2445   -8.5483   -7.1576 N   0  0  0  0  0  0  0  0  0  0  0  0
   16.9014   -7.7843   -9.7910 C   0  0  0  0  0  0  0  0  0  0  0  0
   17.9052   -8.4721   -9.4579 O   0  0  0  0  0  0  0  0  0  0  0  0
   17.0608   -6.3846   -9.7944 N   0  0  0  0  0  0  0  0  0  0  0  0
   18.2068   -5.5909   -9.9175 C   0  0  1  0  0  0  0  0  0  0  0  0
   19.2410   -6.0173  -10.8923 C   0  0  0  0  0  0  0  0  0  0  0  0
   20.3905   -5.0498  -10.9781 C   0  0  0  0  0  0  0  0  0  0  0  0
   21.4426   -5.5292  -11.8986 C   0  0  0  0  0  0  0  0  0  0  0  0
   21.8828   -6.7019  -11.8792 O   0  0  0  0  0  0  0  0  0  0  0  0
   17.9914   -4.1242   -9.9785 C   0  0  0  0  0  0  0  0  0  0  0  0
   16.9732   -3.6215  -10.7649 O   0  0  0  0  0  0  0  0  0  0  0  0
   21.9733   -4.6529  -12.8282 O   0  0  0  0  0  0  0  0  0  0  0  0
   18.6978   -3.3388   -9.3453 O   0  0  0  0  0  0  0  0  0  0  0  0
  2  3  1  0
  2  1  1  6
  4  2  1  0
  4  5  1  6
  6  4  1  0
  7  6  2  0
  8  6  1  0
  9 10  1  1
  9  8  1  0
 11 10  1  0
 11 12  1  0
 13 14  1  0
 13 12  1  0
 15  9  1  0
 16 15  2  0
 17 15  1  0
 18 17  1  0
 19 20  1  0
 18 19  1  6
 20 21  1  0
 21 25  1  0
 21 22  2  0
 23 18  1  0
 23 24  1  0
 26 23  2  0
M  END
$$$$
