TKE.pdb
     RDKit          3D

 26 25  0  0  1  0  0  0  0  0999 V2000
13769.363326271.1113-49106.4883 C   0  0  0  0  0  0  0  0  0  0  0  0
13768.605526271.7676-49107.6367 C   0  0  1  0  0  0  0  0  0  0  0  0
13769.162126271.1738-49108.7969 O   0  0  0  0  0  0  0  0  0  0  0  0
13767.117226271.4004-49107.6289 C   0  0  2  0  0  0  0  0  0  0  0  0
13766.667026271.5859-49106.2344 N   0  0  0  0  0  0  0  0  0  0  0  0
13766.878926269.9727-49107.9219 C   0  0  0  0  0  0  0  0  0  0  0  0
13767.200226269.4707-49109.0352 O   0  0  0  0  0  0  0  0  0  0  0  0
13766.278326269.0312-49107.0156 N   0  0  0  0  0  0  0  0  0  0  0  0
13766.916026267.7969-49106.6562 C   0  0  1  0  0  0  0  0  0  0  0  0
13765.810526266.7676-49106.3867 C   0  0  0  0  0  0  0  0  0  0  0  0
13764.575226267.1055-49107.1562 C   0  0  0  0  0  0  0  0  0  0  0  0
13763.974626265.8711-49107.7305 C   0  0  0  0  0  0  0  0  0  0  0  0
13764.764626265.3164-49108.9102 C   0  0  0  0  0  0  0  0  0  0  0  0
13764.936526263.8965-49108.6484 N   0  0  0  0  0  0  0  0  0  0  0  0
13767.884826267.2734-49107.6484 C   0  0  0  0  0  0  0  0  0  0  0  0
13767.930726267.8047-49108.7891 O   0  0  0  0  0  0  0  0  0  0  0  0
13768.772526266.2012-49107.3984 N   0  0  0  0  0  0  0  0  0  0  0  0
13770.161126266.1152-49107.5391 C   0  0  1  0  0  0  0  0  0  0  0  0
13770.918926267.3770-49107.7383 C   0  0  0  0  0  0  0  0  0  0  0  0
13770.104526268.5957-49107.4102 C   0  0  0  0  0  0  0  0  0  0  0  0
13770.948226269.8105-49107.3516 C   0  0  0  0  0  0  0  0  0  0  0  0
13772.031226269.9277-49107.9688 O   0  0  0  0  0  0  0  0  0  0  0  0
13770.860426265.2207-49106.5781 C   0  0  0  0  0  0  0  0  0  0  0  0
13771.159226265.6836-49105.3164 O   0  0  0  0  0  0  0  0  0  0  0  0
13770.520526270.8789-49106.5742 O   0  0  0  0  0  0  0  0  0  0  0  0
13771.187526264.0684-49106.8828 O   0  0  0  0  0  0  0  0  0  0  0  0
  2  3  1  0
  2  1  1  1
  4  2  1  0
  4  5  1  1
  6  4  1  0
  7  6  2  0
  8  6  1  0
  9 10  1  6
  9  8  1  0
 11 10  1  0
 11 12  1  0
 13 14  1  0
 13 12  1  0
 15  9  1  0
 16 15  2  0
 17 15  1  0
 18 17  1  0
 19 20  1  0
 18 19  1  1
 20 21  1  0
 21 25  1  0
 21 22  2  0
 23 18  1  0
 23 24  1  0
 26 23  2  0
M  END
$$$$
