TKE.pdb
     RDKit          3D

 26 25  0  0  1  0  0  0  0  0999 V2000
   16.4400  -14.8457  -11.5835 C   0  0  0  0  0  0  0  0  0  0  0  0
   16.4238  -13.3513  -11.8306 C   0  0  1  0  0  0  0  0  0  0  0  0
   16.3139  -13.2335  -13.2449 O   0  0  0  0  0  0  0  0  0  0  0  0
   15.1689  -12.6889  -11.2481 C   0  0  2  0  0  0  0  0  0  0  0  0
   14.0418  -13.1998  -12.0559 N   0  0  0  0  0  0  0  0  0  0  0  0
   15.1472  -11.2259  -11.4399 C   0  0  0  0  0  0  0  0  0  0  0  0
   14.7351  -10.7160  -12.5207 O   0  0  0  0  0  0  0  0  0  0  0  0
   15.5689  -10.2589  -10.4630 N   0  0  0  0  0  0  0  0  0  0  0  0
   15.5499   -8.8503  -10.7233 C   0  0  1  0  0  0  0  0  0  0  0  0
   14.8020   -8.1699   -9.5587 C   0  0  0  0  0  0  0  0  0  0  0  0
   13.3417   -8.4966   -9.6130 C   0  0  0  0  0  0  0  0  0  0  0  0
   12.6225   -7.8255   -8.4951 C   0  0  0  0  0  0  0  0  0  0  0  0
   11.1609   -8.1980   -8.4244 C   0  0  0  0  0  0  0  0  0  0  0  0
   10.6055   -7.4520   -7.3030 N   0  0  0  0  0  0  0  0  0  0  0  0
   16.8815   -8.2229  -10.9151 C   0  0  0  0  0  0  0  0  0  0  0  0
   17.7859   -8.4376  -10.0620 O   0  0  0  0  0  0  0  0  0  0  0  0
   17.2148   -7.3895  -12.0009 N   0  0  0  0  0  0  0  0  0  0  0  0
   18.4214   -6.7713  -12.3479 C   0  0  1  0  0  0  0  0  0  0  0  0
   19.4684   -7.6083  -12.9842 C   0  0  0  0  0  0  0  0  0  0  0  0
   20.7507   -6.8554  -13.2159 C   0  0  0  0  0  0  0  0  0  0  0  0
   21.7711   -7.6999  -13.8713 C   0  0  0  0  0  0  0  0  0  0  0  0
   21.9737   -8.8946  -13.5536 O   0  0  0  0  0  0  0  0  0  0  0  0
   18.3191   -5.4499  -13.0147 C   0  0  0  0  0  0  0  0  0  0  0  0
   19.4030   -4.5940  -12.9912 O   0  0  0  0  0  0  0  0  0  0  0  0
   22.5441   -7.1580  -14.8826 O   0  0  0  0  0  0  0  0  0  0  0  0
   17.2909   -5.0930  -13.5910 O   0  0  0  0  0  0  0  0  0  0  0  0
  2  3  1  0
  2  1  1  6
  4  2  1  0
  4  5  1  6
  6  4  1  0
  7  6  2  0
  8  6  1  0
  9 10  1  1
  9  8  1  0
 11 10  1  0
 11 12  1  0
 13 14  1  0
 13 12  1  0
 15  9  1  0
 16 15  2  0
 17 15  1  0
 18 17  1  0
 19 20  1  0
 18 19  1  6
 20 21  1  0
 21 25  1  0
 21 22  2  0
 23 18  1  0
 23 24  1  0
 26 23  2  0
M  END
$$$$
