TKE.pdb
     RDKit          3D

 26 25  0  0  1  0  0  0  0  0999 V2000
   26.4956  -14.4151  -15.4932 C   0  0  0  0  0  0  0  0  0  0  0  0
   25.5484  -13.2427  -15.6450 C   0  0  1  0  0  0  0  0  0  0  0  0
   26.2387  -12.3474  -16.5099 O   0  0  0  0  0  0  0  0  0  0  0  0
   24.2614  -13.6388  -16.3795 C   0  0  2  0  0  0  0  0  0  0  0  0
   24.6908  -14.0600  -17.7293 N   0  0  0  0  0  0  0  0  0  0  0  0
   23.3515  -12.4989  -16.6039 C   0  0  0  0  0  0  0  0  0  0  0  0
   23.3726  -11.8516  -17.6895 O   0  0  0  0  0  0  0  0  0  0  0  0
   22.3797  -12.0199  -15.6586 N   0  0  0  0  0  0  0  0  0  0  0  0
   21.5047  -10.9237  -15.9503 C   0  0  1  0  0  0  0  0  0  0  0  0
   20.0554  -11.4339  -15.8155 C   0  0  0  0  0  0  0  0  0  0  0  0
   19.7238  -12.3691  -16.9371 C   0  0  0  0  0  0  0  0  0  0  0  0
   18.3526  -12.9214  -16.7578 C   0  0  0  0  0  0  0  0  0  0  0  0
   17.9398  -13.8519  -17.8731 C   0  0  0  0  0  0  0  0  0  0  0  0
   16.6681  -14.4346  -17.4660 N   0  0  0  0  0  0  0  0  0  0  0  0
   21.7033   -9.7138  -15.1134 C   0  0  0  0  0  0  0  0  0  0  0  0
   21.8263   -9.8488  -13.8651 O   0  0  0  0  0  0  0  0  0  0  0  0
   21.7654   -8.4014  -15.6216 N   0  0  0  0  0  0  0  0  0  0  0  0
   21.9119   -7.1707  -14.9718 C   0  0  1  0  0  0  0  0  0  0  0  0
   22.0212   -5.9538  -15.8137 C   0  0  0  0  0  0  0  0  0  0  0  0
   22.2856   -4.7120  -15.0057 C   0  0  0  0  0  0  0  0  0  0  0  0
   22.3475   -3.5064  -15.8583 C   0  0  0  0  0  0  0  0  0  0  0  0
   22.4267   -2.3459  -15.3933 O   0  0  0  0  0  0  0  0  0  0  0  0
   21.0296   -6.9312  -13.8033 C   0  0  0  0  0  0  0  0  0  0  0  0
   19.6696   -7.1377  -13.9281 O   0  0  0  0  0  0  0  0  0  0  0  0
   22.3171   -3.6530  -17.2335 O   0  0  0  0  0  0  0  0  0  0  0  0
   21.4774   -6.5518  -12.7205 O   0  0  0  0  0  0  0  0  0  0  0  0
  2  3  1  0
  2  1  1  6
  4  2  1  0
  4  5  1  6
  6  4  1  0
  7  6  2  0
  8  6  1  0
  9 10  1  1
  9  8  1  0
 11 10  1  0
 11 12  1  0
 13 14  1  0
 13 12  1  0
 15  9  1  0
 16 15  2  0
 17 15  1  0
 18 17  1  0
 19 20  1  0
 18 19  1  6
 20 21  1  0
 21 25  1  0
 21 22  2  0
 23 18  1  0
 23 24  1  0
 26 23  2  0
M  END
$$$$
