TKE.pdb
     RDKit          3D

 26 25  0  0  1  0  0  0  0  0999 V2000
   18.4971   -8.9022  -18.4910 C   0  0  0  0  0  0  0  0  0  0  0  0
   17.8879   -9.5158  -17.2473 C   0  0  1  0  0  0  0  0  0  0  0  0
   16.6868  -10.1227  -17.7111 O   0  0  0  0  0  0  0  0  0  0  0  0
   18.7526  -10.6527  -16.6882 C   0  0  2  0  0  0  0  0  0  0  0  0
   17.9984  -11.1931  -15.5379 N   0  0  0  0  0  0  0  0  0  0  0  0
   20.0307  -10.1802  -16.1219 C   0  0  0  0  0  0  0  0  0  0  0  0
   20.0563   -9.4454  -15.0935 O   0  0  0  0  0  0  0  0  0  0  0  0
   21.3320  -10.4907  -16.6488 N   0  0  0  0  0  0  0  0  0  0  0  0
   22.5229   -9.8548  -16.1695 C   0  0  1  0  0  0  0  0  0  0  0  0
   23.7259  -10.6893  -16.6544 C   0  0  0  0  0  0  0  0  0  0  0  0
   25.0035  -10.1320  -16.1074 C   0  0  0  0  0  0  0  0  0  0  0  0
   26.1519  -10.9926  -16.5048 C   0  0  0  0  0  0  0  0  0  0  0  0
   27.4672  -10.5263  -15.9280 C   0  0  0  0  0  0  0  0  0  0  0  0
   28.4932  -11.3764  -16.5175 N   0  0  0  0  0  0  0  0  0  0  0  0
   22.6882   -8.4347  -16.5692 C   0  0  0  0  0  0  0  0  0  0  0  0
   22.7421   -8.1486  -17.7969 O   0  0  0  0  0  0  0  0  0  0  0  0
   22.7914   -7.3635  -15.6602 N   0  0  0  0  0  0  0  0  0  0  0  0
   22.7998   -5.9797  -15.8684 C   0  0  1  0  0  0  0  0  0  0  0  0
   21.5231   -5.3322  -16.2588 C   0  0  0  0  0  0  0  0  0  0  0  0
   21.6836   -3.8648  -16.5523 C   0  0  0  0  0  0  0  0  0  0  0  0
   20.4057   -3.2448  -16.9606 C   0  0  0  0  0  0  0  0  0  0  0  0
   20.2948   -2.5146  -17.9724 O   0  0  0  0  0  0  0  0  0  0  0  0
   23.5233   -5.1643  -14.8619 C   0  0  0  0  0  0  0  0  0  0  0  0
   24.0167   -3.9254  -15.2222 O   0  0  0  0  0  0  0  0  0  0  0  0
   19.2736   -3.4735  -16.1991 O   0  0  0  0  0  0  0  0  0  0  0  0
   23.6972   -5.5623  -13.7095 O   0  0  0  0  0  0  0  0  0  0  0  0
  2  3  1  0
  2  1  1  6
  4  2  1  0
  4  5  1  1
  6  4  1  0
  7  6  2  0
  8  6  1  0
  9 10  1  6
  9  8  1  0
 11 10  1  0
 11 12  1  0
 13 14  1  0
 13 12  1  0
 15  9  1  0
 16 15  2  0
 17 15  1  0
 18 17  1  0
 19 20  1  0
 18 19  1  1
 20 21  1  0
 21 25  1  0
 21 22  2  0
 23 18  1  0
 23 24  1  0
 26 23  2  0
M  END
$$$$
