TKE.pdb
     RDKit          3D

 26 25  0  0  1  0  0  0  0  0999 V2000
   27.2126  -11.2160  -15.1567 C   0  0  0  0  0  0  0  0  0  0  0  0
   27.1600  -12.0611  -16.4127 C   0  0  1  0  0  0  0  0  0  0  0  0
   28.2009  -13.0154  -16.2339 O   0  0  0  0  0  0  0  0  0  0  0  0
   25.8564  -12.8637  -16.5077 C   0  0  2  0  0  0  0  0  0  0  0  0
   25.9885  -13.6883  -17.7271 N   0  0  0  0  0  0  0  0  0  0  0  0
   24.6725  -12.0151  -16.7441 C   0  0  0  0  0  0  0  0  0  0  0  0
   24.5655  -11.3239  -17.7971 O   0  0  0  0  0  0  0  0  0  0  0  0
   23.5563  -11.8871  -15.8469 N   0  0  0  0  0  0  0  0  0  0  0  0
   22.4879  -10.9622  -16.0824 C   0  0  1  0  0  0  0  0  0  0  0  0
   21.1649  -11.6819  -15.7498 C   0  0  0  0  0  0  0  0  0  0  0  0
   20.0035  -10.7564  -15.9421 C   0  0  0  0  0  0  0  0  0  0  0  0
   18.7230  -11.4886  -15.7377 C   0  0  0  0  0  0  0  0  0  0  0  0
   17.5056  -10.6217  -15.9530 C   0  0  0  0  0  0  0  0  0  0  0  0
   16.3519  -11.5014  -15.8195 N   0  0  0  0  0  0  0  0  0  0  0  0
   22.5795   -9.6836  -15.3338 C   0  0  0  0  0  0  0  0  0  0  0  0
   22.9016   -9.7122  -14.1143 O   0  0  0  0  0  0  0  0  0  0  0  0
   22.3280   -8.4170  -15.8969 N   0  0  0  0  0  0  0  0  0  0  0  0
   22.4220   -7.1329  -15.3486 C   0  0  1  0  0  0  0  0  0  0  0  0
   22.4632   -5.9831  -16.2855 C   0  0  0  0  0  0  0  0  0  0  0  0
   22.6580   -4.6678  -15.5806 C   0  0  0  0  0  0  0  0  0  0  0  0
   22.6548   -3.5330  -16.5273 C   0  0  0  0  0  0  0  0  0  0  0  0
   21.6563   -2.7982  -16.7073 O   0  0  0  0  0  0  0  0  0  0  0  0
   21.5420   -6.8430  -14.1899 C   0  0  0  0  0  0  0  0  0  0  0  0
   20.1900   -7.1106  -14.2827 O   0  0  0  0  0  0  0  0  0  0  0  0
   23.8001   -3.2598  -17.2536 O   0  0  0  0  0  0  0  0  0  0  0  0
   21.9845   -6.3685  -13.1430 O   0  0  0  0  0  0  0  0  0  0  0  0
  2  3  1  0
  2  1  1  1
  4  2  1  0
  4  5  1  6
  6  4  1  0
  7  6  2  0
  8  6  1  0
  9 10  1  1
  9  8  1  0
 11 10  1  0
 11 12  1  0
 13 14  1  0
 13 12  1  0
 15  9  1  0
 16 15  2  0
 17 15  1  0
 18 17  1  0
 19 20  1  0
 18 19  1  6
 20 21  1  0
 21 25  1  0
 21 22  2  0
 23 18  1  0
 23 24  1  0
 26 23  2  0
M  END
$$$$
