TKE.pdb
     RDKit          3D

 26 25  0  0  1  0  0  0  0  0999 V2000
   30.3006  -26.9444  -18.1349 C   0  0  0  0  0  0  0  0  0  0  0  0
   29.5123  -25.6691  -17.9187 C   0  0  1  0  0  0  0  0  0  0  0  0
   28.5314  -26.0260  -16.9509 O   0  0  0  0  0  0  0  0  0  0  0  0
   30.3674  -24.5704  -17.2749 C   0  0  2  0  0  0  0  0  0  0  0  0
   30.9172  -25.1702  -16.0412 N   0  0  0  0  0  0  0  0  0  0  0  0
   29.5725  -23.4139  -16.8188 C   0  0  0  0  0  0  0  0  0  0  0  0
   29.4565  -23.1468  -15.5886 O   0  0  0  0  0  0  0  0  0  0  0  0
   28.8752  -22.4994  -17.6819 N   0  0  0  0  0  0  0  0  0  0  0  0
   28.1169  -21.3954  -17.1737 C   0  0  1  0  0  0  0  0  0  0  0  0
   28.3492  -20.1960  -18.1152 C   0  0  0  0  0  0  0  0  0  0  0  0
   29.6669  -19.5482  -17.8216 C   0  0  0  0  0  0  0  0  0  0  0  0
   29.9040  -18.4164  -18.7597 C   0  0  0  0  0  0  0  0  0  0  0  0
   31.2296  -17.7295  -18.5341 C   0  0  0  0  0  0  0  0  0  0  0  0
   31.2945  -16.6438  -19.5035 N   0  0  0  0  0  0  0  0  0  0  0  0
   26.6630  -21.6464  -17.0105 C   0  0  0  0  0  0  0  0  0  0  0  0
   26.0906  -22.4507  -17.7961 O   0  0  0  0  0  0  0  0  0  0  0  0
   25.8610  -21.0402  -16.0237 N   0  0  0  0  0  0  0  0  0  0  0  0
   24.5121  -21.2207  -15.6976 C   0  0  1  0  0  0  0  0  0  0  0  0
   24.0425  -20.7030  -14.3888 C   0  0  0  0  0  0  0  0  0  0  0  0
   22.6244  -21.1029  -14.0824 C   0  0  0  0  0  0  0  0  0  0  0  0
   22.1572  -20.5283  -12.8035 C   0  0  0  0  0  0  0  0  0  0  0  0
   22.8787  -19.8074  -12.0761 O   0  0  0  0  0  0  0  0  0  0  0  0
   23.5283  -20.9281  -16.7689 C   0  0  0  0  0  0  0  0  0  0  0  0
   22.4950  -21.8151  -17.0000 O   0  0  0  0  0  0  0  0  0  0  0  0
   20.8669  -20.7912  -12.3796 O   0  0  0  0  0  0  0  0  0  0  0  0
   23.6070  -19.9124  -17.4609 O   0  0  0  0  0  0  0  0  0  0  0  0
  2  3  1  0
  2  1  1  1
  4  2  1  0
  4  5  1  1
  6  4  1  0
  7  6  2  0
  8  6  1  0
  9 10  1  6
  9  8  1  0
 11 10  1  0
 11 12  1  0
 13 14  1  0
 13 12  1  0
 15  9  1  0
 16 15  2  0
 17 15  1  0
 18 17  1  0
 19 20  1  0
 18 19  1  1
 20 21  1  0
 21 25  1  0
 21 22  2  0
 23 18  1  0
 23 24  1  0
 26 23  2  0
M  END
$$$$
