TKE.pdb
     RDKit          3D

 26 25  0  0  1  0  0  0  0  0999 V2000
   16.5492  -11.7920  -16.2369 C   0  0  0  0  0  0  0  0  0  0  0  0
   17.8693  -11.4382  -15.5838 C   0  0  1  0  0  0  0  0  0  0  0  0
   18.6561  -12.6155  -15.7294 O   0  0  0  0  0  0  0  0  0  0  0  0
   18.6082  -10.3334  -16.3495 C   0  0  2  0  0  0  0  0  0  0  0  0
   18.8865  -10.8980  -17.6865 N   0  0  0  0  0  0  0  0  0  0  0  0
   19.9337  -10.0242  -15.7794 C   0  0  0  0  0  0  0  0  0  0  0  0
   20.0453   -9.5066  -14.6315 O   0  0  0  0  0  0  0  0  0  0  0  0
   21.1909  -10.2689  -16.4329 N   0  0  0  0  0  0  0  0  0  0  0  0
   22.4412   -9.8665  -15.8612 C   0  0  1  0  0  0  0  0  0  0  0  0
   23.5523  -10.6967  -16.5357 C   0  0  0  0  0  0  0  0  0  0  0  0
   24.8909  -10.3372  -15.9689 C   0  0  0  0  0  0  0  0  0  0  0  0
   25.9437  -11.2273  -16.5318 C   0  0  0  0  0  0  0  0  0  0  0  0
   27.3076  -10.9820  -15.9323 C   0  0  0  0  0  0  0  0  0  0  0  0
   28.1935  -11.9802  -16.5165 N   0  0  0  0  0  0  0  0  0  0  0  0
   22.7483   -8.4178  -15.9638 C   0  0  0  0  0  0  0  0  0  0  0  0
   23.2007   -7.9654  -17.0512 O   0  0  0  0  0  0  0  0  0  0  0  0
   22.5680   -7.4943  -14.9154 N   0  0  0  0  0  0  0  0  0  0  0  0
   22.4309   -6.1017  -14.9313 C   0  0  1  0  0  0  0  0  0  0  0  0
   21.5962   -5.5020  -16.0013 C   0  0  0  0  0  0  0  0  0  0  0  0
   21.5643   -3.9987  -15.9375 C   0  0  0  0  0  0  0  0  0  0  0  0
   20.7075   -3.4234  -16.9954 C   0  0  0  0  0  0  0  0  0  0  0  0
   20.1578   -4.1187  -17.8806 O   0  0  0  0  0  0  0  0  0  0  0  0
   22.1707   -5.4482  -13.6250 C   0  0  0  0  0  0  0  0  0  0  0  0
   21.6855   -6.2032  -12.5750 O   0  0  0  0  0  0  0  0  0  0  0  0
   20.4954   -2.0566  -17.0199 O   0  0  0  0  0  0  0  0  0  0  0  0
   22.3758   -4.2466  -13.4494 O   0  0  0  0  0  0  0  0  0  0  0  0
  2  3  1  0
  2  1  1  6
  4  2  1  0
  4  5  1  6
  6  4  1  0
  7  6  2  0
  8  6  1  0
  9 10  1  6
  9  8  1  0
 11 10  1  0
 11 12  1  0
 13 14  1  0
 13 12  1  0
 15  9  1  0
 16 15  2  0
 17 15  1  0
 18 17  1  0
 19 20  1  0
 18 19  1  6
 20 21  1  0
 21 25  1  0
 21 22  2  0
 23 18  1  0
 23 24  1  0
 26 23  2  0
M  END
$$$$
