TKE.pdb
     RDKit          3D

 26 25  0  0  1  0  0  0  0  0999 V2000
   23.2817  -21.6560  -10.8714 C   0  0  0  0  0  0  0  0  0  0  0  0
   24.1316  -20.6132  -10.1752 C   0  0  1  0  0  0  0  0  0  0  0  0
   24.1155  -21.0077   -8.8076 O   0  0  0  0  0  0  0  0  0  0  0  0
   25.5977  -20.6795  -10.6214 C   0  0  2  0  0  0  0  0  0  0  0  0
   26.2915  -19.6228   -9.8558 N   0  0  0  0  0  0  0  0  0  0  0  0
   25.7861  -20.3139  -12.0386 C   0  0  0  0  0  0  0  0  0  0  0  0
   25.4716  -19.1655  -12.4632 O   0  0  0  0  0  0  0  0  0  0  0  0
   26.3276  -21.1809  -13.0498 N   0  0  0  0  0  0  0  0  0  0  0  0
   26.1885  -20.9047  -14.4486 C   0  0  1  0  0  0  0  0  0  0  0  0
   27.3500  -21.6067  -15.1814 C   0  0  0  0  0  0  0  0  0  0  0  0
   27.3196  -21.2809  -16.6426 C   0  0  0  0  0  0  0  0  0  0  0  0
   28.6914  -20.9639  -17.1276 C   0  0  0  0  0  0  0  0  0  0  0  0
   28.7184  -20.5050  -18.5659 C   0  0  0  0  0  0  0  0  0  0  0  0
   30.1234  -20.3329  -18.9108 N   0  0  0  0  0  0  0  0  0  0  0  0
   24.8892  -21.3011  -15.0471 C   0  0  0  0  0  0  0  0  0  0  0  0
   24.2631  -22.2790  -14.5537 O   0  0  0  0  0  0  0  0  0  0  0  0
   24.2935  -20.6525  -16.1467 N   0  0  0  0  0  0  0  0  0  0  0  0
   22.9500  -20.4040  -16.4491 C   0  0  1  0  0  0  0  0  0  0  0  0
   22.0617  -19.9698  -15.3427 C   0  0  0  0  0  0  0  0  0  0  0  0
   20.6167  -19.8927  -15.7560 C   0  0  0  0  0  0  0  0  0  0  0  0
   19.7681  -19.3384  -14.6804 C   0  0  0  0  0  0  0  0  0  0  0  0
   20.2193  -18.6228  -13.7565 O   0  0  0  0  0  0  0  0  0  0  0  0
   22.6836  -19.6232  -17.6822 C   0  0  0  0  0  0  0  0  0  0  0  0
   23.4376  -18.4963  -17.9462 O   0  0  0  0  0  0  0  0  0  0  0  0
   18.4127  -19.6155  -14.6829 O   0  0  0  0  0  0  0  0  0  0  0  0
   21.8055  -19.9525  -18.4805 O   0  0  0  0  0  0  0  0  0  0  0  0
  2  3  1  0
  2  1  1  6
  4  2  1  0
  4  5  1  1
  6  4  1  0
  7  6  2  0
  8  6  1  0
  9 10  1  6
  9  8  1  0
 11 10  1  0
 11 12  1  0
 13 14  1  0
 13 12  1  0
 15  9  1  0
 16 15  2  0
 17 15  1  0
 18 17  1  0
 19 20  1  0
 18 19  1  1
 20 21  1  0
 21 25  1  0
 21 22  2  0
 23 18  1  0
 23 24  1  0
 26 23  2  0
M  END
$$$$
