TKE.pdb
     RDKit          3D

 26 25  0  0  1  0  0  0  0  0999 V2000
   20.6255   -7.6303  -11.4820 C   0  0  0  0  0  0  0  0  0  0  0  0
   20.2452   -7.6590  -12.9480 C   0  0  1  0  0  0  0  0  0  0  0  0
   21.4510   -8.0186  -13.6134 O   0  0  0  0  0  0  0  0  0  0  0  0
   19.2384   -8.7745  -13.2559 C   0  0  2  0  0  0  0  0  0  0  0  0
   19.0108   -8.7093  -14.7146 N   0  0  0  0  0  0  0  0  0  0  0  0
   17.9139   -8.5395  -12.6494 C   0  0  0  0  0  0  0  0  0  0  0  0
   17.1284   -7.6662  -13.1167 O   0  0  0  0  0  0  0  0  0  0  0  0
   17.3890   -9.2471  -11.5131 N   0  0  0  0  0  0  0  0  0  0  0  0
   16.1273   -8.9150  -10.9213 C   0  0  1  0  0  0  0  0  0  0  0  0
   15.4775  -10.2279  -10.4386 C   0  0  0  0  0  0  0  0  0  0  0  0
   14.7379  -10.8886  -11.5606 C   0  0  0  0  0  0  0  0  0  0  0  0
   14.1632  -12.1846  -11.1050 C   0  0  0  0  0  0  0  0  0  0  0  0
   13.3406  -12.8726  -12.1680 C   0  0  0  0  0  0  0  0  0  0  0  0
   12.8244  -14.0904  -11.5571 N   0  0  0  0  0  0  0  0  0  0  0  0
   16.1871   -7.9326   -9.8100 C   0  0  0  0  0  0  0  0  0  0  0  0
   16.8272   -8.2317   -8.7648 O   0  0  0  0  0  0  0  0  0  0  0  0
   15.5694   -6.6668   -9.8385 N   0  0  0  0  0  0  0  0  0  0  0  0
   15.4106   -5.6994   -8.8398 C   0  0  1  0  0  0  0  0  0  0  0  0
   15.4491   -4.2732   -9.2473 C   0  0  0  0  0  0  0  0  0  0  0  0
   15.2895   -3.3333   -8.0828 C   0  0  0  0  0  0  0  0  0  0  0  0
   15.3756   -1.9194   -8.5042 C   0  0  0  0  0  0  0  0  0  0  0  0
   15.4124   -1.5672   -9.7058 O   0  0  0  0  0  0  0  0  0  0  0  0
   14.3309   -5.9409   -7.8514 C   0  0  0  0  0  0  0  0  0  0  0  0
   14.3984   -5.3332   -6.6128 O   0  0  0  0  0  0  0  0  0  0  0  0
   15.4184   -0.9309   -7.5373 O   0  0  0  0  0  0  0  0  0  0  0  0
   13.3719   -6.6709   -8.1049 O   0  0  0  0  0  0  0  0  0  0  0  0
  2  3  1  0
  2  1  1  1
  4  2  1  0
  4  5  1  6
  6  4  1  0
  7  6  2  0
  8  6  1  0
  9 10  1  1
  9  8  1  0
 11 10  1  0
 11 12  1  0
 13 14  1  0
 13 12  1  0
 15  9  1  0
 16 15  2  0
 17 15  1  0
 18 17  1  0
 19 20  1  0
 18 19  1  6
 20 21  1  0
 21 25  1  0
 21 22  2  0
 23 18  1  0
 23 24  1  0
 26 23  2  0
M  END
$$$$
