TKE.pdb
     RDKit          3D

 26 25  0  0  1  0  0  0  0  0999 V2000
   34.6104  -28.1848  -17.0783 C   0  0  0  0  0  0  0  0  0  0  0  0
   34.9342  -27.7402  -18.4897 C   0  0  1  0  0  0  0  0  0  0  0  0
   36.3425  -27.9175  -18.5959 O   0  0  0  0  0  0  0  0  0  0  0  0
   34.3068  -28.6664  -19.5391 C   0  0  2  0  0  0  0  0  0  0  0  0
   34.6081  -28.0443  -20.8453 N   0  0  0  0  0  0  0  0  0  0  0  0
   32.8337  -28.7085  -19.4642 C   0  0  0  0  0  0  0  0  0  0  0  0
   32.1255  -27.8495  -20.0631 O   0  0  0  0  0  0  0  0  0  0  0  0
   32.0717  -29.6882  -18.7384 N   0  0  0  0  0  0  0  0  0  0  0  0
   30.6456  -29.6158  -18.6226 C   0  0  1  0  0  0  0  0  0  0  0  0
   30.1449  -30.9941  -18.1448 C   0  0  0  0  0  0  0  0  0  0  0  0
   28.6560  -30.9832  -17.9854 C   0  0  0  0  0  0  0  0  0  0  0  0
   28.1817  -32.3060  -17.4930 C   0  0  0  0  0  0  0  0  0  0  0  0
   26.6785  -32.3887  -17.3758 C   0  0  0  0  0  0  0  0  0  0  0  0
   26.3747  -33.7669  -17.0140 N   0  0  0  0  0  0  0  0  0  0  0  0
   30.1356  -28.5459  -17.7289 C   0  0  0  0  0  0  0  0  0  0  0  0
   30.6120  -28.4442  -16.5650 O   0  0  0  0  0  0  0  0  0  0  0  0
   29.1395  -27.6185  -18.0928 N   0  0  0  0  0  0  0  0  0  0  0  0
   28.5935  -26.5356  -17.3947 C   0  0  1  0  0  0  0  0  0  0  0  0
   28.9407  -25.1694  -17.8577 C   0  0  0  0  0  0  0  0  0  0  0  0
   28.2820  -24.0941  -17.0362 C   0  0  0  0  0  0  0  0  0  0  0  0
   28.6750  -22.7425  -17.4864 C   0  0  0  0  0  0  0  0  0  0  0  0
   28.6859  -22.4017  -18.6919 O   0  0  0  0  0  0  0  0  0  0  0  0
   27.1536  -26.6299  -17.0498 C   0  0  0  0  0  0  0  0  0  0  0  0
   26.7323  -26.2472  -15.7912 O   0  0  0  0  0  0  0  0  0  0  0  0
   29.0502  -21.8022  -16.5436 O   0  0  0  0  0  0  0  0  0  0  0  0
   26.3196  -27.0415  -17.8572 O   0  0  0  0  0  0  0  0  0  0  0  0
  2  3  1  0
  2  1  1  1
  4  2  1  0
  4  5  1  6
  6  4  1  0
  7  6  2  0
  8  6  1  0
  9 10  1  1
  9  8  1  0
 11 10  1  0
 11 12  1  0
 13 14  1  0
 13 12  1  0
 15  9  1  0
 16 15  2  0
 17 15  1  0
 18 17  1  0
 19 20  1  0
 18 19  1  6
 20 21  1  0
 21 25  1  0
 21 22  2  0
 23 18  1  0
 23 24  1  0
 26 23  2  0
M  END
$$$$
