TKE.pdb
     RDKit          3D

 26 25  0  0  1  0  0  0  0  0999 V2000
   28.2464  -23.9840  -16.0686 C   0  0  0  0  0  0  0  0  0  0  0  0
   26.8847  -23.3365  -16.2133 C   0  0  1  0  0  0  0  0  0  0  0  0
   26.5601  -23.5122  -17.5880 O   0  0  0  0  0  0  0  0  0  0  0  0
   25.8073  -24.0874  -15.4208 C   0  0  2  0  0  0  0  0  0  0  0  0
   25.6292  -25.3768  -16.1206 N   0  0  0  0  0  0  0  0  0  0  0  0
   24.4863  -23.4325  -15.4798 C   0  0  0  0  0  0  0  0  0  0  0  0
   23.7347  -23.5701  -16.4869 O   0  0  0  0  0  0  0  0  0  0  0  0
   23.9282  -22.6050  -14.4449 N   0  0  0  0  0  0  0  0  0  0  0  0
   22.6804  -21.9192  -14.6035 C   0  0  1  0  0  0  0  0  0  0  0  0
   21.9271  -22.0028  -13.2602 C   0  0  0  0  0  0  0  0  0  0  0  0
   21.1025  -23.2512  -13.2000 C   0  0  0  0  0  0  0  0  0  0  0  0
   20.3878  -23.3332  -11.8961 C   0  0  0  0  0  0  0  0  0  0  0  0
   19.3805  -24.4569  -11.8439 C   0  0  0  0  0  0  0  0  0  0  0  0
   18.7454  -24.3723  -10.5354 N   0  0  0  0  0  0  0  0  0  0  0  0
   22.7853  -20.5063  -15.0466 C   0  0  0  0  0  0  0  0  0  0  0  0
   23.5926  -19.7391  -14.4537 O   0  0  0  0  0  0  0  0  0  0  0  0
   22.0346  -19.9496  -16.1007 N   0  0  0  0  0  0  0  0  0  0  0  0
   22.1022  -18.6929  -16.7127 C   0  0  1  0  0  0  0  0  0  0  0  0
   22.2202  -18.6501  -18.1912 C   0  0  0  0  0  0  0  0  0  0  0  0
   22.5163  -17.2684  -18.7091 C   0  0  0  0  0  0  0  0  0  0  0  0
   22.5412  -17.2307  -20.1863 C   0  0  0  0  0  0  0  0  0  0  0  0
   22.1925  -18.2001  -20.8990 O   0  0  0  0  0  0  0  0  0  0  0  0
   21.1457  -17.6685  -16.2260 C   0  0  0  0  0  0  0  0  0  0  0  0
   21.4874  -16.3323  -16.3028 O   0  0  0  0  0  0  0  0  0  0  0  0
   22.9669  -16.0784  -20.8225 O   0  0  0  0  0  0  0  0  0  0  0  0
   20.0510  -17.9768  -15.7534 O   0  0  0  0  0  0  0  0  0  0  0  0
  2  3  1  0
  2  1  1  6
  4  2  1  0
  4  5  1  6
  6  4  1  0
  7  6  2  0
  8  6  1  0
  9 10  1  1
  9  8  1  0
 11 10  1  0
 11 12  1  0
 13 14  1  0
 13 12  1  0
 15  9  1  0
 16 15  2  0
 17 15  1  0
 18 17  1  0
 19 20  1  0
 18 19  1  6
 20 21  1  0
 21 25  1  0
 21 22  2  0
 23 18  1  0
 23 24  1  0
 26 23  2  0
M  END
$$$$
