TKE.pdb
     RDKit          3D

 26 25  0  0  1  0  0  0  0  0999 V2000
   21.1077  -15.3729  -18.6541 C   0  0  0  0  0  0  0  0  0  0  0  0
   20.4294  -14.0199  -18.5909 C   0  0  1  0  0  0  0  0  0  0  0  0
   19.3248  -14.2249  -17.7168 O   0  0  0  0  0  0  0  0  0  0  0  0
   21.3172  -12.9660  -17.9172 C   0  0  2  0  0  0  0  0  0  0  0  0
   21.5916  -13.4886  -16.5624 N   0  0  0  0  0  0  0  0  0  0  0  0
   20.6242  -11.6814  -17.7005 C   0  0  0  0  0  0  0  0  0  0  0  0
   20.4523  -10.8648  -18.6501 O   0  0  0  0  0  0  0  0  0  0  0  0
   20.0870  -11.2350  -16.4437 N   0  0  0  0  0  0  0  0  0  0  0  0
   19.5346   -9.9246  -16.2701 C   0  0  1  0  0  0  0  0  0  0  0  0
   18.1814  -10.0799  -15.5466 C   0  0  0  0  0  0  0  0  0  0  0  0
   17.5243   -8.7455  -15.3745 C   0  0  0  0  0  0  0  0  0  0  0  0
   16.2186   -8.9014  -14.6756 C   0  0  0  0  0  0  0  0  0  0  0  0
   15.4176   -7.6223  -14.6275 C   0  0  0  0  0  0  0  0  0  0  0  0
   14.2379   -7.9121  -13.8231 N   0  0  0  0  0  0  0  0  0  0  0  0
   20.3996   -8.9633  -15.5412 C   0  0  0  0  0  0  0  0  0  0  0  0
   20.9136   -9.3154  -14.4441 O   0  0  0  0  0  0  0  0  0  0  0  0
   20.6935   -7.6621  -15.9941 N   0  0  0  0  0  0  0  0  0  0  0  0
   21.4629   -6.6425  -15.4226 C   0  0  1  0  0  0  0  0  0  0  0  0
   21.7846   -5.4646  -16.2657 C   0  0  0  0  0  0  0  0  0  0  0  0
   22.7730   -4.5368  -15.6122 C   0  0  0  0  0  0  0  0  0  0  0  0
   23.0426   -3.3474  -16.4470 C   0  0  0  0  0  0  0  0  0  0  0  0
   22.5795   -2.2129  -16.1870 O   0  0  0  0  0  0  0  0  0  0  0  0
   21.0924   -6.2265  -14.0475 C   0  0  0  0  0  0  0  0  0  0  0  0
   22.0853   -6.0421  -13.1052 O   0  0  0  0  0  0  0  0  0  0  0  0
   23.8411   -3.4802  -17.5689 O   0  0  0  0  0  0  0  0  0  0  0  0
   19.9196   -6.0402  -13.7209 O   0  0  0  0  0  0  0  0  0  0  0  0
  2  3  1  0
  2  1  1  1
  4  2  1  0
  4  5  1  1
  6  4  1  0
  7  6  2  0
  8  6  1  0
  9 10  1  1
  9  8  1  0
 11 10  1  0
 11 12  1  0
 13 14  1  0
 13 12  1  0
 15  9  1  0
 16 15  2  0
 17 15  1  0
 18 17  1  0
 19 20  1  0
 18 19  1  6
 20 21  1  0
 21 25  1  0
 21 22  2  0
 23 18  1  0
 23 24  1  0
 26 23  2  0
M  END
$$$$
