TKE.pdb
     RDKit          3D

 26 25  0  0  1  0  0  0  0  0999 V2000
   25.0097  -14.3387  -15.0064 C   0  0  0  0  0  0  0  0  0  0  0  0
   24.4440  -12.9809  -15.3683 C   0  0  1  0  0  0  0  0  0  0  0  0
   25.4997  -12.3420  -16.0779 O   0  0  0  0  0  0  0  0  0  0  0  0
   23.2738  -13.0931  -16.3536 C   0  0  2  0  0  0  0  0  0  0  0  0
   23.8764  -13.5126  -17.6361 N   0  0  0  0  0  0  0  0  0  0  0  0
   22.6320  -11.7949  -16.6369 C   0  0  0  0  0  0  0  0  0  0  0  0
   23.1532  -10.9718  -17.4425 O   0  0  0  0  0  0  0  0  0  0  0  0
   21.3961  -11.3415  -16.0588 N   0  0  0  0  0  0  0  0  0  0  0  0
   20.8237  -10.0679  -16.3791 C   0  0  1  0  0  0  0  0  0  0  0  0
   19.2900  -10.2124  -16.3036 C   0  0  0  0  0  0  0  0  0  0  0  0
   18.7941  -11.1040  -17.3998 C   0  0  0  0  0  0  0  0  0  0  0  0
   17.3139  -11.2443  -17.3187 C   0  0  0  0  0  0  0  0  0  0  0  0
   16.7365  -12.0733  -18.4408 C   0  0  0  0  0  0  0  0  0  0  0  0
   15.3298  -12.2714  -18.1171 N   0  0  0  0  0  0  0  0  0  0  0  0
   21.2756   -8.9378  -15.5293 C   0  0  0  0  0  0  0  0  0  0  0  0
   21.3964   -9.1189  -14.2866 O   0  0  0  0  0  0  0  0  0  0  0  0
   21.5851   -7.6536  -16.0191 N   0  0  0  0  0  0  0  0  0  0  0  0
   22.0275   -6.5012  -15.3600 C   0  0  1  0  0  0  0  0  0  0  0  0
   22.5886   -5.4047  -16.1873 C   0  0  0  0  0  0  0  0  0  0  0  0
   23.1950   -4.3050  -15.3579 C   0  0  0  0  0  0  0  0  0  0  0  0
   22.2021   -3.2649  -15.0168 C   0  0  0  0  0  0  0  0  0  0  0  0
   21.7082   -3.1432  -13.8720 O   0  0  0  0  0  0  0  0  0  0  0  0
   21.1406   -5.9654  -14.2982 C   0  0  0  0  0  0  0  0  0  0  0  0
   21.5970   -5.9164  -12.9955 O   0  0  0  0  0  0  0  0  0  0  0  0
   21.7912   -2.3798  -15.9974 O   0  0  0  0  0  0  0  0  0  0  0  0
   20.0040   -5.5612  -14.5464 O   0  0  0  0  0  0  0  0  0  0  0  0
  2  3  1  0
  2  1  1  6
  4  2  1  0
  4  5  1  6
  6  4  1  0
  7  6  2  0
  8  6  1  0
  9 10  1  1
  9  8  1  0
 11 10  1  0
 11 12  1  0
 13 14  1  0
 13 12  1  0
 15  9  1  0
 16 15  2  0
 17 15  1  0
 18 17  1  0
 19 20  1  0
 18 19  1  6
 20 21  1  0
 21 25  1  0
 21 22  2  0
 23 18  1  0
 23 24  1  0
 26 23  2  0
M  END
$$$$
