TKE.pdb
     RDKit          3D

 26 25  0  0  1  0  0  0  0  0999 V2000
   25.3198  -12.3812  -19.1215 C   0  0  0  0  0  0  0  0  0  0  0  0
   25.0016  -12.8027  -17.7017 C   0  0  1  0  0  0  0  0  0  0  0  0
   26.0196  -13.7446  -17.3818 O   0  0  0  0  0  0  0  0  0  0  0  0
   25.1657  -11.6434  -16.7108 C   0  0  2  0  0  0  0  0  0  0  0  0
   25.1312  -12.2629  -15.3694 N   0  0  0  0  0  0  0  0  0  0  0  0
   24.0283  -10.7035  -16.7293 C   0  0  0  0  0  0  0  0  0  0  0  0
   23.9025   -9.8502  -17.6535 O   0  0  0  0  0  0  0  0  0  0  0  0
   22.9803  -10.6562  -15.7461 N   0  0  0  0  0  0  0  0  0  0  0  0
   21.9747   -9.6359  -15.7484 C   0  0  1  0  0  0  0  0  0  0  0  0
   20.7312  -10.2036  -15.0341 C   0  0  0  0  0  0  0  0  0  0  0  0
   19.8335  -10.8923  -16.0151 C   0  0  0  0  0  0  0  0  0  0  0  0
   18.7567  -11.6292  -15.2976 C   0  0  0  0  0  0  0  0  0  0  0  0
   17.7902  -12.3192  -16.2302 C   0  0  0  0  0  0  0  0  0  0  0  0
   16.9690  -13.1860  -15.3952 N   0  0  0  0  0  0  0  0  0  0  0  0
   22.3777   -8.3471  -15.1317 C   0  0  0  0  0  0  0  0  0  0  0  0
   23.0997   -8.3649  -14.0972 O   0  0  0  0  0  0  0  0  0  0  0  0
   22.0053   -7.0820  -15.6271 N   0  0  0  0  0  0  0  0  0  0  0  0
   22.3028   -5.7929  -15.1710 C   0  0  1  0  0  0  0  0  0  0  0  0
   22.5531   -4.7413  -16.1873 C   0  0  0  0  0  0  0  0  0  0  0  0
   22.8922   -3.4101  -15.5725 C   0  0  0  0  0  0  0  0  0  0  0  0
   23.0974   -2.3682  -16.6003 C   0  0  0  0  0  0  0  0  0  0  0  0
   23.2293   -2.6289  -17.8185 O   0  0  0  0  0  0  0  0  0  0  0  0
   21.4628   -5.2732  -14.0640 C   0  0  0  0  0  0  0  0  0  0  0  0
   22.0444   -4.4998  -13.0783 O   0  0  0  0  0  0  0  0  0  0  0  0
   23.1481   -1.0414  -16.2122 O   0  0  0  0  0  0  0  0  0  0  0  0
   20.2565   -5.5127  -13.9987 O   0  0  0  0  0  0  0  0  0  0  0  0
  2  3  1  0
  2  1  1  6
  4  2  1  0
  4  5  1  1
  6  4  1  0
  7  6  2  0
  8  6  1  0
  9 10  1  1
  9  8  1  0
 11 10  1  0
 11 12  1  0
 13 14  1  0
 13 12  1  0
 15  9  1  0
 16 15  2  0
 17 15  1  0
 18 17  1  0
 19 20  1  0
 18 19  1  6
 20 21  1  0
 21 25  1  0
 21 22  2  0
 23 18  1  0
 23 24  1  0
 26 23  2  0
M  END
$$$$
