RDE.pdb
     RDKit          3D

 29 28  0  0  1  0  0  0  0  0999 V2000
    7.4583  -11.4131   19.0768 N   0  0  0  0  0  0  0  0  0  0  0  0
    7.8780  -12.7543   18.8560 C   0  0  0  0  0  0  0  0  0  0  0  0
    8.2976  -13.0785   17.6696 N   0  0  0  0  0  0  0  0  0  0  0  0
    7.8315  -13.6943   19.9103 N   0  0  0  0  0  0  0  0  0  0  0  0
    6.9832  -14.8556   19.8218 C   0  0  0  0  0  0  0  0  0  0  0  0
    6.4740  -15.1421   21.1990 C   0  0  0  0  0  0  0  0  0  0  0  0
    7.5523  -15.6094   22.1553 C   0  0  0  0  0  0  0  0  0  0  0  0
    8.1190  -16.8935   21.5828 C   0  0  2  0  0  0  0  0  0  0  0  0
    7.0505  -17.8763   21.6113 N   0  0  0  0  0  0  0  0  0  0  0  0
    9.3167  -17.3610   22.3256 C   0  0  0  0  0  0  0  0  0  0  0  0
    9.2183  -18.2493   23.1955 O   0  0  0  0  0  0  0  0  0  0  0  0
    8.4863  -14.0635   17.4407 N   0  0  0  0  0  0  0  0  0  0  0  0
   10.5756  -16.8102   22.0586 C   0  0  2  0  0  0  0  0  0  0  0  0
   11.7962  -17.1389   22.7843 C   0  0  0  0  0  0  0  0  0  0  0  0
   12.9088  -16.6595   21.8791 C   0  0  0  0  0  0  0  0  0  0  0  0
   14.1898  -17.1078   22.4765 O   0  0  0  0  0  0  0  0  0  0  0  0
   14.1641  -17.9568   23.4337 C   0  0  0  0  0  0  0  0  0  0  0  0
   11.7562  -16.4931   24.0982 O   0  0  0  0  0  0  0  0  0  0  0  0
   11.5388  -15.2574   24.1624 O   0  0  0  0  0  0  0  0  0  0  0  0
   15.4286  -16.6535   22.0562 N   0  0  0  0  0  0  0  0  0  0  0  0
   11.9558  -17.2393   25.2589 C   0  0  2  0  0  0  0  0  0  0  0  0
   12.0085  -16.5718   26.5734 C   0  0  0  0  0  0  0  0  0  0  0  0
   12.1183  -17.6861   27.5543 C   0  0  0  0  0  0  0  0  0  0  0  0
   10.9838  -17.7665   28.5100 C   0  0  0  0  0  0  0  0  0  0  0  0
   11.0808  -18.9036   29.4592 O   0  0  0  0  0  0  0  0  0  0  0  0
   11.8914  -18.7892   30.4273 C   0  0  0  0  0  0  0  0  0  0  0  0
   12.9858  -15.5135   26.5691 O   0  0  0  0  0  0  0  0  0  0  0  0
   12.7339  -14.2687   27.1730 O   0  0  0  0  0  0  0  0  0  0  0  0
   10.3609  -20.0667   29.3681 O   0  0  0  0  0  0  0  0  0  0  0  0
  2  3  2  0
  2  1  1  0
  4  2  1  0
  5  4  1  0
  6  5  1  0
  7  6  1  0
  8  7  1  0
  8  9  1  1
 10  8  1  0
 10 11  2  0
 12 10  1  0
 13 12  1  0
 13 14  1  6
 14 15  1  0
 15 16  2  0
 15 19  1  0
 17 13  1  0
 18 17  2  0
 20 17  1  0
 21 20  1  0
 21 22  1  6
 23 22  1  0
 24 23  1  0
 24 25  2  0
 26 21  1  0
 26 27  1  0
 28 24  1  0
 29 26  2  0
M  END
$$$$
