RDE.pdb
     RDKit          3D

 29 28  0  0  1  0  0  0  0  0999 V2000
    7.1579  -12.2168   19.7264 N   0  0  0  0  0  0  0  0  0  0  0  0
    7.9905  -12.9740   18.8563 C   0  0  0  0  0  0  0  0  0  0  0  0
    8.5614  -12.3589   17.8641 N   0  0  0  0  0  0  0  0  0  0  0  0
    8.1786  -14.3566   19.0805 N   0  0  0  0  0  0  0  0  0  0  0  0
    7.4334  -15.0423   20.1054 C   0  0  0  0  0  0  0  0  0  0  0  0
    8.2944  -16.1548   20.6144 C   0  0  0  0  0  0  0  0  0  0  0  0
    9.4207  -15.6834   21.5114 C   0  0  0  0  0  0  0  0  0  0  0  0
   10.1422  -16.9246   21.9976 C   0  0  2  0  0  0  0  0  0  0  0  0
    9.8152  -17.9936   21.0710 N   0  0  0  0  0  0  0  0  0  0  0  0
    9.7796  -17.2764   23.3938 C   0  0  0  0  0  0  0  0  0  0  0  0
    8.9007  -16.6346   24.0031 O   0  0  0  0  0  0  0  0  0  0  0  0
    9.1182  -12.8889   17.1805 N   0  0  0  0  0  0  0  0  0  0  0  0
   10.4202  -18.3360   24.0468 C   0  0  2  0  0  0  0  0  0  0  0  0
    9.8548  -19.0885   25.1597 C   0  0  0  0  0  0  0  0  0  0  0  0
    8.5421  -19.6157   24.6248 C   0  0  0  0  0  0  0  0  0  0  0  0
    7.4839  -19.2292   25.5890 O   0  0  0  0  0  0  0  0  0  0  0  0
    7.6127  -19.5629   26.8177 C   0  0  0  0  0  0  0  0  0  0  0  0
   10.8084  -20.1228   25.5669 O   0  0  0  0  0  0  0  0  0  0  0  0
   11.2289  -20.9356   24.7061 O   0  0  0  0  0  0  0  0  0  0  0  0
    6.3479  -18.5218   25.2330 N   0  0  0  0  0  0  0  0  0  0  0  0
   11.2424  -20.2028   26.8894 C   0  0  2  0  0  0  0  0  0  0  0  0
   12.5918  -19.7356   27.2598 C   0  0  0  0  0  0  0  0  0  0  0  0
   12.9225  -18.7024   26.2405 C   0  0  0  0  0  0  0  0  0  0  0  0
   13.9572  -19.1254   25.2619 C   0  0  0  0  0  0  0  0  0  0  0  0
   14.7368  -17.9986   24.6912 O   0  0  0  0  0  0  0  0  0  0  0  0
   14.4915  -16.8356   25.1325 C   0  0  0  0  0  0  0  0  0  0  0  0
   12.6526  -19.4129   28.6624 O   0  0  0  0  0  0  0  0  0  0  0  0
   13.2165  -20.2938   29.6025 O   0  0  0  0  0  0  0  0  0  0  0  0
   15.7010  -18.1203   23.7243 O   0  0  0  0  0  0  0  0  0  0  0  0
  2  3  2  0
  2  1  1  0
  4  2  1  0
  5  4  1  0
  6  5  1  0
  7  6  1  0
  8  7  1  0
  8  9  1  6
 10  8  1  0
 10 11  2  0
 12 10  1  0
 13 12  1  0
 13 14  1  1
 14 15  1  0
 15 16  2  0
 15 19  1  0
 17 13  1  0
 18 17  2  0
 20 17  1  0
 21 20  1  0
 21 22  1  6
 23 22  1  0
 24 23  1  0
 24 25  2  0
 26 21  1  0
 26 27  1  0
 28 24  1  0
 29 26  2  0
M  END
$$$$
