RDE.pdb
     RDKit          3D

 29 28  0  0  1  0  0  0  0  0999 V2000
    9.0744  -21.8011   16.5511 N   0  0  0  0  0  0  0  0  0  0  0  0
    9.0852  -21.4214   15.1801 C   0  0  0  0  0  0  0  0  0  0  0  0
    8.1503  -21.8874   14.4070 N   0  0  0  0  0  0  0  0  0  0  0  0
   10.0938  -20.5608   14.6908 N   0  0  0  0  0  0  0  0  0  0  0  0
   11.3806  -20.4964   15.3358 C   0  0  0  0  0  0  0  0  0  0  0  0
   11.2656  -19.5209   16.4643 C   0  0  0  0  0  0  0  0  0  0  0  0
   12.5574  -19.3342   17.2336 C   0  0  0  0  0  0  0  0  0  0  0  0
   12.5656  -17.9039   17.7354 C   0  0  2  0  0  0  0  0  0  0  0  0
   12.7172  -17.0489   16.5716 N   0  0  0  0  0  0  0  0  0  0  0  0
   13.6350  -17.6645   18.7372 C   0  0  0  0  0  0  0  0  0  0  0  0
   13.6187  -18.2525   19.8370 O   0  0  0  0  0  0  0  0  0  0  0  0
    8.1112  -21.6063   13.4183 N   0  0  0  0  0  0  0  0  0  0  0  0
   14.6789  -16.7740   18.4603 C   0  0  1  0  0  0  0  0  0  0  0  0
   15.7821  -16.4806   19.3666 C   0  0  0  0  0  0  0  0  0  0  0  0
   16.7043  -15.5962   18.5575 C   0  0  0  0  0  0  0  0  0  0  0  0
   18.0712  -15.7606   19.1081 O   0  0  0  0  0  0  0  0  0  0  0  0
   18.2461  -16.5337   20.1129 C   0  0  0  0  0  0  0  0  0  0  0  0
   15.2475  -15.8584   20.5798 O   0  0  0  0  0  0  0  0  0  0  0  0
   14.8188  -14.6790   20.5205 O   0  0  0  0  0  0  0  0  0  0  0  0
   19.1840  -15.1162   18.5943 N   0  0  0  0  0  0  0  0  0  0  0  0
   15.2149  -16.5653   21.7812 C   0  0  2  0  0  0  0  0  0  0  0  0
   14.7313  -15.9159   23.0143 C   0  0  0  0  0  0  0  0  0  0  0  0
   13.7794  -16.8965   23.6045 C   0  0  0  0  0  0  0  0  0  0  0  0
   12.4869  -16.9987   22.8793 C   0  0  0  0  0  0  0  0  0  0  0  0
   11.6062  -18.0850   23.3770 O   0  0  0  0  0  0  0  0  0  0  0  0
   12.0023  -18.7422   24.3863 C   0  0  0  0  0  0  0  0  0  0  0  0
   15.8349  -15.4193   23.7957 O   0  0  0  0  0  0  0  0  0  0  0  0
   17.1673  -15.7521   23.4931 O   0  0  0  0  0  0  0  0  0  0  0  0
   10.3983  -18.4307   22.8285 O   0  0  0  0  0  0  0  0  0  0  0  0
  2  3  2  0
  2  1  1  0
  4  2  1  0
  5  4  1  0
  6  5  1  0
  7  6  1  0
  8  7  1  0
  8  9  1  6
 10  8  1  0
 10 11  2  0
 12 10  1  0
 13 12  1  0
 13 14  1  1
 14 15  1  0
 15 16  2  0
 15 19  1  0
 17 13  1  0
 18 17  2  0
 20 17  1  0
 21 20  1  0
 21 22  1  6
 23 22  1  0
 24 23  1  0
 24 25  2  0
 26 21  1  0
 26 27  1  0
 28 24  1  0
 29 26  2  0
M  END
$$$$
