RDE.pdb
     RDKit          3D

 29 28  0  0  1  0  0  0  0  0999 V2000
    6.8340  -14.4277   18.4997 N   0  0  0  0  0  0  0  0  0  0  0  0
    7.1655  -13.3974   17.5765 C   0  0  0  0  0  0  0  0  0  0  0  0
    6.3942  -12.3531   17.5196 N   0  0  0  0  0  0  0  0  0  0  0  0
    8.3059  -13.5248   16.7516 N   0  0  0  0  0  0  0  0  0  0  0  0
    9.1505  -14.6887   16.8409 C   0  0  0  0  0  0  0  0  0  0  0  0
    9.7617  -14.6926   18.2064 C   0  0  0  0  0  0  0  0  0  0  0  0
    9.4567  -15.9468   18.9998 C   0  0  0  0  0  0  0  0  0  0  0  0
   10.2223  -15.8374   20.3035 C   0  0  2  0  0  0  0  0  0  0  0  0
    9.9697  -14.5085   20.8314 N   0  0  0  0  0  0  0  0  0  0  0  0
   11.6743  -16.0928   20.1272 C   0  0  0  0  0  0  0  0  0  0  0  0
   12.0749  -17.1576   19.6161 O   0  0  0  0  0  0  0  0  0  0  0  0
    6.5946  -11.6001   16.8480 N   0  0  0  0  0  0  0  0  0  0  0  0
   12.6157  -15.1394   20.5325 C   0  0  2  0  0  0  0  0  0  0  0  0
   14.0607  -15.3140   20.4538 C   0  0  0  0  0  0  0  0  0  0  0  0
   14.5387  -14.1156   19.6648 C   0  0  0  0  0  0  0  0  0  0  0  0
   14.4194  -14.4560   18.2266 O   0  0  0  0  0  0  0  0  0  0  0  0
   15.0624  -15.4652   17.7728 C   0  0  0  0  0  0  0  0  0  0  0  0
   14.6025  -15.4078   21.8112 O   0  0  0  0  0  0  0  0  0  0  0  0
   14.0619  -14.7422   22.7294 O   0  0  0  0  0  0  0  0  0  0  0  0
   13.6454  -13.7350   17.3329 N   0  0  0  0  0  0  0  0  0  0  0  0
   15.7008  -16.2239   22.0790 C   0  0  1  0  0  0  0  0  0  0  0  0
   16.3905  -16.1408   23.3804 C   0  0  0  0  0  0  0  0  0  0  0  0
   15.4619  -16.8011   24.3384 C   0  0  0  0  0  0  0  0  0  0  0  0
   14.2688  -17.4152   23.7009 C   0  0  0  0  0  0  0  0  0  0  0  0
   13.4145  -18.1804   24.6431 O   0  0  0  0  0  0  0  0  0  0  0  0
   13.8252  -18.3032   25.8363 C   0  0  0  0  0  0  0  0  0  0  0  0
   17.7530  -16.5940   23.2654 O   0  0  0  0  0  0  0  0  0  0  0  0
   18.6674  -16.4725   24.3269 O   0  0  0  0  0  0  0  0  0  0  0  0
   12.2164  -18.7636   24.3210 O   0  0  0  0  0  0  0  0  0  0  0  0
  2  3  2  0
  2  1  1  0
  4  2  1  0
  5  4  1  0
  6  5  1  0
  7  6  1  0
  8  7  1  0
  8  9  1  6
 10  8  1  0
 10 11  2  0
 12 10  1  0
 13 12  1  0
 13 14  1  6
 14 15  1  0
 15 16  2  0
 15 19  1  0
 17 13  1  0
 18 17  2  0
 20 17  1  0
 21 20  1  0
 21 22  1  1
 23 22  1  0
 24 23  1  0
 24 25  2  0
 26 21  1  0
 26 27  1  0
 28 24  1  0
 29 26  2  0
M  END
$$$$
