RDE.pdb
     RDKit          3D

 29 28  0  0  1  0  0  0  0  0999 V2000
    8.4493  -13.6630   15.5518 N   0  0  0  0  0  0  0  0  0  0  0  0
    8.3351  -13.4554   16.9545 C   0  0  0  0  0  0  0  0  0  0  0  0
    7.3116  -12.7861   17.3944 N   0  0  0  0  0  0  0  0  0  0  0  0
    9.3185  -13.9696   17.8296 N   0  0  0  0  0  0  0  0  0  0  0  0
   10.3588  -14.8362   17.3371 C   0  0  0  0  0  0  0  0  0  0  0  0
   10.5306  -15.9383   18.3342 C   0  0  0  0  0  0  0  0  0  0  0  0
   10.6711  -15.4449   19.7598 C   0  0  0  0  0  0  0  0  0  0  0  0
   10.8106  -16.6734   20.6367 C   0  0  2  0  0  0  0  0  0  0  0  0
   10.3355  -17.8038   19.8589 N   0  0  0  0  0  0  0  0  0  0  0  0
   10.0724  -16.5377   21.9178 C   0  0  0  0  0  0  0  0  0  0  0  0
   10.5781  -15.9281   22.8812 O   0  0  0  0  0  0  0  0  0  0  0  0
    7.1704  -12.6659   18.4062 N   0  0  0  0  0  0  0  0  0  0  0  0
    8.7955  -17.0930   22.0621 C   0  0  2  0  0  0  0  0  0  0  0  0
    7.9773  -16.9916   23.2641 C   0  0  0  0  0  0  0  0  0  0  0  0
    6.5552  -17.0100   22.7498 C   0  0  0  0  0  0  0  0  0  0  0  0
    6.1710  -15.6074   22.4598 O   0  0  0  0  0  0  0  0  0  0  0  0
    6.9779  -14.6656   22.7756 C   0  0  0  0  0  0  0  0  0  0  0  0
    8.3161  -18.0964   24.1639 O   0  0  0  0  0  0  0  0  0  0  0  0
    8.2413  -19.2749   23.7353 O   0  0  0  0  0  0  0  0  0  0  0  0
    4.9735  -15.2517   21.8624 N   0  0  0  0  0  0  0  0  0  0  0  0
    8.7158  -17.8426   25.4753 C   0  0  2  0  0  0  0  0  0  0  0  0
    8.9000  -18.9554   26.4262 C   0  0  0  0  0  0  0  0  0  0  0  0
    9.7005  -18.3699   27.5362 C   0  0  0  0  0  0  0  0  0  0  0  0
   10.0337  -19.3330   28.6171 C   0  0  0  0  0  0  0  0  0  0  0  0
   10.9145  -18.7689   29.6703 O   0  0  0  0  0  0  0  0  0  0  0  0
   10.4385  -17.8460   30.3976 C   0  0  0  0  0  0  0  0  0  0  0  0
    7.6431  -19.6020   26.7041 O   0  0  0  0  0  0  0  0  0  0  0  0
    7.5748  -20.9452   27.1152 O   0  0  0  0  0  0  0  0  0  0  0  0
   12.2023  -19.1700   29.9155 O   0  0  0  0  0  0  0  0  0  0  0  0
  2  3  2  0
  2  1  1  0
  4  2  1  0
  5  4  1  0
  6  5  1  0
  7  6  1  0
  8  7  1  0
  8  9  1  6
 10  8  1  0
 10 11  2  0
 12 10  1  0
 13 12  1  0
 13 14  1  1
 14 15  1  0
 15 16  2  0
 15 19  1  0
 17 13  1  0
 18 17  2  0
 20 17  1  0
 21 20  1  0
 21 22  1  6
 23 22  1  0
 24 23  1  0
 24 25  2  0
 26 21  1  0
 26 27  1  0
 28 24  1  0
 29 26  2  0
M  END
$$$$
