RDE.pdb
     RDKit          3D

 29 28  0  0  1  0  0  0  0  0999 V2000
    6.8385  -13.4786   18.2159 N   0  0  0  0  0  0  0  0  0  0  0  0
    6.2347  -13.2580   19.4850 C   0  0  0  0  0  0  0  0  0  0  0  0
    4.9429  -13.1257   19.5353 N   0  0  0  0  0  0  0  0  0  0  0  0
    7.0347  -13.1868   20.6479 N   0  0  0  0  0  0  0  0  0  0  0  0
    8.4043  -12.7460   20.5710 C   0  0  0  0  0  0  0  0  0  0  0  0
    9.0400  -13.4633   19.4222 C   0  0  0  0  0  0  0  0  0  0  0  0
   10.5225  -13.1837   19.2830 C   0  0  0  0  0  0  0  0  0  0  0  0
   11.0168  -14.0128   18.1143 C   0  0  2  0  0  0  0  0  0  0  0  0
    9.9160  -14.8681   17.7077 N   0  0  0  0  0  0  0  0  0  0  0  0
   12.2287  -14.8002   18.4548 C   0  0  0  0  0  0  0  0  0  0  0  0
   12.1276  -15.9319   18.9691 O   0  0  0  0  0  0  0  0  0  0  0  0
    4.4824  -12.8954   20.4258 N   0  0  0  0  0  0  0  0  0  0  0  0
   13.5043  -14.2821   18.2021 C   0  0  2  0  0  0  0  0  0  0  0  0
   14.7509  -14.8895   18.6513 C   0  0  0  0  0  0  0  0  0  0  0  0
   15.8207  -14.1810   17.8508 C   0  0  0  0  0  0  0  0  0  0  0  0
   17.1204  -14.8030   18.2007 O   0  0  0  0  0  0  0  0  0  0  0  0
   18.1209  -14.0469   18.4560 C   0  0  0  0  0  0  0  0  0  0  0  0
   14.8636  -14.7251   20.1022 O   0  0  0  0  0  0  0  0  0  0  0  0
   14.9271  -13.5649   20.5799 O   0  0  0  0  0  0  0  0  0  0  0  0
   17.3190  -16.1719   18.2655 N   0  0  0  0  0  0  0  0  0  0  0  0
   14.8993  -15.8396   20.9391 C   0  0  2  0  0  0  0  0  0  0  0  0
   15.1093  -15.6749   22.3900 C   0  0  0  0  0  0  0  0  0  0  0  0
   14.0873  -16.5564   23.0180 C   0  0  0  0  0  0  0  0  0  0  0  0
   12.7020  -16.0245   22.9475 C   0  0  0  0  0  0  0  0  0  0  0  0
   11.6786  -16.9462   23.5008 O   0  0  0  0  0  0  0  0  0  0  0  0
   11.6992  -17.1602   24.7503 C   0  0  0  0  0  0  0  0  0  0  0  0
   16.5018  -15.8300   22.7246 O   0  0  0  0  0  0  0  0  0  0  0  0
   17.0021  -15.4896   23.9940 O   0  0  0  0  0  0  0  0  0  0  0  0
   10.7138  -17.5828   22.7636 O   0  0  0  0  0  0  0  0  0  0  0  0
  2  3  2  0
  2  1  1  0
  4  2  1  0
  5  4  1  0
  6  5  1  0
  7  6  1  0
  8  7  1  0
  8  9  1  1
 10  8  1  0
 10 11  2  0
 12 10  1  0
 13 12  1  0
 13 14  1  6
 14 15  1  0
 15 16  2  0
 15 19  1  0
 17 13  1  0
 18 17  2  0
 20 17  1  0
 21 20  1  0
 21 22  1  6
 23 22  1  0
 24 23  1  0
 24 25  2  0
 26 21  1  0
 26 27  1  0
 28 24  1  0
 29 26  2  0
M  END
$$$$
