RDE.pdb
     RDKit          3D

 29 28  0  0  1  0  0  0  0  0999 V2000
    8.4066  -13.6250   21.2439 N   0  0  0  0  0  0  0  0  0  0  0  0
    8.1502  -13.1529   19.9266 C   0  0  0  0  0  0  0  0  0  0  0  0
    8.1276  -11.8687   19.7287 N   0  0  0  0  0  0  0  0  0  0  0  0
    7.9275  -14.0708   18.8754 N   0  0  0  0  0  0  0  0  0  0  0  0
    7.9444  -15.4899   19.1239 C   0  0  0  0  0  0  0  0  0  0  0  0
    9.0810  -16.0665   18.3404 C   0  0  0  0  0  0  0  0  0  0  0  0
   10.3709  -16.1604   19.1297 C   0  0  0  0  0  0  0  0  0  0  0  0
   10.3193  -17.4652   19.8995 C   0  0  2  0  0  0  0  0  0  0  0  0
    8.9337  -17.8990   19.9031 N   0  0  0  0  0  0  0  0  0  0  0  0
   10.8567  -17.3281   21.2769 C   0  0  0  0  0  0  0  0  0  0  0  0
   12.0269  -16.9408   21.4669 O   0  0  0  0  0  0  0  0  0  0  0  0
    7.9292  -11.4950   18.7911 N   0  0  0  0  0  0  0  0  0  0  0  0
   10.0552  -17.6317   22.3837 C   0  0  1  0  0  0  0  0  0  0  0  0
   10.4740  -17.4985   23.7734 C   0  0  0  0  0  0  0  0  0  0  0  0
    9.2326  -17.8307   24.5706 C   0  0  0  0  0  0  0  0  0  0  0  0
    8.7355  -16.5658   25.1637 O   0  0  0  0  0  0  0  0  0  0  0  0
    9.4384  -15.5037   25.0380 C   0  0  0  0  0  0  0  0  0  0  0  0
   11.6115  -18.3890   24.0142 O   0  0  0  0  0  0  0  0  0  0  0  0
   11.7211  -19.4353   23.3276 O   0  0  0  0  0  0  0  0  0  0  0  0
    7.5412  -16.4652   25.8573 N   0  0  0  0  0  0  0  0  0  0  0  0
   12.5577  -18.0789   24.9902 C   0  0  2  0  0  0  0  0  0  0  0  0
   13.7155  -18.9654   25.2132 C   0  0  0  0  0  0  0  0  0  0  0  0
   14.7060  -18.5536   24.1811 C   0  0  0  0  0  0  0  0  0  0  0  0
   15.2937  -17.2082   24.4076 C   0  0  0  0  0  0  0  0  0  0  0  0
   16.2896  -16.8101   23.3814 O   0  0  0  0  0  0  0  0  0  0  0  0
   17.3716  -16.2894   23.7881 C   0  0  0  0  0  0  0  0  0  0  0  0
   14.0857  -18.9804   26.6053 O   0  0  0  0  0  0  0  0  0  0  0  0
   15.0980  -19.8250   27.0947 O   0  0  0  0  0  0  0  0  0  0  0  0
   16.1278  -16.9630   22.0287 O   0  0  0  0  0  0  0  0  0  0  0  0
  2  3  2  0
  2  1  1  0
  4  2  1  0
  5  4  1  0
  6  5  1  0
  7  6  1  0
  8  7  1  0
  8  9  1  1
 10  8  1  0
 10 11  2  0
 12 10  1  0
 13 12  1  0
 13 14  1  6
 14 15  1  0
 15 16  2  0
 15 19  1  0
 17 13  1  0
 18 17  2  0
 20 17  1  0
 21 20  1  0
 21 22  1  6
 23 22  1  0
 24 23  1  0
 24 25  2  0
 26 21  1  0
 26 27  1  0
 28 24  1  0
 29 26  2  0
M  END
$$$$
