RDE.pdb
     RDKit          3D

 29 28  0  0  1  0  0  0  0  0999 V2000
    7.2960  -13.7666   24.0837 N   0  0  0  0  0  0  0  0  0  0  0  0
    8.1807  -14.5843   23.3271 C   0  0  0  0  0  0  0  0  0  0  0  0
    9.3076  -14.9356   23.8708 N   0  0  0  0  0  0  0  0  0  0  0  0
    7.8266  -14.9925   22.0213 N   0  0  0  0  0  0  0  0  0  0  0  0
    8.6848  -14.6981   20.9020 C   0  0  0  0  0  0  0  0  0  0  0  0
    7.8629  -13.9629   19.8909 C   0  0  0  0  0  0  0  0  0  0  0  0
    8.6252  -12.8650   19.1776 C   0  0  0  0  0  0  0  0  0  0  0  0
    9.2202  -13.4850   17.9289 C   0  0  2  0  0  0  0  0  0  0  0  0
    8.1319  -14.1339   17.2197 N   0  0  0  0  0  0  0  0  0  0  0  0
   10.3181  -14.4350   18.2400 C   0  0  0  0  0  0  0  0  0  0  0  0
   10.1416  -15.6655   18.1390 O   0  0  0  0  0  0  0  0  0  0  0  0
    9.9802  -15.5056   23.3409 N   0  0  0  0  0  0  0  0  0  0  0  0
   11.5695  -13.9614   18.6514 C   0  0  1  0  0  0  0  0  0  0  0  0
   12.6973  -14.8080   19.0198 C   0  0  0  0  0  0  0  0  0  0  0  0
   13.9088  -14.0548   18.5178 C   0  0  0  0  0  0  0  0  0  0  0  0
   15.0945  -14.9120   18.7589 O   0  0  0  0  0  0  0  0  0  0  0  0
   14.9435  -16.1822   18.7990 C   0  0  0  0  0  0  0  0  0  0  0  0
   12.6720  -15.0297   20.4673 O   0  0  0  0  0  0  0  0  0  0  0  0
   12.9192  -14.0662   21.2347 O   0  0  0  0  0  0  0  0  0  0  0  0
   16.3720  -14.4124   18.9488 N   0  0  0  0  0  0  0  0  0  0  0  0
   12.3775  -16.2907   20.9841 C   0  0  2  0  0  0  0  0  0  0  0  0
   12.3998  -16.5220   22.4409 C   0  0  0  0  0  0  0  0  0  0  0  0
   11.4932  -17.6843   22.6487 C   0  0  0  0  0  0  0  0  0  0  0  0
   11.4336  -18.1632   24.0537 C   0  0  0  0  0  0  0  0  0  0  0  0
   10.5615  -19.3490   24.2449 O   0  0  0  0  0  0  0  0  0  0  0  0
   10.6353  -20.2740   23.3810 C   0  0  0  0  0  0  0  0  0  0  0  0
   13.7541  -16.5650   22.9298 O   0  0  0  0  0  0  0  0  0  0  0  0
   14.0802  -16.1896   24.2453 O   0  0  0  0  0  0  0  0  0  0  0  0
    9.6834  -19.5193   25.2838 O   0  0  0  0  0  0  0  0  0  0  0  0
  2  3  2  0
  2  1  1  0
  4  2  1  0
  5  4  1  0
  6  5  1  0
  7  6  1  0
  8  7  1  0
  8  9  1  1
 10  8  1  0
 10 11  2  0
 12 10  1  0
 13 12  1  0
 13 14  1  1
 14 15  1  0
 15 16  2  0
 15 19  1  0
 17 13  1  0
 18 17  2  0
 20 17  1  0
 21 20  1  0
 21 22  1  6
 23 22  1  0
 24 23  1  0
 24 25  2  0
 26 21  1  0
 26 27  1  0
 28 24  1  0
 29 26  2  0
M  END
$$$$
