RDE.pdb
     RDKit          3D

 29 28  0  0  1  0  0  0  0  0999 V2000
    6.8496  -12.6733   22.3509 N   0  0  0  0  0  0  0  0  0  0  0  0
    7.4534  -12.4763   21.0780 C   0  0  0  0  0  0  0  0  0  0  0  0
    7.9056  -11.2925   20.7900 N   0  0  0  0  0  0  0  0  0  0  0  0
    7.5486  -13.5506   20.1647 N   0  0  0  0  0  0  0  0  0  0  0  0
    7.9926  -13.3274   18.8123 C   0  0  0  0  0  0  0  0  0  0  0  0
    9.4848  -13.4347   18.8092 C   0  0  0  0  0  0  0  0  0  0  0  0
   10.0044  -14.6371   19.5706 C   0  0  0  0  0  0  0  0  0  0  0  0
   11.5172  -14.5863   19.4900 C   0  0  2  0  0  0  0  0  0  0  0  0
   11.8662  -14.6121   18.0809 N   0  0  0  0  0  0  0  0  0  0  0  0
   12.1586  -15.6983   20.2363 C   0  0  0  0  0  0  0  0  0  0  0  0
   11.8507  -15.9282   21.4229 O   0  0  0  0  0  0  0  0  0  0  0  0
    8.4211  -11.1366   19.9135 N   0  0  0  0  0  0  0  0  0  0  0  0
   13.1194  -16.5060   19.6168 C   0  0  1  0  0  0  0  0  0  0  0  0
   13.6640  -17.7327   20.1852 C   0  0  0  0  0  0  0  0  0  0  0  0
   14.7022  -18.1805   19.1808 C   0  0  0  0  0  0  0  0  0  0  0  0
   14.5138  -19.6358   18.9681 O   0  0  0  0  0  0  0  0  0  0  0  0
   13.5853  -20.2409   19.6081 C   0  0  0  0  0  0  0  0  0  0  0  0
   14.1906  -17.4443   21.5211 O   0  0  0  0  0  0  0  0  0  0  0  0
   14.9799  -16.4780   21.6684 O   0  0  0  0  0  0  0  0  0  0  0  0
   15.2955  -20.3894   18.1087 N   0  0  0  0  0  0  0  0  0  0  0  0
   13.8204  -18.2303   22.6116 C   0  0  2  0  0  0  0  0  0  0  0  0
   14.3822  -17.9605   23.9487 C   0  0  0  0  0  0  0  0  0  0  0  0
   13.1978  -17.6550   24.7971 C   0  0  0  0  0  0  0  0  0  0  0  0
   12.2821  -18.8074   24.9976 C   0  0  0  0  0  0  0  0  0  0  0  0
   11.1655  -18.5281   25.9349 O   0  0  0  0  0  0  0  0  0  0  0  0
   11.2578  -17.4935   26.6619 C   0  0  0  0  0  0  0  0  0  0  0  0
   15.2997  -19.0014   24.3358 O   0  0  0  0  0  0  0  0  0  0  0  0
   16.0714  -18.9119   25.5081 O   0  0  0  0  0  0  0  0  0  0  0  0
   10.0434  -19.3033   26.0735 O   0  0  0  0  0  0  0  0  0  0  0  0
  2  3  2  0
  2  1  1  0
  4  2  1  0
  5  4  1  0
  6  5  1  0
  7  6  1  0
  8  7  1  0
  8  9  1  6
 10  8  1  0
 10 11  2  0
 12 10  1  0
 13 12  1  0
 13 14  1  1
 14 15  1  0
 15 16  2  0
 15 19  1  0
 17 13  1  0
 18 17  2  0
 20 17  1  0
 21 20  1  0
 21 22  1  6
 23 22  1  0
 24 23  1  0
 24 25  2  0
 26 21  1  0
 26 27  1  0
 28 24  1  0
 29 26  2  0
M  END
$$$$
