RDE.pdb
     RDKit          3D

 29 28  0  0  1  0  0  0  0  0999 V2000
    8.3246  -13.1272   16.5812 N   0  0  0  0  0  0  0  0  0  0  0  0
    7.9178  -13.2531   17.9385 C   0  0  0  0  0  0  0  0  0  0  0  0
    8.4061  -12.4172   18.8054 N   0  0  0  0  0  0  0  0  0  0  0  0
    7.0075  -14.2665   18.3146 N   0  0  0  0  0  0  0  0  0  0  0  0
    7.0131  -14.7986   19.6536 C   0  0  0  0  0  0  0  0  0  0  0  0
    8.2220  -15.6704   19.7822 C   0  0  0  0  0  0  0  0  0  0  0  0
    8.3766  -16.2876   21.1572 C   0  0  0  0  0  0  0  0  0  0  0  0
    9.7206  -15.8346   21.6921 C   0  0  2  0  0  0  0  0  0  0  0  0
   10.6909  -16.0499   20.6336 N   0  0  0  0  0  0  0  0  0  0  0  0
   10.0995  -16.5461   22.9391 C   0  0  0  0  0  0  0  0  0  0  0  0
    9.3119  -16.5994   23.9047 O   0  0  0  0  0  0  0  0  0  0  0  0
    8.2153  -12.5441   19.8083 N   0  0  0  0  0  0  0  0  0  0  0  0
   11.3484  -17.1688   23.0480 C   0  0  1  0  0  0  0  0  0  0  0  0
   11.7951  -17.9367   24.2036 C   0  0  0  0  0  0  0  0  0  0  0  0
   13.2272  -18.2990   23.8797 C   0  0  0  0  0  0  0  0  0  0  0  0
   13.1971  -19.2480   22.7407 O   0  0  0  0  0  0  0  0  0  0  0  0
   12.3221  -20.1819   22.7347 C   0  0  0  0  0  0  0  0  0  0  0  0
   11.6284  -17.1215   25.4088 O   0  0  0  0  0  0  0  0  0  0  0  0
   12.3020  -16.0678   25.5285 O   0  0  0  0  0  0  0  0  0  0  0  0
   14.0737  -19.1845   21.6705 N   0  0  0  0  0  0  0  0  0  0  0  0
   10.7355  -17.5097   26.4068 C   0  0  1  0  0  0  0  0  0  0  0  0
   10.6019  -16.7094   27.6388 C   0  0  0  0  0  0  0  0  0  0  0  0
    9.2629  -16.0691   27.5253 C   0  0  0  0  0  0  0  0  0  0  0  0
    8.9281  -15.1598   28.6514 C   0  0  0  0  0  0  0  0  0  0  0  0
    9.4310  -13.7749   28.4715 O   0  0  0  0  0  0  0  0  0  0  0  0
    8.7174  -12.9778   27.7912 C   0  0  0  0  0  0  0  0  0  0  0  0
   10.9296  -17.4993   28.7981 O   0  0  0  0  0  0  0  0  0  0  0  0
   11.3371  -16.9084   30.0074 O   0  0  0  0  0  0  0  0  0  0  0  0
   10.6073  -13.2932   28.9850 O   0  0  0  0  0  0  0  0  0  0  0  0
  2  3  2  0
  2  1  1  0
  4  2  1  0
  5  4  1  0
  6  5  1  0
  7  6  1  0
  8  7  1  0
  8  9  1  6
 10  8  1  0
 10 11  2  0
 12 10  1  0
 13 12  1  0
 13 14  1  1
 14 15  1  0
 15 16  2  0
 15 19  1  0
 17 13  1  0
 18 17  2  0
 20 17  1  0
 21 20  1  0
 21 22  1  1
 23 22  1  0
 24 23  1  0
 24 25  2  0
 26 21  1  0
 26 27  1  0
 28 24  1  0
 29 26  2  0
M  END
$$$$
