RDE.pdb
     RDKit          3D

 29 28  0  0  1  0  0  0  0  0999 V2000
    7.7416  -13.4623   21.5383 N   0  0  0  0  0  0  0  0  0  0  0  0
    7.9368  -13.0887   20.1796 C   0  0  0  0  0  0  0  0  0  0  0  0
    7.6364  -11.8743   19.8280 N   0  0  0  0  0  0  0  0  0  0  0  0
    8.4435  -14.0270   19.2522 N   0  0  0  0  0  0  0  0  0  0  0  0
    9.2973  -15.1027   19.6880 C   0  0  0  0  0  0  0  0  0  0  0  0
    8.4247  -16.2926   19.9351 C   0  0  0  0  0  0  0  0  0  0  0  0
    8.3779  -16.7141   21.3896 C   0  0  0  0  0  0  0  0  0  0  0  0
    9.7952  -17.0763   21.7866 C   0  0  2  0  0  0  0  0  0  0  0  0
   10.2160  -18.1560   20.9117 N   0  0  0  0  0  0  0  0  0  0  0  0
    9.8996  -17.4557   23.2183 C   0  0  0  0  0  0  0  0  0  0  0  0
    9.2374  -16.8519   24.0857 O   0  0  0  0  0  0  0  0  0  0  0  0
    7.6891  -11.5958   18.8391 N   0  0  0  0  0  0  0  0  0  0  0  0
   10.7443  -18.4991   23.6151 C   0  0  1  0  0  0  0  0  0  0  0  0
   10.9522  -18.9197   24.9951 C   0  0  0  0  0  0  0  0  0  0  0  0
   12.0788  -19.9253   24.9128 C   0  0  0  0  0  0  0  0  0  0  0  0
   12.3526  -20.3973   26.2916 O   0  0  0  0  0  0  0  0  0  0  0  0
   11.3742  -20.5385   27.1044 C   0  0  0  0  0  0  0  0  0  0  0  0
   11.2444  -17.7400   25.8123 O   0  0  0  0  0  0  0  0  0  0  0  0
   12.1929  -16.9874   25.4771 O   0  0  0  0  0  0  0  0  0  0  0  0
   13.6217  -20.6952   26.7588 N   0  0  0  0  0  0  0  0  0  0  0  0
   10.4807  -17.4574   26.9441 C   0  0  2  0  0  0  0  0  0  0  0  0
   10.7465  -16.2424   27.7374 C   0  0  0  0  0  0  0  0  0  0  0  0
    9.6421  -15.3117   27.3771 C   0  0  0  0  0  0  0  0  0  0  0  0
    9.7751  -13.9552   27.9681 C   0  0  0  0  0  0  0  0  0  0  0  0
    8.7089  -13.0122   27.5470 O   0  0  0  0  0  0  0  0  0  0  0  0
    7.8718  -12.6464   28.4261 C   0  0  0  0  0  0  0  0  0  0  0  0
   10.9887  -16.5772   29.1174 O   0  0  0  0  0  0  0  0  0  0  0  0
   11.6981  -15.7183   29.9757 O   0  0  0  0  0  0  0  0  0  0  0  0
    8.5613  -12.5076   26.2810 O   0  0  0  0  0  0  0  0  0  0  0  0
  2  3  2  0
  2  1  1  0
  4  2  1  0
  5  4  1  0
  6  5  1  0
  7  6  1  0
  8  7  1  0
  8  9  1  6
 10  8  1  0
 10 11  2  0
 12 10  1  0
 13 12  1  0
 13 14  1  1
 14 15  1  0
 15 16  2  0
 15 19  1  0
 17 13  1  0
 18 17  2  0
 20 17  1  0
 21 20  1  0
 21 22  1  1
 23 22  1  0
 24 23  1  0
 24 25  2  0
 26 21  1  0
 26 27  1  0
 28 24  1  0
 29 26  2  0
M  END
$$$$
