RDE.pdb
     RDKit          3D

 29 28  0  0  1  0  0  0  0  0999 V2000
    8.7568  -13.4393   17.9654 N   0  0  0  0  0  0  0  0  0  0  0  0
    8.2133  -13.1659   19.2514 C   0  0  0  0  0  0  0  0  0  0  0  0
    8.4676  -12.0120   19.7923 N   0  0  0  0  0  0  0  0  0  0  0  0
    7.4218  -14.1357   19.9073 N   0  0  0  0  0  0  0  0  0  0  0  0
    7.9246  -15.4681   20.1259 C   0  0  0  0  0  0  0  0  0  0  0  0
    6.8670  -16.2289   20.8614 C   0  0  0  0  0  0  0  0  0  0  0  0
    7.2878  -17.6347   21.2384 C   0  0  0  0  0  0  0  0  0  0  0  0
    6.0947  -18.2833   21.9119 C   0  0  2  0  0  0  0  0  0  0  0  0
    4.9366  -17.4653   21.5986 N   0  0  0  0  0  0  0  0  0  0  0  0
    6.2854  -18.4290   23.3772 C   0  0  0  0  0  0  0  0  0  0  0  0
    5.8788  -17.5488   24.1616 O   0  0  0  0  0  0  0  0  0  0  0  0
    8.0985  -11.7875   20.7258 N   0  0  0  0  0  0  0  0  0  0  0  0
    6.9253  -19.5592   23.8995 C   0  0  1  0  0  0  0  0  0  0  0  0
    7.2254  -19.7651   25.3108 C   0  0  0  0  0  0  0  0  0  0  0  0
    6.6519  -21.1301   25.6189 C   0  0  0  0  0  0  0  0  0  0  0  0
    6.9965  -21.4481   27.0256 O   0  0  0  0  0  0  0  0  0  0  0  0
    6.8341  -20.5494   27.9221 C   0  0  0  0  0  0  0  0  0  0  0  0
    8.6718  -19.6506   25.5105 O   0  0  0  0  0  0  0  0  0  0  0  0
    9.4306  -20.4824   24.9532 O   0  0  0  0  0  0  0  0  0  0  0  0
    7.4932  -22.6753   27.4314 N   0  0  0  0  0  0  0  0  0  0  0  0
    9.1971  -18.6334   26.3064 C   0  0  1  0  0  0  0  0  0  0  0  0
   10.6418  -18.5900   26.6018 C   0  0  0  0  0  0  0  0  0  0  0  0
   11.1254  -17.3571   25.9221 C   0  0  0  0  0  0  0  0  0  0  0  0
   11.3195  -17.5088   24.4571 C   0  0  0  0  0  0  0  0  0  0  0  0
   11.9106  -16.3134   23.8052 O   0  0  0  0  0  0  0  0  0  0  0  0
   11.1622  -15.3016   23.6512 C   0  0  0  0  0  0  0  0  0  0  0  0
   10.8804  -18.7804   28.0096 O   0  0  0  0  0  0  0  0  0  0  0  0
    9.8362  -18.7430   28.9507 O   0  0  0  0  0  0  0  0  0  0  0  0
   13.2031  -16.2209   23.3577 O   0  0  0  0  0  0  0  0  0  0  0  0
  2  3  2  0
  2  1  1  0
  4  2  1  0
  5  4  1  0
  6  5  1  0
  7  6  1  0
  8  7  1  0
  8  9  1  1
 10  8  1  0
 10 11  2  0
 12 10  1  0
 13 12  1  0
 13 14  1  6
 14 15  1  0
 15 16  2  0
 15 19  1  0
 17 13  1  0
 18 17  2  0
 20 17  1  0
 21 20  1  0
 21 22  1  1
 23 22  1  0
 24 23  1  0
 24 25  2  0
 26 21  1  0
 26 27  1  0
 28 24  1  0
 29 26  2  0
M  END
$$$$
