YHK.pdb
     RDKit          3D

 32 33  0  0  1  0  0  0  0  0999 V2000
   22.9479  -21.7842   -5.8709 O   0  0  0  0  0  0  0  0  0  0  0  0
   23.6416  -21.5017   -7.0457 C   0  0  0  0  0  0  0  0  0  0  0  0
   24.9814  -21.1618   -6.9558 C   0  0  0  0  0  0  0  0  0  0  0  0
   25.6372  -20.8886   -8.1368 C   0  0  0  0  0  0  0  0  0  0  0  0
   25.0120  -20.9449   -9.3520 C   0  0  0  0  0  0  0  0  0  0  0  0
   25.6842  -20.6588  -10.6336 C   0  0  0  0  0  0  0  0  0  0  0  0
   24.7215  -20.8065  -11.8190 C   0  0  2  0  0  0  0  0  0  0  0  0
   24.4919  -22.2292  -11.9839 N   0  0  0  0  0  0  0  0  0  0  0  0
   25.4611  -20.3152  -13.0085 C   0  0  0  0  0  0  0  0  0  0  0  0
   26.0456  -19.1878  -13.0085 O   0  0  0  0  0  0  0  0  0  0  0  0
   23.6669  -21.2895   -9.4040 C   0  0  0  0  0  0  0  0  0  0  0  0
   22.9747  -21.5708   -8.2392 C   0  0  0  0  0  0  0  0  0  0  0  0
   25.5699  -21.0596  -14.2223 N   0  0  0  0  0  0  0  0  0  0  0  0
   26.2437  -20.5317  -15.3917 C   0  0  1  0  0  0  0  0  0  0  0  0
   26.9788  -21.6904  -16.0716 C   0  0  0  0  0  0  0  0  0  0  0  0
   27.7325  -21.2354  -17.2489 C   0  0  0  0  0  0  0  0  0  0  0  0
   28.9322  -20.5994  -17.3129 C   0  0  0  0  0  0  0  0  0  0  0  0
   29.2501  -20.3687  -18.6065 N   0  0  0  0  0  0  0  0  0  0  0  0
   28.2348  -20.8696  -19.3170 C   0  0  0  0  0  0  0  0  0  0  0  0
   27.2970  -21.4030  -18.5241 N   0  0  0  0  0  0  0  0  0  0  0  0
   25.2720  -19.9950  -16.3834 C   0  0  0  0  0  0  0  0  0  0  0  0
   24.1411  -20.5403  -16.4421 O   0  0  0  0  0  0  0  0  0  0  0  0
   25.5466  -18.9263  -17.2460 N   0  0  0  0  0  0  0  0  0  0  0  0
   24.5760  -18.4225  -18.1853 C   0  0  1  0  0  0  0  0  0  0  0  0
   24.5796  -16.9394  -18.3180 C   0  0  0  0  0  0  0  0  0  0  0  0
   23.5481  -16.3258  -19.1800 C   0  0  0  0  0  0  0  0  0  0  0  0
   23.5521  -14.8419  -19.2505 C   0  0  0  0  0  0  0  0  0  0  0  0
   22.4750  -14.3663  -20.2064 C   0  0  0  0  0  0  0  0  0  0  0  0
   22.3309  -12.9474  -20.2373 N   0  0  0  0  0  0  0  0  0  0  0  0
   24.5721  -19.1439  -19.4600 C   0  0  0  0  0  0  0  0  0  0  0  0
   25.5961  -19.2944  -20.1709 O   0  0  0  0  0  0  0  0  0  0  0  0
   23.3923  -19.6970  -19.9265 O   0  0  0  0  0  0  0  0  0  0  0  0
  2  1  1  0
  3  2  2  0
  4  3  1  0
  5 11  1  0
  5  4  2  0
  6  5  1  0
  7  8  1  6
  7  6  1  0
  9 13  1  0
  9  7  1  0
 10  9  2  0
 11 12  2  0
 12  2  1  0
 14 13  1  0
 14 15  1  6
 15 16  1  0
 16 17  2  0
 17 18  1  0
 19 18  1  0
 20 16  1  0
 20 19  2  0
 21 14  1  0
 22 21  2  0
 23 21  1  0
 24 30  1  0
 24 23  1  0
 24 25  1  6
 26 25  1  0
 27 26  1  0
 27 28  1  0
 29 28  1  0
 30 32  1  0
 31 30  2  0
M  END
$$$$
