YHK.pdb
     RDKit          3D

 32 33  0  0  1  0  0  0  0  0999 V2000
   23.3177  -11.6104  -20.8980 O   0  0  0  0  0  0  0  0  0  0  0  0
   23.1939  -12.8851  -20.3495 C   0  0  0  0  0  0  0  0  0  0  0  0
   23.4358  -13.0477  -18.9954 C   0  0  0  0  0  0  0  0  0  0  0  0
   23.3044  -14.3214  -18.4857 C   0  0  0  0  0  0  0  0  0  0  0  0
   22.9522  -15.3894  -19.2644 C   0  0  0  0  0  0  0  0  0  0  0  0
   22.8029  -16.7642  -18.7510 C   0  0  0  0  0  0  0  0  0  0  0  0
   24.1624  -17.4591  -18.5999 C   0  0  2  0  0  0  0  0  0  0  0  0
   24.5919  -17.8120  -19.9397 N   0  0  0  0  0  0  0  0  0  0  0  0
   23.8982  -18.7136  -17.8520 C   0  0  0  0  0  0  0  0  0  0  0  0
   23.4907  -19.7636  -18.4386 O   0  0  0  0  0  0  0  0  0  0  0  0
   22.7172  -15.1889  -20.6191 C   0  0  0  0  0  0  0  0  0  0  0  0
   22.8392  -13.9241  -21.1673 C   0  0  0  0  0  0  0  0  0  0  0  0
   24.0788  -18.8337  -16.4405 N   0  0  0  0  0  0  0  0  0  0  0  0
   23.7998  -20.0658  -15.7304 C   0  0  1  0  0  0  0  0  0  0  0  0
   24.8277  -20.1998  -14.6032 C   0  0  0  0  0  0  0  0  0  0  0  0
   24.6228  -21.4326  -13.8290 C   0  0  0  0  0  0  0  0  0  0  0  0
   23.6593  -22.3829  -13.9582 C   0  0  0  0  0  0  0  0  0  0  0  0
   23.8536  -23.3486  -13.0321 N   0  0  0  0  0  0  0  0  0  0  0  0
   24.9382  -22.9719  -12.3478 C   0  0  0  0  0  0  0  0  0  0  0  0
   25.4297  -21.8138  -12.8056 N   0  0  0  0  0  0  0  0  0  0  0  0
   22.4570  -20.0319  -15.0891 C   0  0  0  0  0  0  0  0  0  0  0  0
   22.1707  -19.0246  -14.3939 O   0  0  0  0  0  0  0  0  0  0  0  0
   21.5048  -21.0510  -15.2167 N   0  0  0  0  0  0  0  0  0  0  0  0
   20.1638  -20.9243  -14.7030 C   0  0  1  0  0  0  0  0  0  0  0  0
   19.2118  -21.9304  -15.2495 C   0  0  0  0  0  0  0  0  0  0  0  0
   17.8006  -21.8428  -14.8200 C   0  0  0  0  0  0  0  0  0  0  0  0
   16.8613  -22.7997  -15.4595 C   0  0  0  0  0  0  0  0  0  0  0  0
   15.4663  -22.6107  -14.8954 C   0  0  0  0  0  0  0  0  0  0  0  0
   14.5028  -23.5010  -15.4559 N   0  0  0  0  0  0  0  0  0  0  0  0
   20.1114  -20.7700  -13.2474 C   0  0  0  0  0  0  0  0  0  0  0  0
   20.8483  -21.4112  -12.4585 O   0  0  0  0  0  0  0  0  0  0  0  0
   19.2123  -19.8786  -12.6885 O   0  0  0  0  0  0  0  0  0  0  0  0
  2  1  1  0
  3  2  2  0
  4  3  1  0
  5 11  1  0
  5  4  2  0
  6  5  1  0
  7  8  1  6
  7  6  1  0
  9 13  1  0
  9  7  1  0
 10  9  2  0
 11 12  2  0
 12  2  1  0
 14 13  1  0
 14 15  1  1
 15 16  1  0
 16 17  2  0
 17 18  1  0
 19 18  1  0
 20 16  1  0
 20 19  2  0
 21 14  1  0
 22 21  2  0
 23 21  1  0
 24 30  1  0
 24 23  1  0
 24 25  1  1
 26 25  1  0
 27 26  1  0
 27 28  1  0
 29 28  1  0
 30 32  1  0
 31 30  2  0
M  END
$$$$
