YHK.pdb
     RDKit          3D

 32 33  0  0  1  0  0  0  0  0999 V2000
   31.0562  -22.8806  -23.0583 O   0  0  0  0  0  0  0  0  0  0  0  0
   31.7569  -23.9722  -22.5498 C   0  0  0  0  0  0  0  0  0  0  0  0
   32.2950  -24.8851  -23.4418 C   0  0  0  0  0  0  0  0  0  0  0  0
   32.9817  -25.9527  -22.9051 C   0  0  0  0  0  0  0  0  0  0  0  0
   33.1360  -26.1212  -21.5564 C   0  0  0  0  0  0  0  0  0  0  0  0
   33.8645  -27.2515  -20.9498 C   0  0  0  0  0  0  0  0  0  0  0  0
   35.2890  -26.8505  -20.5452 C   0  0  2  0  0  0  0  0  0  0  0  0
   36.0590  -26.7845  -21.7727 N   0  0  0  0  0  0  0  0  0  0  0  0
   35.8127  -27.9743  -19.7291 C   0  0  0  0  0  0  0  0  0  0  0  0
   36.3261  -29.0034  -20.2673 O   0  0  0  0  0  0  0  0  0  0  0  0
   32.5826  -25.1854  -20.6913 C   0  0  0  0  0  0  0  0  0  0  0  0
   31.8860  -24.0999  -21.1929 C   0  0  0  0  0  0  0  0  0  0  0  0
   35.7797  -27.9838  -18.3014 N   0  0  0  0  0  0  0  0  0  0  0  0
   36.3376  -29.0732  -17.5255 C   0  0  1  0  0  0  0  0  0  0  0  0
   36.2926  -28.6679  -16.0494 C   0  0  0  0  0  0  0  0  0  0  0  0
   36.7774  -29.7477  -15.1776 C   0  0  0  0  0  0  0  0  0  0  0  0
   37.2646  -30.9725  -15.5101 C   0  0  0  0  0  0  0  0  0  0  0  0
   37.5944  -31.6456  -14.3850 N   0  0  0  0  0  0  0  0  0  0  0  0
   37.3023  -30.8178  -13.3770 C   0  0  0  0  0  0  0  0  0  0  0  0
   36.8047  -29.6577  -13.8230 N   0  0  0  0  0  0  0  0  0  0  0  0
   35.5206  -30.3103  -17.6591 C   0  0  0  0  0  0  0  0  0  0  0  0
   34.2705  -30.1812  -17.6801 O   0  0  0  0  0  0  0  0  0  0  0  0
   36.0636  -31.5973  -17.7615 N   0  0  0  0  0  0  0  0  0  0  0  0
   35.2501  -32.7618  -18.0073 C   0  0  1  0  0  0  0  0  0  0  0  0
   34.6449  -32.7976  -19.3673 C   0  0  0  0  0  0  0  0  0  0  0  0
   33.7521  -33.9299  -19.6906 C   0  0  0  0  0  0  0  0  0  0  0  0
   33.1615  -33.9292  -21.0537 C   0  0  0  0  0  0  0  0  0  0  0  0
   32.1993  -35.0921  -21.2014 C   0  0  0  0  0  0  0  0  0  0  0  0
   31.5117  -35.1037  -22.4513 N   0  0  0  0  0  0  0  0  0  0  0  0
   35.8889  -34.0140  -17.5963 C   0  0  0  0  0  0  0  0  0  0  0  0
   35.2556  -35.0808  -17.4030 O   0  0  0  0  0  0  0  0  0  0  0  0
   37.2591  -34.0492  -17.4044 O   0  0  0  0  0  0  0  0  0  0  0  0
  2  1  1  0
  3  2  2  0
  4  3  1  0
  5 11  1  0
  5  4  2  0
  6  5  1  0
  7  8  1  6
  7  6  1  0
  9 13  1  0
  9  7  1  0
 10  9  2  0
 11 12  2  0
 12  2  1  0
 14 13  1  0
 14 15  1  1
 15 16  1  0
 16 17  2  0
 17 18  1  0
 19 18  1  0
 20 16  1  0
 20 19  2  0
 21 14  1  0
 22 21  2  0
 23 21  1  0
 24 30  1  0
 24 23  1  0
 24 25  1  6
 26 25  1  0
 27 26  1  0
 27 28  1  0
 29 28  1  0
 30 32  1  0
 31 30  2  0
M  END
$$$$
