YHK.pdb
     RDKit          3D

 32 33  0  0  1  0  0  0  0  0999 V2000
   22.5967  -19.8182  -15.2042 O   0  0  0  0  0  0  0  0  0  0  0  0
   22.2395  -18.5621  -15.6898 C   0  0  0  0  0  0  0  0  0  0  0  0
   22.0390  -18.4134  -17.0522 C   0  0  0  0  0  0  0  0  0  0  0  0
   21.6867  -17.1580  -17.4986 C   0  0  0  0  0  0  0  0  0  0  0  0
   21.5367  -16.0946  -16.6514 C   0  0  0  0  0  0  0  0  0  0  0  0
   21.1607  -14.7392  -17.0961 C   0  0  0  0  0  0  0  0  0  0  0  0
   19.6704  -14.4626  -16.8594 C   0  0  2  0  0  0  0  0  0  0  0  0
   18.9435  -15.3891  -17.7063 N   0  0  0  0  0  0  0  0  0  0  0  0
   19.4263  -13.0870  -17.3605 C   0  0  0  0  0  0  0  0  0  0  0  0
   19.2872  -12.8461  -18.5995 O   0  0  0  0  0  0  0  0  0  0  0  0
   21.7459  -16.2808  -15.2905 C   0  0  0  0  0  0  0  0  0  0  0  0
   22.1008  -17.5270  -14.8046 C   0  0  0  0  0  0  0  0  0  0  0  0
   19.3311  -11.9492  -16.5026 N   0  0  0  0  0  0  0  0  0  0  0  0
   18.9593  -10.6395  -16.9990 C   0  0  1  0  0  0  0  0  0  0  0  0
   17.7068  -10.1897  -16.2413 C   0  0  0  0  0  0  0  0  0  0  0  0
   16.8367   -9.3555  -17.0829 C   0  0  0  0  0  0  0  0  0  0  0  0
   17.1618   -8.3162  -17.8967 C   0  0  0  0  0  0  0  0  0  0  0  0
   16.0418   -7.8374  -18.4832 N   0  0  0  0  0  0  0  0  0  0  0  0
   15.0444   -8.5950  -18.0167 C   0  0  0  0  0  0  0  0  0  0  0  0
   15.4921   -9.5258  -17.1648 N   0  0  0  0  0  0  0  0  0  0  0  0
   20.0184   -9.6313  -16.7203 C   0  0  0  0  0  0  0  0  0  0  0  0
   20.5420   -9.6398  -15.5777 O   0  0  0  0  0  0  0  0  0  0  0  0
   20.4587   -8.6834  -17.6526 N   0  0  0  0  0  0  0  0  0  0  0  0
   21.4924   -7.7249  -17.3506 C   0  0  1  0  0  0  0  0  0  0  0  0
   21.9466   -6.9373  -18.5298 C   0  0  0  0  0  0  0  0  0  0  0  0
   23.1271   -6.0652  -18.3581 C   0  0  0  0  0  0  0  0  0  0  0  0
   23.6598   -5.4340  -19.5929 C   0  0  0  0  0  0  0  0  0  0  0  0
   24.9462   -4.6935  -19.2820 C   0  0  0  0  0  0  0  0  0  0  0  0
   25.5235   -4.0574  -20.4210 N   0  0  0  0  0  0  0  0  0  0  0  0
   21.2097   -6.9216  -16.1590 C   0  0  0  0  0  0  0  0  0  0  0  0
   20.1415   -6.2825  -15.9950 O   0  0  0  0  0  0  0  0  0  0  0  0
   22.1520   -6.8470  -15.1480 O   0  0  0  0  0  0  0  0  0  0  0  0
  2  1  1  0
  3  2  2  0
  4  3  1  0
  5 11  1  0
  5  4  2  0
  6  5  1  0
  7  8  1  6
  7  6  1  0
  9 13  1  0
  9  7  1  0
 10  9  2  0
 11 12  2  0
 12  2  1  0
 14 13  1  0
 14 15  1  1
 15 16  1  0
 16 17  2  0
 17 18  1  0
 19 18  1  0
 20 16  1  0
 20 19  2  0
 21 14  1  0
 22 21  2  0
 23 21  1  0
 24 30  1  0
 24 23  1  0
 24 25  1  6
 26 25  1  0
 27 26  1  0
 27 28  1  0
 29 28  1  0
 30 32  1  0
 31 30  2  0
M  END
$$$$
