YHK.pdb
     RDKit          3D

 32 33  0  0  1  0  0  0  0  0999 V2000
   22.4616   -1.2116  -14.2902 O   0  0  0  0  0  0  0  0  0  0  0  0
   22.1197   -2.5044  -14.6813 C   0  0  0  0  0  0  0  0  0  0  0  0
   21.5084   -2.6822  -15.9114 C   0  0  0  0  0  0  0  0  0  0  0  0
   21.1837   -3.9736  -16.2669 C   0  0  0  0  0  0  0  0  0  0  0  0
   21.4446   -5.0442  -15.4565 C   0  0  0  0  0  0  0  0  0  0  0  0
   21.1104   -6.4377  -15.8065 C   0  0  0  0  0  0  0  0  0  0  0  0
   22.3298   -7.1869  -16.3592 C   0  0  2  0  0  0  0  0  0  0  0  0
   22.6623   -6.5520  -17.6203 N   0  0  0  0  0  0  0  0  0  0  0  0
   21.8656   -8.5678  -16.6434 C   0  0  0  0  0  0  0  0  0  0  0  0
   21.1644   -8.8354  -17.6677 O   0  0  0  0  0  0  0  0  0  0  0  0
   22.0592   -4.8281  -14.2292 C   0  0  0  0  0  0  0  0  0  0  0  0
   22.4002   -3.5453  -13.8375 C   0  0  0  0  0  0  0  0  0  0  0  0
   22.1668   -9.6813  -15.8014 N   0  0  0  0  0  0  0  0  0  0  0  0
   21.7080  -11.0221  -16.1044 C   0  0  1  0  0  0  0  0  0  0  0  0
   22.4656  -11.9931  -15.1943 C   0  0  0  0  0  0  0  0  0  0  0  0
   22.1713  -13.3929  -15.5337 C   0  0  0  0  0  0  0  0  0  0  0  0
   21.3164  -13.8940  -16.4643 C   0  0  0  0  0  0  0  0  0  0  0  0
   21.3625  -15.2449  -16.4356 N   0  0  0  0  0  0  0  0  0  0  0  0
   22.2492  -15.5503  -15.4832 C   0  0  0  0  0  0  0  0  0  0  0  0
   22.7588  -14.4498  -14.9160 N   0  0  0  0  0  0  0  0  0  0  0  0
   20.2602  -11.1837  -15.7988 C   0  0  0  0  0  0  0  0  0  0  0  0
   19.8353  -10.6916  -14.7231 O   0  0  0  0  0  0  0  0  0  0  0  0
   19.3548  -11.8475  -16.6362 N   0  0  0  0  0  0  0  0  0  0  0  0
   17.9393  -11.8876  -16.3662 C   0  0  1  0  0  0  0  0  0  0  0  0
   17.1173  -11.1253  -17.3463 C   0  0  0  0  0  0  0  0  0  0  0  0
   15.6557  -11.0866  -17.1319 C   0  0  0  0  0  0  0  0  0  0  0  0
   14.8597  -10.3881  -18.1736 C   0  0  0  0  0  0  0  0  0  0  0  0
   13.3891  -10.4118  -17.8037 C   0  0  0  0  0  0  0  0  0  0  0  0
   12.5540   -9.7581  -18.7577 N   0  0  0  0  0  0  0  0  0  0  0  0
   17.4410  -13.2340  -16.0765 C   0  0  0  0  0  0  0  0  0  0  0  0
   17.9305  -14.2744  -16.5809 O   0  0  0  0  0  0  0  0  0  0  0  0
   16.3773  -13.3944  -15.2057 O   0  0  0  0  0  0  0  0  0  0  0  0
  2  1  1  0
  3  2  2  0
  4  3  1  0
  5 11  1  0
  5  4  2  0
  6  5  1  0
  7  8  1  6
  7  6  1  0
  9 13  1  0
  9  7  1  0
 10  9  2  0
 11 12  2  0
 12  2  1  0
 14 13  1  0
 14 15  1  1
 15 16  1  0
 16 17  2  0
 17 18  1  0
 19 18  1  0
 20 16  1  0
 20 19  2  0
 21 14  1  0
 22 21  2  0
 23 21  1  0
 24 30  1  0
 24 23  1  0
 24 25  1  6
 26 25  1  0
 27 26  1  0
 27 28  1  0
 29 28  1  0
 30 32  1  0
 31 30  2  0
M  END
$$$$
