YHK.pdb
     RDKit          3D

 32 33  0  0  1  0  0  0  0  0999 V2000
   31.5893  -21.5520  -10.9842 O   0  0  0  0  0  0  0  0  0  0  0  0
   30.2682  -21.1733  -11.2131 C   0  0  0  0  0  0  0  0  0  0  0  0
   29.9597  -20.5414  -12.4064 C   0  0  0  0  0  0  0  0  0  0  0  0
   28.6438  -20.1804  -12.6004 C   0  0  0  0  0  0  0  0  0  0  0  0
   27.6720  -20.4259  -11.6696 C   0  0  0  0  0  0  0  0  0  0  0  0
   26.2556  -20.0531  -11.8457 C   0  0  0  0  0  0  0  0  0  0  0  0
   25.3674  -21.2898  -12.0333 C   0  0  2  0  0  0  0  0  0  0  0  0
   25.8504  -21.9628  -13.2240 N   0  0  0  0  0  0  0  0  0  0  0  0
   24.0040  -20.7740  -12.3130 C   0  0  0  0  0  0  0  0  0  0  0  0
   23.4251  -19.9645  -11.5243 O   0  0  0  0  0  0  0  0  0  0  0  0
   28.0180  -21.0620  -10.4838 C   0  0  0  0  0  0  0  0  0  0  0  0
   29.3293  -21.4395  -10.2530 C   0  0  0  0  0  0  0  0  0  0  0  0
   23.2523  -21.1422  -13.4701 N   0  0  0  0  0  0  0  0  0  0  0  0
   21.9114  -20.6467  -13.7071 C   0  0  1  0  0  0  0  0  0  0  0  0
   21.7758  -20.3605  -15.2054 C   0  0  0  0  0  0  0  0  0  0  0  0
   22.5693  -19.1895  -15.6057 C   0  0  0  0  0  0  0  0  0  0  0  0
   23.7305  -19.1336  -16.3104 C   0  0  0  0  0  0  0  0  0  0  0  0
   24.1100  -17.8435  -16.4495 N   0  0  0  0  0  0  0  0  0  0  0  0
   23.1704  -17.1271  -15.8247 C   0  0  0  0  0  0  0  0  0  0  0  0
   22.2210  -17.9128  -15.3016 N   0  0  0  0  0  0  0  0  0  0  0  0
   20.8853  -21.6703  -13.3681 C   0  0  0  0  0  0  0  0  0  0  0  0
   21.0071  -22.8087  -13.8869 O   0  0  0  0  0  0  0  0  0  0  0  0
   19.8024  -21.4365  -12.5112 N   0  0  0  0  0  0  0  0  0  0  0  0
   18.9502  -22.4975  -12.0356 C   0  0  1  0  0  0  0  0  0  0  0  0
   19.1053  -22.7898  -10.5838 C   0  0  0  0  0  0  0  0  0  0  0  0
   18.2501  -23.8451  -10.0018 C   0  0  0  0  0  0  0  0  0  0  0  0
   18.3764  -24.0561   -8.5368 C   0  0  0  0  0  0  0  0  0  0  0  0
   17.3858  -25.1088   -8.0783 C   0  0  0  0  0  0  0  0  0  0  0  0
   17.3760  -25.3004   -6.6646 N   0  0  0  0  0  0  0  0  0  0  0  0
   17.5611  -22.3714  -12.4823 C   0  0  0  0  0  0  0  0  0  0  0  0
   16.9503  -21.2757  -12.5362 O   0  0  0  0  0  0  0  0  0  0  0  0
   16.8643  -23.5027  -12.8698 O   0  0  0  0  0  0  0  0  0  0  0  0
  2  1  1  0
  3  2  2  0
  4  3  1  0
  5 11  1  0
  5  4  2  0
  6  5  1  0
  7  8  1  6
  7  6  1  0
  9 13  1  0
  9  7  1  0
 10  9  2  0
 11 12  2  0
 12  2  1  0
 14 13  1  0
 14 15  1  6
 15 16  1  0
 16 17  2  0
 17 18  1  0
 19 18  1  0
 20 16  1  0
 20 19  2  0
 21 14  1  0
 22 21  2  0
 23 21  1  0
 24 30  1  0
 24 23  1  0
 24 25  1  1
 26 25  1  0
 27 26  1  0
 27 28  1  0
 29 28  1  0
 30 32  1  0
 31 30  2  0
M  END
$$$$
