YHK.pdb
     RDKit          3D

 32 33  0  0  1  0  0  0  0  0999 V2000
   30.3644  -16.7612  -19.1603 O   0  0  0  0  0  0  0  0  0  0  0  0
   29.0473  -16.8057  -18.7082 C   0  0  0  0  0  0  0  0  0  0  0  0
   28.4960  -18.0387  -18.4009 C   0  0  0  0  0  0  0  0  0  0  0  0
   27.1914  -18.0465  -17.9566 C   0  0  0  0  0  0  0  0  0  0  0  0
   26.4576  -16.9004  -17.8185 C   0  0  0  0  0  0  0  0  0  0  0  0
   25.0604  -16.8737  -17.3460 C   0  0  0  0  0  0  0  0  0  0  0  0
   24.0742  -17.1394  -18.4908 C   0  0  2  0  0  0  0  0  0  0  0  0
   24.0063  -15.9141  -19.2641 N   0  0  0  0  0  0  0  0  0  0  0  0
   22.7535  -17.3566  -17.8491 C   0  0  0  0  0  0  0  0  0  0  0  0
   21.9564  -16.3934  -17.6267 O   0  0  0  0  0  0  0  0  0  0  0  0
   27.0434  -15.6812  -18.1362 C   0  0  0  0  0  0  0  0  0  0  0  0
   28.3514  -15.6332  -18.5855 C   0  0  0  0  0  0  0  0  0  0  0  0
   22.2866  -18.6427  -17.4401 N   0  0  0  0  0  0  0  0  0  0  0  0
   20.9570  -18.8432  -16.8996 C   0  0  1  0  0  0  0  0  0  0  0  0
   19.9478  -18.3854  -17.9565 C   0  0  0  0  0  0  0  0  0  0  0  0
   18.5635  -18.5703  -17.4975 C   0  0  0  0  0  0  0  0  0  0  0  0
   17.8315  -19.7116  -17.4004 C   0  0  0  0  0  0  0  0  0  0  0  0
   16.5997  -19.4165  -16.9278 N   0  0  0  0  0  0  0  0  0  0  0  0
   16.5976  -18.0928  -16.7424 C   0  0  0  0  0  0  0  0  0  0  0  0
   17.7737  -17.5484  -17.0783 N   0  0  0  0  0  0  0  0  0  0  0  0
   20.6870  -20.2838  -16.6395 C   0  0  0  0  0  0  0  0  0  0  0  0
   21.3711  -21.1264  -17.2733 O   0  0  0  0  0  0  0  0  0  0  0  0
   19.7220  -20.7466  -15.7361 N   0  0  0  0  0  0  0  0  0  0  0  0
   20.0697  -21.3126  -14.4567 C   0  0  1  0  0  0  0  0  0  0  0  0
   21.5284  -21.2788  -14.1595 C   0  0  0  0  0  0  0  0  0  0  0  0
   22.3352  -22.4531  -14.5516 C   0  0  0  0  0  0  0  0  0  0  0  0
   23.6036  -22.1656  -15.2696 C   0  0  0  0  0  0  0  0  0  0  0  0
   24.2531  -23.4624  -15.7123 C   0  0  0  0  0  0  0  0  0  0  0  0
   25.4112  -23.2687  -16.5224 N   0  0  0  0  0  0  0  0  0  0  0  0
   19.2182  -20.8413  -13.3621 C   0  0  0  0  0  0  0  0  0  0  0  0
   19.0868  -19.6290  -13.0630 O   0  0  0  0  0  0  0  0  0  0  0  0
   18.5123  -21.7592  -12.6041 O   0  0  0  0  0  0  0  0  0  0  0  0
  2  1  1  0
  3  2  2  0
  4  3  1  0
  5 11  1  0
  5  4  2  0
  6  5  1  0
  7  8  1  6
  7  6  1  0
  9 13  1  0
  9  7  1  0
 10  9  2  0
 11 12  2  0
 12  2  1  0
 14 13  1  0
 14 15  1  6
 15 16  1  0
 16 17  2  0
 17 18  1  0
 19 18  1  0
 20 16  1  0
 20 19  2  0
 21 14  1  0
 22 21  2  0
 23 21  1  0
 24 30  1  0
 24 23  1  0
 24 25  1  1
 26 25  1  0
 27 26  1  0
 27 28  1  0
 29 28  1  0
 30 32  1  0
 31 30  2  0
M  END
$$$$
