YHK.pdb
     RDKit          3D

 32 33  0  0  1  0  0  0  0  0999 V2000
   23.0552  -37.7108  -12.0731 O   0  0  0  0  0  0  0  0  0  0  0  0
   24.0218  -36.7795  -12.4467 C   0  0  0  0  0  0  0  0  0  0  0  0
   25.3552  -37.1479  -12.3773 C   0  0  0  0  0  0  0  0  0  0  0  0
   26.2849  -36.2028  -12.7541 C   0  0  0  0  0  0  0  0  0  0  0  0
   25.9279  -34.9529  -13.1799 C   0  0  0  0  0  0  0  0  0  0  0  0
   26.8968  -33.9189  -13.5900 C   0  0  0  0  0  0  0  0  0  0  0  0
   27.1292  -33.9354  -15.1064 C   0  0  2  0  0  0  0  0  0  0  0  0
   27.8416  -35.1651  -15.3970 N   0  0  0  0  0  0  0  0  0  0  0  0
   28.0358  -32.7955  -15.3924 C   0  0  0  0  0  0  0  0  0  0  0  0
   27.8377  -31.6465  -14.8891 O   0  0  0  0  0  0  0  0  0  0  0  0
   24.5805  -34.6182  -13.2367 C   0  0  0  0  0  0  0  0  0  0  0  0
   23.6177  -35.5407  -12.8664 C   0  0  0  0  0  0  0  0  0  0  0  0
   29.1799  -32.9018  -16.2404 N   0  0  0  0  0  0  0  0  0  0  0  0
   30.0476  -31.7726  -16.5081 C   0  0  1  0  0  0  0  0  0  0  0  0
   31.2538  -32.2861  -17.2997 C   0  0  0  0  0  0  0  0  0  0  0  0
   32.1900  -31.1997  -17.6231 C   0  0  0  0  0  0  0  0  0  0  0  0
   32.3510  -29.9913  -17.0215 C   0  0  0  0  0  0  0  0  0  0  0  0
   33.3312  -29.3038  -17.6495 N   0  0  0  0  0  0  0  0  0  0  0  0
   33.7564  -30.1065  -18.6300 C   0  0  0  0  0  0  0  0  0  0  0  0
   33.0851  -31.2647  -18.6421 N   0  0  0  0  0  0  0  0  0  0  0  0
   29.3715  -30.7571  -17.3610 C   0  0  0  0  0  0  0  0  0  0  0  0
   28.7419  -31.1703  -18.3673 O   0  0  0  0  0  0  0  0  0  0  0  0
   29.3984  -29.3802  -17.1057 N   0  0  0  0  0  0  0  0  0  0  0  0
   28.6066  -28.4393  -17.8580 C   0  0  1  0  0  0  0  0  0  0  0  0
   28.1878  -27.2435  -17.0758 C   0  0  0  0  0  0  0  0  0  0  0  0
   27.3118  -26.2592  -17.7447 C   0  0  0  0  0  0  0  0  0  0  0  0
   26.9906  -25.0344  -16.9677 C   0  0  0  0  0  0  0  0  0  0  0  0
   26.0409  -24.1547  -17.7577 C   0  0  0  0  0  0  0  0  0  0  0  0
   25.7736  -22.9021  -17.1295 N   0  0  0  0  0  0  0  0  0  0  0  0
   29.1647  -28.1342  -19.1773 C   0  0  0  0  0  0  0  0  0  0  0  0
   28.4945  -28.1814  -20.2379 O   0  0  0  0  0  0  0  0  0  0  0  0
   30.4962  -27.7729  -19.2870 O   0  0  0  0  0  0  0  0  0  0  0  0
  2  1  1  0
  3  2  2  0
  4  3  1  0
  5 11  1  0
  5  4  2  0
  6  5  1  0
  7  8  1  1
  7  6  1  0
  9 13  1  0
  9  7  1  0
 10  9  2  0
 11 12  2  0
 12  2  1  0
 14 13  1  0
 14 15  1  6
 15 16  1  0
 16 17  2  0
 17 18  1  0
 19 18  1  0
 20 16  1  0
 20 19  2  0
 21 14  1  0
 22 21  2  0
 23 21  1  0
 24 30  1  0
 24 23  1  0
 24 25  1  1
 26 25  1  0
 27 26  1  0
 27 28  1  0
 29 28  1  0
 30 32  1  0
 31 30  2  0
M  END
$$$$
