YHK.pdb
     RDKit          3D

 32 33  0  0  1  0  0  0  0  0999 V2000
   20.9175  -29.6921  -14.7614 O   0  0  0  0  0  0  0  0  0  0  0  0
   22.0238  -30.2436  -15.4042 C   0  0  0  0  0  0  0  0  0  0  0  0
   22.2344  -29.9347  -16.7379 C   0  0  0  0  0  0  0  0  0  0  0  0
   23.3377  -30.4970  -17.3428 C   0  0  0  0  0  0  0  0  0  0  0  0
   24.1975  -31.3247  -16.6744 C   0  0  0  0  0  0  0  0  0  0  0  0
   25.3865  -31.9425  -17.2915 C   0  0  0  0  0  0  0  0  0  0  0  0
   26.6074  -31.0170  -17.2106 C   0  0  2  0  0  0  0  0  0  0  0  0
   26.3960  -29.9748  -18.1971 N   0  0  0  0  0  0  0  0  0  0  0  0
   27.7684  -31.8351  -17.6418 C   0  0  0  0  0  0  0  0  0  0  0  0
   28.1254  -31.8925  -18.8591 O   0  0  0  0  0  0  0  0  0  0  0  0
   23.9549  -31.6125  -15.3369 C   0  0  0  0  0  0  0  0  0  0  0  0
   22.8570  -31.0665  -14.6952 C   0  0  0  0  0  0  0  0  0  0  0  0
   28.5589  -32.6065  -16.7365 N   0  0  0  0  0  0  0  0  0  0  0  0
   29.7453  -33.3196  -17.1653 C   0  0  1  0  0  0  0  0  0  0  0  0
   30.7040  -33.3930  -15.9734 C   0  0  0  0  0  0  0  0  0  0  0  0
   31.9763  -32.7148  -16.2608 C   0  0  0  0  0  0  0  0  0  0  0  0
   32.4252  -32.1802  -17.4273 C   0  0  0  0  0  0  0  0  0  0  0  0
   33.6559  -31.6542  -17.2363 N   0  0  0  0  0  0  0  0  0  0  0  0
   33.9418  -31.8764  -15.9496 C   0  0  0  0  0  0  0  0  0  0  0  0
   32.9440  -32.5179  -15.3288 N   0  0  0  0  0  0  0  0  0  0  0  0
   29.4276  -34.7216  -17.5514 C   0  0  0  0  0  0  0  0  0  0  0  0
   28.7617  -35.4111  -16.7385 O   0  0  0  0  0  0  0  0  0  0  0  0
   29.8263  -35.3084  -18.7590 N   0  0  0  0  0  0  0  0  0  0  0  0
   29.5461  -36.6860  -19.0783 C   0  0  1  0  0  0  0  0  0  0  0  0
   28.4473  -36.8636  -20.0673 C   0  0  0  0  0  0  0  0  0  0  0  0
   28.1360  -38.2399  -20.5063 C   0  0  0  0  0  0  0  0  0  0  0  0
   27.0235  -38.3802  -21.4807 C   0  0  0  0  0  0  0  0  0  0  0  0
   26.8120  -39.8437  -21.8174 C   0  0  0  0  0  0  0  0  0  0  0  0
   25.7465  -40.0649  -22.7398 N   0  0  0  0  0  0  0  0  0  0  0  0
   30.7485  -37.4727  -19.3622 C   0  0  0  0  0  0  0  0  0  0  0  0
   30.7284  -38.7087  -19.5823 O   0  0  0  0  0  0  0  0  0  0  0  0
   31.9816  -36.8452  -19.3950 O   0  0  0  0  0  0  0  0  0  0  0  0
  2  1  1  0
  3  2  2  0
  4  3  1  0
  5 11  1  0
  5  4  2  0
  6  5  1  0
  7  8  1  6
  7  6  1  0
  9 13  1  0
  9  7  1  0
 10  9  2  0
 11 12  2  0
 12  2  1  0
 14 13  1  0
 14 15  1  1
 15 16  1  0
 16 17  2  0
 17 18  1  0
 19 18  1  0
 20 16  1  0
 20 19  2  0
 21 14  1  0
 22 21  2  0
 23 21  1  0
 24 30  1  0
 24 23  1  0
 24 25  1  6
 26 25  1  0
 27 26  1  0
 27 28  1  0
 29 28  1  0
 30 32  1  0
 31 30  2  0
M  END
$$$$
