YHK.pdb
     RDKit          3D

 32 33  0  0  1  0  0  0  0  0999 V2000
   16.1285  -20.2200  -17.3463 O   0  0  0  0  0  0  0  0  0  0  0  0
   17.3670  -19.9571  -16.7649 C   0  0  0  0  0  0  0  0  0  0  0  0
   17.4187  -19.0928  -15.6837 C   0  0  0  0  0  0  0  0  0  0  0  0
   18.6594  -18.8549  -15.1327 C   0  0  0  0  0  0  0  0  0  0  0  0
   19.7994  -19.4355  -15.6166 C   0  0  0  0  0  0  0  0  0  0  0  0
   21.1417  -19.2025  -15.0507 C   0  0  0  0  0  0  0  0  0  0  0  0
   21.6015  -20.3848  -14.1880 C   0  0  2  0  0  0  0  0  0  0  0  0
   20.9421  -20.2350  -12.9048 N   0  0  0  0  0  0  0  0  0  0  0  0
   23.0599  -20.1982  -13.9845 C   0  0  0  0  0  0  0  0  0  0  0  0
   23.5114  -19.3963  -13.1096 O   0  0  0  0  0  0  0  0  0  0  0  0
   19.7096  -20.2974  -16.7028 C   0  0  0  0  0  0  0  0  0  0  0  0
   18.4810  -20.5609  -17.2828 C   0  0  0  0  0  0  0  0  0  0  0  0
   24.0493  -20.8939  -14.7438 N   0  0  0  0  0  0  0  0  0  0  0  0
   25.4438  -20.9208  -14.3506 C   0  0  1  0  0  0  0  0  0  0  0  0
   25.5905  -21.9370  -13.2144 C   0  0  0  0  0  0  0  0  0  0  0  0
   25.3441  -21.3203  -11.9029 C   0  0  0  0  0  0  0  0  0  0  0  0
   24.9885  -20.0430  -11.6027 C   0  0  0  0  0  0  0  0  0  0  0  0
   24.8684  -19.9131  -10.2624 N   0  0  0  0  0  0  0  0  0  0  0  0
   25.1538  -21.1190   -9.7613 C   0  0  0  0  0  0  0  0  0  0  0  0
   25.4468  -21.9960  -10.7295 N   0  0  0  0  0  0  0  0  0  0  0  0
   26.3141  -21.3885  -15.4639 C   0  0  0  0  0  0  0  0  0  0  0  0
   25.9396  -22.4011  -16.1076 O   0  0  0  0  0  0  0  0  0  0  0  0
   27.5153  -20.7681  -15.8296 N   0  0  0  0  0  0  0  0  0  0  0  0
   28.2969  -21.2034  -16.9600 C   0  0  1  0  0  0  0  0  0  0  0  0
   29.2147  -20.1602  -17.4952 C   0  0  0  0  0  0  0  0  0  0  0  0
   30.0180  -20.5005  -18.6880 C   0  0  0  0  0  0  0  0  0  0  0  0
   30.9924  -19.4726  -19.1360 C   0  0  0  0  0  0  0  0  0  0  0  0
   31.7066  -19.9469  -20.3869 C   0  0  0  0  0  0  0  0  0  0  0  0
   32.7705  -19.0874  -20.7925 N   0  0  0  0  0  0  0  0  0  0  0  0
   28.9195  -22.5148  -16.7654 C   0  0  0  0  0  0  0  0  0  0  0  0
   29.3071  -23.2420  -17.7127 O   0  0  0  0  0  0  0  0  0  0  0  0
   29.1009  -22.9994  -15.4818 O   0  0  0  0  0  0  0  0  0  0  0  0
  2  1  1  0
  3  2  2  0
  4  3  1  0
  5 11  1  0
  5  4  2  0
  6  5  1  0
  7  8  1  1
  7  6  1  0
  9 13  1  0
  9  7  1  0
 10  9  2  0
 11 12  2  0
 12  2  1  0
 14 13  1  0
 14 15  1  1
 15 16  1  0
 16 17  2  0
 17 18  1  0
 19 18  1  0
 20 16  1  0
 20 19  2  0
 21 14  1  0
 22 21  2  0
 23 21  1  0
 24 30  1  0
 24 23  1  0
 24 25  1  1
 26 25  1  0
 27 26  1  0
 27 28  1  0
 29 28  1  0
 30 32  1  0
 31 30  2  0
M  END
$$$$
