YHK.pdb
     RDKit          3D

 32 33  0  0  1  0  0  0  0  0999 V2000
   31.2274  -12.0711  -16.6883 O   0  0  0  0  0  0  0  0  0  0  0  0
   29.9126  -11.6132  -16.6366 C   0  0  0  0  0  0  0  0  0  0  0  0
   29.0237  -12.2523  -15.7881 C   0  0  0  0  0  0  0  0  0  0  0  0
   27.7314  -11.7740  -15.7615 C   0  0  0  0  0  0  0  0  0  0  0  0
   27.3253  -10.7178  -16.5300 C   0  0  0  0  0  0  0  0  0  0  0  0
   25.9510  -10.1815  -16.5254 C   0  0  0  0  0  0  0  0  0  0  0  0
   24.9190  -11.2810  -16.2435 C   0  0  2  0  0  0  0  0  0  0  0  0
   25.1577  -12.3257  -17.2212 N   0  0  0  0  0  0  0  0  0  0  0  0
   23.5926  -10.6771  -16.5247 C   0  0  0  0  0  0  0  0  0  0  0  0
   23.0528  -10.7632  -17.6709 O   0  0  0  0  0  0  0  0  0  0  0  0
   28.2444  -10.1008  -17.3698 C   0  0  0  0  0  0  0  0  0  0  0  0
   29.5513  -10.5530  -17.4237 C   0  0  0  0  0  0  0  0  0  0  0  0
   22.8355   -9.9655  -15.5450 N   0  0  0  0  0  0  0  0  0  0  0  0
   21.4979   -9.4759  -15.8118 C   0  0  1  0  0  0  0  0  0  0  0  0
   20.5675  -10.0460  -14.7373 C   0  0  0  0  0  0  0  0  0  0  0  0
   20.1354  -11.4121  -15.0663 C   0  0  0  0  0  0  0  0  0  0  0  0
   19.0814  -11.8266  -15.8182 C   0  0  0  0  0  0  0  0  0  0  0  0
   19.0605  -13.1778  -15.8565 N   0  0  0  0  0  0  0  0  0  0  0  0
   20.1072  -13.5705  -15.1238 C   0  0  0  0  0  0  0  0  0  0  0  0
   20.7807  -12.5242  -14.6298 N   0  0  0  0  0  0  0  0  0  0  0  0
   21.4291   -7.9931  -15.7007 C   0  0  0  0  0  0  0  0  0  0  0  0
   22.0848   -7.4490  -14.7767 O   0  0  0  0  0  0  0  0  0  0  0  0
   20.6810   -7.1795  -16.5609 N   0  0  0  0  0  0  0  0  0  0  0  0
   20.6171   -5.7473  -16.4088 C   0  0  1  0  0  0  0  0  0  0  0  0
   19.9801   -5.0474  -17.5584 C   0  0  0  0  0  0  0  0  0  0  0  0
   19.9493   -3.5702  -17.5298 C   0  0  0  0  0  0  0  0  0  0  0  0
   19.3773   -2.9042  -18.7281 C   0  0  0  0  0  0  0  0  0  0  0  0
   19.4331   -1.3981  -18.5591 C   0  0  0  0  0  0  0  0  0  0  0  0
   18.9766   -0.6819  -19.7053 N   0  0  0  0  0  0  0  0  0  0  0  0
   20.1262   -5.3239  -15.0955 C   0  0  0  0  0  0  0  0  0  0  0  0
   19.1245   -5.8337  -14.5359 O   0  0  0  0  0  0  0  0  0  0  0  0
   20.7826   -4.3123  -14.4163 O   0  0  0  0  0  0  0  0  0  0  0  0
  2  1  1  0
  3  2  2  0
  4  3  1  0
  5 11  1  0
  5  4  2  0
  6  5  1  0
  7  8  1  6
  7  6  1  0
  9 13  1  0
  9  7  1  0
 10  9  2  0
 11 12  2  0
 12  2  1  0
 14 13  1  0
 14 15  1  1
 15 16  1  0
 16 17  2  0
 17 18  1  0
 19 18  1  0
 20 16  1  0
 20 19  2  0
 21 14  1  0
 22 21  2  0
 23 21  1  0
 24 30  1  0
 24 23  1  0
 24 25  1  6
 26 25  1  0
 27 26  1  0
 27 28  1  0
 29 28  1  0
 30 32  1  0
 31 30  2  0
M  END
$$$$
