YHK.pdb
     RDKit          3D

 32 33  0  0  1  0  0  0  0  0999 V2000
   17.2854  -16.6211  -22.3743 O   0  0  0  0  0  0  0  0  0  0  0  0
   17.5338  -15.7084  -21.3514 C   0  0  0  0  0  0  0  0  0  0  0  0
   18.2334  -14.5518  -21.6539 C   0  0  0  0  0  0  0  0  0  0  0  0
   18.4617  -13.6708  -20.6189 C   0  0  0  0  0  0  0  0  0  0  0  0
   18.0257  -13.9090  -19.3445 C   0  0  0  0  0  0  0  0  0  0  0  0
   18.2530  -12.9878  -18.2149 C   0  0  0  0  0  0  0  0  0  0  0  0
   19.7490  -12.7368  -17.9858 C   0  0  2  0  0  0  0  0  0  0  0  0
   20.2987  -13.9795  -17.4782 N   0  0  0  0  0  0  0  0  0  0  0  0
   19.8315  -11.7190  -16.9086 C   0  0  0  0  0  0  0  0  0  0  0  0
   19.5109  -11.9921  -15.7106 O   0  0  0  0  0  0  0  0  0  0  0  0
   17.3269  -15.0799  -19.0776 C   0  0  0  0  0  0  0  0  0  0  0  0
   17.0784  -15.9888  -20.0912 C   0  0  0  0  0  0  0  0  0  0  0  0
   20.2699  -10.3786  -17.1332 N   0  0  0  0  0  0  0  0  0  0  0  0
   20.3185   -9.3958  -16.0693 C   0  0  1  0  0  0  0  0  0  0  0  0
   21.6729   -8.6857  -16.1492 C   0  0  0  0  0  0  0  0  0  0  0  0
   22.7808   -9.5980  -15.8305 C   0  0  0  0  0  0  0  0  0  0  0  0
   23.2436  -10.0034  -14.6183 C   0  0  0  0  0  0  0  0  0  0  0  0
   24.2836  -10.8491  -14.7943 N   0  0  0  0  0  0  0  0  0  0  0  0
   24.4414  -10.9481  -16.1178 C   0  0  0  0  0  0  0  0  0  0  0  0
   23.5458  -10.2017  -16.7760 N   0  0  0  0  0  0  0  0  0  0  0  0
   19.2721   -8.3518  -16.2449 C   0  0  0  0  0  0  0  0  0  0  0  0
   18.8963   -8.0976  -17.4170 O   0  0  0  0  0  0  0  0  0  0  0  0
   18.6895   -7.6444  -15.1858 N   0  0  0  0  0  0  0  0  0  0  0  0
   17.7131   -6.6047  -15.3955 C   0  0  1  0  0  0  0  0  0  0  0  0
   16.3088   -7.0413  -15.1624 C   0  0  0  0  0  0  0  0  0  0  0  0
   15.2334   -6.0644  -15.4323 C   0  0  0  0  0  0  0  0  0  0  0  0
   13.8442   -6.5427  -15.2127 C   0  0  0  0  0  0  0  0  0  0  0  0
   12.8595   -5.4310  -15.5199 C   0  0  0  0  0  0  0  0  0  0  0  0
   11.5159   -5.7488  -15.1609 N   0  0  0  0  0  0  0  0  0  0  0  0
   18.0671   -5.3370  -14.7530 C   0  0  0  0  0  0  0  0  0  0  0  0
   18.9075   -5.2449  -13.8247 O   0  0  0  0  0  0  0  0  0  0  0  0
   17.4583   -4.1670  -15.1723 O   0  0  0  0  0  0  0  0  0  0  0  0
  2  1  1  0
  3  2  2  0
  4  3  1  0
  5 11  1  0
  5  4  2  0
  6  5  1  0
  7  8  1  1
  7  6  1  0
  9 13  1  0
  9  7  1  0
 10  9  2  0
 11 12  2  0
 12  2  1  0
 14 13  1  0
 14 15  1  6
 15 16  1  0
 16 17  2  0
 17 18  1  0
 19 18  1  0
 20 16  1  0
 20 19  2  0
 21 14  1  0
 22 21  2  0
 23 21  1  0
 24 30  1  0
 24 23  1  0
 24 25  1  1
 26 25  1  0
 27 26  1  0
 27 28  1  0
 29 28  1  0
 30 32  1  0
 31 30  2  0
M  END
$$$$
