YHK.pdb
     RDKit          3D

 32 33  0  0  1  0  0  0  0  0999 V2000
   28.6249  -19.9515   -4.2049 O   0  0  0  0  0  0  0  0  0  0  0  0
   28.2450  -19.9502   -5.5454 C   0  0  0  0  0  0  0  0  0  0  0  0
   29.1734  -19.5553   -6.4944 C   0  0  0  0  0  0  0  0  0  0  0  0
   28.7646  -19.5658   -7.8106 C   0  0  0  0  0  0  0  0  0  0  0  0
   27.5045  -19.9455   -8.1833 C   0  0  0  0  0  0  0  0  0  0  0  0
   27.0353  -19.9683   -9.5817 C   0  0  0  0  0  0  0  0  0  0  0  0
   27.2570  -21.3423  -10.2272 C   0  0  2  0  0  0  0  0  0  0  0  0
   28.6781  -21.4403  -10.5014 N   0  0  0  0  0  0  0  0  0  0  0  0
   26.5360  -21.3046  -11.5241 C   0  0  0  0  0  0  0  0  0  0  0  0
   26.8219  -20.4499  -12.4187 O   0  0  0  0  0  0  0  0  0  0  0  0
   26.5994  -20.3357   -7.2039 C   0  0  0  0  0  0  0  0  0  0  0  0
   26.9733  -20.3381   -5.8715 C   0  0  0  0  0  0  0  0  0  0  0  0
   25.4843  -22.2107  -11.8590 N   0  0  0  0  0  0  0  0  0  0  0  0
   24.8237  -22.1811  -13.1485 C   0  0  1  0  0  0  0  0  0  0  0  0
   24.4798  -23.6234  -13.5317 C   0  0  0  0  0  0  0  0  0  0  0  0
   23.7846  -23.6874  -14.8255 C   0  0  0  0  0  0  0  0  0  0  0  0
   24.2220  -23.3215  -16.0595 C   0  0  0  0  0  0  0  0  0  0  0  0
   23.2489  -23.5546  -16.9686 N   0  0  0  0  0  0  0  0  0  0  0  0
   22.2265  -24.0618  -16.2729 C   0  0  0  0  0  0  0  0  0  0  0  0
   22.5182  -24.1558  -14.9697 N   0  0  0  0  0  0  0  0  0  0  0  0
   23.5386  -21.4327  -13.0844 C   0  0  0  0  0  0  0  0  0  0  0  0
   22.9058  -21.4575  -11.9987 O   0  0  0  0  0  0  0  0  0  0  0  0
   23.0017  -20.7098  -14.1571 N   0  0  0  0  0  0  0  0  0  0  0  0
   21.7214  -20.0514  -14.0814 C   0  0  1  0  0  0  0  0  0  0  0  0
   21.5322  -18.9833  -15.1013 C   0  0  0  0  0  0  0  0  0  0  0  0
   20.2782  -18.2031  -15.0523 C   0  0  0  0  0  0  0  0  0  0  0  0
   20.0854  -17.2051  -16.1357 C   0  0  0  0  0  0  0  0  0  0  0  0
   18.7786  -16.4636  -15.9297 C   0  0  0  0  0  0  0  0  0  0  0  0
   18.6015  -15.3677  -16.8256 N   0  0  0  0  0  0  0  0  0  0  0  0
   20.5960  -20.9813  -13.9633 C   0  0  0  0  0  0  0  0  0  0  0  0
   20.4482  -21.9837  -14.7049 O   0  0  0  0  0  0  0  0  0  0  0  0
   19.6330  -20.7661  -12.9929 O   0  0  0  0  0  0  0  0  0  0  0  0
  2  1  1  0
  3  2  2  0
  4  3  1  0
  5 11  1  0
  5  4  2  0
  6  5  1  0
  7  8  1  6
  7  6  1  0
  9 13  1  0
  9  7  1  0
 10  9  2  0
 11 12  2  0
 12  2  1  0
 14 13  1  0
 14 15  1  1
 15 16  1  0
 16 17  2  0
 17 18  1  0
 19 18  1  0
 20 16  1  0
 20 19  2  0
 21 14  1  0
 22 21  2  0
 23 21  1  0
 24 30  1  0
 24 23  1  0
 24 25  1  6
 26 25  1  0
 27 26  1  0
 27 28  1  0
 29 28  1  0
 30 32  1  0
 31 30  2  0
M  END
$$$$
