YHK.pdb
     RDKit          3D

 32 33  0  0  1  0  0  0  0  0999 V2000
   21.0478  -21.5439   -6.8899 O   0  0  0  0  0  0  0  0  0  0  0  0
   21.7513  -21.2163   -8.0470 C   0  0  0  0  0  0  0  0  0  0  0  0
   23.0101  -20.6533   -7.9173 C   0  0  0  0  0  0  0  0  0  0  0  0
   23.6782  -20.3416   -9.0818 C   0  0  0  0  0  0  0  0  0  0  0  0
   23.1403  -20.5698  -10.3186 C   0  0  0  0  0  0  0  0  0  0  0  0
   23.8280  -20.2483  -11.5834 C   0  0  0  0  0  0  0  0  0  0  0  0
   24.3746  -21.5104  -12.2632 C   0  0  2  0  0  0  0  0  0  0  0  0
   25.5441  -21.9096  -11.5035 N   0  0  0  0  0  0  0  0  0  0  0  0
   24.8216  -21.0853  -13.6132 C   0  0  0  0  0  0  0  0  0  0  0  0
   25.7847  -20.2724  -13.7690 O   0  0  0  0  0  0  0  0  0  0  0  0
   21.8749  -21.1362  -10.4105 C   0  0  0  0  0  0  0  0  0  0  0  0
   21.1732  -21.4628   -9.2632 C   0  0  0  0  0  0  0  0  0  0  0  0
   24.2134  -21.5498  -14.8190 N   0  0  0  0  0  0  0  0  0  0  0  0
   24.6953  -21.1534  -16.1269 C   0  0  1  0  0  0  0  0  0  0  0  0
   24.5113  -22.3426  -17.0740 C   0  0  0  0  0  0  0  0  0  0  0  0
   25.5712  -23.3453  -16.8944 C   0  0  0  0  0  0  0  0  0  0  0  0
   26.6826  -23.2961  -16.1131 C   0  0  0  0  0  0  0  0  0  0  0  0
   27.3831  -24.4436  -16.2555 N   0  0  0  0  0  0  0  0  0  0  0  0
   26.6858  -25.1803  -17.1259 C   0  0  0  0  0  0  0  0  0  0  0  0
   25.5809  -24.5435  -17.5333 N   0  0  0  0  0  0  0  0  0  0  0  0
   23.8943  -20.0292  -16.6840 C   0  0  0  0  0  0  0  0  0  0  0  0
   23.0970  -19.4440  -15.9083 O   0  0  0  0  0  0  0  0  0  0  0  0
   23.9798  -19.5925  -18.0120 N   0  0  0  0  0  0  0  0  0  0  0  0
   23.3136  -18.4022  -18.4783 C   0  0  1  0  0  0  0  0  0  0  0  0
   23.5714  -17.1996  -17.6391 C   0  0  0  0  0  0  0  0  0  0  0  0
   22.9508  -15.9255  -18.0579 C   0  0  0  0  0  0  0  0  0  0  0  0
   21.7473  -15.5023  -17.2968 C   0  0  0  0  0  0  0  0  0  0  0  0
   21.0123  -14.4135  -18.0544 C   0  0  0  0  0  0  0  0  0  0  0  0
   19.8678  -13.9157  -17.3633 N   0  0  0  0  0  0  0  0  0  0  0  0
   23.4637  -18.1786  -19.9180 C   0  0  0  0  0  0  0  0  0  0  0  0
   24.4417  -18.5995  -20.5835 O   0  0  0  0  0  0  0  0  0  0  0  0
   22.4917  -17.4702  -20.6027 O   0  0  0  0  0  0  0  0  0  0  0  0
  2  1  1  0
  3  2  2  0
  4  3  1  0
  5 11  1  0
  5  4  2  0
  6  5  1  0
  7  8  1  1
  7  6  1  0
  9 13  1  0
  9  7  1  0
 10  9  2  0
 11 12  2  0
 12  2  1  0
 14 13  1  0
 14 15  1  6
 15 16  1  0
 16 17  2  0
 17 18  1  0
 19 18  1  0
 20 16  1  0
 20 19  2  0
 21 14  1  0
 22 21  2  0
 23 21  1  0
 24 30  1  0
 24 23  1  0
 24 25  1  1
 26 25  1  0
 27 26  1  0
 27 28  1  0
 29 28  1  0
 30 32  1  0
 31 30  2  0
M  END
$$$$
