YHK.pdb
     RDKit          3D

 32 33  0  0  1  0  0  0  0  0999 V2000
   27.5059  -28.6288  -17.6052 O   0  0  0  0  0  0  0  0  0  0  0  0
   26.9290  -27.5744  -16.9004 C   0  0  0  0  0  0  0  0  0  0  0  0
   25.5830  -27.6507  -16.5828 C   0  0  0  0  0  0  0  0  0  0  0  0
   25.0445  -26.5909  -15.8854 C   0  0  0  0  0  0  0  0  0  0  0  0
   25.7882  -25.5044  -15.5146 C   0  0  0  0  0  0  0  0  0  0  0  0
   25.2434  -24.3544  -14.7683 C   0  0  0  0  0  0  0  0  0  0  0  0
   24.6762  -23.2877  -15.7139 C   0  0  2  0  0  0  0  0  0  0  0  0
   25.7898  -22.4338  -16.0812 N   0  0  0  0  0  0  0  0  0  0  0  0
   23.7259  -22.4870  -14.9022 C   0  0  0  0  0  0  0  0  0  0  0  0
   24.1317  -21.6320  -14.0556 O   0  0  0  0  0  0  0  0  0  0  0  0
   27.1358  -25.4620  -15.8503 C   0  0  0  0  0  0  0  0  0  0  0  0
   27.7121  -26.5075  -16.5503 C   0  0  0  0  0  0  0  0  0  0  0  0
   22.3076  -22.6147  -15.0095 N   0  0  0  0  0  0  0  0  0  0  0  0
   21.3997  -21.7970  -14.2304 C   0  0  1  0  0  0  0  0  0  0  0  0
   20.7111  -20.8197  -15.1874 C   0  0  0  0  0  0  0  0  0  0  0  0
   21.6006  -19.7095  -15.5580 C   0  0  0  0  0  0  0  0  0  0  0  0
   21.8551  -18.5495  -14.8965 C   0  0  0  0  0  0  0  0  0  0  0  0
   22.7418  -17.8139  -15.6040 N   0  0  0  0  0  0  0  0  0  0  0  0
   23.0169  -18.5391  -16.6925 C   0  0  0  0  0  0  0  0  0  0  0  0
   22.3414  -19.6949  -16.6960 N   0  0  0  0  0  0  0  0  0  0  0  0
   20.3269  -22.6188  -13.6062 C   0  0  0  0  0  0  0  0  0  0  0  0
   19.8695  -23.5805  -14.2737 O   0  0  0  0  0  0  0  0  0  0  0  0
   19.8048  -22.3811  -12.3285 N   0  0  0  0  0  0  0  0  0  0  0  0
   18.8697  -23.2781  -11.6967 C   0  0  1  0  0  0  0  0  0  0  0  0
   19.1416  -23.5117  -10.2515 C   0  0  0  0  0  0  0  0  0  0  0  0
   18.2822  -24.4808   -9.5402 C   0  0  0  0  0  0  0  0  0  0  0  0
   18.6502  -24.7704   -8.1304 C   0  0  0  0  0  0  0  0  0  0  0  0
   17.7636  -25.8707   -7.5797 C   0  0  0  0  0  0  0  0  0  0  0  0
   18.1183  -26.2767   -6.2589 N   0  0  0  0  0  0  0  0  0  0  0  0
   17.4713  -22.9731  -12.0076 C   0  0  0  0  0  0  0  0  0  0  0  0
   17.0360  -21.8046  -12.1543 O   0  0  0  0  0  0  0  0  0  0  0  0
   16.5638  -24.0080  -12.1521 O   0  0  0  0  0  0  0  0  0  0  0  0
  2  1  1  0
  3  2  2  0
  4  3  1  0
  5 11  1  0
  5  4  2  0
  6  5  1  0
  7  8  1  1
  7  6  1  0
  9 13  1  0
  9  7  1  0
 10  9  2  0
 11 12  2  0
 12  2  1  0
 14 13  1  0
 14 15  1  6
 15 16  1  0
 16 17  2  0
 17 18  1  0
 19 18  1  0
 20 16  1  0
 20 19  2  0
 21 14  1  0
 22 21  2  0
 23 21  1  0
 24 30  1  0
 24 23  1  0
 24 25  1  1
 26 25  1  0
 27 26  1  0
 27 28  1  0
 29 28  1  0
 30 32  1  0
 31 30  2  0
M  END
$$$$
