TMR.pdb
     RDKit          3D

 27 26  0  0  1  0  0  0  0  0999 V2000
    6.4015  -21.5842   26.0730 C   0  0  0  0  0  0  0  0  0  0  0  0
    6.9412  -20.2549   25.6017 C   0  0  1  0  0  0  0  0  0  0  0  0
    7.6983  -20.4699   24.4284 O   0  0  0  0  0  0  0  0  0  0  0  0
    5.7836  -19.3558   25.1733 C   0  0  2  0  0  0  0  0  0  0  0  0
    5.1691  -19.9414   23.9656 N   0  0  0  0  0  0  0  0  0  0  0  0
    6.3060  -18.0525   24.7643 C   0  0  0  0  0  0  0  0  0  0  0  0
    6.3371  -17.7453   23.5328 O   0  0  0  0  0  0  0  0  0  0  0  0
    5.4312  -12.7285   27.5853 C   0  0  0  0  0  0  0  0  0  0  0  0
    6.6252  -12.2527   26.3383 S   0  0  0  0  0  0  0  0  0  0  0  0
    7.9164  -13.5246   26.0916 C   0  0  0  0  0  0  0  0  0  0  0  0
    7.2807  -14.8511   26.3295 C   0  0  0  0  0  0  0  0  0  0  0  0
    7.3277  -15.8295   25.1845 C   0  0  2  0  0  0  0  0  0  0  0  0
    6.7773  -17.1093   25.6765 N   0  0  0  0  0  0  0  0  0  0  0  0
    8.6769  -16.1255   24.6800 C   0  0  0  0  0  0  0  0  0  0  0  0
    9.6189  -16.4981   25.4651 O   0  0  0  0  0  0  0  0  0  0  0  0
    8.2273  -13.8036   17.6766 N   0  0  0  0  0  0  0  0  0  0  0  0
    8.5580  -13.0902   18.8519 C   0  0  0  0  0  0  0  0  0  0  0  0
    8.4988  -11.7934   18.8527 N   0  0  0  0  0  0  0  0  0  0  0  0
    8.9612  -13.7273   20.0568 N   0  0  0  0  0  0  0  0  0  0  0  0
    9.0551  -15.1627   20.1942 C   0  0  0  0  0  0  0  0  0  0  0  0
   10.4726  -15.5860   20.5685 C   0  0  0  0  0  0  0  0  0  0  0  0
   10.8345  -15.1924   21.9457 C   0  0  0  0  0  0  0  0  0  0  0  0
   10.3958  -16.2878   22.9192 C   0  0  2  0  0  0  0  0  0  0  0  0
    9.0013  -16.0210   23.3076 N   0  0  0  0  0  0  0  0  0  0  0  0
   11.2321  -16.1902   24.1241 C   0  0  0  0  0  0  0  0  0  0  0  0
   11.2115  -15.3000   24.9914 O   0  0  0  0  0  0  0  0  0  0  0  0
   12.1793  -17.2052   24.3595 O   0  0  0  0  0  0  0  0  0  0  0  0
  2  1  1  6
  3  2  1  0
  4  2  1  0
  4  5  1  6
  6  4  1  0
  7  6  2  0
  9 10  1  0
  9  8  1  0
 12 11  1  1
 11 10  1  0
 12 13  1  0
 13  6  1  0
 14 15  2  0
 14 12  1  0
 16 17  1  0
 17 18  2  0
 19 20  1  0
 19 17  1  0
 21 20  1  0
 23 22  1  6
 22 21  1  0
 23 24  1  0
 24 14  1  0
 25 23  1  0
 26 25  2  0
 27 25  1  0
M  END
$$$$
