TMR.pdb
     RDKit          3D

 27 26  0  0  1  0  0  0  0  0999 V2000
    7.5061  -16.7789   18.8116 C   0  0  0  0  0  0  0  0  0  0  0  0
    7.6878  -16.7079   20.3091 C   0  0  1  0  0  0  0  0  0  0  0  0
    9.0116  -17.0928   20.6179 O   0  0  0  0  0  0  0  0  0  0  0  0
    7.5741  -15.2564   20.7697 C   0  0  2  0  0  0  0  0  0  0  0  0
    8.8156  -14.5545   20.3890 N   0  0  0  0  0  0  0  0  0  0  0  0
    7.5219  -15.2127   22.2305 C   0  0  0  0  0  0  0  0  0  0  0  0
    6.5396  -15.7362   22.8411 O   0  0  0  0  0  0  0  0  0  0  0  0
    6.0769  -11.2946   27.3323 C   0  0  0  0  0  0  0  0  0  0  0  0
    7.4324  -11.8605   26.3078 S   0  0  0  0  0  0  0  0  0  0  0  0
    6.8599  -12.5237   24.7022 C   0  0  0  0  0  0  0  0  0  0  0  0
    6.9980  -14.0062   24.7622 C   0  0  0  0  0  0  0  0  0  0  0  0
    8.3681  -14.5619   24.4717 C   0  0  2  0  0  0  0  0  0  0  0  0
    8.5182  -14.6171   23.0029 N   0  0  0  0  0  0  0  0  0  0  0  0
    8.5970  -15.9289   24.9631 C   0  0  0  0  0  0  0  0  0  0  0  0
    7.6901  -16.8308   24.8816 O   0  0  0  0  0  0  0  0  0  0  0  0
   12.1056  -21.0315   29.3914 N   0  0  0  0  0  0  0  0  0  0  0  0
   13.1109  -21.4919   28.5101 C   0  0  0  0  0  0  0  0  0  0  0  0
   14.0986  -22.1943   28.9750 N   0  0  0  0  0  0  0  0  0  0  0  0
   13.1005  -21.2214   27.1147 N   0  0  0  0  0  0  0  0  0  0  0  0
   12.9676  -19.8885   26.5729 C   0  0  0  0  0  0  0  0  0  0  0  0
   11.5118  -19.5746   26.2402 C   0  0  0  0  0  0  0  0  0  0  0  0
   11.3388  -18.2146   25.6897 C   0  0  0  0  0  0  0  0  0  0  0  0
    9.9372  -17.7037   26.0286 C   0  0  2  0  0  0  0  0  0  0  0  0
    9.8268  -16.3188   25.5423 N   0  0  0  0  0  0  0  0  0  0  0  0
    9.7985  -17.6864   27.4918 C   0  0  0  0  0  0  0  0  0  0  0  0
   10.0450  -16.7455   28.2659 O   0  0  0  0  0  0  0  0  0  0  0  0
    9.3338  -18.8529   28.1290 O   0  0  0  0  0  0  0  0  0  0  0  0
  2  1  1  6
  3  2  1  0
  4  2  1  0
  4  5  1  1
  6  4  1  0
  7  6  2  0
  9 10  1  0
  9  8  1  0
 12 11  1  6
 11 10  1  0
 12 13  1  0
 13  6  1  0
 14 15  2  0
 14 12  1  0
 16 17  1  0
 17 18  2  0
 19 20  1  0
 19 17  1  0
 21 20  1  0
 23 22  1  1
 22 21  1  0
 23 24  1  0
 24 14  1  0
 25 23  1  0
 26 25  2  0
 27 25  1  0
M  END
$$$$
