TMR.pdb
     RDKit          3D

 27 26  0  0  1  0  0  0  0  0999 V2000
    7.0719  -14.9563   18.0514 C   0  0  0  0  0  0  0  0  0  0  0  0
    7.6478  -14.9332   19.4472 C   0  0  1  0  0  0  0  0  0  0  0  0
    9.0448  -15.1237   19.3580 O   0  0  0  0  0  0  0  0  0  0  0  0
    7.4701  -13.5417   20.0507 C   0  0  2  0  0  0  0  0  0  0  0  0
    8.3207  -12.6009   19.2955 N   0  0  0  0  0  0  0  0  0  0  0  0
    7.9854  -13.5362   21.4194 C   0  0  0  0  0  0  0  0  0  0  0  0
    9.2030  -13.2465   21.6322 O   0  0  0  0  0  0  0  0  0  0  0  0
    7.1143  -10.5965   27.1767 C   0  0  0  0  0  0  0  0  0  0  0  0
    6.1644  -12.1136   27.1199 S   0  0  0  0  0  0  0  0  0  0  0  0
    7.0696  -13.4694   26.2903 C   0  0  0  0  0  0  0  0  0  0  0  0
    6.7134  -13.4181   24.8443 C   0  0  0  0  0  0  0  0  0  0  0  0
    7.7895  -13.8358   23.8758 C   0  0  2  0  0  0  0  0  0  0  0  0
    7.1905  -13.8347   22.5253 N   0  0  0  0  0  0  0  0  0  0  0  0
    8.3229  -15.1891   24.0913 C   0  0  0  0  0  0  0  0  0  0  0  0
    7.6608  -16.2323   23.7508 O   0  0  0  0  0  0  0  0  0  0  0  0
   13.8687  -19.6896   22.2514 N   0  0  0  0  0  0  0  0  0  0  0  0
   13.6215  -20.6137   23.2928 C   0  0  0  0  0  0  0  0  0  0  0  0
   13.6946  -21.8869   23.0509 N   0  0  0  0  0  0  0  0  0  0  0  0
   13.2893  -20.2175   24.6168 N   0  0  0  0  0  0  0  0  0  0  0  0
   12.9759  -18.8529   24.9742 C   0  0  0  0  0  0  0  0  0  0  0  0
   11.7977  -18.3292   24.1579 C   0  0  0  0  0  0  0  0  0  0  0  0
   11.4821  -16.9185   24.4627 C   0  0  0  0  0  0  0  0  0  0  0  0
   10.0135  -16.8041   24.8755 C   0  0  2  0  0  0  0  0  0  0  0  0
    9.5914  -15.4081   24.6768 N   0  0  0  0  0  0  0  0  0  0  0  0
    9.9168  -17.1107   26.3098 C   0  0  0  0  0  0  0  0  0  0  0  0
    9.9726  -16.3128   27.2614 O   0  0  0  0  0  0  0  0  0  0  0  0
    9.7388  -18.4543   26.6916 O   0  0  0  0  0  0  0  0  0  0  0  0
  2  1  1  6
  3  2  1  0
  4  2  1  0
  4  5  1  6
  6  4  1  0
  7  6  2  0
  9 10  1  0
  9  8  1  0
 12 11  1  1
 11 10  1  0
 12 13  1  0
 13  6  1  0
 14 15  2  0
 14 12  1  0
 16 17  1  0
 17 18  2  0
 19 20  1  0
 19 17  1  0
 21 20  1  0
 23 22  1  1
 22 21  1  0
 23 24  1  0
 24 14  1  0
 25 23  1  0
 26 25  2  0
 27 25  1  0
M  END
$$$$
