TMR.pdb
     RDKit          3D

 27 26  0  0  1  0  0  0  0  0999 V2000
    8.7030  -13.7459   26.8539 C   0  0  0  0  0  0  0  0  0  0  0  0
    7.2468  -14.0062   27.1574 C   0  0  1  0  0  0  0  0  0  0  0  0
    6.8569  -13.1718   28.2288 O   0  0  0  0  0  0  0  0  0  0  0  0
    6.3906  -13.5644   25.9726 C   0  0  2  0  0  0  0  0  0  0  0  0
    4.9848  -13.9029   26.2695 N   0  0  0  0  0  0  0  0  0  0  0  0
    6.7505  -14.3504   24.7930 C   0  0  0  0  0  0  0  0  0  0  0  0
    6.2904  -15.5257   24.6556 O   0  0  0  0  0  0  0  0  0  0  0  0
    8.7189  -13.1310   18.3966 C   0  0  0  0  0  0  0  0  0  0  0  0
    7.7536  -12.1230   19.5187 S   0  0  0  0  0  0  0  0  0  0  0  0
    7.1289  -13.0781   20.9481 C   0  0  0  0  0  0  0  0  0  0  0  0
    8.2725  -13.8681   21.4851 C   0  0  0  0  0  0  0  0  0  0  0  0
    7.9779  -14.7481   22.6722 C   0  0  2  0  0  0  0  0  0  0  0  0
    7.5866  -13.8636   23.7891 N   0  0  0  0  0  0  0  0  0  0  0  0
    9.1199  -15.5407   23.1521 C   0  0  0  0  0  0  0  0  0  0  0  0
   10.0450  -15.0173   23.8680 O   0  0  0  0  0  0  0  0  0  0  0  0
    6.1245  -18.8534   24.4387 N   0  0  0  0  0  0  0  0  0  0  0  0
    6.4497  -20.1134   24.9920 C   0  0  0  0  0  0  0  0  0  0  0  0
    5.7497  -21.1568   24.6658 N   0  0  0  0  0  0  0  0  0  0  0  0
    7.5219  -20.3045   25.9054 N   0  0  0  0  0  0  0  0  0  0  0  0
    8.9084  -20.3181   25.4989 C   0  0  0  0  0  0  0  0  0  0  0  0
    9.3502  -18.9412   25.0114 C   0  0  0  0  0  0  0  0  0  0  0  0
   10.1108  -19.0072   23.7466 C   0  0  0  0  0  0  0  0  0  0  0  0
   10.4816  -17.5911   23.3021 C   0  0  2  0  0  0  0  0  0  0  0  0
    9.2519  -16.9169   22.8550 N   0  0  0  0  0  0  0  0  0  0  0  0
   11.3892  -17.6965   22.1508 C   0  0  0  0  0  0  0  0  0  0  0  0
   11.1619  -17.3691   20.9734 O   0  0  0  0  0  0  0  0  0  0  0  0
   12.6768  -18.2244   22.3658 O   0  0  0  0  0  0  0  0  0  0  0  0
  2  1  1  6
  3  2  1  0
  4  2  1  0
  4  5  1  1
  6  4  1  0
  7  6  2  0
  9 10  1  0
  9  8  1  0
 12 11  1  6
 11 10  1  0
 12 13  1  0
 13  6  1  0
 14 15  2  0
 14 12  1  0
 16 17  1  0
 17 18  2  0
 19 20  1  0
 19 17  1  0
 21 20  1  0
 23 22  1  6
 22 21  1  0
 23 24  1  0
 24 14  1  0
 25 23  1  0
 26 25  2  0
 27 25  1  0
M  END
$$$$
