TMR.pdb
     RDKit          3D

 27 26  0  0  1  0  0  0  0  0999 V2000
    7.0854  -16.1302   20.0841 C   0  0  0  0  0  0  0  0  0  0  0  0
    7.8542  -15.0196   19.4090 C   0  0  1  0  0  0  0  0  0  0  0  0
    7.4239  -14.9295   18.0663 O   0  0  0  0  0  0  0  0  0  0  0  0
    7.4800  -13.6808   20.0411 C   0  0  2  0  0  0  0  0  0  0  0  0
    8.1569  -12.6095   19.2841 N   0  0  0  0  0  0  0  0  0  0  0  0
    8.0220  -13.6155   21.3978 C   0  0  0  0  0  0  0  0  0  0  0  0
    9.2689  -13.4494   21.5700 O   0  0  0  0  0  0  0  0  0  0  0  0
    6.3365  -10.5401   27.4122 C   0  0  0  0  0  0  0  0  0  0  0  0
    5.9654  -12.2805   27.2104 S   0  0  0  0  0  0  0  0  0  0  0  0
    7.2671  -13.1648   26.2780 C   0  0  0  0  0  0  0  0  0  0  0  0
    6.8784  -13.1340   24.8398 C   0  0  0  0  0  0  0  0  0  0  0  0
    7.8534  -13.7511   23.8708 C   0  0  2  0  0  0  0  0  0  0  0  0
    7.2227  -13.7243   22.5350 N   0  0  0  0  0  0  0  0  0  0  0  0
    8.1883  -15.1570   24.1427 C   0  0  0  0  0  0  0  0  0  0  0  0
    7.3482  -16.1000   23.9248 O   0  0  0  0  0  0  0  0  0  0  0  0
   14.0521  -21.1481   22.8549 N   0  0  0  0  0  0  0  0  0  0  0  0
   14.1949  -19.7431   22.7847 C   0  0  0  0  0  0  0  0  0  0  0  0
   15.3714  -19.2108   22.9174 N   0  0  0  0  0  0  0  0  0  0  0  0
   13.0988  -18.8630   22.5737 N   0  0  0  0  0  0  0  0  0  0  0  0
   11.7325  -19.3204   22.4658 C   0  0  0  0  0  0  0  0  0  0  0  0
   10.8960  -18.8316   23.6449 C   0  0  0  0  0  0  0  0  0  0  0  0
   10.5893  -17.3890   23.5604 C   0  0  0  0  0  0  0  0  0  0  0  0
    9.7293  -16.9812   24.7580 C   0  0  2  0  0  0  0  0  0  0  0  0
    9.4515  -15.5397   24.6501 N   0  0  0  0  0  0  0  0  0  0  0  0
   10.5134  -17.2049   25.9809 C   0  0  0  0  0  0  0  0  0  0  0  0
   11.0244  -16.3474   26.7217 O   0  0  0  0  0  0  0  0  0  0  0  0
   10.7329  -18.5325   26.3960 O   0  0  0  0  0  0  0  0  0  0  0  0
  2  1  1  1
  3  2  1  0
  4  2  1  0
  4  5  1  6
  6  4  1  0
  7  6  2  0
  9 10  1  0
  9  8  1  0
 12 11  1  1
 11 10  1  0
 12 13  1  0
 13  6  1  0
 14 15  2  0
 14 12  1  0
 16 17  1  0
 17 18  2  0
 19 20  1  0
 19 17  1  0
 21 20  1  0
 23 22  1  6
 22 21  1  0
 23 24  1  0
 24 14  1  0
 25 23  1  0
 26 25  2  0
 27 25  1  0
M  END
$$$$
