TMR.pdb
     RDKit          3D

 27 26  0  0  1  0  0  0  0  0999 V2000
    7.2675  -15.3904   19.8664 C   0  0  0  0  0  0  0  0  0  0  0  0
    7.7552  -14.0800   19.2961 C   0  0  1  0  0  0  0  0  0  0  0  0
    7.2072  -13.9230   18.0034 O   0  0  0  0  0  0  0  0  0  0  0  0
    7.1882  -12.9229   20.1157 C   0  0  2  0  0  0  0  0  0  0  0  0
    7.5379  -11.6614   19.4336 N   0  0  0  0  0  0  0  0  0  0  0  0
    7.8576  -12.8738   21.4150 C   0  0  0  0  0  0  0  0  0  0  0  0
    8.3415  -11.7768   21.8325 O   0  0  0  0  0  0  0  0  0  0  0  0
    4.9293  -12.0188   26.4499 C   0  0  0  0  0  0  0  0  0  0  0  0
    6.5882  -11.3601   26.3043 S   0  0  0  0  0  0  0  0  0  0  0  0
    7.7914  -12.6231   25.7542 C   0  0  0  0  0  0  0  0  0  0  0  0
    7.6217  -12.7833   24.2825 C   0  0  0  0  0  0  0  0  0  0  0  0
    8.4839  -13.8265   23.6201 C   0  0  2  0  0  0  0  0  0  0  0  0
    7.9904  -13.9918   22.2373 N   0  0  0  0  0  0  0  0  0  0  0  0
    8.4291  -15.1583   24.2414 C   0  0  0  0  0  0  0  0  0  0  0  0
    7.3691  -15.8769   24.1933 O   0  0  0  0  0  0  0  0  0  0  0  0
   12.2720  -15.0822   18.9598 N   0  0  0  0  0  0  0  0  0  0  0  0
   13.1518  -15.6783   19.8926 C   0  0  0  0  0  0  0  0  0  0  0  0
   14.4305  -15.4829   19.7834 N   0  0  0  0  0  0  0  0  0  0  0  0
   12.7045  -16.4974   20.9647 N   0  0  0  0  0  0  0  0  0  0  0  0
   11.3075  -16.6783   21.2864 C   0  0  0  0  0  0  0  0  0  0  0  0
   11.0655  -16.5235   22.7851 C   0  0  0  0  0  0  0  0  0  0  0  0
   10.0325  -17.4514   23.2893 C   0  0  0  0  0  0  0  0  0  0  0  0
    9.7671  -17.1617   24.7678 C   0  0  2  0  0  0  0  0  0  0  0  0
    9.5407  -15.7148   24.9154 N   0  0  0  0  0  0  0  0  0  0  0  0
   10.9754  -17.5147   25.5267 C   0  0  0  0  0  0  0  0  0  0  0  0
   11.7602  -16.7434   26.1048 O   0  0  0  0  0  0  0  0  0  0  0  0
   11.3175  -18.8763   25.6356 O   0  0  0  0  0  0  0  0  0  0  0  0
  2  1  1  1
  3  2  1  0
  4  2  1  0
  4  5  1  6
  6  4  1  0
  7  6  2  0
  9 10  1  0
  9  8  1  0
 12 11  1  1
 11 10  1  0
 12 13  1  0
 13  6  1  0
 14 15  2  0
 14 12  1  0
 16 17  1  0
 17 18  2  0
 19 20  1  0
 19 17  1  0
 21 20  1  0
 23 22  1  6
 22 21  1  0
 23 24  1  0
 24 14  1  0
 25 23  1  0
 26 25  2  0
 27 25  1  0
M  END
$$$$
