TMR.pdb
     RDKit          3D

 27 26  0  0  1  0  0  0  0  0999 V2000
    7.0653  -15.8236   19.3578 C   0  0  0  0  0  0  0  0  0  0  0  0
    7.6677  -14.6250   18.6645 C   0  0  1  0  0  0  0  0  0  0  0  0
    7.0628  -14.4918   17.3947 O   0  0  0  0  0  0  0  0  0  0  0  0
    7.2930  -13.3536   19.4229 C   0  0  2  0  0  0  0  0  0  0  0  0
    7.8278  -12.1981   18.6761 N   0  0  0  0  0  0  0  0  0  0  0  0
    7.9726  -13.3420   20.7178 C   0  0  0  0  0  0  0  0  0  0  0  0
    9.2157  -13.0904   20.7738 O   0  0  0  0  0  0  0  0  0  0  0  0
    7.0659  -12.1286   28.4170 C   0  0  0  0  0  0  0  0  0  0  0  0
    6.4829  -12.3143   26.7339 S   0  0  0  0  0  0  0  0  0  0  0  0
    7.7384  -13.0768   25.6439 C   0  0  0  0  0  0  0  0  0  0  0  0
    7.1970  -13.0437   24.2561 C   0  0  0  0  0  0  0  0  0  0  0  0
    8.0770  -13.6277   23.1814 C   0  0  2  0  0  0  0  0  0  0  0  0
    7.3107  -13.5940   21.9187 N   0  0  0  0  0  0  0  0  0  0  0  0
    8.4633  -15.0306   23.3942 C   0  0  0  0  0  0  0  0  0  0  0  0
    7.6399  -15.9909   23.1881 O   0  0  0  0  0  0  0  0  0  0  0  0
   13.5757  -16.7722   18.9483 N   0  0  0  0  0  0  0  0  0  0  0  0
   13.8210  -15.5496   19.6150 C   0  0  0  0  0  0  0  0  0  0  0  0
   14.9372  -14.9197   19.4091 N   0  0  0  0  0  0  0  0  0  0  0  0
   12.8946  -14.9606   20.5179 N   0  0  0  0  0  0  0  0  0  0  0  0
   11.6812  -15.6208   20.9417 C   0  0  0  0  0  0  0  0  0  0  0  0
   11.8465  -16.2337   22.3294 C   0  0  0  0  0  0  0  0  0  0  0  0
   10.8012  -17.2322   22.6341 C   0  0  0  0  0  0  0  0  0  0  0  0
   10.0699  -16.8275   23.9154 C   0  0  2  0  0  0  0  0  0  0  0  0
    9.7597  -15.3912   23.8291 N   0  0  0  0  0  0  0  0  0  0  0  0
   10.9853  -17.0298   25.0474 C   0  0  0  0  0  0  0  0  0  0  0  0
   11.4282  -16.1696   25.8278 O   0  0  0  0  0  0  0  0  0  0  0  0
   11.4353  -18.3375   25.3125 O   0  0  0  0  0  0  0  0  0  0  0  0
  2  1  1  1
  3  2  1  0
  4  2  1  0
  4  5  1  6
  6  4  1  0
  7  6  2  0
  9 10  1  0
  9  8  1  0
 12 11  1  1
 11 10  1  0
 12 13  1  0
 13  6  1  0
 14 15  2  0
 14 12  1  0
 16 17  1  0
 17 18  2  0
 19 20  1  0
 19 17  1  0
 21 20  1  0
 23 22  1  6
 22 21  1  0
 23 24  1  0
 24 14  1  0
 25 23  1  0
 26 25  2  0
 27 25  1  0
M  END
$$$$
