TMR.pdb
     RDKit          3D

 27 26  0  0  1  0  0  0  0  0999 V2000
    8.8854  -17.7170   20.8503 C   0  0  0  0  0  0  0  0  0  0  0  0
    7.6135  -16.9674   20.5331 C   0  0  1  0  0  0  0  0  0  0  0  0
    6.6812  -17.2107   21.5663 O   0  0  0  0  0  0  0  0  0  0  0  0
    7.8805  -15.4646   20.5791 C   0  0  2  0  0  0  0  0  0  0  0  0
    8.8753  -15.1421   19.5373 N   0  0  0  0  0  0  0  0  0  0  0  0
    8.5107  -15.1217   21.8535 C   0  0  0  0  0  0  0  0  0  0  0  0
    9.7638  -15.2678   21.9953 O   0  0  0  0  0  0  0  0  0  0  0  0
    5.2213  -12.2294   26.7385 C   0  0  0  0  0  0  0  0  0  0  0  0
    6.9268  -11.7506   27.0020 S   0  0  0  0  0  0  0  0  0  0  0  0
    8.1047  -12.9800   26.3335 C   0  0  0  0  0  0  0  0  0  0  0  0
    7.6405  -13.3368   24.9633 C   0  0  0  0  0  0  0  0  0  0  0  0
    8.4974  -14.3138   24.2007 C   0  0  2  0  0  0  0  0  0  0  0  0
    7.7917  -14.6284   22.9414 N   0  0  0  0  0  0  0  0  0  0  0  0
    8.7240  -15.5980   24.8805 C   0  0  0  0  0  0  0  0  0  0  0  0
    7.7750  -16.4423   25.0512 O   0  0  0  0  0  0  0  0  0  0  0  0
   14.7098  -18.9169   21.4595 N   0  0  0  0  0  0  0  0  0  0  0  0
   13.5403  -19.7116   21.4789 C   0  0  0  0  0  0  0  0  0  0  0  0
   13.3594  -20.6086   20.5581 N   0  0  0  0  0  0  0  0  0  0  0  0
   12.5304  -19.5790   22.4702 N   0  0  0  0  0  0  0  0  0  0  0  0
   12.6148  -18.6305   23.5570 C   0  0  0  0  0  0  0  0  0  0  0  0
   11.3929  -18.7279   24.4659 C   0  0  0  0  0  0  0  0  0  0  0  0
   11.5011  -17.8556   25.6532 C   0  0  0  0  0  0  0  0  0  0  0  0
   10.1205  -17.2948   25.9994 C   0  0  2  0  0  0  0  0  0  0  0  0
    9.9968  -15.9686   25.3728 N   0  0  0  0  0  0  0  0  0  0  0  0
   10.0508  -17.1196   27.4571 C   0  0  0  0  0  0  0  0  0  0  0  0
    9.9522  -16.0537   28.0890 O   0  0  0  0  0  0  0  0  0  0  0  0
   10.0972  -18.2701   28.2676 O   0  0  0  0  0  0  0  0  0  0  0  0
  2  1  1  1
  3  2  1  0
  4  2  1  0
  4  5  1  6
  6  4  1  0
  7  6  2  0
  9 10  1  0
  9  8  1  0
 12 11  1  1
 11 10  1  0
 12 13  1  0
 13  6  1  0
 14 15  2  0
 14 12  1  0
 16 17  1  0
 17 18  2  0
 19 20  1  0
 19 17  1  0
 21 20  1  0
 23 22  1  1
 22 21  1  0
 23 24  1  0
 24 14  1  0
 25 23  1  0
 26 25  2  0
 27 25  1  0
M  END
$$$$
