TMR.pdb
     RDKit          3D

 27 26  0  0  1  0  0  0  0  0999 V2000
    6.7086  -14.2975   17.7299 C   0  0  0  0  0  0  0  0  0  0  0  0
    7.2693  -14.5194   19.1144 C   0  0  1  0  0  0  0  0  0  0  0  0
    8.5155  -15.1737   18.9928 O   0  0  0  0  0  0  0  0  0  0  0  0
    7.5846  -13.1722   19.7604 C   0  0  2  0  0  0  0  0  0  0  0  0
    8.6889  -12.5475   19.0059 N   0  0  0  0  0  0  0  0  0  0  0  0
    8.0972  -13.3897   21.1127 C   0  0  0  0  0  0  0  0  0  0  0  0
    9.3405  -13.5735   21.2924 O   0  0  0  0  0  0  0  0  0  0  0  0
    6.8100  -11.4263   28.5661 C   0  0  0  0  0  0  0  0  0  0  0  0
    6.2423  -11.7389   26.8966 S   0  0  0  0  0  0  0  0  0  0  0  0
    7.3559  -12.8669   25.9839 C   0  0  0  0  0  0  0  0  0  0  0  0
    6.9978  -12.7689   24.5408 C   0  0  0  0  0  0  0  0  0  0  0  0
    7.8759  -13.5297   23.5812 C   0  0  2  0  0  0  0  0  0  0  0  0
    7.2741  -13.4015   22.2380 N   0  0  0  0  0  0  0  0  0  0  0  0
    7.9821  -14.9713   23.8516 C   0  0  0  0  0  0  0  0  0  0  0  0
    7.2247  -15.8210   23.2626 O   0  0  0  0  0  0  0  0  0  0  0  0
   13.9990  -21.5057   21.3346 N   0  0  0  0  0  0  0  0  0  0  0  0
   13.3225  -20.2665   21.2553 C   0  0  0  0  0  0  0  0  0  0  0  0
   13.6312  -19.4266   20.3149 N   0  0  0  0  0  0  0  0  0  0  0  0
   12.3031  -19.8811   22.1678 N   0  0  0  0  0  0  0  0  0  0  0  0
   11.5756  -18.6379   22.0550 C   0  0  0  0  0  0  0  0  0  0  0  0
   10.6449  -18.4371   23.2476 C   0  0  0  0  0  0  0  0  0  0  0  0
   10.2346  -17.0276   23.4130 C   0  0  0  0  0  0  0  0  0  0  0  0
    9.3015  -16.9081   24.6193 C   0  0  2  0  0  0  0  0  0  0  0  0
    8.9258  -15.4925   24.7667 N   0  0  0  0  0  0  0  0  0  0  0  0
   10.0511  -17.3089   25.8184 C   0  0  0  0  0  0  0  0  0  0  0  0
   10.7088  -16.5798   26.5806 O   0  0  0  0  0  0  0  0  0  0  0  0
   10.0476  -18.6698   26.1802 O   0  0  0  0  0  0  0  0  0  0  0  0
  2  1  1  6
  3  2  1  0
  4  2  1  0
  4  5  1  6
  6  4  1  0
  7  6  2  0
  9 10  1  0
  9  8  1  0
 12 11  1  1
 11 10  1  0
 12 13  1  0
 13  6  1  0
 14 15  2  0
 14 12  1  0
 16 17  1  0
 17 18  2  0
 19 20  1  0
 19 17  1  0
 21 20  1  0
 23 22  1  6
 22 21  1  0
 23 24  1  0
 24 14  1  0
 25 23  1  0
 26 25  2  0
 27 25  1  0
M  END
$$$$
