QGN.pdb
     RDKit          3D

 22 21  0  0  1  0  0  0  0  0999 V2000
   24.1589  -20.5259  -11.0542 N   0  0  0  0  0  0  0  0  0  0  0  0
   24.8620  -21.0150   -9.8959 C   0  0  0  0  0  0  0  0  0  0  0  0
   24.1764  -21.5738   -9.0026 O   0  0  0  0  0  0  0  0  0  0  0  0
   26.3342  -20.8562   -9.7802 C   0  0  0  0  0  0  0  0  0  0  0  0
   26.7991  -20.0141  -10.9301 C   0  0  0  0  0  0  0  0  0  0  0  0
   26.4248  -20.6130  -12.2729 C   0  0  2  0  0  0  0  0  0  0  0  0
   27.4805  -21.4802  -12.7324 N   0  0  0  0  0  0  0  0  0  0  0  0
   26.2229  -19.4797  -13.2013 C   0  0  0  0  0  0  0  0  0  0  0  0
   25.2977  -18.6729  -12.9701 O   0  0  0  0  0  0  0  0  0  0  0  0
   27.0533  -19.3034  -14.3288 N   0  0  0  0  0  0  0  0  0  0  0  0
   27.0220  -18.1415  -15.1814 C   0  0  0  0  0  0  0  0  0  0  0  0
   25.7698  -18.1126  -16.0067 C   0  0  0  0  0  0  0  0  0  0  0  0
   25.2156  -19.1625  -16.4137 O   0  0  0  0  0  0  0  0  0  0  0  0
   21.5115  -16.4686  -18.4465 N   0  0  0  0  0  0  0  0  0  0  0  0
   22.0861  -15.3671  -17.7594 C   0  0  0  0  0  0  0  0  0  0  0  0
   21.4518  -14.2793  -17.8360 O   0  0  0  0  0  0  0  0  0  0  0  0
   23.3452  -15.5052  -17.0090 C   0  0  0  0  0  0  0  0  0  0  0  0
   23.9312  -16.8796  -17.1563 C   0  0  2  0  0  0  0  0  0  0  0  0
   25.1636  -16.8759  -16.3580 N   0  0  0  0  0  0  0  0  0  0  0  0
   24.2193  -17.2417  -18.5537 C   0  0  0  0  0  0  0  0  0  0  0  0
   25.3210  -16.9458  -19.1028 O   0  0  0  0  0  0  0  0  0  0  0  0
   23.2975  -17.9223  -19.3272 O   0  0  0  0  0  0  0  0  0  0  0  0
  1  2  1  0
  2  4  1  0
  2  3  2  0
  4  5  1  0
  5  6  1  0
  6  8  1  0
  6  7  1  6
  8  9  2  0
 10  8  1  0
 10 11  1  0
 11 12  1  0
 12 19  1  0
 12 13  2  0
 15 14  1  0
 15 17  1  0
 16 15  2  0
 18 17  1  6
 18 20  1  0
 19 18  1  0
 20 22  1  0
 21 20  2  0
M  END
$$$$
