QGN.pdb
     RDKit          3D

 22 21  0  0  1  0  0  0  0  0999 V2000
   21.3201  -21.4212  -12.3764 N   0  0  0  0  0  0  0  0  0  0  0  0
   20.5247  -21.2514  -11.1874 C   0  0  0  0  0  0  0  0  0  0  0  0
   19.3832  -21.7777  -11.1812 O   0  0  0  0  0  0  0  0  0  0  0  0
   21.0485  -20.4839  -10.0287 C   0  0  0  0  0  0  0  0  0  0  0  0
   22.4325  -20.0197  -10.3704 C   0  0  0  0  0  0  0  0  0  0  0  0
   23.5035  -20.8228   -9.6565 C   0  0  2  0  0  0  0  0  0  0  0  0
   23.3947  -20.6253   -8.2328 N   0  0  0  0  0  0  0  0  0  0  0  0
   24.8055  -20.3392  -10.1644 C   0  0  0  0  0  0  0  0  0  0  0  0
   25.3290  -19.3440   -9.6204 O   0  0  0  0  0  0  0  0  0  0  0  0
   25.4526  -20.9817  -11.2416 N   0  0  0  0  0  0  0  0  0  0  0  0
   26.7508  -20.6068  -11.7437 C   0  0  0  0  0  0  0  0  0  0  0  0
   26.6704  -20.1806  -13.1796 C   0  0  0  0  0  0  0  0  0  0  0  0
   26.2991  -19.0292  -13.5131 O   0  0  0  0  0  0  0  0  0  0  0  0
   27.9117  -17.9987  -17.6710 N   0  0  0  0  0  0  0  0  0  0  0  0
   28.3879  -19.2013  -17.0856 C   0  0  0  0  0  0  0  0  0  0  0  0
   29.0904  -19.9361  -17.8325 O   0  0  0  0  0  0  0  0  0  0  0  0
   28.0710  -19.5520  -15.6913 C   0  0  0  0  0  0  0  0  0  0  0  0
   27.0102  -20.6115  -15.6130 C   0  0  2  0  0  0  0  0  0  0  0  0
   27.0179  -21.0822  -14.2221 N   0  0  0  0  0  0  0  0  0  0  0  0
   27.2377  -21.7313  -16.5409 C   0  0  0  0  0  0  0  0  0  0  0  0
   26.6457  -21.7989  -17.6580 O   0  0  0  0  0  0  0  0  0  0  0  0
   28.1099  -22.7584  -16.2318 O   0  0  0  0  0  0  0  0  0  0  0  0
  1  2  1  0
  2  4  1  0
  2  3  2  0
  4  5  1  0
  5  6  1  0
  6  8  1  0
  6  7  1  1
  8  9  2  0
 10  8  1  0
 10 11  1  0
 11 12  1  0
 12 19  1  0
 12 13  2  0
 15 14  1  0
 15 17  1  0
 16 15  2  0
 18 17  1  1
 18 20  1  0
 19 18  1  0
 20 22  1  0
 21 20  2  0
M  END
$$$$
