QGN.pdb
     RDKit          3D

 22 21  0  0  1  0  0  0  0  0999 V2000
   25.0899  -24.0265  -13.9301 N   0  0  0  0  0  0  0  0  0  0  0  0
   25.6297  -23.6408  -15.2088 C   0  0  0  0  0  0  0  0  0  0  0  0
   26.2110  -24.5318  -15.8782 O   0  0  0  0  0  0  0  0  0  0  0  0
   25.4951  -22.2449  -15.6980 C   0  0  0  0  0  0  0  0  0  0  0  0
   24.5805  -21.5140  -14.7615 C   0  0  0  0  0  0  0  0  0  0  0  0
   23.1299  -21.5823  -15.2006 C   0  0  2  0  0  0  0  0  0  0  0  0
   22.9140  -20.6927  -16.3140 N   0  0  0  0  0  0  0  0  0  0  0  0
   22.3142  -21.1838  -14.0331 C   0  0  0  0  0  0  0  0  0  0  0  0
   22.2997  -19.9815  -13.6944 O   0  0  0  0  0  0  0  0  0  0  0  0
   21.5632  -22.1344  -13.3091 N   0  0  0  0  0  0  0  0  0  0  0  0
   20.6883  -21.8065  -12.2114 C   0  0  0  0  0  0  0  0  0  0  0  0
   20.0023  -23.0320  -11.6847 C   0  0  0  0  0  0  0  0  0  0  0  0
   19.9327  -24.0943  -12.3493 O   0  0  0  0  0  0  0  0  0  0  0  0
   17.4082  -25.2975   -6.6179 N   0  0  0  0  0  0  0  0  0  0  0  0
   18.1209  -25.3818   -7.8428 C   0  0  0  0  0  0  0  0  0  0  0  0
   18.1681  -26.5249   -8.3744 O   0  0  0  0  0  0  0  0  0  0  0  0
   18.7592  -24.1973   -8.4404 C   0  0  0  0  0  0  0  0  0  0  0  0
   18.6704  -24.2157   -9.9390 C   0  0  2  0  0  0  0  0  0  0  0  0
   19.4009  -23.0270  -10.3968 N   0  0  0  0  0  0  0  0  0  0  0  0
   17.2862  -24.1987  -10.4393 C   0  0  0  0  0  0  0  0  0  0  0  0
   16.7239  -25.2469  -10.8729 O   0  0  0  0  0  0  0  0  0  0  0  0
   16.5397  -23.0353  -10.4564 O   0  0  0  0  0  0  0  0  0  0  0  0
  1  2  1  0
  2  4  1  0
  2  3  2  0
  4  5  1  0
  5  6  1  0
  6  8  1  0
  6  7  1  6
  8  9  2  0
 10  8  1  0
 10 11  1  0
 11 12  1  0
 12 19  1  0
 12 13  2  0
 15 14  1  0
 15 17  1  0
 16 15  2  0
 18 17  1  1
 18 20  1  0
 19 18  1  0
 20 22  1  0
 21 20  2  0
M  END
$$$$
