QGN.pdb
     RDKit          3D

 22 21  0  0  1  0  0  0  0  0999 V2000
   11.0049   -9.1383  -12.7597 N   0  0  0  0  0  0  0  0  0  0  0  0
   12.1222   -9.3492  -13.6441 C   0  0  0  0  0  0  0  0  0  0  0  0
   12.8297   -8.3482  -13.9229 O   0  0  0  0  0  0  0  0  0  0  0  0
   12.4099  -10.6990  -14.1928 C   0  0  0  0  0  0  0  0  0  0  0  0
   13.8980  -10.8453  -14.3015 C   0  0  0  0  0  0  0  0  0  0  0  0
   14.3809  -10.7823  -15.7384 C   0  0  2  0  0  0  0  0  0  0  0  0
   13.9085  -11.9350  -16.4636 N   0  0  0  0  0  0  0  0  0  0  0  0
   15.8586  -10.7521  -15.6882 C   0  0  0  0  0  0  0  0  0  0  0  0
   16.4881  -11.8042  -15.9274 O   0  0  0  0  0  0  0  0  0  0  0  0
   16.5539   -9.5638  -15.3776 N   0  0  0  0  0  0  0  0  0  0  0  0
   17.9853   -9.4186  -15.4673 C   0  0  0  0  0  0  0  0  0  0  0  0
   18.4107   -8.0311  -15.0878 C   0  0  0  0  0  0  0  0  0  0  0  0
   17.5834   -7.1017  -14.9245 O   0  0  0  0  0  0  0  0  0  0  0  0
   21.2315   -4.0247  -13.4580 N   0  0  0  0  0  0  0  0  0  0  0  0
   22.0576   -5.1792  -13.4594 C   0  0  0  0  0  0  0  0  0  0  0  0
   23.2202   -5.0244  -12.9948 O   0  0  0  0  0  0  0  0  0  0  0  0
   21.5701   -6.4689  -13.9756 C   0  0  0  0  0  0  0  0  0  0  0  0
   20.1697   -6.3608  -14.5059 C   0  0  2  0  0  0  0  0  0  0  0  0
   19.7853   -7.7225  -14.8987 N   0  0  0  0  0  0  0  0  0  0  0  0
   20.0499   -5.4384  -15.6467 C   0  0  0  0  0  0  0  0  0  0  0  0
   20.3310   -5.8014  -16.8266 O   0  0  0  0  0  0  0  0  0  0  0  0
   19.6240   -4.1341  -15.4780 O   0  0  0  0  0  0  0  0  0  0  0  0
  1  2  1  0
  2  4  1  0
  2  3  2  0
  4  5  1  0
  5  6  1  0
  6  8  1  0
  6  7  1  6
  8  9  2  0
 10  8  1  0
 10 11  1  0
 11 12  1  0
 12 19  1  0
 12 13  2  0
 15 14  1  0
 15 17  1  0
 16 15  2  0
 18 17  1  6
 18 20  1  0
 19 18  1  0
 20 22  1  0
 21 20  2  0
M  END
$$$$
