QGN.pdb
     RDKit          3D

 22 21  0  0  1  0  0  0  0  0999 V2000
   17.6276  -13.8315  -15.1865 N   0  0  0  0  0  0  0  0  0  0  0  0
   16.8179  -13.0396  -16.0768 C   0  0  0  0  0  0  0  0  0  0  0  0
   15.5709  -13.1164  -15.9386 O   0  0  0  0  0  0  0  0  0  0  0  0
   17.4482  -12.1756  -17.1074 C   0  0  0  0  0  0  0  0  0  0  0  0
   18.9322  -12.3741  -17.0311 C   0  0  0  0  0  0  0  0  0  0  0  0
   19.6990  -11.0816  -17.2393 C   0  0  2  0  0  0  0  0  0  0  0  0
   20.3728  -11.1130  -18.5133 N   0  0  0  0  0  0  0  0  0  0  0  0
   20.6671  -10.9788  -16.1260 C   0  0  0  0  0  0  0  0  0  0  0  0
   21.1822  -12.0262  -15.6809 O   0  0  0  0  0  0  0  0  0  0  0  0
   21.0095   -9.7275  -15.5702 N   0  0  0  0  0  0  0  0  0  0  0  0
   21.9489   -9.5529  -14.4908 C   0  0  0  0  0  0  0  0  0  0  0  0
   22.0417   -8.1118  -14.0853 C   0  0  0  0  0  0  0  0  0  0  0  0
   22.6659   -7.7470  -13.0596 O   0  0  0  0  0  0  0  0  0  0  0  0
   22.6604   -2.8224  -14.5113 N   0  0  0  0  0  0  0  0  0  0  0  0
   21.6575   -3.4334  -15.3090 C   0  0  0  0  0  0  0  0  0  0  0  0
   20.7460   -2.6685  -15.7281 O   0  0  0  0  0  0  0  0  0  0  0  0
   21.6955   -4.8725  -15.6173 C   0  0  0  0  0  0  0  0  0  0  0  0
   21.4489   -5.7086  -14.3949 C   0  0  2  0  0  0  0  0  0  0  0  0
   21.4156   -7.1000  -14.8630 N   0  0  0  0  0  0  0  0  0  0  0  0
   20.1981   -5.3654  -13.6989 C   0  0  0  0  0  0  0  0  0  0  0  0
   19.1500   -6.0627  -13.8339 O   0  0  0  0  0  0  0  0  0  0  0  0
   20.1147   -4.2652  -12.8660 O   0  0  0  0  0  0  0  0  0  0  0  0
  1  2  1  0
  2  4  1  0
  2  3  2  0
  4  5  1  0
  5  6  1  0
  6  8  1  0
  6  7  1  6
  8  9  2  0
 10  8  1  0
 10 11  1  0
 11 12  1  0
 12 19  1  0
 12 13  2  0
 15 14  1  0
 15 17  1  0
 16 15  2  0
 18 17  1  6
 18 20  1  0
 19 18  1  0
 20 22  1  0
 21 20  2  0
M  END
$$$$
