QGN.pdb
     RDKit          3D

 22 21  0  0  1  0  0  0  0  0999 V2000
   24.3744  -15.8975  -20.8125 N   0  0  0  0  0  0  0  0  0  0  0  0
   24.8321  -16.5216  -19.5975 C   0  0  0  0  0  0  0  0  0  0  0  0
   24.0331  -16.5421  -18.6273 O   0  0  0  0  0  0  0  0  0  0  0  0
   26.1932  -17.1102  -19.5143 C   0  0  0  0  0  0  0  0  0  0  0  0
   26.5514  -17.2409  -18.0644 C   0  0  0  0  0  0  0  0  0  0  0  0
   26.7299  -18.6871  -17.6419 C   0  0  2  0  0  0  0  0  0  0  0  0
   25.5513  -19.4443  -17.9815 N   0  0  0  0  0  0  0  0  0  0  0  0
   26.9550  -18.6773  -16.1803 C   0  0  0  0  0  0  0  0  0  0  0  0
   26.1016  -18.1361  -15.4459 O   0  0  0  0  0  0  0  0  0  0  0  0
   28.1074  -19.2648  -15.6156 N   0  0  0  0  0  0  0  0  0  0  0  0
   28.3718  -19.3261  -14.1999 C   0  0  0  0  0  0  0  0  0  0  0  0
   27.3032  -20.0990  -13.4854 C   0  0  0  0  0  0  0  0  0  0  0  0
   26.7270  -21.0819  -14.0115 O   0  0  0  0  0  0  0  0  0  0  0  0
   24.2060  -21.8888   -9.7331 N   0  0  0  0  0  0  0  0  0  0  0  0
   25.1569  -21.0029   -9.1619 C   0  0  0  0  0  0  0  0  0  0  0  0
   25.1356  -20.9094   -7.9040 O   0  0  0  0  0  0  0  0  0  0  0  0
   26.1015  -20.2482  -10.0020 C   0  0  0  0  0  0  0  0  0  0  0  0
   25.9273  -20.5688  -11.4583 C   0  0  2  0  0  0  0  0  0  0  0  0
   26.9047  -19.7356  -12.1702 N   0  0  0  0  0  0  0  0  0  0  0  0
   24.5655  -20.3073  -11.9520 C   0  0  0  0  0  0  0  0  0  0  0  0
   23.5885  -21.0443  -11.6275 O   0  0  0  0  0  0  0  0  0  0  0  0
   24.2947  -19.2433  -12.7921 O   0  0  0  0  0  0  0  0  0  0  0  0
  1  2  1  0
  2  4  1  0
  2  3  2  0
  4  5  1  0
  5  6  1  0
  6  8  1  0
  6  7  1  1
  8  9  2  0
 10  8  1  0
 10 11  1  0
 11 12  1  0
 12 19  1  0
 12 13  2  0
 15 14  1  0
 15 17  1  0
 16 15  2  0
 18 17  1  1
 18 20  1  0
 19 18  1  0
 20 22  1  0
 21 20  2  0
M  END
$$$$
