QGN.pdb
     RDKit          3D

 22 21  0  0  1  0  0  0  0  0999 V2000
   17.5018  -16.3315  -15.2687 N   0  0  0  0  0  0  0  0  0  0  0  0
   16.3652  -15.8405  -16.0050 C   0  0  0  0  0  0  0  0  0  0  0  0
   15.4450  -16.6602  -16.2529 O   0  0  0  0  0  0  0  0  0  0  0  0
   16.3015  -14.4230  -16.4438 C   0  0  0  0  0  0  0  0  0  0  0  0
   17.5225  -13.7243  -15.9253 C   0  0  0  0  0  0  0  0  0  0  0  0
   17.2001  -12.3705  -15.3210 C   0  0  2  0  0  0  0  0  0  0  0  0
   16.0147  -11.8299  -15.9379 N   0  0  0  0  0  0  0  0  0  0  0  0
   18.3732  -11.5049  -15.5696 C   0  0  0  0  0  0  0  0  0  0  0  0
   19.4798  -11.8459  -15.1009 O   0  0  0  0  0  0  0  0  0  0  0  0
   18.2562  -10.3154  -16.3201 N   0  0  0  0  0  0  0  0  0  0  0  0
   19.3704   -9.4747  -16.6803 C   0  0  0  0  0  0  0  0  0  0  0  0
   19.5615   -8.3751  -15.6782 C   0  0  0  0  0  0  0  0  0  0  0  0
   18.7253   -8.1481  -14.7703 O   0  0  0  0  0  0  0  0  0  0  0  0
   22.5051   -5.0012  -12.4097 N   0  0  0  0  0  0  0  0  0  0  0  0
   22.5250   -4.9337  -13.8277 C   0  0  0  0  0  0  0  0  0  0  0  0
   22.7647   -3.7976  -14.3210 O   0  0  0  0  0  0  0  0  0  0  0  0
   22.2786   -6.1266  -14.6546 C   0  0  0  0  0  0  0  0  0  0  0  0
   20.8104   -6.3935  -14.8200 C   0  0  2  0  0  0  0  0  0  0  0  0
   20.7136   -7.5439  -15.7275 N   0  0  0  0  0  0  0  0  0  0  0  0
   20.0678   -5.2430  -15.3597 C   0  0  0  0  0  0  0  0  0  0  0  0
   19.6434   -4.3154  -14.6097 O   0  0  0  0  0  0  0  0  0  0  0  0
   19.8022   -5.1257  -16.7113 O   0  0  0  0  0  0  0  0  0  0  0  0
  1  2  1  0
  2  4  1  0
  2  3  2  0
  4  5  1  0
  5  6  1  0
  6  8  1  0
  6  7  1  6
  8  9  2  0
 10  8  1  0
 10 11  1  0
 11 12  1  0
 12 19  1  0
 12 13  2  0
 15 14  1  0
 15 17  1  0
 16 15  2  0
 18 17  1  6
 18 20  1  0
 19 18  1  0
 20 22  1  0
 21 20  2  0
M  END
$$$$
