QGN.pdb
     RDKit          3D

 22 21  0  0  1  0  0  0  0  0999 V2000
   23.8039  -15.9719  -17.5034 N   0  0  0  0  0  0  0  0  0  0  0  0
   24.7766  -16.1123  -16.4501 C   0  0  0  0  0  0  0  0  0  0  0  0
   25.6925  -16.9555  -16.6242 O   0  0  0  0  0  0  0  0  0  0  0  0
   24.6845  -15.2870  -15.2188 C   0  0  0  0  0  0  0  0  0  0  0  0
   23.5159  -14.3602  -15.3709 C   0  0  0  0  0  0  0  0  0  0  0  0
   23.9073  -13.0359  -15.9993 C   0  0  2  0  0  0  0  0  0  0  0  0
   24.8482  -12.3508  -15.1489 N   0  0  0  0  0  0  0  0  0  0  0  0
   22.6610  -12.2551  -16.1541 C   0  0  0  0  0  0  0  0  0  0  0  0
   21.7246  -12.7462  -16.8193 O   0  0  0  0  0  0  0  0  0  0  0  0
   22.5213  -10.9797  -15.5660 N   0  0  0  0  0  0  0  0  0  0  0  0
   21.3103  -10.1989  -15.6083 C   0  0  0  0  0  0  0  0  0  0  0  0
   21.4942   -8.8817  -14.9148 C   0  0  0  0  0  0  0  0  0  0  0  0
   22.4307   -8.6805  -14.1040 O   0  0  0  0  0  0  0  0  0  0  0  0
   22.4663   -4.4032  -13.2066 N   0  0  0  0  0  0  0  0  0  0  0  0
   22.5710   -4.7237  -14.5856 C   0  0  0  0  0  0  0  0  0  0  0  0
   23.0060   -3.8048  -15.3325 O   0  0  0  0  0  0  0  0  0  0  0  0
   22.1904   -6.0519  -15.0941 C   0  0  0  0  0  0  0  0  0  0  0  0
   20.8643   -6.4960  -14.5480 C   0  0  2  0  0  0  0  0  0  0  0  0
   20.5991   -7.8047  -15.1588 N   0  0  0  0  0  0  0  0  0  0  0  0
   19.7707   -5.5554  -14.8413 C   0  0  0  0  0  0  0  0  0  0  0  0
   19.0776   -5.6510  -15.8964 O   0  0  0  0  0  0  0  0  0  0  0  0
   19.4528   -4.5261  -13.9749 O   0  0  0  0  0  0  0  0  0  0  0  0
  1  2  1  0
  2  4  1  0
  2  3  2  0
  4  5  1  0
  5  6  1  0
  6  8  1  0
  6  7  1  1
  8  9  2  0
 10  8  1  0
 10 11  1  0
 11 12  1  0
 12 19  1  0
 12 13  2  0
 15 14  1  0
 15 17  1  0
 16 15  2  0
 18 17  1  6
 18 20  1  0
 19 18  1  0
 20 22  1  0
 21 20  2  0
M  END
$$$$
