QGN.pdb
     RDKit          3D

 22 21  0  0  1  0  0  0  0  0999 V2000
   17.3824  -15.4975  -18.1006 N   0  0  0  0  0  0  0  0  0  0  0  0
   18.4137  -15.5819  -17.0983 C   0  0  0  0  0  0  0  0  0  0  0  0
   18.1514  -16.2397  -16.0598 O   0  0  0  0  0  0  0  0  0  0  0  0
   19.7243  -14.9133  -17.3016 C   0  0  0  0  0  0  0  0  0  0  0  0
   19.6457  -14.1205  -18.5717 C   0  0  0  0  0  0  0  0  0  0  0  0
   20.9285  -13.3634  -18.8599 C   0  0  2  0  0  0  0  0  0  0  0  0
   21.8666  -13.5643  -17.7841 N   0  0  0  0  0  0  0  0  0  0  0  0
   20.5595  -11.9369  -18.9868 C   0  0  0  0  0  0  0  0  0  0  0  0
   19.8819  -11.5784  -19.9731 O   0  0  0  0  0  0  0  0  0  0  0  0
   20.9594  -10.9909  -18.0187 N   0  0  0  0  0  0  0  0  0  0  0  0
   20.6193   -9.5910  -18.0685 C   0  0  0  0  0  0  0  0  0  0  0  0
   21.1751   -8.8592  -16.8829 C   0  0  0  0  0  0  0  0  0  0  0  0
   21.6625   -9.4622  -15.8962 O   0  0  0  0  0  0  0  0  0  0  0  0
   22.6451   -5.0678  -13.6699 N   0  0  0  0  0  0  0  0  0  0  0  0
   22.3286   -4.4893  -14.9272 C   0  0  0  0  0  0  0  0  0  0  0  0
   22.5325   -3.2485  -15.0288 O   0  0  0  0  0  0  0  0  0  0  0  0
   21.7961   -5.3033  -16.0323 C   0  0  0  0  0  0  0  0  0  0  0  0
   21.6803   -6.7505  -15.6497 C   0  0  2  0  0  0  0  0  0  0  0  0
   21.1663   -7.4384  -16.8409 N   0  0  0  0  0  0  0  0  0  0  0  0
   20.7941   -6.9775  -14.4966 C   0  0  0  0  0  0  0  0  0  0  0  0
   19.5341   -6.9930  -14.6202 O   0  0  0  0  0  0  0  0  0  0  0  0
   21.3008   -7.1848  -13.2272 O   0  0  0  0  0  0  0  0  0  0  0  0
  1  2  1  0
  2  4  1  0
  2  3  2  0
  4  5  1  0
  5  6  1  0
  6  8  1  0
  6  7  1  1
  8  9  2  0
 10  8  1  0
 10 11  1  0
 11 12  1  0
 12 19  1  0
 12 13  2  0
 15 14  1  0
 15 17  1  0
 16 15  2  0
 18 17  1  6
 18 20  1  0
 19 18  1  0
 20 22  1  0
 21 20  2  0
M  END
$$$$
