QGN.pdb
     RDKit          3D

 22 21  0  0  1  0  0  0  0  0999 V2000
   15.5853  -16.2595  -15.7435 N   0  0  0  0  0  0  0  0  0  0  0  0
   15.9111  -14.9812  -15.1648 C   0  0  0  0  0  0  0  0  0  0  0  0
   15.1039  -14.5098  -14.3244 O   0  0  0  0  0  0  0  0  0  0  0  0
   17.1523  -14.2661  -15.5573 C   0  0  0  0  0  0  0  0  0  0  0  0
   17.0156  -12.8358  -15.1293 C   0  0  0  0  0  0  0  0  0  0  0  0
   17.3282  -11.8648  -16.2524 C   0  0  2  0  0  0  0  0  0  0  0  0
   18.7017  -12.0177  -16.6623 N   0  0  0  0  0  0  0  0  0  0  0  0
   17.0777  -10.5074  -15.7214 C   0  0  0  0  0  0  0  0  0  0  0  0
   15.9151  -10.2017  -15.3819 O   0  0  0  0  0  0  0  0  0  0  0  0
   18.1239   -9.5683  -15.5964 N   0  0  0  0  0  0  0  0  0  0  0  0
   17.9748   -8.2690  -14.9902 C   0  0  0  0  0  0  0  0  0  0  0  0
   19.2686   -7.5105  -15.0170 C   0  0  0  0  0  0  0  0  0  0  0  0
   20.3004   -7.9720  -15.5623 O   0  0  0  0  0  0  0  0  0  0  0  0
   22.7313   -3.6903  -14.7215 N   0  0  0  0  0  0  0  0  0  0  0  0
   21.4640   -3.1766  -14.3402 C   0  0  0  0  0  0  0  0  0  0  0  0
   21.4168   -1.9350  -14.1217 O   0  0  0  0  0  0  0  0  0  0  0  0
   20.2888   -4.0542  -14.2128 C   0  0  0  0  0  0  0  0  0  0  0  0
   20.6328   -5.4873  -14.4991 C   0  0  2  0  0  0  0  0  0  0  0  0
   19.3665   -6.2261  -14.4161 N   0  0  0  0  0  0  0  0  0  0  0  0
   21.6216   -6.0458  -13.5626 C   0  0  0  0  0  0  0  0  0  0  0  0
   21.2740   -6.7677  -12.5823 O   0  0  0  0  0  0  0  0  0  0  0  0
   22.9746   -5.8058  -13.7144 O   0  0  0  0  0  0  0  0  0  0  0  0
  1  2  1  0
  2  4  1  0
  2  3  2  0
  4  5  1  0
  5  6  1  0
  6  8  1  0
  6  7  1  1
  8  9  2  0
 10  8  1  0
 10 11  1  0
 11 12  1  0
 12 19  1  0
 12 13  2  0
 15 14  1  0
 15 17  1  0
 16 15  2  0
 18 17  1  1
 18 20  1  0
 19 18  1  0
 20 22  1  0
 21 20  2  0
M  END
$$$$
