KSG.pdb
     RDKit          3D

 20 19  0  0  1  0  0  0  0  0999 V2000
   14.7096  -10.7034  -15.7843 N   0  0  0  0  0  0  0  0  0  0  0  0
   14.7698   -9.7321  -14.7237 C   0  0  1  0  0  0  0  0  0  0  0  0
   14.8886  -10.4696  -13.4094 C   0  0  0  0  0  0  0  0  0  0  0  0
   13.5981  -11.1878  -13.1556 C   0  0  0  0  0  0  0  0  0  0  0  0
   13.5436  -11.8898  -11.8400 C   0  0  0  0  0  0  0  0  0  0  0  0
   12.2302  -12.6304  -11.6822 C   0  0  0  0  0  0  0  0  0  0  0  0
   12.1845  -13.3800  -10.4458 N   0  0  0  0  0  0  0  0  0  0  0  0
   15.9144   -8.8261  -14.9584 C   0  0  0  0  0  0  0  0  0  0  0  0
   16.8953   -9.1466  -15.6976 O   0  0  0  0  0  0  0  0  0  0  0  0
   17.2664   -4.2570  -15.2262 O   0  0  0  0  0  0  0  0  0  0  0  0
   16.3064   -5.1694  -14.8226 C   0  0  0  0  0  0  0  0  0  0  0  0
   16.9603   -6.5343  -14.7200 C   0  0  2  0  0  0  0  0  0  0  0  0
   15.9569   -7.5412  -14.3534 N   0  0  0  0  0  0  0  0  0  0  0  0
   18.0655   -6.5243  -13.7355 C   0  0  0  0  0  0  0  0  0  0  0  0
   17.7846   -6.7787  -12.5331 O   0  0  0  0  0  0  0  0  0  0  0  0
   19.4231   -6.2535  -14.0242 N   0  0  0  0  0  0  0  0  0  0  0  0
   20.4448   -6.2426  -12.9699 C   0  0  0  0  0  0  0  0  0  0  0  0
   21.7649   -5.9267  -13.5757 C   0  0  0  0  0  0  0  0  0  0  0  0
   22.8827   -5.6402  -12.8298 O   0  0  0  0  0  0  0  0  0  0  0  0
   21.8954   -5.9136  -14.8304 O   0  0  0  0  0  0  0  0  0  0  0  0
  2  1  1  6
  3  2  1  0
  4  3  1  0
  5  4  1  0
  6  5  1  0
  7  6  1  0
  8 13  1  0
  8  2  1  0
  9  8  2  0
 10 11  1  0
 12 11  1  1
 12 13  1  0
 14 12  1  0
 14 15  2  0
 16 14  1  0
 17 16  1  0
 18 17  1  0
 19 18  1  0
 20 18  2  0
M  END
$$$$
