KSG.pdb
     RDKit          3D

 20 19  0  0  1  0  0  0  0  0999 V2000
   19.1353  -13.0305  -15.7040 N   0  0  0  0  0  0  0  0  0  0  0  0
   18.9659  -11.6883  -16.1955 C   0  0  1  0  0  0  0  0  0  0  0  0
   17.5074  -11.3135  -16.0624 C   0  0  0  0  0  0  0  0  0  0  0  0
   16.6943  -12.3099  -16.8316 C   0  0  0  0  0  0  0  0  0  0  0  0
   15.2406  -11.9807  -16.9023 C   0  0  0  0  0  0  0  0  0  0  0  0
   14.5181  -12.9421  -17.8255 C   0  0  0  0  0  0  0  0  0  0  0  0
   13.1009  -12.6593  -17.8885 N   0  0  0  0  0  0  0  0  0  0  0  0
   19.8461  -10.7766  -15.4339 C   0  0  0  0  0  0  0  0  0  0  0  0
   19.7565  -10.6384  -14.1752 O   0  0  0  0  0  0  0  0  0  0  0  0
   23.6304  -10.6655  -15.2646 O   0  0  0  0  0  0  0  0  0  0  0  0
   23.2141   -9.4822  -15.8504 C   0  0  0  0  0  0  0  0  0  0  0  0
   21.8084   -9.1804  -15.3666 C   0  0  2  0  0  0  0  0  0  0  0  0
   20.8414  -10.0093  -16.0967 N   0  0  0  0  0  0  0  0  0  0  0  0
   21.4845   -7.7452  -15.5285 C   0  0  0  0  0  0  0  0  0  0  0  0
   20.8565   -7.3972  -16.5648 O   0  0  0  0  0  0  0  0  0  0  0  0
   21.8178   -6.7177  -14.6160 N   0  0  0  0  0  0  0  0  0  0  0  0
   21.5187   -5.3093  -14.9030 C   0  0  0  0  0  0  0  0  0  0  0  0
   21.9440   -4.4768  -13.7472 C   0  0  0  0  0  0  0  0  0  0  0  0
   22.4181   -5.0104  -12.5732 O   0  0  0  0  0  0  0  0  0  0  0  0
   21.8777   -3.2190  -13.8185 O   0  0  0  0  0  0  0  0  0  0  0  0
  2  1  1  1
  3  2  1  0
  4  3  1  0
  5  4  1  0
  6  5  1  0
  7  6  1  0
  8 13  1  0
  8  2  1  0
  9  8  2  0
 10 11  1  0
 12 11  1  6
 12 13  1  0
 14 12  1  0
 14 15  2  0
 16 14  1  0
 17 16  1  0
 18 17  1  0
 19 18  1  0
 20 18  2  0
M  END
$$$$
