KSG.pdb
     RDKit          3D

 20 19  0  0  1  0  0  0  0  0999 V2000
   21.6942  -13.0891  -17.7849 N   0  0  0  0  0  0  0  0  0  0  0  0
   21.3403  -11.6984  -17.8961 C   0  0  1  0  0  0  0  0  0  0  0  0
   19.9693  -11.6053  -18.5262 C   0  0  0  0  0  0  0  0  0  0  0  0
   20.0572  -12.1400  -19.9233 C   0  0  0  0  0  0  0  0  0  0  0  0
   19.0796  -13.2280  -20.2186 C   0  0  0  0  0  0  0  0  0  0  0  0
   19.2107  -13.6899  -21.6567 C   0  0  0  0  0  0  0  0  0  0  0  0
   18.3351  -14.8055  -21.9416 N   0  0  0  0  0  0  0  0  0  0  0  0
   21.3791  -11.0778  -16.5547 C   0  0  0  0  0  0  0  0  0  0  0  0
   20.8737  -11.6354  -15.5323 O   0  0  0  0  0  0  0  0  0  0  0  0
   24.1770  -10.1098  -14.6932 O   0  0  0  0  0  0  0  0  0  0  0  0
   22.9298   -9.9710  -14.1083 C   0  0  0  0  0  0  0  0  0  0  0  0
   22.0523   -9.1621  -15.0447 C   0  0  2  0  0  0  0  0  0  0  0  0
   21.9949   -9.8123  -16.3596 N   0  0  0  0  0  0  0  0  0  0  0  0
   22.5490   -7.7740  -15.1761 C   0  0  0  0  0  0  0  0  0  0  0  0
   23.4077   -7.5385  -16.0686 O   0  0  0  0  0  0  0  0  0  0  0  0
   22.1427   -6.6756  -14.3837 N   0  0  0  0  0  0  0  0  0  0  0  0
   22.8017   -5.3678  -14.4887 C   0  0  0  0  0  0  0  0  0  0  0  0
   22.2056   -4.4416  -13.4905 C   0  0  0  0  0  0  0  0  0  0  0  0
   21.3437   -3.4270  -13.8303 O   0  0  0  0  0  0  0  0  0  0  0  0
   22.4857   -4.5689  -12.2670 O   0  0  0  0  0  0  0  0  0  0  0  0
  2  1  1  1
  3  2  1  0
  4  3  1  0
  5  4  1  0
  6  5  1  0
  7  6  1  0
  8 13  1  0
  8  2  1  0
  9  8  2  0
 10 11  1  0
 12 11  1  1
 12 13  1  0
 14 12  1  0
 14 15  2  0
 16 14  1  0
 17 16  1  0
 18 17  1  0
 19 18  1  0
 20 18  2  0
M  END
$$$$
