KSG.pdb
     RDKit          3D

 20 19  0  0  1  0  0  0  0  0999 V2000
   23.1454  -12.7618  -19.1272 N   0  0  0  0  0  0  0  0  0  0  0  0
   23.0819  -11.3355  -19.3102 C   0  0  1  0  0  0  0  0  0  0  0  0
   21.6691  -10.9689  -19.7039 C   0  0  0  0  0  0  0  0  0  0  0  0
   21.3440  -11.6661  -20.9898 C   0  0  0  0  0  0  0  0  0  0  0  0
   19.9805  -11.3639  -21.5153 C   0  0  0  0  0  0  0  0  0  0  0  0
   19.7233  -12.1205  -22.8038 C   0  0  0  0  0  0  0  0  0  0  0  0
   19.4615  -13.5217  -22.5576 N   0  0  0  0  0  0  0  0  0  0  0  0
   23.5027  -10.6657  -18.0610 C   0  0  0  0  0  0  0  0  0  0  0  0
   23.0072  -10.9615  -16.9303 O   0  0  0  0  0  0  0  0  0  0  0  0
   26.9297  -10.1032  -16.4241 O   0  0  0  0  0  0  0  0  0  0  0  0
   26.4426   -8.8723  -16.8299 C   0  0  0  0  0  0  0  0  0  0  0  0
   24.9280   -8.9489  -16.8677 C   0  0  2  0  0  0  0  0  0  0  0  0
   24.4947   -9.6488  -18.0832 N   0  0  0  0  0  0  0  0  0  0  0  0
   24.3234   -7.5993  -16.8055 C   0  0  0  0  0  0  0  0  0  0  0  0
   24.4065   -6.8696  -17.8303 O   0  0  0  0  0  0  0  0  0  0  0  0
   23.6525   -7.0482  -15.6894 N   0  0  0  0  0  0  0  0  0  0  0  0
   22.9975   -5.7360  -15.7585 C   0  0  0  0  0  0  0  0  0  0  0  0
   22.3990   -5.4213  -14.4347 C   0  0  0  0  0  0  0  0  0  0  0  0
   21.7872   -4.2235  -14.1543 O   0  0  0  0  0  0  0  0  0  0  0  0
   22.4397   -6.2743  -13.5061 O   0  0  0  0  0  0  0  0  0  0  0  0
  2  1  1  1
  3  2  1  0
  4  3  1  0
  5  4  1  0
  6  5  1  0
  7  6  1  0
  8 13  1  0
  8  2  1  0
  9  8  2  0
 10 11  1  0
 12 11  1  6
 12 13  1  0
 14 12  1  0
 14 15  2  0
 16 14  1  0
 17 16  1  0
 18 17  1  0
 19 18  1  0
 20 18  2  0
M  END
$$$$
