KSG.pdb
     RDKit          3D

 20 19  0  0  1  0  0  0  0  0999 V2000
   15.8878  -10.5169  -15.3178 N   0  0  0  0  0  0  0  0  0  0  0  0
   17.3187  -10.3641  -15.3504 C   0  0  1  0  0  0  0  0  0  0  0  0
   17.7977  -10.6675  -16.7517 C   0  0  0  0  0  0  0  0  0  0  0  0
   17.5013  -12.1062  -17.0482 C   0  0  0  0  0  0  0  0  0  0  0  0
   18.3446  -13.0693  -16.2814 C   0  0  0  0  0  0  0  0  0  0  0  0
   17.9778  -14.4983  -16.6308 C   0  0  0  0  0  0  0  0  0  0  0  0
   18.8330  -15.4498  -15.9558 N   0  0  0  0  0  0  0  0  0  0  0  0
   17.6711   -8.9919  -14.9271 C   0  0  0  0  0  0  0  0  0  0  0  0
   17.0916   -7.9650  -15.3975 O   0  0  0  0  0  0  0  0  0  0  0  0
   19.9618   -8.3268  -11.5387 O   0  0  0  0  0  0  0  0  0  0  0  0
   19.0879   -7.3604  -12.0070 C   0  0  0  0  0  0  0  0  0  0  0  0
   19.0755   -7.4242  -13.5225 C   0  0  2  0  0  0  0  0  0  0  0  0
   18.6894   -8.7709  -13.9613 N   0  0  0  0  0  0  0  0  0  0  0  0
   20.3951   -7.0568  -14.0833 C   0  0  0  0  0  0  0  0  0  0  0  0
   21.1654   -7.9907  -14.4352 O   0  0  0  0  0  0  0  0  0  0  0  0
   20.8752   -5.7390  -14.2635 N   0  0  0  0  0  0  0  0  0  0  0  0
   22.2177   -5.4773  -14.7971 C   0  0  0  0  0  0  0  0  0  0  0  0
   22.1162   -5.2013  -16.2542 C   0  0  0  0  0  0  0  0  0  0  0  0
   23.0870   -4.5323  -16.9598 O   0  0  0  0  0  0  0  0  0  0  0  0
   21.1032   -5.5871  -16.8994 O   0  0  0  0  0  0  0  0  0  0  0  0
  2  1  1  6
  3  2  1  0
  4  3  1  0
  5  4  1  0
  6  5  1  0
  7  6  1  0
  8 13  1  0
  8  2  1  0
  9  8  2  0
 10 11  1  0
 12 11  1  1
 12 13  1  0
 14 12  1  0
 14 15  2  0
 16 14  1  0
 17 16  1  0
 18 17  1  0
 19 18  1  0
 20 18  2  0
M  END
$$$$
