KSG.pdb
     RDKit          3D

 20 19  0  0  1  0  0  0  0  0999 V2000
   22.6656  -17.9075  -16.5398 N   0  0  0  0  0  0  0  0  0  0  0  0
   21.3823  -17.4107  -16.1175 C   0  0  1  0  0  0  0  0  0  0  0  0
   21.3140  -17.4910  -14.6094 C   0  0  0  0  0  0  0  0  0  0  0  0
   21.5174  -18.9196  -14.2054 C   0  0  0  0  0  0  0  0  0  0  0  0
   20.2864  -19.7576  -14.3002 C   0  0  0  0  0  0  0  0  0  0  0  0
   20.5707  -21.1791  -13.8566 C   0  0  0  0  0  0  0  0  0  0  0  0
   19.3686  -21.9835  -13.8371 N   0  0  0  0  0  0  0  0  0  0  0  0
   21.2107  -16.0269  -16.6091 C   0  0  0  0  0  0  0  0  0  0  0  0
   22.1631  -15.1877  -16.6252 O   0  0  0  0  0  0  0  0  0  0  0  0
   18.4829  -12.8848  -19.0505 O   0  0  0  0  0  0  0  0  0  0  0  0
   18.6265  -14.1845  -18.5953 C   0  0  0  0  0  0  0  0  0  0  0  0
   19.7314  -14.2055  -17.5562 C   0  0  2  0  0  0  0  0  0  0  0  0
   19.9505  -15.5800  -17.0896 N   0  0  0  0  0  0  0  0  0  0  0  0
   19.4093  -13.3182  -16.4161 C   0  0  0  0  0  0  0  0  0  0  0  0
   18.8294  -13.8279  -15.4195 O   0  0  0  0  0  0  0  0  0  0  0  0
   19.6972  -11.9357  -16.3417 N   0  0  0  0  0  0  0  0  0  0  0  0
   19.3130  -11.1334  -15.1736 C   0  0  0  0  0  0  0  0  0  0  0  0
   19.7840   -9.7368  -15.3671 C   0  0  0  0  0  0  0  0  0  0  0  0
   19.5886   -8.7442  -14.4374 O   0  0  0  0  0  0  0  0  0  0  0  0
   20.3946   -9.4187  -16.4242 O   0  0  0  0  0  0  0  0  0  0  0  0
  2  1  1  1
  3  2  1  0
  4  3  1  0
  5  4  1  0
  6  5  1  0
  7  6  1  0
  8 13  1  0
  8  2  1  0
  9  8  2  0
 10 11  1  0
 12 11  1  6
 12 13  1  0
 14 12  1  0
 14 15  2  0
 16 14  1  0
 17 16  1  0
 18 17  1  0
 19 18  1  0
 20 18  2  0
M  END
$$$$
