KSG.pdb
     RDKit          3D

 20 19  0  0  1  0  0  0  0  0999 V2000
   24.0881  -22.2136  -13.9467 N   0  0  0  0  0  0  0  0  0  0  0  0
   23.4448  -20.9953  -14.3631 C   0  0  1  0  0  0  0  0  0  0  0  0
   22.3222  -20.6955  -13.3960 C   0  0  0  0  0  0  0  0  0  0  0  0
   21.0205  -20.8905  -14.1123 C   0  0  0  0  0  0  0  0  0  0  0  0
   20.3964  -22.2263  -13.8826 C   0  0  0  0  0  0  0  0  0  0  0  0
   19.0853  -22.3413  -14.6353 C   0  0  0  0  0  0  0  0  0  0  0  0
   18.4572  -23.6266  -14.4212 N   0  0  0  0  0  0  0  0  0  0  0  0
   24.4454  -19.9076  -14.4081 C   0  0  0  0  0  0  0  0  0  0  0  0
   25.3550  -19.7835  -13.5315 O   0  0  0  0  0  0  0  0  0  0  0  0
   25.6790  -18.1474  -17.8835 O   0  0  0  0  0  0  0  0  0  0  0  0
   26.3859  -18.1859  -16.6937 C   0  0  0  0  0  0  0  0  0  0  0  0
   25.4260  -17.8791  -15.5597 C   0  0  2  0  0  0  0  0  0  0  0  0
   24.4231  -18.9458  -15.4536 N   0  0  0  0  0  0  0  0  0  0  0  0
   24.7672  -16.5685  -15.7575 C   0  0  0  0  0  0  0  0  0  0  0  0
   23.5363  -16.5640  -16.0299 O   0  0  0  0  0  0  0  0  0  0  0  0
   25.3996  -15.3070  -15.6666 N   0  0  0  0  0  0  0  0  0  0  0  0
   24.7046  -14.0708  -16.0466 C   0  0  0  0  0  0  0  0  0  0  0  0
   25.6108  -12.9145  -15.8201 C   0  0  0  0  0  0  0  0  0  0  0  0
   26.8670  -13.0415  -15.2782 O   0  0  0  0  0  0  0  0  0  0  0  0
   25.2362  -11.7503  -16.1300 O   0  0  0  0  0  0  0  0  0  0  0  0
  2  1  1  1
  3  2  1  0
  4  3  1  0
  5  4  1  0
  6  5  1  0
  7  6  1  0
  8 13  1  0
  8  2  1  0
  9  8  2  0
 10 11  1  0
 12 11  1  6
 12 13  1  0
 14 12  1  0
 14 15  2  0
 16 14  1  0
 17 16  1  0
 18 17  1  0
 19 18  1  0
 20 18  2  0
M  END
$$$$
