KSG.pdb
     RDKit          3D

 20 19  0  0  1  0  0  0  0  0999 V2000
   27.6309  -15.4987  -16.6429 N   0  0  0  0  0  0  0  0  0  0  0  0
   26.7831  -14.5240  -17.2776 C   0  0  1  0  0  0  0  0  0  0  0  0
   25.4704  -15.1891  -17.6241 C   0  0  0  0  0  0  0  0  0  0  0  0
   25.7299  -16.2172  -18.6830 C   0  0  0  0  0  0  0  0  0  0  0  0
   24.4921  -16.8090  -19.2696 C   0  0  0  0  0  0  0  0  0  0  0  0
   24.8376  -17.7789  -20.3825 C   0  0  0  0  0  0  0  0  0  0  0  0
   23.6546  -18.4003  -20.9363 N   0  0  0  0  0  0  0  0  0  0  0  0
   26.6001  -13.3726  -16.3683 C   0  0  0  0  0  0  0  0  0  0  0  0
   26.5155  -13.5072  -15.1088 O   0  0  0  0  0  0  0  0  0  0  0  0
   28.0922   -9.8287  -17.2131 O   0  0  0  0  0  0  0  0  0  0  0  0
   27.6811  -10.1314  -15.9261 C   0  0  0  0  0  0  0  0  0  0  0  0
   26.3638  -10.8788  -16.0106 C   0  0  2  0  0  0  0  0  0  0  0  0
   26.5110  -12.0510  -16.8821 N   0  0  0  0  0  0  0  0  0  0  0  0
   25.2816   -9.9992  -16.5065 C   0  0  0  0  0  0  0  0  0  0  0  0
   25.1710   -9.8483  -17.7533 O   0  0  0  0  0  0  0  0  0  0  0  0
   24.3494   -9.3059  -15.7003 N   0  0  0  0  0  0  0  0  0  0  0  0
   23.3713   -8.3785  -16.2823 C   0  0  0  0  0  0  0  0  0  0  0  0
   22.4756   -7.8786  -15.2065 C   0  0  0  0  0  0  0  0  0  0  0  0
   21.5314   -6.9016  -15.4108 O   0  0  0  0  0  0  0  0  0  0  0  0
   22.5636   -8.3548  -14.0416 O   0  0  0  0  0  0  0  0  0  0  0  0
  2  1  1  1
  3  2  1  0
  4  3  1  0
  5  4  1  0
  6  5  1  0
  7  6  1  0
  8 13  1  0
  8  2  1  0
  9  8  2  0
 10 11  1  0
 12 11  1  6
 12 13  1  0
 14 12  1  0
 14 15  2  0
 16 14  1  0
 17 16  1  0
 18 17  1  0
 19 18  1  0
 20 18  2  0
M  END
$$$$
