KSG.pdb
     RDKit          3D

 20 19  0  0  1  0  0  0  0  0999 V2000
   27.1864  -20.9689  -15.5486 N   0  0  0  0  0  0  0  0  0  0  0  0
   27.0740  -20.1860  -14.3460 C   0  0  1  0  0  0  0  0  0  0  0  0
   26.6639  -18.7822  -14.7289 C   0  0  0  0  0  0  0  0  0  0  0  0
   27.8096  -18.1381  -15.4487 C   0  0  0  0  0  0  0  0  0  0  0  0
   27.5381  -17.8533  -16.8881 C   0  0  0  0  0  0  0  0  0  0  0  0
   26.4616  -16.7954  -17.0308 C   0  0  0  0  0  0  0  0  0  0  0  0
   26.2079  -16.4749  -18.4184 N   0  0  0  0  0  0  0  0  0  0  0  0
   26.0949  -20.8238  -13.4401 C   0  0  0  0  0  0  0  0  0  0  0  0
   25.1502  -21.5566  -13.8668 O   0  0  0  0  0  0  0  0  0  0  0  0
   26.8647  -21.8865   -9.6535 O   0  0  0  0  0  0  0  0  0  0  0  0
   25.7018  -21.1362   -9.6915 C   0  0  0  0  0  0  0  0  0  0  0  0
   25.1661  -21.1602  -11.1105 C   0  0  2  0  0  0  0  0  0  0  0  0
   26.1790  -20.6353  -12.0344 N   0  0  0  0  0  0  0  0  0  0  0  0
   23.9126  -20.3810  -11.2213 C   0  0  0  0  0  0  0  0  0  0  0  0
   24.0008  -19.1698  -11.5599 O   0  0  0  0  0  0  0  0  0  0  0  0
   22.6105  -20.8772  -10.9806 N   0  0  0  0  0  0  0  0  0  0  0  0
   21.4306  -20.0071  -11.0597 C   0  0  0  0  0  0  0  0  0  0  0  0
   20.7702  -20.2023  -12.3770 C   0  0  0  0  0  0  0  0  0  0  0  0
   19.6169  -19.5504  -12.7414 O   0  0  0  0  0  0  0  0  0  0  0  0
   21.2690  -20.9973  -13.2201 O   0  0  0  0  0  0  0  0  0  0  0  0
  2  1  1  6
  3  2  1  0
  4  3  1  0
  5  4  1  0
  6  5  1  0
  7  6  1  0
  8 13  1  0
  8  2  1  0
  9  8  2  0
 10 11  1  0
 12 11  1  1
 12 13  1  0
 14 12  1  0
 14 15  2  0
 16 14  1  0
 17 16  1  0
 18 17  1  0
 19 18  1  0
 20 18  2  0
M  END
$$$$
