KSG.pdb
     RDKit          3D

 20 19  0  0  1  0  0  0  0  0999 V2000
   17.9404  -12.6170  -15.8202 N   0  0  0  0  0  0  0  0  0  0  0  0
   18.3594  -11.3352  -16.3235 C   0  0  1  0  0  0  0  0  0  0  0  0
   17.1300  -10.4802  -16.5301 C   0  0  0  0  0  0  0  0  0  0  0  0
   16.4854  -10.8883  -17.8199 C   0  0  0  0  0  0  0  0  0  0  0  0
   15.2387  -11.6899  -17.6476 C   0  0  0  0  0  0  0  0  0  0  0  0
   14.5834  -11.9558  -18.9886 C   0  0  0  0  0  0  0  0  0  0  0  0
   13.4232  -12.8097  -18.8565 N   0  0  0  0  0  0  0  0  0  0  0  0
   19.3078  -10.7239  -15.3680 C   0  0  0  0  0  0  0  0  0  0  0  0
   19.0307  -10.5700  -14.1387 O   0  0  0  0  0  0  0  0  0  0  0  0
   23.2039  -10.3204  -16.3830 O   0  0  0  0  0  0  0  0  0  0  0  0
   22.9051  -10.2135  -15.0353 C   0  0  0  0  0  0  0  0  0  0  0  0
   21.5252   -9.5978  -14.9012 C   0  0  2  0  0  0  0  0  0  0  0  0
   20.5860  -10.2792  -15.8005 N   0  0  0  0  0  0  0  0  0  0  0  0
   21.5574   -8.1467  -15.1911 C   0  0  0  0  0  0  0  0  0  0  0  0
   21.3900   -7.7817  -16.3862 O   0  0  0  0  0  0  0  0  0  0  0  0
   21.7599   -7.1210  -14.2390 N   0  0  0  0  0  0  0  0  0  0  0  0
   21.9413   -5.7217  -14.6449 C   0  0  0  0  0  0  0  0  0  0  0  0
   22.0704   -4.8759  -13.4293 C   0  0  0  0  0  0  0  0  0  0  0  0
   21.8416   -5.3484  -12.1596 O   0  0  0  0  0  0  0  0  0  0  0  0
   22.4042   -3.6642  -13.5376 O   0  0  0  0  0  0  0  0  0  0  0  0
  2  1  1  1
  3  2  1  0
  4  3  1  0
  5  4  1  0
  6  5  1  0
  7  6  1  0
  8 13  1  0
  8  2  1  0
  9  8  2  0
 10 11  1  0
 12 11  1  6
 12 13  1  0
 14 12  1  0
 14 15  2  0
 16 14  1  0
 17 16  1  0
 18 17  1  0
 19 18  1  0
 20 18  2  0
M  END
$$$$
