KSG.pdb
     RDKit          3D

 20 19  0  0  1  0  0  0  0  0999 V2000
   27.9051  -25.5956  -17.3777 N   0  0  0  0  0  0  0  0  0  0  0  0
   28.5056  -24.3383  -17.0165 C   0  0  1  0  0  0  0  0  0  0  0  0
   28.8695  -23.6028  -18.2861 C   0  0  0  0  0  0  0  0  0  0  0  0
   30.3599  -23.6373  -18.4381 C   0  0  0  0  0  0  0  0  0  0  0  0
   30.9007  -24.9782  -18.8073 C   0  0  0  0  0  0  0  0  0  0  0  0
   32.3992  -24.9091  -19.0274 C   0  0  0  0  0  0  0  0  0  0  0  0
   32.9484  -26.2016  -19.3745 N   0  0  0  0  0  0  0  0  0  0  0  0
   27.5590  -23.5696  -16.1804 C   0  0  0  0  0  0  0  0  0  0  0  0
   26.3471  -23.9166  -16.0304 O   0  0  0  0  0  0  0  0  0  0  0  0
   27.0577  -20.1029  -12.8330 O   0  0  0  0  0  0  0  0  0  0  0  0
   27.8978  -20.6652  -13.7791 C   0  0  0  0  0  0  0  0  0  0  0  0
   27.0882  -21.6357  -14.6179 C   0  0  2  0  0  0  0  0  0  0  0  0
   27.9807  -22.3940  -15.5031 N   0  0  0  0  0  0  0  0  0  0  0  0
   26.0568  -20.9269  -15.4083 C   0  0  0  0  0  0  0  0  0  0  0  0
   26.4126  -20.3886  -16.4913 O   0  0  0  0  0  0  0  0  0  0  0  0
   24.6934  -20.7982  -15.0558 N   0  0  0  0  0  0  0  0  0  0  0  0
   23.7491  -20.0561  -15.9003 C   0  0  0  0  0  0  0  0  0  0  0  0
   22.4266  -20.0071  -15.2232 C   0  0  0  0  0  0  0  0  0  0  0  0
   21.3868  -19.2251  -15.6650 O   0  0  0  0  0  0  0  0  0  0  0  0
   22.2202  -20.7051  -14.1928 O   0  0  0  0  0  0  0  0  0  0  0  0
  2  1  1  6
  3  2  1  0
  4  3  1  0
  5  4  1  0
  6  5  1  0
  7  6  1  0
  8 13  1  0
  8  2  1  0
  9  8  2  0
 10 11  1  0
 12 11  1  6
 12 13  1  0
 14 12  1  0
 14 15  2  0
 16 14  1  0
 17 16  1  0
 18 17  1  0
 19 18  1  0
 20 18  2  0
M  END
$$$$
