KSG.pdb
     RDKit          3D

 20 19  0  0  1  0  0  0  0  0999 V2000
   28.8269  -25.9621  -16.2278 N   0  0  0  0  0  0  0  0  0  0  0  0
   27.8580  -25.1569  -16.9240 C   0  0  1  0  0  0  0  0  0  0  0  0
   26.8651  -26.0799  -17.5930 C   0  0  0  0  0  0  0  0  0  0  0  0
   27.6057  -26.9313  -18.5790 C   0  0  0  0  0  0  0  0  0  0  0  0
   27.5869  -28.3881  -18.2564 C   0  0  0  0  0  0  0  0  0  0  0  0
   28.2970  -29.1843  -19.3337 C   0  0  0  0  0  0  0  0  0  0  0  0
   28.3526  -30.5926  -19.0082 N   0  0  0  0  0  0  0  0  0  0  0  0
   27.2063  -24.2411  -15.9634 C   0  0  0  0  0  0  0  0  0  0  0  0
   26.8993  -24.5979  -14.7845 O   0  0  0  0  0  0  0  0  0  0  0  0
   27.4685  -20.3856  -16.7783 O   0  0  0  0  0  0  0  0  0  0  0  0
   27.1968  -20.6490  -15.4465 C   0  0  0  0  0  0  0  0  0  0  0  0
   26.3790  -21.9244  -15.3708 C   0  0  2  0  0  0  0  0  0  0  0  0
   26.8951  -22.9051  -16.3335 N   0  0  0  0  0  0  0  0  0  0  0  0
   24.9458  -21.6557  -15.6252 C   0  0  0  0  0  0  0  0  0  0  0  0
   24.5397  -21.7106  -16.8175 O   0  0  0  0  0  0  0  0  0  0  0  0
   23.9798  -21.3408  -14.6418 N   0  0  0  0  0  0  0  0  0  0  0  0
   22.5885  -21.0394  -15.0011 C   0  0  0  0  0  0  0  0  0  0  0  0
   21.8396  -20.6647  -13.7730 C   0  0  0  0  0  0  0  0  0  0  0  0
   22.3942  -20.7007  -12.5165 O   0  0  0  0  0  0  0  0  0  0  0  0
   20.6372  -20.2924  -13.8574 O   0  0  0  0  0  0  0  0  0  0  0  0
  2  1  1  1
  3  2  1  0
  4  3  1  0
  5  4  1  0
  6  5  1  0
  7  6  1  0
  8 13  1  0
  8  2  1  0
  9  8  2  0
 10 11  1  0
 12 11  1  6
 12 13  1  0
 14 12  1  0
 14 15  2  0
 16 14  1  0
 17 16  1  0
 18 17  1  0
 19 18  1  0
 20 18  2  0
M  END
$$$$
