LSH.pdb
     RDKit          3D

 25 25  0  0  1  0  0  0  0  0999 V2000
    0.9851  -19.0134   20.3071 C   0  0  0  0  0  0  0  0  0  0  0  0
    1.1747  -20.1418   21.3154 C   0  0  2  0  0  0  0  0  0  0  0  0
    0.2397  -19.8200   22.4797 C   0  0  0  0  0  0  0  0  0  0  0  0
    2.5733  -20.0859   21.8371 C   0  0  0  0  0  0  0  0  0  0  0  0
    3.6189  -20.2210   20.7694 C   0  0  2  0  0  0  0  0  0  0  0  0
    3.4819  -21.4143   19.9791 N   0  0  0  0  0  0  0  0  0  0  0  0
    4.9497  -20.2946   21.4799 C   0  0  0  0  0  0  0  0  0  0  0  0
    5.3706  -21.3992   21.9006 O   0  0  0  0  0  0  0  0  0  0  0  0
    7.3782  -16.7435   22.1062 O   0  0  0  0  0  0  0  0  0  0  0  0
    7.8878  -17.9841   21.7466 C   0  0  0  0  0  0  0  0  0  0  0  0
    7.0553  -19.1226   22.2490 C   0  0  2  0  0  0  0  0  0  0  0  0
    5.7319  -19.1341   21.6792 N   0  0  0  0  0  0  0  0  0  0  0  0
    7.0949  -19.3024   23.7125 C   0  0  0  0  0  0  0  0  0  0  0  0
    6.2742  -18.7152   24.4399 O   0  0  0  0  0  0  0  0  0  0  0  0
    8.0772  -20.1500   24.2694 N   0  0  0  0  0  0  0  0  0  0  0  0
    8.2952  -20.2665   25.6807 C   0  0  1  0  0  0  0  0  0  0  0  0
    8.2447  -21.7047   26.1591 C   0  0  0  0  0  0  0  0  0  0  0  0
    6.8881  -22.2806   26.0676 C   0  0  0  0  0  0  0  0  0  0  0  0
    5.7037  -21.5688   26.0336 C   0  0  0  0  0  0  0  0  0  0  0  0
    4.6747  -22.4085   25.9489 N   0  0  0  0  0  0  0  0  0  0  0  0
    5.1951  -23.6508   25.9288 C   0  0  0  0  0  0  0  0  0  0  0  0
    6.5348  -23.5784   26.0004 N   0  0  0  0  0  0  0  0  0  0  0  0
    9.5998  -19.6926   26.0672 C   0  0  0  0  0  0  0  0  0  0  0  0
   10.0286  -19.6885   27.2480 O   0  0  0  0  0  0  0  0  0  0  0  0
   10.4023  -19.1262   25.0867 O   0  0  0  0  0  0  0  0  0  0  0  0
  2  1  1  6
  2  3  1  0
  4  2  1  0
  4  5  1  0
  5  7  1  0
  5  6  1  1
  7  8  2  0
  9 10  1  0
 11 10  1  1
 12 11  1  0
 12  7  1  0
 13 11  1  0
 14 13  2  0
 15 13  1  0
 16 17  1  6
 16 15  1  0
 18 17  1  0
 19 18  2  0
 20 19  1  0
 21 20  1  0
 21 22  2  0
 22 18  1  0
 23 25  1  0
 23 16  1  0
 24 23  2  0
M  END
$$$$
