LSH.pdb
     RDKit          3D

 25 25  0  0  1  0  0  0  0  0999 V2000
    9.3060  -13.1107   18.9967 C   0  0  0  0  0  0  0  0  0  0  0  0
    7.8396  -13.2079   19.4045 C   0  0  2  0  0  0  0  0  0  0  0  0
    7.4264  -11.7940   19.8093 C   0  0  0  0  0  0  0  0  0  0  0  0
    7.7384  -14.0683   20.6213 C   0  0  0  0  0  0  0  0  0  0  0  0
    8.0303  -15.5166   20.3592 C   0  0  2  0  0  0  0  0  0  0  0  0
    6.9583  -16.2075   19.6951 N   0  0  0  0  0  0  0  0  0  0  0  0
    8.2243  -16.1658   21.7090 C   0  0  0  0  0  0  0  0  0  0  0  0
    7.2380  -16.3362   22.4655 O   0  0  0  0  0  0  0  0  0  0  0  0
   12.0695  -17.7832   22.8620 O   0  0  0  0  0  0  0  0  0  0  0  0
   10.8411  -18.3176   23.2272 C   0  0  0  0  0  0  0  0  0  0  0  0
    9.7740  -17.2772   23.3710 C   0  0  2  0  0  0  0  0  0  0  0  0
    9.5049  -16.5862   22.1356 N   0  0  0  0  0  0  0  0  0  0  0  0
    9.9400  -16.3970   24.5429 C   0  0  0  0  0  0  0  0  0  0  0  0
   10.6032  -15.3486   24.4520 O   0  0  0  0  0  0  0  0  0  0  0  0
    9.3343  -16.7652   25.7640 N   0  0  0  0  0  0  0  0  0  0  0  0
    9.5379  -16.0410   26.9834 C   0  0  1  0  0  0  0  0  0  0  0  0
    8.2474  -15.4778   27.5465 C   0  0  0  0  0  0  0  0  0  0  0  0
    7.7507  -14.3245   26.7697 C   0  0  0  0  0  0  0  0  0  0  0  0
    8.3765  -13.7485   25.6801 C   0  0  0  0  0  0  0  0  0  0  0  0
    7.6483  -12.7307   25.2273 N   0  0  0  0  0  0  0  0  0  0  0  0
    6.5626  -12.6540   26.0209 C   0  0  0  0  0  0  0  0  0  0  0  0
    6.6202  -13.6168   26.9562 N   0  0  0  0  0  0  0  0  0  0  0  0
   10.1614  -16.8964   28.0130 C   0  0  0  0  0  0  0  0  0  0  0  0
   10.3907  -18.1202   27.8463 O   0  0  0  0  0  0  0  0  0  0  0  0
   10.5167  -16.3328   29.2305 O   0  0  0  0  0  0  0  0  0  0  0  0
  2  1  1  1
  2  3  1  0
  4  2  1  0
  4  5  1  0
  5  7  1  0
  5  6  1  1
  7  8  2  0
  9 10  1  0
 11 10  1  6
 12 11  1  0
 12  7  1  0
 13 11  1  0
 14 13  2  0
 15 13  1  0
 16 17  1  1
 16 15  1  0
 18 17  1  0
 19 18  2  0
 20 19  1  0
 21 20  1  0
 21 22  2  0
 22 18  1  0
 23 25  1  0
 23 16  1  0
 24 23  2  0
M  END
$$$$
