LSH.pdb
     RDKit          3D

 25 25  0  0  1  0  0  0  0  0999 V2000
    9.2522  -13.1994   18.6104 C   0  0  0  0  0  0  0  0  0  0  0  0
    7.9503  -13.1073   19.3995 C   0  0  2  0  0  0  0  0  0  0  0  0
    7.8569  -11.6599   19.8789 C   0  0  0  0  0  0  0  0  0  0  0  0
    8.0644  -13.9728   20.6116 C   0  0  0  0  0  0  0  0  0  0  0  0
    8.1865  -15.4348   20.2967 C   0  0  2  0  0  0  0  0  0  0  0  0
    7.0058  -15.9936   19.6959 N   0  0  0  0  0  0  0  0  0  0  0  0
    8.4053  -16.1400   21.6143 C   0  0  0  0  0  0  0  0  0  0  0  0
    7.5125  -16.1048   22.4951 O   0  0  0  0  0  0  0  0  0  0  0  0
   12.2423  -17.8044   22.5934 O   0  0  0  0  0  0  0  0  0  0  0  0
   11.0756  -18.4556   22.9713 C   0  0  0  0  0  0  0  0  0  0  0  0
    9.9080  -17.5276   23.1026 C   0  0  2  0  0  0  0  0  0  0  0  0
    9.6049  -16.8420   21.8721 N   0  0  0  0  0  0  0  0  0  0  0  0
    9.9557  -16.6587   24.2935 C   0  0  0  0  0  0  0  0  0  0  0  0
    9.9595  -15.4211   24.1682 O   0  0  0  0  0  0  0  0  0  0  0  0
    9.9964  -17.2556   25.5724 N   0  0  0  0  0  0  0  0  0  0  0  0
    9.3737  -16.6725   26.7237 C   0  0  1  0  0  0  0  0  0  0  0  0
    7.8824  -16.4706   26.5372 C   0  0  0  0  0  0  0  0  0  0  0  0
    7.5357  -15.0622   26.2603 C   0  0  0  0  0  0  0  0  0  0  0  0
    8.4209  -14.0017   26.2131 C   0  0  0  0  0  0  0  0  0  0  0  0
    7.7639  -12.8773   25.9385 N   0  0  0  0  0  0  0  0  0  0  0  0
    6.4660  -13.2140   25.8102 C   0  0  0  0  0  0  0  0  0  0  0  0
    6.3229  -14.5357   26.0042 N   0  0  0  0  0  0  0  0  0  0  0  0
    9.5844  -17.5076   27.9233 C   0  0  0  0  0  0  0  0  0  0  0  0
    9.5642  -18.7635   27.9013 O   0  0  0  0  0  0  0  0  0  0  0  0
    9.8173  -16.8866   29.1424 O   0  0  0  0  0  0  0  0  0  0  0  0
  2  1  1  6
  2  3  1  0
  4  2  1  0
  4  5  1  0
  5  7  1  0
  5  6  1  1
  7  8  2  0
  9 10  1  0
 11 10  1  6
 12 11  1  0
 12  7  1  0
 13 11  1  0
 14 13  2  0
 15 13  1  0
 16 17  1  6
 16 15  1  0
 18 17  1  0
 19 18  2  0
 20 19  1  0
 21 20  1  0
 21 22  2  0
 22 18  1  0
 23 25  1  0
 23 16  1  0
 24 23  2  0
M  END
$$$$
