LSH.pdb
     RDKit          3D

 25 25  0  0  1  0  0  0  0  0999 V2000
    8.8454  -13.4271   18.7525 C   0  0  0  0  0  0  0  0  0  0  0  0
    7.5240  -13.4853   19.5116 C   0  0  2  0  0  0  0  0  0  0  0  0
    7.0638  -12.0359   19.6562 C   0  0  0  0  0  0  0  0  0  0  0  0
    7.7854  -14.0100   20.8856 C   0  0  0  0  0  0  0  0  0  0  0  0
    8.1779  -15.4580   20.9113 C   0  0  2  0  0  0  0  0  0  0  0  0
    7.1944  -16.3302   20.3286 N   0  0  0  0  0  0  0  0  0  0  0  0
    8.3197  -15.8378   22.3662 C   0  0  0  0  0  0  0  0  0  0  0  0
    9.1284  -15.2154   23.0962 O   0  0  0  0  0  0  0  0  0  0  0  0
    6.1379  -19.2018   24.0249 O   0  0  0  0  0  0  0  0  0  0  0  0
    6.4321  -18.0562   24.7523 C   0  0  0  0  0  0  0  0  0  0  0  0
    7.6722  -17.3665   24.2747 C   0  0  2  0  0  0  0  0  0  0  0  0
    7.5526  -16.8877   22.9210 N   0  0  0  0  0  0  0  0  0  0  0  0
    8.9205  -18.0994   24.5584 C   0  0  0  0  0  0  0  0  0  0  0  0
    9.3690  -18.9179   23.7361 O   0  0  0  0  0  0  0  0  0  0  0  0
    9.5936  -17.8550   25.7752 N   0  0  0  0  0  0  0  0  0  0  0  0
   10.7278  -18.6182   26.2042 C   0  0  1  0  0  0  0  0  0  0  0  0
   12.0308  -17.8579   26.0507 C   0  0  0  0  0  0  0  0  0  0  0  0
   12.3232  -17.5214   24.6430 C   0  0  0  0  0  0  0  0  0  0  0  0
   12.3741  -18.4130   23.5880 C   0  0  0  0  0  0  0  0  0  0  0  0
   12.6637  -17.7645   22.4625 N   0  0  0  0  0  0  0  0  0  0  0  0
   12.7978  -16.4656   22.7928 C   0  0  0  0  0  0  0  0  0  0  0  0
   12.5925  -16.3135   24.1119 N   0  0  0  0  0  0  0  0  0  0  0  0
   10.5909  -19.0275   27.6165 C   0  0  0  0  0  0  0  0  0  0  0  0
   11.4179  -19.7697   28.2025 O   0  0  0  0  0  0  0  0  0  0  0  0
    9.4986  -18.5768   28.3444 O   0  0  0  0  0  0  0  0  0  0  0  0
  2  1  1  6
  2  3  1  0
  4  2  1  0
  4  5  1  0
  5  7  1  0
  5  6  1  1
  7  8  2  0
  9 10  1  0
 11 10  1  6
 12 11  1  0
 12  7  1  0
 13 11  1  0
 14 13  2  0
 15 13  1  0
 16 17  1  1
 16 15  1  0
 18 17  1  0
 19 18  2  0
 20 19  1  0
 21 20  1  0
 21 22  2  0
 22 18  1  0
 23 25  1  0
 23 16  1  0
 24 23  2  0
M  END
$$$$
