LSH.pdb
     RDKit          3D

 25 25  0  0  1  0  0  0  0  0999 V2000
    8.5309  -12.7958   18.2429 C   0  0  0  0  0  0  0  0  0  0  0  0
    7.6199  -13.6946   19.0725 C   0  0  2  0  0  0  0  0  0  0  0  0
    6.3753  -12.8611   19.3723 C   0  0  0  0  0  0  0  0  0  0  0  0
    8.2903  -13.9810   20.3763 C   0  0  0  0  0  0  0  0  0  0  0  0
    7.7899  -15.2255   21.0488 C   0  0  2  0  0  0  0  0  0  0  0  0
    6.4278  -15.1272   21.4988 N   0  0  0  0  0  0  0  0  0  0  0  0
    8.6588  -15.4334   22.2666 C   0  0  0  0  0  0  0  0  0  0  0  0
    8.2216  -15.1293   23.4026 O   0  0  0  0  0  0  0  0  0  0  0  0
    9.6984  -18.3104   23.8306 O   0  0  0  0  0  0  0  0  0  0  0  0
   10.1570  -17.0902   24.3088 C   0  0  0  0  0  0  0  0  0  0  0  0
   10.8323  -16.2691   23.2545 C   0  0  2  0  0  0  0  0  0  0  0  0
    9.9622  -15.9673   22.1464 N   0  0  0  0  0  0  0  0  0  0  0  0
   12.1693  -16.7586   22.8693 C   0  0  0  0  0  0  0  0  0  0  0  0
   12.2878  -17.7986   22.1971 O   0  0  0  0  0  0  0  0  0  0  0  0
   13.3068  -16.0276   23.2758 N   0  0  0  0  0  0  0  0  0  0  0  0
   14.6429  -16.4084   22.9254 C   0  0  1  0  0  0  0  0  0  0  0  0
   15.4077  -15.2870   22.2492 C   0  0  0  0  0  0  0  0  0  0  0  0
   14.8948  -14.9924   20.8962 C   0  0  0  0  0  0  0  0  0  0  0  0
   13.8792  -15.6689   20.2470 C   0  0  0  0  0  0  0  0  0  0  0  0
   13.6785  -15.1357   19.0443 N   0  0  0  0  0  0  0  0  0  0  0  0
   14.5593  -14.1239   18.9224 C   0  0  0  0  0  0  0  0  0  0  0  0
   15.2978  -14.0332   20.0411 N   0  0  0  0  0  0  0  0  0  0  0  0
   15.4034  -16.8392   24.1156 C   0  0  0  0  0  0  0  0  0  0  0  0
   14.9175  -16.8602   25.2739 O   0  0  0  0  0  0  0  0  0  0  0  0
   16.7220  -17.2437   23.9610 O   0  0  0  0  0  0  0  0  0  0  0  0
  2  1  1  6
  2  3  1  0
  4  2  1  0
  4  5  1  0
  5  7  1  0
  5  6  1  1
  7  8  2  0
  9 10  1  0
 11 10  1  1
 12 11  1  0
 12  7  1  0
 13 11  1  0
 14 13  2  0
 15 13  1  0
 16 17  1  1
 16 15  1  0
 18 17  1  0
 19 18  2  0
 20 19  1  0
 21 20  1  0
 21 22  2  0
 22 18  1  0
 23 25  1  0
 23 16  1  0
 24 23  2  0
M  END
$$$$
