LSH.pdb
     RDKit          3D

 25 25  0  0  1  0  0  0  0  0999 V2000
    8.0070  -12.9971   17.8412 C   0  0  0  0  0  0  0  0  0  0  0  0
    7.3858  -13.3728   19.1825 C   0  0  2  0  0  0  0  0  0  0  0  0
    6.8913  -12.0626   19.7927 C   0  0  0  0  0  0  0  0  0  0  0  0
    8.4602  -13.9034   20.0744 C   0  0  0  0  0  0  0  0  0  0  0  0
    8.9769  -15.2492   19.6579 C   0  0  2  0  0  0  0  0  0  0  0  0
    7.9403  -16.2251   19.4562 N   0  0  0  0  0  0  0  0  0  0  0  0
    9.8522  -15.7401   20.7866 C   0  0  0  0  0  0  0  0  0  0  0  0
   10.4831  -14.9143   21.4896 O   0  0  0  0  0  0  0  0  0  0  0  0
   10.6386  -19.9360   21.2034 O   0  0  0  0  0  0  0  0  0  0  0  0
   10.5776  -19.1241   22.3281 C   0  0  0  0  0  0  0  0  0  0  0  0
   10.8821  -17.6894   22.0269 C   0  0  2  0  0  0  0  0  0  0  0  0
    9.9726  -17.1209   21.0647 N   0  0  0  0  0  0  0  0  0  0  0  0
   12.3068  -17.4153   21.7610 C   0  0  0  0  0  0  0  0  0  0  0  0
   12.7749  -17.5756   20.6197 O   0  0  0  0  0  0  0  0  0  0  0  0
   13.1253  -16.9695   22.8216 N   0  0  0  0  0  0  0  0  0  0  0  0
   14.5359  -16.7608   22.6814 C   0  0  1  0  0  0  0  0  0  0  0  0
   14.8790  -15.3238   22.3395 C   0  0  0  0  0  0  0  0  0  0  0  0
   14.6314  -15.0092   20.9182 C   0  0  0  0  0  0  0  0  0  0  0  0
   13.4350  -14.5762   20.3783 C   0  0  0  0  0  0  0  0  0  0  0  0
   13.5723  -14.3901   19.0677 N   0  0  0  0  0  0  0  0  0  0  0  0
   14.8482  -14.7016   18.7685 C   0  0  0  0  0  0  0  0  0  0  0  0
   15.4933  -15.0770   19.8856 N   0  0  0  0  0  0  0  0  0  0  0  0
   15.2542  -17.1298   23.9178 C   0  0  0  0  0  0  0  0  0  0  0  0
   14.6727  -17.4848   24.9732 O   0  0  0  0  0  0  0  0  0  0  0  0
   16.6414  -17.0865   23.9279 O   0  0  0  0  0  0  0  0  0  0  0  0
  2  1  1  6
  2  3  1  0
  4  2  1  0
  4  5  1  0
  5  7  1  0
  5  6  1  1
  7  8  2  0
  9 10  1  0
 11 10  1  6
 12 11  1  0
 12  7  1  0
 13 11  1  0
 14 13  2  0
 15 13  1  0
 16 17  1  1
 16 15  1  0
 18 17  1  0
 19 18  2  0
 20 19  1  0
 21 20  1  0
 21 22  2  0
 22 18  1  0
 23 25  1  0
 23 16  1  0
 24 23  2  0
M  END
$$$$
