LSH.pdb
     RDKit          3D

 25 25  0  0  1  0  0  0  0  0999 V2000
    6.5446  -11.9736   27.1800 C   0  0  0  0  0  0  0  0  0  0  0  0
    6.6660  -12.2696   25.6889 C   0  0  2  0  0  0  0  0  0  0  0  0
    5.2659  -12.0718   25.1108 C   0  0  0  0  0  0  0  0  0  0  0  0
    7.0213  -13.7101   25.5155 C   0  0  0  0  0  0  0  0  0  0  0  0
    7.7484  -13.9999   24.2353 C   0  0  2  0  0  0  0  0  0  0  0  0
    6.8777  -14.1438   23.1001 N   0  0  0  0  0  0  0  0  0  0  0  0
    8.4591  -15.3175   24.4350 C   0  0  0  0  0  0  0  0  0  0  0  0
    8.2481  -15.9875   25.4747 O   0  0  0  0  0  0  0  0  0  0  0  0
   11.6040  -16.4097   21.7651 O   0  0  0  0  0  0  0  0  0  0  0  0
   10.8429  -17.4086   22.3575 C   0  0  0  0  0  0  0  0  0  0  0  0
   10.2009  -16.9691   23.6368 C   0  0  2  0  0  0  0  0  0  0  0  0
    9.3620  -15.8102   23.4653 N   0  0  0  0  0  0  0  0  0  0  0  0
   11.1253  -16.8932   24.7836 C   0  0  0  0  0  0  0  0  0  0  0  0
   11.7914  -15.8624   24.9864 O   0  0  0  0  0  0  0  0  0  0  0  0
   11.2390  -18.0076   25.6432 N   0  0  0  0  0  0  0  0  0  0  0  0
   12.2459  -18.1087   26.6575 C   0  0  1  0  0  0  0  0  0  0  0  0
   11.6903  -17.8883   28.0511 C   0  0  0  0  0  0  0  0  0  0  0  0
   11.4938  -16.4574   28.3586 C   0  0  0  0  0  0  0  0  0  0  0  0
   11.7352  -15.4013   27.5002 C   0  0  0  0  0  0  0  0  0  0  0  0
   11.4492  -14.2519   28.1071 N   0  0  0  0  0  0  0  0  0  0  0  0
   11.0272  -14.5682   29.3466 C   0  0  0  0  0  0  0  0  0  0  0  0
   11.0525  -15.9023   29.5035 N   0  0  0  0  0  0  0  0  0  0  0  0
   12.9061  -19.4292   26.6227 C   0  0  0  0  0  0  0  0  0  0  0  0
   12.3089  -20.4907   26.3150 O   0  0  0  0  0  0  0  0  0  0  0  0
   14.2535  -19.5160   26.9438 O   0  0  0  0  0  0  0  0  0  0  0  0
  2  1  1  1
  2  3  1  0
  4  2  1  0
  4  5  1  0
  5  7  1  0
  5  6  1  6
  7  8  2  0
  9 10  1  0
 11 10  1  6
 12 11  1  0
 12  7  1  0
 13 11  1  0
 14 13  2  0
 15 13  1  0
 16 17  1  1
 16 15  1  0
 18 17  1  0
 19 18  2  0
 20 19  1  0
 21 20  1  0
 21 22  2  0
 22 18  1  0
 23 25  1  0
 23 16  1  0
 24 23  2  0
M  END
$$$$
