LSH.pdb
     RDKit          3D

 25 25  0  0  1  0  0  0  0  0999 V2000
    8.4085  -11.8927   18.4510 C   0  0  0  0  0  0  0  0  0  0  0  0
    8.1256  -13.0919   19.3498 C   0  0  2  0  0  0  0  0  0  0  0  0
    7.7479  -12.5108   20.7111 C   0  0  0  0  0  0  0  0  0  0  0  0
    9.3921  -13.8633   19.5294 C   0  0  0  0  0  0  0  0  0  0  0  0
    9.8956  -14.4948   18.2648 C   0  0  2  0  0  0  0  0  0  0  0  0
    8.9721  -15.4309   17.6831 N   0  0  0  0  0  0  0  0  0  0  0  0
   11.1456  -15.2574   18.6349 C   0  0  0  0  0  0  0  0  0  0  0  0
   11.0602  -16.2810   19.3553 O   0  0  0  0  0  0  0  0  0  0  0  0
   15.1292  -14.1207   17.1804 O   0  0  0  0  0  0  0  0  0  0  0  0
   14.6893  -15.4020   17.4850 C   0  0  0  0  0  0  0  0  0  0  0  0
   13.6693  -15.4214   18.5809 C   0  0  2  0  0  0  0  0  0  0  0  0
   12.4158  -14.8344   18.1807 N   0  0  0  0  0  0  0  0  0  0  0  0
   14.1746  -14.9584   19.8870 C   0  0  0  0  0  0  0  0  0  0  0  0
   14.1679  -13.7470   20.1694 O   0  0  0  0  0  0  0  0  0  0  0  0
   14.6634  -15.9119   20.8065 N   0  0  0  0  0  0  0  0  0  0  0  0
   15.1355  -15.5623   22.1133 C   0  0  1  0  0  0  0  0  0  0  0  0
   14.8542  -16.6420   23.1403 C   0  0  0  0  0  0  0  0  0  0  0  0
   13.4198  -16.7370   23.4780 C   0  0  0  0  0  0  0  0  0  0  0  0
   12.4452  -15.8128   23.1517 C   0  0  0  0  0  0  0  0  0  0  0  0
   11.2651  -16.2190   23.6140 N   0  0  0  0  0  0  0  0  0  0  0  0
   11.4809  -17.3959   24.2327 C   0  0  0  0  0  0  0  0  0  0  0  0
   12.7839  -17.7136   24.1530 N   0  0  0  0  0  0  0  0  0  0  0  0
   16.5883  -15.2977   22.1016 C   0  0  0  0  0  0  0  0  0  0  0  0
   17.3037  -15.4232   21.0765 O   0  0  0  0  0  0  0  0  0  0  0  0
   17.2069  -14.8895   23.2749 O   0  0  0  0  0  0  0  0  0  0  0  0
  2  1  1  6
  2  3  1  0
  4  2  1  0
  4  5  1  0
  5  7  1  0
  5  6  1  1
  7  8  2  0
  9 10  1  0
 11 10  1  6
 12 11  1  0
 12  7  1  0
 13 11  1  0
 14 13  2  0
 15 13  1  0
 16 17  1  1
 16 15  1  0
 18 17  1  0
 19 18  2  0
 20 19  1  0
 21 20  1  0
 21 22  2  0
 22 18  1  0
 23 25  1  0
 23 16  1  0
 24 23  2  0
M  END
$$$$
