LSH.pdb
     RDKit          3D

 25 25  0  0  1  0  0  0  0  0999 V2000
    8.3126  -13.0472   21.2299 C   0  0  0  0  0  0  0  0  0  0  0  0
    8.7550  -13.1497   19.7740 C   0  0  2  0  0  0  0  0  0  0  0  0
    8.0571  -12.0023   19.0461 C   0  0  0  0  0  0  0  0  0  0  0  0
    8.2286  -14.4261   19.2038 C   0  0  0  0  0  0  0  0  0  0  0  0
    8.9046  -15.6507   19.7468 C   0  0  2  0  0  0  0  0  0  0  0  0
    9.1042  -15.6132   21.1703 N   0  0  0  0  0  0  0  0  0  0  0  0
   10.2664  -15.7123   19.0967 C   0  0  0  0  0  0  0  0  0  0  0  0
   10.3658  -16.0377   17.8890 O   0  0  0  0  0  0  0  0  0  0  0  0
   14.5367  -14.2227   18.2502 O   0  0  0  0  0  0  0  0  0  0  0  0
   13.2698  -14.1511   18.8140 C   0  0  0  0  0  0  0  0  0  0  0  0
   12.7763  -15.4763   19.3058 C   0  0  2  0  0  0  0  0  0  0  0  0
   11.4360  -15.4078   19.8302 N   0  0  0  0  0  0  0  0  0  0  0  0
   13.7344  -16.1995   20.1630 C   0  0  0  0  0  0  0  0  0  0  0  0
   13.8791  -15.8756   21.3552 O   0  0  0  0  0  0  0  0  0  0  0  0
   14.4804  -17.2616   19.6071 N   0  0  0  0  0  0  0  0  0  0  0  0
   15.4275  -18.0265   20.3627 C   0  0  1  0  0  0  0  0  0  0  0  0
   15.3780  -19.5049   20.0289 C   0  0  0  0  0  0  0  0  0  0  0  0
   14.2157  -20.1808   20.6392 C   0  0  0  0  0  0  0  0  0  0  0  0
   13.3185  -19.6136   21.5246 C   0  0  0  0  0  0  0  0  0  0  0  0
   12.3978  -20.5102   21.8706 N   0  0  0  0  0  0  0  0  0  0  0  0
   12.7021  -21.6450   21.2119 C   0  0  0  0  0  0  0  0  0  0  0  0
   13.8019  -21.4505   20.4650 N   0  0  0  0  0  0  0  0  0  0  0  0
   16.8044  -17.5435   20.1357 C   0  0  0  0  0  0  0  0  0  0  0  0
   17.7976  -17.9641   20.7797 O   0  0  0  0  0  0  0  0  0  0  0  0
   17.0263  -16.5766   19.1652 O   0  0  0  0  0  0  0  0  0  0  0  0
  2  1  1  1
  2  3  1  0
  4  2  1  0
  4  5  1  0
  5  7  1  0
  5  6  1  1
  7  8  2  0
  9 10  1  0
 11 10  1  1
 12 11  1  0
 12  7  1  0
 13 11  1  0
 14 13  2  0
 15 13  1  0
 16 17  1  6
 16 15  1  0
 18 17  1  0
 19 18  2  0
 20 19  1  0
 21 20  1  0
 21 22  2  0
 22 18  1  0
 23 25  1  0
 23 16  1  0
 24 23  2  0
M  END
$$$$
