LSH.pdb
     RDKit          3D

 25 25  0  0  1  0  0  0  0  0999 V2000
   10.3799  -25.6961   16.1872 C   0  0  0  0  0  0  0  0  0  0  0  0
   11.3907  -24.6296   15.7786 C   0  0  2  0  0  0  0  0  0  0  0  0
   12.6290  -25.3899   15.3074 C   0  0  0  0  0  0  0  0  0  0  0  0
   11.7798  -23.8506   16.9923 C   0  0  0  0  0  0  0  0  0  0  0  0
   10.6368  -23.1118   17.6242 C   0  0  2  0  0  0  0  0  0  0  0  0
   10.0956  -22.0712   16.7926 N   0  0  0  0  0  0  0  0  0  0  0  0
   11.1851  -22.4602   18.8715 C   0  0  0  0  0  0  0  0  0  0  0  0
   11.8789  -21.4191   18.7766 O   0  0  0  0  0  0  0  0  0  0  0  0
    9.5730  -23.3021   22.7250 O   0  0  0  0  0  0  0  0  0  0  0  0
   10.2526  -22.1546   22.3388 C   0  0  0  0  0  0  0  0  0  0  0  0
   11.3791  -22.4362   21.3935 C   0  0  2  0  0  0  0  0  0  0  0  0
   10.9281  -23.0068   20.1497 N   0  0  0  0  0  0  0  0  0  0  0  0
   12.5258  -23.1315   22.0076 C   0  0  0  0  0  0  0  0  0  0  0  0
   12.5323  -24.3721   22.0993 O   0  0  0  0  0  0  0  0  0  0  0  0
   13.6110  -22.3659   22.4869 N   0  0  0  0  0  0  0  0  0  0  0  0
   14.7833  -22.9536   23.0643 C   0  0  1  0  0  0  0  0  0  0  0  0
   16.0575  -22.2579   22.6260 C   0  0  0  0  0  0  0  0  0  0  0  0
   16.2878  -22.3700   21.1717 C   0  0  0  0  0  0  0  0  0  0  0  0
   15.6869  -23.2792   20.3215 C   0  0  0  0  0  0  0  0  0  0  0  0
   16.1276  -23.0950   19.0793 N   0  0  0  0  0  0  0  0  0  0  0  0
   17.0054  -22.0747   19.1319 C   0  0  0  0  0  0  0  0  0  0  0  0
   17.1057  -21.6324   20.3967 N   0  0  0  0  0  0  0  0  0  0  0  0
   14.7213  -22.9260   24.5395 C   0  0  0  0  0  0  0  0  0  0  0  0
   13.8091  -22.3471   25.1806 O   0  0  0  0  0  0  0  0  0  0  0  0
   15.7143  -23.5678   25.2663 O   0  0  0  0  0  0  0  0  0  0  0  0
  2  1  1  1
  2  3  1  0
  4  2  1  0
  4  5  1  0
  5  7  1  0
  5  6  1  6
  7  8  2  0
  9 10  1  0
 11 10  1  1
 12 11  1  0
 12  7  1  0
 13 11  1  0
 14 13  2  0
 15 13  1  0
 16 17  1  1
 16 15  1  0
 18 17  1  0
 19 18  2  0
 20 19  1  0
 21 20  1  0
 21 22  2  0
 22 18  1  0
 23 25  1  0
 23 16  1  0
 24 23  2  0
M  END
$$$$
