WQY.pdb
     RDKit          3D

 36 38  0  0  1  0  0  0  0  0999 V2000
   14.3117  -10.1248  -15.5355 N   0  0  0  0  0  0  0  0  0  0  0  0
   14.8741   -8.9593  -16.1978 C   0  0  1  0  0  0  0  0  0  0  0  0
   14.0454   -7.7686  -15.8045 C   0  0  0  0  0  0  0  0  0  0  0  0
   12.7241   -7.7449  -16.4422 C   0  0  0  0  0  0  0  0  0  0  0  0
   11.5542   -8.2173  -15.8932 C   0  0  0  0  0  0  0  0  0  0  0  0
   10.5513   -8.0200  -16.7796 N   0  0  0  0  0  0  0  0  0  0  0  0
   11.0270   -7.4273  -17.9053 C   0  0  0  0  0  0  0  0  0  0  0  0
   10.4204   -7.0272  -19.0725 C   0  0  0  0  0  0  0  0  0  0  0  0
   11.1924   -6.4426  -20.0485 C   0  0  0  0  0  0  0  0  0  0  0  0
   12.5566   -6.2747  -19.8258 C   0  0  0  0  0  0  0  0  0  0  0  0
   13.1607   -6.6776  -18.6535 C   0  0  0  0  0  0  0  0  0  0  0  0
   12.3881   -7.2602  -17.6825 C   0  0  0  0  0  0  0  0  0  0  0  0
   16.3055   -8.8011  -15.9448 C   0  0  0  0  0  0  0  0  0  0  0  0
   16.7892   -9.1456  -14.8402 O   0  0  0  0  0  0  0  0  0  0  0  0
   20.5906   -8.0856  -20.3392 N   0  0  0  0  0  0  0  0  0  0  0  0
   21.4150   -8.0046  -19.1833 C   0  0  0  0  0  0  0  0  0  0  0  0
   22.6646   -8.0190  -19.3793 O   0  0  0  0  0  0  0  0  0  0  0  0
   20.8179   -7.9083  -17.8213 C   0  0  0  0  0  0  0  0  0  0  0  0
   19.3239   -8.0407  -17.9742 C   0  0  0  0  0  0  0  0  0  0  0  0
   18.6171   -8.0878  -16.6396 C   0  0  2  0  0  0  0  0  0  0  0  0
   17.2107   -8.2642  -16.9019 N   0  0  0  0  0  0  0  0  0  0  0  0
   18.9144   -6.8190  -15.9227 C   0  0  0  0  0  0  0  0  0  0  0  0
   18.2155   -5.7882  -15.9871 O   0  0  0  0  0  0  0  0  0  0  0  0
   25.9102   -8.2501  -16.6433 O   0  0  0  0  0  0  0  0  0  0  0  0
   24.8918   -7.6660  -15.8990 C   0  0  0  0  0  0  0  0  0  0  0  0
   24.0161   -8.4407  -15.1524 C   0  0  0  0  0  0  0  0  0  0  0  0
   23.0079   -7.8682  -14.4155 C   0  0  0  0  0  0  0  0  0  0  0  0
   22.8187   -6.4920  -14.3835 C   0  0  0  0  0  0  0  0  0  0  0  0
   21.7320   -5.8980  -13.6007 C   0  0  0  0  0  0  0  0  0  0  0  0
   20.5036   -5.5749  -14.4275 C   0  0  2  0  0  0  0  0  0  0  0  0
   20.0776   -6.7912  -15.1111 N   0  0  0  0  0  0  0  0  0  0  0  0
   20.8044   -4.5500  -15.4400 C   0  0  0  0  0  0  0  0  0  0  0  0
   20.9837   -3.2209  -15.1086 O   0  0  0  0  0  0  0  0  0  0  0  0
   23.6979   -5.7354  -15.1311 C   0  0  0  0  0  0  0  0  0  0  0  0
   24.7066   -6.3011  -15.8690 C   0  0  0  0  0  0  0  0  0  0  0  0
   20.9037   -4.8716  -16.6439 O   0  0  0  0  0  0  0  0  0  0  0  0
  2  3  1  0
  2  1  1  1
  4 12  1  0
  4  3  1  0
  5  4  2  0
  6  5  1  0
  6  7  1  0
  7  8  1  0
  7 12  2  0
  8  9  2  0
  9 10  1  0
 11 10  2  0
 12 11  1  0
 13  2  1  0
 14 13  2  0
 16 18  1  0
 16 15  1  0
 17 16  2  0
 20 19  1  6
 19 18  1  0
 20 21  1  0
 21 13  1  0
 22 20  1  0
 22 31  1  0
 23 22  2  0
 25 24  1  0
 25 26  2  0
 27 26  1  0
 28 27  2  0
 29 28  1  0
 30 31  1  0
 30 29  1  6
 32 30  1  0
 32 33  1  0
 34 35  2  0
 34 28  1  0
 35 25  1  0
 36 32  2  0
M  END
$$$$
