WQY.pdb
     RDKit          3D

 36 38  0  0  1  0  0  0  0  0999 V2000
   28.4190  -20.6111   -9.5209 N   0  0  0  0  0  0  0  0  0  0  0  0
   27.0555  -21.1060   -9.4259 C   0  0  1  0  0  0  0  0  0  0  0  0
   26.4386  -20.5056   -8.1937 C   0  0  0  0  0  0  0  0  0  0  0  0
   27.4018  -19.7819   -7.3560 C   0  0  0  0  0  0  0  0  0  0  0  0
   27.9720  -18.5646   -7.6494 C   0  0  0  0  0  0  0  0  0  0  0  0
   28.8046  -18.2235   -6.6389 N   0  0  0  0  0  0  0  0  0  0  0  0
   28.8013  -19.1859   -5.6803 C   0  0  0  0  0  0  0  0  0  0  0  0
   29.4641  -19.3063   -4.4818 C   0  0  0  0  0  0  0  0  0  0  0  0
   29.2429  -20.4273   -3.7172 C   0  0  0  0  0  0  0  0  0  0  0  0
   28.3595  -21.4001   -4.1776 C   0  0  0  0  0  0  0  0  0  0  0  0
   27.6968  -21.2750   -5.3804 C   0  0  0  0  0  0  0  0  0  0  0  0
   27.9197  -20.1561   -6.1404 C   0  0  0  0  0  0  0  0  0  0  0  0
   26.2863  -20.8823  -10.6489 C   0  0  0  0  0  0  0  0  0  0  0  0
   26.2977  -19.7558  -11.2001 O   0  0  0  0  0  0  0  0  0  0  0  0
   24.4726  -25.3793  -14.4232 N   0  0  0  0  0  0  0  0  0  0  0  0
   23.8893  -24.2722  -15.0989 C   0  0  0  0  0  0  0  0  0  0  0  0
   23.3692  -24.5102  -16.2272 O   0  0  0  0  0  0  0  0  0  0  0  0
   23.9007  -22.9112  -14.4920 C   0  0  0  0  0  0  0  0  0  0  0  0
   24.5639  -23.0254  -13.1429 C   0  0  0  0  0  0  0  0  0  0  0  0
   24.7692  -21.6765  -12.4937 C   0  0  2  0  0  0  0  0  0  0  0  0
   25.5018  -21.8928  -11.2712 N   0  0  0  0  0  0  0  0  0  0  0  0
   23.4290  -21.0743  -12.2629 C   0  0  0  0  0  0  0  0  0  0  0  0
   22.7035  -21.3162  -11.2779 O   0  0  0  0  0  0  0  0  0  0  0  0
   16.6160  -15.6240  -14.0016 O   0  0  0  0  0  0  0  0  0  0  0  0
   17.8420  -16.2792  -14.0059 C   0  0  0  0  0  0  0  0  0  0  0  0
   18.1612  -17.1939  -14.9987 C   0  0  0  0  0  0  0  0  0  0  0  0
   19.3714  -17.8442  -15.0072 C   0  0  0  0  0  0  0  0  0  0  0  0
   20.3284  -17.6172  -14.0257 C   0  0  0  0  0  0  0  0  0  0  0  0
   21.6100  -18.3269  -14.0435 C   0  0  0  0  0  0  0  0  0  0  0  0
   21.6453  -19.5258  -13.1171 C   0  0  2  0  0  0  0  0  0  0  0  0
   22.9525  -20.1616  -13.2390 N   0  0  0  0  0  0  0  0  0  0  0  0
   20.6116  -20.5067  -13.4850 C   0  0  0  0  0  0  0  0  0  0  0  0
   19.3911  -20.5642  -12.8403 O   0  0  0  0  0  0  0  0  0  0  0  0
   19.9959  -16.7045  -13.0455 C   0  0  0  0  0  0  0  0  0  0  0  0
   18.7892  -16.0520  -13.0316 C   0  0  0  0  0  0  0  0  0  0  0  0
   20.8257  -21.3236  -14.4067 O   0  0  0  0  0  0  0  0  0  0  0  0
  2  3  1  0
  2  1  1  6
  4 12  1  0
  4  3  1  0
  5  4  2  0
  6  5  1  0
  6  7  1  0
  7  8  1  0
  7 12  2  0
  8  9  2  0
  9 10  1  0
 11 10  2  0
 12 11  1  0
 13  2  1  0
 14 13  2  0
 16 18  1  0
 16 15  1  0
 17 16  2  0
 20 19  1  1
 19 18  1  0
 20 21  1  0
 21 13  1  0
 22 20  1  0
 22 31  1  0
 23 22  2  0
 25 24  1  0
 25 26  2  0
 27 26  1  0
 28 27  2  0
 29 28  1  0
 30 31  1  0
 30 29  1  6
 32 30  1  0
 32 33  1  0
 34 35  2  0
 34 28  1  0
 35 25  1  0
 36 32  2  0
M  END
$$$$
