WQY.pdb
     RDKit          3D

 36 38  0  0  1  0  0  0  0  0999 V2000
   22.2950  -17.0984  -16.9970 N   0  0  0  0  0  0  0  0  0  0  0  0
   22.6538  -18.3406  -17.6613 C   0  0  1  0  0  0  0  0  0  0  0  0
   22.9713  -18.0149  -19.0940 C   0  0  0  0  0  0  0  0  0  0  0  0
   22.0124  -17.0872  -19.7046 C   0  0  0  0  0  0  0  0  0  0  0  0
   22.2857  -15.8072  -20.1290 C   0  0  0  0  0  0  0  0  0  0  0  0
   21.1521  -15.2693  -20.6352 N   0  0  0  0  0  0  0  0  0  0  0  0
   20.1313  -16.1619  -20.5573 C   0  0  0  0  0  0  0  0  0  0  0  0
   18.8095  -16.0971  -20.9301 C   0  0  0  0  0  0  0  0  0  0  0  0
   18.0105  -17.1951  -20.7149 C   0  0  0  0  0  0  0  0  0  0  0  0
   18.5615  -18.3319  -20.1294 C   0  0  0  0  0  0  0  0  0  0  0  0
   19.8879  -18.3923  -19.7570 C   0  0  0  0  0  0  0  0  0  0  0  0
   20.6818  -17.2958  -19.9730 C   0  0  0  0  0  0  0  0  0  0  0  0
   23.7136  -19.0684  -16.9650 C   0  0  0  0  0  0  0  0  0  0  0  0
   24.5417  -19.7476  -17.6176 O   0  0  0  0  0  0  0  0  0  0  0  0
   28.5442  -18.5617  -16.6323 N   0  0  0  0  0  0  0  0  0  0  0  0
   28.6488  -19.4070  -15.4935 C   0  0  0  0  0  0  0  0  0  0  0  0
   29.8193  -19.7069  -15.1190 O   0  0  0  0  0  0  0  0  0  0  0  0
   27.4307  -19.9025  -14.7923 C   0  0  0  0  0  0  0  0  0  0  0  0
   26.2374  -19.2674  -15.4598 C   0  0  0  0  0  0  0  0  0  0  0  0
   24.9322  -19.7496  -14.8706 C   0  0  2  0  0  0  0  0  0  0  0  0
   23.8684  -19.0542  -15.5508 N   0  0  0  0  0  0  0  0  0  0  0  0
   24.9617  -19.4694  -13.4102 C   0  0  0  0  0  0  0  0  0  0  0  0
   25.1516  -18.3438  -12.9083 O   0  0  0  0  0  0  0  0  0  0  0  0
   19.1230  -17.4845  -12.4325 O   0  0  0  0  0  0  0  0  0  0  0  0
   20.1557  -18.2967  -11.9784 C   0  0  0  0  0  0  0  0  0  0  0  0
   20.7193  -19.2634  -12.7982 C   0  0  0  0  0  0  0  0  0  0  0  0
   21.7399  -20.0687  -12.3540 C   0  0  0  0  0  0  0  0  0  0  0  0
   22.2533  -19.9532  -11.0680 C   0  0  0  0  0  0  0  0  0  0  0  0
   23.3348  -20.8271  -10.6064 C   0  0  0  0  0  0  0  0  0  0  0  0
   24.7045  -20.3932  -11.0887 C   0  0  2  0  0  0  0  0  0  0  0  0
   24.7580  -20.5680  -12.5360 N   0  0  0  0  0  0  0  0  0  0  0  0
   25.7626  -21.2145  -10.4787 C   0  0  0  0  0  0  0  0  0  0  0  0
   26.1206  -21.0829   -9.1509 O   0  0  0  0  0  0  0  0  0  0  0  0
   21.6822  -18.9871  -10.2650 C   0  0  0  0  0  0  0  0  0  0  0  0
   20.6629  -18.1799  -10.7028 C   0  0  0  0  0  0  0  0  0  0  0  0
   26.3697  -22.0629  -11.1673 O   0  0  0  0  0  0  0  0  0  0  0  0
  2  3  1  0
  2  1  1  1
  4 12  1  0
  4  3  1  0
  5  4  2  0
  6  5  1  0
  6  7  1  0
  7  8  1  0
  7 12  2  0
  8  9  2  0
  9 10  1  0
 11 10  2  0
 12 11  1  0
 13  2  1  0
 14 13  2  0
 16 18  1  0
 16 15  1  0
 17 16  2  0
 20 19  1  6
 19 18  1  0
 20 21  1  0
 21 13  1  0
 22 20  1  0
 22 31  1  0
 23 22  2  0
 25 24  1  0
 25 26  2  0
 27 26  1  0
 28 27  2  0
 29 28  1  0
 30 31  1  0
 30 29  1  1
 32 30  1  0
 32 33  1  0
 34 35  2  0
 34 28  1  0
 35 25  1  0
 36 32  2  0
M  END
$$$$
