WQY.pdb
     RDKit          3D

 36 38  0  0  1  0  0  0  0  0999 V2000
   23.5511  -13.6519  -18.8839 N   0  0  0  0  0  0  0  0  0  0  0  0
   23.9877  -12.5535  -18.0376 C   0  0  1  0  0  0  0  0  0  0  0  0
   25.3137  -12.0760  -18.5601 C   0  0  0  0  0  0  0  0  0  0  0  0
   26.3917  -13.0571  -18.3906 C   0  0  0  0  0  0  0  0  0  0  0  0
   26.8685  -13.9082  -19.3609 C   0  0  0  0  0  0  0  0  0  0  0  0
   27.8599  -14.6584  -18.8272 N   0  0  0  0  0  0  0  0  0  0  0  0
   28.0536  -14.3259  -17.5246 C   0  0  0  0  0  0  0  0  0  0  0  0
   28.9246  -14.7886  -16.5668 C   0  0  0  0  0  0  0  0  0  0  0  0
   28.8739  -14.2359  -15.3090 C   0  0  0  0  0  0  0  0  0  0  0  0
   27.9474  -13.2303  -15.0457 C   0  0  0  0  0  0  0  0  0  0  0  0
   27.0756  -12.7693  -16.0096 C   0  0  0  0  0  0  0  0  0  0  0  0
   27.1288  -13.3227  -17.2627 C   0  0  0  0  0  0  0  0  0  0  0  0
   22.9805  -11.5011  -17.9129 C   0  0  0  0  0  0  0  0  0  0  0  0
   22.4723  -10.9939  -18.9412 O   0  0  0  0  0  0  0  0  0  0  0  0
   18.5924  -11.0534  -13.8081 N   0  0  0  0  0  0  0  0  0  0  0  0
   18.6416  -11.7942  -15.0211 C   0  0  0  0  0  0  0  0  0  0  0  0
   17.7884  -12.7189  -15.1524 O   0  0  0  0  0  0  0  0  0  0  0  0
   19.6531  -11.4814  -16.0698 C   0  0  0  0  0  0  0  0  0  0  0  0
   20.5252  -10.3726  -15.5377 C   0  0  0  0  0  0  0  0  0  0  0  0
   21.5652   -9.9345  -16.5424 C   0  0  2  0  0  0  0  0  0  0  0  0
   22.5277  -11.0011  -16.6603 N   0  0  0  0  0  0  0  0  0  0  0  0
   22.1678   -8.6671  -16.0498 C   0  0  0  0  0  0  0  0  0  0  0  0
   23.1723   -8.5991  -15.3140 O   0  0  0  0  0  0  0  0  0  0  0  0
   23.0259    0.2061  -15.8338 O   0  0  0  0  0  0  0  0  0  0  0  0
   22.7691   -1.1199  -16.1625 C   0  0  0  0  0  0  0  0  0  0  0  0
   23.7279   -1.8999  -16.7923 C   0  0  0  0  0  0  0  0  0  0  0  0
   23.4787   -3.2107  -17.1195 C   0  0  0  0  0  0  0  0  0  0  0  0
   22.2596   -3.8142  -16.8361 C   0  0  0  0  0  0  0  0  0  0  0  0
   22.0063   -5.2104  -17.2012 C   0  0  0  0  0  0  0  0  0  0  0  0
   22.0538   -6.1581  -16.0196 C   0  0  2  0  0  0  0  0  0  0  0  0
   21.5476   -7.4562  -16.4518 N   0  0  0  0  0  0  0  0  0  0  0  0
   21.2089   -5.6695  -14.9179 C   0  0  0  0  0  0  0  0  0  0  0  0
   21.7256   -4.9418  -13.8634 O   0  0  0  0  0  0  0  0  0  0  0  0
   21.3167   -3.0254  -16.2094 C   0  0  0  0  0  0  0  0  0  0  0  0
   21.5594   -1.7159  -15.8802 C   0  0  0  0  0  0  0  0  0  0  0  0
   19.9825   -5.9113  -14.9169 O   0  0  0  0  0  0  0  0  0  0  0  0
  2  3  1  0
  2  1  1  6
  4 12  1  0
  4  3  1  0
  5  4  2  0
  6  5  1  0
  6  7  1  0
  7  8  1  0
  7 12  2  0
  8  9  2  0
  9 10  1  0
 11 10  2  0
 12 11  1  0
 13  2  1  0
 14 13  2  0
 16 18  1  0
 16 15  1  0
 17 16  2  0
 20 19  1  1
 19 18  1  0
 20 21  1  0
 21 13  1  0
 22 20  1  0
 22 31  1  0
 23 22  2  0
 25 24  1  0
 25 26  2  0
 27 26  1  0
 28 27  2  0
 29 28  1  0
 30 31  1  0
 30 29  1  6
 32 30  1  0
 32 33  1  0
 34 35  2  0
 34 28  1  0
 35 25  1  0
 36 32  2  0
M  END
$$$$
