WQY.pdb
     RDKit          3D

 36 38  0  0  1  0  0  0  0  0999 V2000
   27.6921  -20.6746  -10.1672 N   0  0  0  0  0  0  0  0  0  0  0  0
   26.4700  -21.4616  -10.1466 C   0  0  1  0  0  0  0  0  0  0  0  0
   26.0157  -21.5590   -8.7171 C   0  0  0  0  0  0  0  0  0  0  0  0
   26.5320  -20.4785   -7.8691 C   0  0  0  0  0  0  0  0  0  0  0  0
   26.4445  -19.1314   -8.1355 C   0  0  0  0  0  0  0  0  0  0  0  0
   27.0325  -18.4526   -7.1235 N   0  0  0  0  0  0  0  0  0  0  0  0
   27.5089  -19.3170   -6.1904 C   0  0  0  0  0  0  0  0  0  0  0  0
   28.1723  -19.1280   -5.0011 C   0  0  0  0  0  0  0  0  0  0  0  0
   28.5295  -20.2322   -4.2640 C   0  0  0  0  0  0  0  0  0  0  0  0
   28.2100  -21.5004   -4.7421 C   0  0  0  0  0  0  0  0  0  0  0  0
   27.5444  -21.6852   -5.9356 C   0  0  0  0  0  0  0  0  0  0  0  0
   27.1898  -20.5820   -6.6680 C   0  0  0  0  0  0  0  0  0  0  0  0
   25.4525  -20.9498  -11.0634 C   0  0  0  0  0  0  0  0  0  0  0  0
   25.3395  -19.7147  -11.2492 O   0  0  0  0  0  0  0  0  0  0  0  0
   26.6043  -23.9946  -14.0024 N   0  0  0  0  0  0  0  0  0  0  0  0
   26.3916  -22.6938  -14.5365 C   0  0  0  0  0  0  0  0  0  0  0  0
   27.3883  -21.9149  -14.5385 O   0  0  0  0  0  0  0  0  0  0  0  0
   25.0568  -22.2896  -15.0615 C   0  0  0  0  0  0  0  0  0  0  0  0
   24.0462  -22.5555  -13.9747 C   0  0  0  0  0  0  0  0  0  0  0  0
   23.9253  -21.3957  -13.0138 C   0  0  2  0  0  0  0  0  0  0  0  0
   24.5554  -21.7907  -11.7790 N   0  0  0  0  0  0  0  0  0  0  0  0
   22.4790  -21.0899  -12.8501 C   0  0  0  0  0  0  0  0  0  0  0  0
   21.6997  -20.8273  -13.7875 O   0  0  0  0  0  0  0  0  0  0  0  0
   14.9661  -17.6520  -10.8178 O   0  0  0  0  0  0  0  0  0  0  0  0
   16.2916  -18.0542  -10.9346 C   0  0  0  0  0  0  0  0  0  0  0  0
   16.9577  -18.6421   -9.8692 C   0  0  0  0  0  0  0  0  0  0  0  0
   18.2677  -19.0411   -9.9795 C   0  0  0  0  0  0  0  0  0  0  0  0
   18.9839  -18.8751  -11.1586 C   0  0  0  0  0  0  0  0  0  0  0  0
   20.3837  -19.2966  -11.2563 C   0  0  0  0  0  0  0  0  0  0  0  0
   20.5588  -20.8019  -11.2565 C   0  0  2  0  0  0  0  0  0  0  0  0
   21.9603  -21.1008  -11.5296 N   0  0  0  0  0  0  0  0  0  0  0  0
   19.7344  -21.4283  -12.3025 C   0  0  0  0  0  0  0  0  0  0  0  0
   20.1501  -21.5047  -13.6177 O   0  0  0  0  0  0  0  0  0  0  0  0
   18.3074  -18.2892  -12.2089 C   0  0  0  0  0  0  0  0  0  0  0  0
   16.9994  -17.8887  -12.1050 C   0  0  0  0  0  0  0  0  0  0  0  0
   18.6185  -21.9114  -12.0123 O   0  0  0  0  0  0  0  0  0  0  0  0
  2  3  1  0
  2  1  1  1
  4 12  1  0
  4  3  1  0
  5  4  2  0
  6  5  1  0
  6  7  1  0
  7  8  1  0
  7 12  2  0
  8  9  2  0
  9 10  1  0
 11 10  2  0
 12 11  1  0
 13  2  1  0
 14 13  2  0
 16 18  1  0
 16 15  1  0
 17 16  2  0
 20 19  1  6
 19 18  1  0
 20 21  1  0
 21 13  1  0
 22 20  1  0
 22 31  1  0
 23 22  2  0
 25 24  1  0
 25 26  2  0
 27 26  1  0
 28 27  2  0
 29 28  1  0
 30 31  1  0
 30 29  1  6
 32 30  1  0
 32 33  1  0
 34 35  2  0
 34 28  1  0
 35 25  1  0
 36 32  2  0
M  END
$$$$
