WQY.pdb
     RDKit          3D

 36 38  0  0  1  0  0  0  0  0999 V2000
   21.4058  -11.8085  -18.6035 N   0  0  0  0  0  0  0  0  0  0  0  0
   21.9927  -11.2033  -17.4192 C   0  0  1  0  0  0  0  0  0  0  0  0
   23.4534  -10.9833  -17.6972 C   0  0  0  0  0  0  0  0  0  0  0  0
   24.1904  -12.2273  -17.9475 C   0  0  0  0  0  0  0  0  0  0  0  0
   24.7757  -12.5932  -19.1376 C   0  0  0  0  0  0  0  0  0  0  0  0
   25.3601  -13.8029  -18.9769 N   0  0  0  0  0  0  0  0  0  0  0  0
   25.1769  -14.2498  -17.7075 C   0  0  0  0  0  0  0  0  0  0  0  0
   25.5692  -15.3978  -17.0606 C   0  0  0  0  0  0  0  0  0  0  0  0
   25.2206  -15.5614  -15.7407 C   0  0  0  0  0  0  0  0  0  0  0  0
   24.4855  -14.5650  -15.1038 C   0  0  0  0  0  0  0  0  0  0  0  0
   24.0943  -13.4151  -15.7567 C   0  0  0  0  0  0  0  0  0  0  0  0
   24.4434  -13.2553  -17.0727 C   0  0  0  0  0  0  0  0  0  0  0  0
   21.2796  -10.0029  -16.9853 C   0  0  0  0  0  0  0  0  0  0  0  0
   21.0496   -9.0798  -17.8026 O   0  0  0  0  0  0  0  0  0  0  0  0
   16.9418  -10.0004  -12.8348 N   0  0  0  0  0  0  0  0  0  0  0  0
   16.8223  -10.2488  -14.2300 C   0  0  0  0  0  0  0  0  0  0  0  0
   15.7860  -10.8691  -14.6059 O   0  0  0  0  0  0  0  0  0  0  0  0
   17.8742   -9.7935  -15.1824 C   0  0  0  0  0  0  0  0  0  0  0  0
   18.9401   -9.0959  -14.3761 C   0  0  0  0  0  0  0  0  0  0  0  0
   20.0943   -8.6356  -15.2359 C   0  0  2  0  0  0  0  0  0  0  0  0
   20.8167   -9.8108  -15.6538 N   0  0  0  0  0  0  0  0  0  0  0  0
   20.9251   -7.7077  -14.4228 C   0  0  0  0  0  0  0  0  0  0  0  0
   21.8477   -8.0637  -13.6631 O   0  0  0  0  0  0  0  0  0  0  0  0
   22.2728   -3.2566  -19.8776 O   0  0  0  0  0  0  0  0  0  0  0  0
   22.3914   -3.7391  -18.5794 C   0  0  0  0  0  0  0  0  0  0  0  0
   22.4668   -2.8734  -17.4981 C   0  0  0  0  0  0  0  0  0  0  0  0
   22.5844   -3.3454  -16.2132 C   0  0  0  0  0  0  0  0  0  0  0  0
   22.6332   -4.7064  -15.9377 C   0  0  0  0  0  0  0  0  0  0  0  0
   22.7694   -5.1931  -14.5624 C   0  0  0  0  0  0  0  0  0  0  0  0
   21.4450   -5.3212  -13.8370 C   0  0  2  0  0  0  0  0  0  0  0  0
   20.6387   -6.3221  -14.5270 N   0  0  0  0  0  0  0  0  0  0  0  0
   20.7136   -4.0440  -13.8457 C   0  0  0  0  0  0  0  0  0  0  0  0
   21.1440   -2.9464  -13.1257 O   0  0  0  0  0  0  0  0  0  0  0  0
   22.5568   -5.5543  -17.0237 C   0  0  0  0  0  0  0  0  0  0  0  0
   22.4394   -5.0892  -18.3090 C   0  0  0  0  0  0  0  0  0  0  0  0
   19.6664   -3.9286  -14.5186 O   0  0  0  0  0  0  0  0  0  0  0  0
  2  3  1  0
  2  1  1  6
  4 12  1  0
  4  3  1  0
  5  4  2  0
  6  5  1  0
  6  7  1  0
  7  8  1  0
  7 12  2  0
  8  9  2  0
  9 10  1  0
 11 10  2  0
 12 11  1  0
 13  2  1  0
 14 13  2  0
 16 18  1  0
 16 15  1  0
 17 16  2  0
 20 19  1  1
 19 18  1  0
 20 21  1  0
 21 13  1  0
 22 20  1  0
 22 31  1  0
 23 22  2  0
 25 24  1  0
 25 26  2  0
 27 26  1  0
 28 27  2  0
 29 28  1  0
 30 31  1  0
 30 29  1  6
 32 30  1  0
 32 33  1  0
 34 35  2  0
 34 28  1  0
 35 25  1  0
 36 32  2  0
M  END
$$$$
