WQY.pdb
     RDKit          3D

 36 38  0  0  1  0  0  0  0  0999 V2000
   15.1198  -15.0131    5.6393 N   0  0  0  0  0  0  0  0  0  0  0  0
   16.2336  -15.8667    5.2596 C   0  0  1  0  0  0  0  0  0  0  0  0
   17.4147  -15.4751    6.1028 C   0  0  0  0  0  0  0  0  0  0  0  0
   17.9481  -14.1482    5.7741 C   0  0  0  0  0  0  0  0  0  0  0  0
   17.2956  -13.1702    5.0594 C   0  0  0  0  0  0  0  0  0  0  0  0
   18.1069  -12.0917    4.9641 N   0  0  0  0  0  0  0  0  0  0  0  0
   19.2839  -12.3298    5.5988 C   0  0  0  0  0  0  0  0  0  0  0  0
   20.4120  -11.5657    5.7824 C   0  0  0  0  0  0  0  0  0  0  0  0
   21.4626  -12.1024    6.4885 C   0  0  0  0  0  0  0  0  0  0  0  0
   21.3520  -13.3955    6.9929 C   0  0  0  0  0  0  0  0  0  0  0  0
   20.2184  -14.1582    6.8063 C   0  0  0  0  0  0  0  0  0  0  0  0
   19.1728  -13.6201    6.1017 C   0  0  0  0  0  0  0  0  0  0  0  0
   15.9017  -17.2893    5.3199 C   0  0  0  0  0  0  0  0  0  0  0  0
   15.4735  -17.7891    6.3874 O   0  0  0  0  0  0  0  0  0  0  0  0
   16.2455  -21.2390    0.4832 N   0  0  0  0  0  0  0  0  0  0  0  0
   15.7776  -22.1151    1.5009 C   0  0  0  0  0  0  0  0  0  0  0  0
   15.4929  -23.2945    1.1431 O   0  0  0  0  0  0  0  0  0  0  0  0
   15.6373  -21.6484    2.9092 C   0  0  0  0  0  0  0  0  0  0  0  0
   15.9155  -20.1667    2.9223 C   0  0  0  0  0  0  0  0  0  0  0  0
   15.9190  -19.6005    4.3232 C   0  0  2  0  0  0  0  0  0  0  0  0
   16.0389  -18.1685    4.2099 N   0  0  0  0  0  0  0  0  0  0  0  0
   17.0548  -20.2169    5.0597 C   0  0  0  0  0  0  0  0  0  0  0  0
   18.2574  -20.0522    4.7740 O   0  0  0  0  0  0  0  0  0  0  0  0
   21.5543  -16.7539    8.5742 O   0  0  0  0  0  0  0  0  0  0  0  0
   20.6514  -17.8087    8.5078 C   0  0  0  0  0  0  0  0  0  0  0  0
   19.2988  -17.5812    8.3008 C   0  0  0  0  0  0  0  0  0  0  0  0
   18.4025  -18.6203    8.2347 C   0  0  0  0  0  0  0  0  0  0  0  0
   18.8072  -19.9425    8.3714 C   0  0  0  0  0  0  0  0  0  0  0  0
   17.8370  -21.0386    8.3089 C   0  0  0  0  0  0  0  0  0  0  0  0
   17.7729  -21.7068    6.9501 C   0  0  2  0  0  0  0  0  0  0  0  0
   16.7353  -21.0488    6.1636 N   0  0  0  0  0  0  0  0  0  0  0  0
   17.4290  -23.1320    7.0794 C   0  0  0  0  0  0  0  0  0  0  0  0
   18.2987  -24.0496    7.6363 O   0  0  0  0  0  0  0  0  0  0  0  0
   20.1556  -20.1523    8.5765 C   0  0  0  0  0  0  0  0  0  0  0  0
   21.0555  -19.1189    8.6435 C   0  0  0  0  0  0  0  0  0  0  0  0
   16.3201  -23.5458    6.6773 O   0  0  0  0  0  0  0  0  0  0  0  0
  2  3  1  0
  2  1  1  1
  4 12  1  0
  4  3  1  0
  5  4  2  0
  6  5  1  0
  6  7  1  0
  7  8  1  0
  7 12  2  0
  8  9  2  0
  9 10  1  0
 11 10  2  0
 12 11  1  0
 13  2  1  0
 14 13  2  0
 16 18  1  0
 16 15  1  0
 17 16  2  0
 20 19  1  6
 19 18  1  0
 20 21  1  0
 21 13  1  0
 22 20  1  0
 22 31  1  0
 23 22  2  0
 25 24  1  0
 25 26  2  0
 27 26  1  0
 28 27  2  0
 29 28  1  0
 30 31  1  0
 30 29  1  1
 32 30  1  0
 32 33  1  0
 34 35  2  0
 34 28  1  0
 35 25  1  0
 36 32  2  0
M  END
$$$$
