WQY.pdb
     RDKit          3D

 36 38  0  0  1  0  0  0  0  0999 V2000
   19.3113  -10.3018  -14.9411 N   0  0  0  0  0  0  0  0  0  0  0  0
   19.2132   -9.4305  -16.1007 C   0  0  1  0  0  0  0  0  0  0  0  0
   17.7643   -9.3591  -16.4945 C   0  0  0  0  0  0  0  0  0  0  0  0
   17.2013  -10.6598  -16.8745 C   0  0  0  0  0  0  0  0  0  0  0  0
   16.5656  -11.5416  -16.0311 C   0  0  0  0  0  0  0  0  0  0  0  0
   16.1871  -12.6259  -16.7465 N   0  0  0  0  0  0  0  0  0  0  0  0
   16.5565  -12.4856  -18.0460 C   0  0  0  0  0  0  0  0  0  0  0  0
   16.4046  -13.2936  -19.1479 C   0  0  0  0  0  0  0  0  0  0  0  0
   16.8991  -12.8599  -20.3552 C   0  0  0  0  0  0  0  0  0  0  0  0
   17.5346  -11.6229  -20.4241 C   0  0  0  0  0  0  0  0  0  0  0  0
   17.6846  -10.8157  -19.3162 C   0  0  0  0  0  0  0  0  0  0  0  0
   17.1904  -11.2512  -18.1139 C   0  0  0  0  0  0  0  0  0  0  0  0
   19.8382   -8.1269  -15.8828 C   0  0  0  0  0  0  0  0  0  0  0  0
   19.7478   -7.5667  -14.7643 O   0  0  0  0  0  0  0  0  0  0  0  0
   24.5717   -5.9827  -16.4072 N   0  0  0  0  0  0  0  0  0  0  0  0
   24.1498   -4.7140  -16.8921 C   0  0  0  0  0  0  0  0  0  0  0  0
   24.9341   -3.7428  -16.6880 O   0  0  0  0  0  0  0  0  0  0  0  0
   22.8484   -4.5586  -17.6013 C   0  0  0  0  0  0  0  0  0  0  0  0
   22.2212   -5.9263  -17.6961 C   0  0  0  0  0  0  0  0  0  0  0  0
   21.0979   -6.1076  -16.7018 C   0  0  2  0  0  0  0  0  0  0  0  0
   20.5638   -7.4330  -16.8907 N   0  0  0  0  0  0  0  0  0  0  0  0
   20.0925   -5.0405  -16.9523 C   0  0  0  0  0  0  0  0  0  0  0  0
   19.5279   -4.8416  -18.0462 O   0  0  0  0  0  0  0  0  0  0  0  0
   14.1562    1.1713  -14.7448 O   0  0  0  0  0  0  0  0  0  0  0  0
   15.0934    0.1447  -14.7437 C   0  0  0  0  0  0  0  0  0  0  0  0
   14.7849   -1.1066  -15.2568 C   0  0  0  0  0  0  0  0  0  0  0  0
   15.7075   -2.1245  -15.2577 C   0  0  0  0  0  0  0  0  0  0  0  0
   16.9877   -1.9492  -14.7467 C   0  0  0  0  0  0  0  0  0  0  0  0
   17.9564   -3.0483  -14.7456 C   0  0  0  0  0  0  0  0  0  0  0  0
   18.7984   -3.1077  -16.0043 C   0  0  2  0  0  0  0  0  0  0  0  0
   19.7600   -4.1955  -15.8623 N   0  0  0  0  0  0  0  0  0  0  0  0
   19.5390   -1.8514  -16.2027 C   0  0  0  0  0  0  0  0  0  0  0  0
   18.9993   -0.7815  -16.8901 O   0  0  0  0  0  0  0  0  0  0  0  0
   17.2791   -0.6990  -14.2402 C   0  0  0  0  0  0  0  0  0  0  0  0
   16.3622    0.3214  -14.2365 C   0  0  0  0  0  0  0  0  0  0  0  0
   20.6953   -1.7289  -15.7436 O   0  0  0  0  0  0  0  0  0  0  0  0
  2  3  1  0
  2  1  1  1
  4 12  1  0
  4  3  1  0
  5  4  2  0
  6  5  1  0
  6  7  1  0
  7  8  1  0
  7 12  2  0
  8  9  2  0
  9 10  1  0
 11 10  2  0
 12 11  1  0
 13  2  1  0
 14 13  2  0
 16 18  1  0
 16 15  1  0
 17 16  2  0
 20 19  1  6
 19 18  1  0
 20 21  1  0
 21 13  1  0
 22 20  1  0
 22 31  1  0
 23 22  2  0
 25 24  1  0
 25 26  2  0
 27 26  1  0
 28 27  2  0
 29 28  1  0
 30 31  1  0
 30 29  1  1
 32 30  1  0
 32 33  1  0
 34 35  2  0
 34 28  1  0
 35 25  1  0
 36 32  2  0
M  END
$$$$
