WQY.pdb
     RDKit          3D

 36 38  0  0  1  0  0  0  0  0999 V2000
   24.9592  -18.7288  -20.7575 N   0  0  0  0  0  0  0  0  0  0  0  0
   24.1659  -18.4335  -19.5757 C   0  0  1  0  0  0  0  0  0  0  0  0
   23.0180  -17.5628  -20.0043 C   0  0  0  0  0  0  0  0  0  0  0  0
   23.4281  -16.2045  -20.3786 C   0  0  0  0  0  0  0  0  0  0  0  0
   24.0368  -15.8412  -21.5579 C   0  0  0  0  0  0  0  0  0  0  0  0
   24.2583  -14.5066  -21.5356 N   0  0  0  0  0  0  0  0  0  0  0  0
   23.8111  -13.9741  -20.3689 C   0  0  0  0  0  0  0  0  0  0  0  0
   23.8048  -12.6910  -19.8749 C   0  0  0  0  0  0  0  0  0  0  0  0
   23.2668  -12.4680  -18.6295 C   0  0  0  0  0  0  0  0  0  0  0  0
   22.7480  -13.5422  -17.9113 C   0  0  0  0  0  0  0  0  0  0  0  0
   22.7565  -14.8275  -18.4108 C   0  0  0  0  0  0  0  0  0  0  0  0
   23.2937  -15.0464  -19.6529 C   0  0  0  0  0  0  0  0  0  0  0  0
   23.7641  -19.6371  -18.8493 C   0  0  0  0  0  0  0  0  0  0  0  0
   23.1565  -20.5572  -19.4469 O   0  0  0  0  0  0  0  0  0  0  0  0
   26.5990  -23.1394  -15.0626 N   0  0  0  0  0  0  0  0  0  0  0  0
   26.9664  -21.9766  -15.7943 C   0  0  0  0  0  0  0  0  0  0  0  0
   28.2018  -21.7099  -15.8468 O   0  0  0  0  0  0  0  0  0  0  0  0
   25.9344  -21.1304  -16.4574 C   0  0  0  0  0  0  0  0  0  0  0  0
   24.5914  -21.7556  -16.1769 C   0  0  0  0  0  0  0  0  0  0  0  0
   23.4513  -20.9156  -16.7039 C   0  0  2  0  0  0  0  0  0  0  0  0
   24.0270  -19.8355  -17.4653 N   0  0  0  0  0  0  0  0  0  0  0  0
   22.6601  -20.4402  -15.5377 C   0  0  0  0  0  0  0  0  0  0  0  0
   22.9412  -19.4372  -14.8520 O   0  0  0  0  0  0  0  0  0  0  0  0
   16.0239  -17.4878  -10.9908 O   0  0  0  0  0  0  0  0  0  0  0  0
   17.0016  -17.9599  -11.8588 C   0  0  0  0  0  0  0  0  0  0  0  0
   18.3451  -17.6973  -11.6346 C   0  0  0  0  0  0  0  0  0  0  0  0
   19.3151  -18.1614  -12.4897 C   0  0  0  0  0  0  0  0  0  0  0  0
   18.9972  -18.9125  -13.6146 C   0  0  0  0  0  0  0  0  0  0  0  0
   20.0431  -19.3911  -14.5222 C   0  0  0  0  0  0  0  0  0  0  0  0
   20.5981  -20.7476  -14.1366 C   0  0  2  0  0  0  0  0  0  0  0  0
   21.5058  -21.1883  -15.1901 N   0  0  0  0  0  0  0  0  0  0  0  0
   19.5193  -21.7398  -14.0031 C   0  0  0  0  0  0  0  0  0  0  0  0
   18.8941  -21.9867  -12.7962 O   0  0  0  0  0  0  0  0  0  0  0  0
   17.6569  -19.1654  -13.8236 C   0  0  0  0  0  0  0  0  0  0  0  0
   16.6836  -18.7047  -12.9734 C   0  0  0  0  0  0  0  0  0  0  0  0
   19.1430  -22.3913  -15.0013 O   0  0  0  0  0  0  0  0  0  0  0  0
  2  3  1  0
  2  1  1  6
  4 12  1  0
  4  3  1  0
  5  4  2  0
  6  5  1  0
  6  7  1  0
  7  8  1  0
  7 12  2  0
  8  9  2  0
  9 10  1  0
 11 10  2  0
 12 11  1  0
 13  2  1  0
 14 13  2  0
 16 18  1  0
 16 15  1  0
 17 16  2  0
 20 19  1  1
 19 18  1  0
 20 21  1  0
 21 13  1  0
 22 20  1  0
 22 31  1  0
 23 22  2  0
 25 24  1  0
 25 26  2  0
 27 26  1  0
 28 27  2  0
 29 28  1  0
 30 31  1  0
 30 29  1  6
 32 30  1  0
 32 33  1  0
 34 35  2  0
 34 28  1  0
 35 25  1  0
 36 32  2  0
M  END
$$$$
