WQY.pdb
     RDKit          3D

 36 38  0  0  1  0  0  0  0  0999 V2000
   26.2047  -19.7919  -12.0333 N   0  0  0  0  0  0  0  0  0  0  0  0
   26.0807  -21.2400  -12.0018 C   0  0  1  0  0  0  0  0  0  0  0  0
   25.5921  -21.6250  -10.6335 C   0  0  0  0  0  0  0  0  0  0  0  0
   26.2657  -20.8985   -9.5510 C   0  0  0  0  0  0  0  0  0  0  0  0
   25.6761  -19.9973   -8.6946 C   0  0  0  0  0  0  0  0  0  0  0  0
   26.6161  -19.5400   -7.8357 N   0  0  0  0  0  0  0  0  0  0  0  0
   27.8171  -20.1162   -8.1009 C   0  0  0  0  0  0  0  0  0  0  0  0
   29.0580  -19.9869   -7.5231 C   0  0  0  0  0  0  0  0  0  0  0  0
   30.1008  -20.7246   -8.0315 C   0  0  0  0  0  0  0  0  0  0  0  0
   29.8693  -21.5749   -9.1096 C   0  0  0  0  0  0  0  0  0  0  0  0
   28.6229  -21.7015   -9.6859 C   0  0  0  0  0  0  0  0  0  0  0  0
   27.5854  -20.9644   -9.1766 C   0  0  0  0  0  0  0  0  0  0  0  0
   25.2638  -21.7614  -13.0966 C   0  0  0  0  0  0  0  0  0  0  0  0
   24.2034  -21.1762  -13.4221 O   0  0  0  0  0  0  0  0  0  0  0  0
   25.4138  -22.7792  -17.6971 N   0  0  0  0  0  0  0  0  0  0  0  0
   26.7289  -23.0349  -17.2201 C   0  0  0  0  0  0  0  0  0  0  0  0
   27.6716  -22.4396  -17.8177 O   0  0  0  0  0  0  0  0  0  0  0  0
   26.9625  -23.9591  -16.0746 C   0  0  0  0  0  0  0  0  0  0  0  0
   25.6182  -24.4835  -15.6378 C   0  0  0  0  0  0  0  0  0  0  0  0
   24.8026  -23.4323  -14.9216 C   0  0  2  0  0  0  0  0  0  0  0  0
   25.6069  -22.9264  -13.8376 N   0  0  0  0  0  0  0  0  0  0  0  0
   23.5444  -24.0733  -14.4546 C   0  0  0  0  0  0  0  0  0  0  0  0
   23.4277  -24.7132  -13.3906 O   0  0  0  0  0  0  0  0  0  0  0  0
   18.3272  -17.4378  -13.7412 O   0  0  0  0  0  0  0  0  0  0  0  0
   19.2385  -18.4504  -14.0177 C   0  0  0  0  0  0  0  0  0  0  0  0
   18.9118  -19.7829  -13.8131 C   0  0  0  0  0  0  0  0  0  0  0  0
   19.8090  -20.7872  -14.0846 C   0  0  0  0  0  0  0  0  0  0  0  0
   21.0807  -20.5164  -14.5748 C   0  0  0  0  0  0  0  0  0  0  0  0
   22.0294  -21.5987  -14.8492 C   0  0  0  0  0  0  0  0  0  0  0  0
   21.3664  -22.9520  -15.0098 C   0  0  2  0  0  0  0  0  0  0  0  0
   22.4028  -23.9407  -15.2863 N   0  0  0  0  0  0  0  0  0  0  0  0
   20.4161  -22.9433  -16.1335 C   0  0  0  0  0  0  0  0  0  0  0  0
   20.8353  -22.9144  -17.4495 O   0  0  0  0  0  0  0  0  0  0  0  0
   21.3903  -19.1864  -14.7731 C   0  0  0  0  0  0  0  0  0  0  0  0
   20.4987  -18.1791  -14.5039 C   0  0  0  0  0  0  0  0  0  0  0  0
   19.1861  -22.9609  -15.9114 O   0  0  0  0  0  0  0  0  0  0  0  0
  2  3  1  0
  2  1  1  1
  4 12  1  0
  4  3  1  0
  5  4  2  0
  6  5  1  0
  6  7  1  0
  7  8  1  0
  7 12  2  0
  8  9  2  0
  9 10  1  0
 11 10  2  0
 12 11  1  0
 13  2  1  0
 14 13  2  0
 16 18  1  0
 16 15  1  0
 17 16  2  0
 20 19  1  1
 19 18  1  0
 20 21  1  0
 21 13  1  0
 22 20  1  0
 22 31  1  0
 23 22  2  0
 25 24  1  0
 25 26  2  0
 27 26  1  0
 28 27  2  0
 29 28  1  0
 30 31  1  0
 30 29  1  6
 32 30  1  0
 32 33  1  0
 34 35  2  0
 34 28  1  0
 35 25  1  0
 36 32  2  0
M  END
$$$$
