WQY.pdb
     RDKit          3D

 36 38  0  0  1  0  0  0  0  0999 V2000
   23.3842  -18.1836  -19.5722 N   0  0  0  0  0  0  0  0  0  0  0  0
   22.8070  -17.8672  -18.2761 C   0  0  1  0  0  0  0  0  0  0  0  0
   21.4016  -17.3877  -18.5088 C   0  0  0  0  0  0  0  0  0  0  0  0
   21.3332  -16.1494  -19.2931 C   0  0  0  0  0  0  0  0  0  0  0  0
   21.0654  -16.0606  -20.6398 C   0  0  0  0  0  0  0  0  0  0  0  0
   21.0876  -14.7563  -20.9989 N   0  0  0  0  0  0  0  0  0  0  0  0
   21.3639  -13.9757  -19.9222 C   0  0  0  0  0  0  0  0  0  0  0  0
   21.4939  -12.6156  -19.7691 C   0  0  0  0  0  0  0  0  0  0  0  0
   21.7840  -12.1187  -18.5204 C   0  0  0  0  0  0  0  0  0  0  0  0
   21.9363  -13.0032  -17.4558 C   0  0  0  0  0  0  0  0  0  0  0  0
   21.8050  -14.3667  -17.6141 C   0  0  0  0  0  0  0  0  0  0  0  0
   21.5158  -14.8589  -18.8605 C   0  0  0  0  0  0  0  0  0  0  0  0
   22.9113  -18.9733  -17.3256 C   0  0  0  0  0  0  0  0  0  0  0  0
   22.7642  -20.1549  -17.7193 O   0  0  0  0  0  0  0  0  0  0  0  0
   26.6668  -20.0072  -15.8103 N   0  0  0  0  0  0  0  0  0  0  0  0
   26.3090  -21.1772  -15.0854 C   0  0  0  0  0  0  0  0  0  0  0  0
   27.0267  -22.2011  -15.2768 O   0  0  0  0  0  0  0  0  0  0  0  0
   25.1459  -21.1759  -14.1537 C   0  0  0  0  0  0  0  0  0  0  0  0
   24.4948  -19.8194  -14.2483 C   0  0  0  0  0  0  0  0  0  0  0  0
   23.1787  -19.8702  -14.9890 C   0  0  2  0  0  0  0  0  0  0  0  0
   23.1768  -18.7872  -15.9404 N   0  0  0  0  0  0  0  0  0  0  0  0
   22.0873  -19.7566  -13.9850 C   0  0  0  0  0  0  0  0  0  0  0  0
   21.8801  -18.7532  -13.2741 O   0  0  0  0  0  0  0  0  0  0  0  0
   17.3208  -22.0932  -18.6998 O   0  0  0  0  0  0  0  0  0  0  0  0
   17.7263  -21.5697  -17.4776 C   0  0  0  0  0  0  0  0  0  0  0  0
   18.6433  -20.5308  -17.4126 C   0  0  0  0  0  0  0  0  0  0  0  0
   19.0474  -20.0103  -16.2072 C   0  0  0  0  0  0  0  0  0  0  0  0
   18.5584  -20.4979  -15.0014 C   0  0  0  0  0  0  0  0  0  0  0  0
   19.0076  -19.9384  -13.7239 C   0  0  0  0  0  0  0  0  0  0  0  0
   20.0242  -20.8082  -13.0120 C   0  0  2  0  0  0  0  0  0  0  0  0
   21.2273  -20.8748  -13.8343 N   0  0  0  0  0  0  0  0  0  0  0  0
   19.5096  -22.1742  -12.8241 C   0  0  0  0  0  0  0  0  0  0  0  0
   20.1011  -23.2704  -13.4216 O   0  0  0  0  0  0  0  0  0  0  0  0
   17.6470  -21.5308  -15.0828 C   0  0  0  0  0  0  0  0  0  0  0  0
   17.2397  -22.0549  -16.2834 C   0  0  0  0  0  0  0  0  0  0  0  0
   18.5054  -22.3700  -12.1058 O   0  0  0  0  0  0  0  0  0  0  0  0
  2  3  1  0
  2  1  1  6
  4 12  1  0
  4  3  1  0
  5  4  2  0
  6  5  1  0
  6  7  1  0
  7  8  1  0
  7 12  2  0
  8  9  2  0
  9 10  1  0
 11 10  2  0
 12 11  1  0
 13  2  1  0
 14 13  2  0
 16 18  1  0
 16 15  1  0
 17 16  2  0
 20 19  1  1
 19 18  1  0
 20 21  1  0
 21 13  1  0
 22 20  1  0
 22 31  1  0
 23 22  2  0
 25 24  1  0
 25 26  2  0
 27 26  1  0
 28 27  2  0
 29 28  1  0
 30 31  1  0
 30 29  1  6
 32 30  1  0
 32 33  1  0
 34 35  2  0
 34 28  1  0
 35 25  1  0
 36 32  2  0
M  END
$$$$
