WQY.pdb
     RDKit          3D

 36 38  0  0  1  0  0  0  0  0999 V2000
   23.8351  -18.0165  -20.6870 N   0  0  0  0  0  0  0  0  0  0  0  0
   22.6566  -17.2570  -20.3029 C   0  0  1  0  0  0  0  0  0  0  0  0
   22.2198  -16.4591  -21.4995 C   0  0  0  0  0  0  0  0  0  0  0  0
   23.2668  -15.5721  -22.0194 C   0  0  0  0  0  0  0  0  0  0  0  0
   24.1356  -15.8636  -23.0457 C   0  0  0  0  0  0  0  0  0  0  0  0
   24.9506  -14.8006  -23.2360 N   0  0  0  0  0  0  0  0  0  0  0  0
   24.6440  -13.8089  -22.3599 C   0  0  0  0  0  0  0  0  0  0  0  0
   25.1692  -12.5550  -22.1545 C   0  0  0  0  0  0  0  0  0  0  0  0
   24.6273  -11.7685  -21.1655 C   0  0  0  0  0  0  0  0  0  0  0  0
   23.5696  -12.2634  -20.4071 C   0  0  0  0  0  0  0  0  0  0  0  0
   23.0461  -13.5218  -20.6168 C   0  0  0  0  0  0  0  0  0  0  0  0
   23.5887  -14.3034  -21.6036 C   0  0  0  0  0  0  0  0  0  0  0  0
   21.6060  -18.0958  -19.7281 C   0  0  0  0  0  0  0  0  0  0  0  0
   20.5238  -17.5809  -19.3586 O   0  0  0  0  0  0  0  0  0  0  0  0
   23.2031  -22.8250  -19.3186 N   0  0  0  0  0  0  0  0  0  0  0  0
   22.8516  -22.4008  -20.6297 C   0  0  0  0  0  0  0  0  0  0  0  0
   23.6693  -22.6836  -21.5524 O   0  0  0  0  0  0  0  0  0  0  0  0
   21.5815  -21.6632  -20.8819 C   0  0  0  0  0  0  0  0  0  0  0  0
   20.7872  -21.6831  -19.6006 C   0  0  0  0  0  0  0  0  0  0  0  0
   20.7157  -20.3192  -18.9541 C   0  0  2  0  0  0  0  0  0  0  0  0
   21.7389  -19.5018  -19.5563 N   0  0  0  0  0  0  0  0  0  0  0  0
   20.9098  -20.4992  -17.4905 C   0  0  0  0  0  0  0  0  0  0  0  0
   21.9579  -20.9190  -16.9610 O   0  0  0  0  0  0  0  0  0  0  0  0
   20.7154  -18.6278   -9.0274 O   0  0  0  0  0  0  0  0  0  0  0  0
   20.6897  -18.7121  -10.4147 C   0  0  0  0  0  0  0  0  0  0  0  0
   19.5810  -18.2952  -11.1367 C   0  0  0  0  0  0  0  0  0  0  0  0
   19.5507  -18.3768  -12.5078 C   0  0  0  0  0  0  0  0  0  0  0  0
   20.6247  -18.8787  -13.2326 C   0  0  0  0  0  0  0  0  0  0  0  0
   20.5721  -18.9687  -14.6940 C   0  0  0  0  0  0  0  0  0  0  0  0
   19.9245  -20.2444  -15.1941 C   0  0  2  0  0  0  0  0  0  0  0  0
   19.8188  -20.1664  -16.6469 N   0  0  0  0  0  0  0  0  0  0  0  0
   18.5728  -20.4038  -14.6343 C   0  0  0  0  0  0  0  0  0  0  0  0
   18.3418  -21.0864  -13.4557 O   0  0  0  0  0  0  0  0  0  0  0  0
   21.7198  -19.2890  -12.5001 C   0  0  0  0  0  0  0  0  0  0  0  0
   21.7561  -19.2101  -11.1309 C   0  0  0  0  0  0  0  0  0  0  0  0
   17.5885  -19.9145  -15.2298 O   0  0  0  0  0  0  0  0  0  0  0  0
  2  3  1  0
  2  1  1  6
  4 12  1  0
  4  3  1  0
  5  4  2  0
  6  5  1  0
  6  7  1  0
  7  8  1  0
  7 12  2  0
  8  9  2  0
  9 10  1  0
 11 10  2  0
 12 11  1  0
 13  2  1  0
 14 13  2  0
 16 18  1  0
 16 15  1  0
 17 16  2  0
 20 19  1  6
 19 18  1  0
 20 21  1  0
 21 13  1  0
 22 20  1  0
 22 31  1  0
 23 22  2  0
 25 24  1  0
 25 26  2  0
 27 26  1  0
 28 27  2  0
 29 28  1  0
 30 31  1  0
 30 29  1  1
 32 30  1  0
 32 33  1  0
 34 35  2  0
 34 28  1  0
 35 25  1  0
 36 32  2  0
M  END
$$$$
