WRT.pdb
     RDKit          3D

 33 34  0  0  1  0  0  0  0  0999 V2000
   27.0162  -22.1711  -10.4787 N   0  0  0  0  0  0  0  0  0  0  0  0
   26.4289  -21.0261   -9.9433 C   0  0  1  0  0  0  0  0  0  0  0  0
   27.4517  -19.9358   -9.7540 C   0  0  0  0  0  0  0  0  0  0  0  0
   28.5092  -20.4732   -8.8357 C   0  0  0  0  0  0  0  0  0  0  0  0
   29.5891  -21.2593   -9.1339 C   0  0  0  0  0  0  0  0  0  0  0  0
   30.2480  -21.4865   -7.9832 N   0  0  0  0  0  0  0  0  0  0  0  0
   29.6465  -20.8862   -6.9597 C   0  0  0  0  0  0  0  0  0  0  0  0
   29.9170  -20.8103   -5.5944 C   0  0  0  0  0  0  0  0  0  0  0  0
   29.0760  -20.0890   -4.7844 C   0  0  0  0  0  0  0  0  0  0  0  0
   27.9724  -19.4446   -5.3179 C   0  0  0  0  0  0  0  0  0  0  0  0
   27.7032  -19.5181   -6.6664 C   0  0  0  0  0  0  0  0  0  0  0  0
   28.5473  -20.2421   -7.4795 C   0  0  0  0  0  0  0  0  0  0  0  0
   25.3092  -20.4516  -10.7151 C   0  0  0  0  0  0  0  0  0  0  0  0
   24.8335  -19.3503  -10.3565 O   0  0  0  0  0  0  0  0  0  0  0  0
   24.6123  -24.8227  -15.1074 N   0  0  0  0  0  0  0  0  0  0  0  0
   25.8949  -24.5087  -15.6802 C   0  0  0  0  0  0  0  0  0  0  0  0
   26.6677  -25.4879  -15.9456 N   0  0  0  0  0  0  0  0  0  0  0  0
   26.2915  -23.1824  -15.9361 N   0  0  0  0  0  0  0  0  0  0  0  0
   25.4225  -22.0757  -15.7050 C   0  0  0  0  0  0  0  0  0  0  0  0
   25.0342  -21.8202  -14.2892 C   0  0  0  0  0  0  0  0  0  0  0  0
   24.0619  -20.6970  -14.0836 C   0  0  0  0  0  0  0  0  0  0  0  0
   23.6593  -20.5770  -12.6108 C   0  0  2  0  0  0  0  0  0  0  0  0
   24.7543  -21.0882  -11.8361 N   0  0  0  0  0  0  0  0  0  0  0  0
   22.3717  -21.1890  -12.3015 C   0  0  0  0  0  0  0  0  0  0  0  0
   22.3063  -22.4107  -11.9499 O   0  0  0  0  0  0  0  0  0  0  0  0
   27.6328  -25.3087  -16.2785 C   0  0  0  0  0  0  0  0  0  0  0  0
   17.6267  -20.3989  -11.0702 C   0  0  2  0  0  0  0  0  0  0  0  0
   18.9327  -19.9556  -11.6561 O   0  0  0  0  0  0  0  0  0  0  0  0
   19.5879  -19.0686  -10.8259 C   0  0  1  0  0  0  0  0  0  0  0  0
   19.8671  -21.0911  -11.9922 N   0  0  0  0  0  0  0  0  0  0  0  0
   21.1343  -20.4934  -12.3660 C   0  0  0  0  0  0  0  0  0  0  0  0
   19.3284  -21.9477  -13.0806 O   0  0  0  0  0  0  0  0  0  0  0  0
   18.6589  -23.1305  -12.8746 O   0  0  0  0  0  0  0  0  0  0  0  0
  2  1  1  6
  3  2  1  0
  4  5  2  0
  4  3  1  0
  6  5  1  0
  7 12  2  0
  7  6  1  0
  8  7  1  0
  9 10  1  0
  9  8  2  0
 10 11  2  0
 11 12  1  0
 12  4  1  0
 13  2  1  0
 14 13  2  0
 16 18  1  0
 16 15  1  0
 17 16  2  0
 19 20  1  0
 19 18  1  0
 20 21  1  0
 22 21  1  6
 22 24  1  0
 22 23  1  0
 23 13  1  0
 24 25  2  0
 27 26  1  6
 27 29  1  0
 27 28  1  0
 29 31  1  0
 30 24  1  0
 29 30  1  6
 31 32  1  0
 33 31  2  0
M  END
$$$$
