WRT.pdb
     RDKit          3D

 33 34  0  0  1  0  0  0  0  0999 V2000
   23.6827  -19.4999  -12.1257 N   0  0  0  0  0  0  0  0  0  0  0  0
   23.3319  -20.7264  -12.6871 C   0  0  1  0  0  0  0  0  0  0  0  0
   23.9685  -21.8646  -11.9322 C   0  0  0  0  0  0  0  0  0  0  0  0
   25.4066  -21.5006  -11.7093 C   0  0  0  0  0  0  0  0  0  0  0  0
   26.0352  -21.1515  -10.5448 C   0  0  0  0  0  0  0  0  0  0  0  0
   27.3247  -20.9110  -10.8432 N   0  0  0  0  0  0  0  0  0  0  0  0
   27.5576  -21.0876  -12.1410 C   0  0  0  0  0  0  0  0  0  0  0  0
   28.6941  -20.9703  -12.9396 C   0  0  0  0  0  0  0  0  0  0  0  0
   28.5973  -21.2299  -14.2838 C   0  0  0  0  0  0  0  0  0  0  0  0
   27.3851  -21.6039  -14.8392 C   0  0  0  0  0  0  0  0  0  0  0  0
   26.2610  -21.7204  -14.0522 C   0  0  0  0  0  0  0  0  0  0  0  0
   26.3580  -21.4599  -12.7030 C   0  0  0  0  0  0  0  0  0  0  0  0
   21.8854  -21.0086  -12.7735 C   0  0  0  0  0  0  0  0  0  0  0  0
   21.1763  -20.8342  -11.7564 O   0  0  0  0  0  0  0  0  0  0  0  0
   16.4776  -18.6201  -17.7746 N   0  0  0  0  0  0  0  0  0  0  0  0
   17.7885  -19.0242  -18.2107 C   0  0  0  0  0  0  0  0  0  0  0  0
   18.4568  -18.1831  -18.8979 N   0  0  0  0  0  0  0  0  0  0  0  0
   18.3180  -20.2917  -17.9021 N   0  0  0  0  0  0  0  0  0  0  0  0
   17.5729  -21.2653  -17.1740 C   0  0  0  0  0  0  0  0  0  0  0  0
   18.0267  -21.5448  -15.7824 C   0  0  0  0  0  0  0  0  0  0  0  0
   19.4920  -21.3445  -15.5333 C   0  0  0  0  0  0  0  0  0  0  0  0
   19.8639  -21.7156  -14.0947 C   0  0  2  0  0  0  0  0  0  0  0  0
   21.2698  -21.4647  -13.9495 N   0  0  0  0  0  0  0  0  0  0  0  0
   19.4546  -23.0619  -13.7103 C   0  0  0  0  0  0  0  0  0  0  0  0
   20.0481  -24.0791  -14.1936 O   0  0  0  0  0  0  0  0  0  0  0  0
   19.3832  -18.4479  -19.2798 C   0  0  0  0  0  0  0  0  0  0  0  0
   18.4001  -24.3102   -9.9690 C   0  0  2  0  0  0  0  0  0  0  0  0
   17.3961  -24.5850  -11.0470 O   0  0  0  0  0  0  0  0  0  0  0  0
   16.3890  -23.6410  -11.0571 C   0  0  2  0  0  0  0  0  0  0  0  0
   17.9942  -24.6755  -12.4288 N   0  0  0  0  0  0  0  0  0  0  0  0
   18.3992  -23.3330  -12.7982 C   0  0  0  0  0  0  0  0  0  0  0  0
   17.0346  -25.2433  -13.4113 O   0  0  0  0  0  0  0  0  0  0  0  0
   16.5030  -24.5421  -14.4673 O   0  0  0  0  0  0  0  0  0  0  0  0
  2  1  1  1
  3  2  1  0
  4  5  2  0
  4  3  1  0
  6  5  1  0
  7 12  2  0
  7  6  1  0
  8  7  1  0
  9 10  1  0
  9  8  2  0
 10 11  2  0
 11 12  1  0
 12  4  1  0
 13  2  1  0
 14 13  2  0
 16 18  1  0
 16 15  1  0
 17 16  2  0
 19 20  1  0
 19 18  1  0
 20 21  1  0
 22 21  1  6
 22 24  1  0
 22 23  1  0
 23 13  1  0
 24 25  2  0
 27 26  1  1
 27 29  1  0
 27 28  1  0
 29 31  1  0
 30 24  1  0
 29 30  1  6
 31 32  1  0
 33 31  2  0
M  END
$$$$
