WRT.pdb
     RDKit          3D

 33 34  0  0  1  0  0  0  0  0999 V2000
   27.1041  -22.5992  -12.6995 N   0  0  0  0  0  0  0  0  0  0  0  0
   26.4954  -21.8276  -11.7113 C   0  0  1  0  0  0  0  0  0  0  0  0
   27.1394  -20.4685  -11.6178 C   0  0  0  0  0  0  0  0  0  0  0  0
   28.2753  -20.5811  -10.6445 C   0  0  0  0  0  0  0  0  0  0  0  0
   29.5739  -20.9462  -10.8761 C   0  0  0  0  0  0  0  0  0  0  0  0
   30.2179  -20.9025   -9.6959 N   0  0  0  0  0  0  0  0  0  0  0  0
   29.3994  -20.5278   -8.7164 C   0  0  0  0  0  0  0  0  0  0  0  0
   29.5645  -20.3314   -7.3464 C   0  0  0  0  0  0  0  0  0  0  0  0
   28.4891  -19.9320   -6.5930 C   0  0  0  0  0  0  0  0  0  0  0  0
   27.2553  -19.7267   -7.1875 C   0  0  0  0  0  0  0  0  0  0  0  0
   27.0898  -19.9200   -8.5409 C   0  0  0  0  0  0  0  0  0  0  0  0
   28.1692  -20.3209   -9.2971 C   0  0  0  0  0  0  0  0  0  0  0  0
   25.0414  -21.6178  -11.8578 C   0  0  0  0  0  0  0  0  0  0  0  0
   24.5264  -21.7443  -12.9920 O   0  0  0  0  0  0  0  0  0  0  0  0
   17.9311  -22.7611   -9.2513 N   0  0  0  0  0  0  0  0  0  0  0  0
   18.5157  -23.6409   -8.2735 C   0  0  0  0  0  0  0  0  0  0  0  0
   17.9508  -24.7707   -8.0976 N   0  0  0  0  0  0  0  0  0  0  0  0
   19.6580  -23.2788   -7.5345 N   0  0  0  0  0  0  0  0  0  0  0  0
   20.3868  -22.0838   -7.8067 C   0  0  0  0  0  0  0  0  0  0  0  0
   20.9012  -21.9212   -9.1958 C   0  0  0  0  0  0  0  0  0  0  0  0
   22.3636  -21.6072   -9.3054 C   0  0  0  0  0  0  0  0  0  0  0  0
   22.7819  -21.4251  -10.7674 C   0  0  2  0  0  0  0  0  0  0  0  0
   24.2102  -21.2822  -10.7779 N   0  0  0  0  0  0  0  0  0  0  0  0
   22.0692  -20.3531  -11.4536 C   0  0  0  0  0  0  0  0  0  0  0  0
   22.0217  -19.1849  -10.9501 O   0  0  0  0  0  0  0  0  0  0  0  0
   18.3542  -25.4512   -7.4280 C   0  0  0  0  0  0  0  0  0  0  0  0
   22.5297  -19.3335  -15.2421 C   0  0  2  0  0  0  0  0  0  0  0  0
   21.1092  -19.6454  -14.8816 O   0  0  0  0  0  0  0  0  0  0  0  0
   20.7687  -20.9379  -15.2265 C   0  0  2  0  0  0  0  0  0  0  0  0
   20.7881  -19.4284  -13.4239 N   0  0  0  0  0  0  0  0  0  0  0  0
   21.3969  -20.5235  -12.6938 C   0  0  0  0  0  0  0  0  0  0  0  0
   19.3230  -19.3632  -13.1834 O   0  0  0  0  0  0  0  0  0  0  0  0
   18.5496  -18.2509  -13.4158 O   0  0  0  0  0  0  0  0  0  0  0  0
  2  1  1  6
  3  2  1  0
  4  5  2  0
  4  3  1  0
  6  5  1  0
  7 12  2  0
  7  6  1  0
  8  7  1  0
  9 10  1  0
  9  8  2  0
 10 11  2  0
 11 12  1  0
 12  4  1  0
 13  2  1  0
 14 13  2  0
 16 18  1  0
 16 15  1  0
 17 16  2  0
 19 20  1  0
 19 18  1  0
 20 21  1  0
 22 21  1  1
 22 24  1  0
 22 23  1  0
 23 13  1  0
 24 25  2  0
 27 26  1  6
 27 29  1  0
 27 28  1  0
 29 31  1  0
 30 24  1  0
 29 30  1  1
 31 32  1  0
 33 31  2  0
M  END
$$$$
