WRT.pdb
     RDKit          3D

 33 34  0  0  1  0  0  0  0  0999 V2000
   26.8584  -23.0488  -12.4954 N   0  0  0  0  0  0  0  0  0  0  0  0
   26.1816  -21.9367  -11.9979 C   0  0  1  0  0  0  0  0  0  0  0  0
   27.0266  -20.6949  -12.1188 C   0  0  0  0  0  0  0  0  0  0  0  0
   28.0536  -20.7483  -11.0267 C   0  0  0  0  0  0  0  0  0  0  0  0
   29.3585  -21.1559  -11.0920 C   0  0  0  0  0  0  0  0  0  0  0  0
   29.8797  -21.0271   -9.8585 N   0  0  0  0  0  0  0  0  0  0  0  0
   28.9760  -20.5572   -9.0028 C   0  0  0  0  0  0  0  0  0  0  0  0
   29.0058  -20.2514   -7.6431 C   0  0  0  0  0  0  0  0  0  0  0  0
   27.8705  -19.7707   -7.0402 C   0  0  0  0  0  0  0  0  0  0  0  0
   26.7099  -19.5916   -7.7743 C   0  0  0  0  0  0  0  0  0  0  0  0
   26.6782  -19.8930   -9.1177 C   0  0  0  0  0  0  0  0  0  0  0  0
   27.8178  -20.3756   -9.7230 C   0  0  0  0  0  0  0  0  0  0  0  0
   24.8746  -21.6432  -12.6185 C   0  0  0  0  0  0  0  0  0  0  0  0
   24.7584  -21.7586  -13.8599 O   0  0  0  0  0  0  0  0  0  0  0  0
   17.6514  -22.8867  -13.0638 N   0  0  0  0  0  0  0  0  0  0  0  0
   17.1866  -22.5389  -11.7467 C   0  0  0  0  0  0  0  0  0  0  0  0
   16.3155  -23.3052  -11.2172 N   0  0  0  0  0  0  0  0  0  0  0  0
   17.6622  -21.4025  -11.0652 N   0  0  0  0  0  0  0  0  0  0  0  0
   19.0184  -21.2889  -10.6396 C   0  0  0  0  0  0  0  0  0  0  0  0
   20.0446  -21.1746  -11.7141 C   0  0  0  0  0  0  0  0  0  0  0  0
   21.4632  -21.0747  -11.2380 C   0  0  0  0  0  0  0  0  0  0  0  0
   22.4406  -21.0381  -12.4166 C   0  0  2  0  0  0  0  0  0  0  0  0
   23.7546  -21.2400  -11.8751 N   0  0  0  0  0  0  0  0  0  0  0  0
   22.3139  -19.8467  -13.2487 C   0  0  0  0  0  0  0  0  0  0  0  0
   22.1750  -18.6993  -12.7151 O   0  0  0  0  0  0  0  0  0  0  0  0
   15.9788  -23.1174  -10.2551 C   0  0  0  0  0  0  0  0  0  0  0  0
   24.5121  -18.6400  -16.3673 C   0  0  2  0  0  0  0  0  0  0  0  0
   23.0611  -18.8424  -16.6819 O   0  0  0  0  0  0  0  0  0  0  0  0
   22.8335  -20.0732  -17.2639 C   0  0  2  0  0  0  0  0  0  0  0  0
   22.1513  -18.6910  -15.4884 N   0  0  0  0  0  0  0  0  0  0  0  0
   22.3355  -19.8733  -14.6692 C   0  0  0  0  0  0  0  0  0  0  0  0
   20.7307  -18.5261  -15.8926 O   0  0  0  0  0  0  0  0  0  0  0  0
   19.7468  -19.4572  -15.6590 O   0  0  0  0  0  0  0  0  0  0  0  0
  2  1  1  6
  3  2  1  0
  4  5  2  0
  4  3  1  0
  6  5  1  0
  7 12  2  0
  7  6  1  0
  8  7  1  0
  9 10  1  0
  9  8  2  0
 10 11  2  0
 11 12  1  0
 12  4  1  0
 13  2  1  0
 14 13  2  0
 16 18  1  0
 16 15  1  0
 17 16  2  0
 19 20  1  0
 19 18  1  0
 20 21  1  0
 22 21  1  1
 22 24  1  0
 22 23  1  0
 23 13  1  0
 24 25  2  0
 27 26  1  6
 27 29  1  0
 27 28  1  0
 29 31  1  0
 30 24  1  0
 29 30  1  6
 31 32  1  0
 33 31  2  0
M  END
$$$$
