WRT.pdb
     RDKit          3D

 33 34  0  0  1  0  0  0  0  0999 V2000
   12.0391  -20.3482   -0.8745 N   0  0  0  0  0  0  0  0  0  0  0  0
   13.1408  -21.1125   -0.4944 C   0  0  1  0  0  0  0  0  0  0  0  0
   13.1873  -21.2811    1.0023 C   0  0  0  0  0  0  0  0  0  0  0  0
   13.5227  -19.9422    1.5900 C   0  0  0  0  0  0  0  0  0  0  0  0
   12.6780  -18.9457    1.9981 C   0  0  0  0  0  0  0  0  0  0  0  0
   13.4415  -17.9355    2.4521 N   0  0  0  0  0  0  0  0  0  0  0  0
   14.7349  -18.2316    2.3568 C   0  0  0  0  0  0  0  0  0  0  0  0
   15.9053  -17.5472    2.6806 C   0  0  0  0  0  0  0  0  0  0  0  0
   17.1175  -18.1486    2.4515 C   0  0  0  0  0  0  0  0  0  0  0  0
   17.1764  -19.4199    1.9054 C   0  0  0  0  0  0  0  0  0  0  0  0
   16.0214  -20.0979    1.5848 C   0  0  0  0  0  0  0  0  0  0  0  0
   14.8046  -19.4943    1.8147 C   0  0  0  0  0  0  0  0  0  0  0  0
   13.2323  -22.4588   -1.0931 C   0  0  0  0  0  0  0  0  0  0  0  0
   12.1902  -23.1461   -1.1909 O   0  0  0  0  0  0  0  0  0  0  0  0
   13.0980  -23.2624   -8.6260 N   0  0  0  0  0  0  0  0  0  0  0  0
   14.0078  -22.3052   -8.0534 C   0  0  0  0  0  0  0  0  0  0  0  0
   14.3774  -21.3379   -8.7978 N   0  0  0  0  0  0  0  0  0  0  0  0
   14.4793  -22.4241   -6.7322 N   0  0  0  0  0  0  0  0  0  0  0  0
   13.8667  -23.2983   -5.7868 C   0  0  0  0  0  0  0  0  0  0  0  0
   14.4605  -23.3202   -4.4202 C   0  0  0  0  0  0  0  0  0  0  0  0
   13.8411  -24.2990   -3.4675 C   0  0  0  0  0  0  0  0  0  0  0  0
   14.5836  -24.3121   -2.1280 C   0  0  2  0  0  0  0  0  0  0  0  0
   14.4397  -23.0023   -1.5585 N   0  0  0  0  0  0  0  0  0  0  0  0
   15.9643  -24.7726   -2.2256 C   0  0  0  0  0  0  0  0  0  0  0  0
   16.8882  -23.9706   -2.5773 O   0  0  0  0  0  0  0  0  0  0  0  0
   14.9481  -20.5693   -8.4007 C   0  0  0  0  0  0  0  0  0  0  0  0
   16.9225  -28.8998   -2.1861 C   0  0  2  0  0  0  0  0  0  0  0  0
   17.7841  -27.9407   -1.4225 O   0  0  0  0  0  0  0  0  0  0  0  0
   19.0944  -28.3705   -1.3625 C   0  0  1  0  0  0  0  0  0  0  0  0
   17.7563  -26.5327   -1.9628 N   0  0  0  0  0  0  0  0  0  0  0  0
   16.3708  -26.1050   -1.9453 C   0  0  0  0  0  0  0  0  0  0  0  0
   18.3322  -26.4531   -3.3305 O   0  0  0  0  0  0  0  0  0  0  0  0
   19.6783  -26.4892   -3.6064 O   0  0  0  0  0  0  0  0  0  0  0  0
  2  1  1  1
  3  2  1  0
  4  5  2  0
  4  3  1  0
  6  5  1  0
  7 12  2  0
  7  6  1  0
  8  7  1  0
  9 10  1  0
  9  8  2  0
 10 11  2  0
 11 12  1  0
 12  4  1  0
 13  2  1  0
 14 13  2  0
 16 18  1  0
 16 15  1  0
 17 16  2  0
 19 20  1  0
 19 18  1  0
 20 21  1  0
 22 21  1  6
 22 24  1  0
 22 23  1  0
 23 13  1  0
 24 25  2  0
 27 26  1  1
 27 29  1  0
 27 28  1  0
 29 31  1  0
 30 24  1  0
 29 30  1  1
 31 32  1  0
 33 31  2  0
M  END
$$$$
