WRT.pdb
     RDKit          3D

 33 34  0  0  1  0  0  0  0  0999 V2000
   26.5194  -18.5174  -16.8610 N   0  0  0  0  0  0  0  0  0  0  0  0
   26.3128  -19.2974  -15.7246 C   0  0  1  0  0  0  0  0  0  0  0  0
   26.4462  -18.4692  -14.4728 C   0  0  0  0  0  0  0  0  0  0  0  0
   27.2880  -19.2526  -13.5094 C   0  0  0  0  0  0  0  0  0  0  0  0
   28.6276  -19.5276  -13.5639 C   0  0  0  0  0  0  0  0  0  0  0  0
   28.9289  -20.2640  -12.4793 N   0  0  0  0  0  0  0  0  0  0  0  0
   27.8508  -20.4769  -11.7295 C   0  0  0  0  0  0  0  0  0  0  0  0
   27.6288  -21.1603  -10.5351 C   0  0  0  0  0  0  0  0  0  0  0  0
   26.3620  -21.1930  -10.0082 C   0  0  0  0  0  0  0  0  0  0  0  0
   25.3176  -20.5544  -10.6557 C   0  0  0  0  0  0  0  0  0  0  0  0
   25.5346  -19.8785  -11.8357 C   0  0  0  0  0  0  0  0  0  0  0  0
   26.8061  -19.8457  -12.3648 C   0  0  0  0  0  0  0  0  0  0  0  0
   25.0185  -20.0036  -15.6506 C   0  0  0  0  0  0  0  0  0  0  0  0
   23.9923  -19.4255  -16.0757 O   0  0  0  0  0  0  0  0  0  0  0  0
   21.8496  -27.1047  -12.7410 N   0  0  0  0  0  0  0  0  0  0  0  0
   21.3577  -27.2516  -14.0857 C   0  0  0  0  0  0  0  0  0  0  0  0
   20.2347  -27.8378  -14.2325 N   0  0  0  0  0  0  0  0  0  0  0  0
   22.0784  -26.7772  -15.1982 N   0  0  0  0  0  0  0  0  0  0  0  0
   23.1902  -25.8953  -15.0583 C   0  0  0  0  0  0  0  0  0  0  0  0
   22.8855  -24.4365  -15.0622 C   0  0  0  0  0  0  0  0  0  0  0  0
   24.0767  -23.5324  -14.9479 C   0  0  0  0  0  0  0  0  0  0  0  0
   23.6753  -22.0647  -15.1221 C   0  0  2  0  0  0  0  0  0  0  0  0
   24.8888  -21.2978  -15.1234 N   0  0  0  0  0  0  0  0  0  0  0  0
   22.6814  -21.6085  -14.1566 C   0  0  0  0  0  0  0  0  0  0  0  0
   22.9432  -21.6128  -12.9109 O   0  0  0  0  0  0  0  0  0  0  0  0
   19.8339  -27.9564  -15.1809 C   0  0  0  0  0  0  0  0  0  0  0  0
   21.1364  -18.2799  -13.6844 C   0  0  2  0  0  0  0  0  0  0  0  0
   20.0430  -19.2747  -13.9295 O   0  0  0  0  0  0  0  0  0  0  0  0
   19.6253  -19.2579  -15.2451 C   0  0  2  0  0  0  0  0  0  0  0  0
   20.4086  -20.6884  -13.5514 N   0  0  0  0  0  0  0  0  0  0  0  0
   21.3899  -21.1399  -14.5190 C   0  0  0  0  0  0  0  0  0  0  0  0
   19.2199  -21.5800  -13.5268 O   0  0  0  0  0  0  0  0  0  0  0  0
   18.1869  -21.4674  -12.6269 O   0  0  0  0  0  0  0  0  0  0  0  0
  2  1  1  6
  3  2  1  0
  4  5  2  0
  4  3  1  0
  6  5  1  0
  7 12  2  0
  7  6  1  0
  8  7  1  0
  9 10  1  0
  9  8  2  0
 10 11  2  0
 11 12  1  0
 12  4  1  0
 13  2  1  0
 14 13  2  0
 16 18  1  0
 16 15  1  0
 17 16  2  0
 19 20  1  0
 19 18  1  0
 20 21  1  0
 22 21  1  1
 22 24  1  0
 22 23  1  0
 23 13  1  0
 24 25  2  0
 27 26  1  1
 27 29  1  0
 27 28  1  0
 29 31  1  0
 30 24  1  0
 29 30  1  1
 31 32  1  0
 33 31  2  0
M  END
$$$$
