WRT.pdb
     RDKit          3D

 33 34  0  0  1  0  0  0  0  0999 V2000
   24.6242  -14.2039  -17.7976 N   0  0  0  0  0  0  0  0  0  0  0  0
   25.3325  -15.1019  -17.0011 C   0  0  1  0  0  0  0  0  0  0  0  0
   25.6846  -14.4811  -15.6740 C   0  0  0  0  0  0  0  0  0  0  0  0
   26.8325  -13.5452  -15.9119 C   0  0  0  0  0  0  0  0  0  0  0  0
   26.8877  -12.1890  -15.7360 C   0  0  0  0  0  0  0  0  0  0  0  0
   28.1251  -11.7910  -16.0827 N   0  0  0  0  0  0  0  0  0  0  0  0
   28.8689  -12.8225  -16.4729 C   0  0  0  0  0  0  0  0  0  0  0  0
   30.1835  -12.9468  -16.9196 C   0  0  0  0  0  0  0  0  0  0  0  0
   30.6623  -14.1888  -17.2537 C   0  0  0  0  0  0  0  0  0  0  0  0
   29.8488  -15.3046  -17.1481 C   0  0  0  0  0  0  0  0  0  0  0  0
   28.5498  -15.1843  -16.7070 C   0  0  0  0  0  0  0  0  0  0  0  0
   28.0691  -13.9376  -16.3716 C   0  0  0  0  0  0  0  0  0  0  0  0
   24.6629  -16.3879  -16.7229 C   0  0  0  0  0  0  0  0  0  0  0  0
   23.4375  -16.4918  -16.9584 O   0  0  0  0  0  0  0  0  0  0  0  0
   24.6488  -22.9702  -12.9401 N   0  0  0  0  0  0  0  0  0  0  0  0
   25.0123  -23.8531  -14.0172 C   0  0  0  0  0  0  0  0  0  0  0  0
   24.4067  -24.9738  -14.0789 N   0  0  0  0  0  0  0  0  0  0  0  0
   25.9951  -23.5073  -14.9640 N   0  0  0  0  0  0  0  0  0  0  0  0
   26.4430  -22.1640  -15.1323 C   0  0  0  0  0  0  0  0  0  0  0  0
   25.4002  -21.1527  -15.4645 C   0  0  0  0  0  0  0  0  0  0  0  0
   25.9090  -19.7631  -15.7081 C   0  0  0  0  0  0  0  0  0  0  0  0
   24.7577  -18.7958  -15.9986 C   0  0  2  0  0  0  0  0  0  0  0  0
   25.3426  -17.5012  -16.2050 N   0  0  0  0  0  0  0  0  0  0  0  0
   23.7011  -18.8205  -14.9932 C   0  0  0  0  0  0  0  0  0  0  0  0
   23.9786  -18.6544  -13.7620 O   0  0  0  0  0  0  0  0  0  0  0  0
   24.6051  -25.6258  -14.8598 C   0  0  0  0  0  0  0  0  0  0  0  0
   20.6072  -16.6351  -14.6601 C   0  0  2  0  0  0  0  0  0  0  0  0
   20.2168  -18.0779  -14.7650 O   0  0  0  0  0  0  0  0  0  0  0  0
   19.8530  -18.4142  -16.0534 C   0  0  2  0  0  0  0  0  0  0  0  0
   21.2838  -19.0343  -14.2937 N   0  0  0  0  0  0  0  0  0  0  0  0
   22.3286  -19.0243  -15.2993 C   0  0  0  0  0  0  0  0  0  0  0  0
   20.7459  -20.4035  -14.0826 O   0  0  0  0  0  0  0  0  0  0  0  0
   19.8474  -20.7385  -13.0978 O   0  0  0  0  0  0  0  0  0  0  0  0
  2  1  1  1
  3  2  1  0
  4  5  2  0
  4  3  1  0
  6  5  1  0
  7 12  2  0
  7  6  1  0
  8  7  1  0
  9 10  1  0
  9  8  2  0
 10 11  2  0
 11 12  1  0
 12  4  1  0
 13  2  1  0
 14 13  2  0
 16 18  1  0
 16 15  1  0
 17 16  2  0
 19 20  1  0
 19 18  1  0
 20 21  1  0
 22 21  1  1
 22 24  1  0
 22 23  1  0
 23 13  1  0
 24 25  2  0
 27 26  1  1
 27 29  1  0
 27 28  1  0
 29 31  1  0
 30 24  1  0
 29 30  1  1
 31 32  1  0
 33 31  2  0
M  END
$$$$
