WRT.pdb
     RDKit          3D

 33 34  0  0  1  0  0  0  0  0999 V2000
   27.8271  -21.6161  -15.6119 N   0  0  0  0  0  0  0  0  0  0  0  0
   26.8972  -20.6600  -15.2075 C   0  0  1  0  0  0  0  0  0  0  0  0
   26.1827  -20.0691  -16.3954 C   0  0  0  0  0  0  0  0  0  0  0  0
   27.0510  -18.9715  -16.9352 C   0  0  0  0  0  0  0  0  0  0  0  0
   27.9888  -19.0270  -17.9305 C   0  0  0  0  0  0  0  0  0  0  0  0
   28.5093  -17.7931  -18.0586 N   0  0  0  0  0  0  0  0  0  0  0  0
   27.9537  -16.9464  -17.1960 C   0  0  0  0  0  0  0  0  0  0  0  0
   28.1328  -15.5904  -16.9276 C   0  0  0  0  0  0  0  0  0  0  0  0
   27.3804  -14.9975  -15.9447 C   0  0  0  0  0  0  0  0  0  0  0  0
   26.4546  -15.7382  -15.2289 C   0  0  0  0  0  0  0  0  0  0  0  0
   26.2760  -17.0780  -15.4924 C   0  0  0  0  0  0  0  0  0  0  0  0
   27.0312  -17.6731  -16.4789 C   0  0  0  0  0  0  0  0  0  0  0  0
   25.8660  -21.1214  -14.2570 C   0  0  0  0  0  0  0  0  0  0  0  0
   25.3129  -22.2264  -14.4587 O   0  0  0  0  0  0  0  0  0  0  0  0
   22.8342  -21.9314   -6.8536 N   0  0  0  0  0  0  0  0  0  0  0  0
   21.6597  -22.0195   -7.6810 C   0  0  0  0  0  0  0  0  0  0  0  0
   20.6052  -22.4947   -7.1436 N   0  0  0  0  0  0  0  0  0  0  0  0
   21.6642  -21.6066   -9.0269 N   0  0  0  0  0  0  0  0  0  0  0  0
   22.8717  -21.4818   -9.7751 C   0  0  0  0  0  0  0  0  0  0  0  0
   23.2924  -20.0974  -10.1314 C   0  0  0  0  0  0  0  0  0  0  0  0
   24.5235  -20.0003  -10.9824 C   0  0  0  0  0  0  0  0  0  0  0  0
   24.2836  -20.5977  -12.3720 C   0  0  2  0  0  0  0  0  0  0  0  0
   25.4787  -20.3729  -13.1347 N   0  0  0  0  0  0  0  0  0  0  0  0
   23.0653  -20.1186  -13.0156 C   0  0  0  0  0  0  0  0  0  0  0  0
   22.8178  -18.8716  -13.0801 O   0  0  0  0  0  0  0  0  0  0  0  0
   19.7181  -22.5182   -7.6791 C   0  0  0  0  0  0  0  0  0  0  0  0
   21.6984  -20.4855  -16.5499 C   0  0  2  0  0  0  0  0  0  0  0  0
   20.7545  -21.0930  -15.5573 O   0  0  0  0  0  0  0  0  0  0  0  0
   20.9229  -22.4600  -15.4656 C   0  0  2  0  0  0  0  0  0  0  0  0
   20.8540  -20.4951  -14.1760 N   0  0  0  0  0  0  0  0  0  0  0  0
   22.0949  -20.9762  -13.6002 C   0  0  0  0  0  0  0  0  0  0  0  0
   19.6865  -20.8571  -13.3307 O   0  0  0  0  0  0  0  0  0  0  0  0
   18.3920  -20.4788  -13.5964 O   0  0  0  0  0  0  0  0  0  0  0  0
  2  1  1  6
  3  2  1  0
  4  5  2  0
  4  3  1  0
  6  5  1  0
  7 12  2  0
  7  6  1  0
  8  7  1  0
  9 10  1  0
  9  8  2  0
 10 11  2  0
 11 12  1  0
 12  4  1  0
 13  2  1  0
 14 13  2  0
 16 18  1  0
 16 15  1  0
 17 16  2  0
 19 20  1  0
 19 18  1  0
 20 21  1  0
 22 21  1  1
 22 24  1  0
 22 23  1  0
 23 13  1  0
 24 25  2  0
 27 26  1  6
 27 29  1  0
 27 28  1  0
 29 31  1  0
 30 24  1  0
 29 30  1  1
 31 32  1  0
 33 31  2  0
M  END
$$$$
