WRT.pdb
     RDKit          3D

 33 34  0  0  1  0  0  0  0  0999 V2000
   23.9125  -20.1592   -9.8295 N   0  0  0  0  0  0  0  0  0  0  0  0
   23.6557  -21.1107   -8.8441 C   0  0  1  0  0  0  0  0  0  0  0  0
   24.0983  -20.6163   -7.4912 C   0  0  0  0  0  0  0  0  0  0  0  0
   25.5833  -20.4140   -7.5562 C   0  0  0  0  0  0  0  0  0  0  0  0
   26.3908  -20.3152   -8.6568 C   0  0  0  0  0  0  0  0  0  0  0  0
   27.6494  -20.1413   -8.2148 N   0  0  0  0  0  0  0  0  0  0  0  0
   27.6926  -20.1232   -6.8853 C   0  0  0  0  0  0  0  0  0  0  0  0
   28.7225  -19.9757   -5.9578 C   0  0  0  0  0  0  0  0  0  0  0  0
   28.4259  -20.0036   -4.6180 C   0  0  0  0  0  0  0  0  0  0  0  0
   27.1190  -20.1762   -4.1937 C   0  0  0  0  0  0  0  0  0  0  0  0
   26.0998  -20.3220   -5.1083 C   0  0  0  0  0  0  0  0  0  0  0  0
   26.3975  -20.2941   -6.4531 C   0  0  0  0  0  0  0  0  0  0  0  0
   22.2513  -21.5476   -8.7164 C   0  0  0  0  0  0  0  0  0  0  0  0
   21.3803  -20.6964   -8.4251 O   0  0  0  0  0  0  0  0  0  0  0  0
   17.6337  -25.8123  -13.1152 N   0  0  0  0  0  0  0  0  0  0  0  0
   17.9159  -24.5186  -13.6796 C   0  0  0  0  0  0  0  0  0  0  0  0
   17.0488  -24.0316  -14.4779 N   0  0  0  0  0  0  0  0  0  0  0  0
   19.0964  -23.8146  -13.3746 N   0  0  0  0  0  0  0  0  0  0  0  0
   19.9604  -24.2122  -12.3122 C   0  0  0  0  0  0  0  0  0  0  0  0
   19.4037  -24.1194  -10.9331 C   0  0  0  0  0  0  0  0  0  0  0  0
   20.3532  -24.4880   -9.8322 C   0  0  0  0  0  0  0  0  0  0  0  0
   20.4959  -23.3474   -8.8202 C   0  0  2  0  0  0  0  0  0  0  0  0
   21.8498  -22.8787   -8.9082 N   0  0  0  0  0  0  0  0  0  0  0  0
   20.0736  -23.7031   -7.4699 C   0  0  0  0  0  0  0  0  0  0  0  0
   20.9369  -23.9062   -6.5568 O   0  0  0  0  0  0  0  0  0  0  0  0
   17.2253  -23.1202  -14.9389 C   0  0  0  0  0  0  0  0  0  0  0  0
   16.8343  -22.3950   -5.2584 C   0  0  2  0  0  0  0  0  0  0  0  0
   16.9068  -23.8647   -5.5417 O   0  0  0  0  0  0  0  0  0  0  0  0
   16.1059  -24.2172   -6.6093 C   0  0  2  0  0  0  0  0  0  0  0  0
   18.3059  -24.3689   -5.7935 N   0  0  0  0  0  0  0  0  0  0  0  0
   18.7138  -23.8451   -7.0827 C   0  0  0  0  0  0  0  0  0  0  0  0
   18.3730  -25.8533   -5.7644 O   0  0  0  0  0  0  0  0  0  0  0  0
   18.2941  -26.6090   -4.6189 O   0  0  0  0  0  0  0  0  0  0  0  0
  2  1  1  6
  3  2  1  0
  4  5  2  0
  4  3  1  0
  6  5  1  0
  7 12  2  0
  7  6  1  0
  8  7  1  0
  9 10  1  0
  9  8  2  0
 10 11  2  0
 11 12  1  0
 12  4  1  0
 13  2  1  0
 14 13  2  0
 16 18  1  0
 16 15  1  0
 17 16  2  0
 19 20  1  0
 19 18  1  0
 20 21  1  0
 22 21  1  6
 22 24  1  0
 22 23  1  0
 23 13  1  0
 24 25  2  0
 27 26  1  1
 27 29  1  0
 27 28  1  0
 29 31  1  0
 30 24  1  0
 29 30  1  1
 31 32  1  0
 33 31  2  0
M  END
$$$$
