WRT.pdb
     RDKit          3D

 33 34  0  0  1  0  0  0  0  0999 V2000
   25.8547  -19.2080  -10.9267 N   0  0  0  0  0  0  0  0  0  0  0  0
   25.9822  -20.5818  -11.1236 C   0  0  1  0  0  0  0  0  0  0  0  0
   25.7183  -21.3347   -9.8452 C   0  0  0  0  0  0  0  0  0  0  0  0
   26.4963  -20.6524   -8.7591 C   0  0  0  0  0  0  0  0  0  0  0  0
   26.0496  -19.7989   -7.7870 C   0  0  0  0  0  0  0  0  0  0  0  0
   27.1151  -19.4438   -7.0465 N   0  0  0  0  0  0  0  0  0  0  0  0
   28.2249  -20.0257   -7.4931 C   0  0  0  0  0  0  0  0  0  0  0  0
   29.5589  -19.9908   -7.0904 C   0  0  0  0  0  0  0  0  0  0  0  0
   30.4869  -20.7269   -7.7837 C   0  0  0  0  0  0  0  0  0  0  0  0
   30.1018  -21.4948   -8.8699 C   0  0  0  0  0  0  0  0  0  0  0  0
   28.7845  -21.5309   -9.2695 C   0  0  0  0  0  0  0  0  0  0  0  0
   27.8529  -20.7920   -8.5737 C   0  0  0  0  0  0  0  0  0  0  0  0
   25.1193  -21.1690  -12.1677 C   0  0  0  0  0  0  0  0  0  0  0  0
   23.9682  -20.7035  -12.3290 O   0  0  0  0  0  0  0  0  0  0  0  0
   26.9521  -26.7777  -16.7463 N   0  0  0  0  0  0  0  0  0  0  0  0
   25.9290  -26.6051  -17.7439 C   0  0  0  0  0  0  0  0  0  0  0  0
   25.4799  -27.6594  -18.3035 N   0  0  0  0  0  0  0  0  0  0  0  0
   25.4414  -25.3327  -18.0980 N   0  0  0  0  0  0  0  0  0  0  0  0
   25.3962  -24.2544  -17.1660 C   0  0  0  0  0  0  0  0  0  0  0  0
   24.8688  -24.5711  -15.8087 C   0  0  0  0  0  0  0  0  0  0  0  0
   25.5942  -23.9176  -14.6703 C   0  0  0  0  0  0  0  0  0  0  0  0
   24.7814  -22.7561  -14.0908 C   0  0  2  0  0  0  0  0  0  0  0  0
   25.5350  -22.2285  -12.9889 N   0  0  0  0  0  0  0  0  0  0  0  0
   23.4055  -23.1094  -13.7589 C   0  0  0  0  0  0  0  0  0  0  0  0
   23.1621  -24.0243  -12.9079 O   0  0  0  0  0  0  0  0  0  0  0  0
   24.8055  -27.5812  -19.0868 C   0  0  0  0  0  0  0  0  0  0  0  0
   20.2615  -21.0367  -12.5572 C   0  0  2  0  0  0  0  0  0  0  0  0
   20.0788  -21.6791  -13.8986 O   0  0  0  0  0  0  0  0  0  0  0  0
   20.3426  -20.7957  -14.9260 C   0  0  2  0  0  0  0  0  0  0  0  0
   20.9099  -22.9220  -14.0979 N   0  0  0  0  0  0  0  0  0  0  0  0
   22.2703  -22.4815  -14.3387 C   0  0  0  0  0  0  0  0  0  0  0  0
   20.4016  -23.7538  -15.2197 O   0  0  0  0  0  0  0  0  0  0  0  0
   19.2537  -24.5081  -15.1652 O   0  0  0  0  0  0  0  0  0  0  0  0
  2  1  1  1
  3  2  1  0
  4  5  2  0
  4  3  1  0
  6  5  1  0
  7 12  2  0
  7  6  1  0
  8  7  1  0
  9 10  1  0
  9  8  2  0
 10 11  2  0
 11 12  1  0
 12  4  1  0
 13  2  1  0
 14 13  2  0
 16 18  1  0
 16 15  1  0
 17 16  2  0
 19 20  1  0
 19 18  1  0
 20 21  1  0
 22 21  1  1
 22 24  1  0
 22 23  1  0
 23 13  1  0
 24 25  2  0
 27 26  1  6
 27 29  1  0
 27 28  1  0
 29 31  1  0
 30 24  1  0
 29 30  1  6
 31 32  1  0
 33 31  2  0
M  END
$$$$
