WRT.pdb
     RDKit          3D

 33 34  0  0  1  0  0  0  0  0999 V2000
   27.0627  -18.7961   -9.7046 N   0  0  0  0  0  0  0  0  0  0  0  0
   26.9017  -20.0042  -10.3808 C   0  0  1  0  0  0  0  0  0  0  0  0
   26.7435  -21.1462   -9.4106 C   0  0  0  0  0  0  0  0  0  0  0  0
   27.8138  -20.9967   -8.3702 C   0  0  0  0  0  0  0  0  0  0  0  0
   27.7145  -20.4997   -7.0988 C   0  0  0  0  0  0  0  0  0  0  0  0
   28.9399  -20.5645   -6.5475 N   0  0  0  0  0  0  0  0  0  0  0  0
   29.8227  -21.0780   -7.3999 C   0  0  0  0  0  0  0  0  0  0  0  0
   31.1875  -21.3511   -7.3238 C   0  0  0  0  0  0  0  0  0  0  0  0
   31.8225  -21.8973   -8.4110 C   0  0  0  0  0  0  0  0  0  0  0  0
   31.1152  -22.1736   -9.5692 C   0  0  0  0  0  0  0  0  0  0  0  0
   29.7668  -21.9047   -9.6466 C   0  0  0  0  0  0  0  0  0  0  0  0
   29.1294  -21.3564   -8.5553 C   0  0  0  0  0  0  0  0  0  0  0  0
   25.7712  -20.0701  -11.3280 C   0  0  0  0  0  0  0  0  0  0  0  0
   24.6383  -19.7049  -10.9393 O   0  0  0  0  0  0  0  0  0  0  0  0
   23.0974  -21.0973  -18.2289 N   0  0  0  0  0  0  0  0  0  0  0  0
   23.5460  -19.9015  -18.8926 C   0  0  0  0  0  0  0  0  0  0  0  0
   22.7785  -19.4098  -19.7847 N   0  0  0  0  0  0  0  0  0  0  0  0
   24.7780  -19.2951  -18.5822 N   0  0  0  0  0  0  0  0  0  0  0  0
   25.5748  -19.7234  -17.4800 C   0  0  0  0  0  0  0  0  0  0  0  0
   24.8998  -19.7745  -16.1524 C   0  0  0  0  0  0  0  0  0  0  0  0
   25.7799  -20.1565  -14.9997 C   0  0  0  0  0  0  0  0  0  0  0  0
   24.9719  -20.2805  -13.7046 C   0  0  2  0  0  0  0  0  0  0  0  0
   25.9123  -20.5252  -12.6481 N   0  0  0  0  0  0  0  0  0  0  0  0
   23.8891  -21.2553  -13.7782 C   0  0  0  0  0  0  0  0  0  0  0  0
   24.1434  -22.4885  -13.9653 O   0  0  0  0  0  0  0  0  0  0  0  0
   23.0764  -18.5724  -20.3179 C   0  0  0  0  0  0  0  0  0  0  0  0
   20.6228  -21.5478  -11.3165 C   0  0  2  0  0  0  0  0  0  0  0  0
   20.3530  -21.3706  -12.7798 O   0  0  0  0  0  0  0  0  0  0  0  0
   20.1181  -20.0480  -13.0974 C   0  0  2  0  0  0  0  0  0  0  0  0
   21.4495  -21.8993  -13.6706 N   0  0  0  0  0  0  0  0  0  0  0  0
   22.5152  -20.9161  -13.6508 C   0  0  0  0  0  0  0  0  0  0  0  0
   20.9668  -22.1495  -15.0537 O   0  0  0  0  0  0  0  0  0  0  0  0
   21.4051  -21.4645  -16.1619 O   0  0  0  0  0  0  0  0  0  0  0  0
  2  1  1  1
  3  2  1  0
  4  5  2  0
  4  3  1  0
  6  5  1  0
  7 12  2  0
  7  6  1  0
  8  7  1  0
  9 10  1  0
  9  8  2  0
 10 11  2  0
 11 12  1  0
 12  4  1  0
 13  2  1  0
 14 13  2  0
 16 18  1  0
 16 15  1  0
 17 16  2  0
 19 20  1  0
 19 18  1  0
 20 21  1  0
 22 21  1  6
 22 24  1  0
 22 23  1  0
 23 13  1  0
 24 25  2  0
 27 26  1  1
 27 29  1  0
 27 28  1  0
 29 31  1  0
 30 24  1  0
 29 30  1  6
 31 32  1  0
 33 31  2  0
M  END
$$$$
