WRT.pdb
     RDKit          3D

 33 34  0  0  1  0  0  0  0  0999 V2000
   25.8704  -15.8543  -18.8245 N   0  0  0  0  0  0  0  0  0  0  0  0
   26.0232  -16.8033  -17.8152 C   0  0  1  0  0  0  0  0  0  0  0  0
   26.4060  -16.1470  -16.5139 C   0  0  0  0  0  0  0  0  0  0  0  0
   27.7543  -15.5201  -16.7123 C   0  0  0  0  0  0  0  0  0  0  0  0
   28.1086  -14.2001  -16.6391 C   0  0  0  0  0  0  0  0  0  0  0  0
   29.4273  -14.1255  -16.8944 N   0  0  0  0  0  0  0  0  0  0  0  0
   29.9394  -15.3308  -17.1282 C   0  0  0  0  0  0  0  0  0  0  0  0
   31.2196  -15.7896  -17.4340 C   0  0  0  0  0  0  0  0  0  0  0  0
   31.4217  -17.1342  -17.6214 C   0  0  0  0  0  0  0  0  0  0  0  0
   30.3662  -18.0234  -17.5076 C   0  0  0  0  0  0  0  0  0  0  0  0
   29.1006  -17.5723  -17.2055 C   0  0  0  0  0  0  0  0  0  0  0  0
   28.8977  -16.2228  -17.0175 C   0  0  0  0  0  0  0  0  0  0  0  0
   24.8505  -17.6599  -17.5492 C   0  0  0  0  0  0  0  0  0  0  0  0
   23.7144  -17.1341  -17.5244 O   0  0  0  0  0  0  0  0  0  0  0  0
   28.3633  -22.5697  -17.1475 N   0  0  0  0  0  0  0  0  0  0  0  0
   27.2750  -23.4708  -16.8725 C   0  0  0  0  0  0  0  0  0  0  0  0
   27.3852  -24.2177  -15.8447 N   0  0  0  0  0  0  0  0  0  0  0  0
   26.1362  -23.5367  -17.6976 N   0  0  0  0  0  0  0  0  0  0  0  0
   25.9557  -22.6605  -18.8080 C   0  0  0  0  0  0  0  0  0  0  0  0
   25.3252  -21.3418  -18.5180 C   0  0  0  0  0  0  0  0  0  0  0  0
   24.3286  -21.3401  -17.3972 C   0  0  0  0  0  0  0  0  0  0  0  0
   23.8441  -19.9200  -17.0904 C   0  0  2  0  0  0  0  0  0  0  0  0
   24.9550  -19.0410  -17.3228 N   0  0  0  0  0  0  0  0  0  0  0  0
   23.2358  -19.7783  -15.7721 C   0  0  0  0  0  0  0  0  0  0  0  0
   23.9512  -19.8453  -14.7213 O   0  0  0  0  0  0  0  0  0  0  0  0
   26.6226  -24.8756  -15.6001 C   0  0  0  0  0  0  0  0  0  0  0  0
   20.5045  -17.0737  -14.6210 C   0  0  2  0  0  0  0  0  0  0  0  0
   20.0902  -18.4929  -14.3772 O   0  0  0  0  0  0  0  0  0  0  0  0
   19.2364  -18.9500  -15.3608 C   0  0  2  0  0  0  0  0  0  0  0  0
   21.2469  -19.4527  -14.2501 N   0  0  0  0  0  0  0  0  0  0  0  0
   21.8468  -19.5616  -15.5659 C   0  0  0  0  0  0  0  0  0  0  0  0
   20.8122  -20.7791  -13.7398 O   0  0  0  0  0  0  0  0  0  0  0  0
   20.3104  -20.9962  -12.4786 O   0  0  0  0  0  0  0  0  0  0  0  0
  2  1  1  6
  3  2  1  0
  4  5  2  0
  4  3  1  0
  6  5  1  0
  7 12  2  0
  7  6  1  0
  8  7  1  0
  9 10  1  0
  9  8  2  0
 10 11  2  0
 11 12  1  0
 12  4  1  0
 13  2  1  0
 14 13  2  0
 16 18  1  0
 16 15  1  0
 17 16  2  0
 19 20  1  0
 19 18  1  0
 20 21  1  0
 22 21  1  1
 22 24  1  0
 22 23  1  0
 23 13  1  0
 24 25  2  0
 27 26  1  1
 27 29  1  0
 27 28  1  0
 29 31  1  0
 30 24  1  0
 29 30  1  1
 31 32  1  0
 33 31  2  0
M  END
$$$$
