WRT.pdb
     RDKit          3D

 33 34  0  0  1  0  0  0  0  0999 V2000
   28.9119  -21.4609  -10.1705 N   0  0  0  0  0  0  0  0  0  0  0  0
   27.5629  -21.1571   -9.9962 C   0  0  1  0  0  0  0  0  0  0  0  0
   27.3959  -19.9007   -9.1812 C   0  0  0  0  0  0  0  0  0  0  0  0
   28.4322  -19.9333   -8.0971 C   0  0  0  0  0  0  0  0  0  0  0  0
   29.7892  -20.0736   -8.2079 C   0  0  0  0  0  0  0  0  0  0  0  0
   30.2968  -20.0468   -6.9624 N   0  0  0  0  0  0  0  0  0  0  0  0
   29.3351  -19.8965   -6.0557 C   0  0  0  0  0  0  0  0  0  0  0  0
   29.3290  -19.8103   -4.6645 C   0  0  0  0  0  0  0  0  0  0  0  0
   28.1336  -19.6527   -4.0089 C   0  0  0  0  0  0  0  0  0  0  0  0
   26.9483  -19.5801   -4.7215 C   0  0  0  0  0  0  0  0  0  0  0  0
   26.9520  -19.6650   -6.0960 C   0  0  0  0  0  0  0  0  0  0  0  0
   28.1518  -19.8232   -6.7542 C   0  0  0  0  0  0  0  0  0  0  0  0
   26.7721  -20.9901  -11.2315 C   0  0  0  0  0  0  0  0  0  0  0  0
   27.0934  -20.0843  -12.0340 O   0  0  0  0  0  0  0  0  0  0  0  0
   24.7410  -25.6312  -15.3397 N   0  0  0  0  0  0  0  0  0  0  0  0
   23.3514  -25.9632  -15.5145 C   0  0  0  0  0  0  0  0  0  0  0  0
   23.0828  -26.9671  -16.2538 N   0  0  0  0  0  0  0  0  0  0  0  0
   22.3251  -25.2169  -14.9047 N   0  0  0  0  0  0  0  0  0  0  0  0
   22.6007  -24.1741  -13.9720 C   0  0  0  0  0  0  0  0  0  0  0  0
   23.6991  -23.2337  -14.3324 C   0  0  0  0  0  0  0  0  0  0  0  0
   24.8093  -23.1299  -13.3295 C   0  0  0  0  0  0  0  0  0  0  0  0
   24.9039  -21.7138  -12.7540 C   0  0  2  0  0  0  0  0  0  0  0  0
   25.6735  -21.8051  -11.5457 N   0  0  0  0  0  0  0  0  0  0  0  0
   23.6112  -21.0580  -12.5908 C   0  0  0  0  0  0  0  0  0  0  0  0
   22.9468  -21.2013  -11.5144 O   0  0  0  0  0  0  0  0  0  0  0  0
   22.1075  -27.3108  -16.3238 C   0  0  0  0  0  0  0  0  0  0  0  0
   20.4241  -17.6905  -14.4807 C   0  0  1  0  0  0  0  0  0  0  0  0
   21.5657  -18.6534  -14.6022 O   0  0  0  0  0  0  0  0  0  0  0  0
   22.7445  -18.0080  -14.9173 C   0  0  1  0  0  0  0  0  0  0  0  0
   21.7852  -19.4977  -13.3716 N   0  0  0  0  0  0  0  0  0  0  0  0
   23.0144  -20.2369  -13.5851 C   0  0  0  0  0  0  0  0  0  0  0  0
   20.6404  -20.4098  -13.1147 O   0  0  0  0  0  0  0  0  0  0  0  0
   19.6413  -20.1599  -12.2042 O   0  0  0  0  0  0  0  0  0  0  0  0
  2  1  1  6
  3  2  1  0
  4  5  2  0
  4  3  1  0
  6  5  1  0
  7 12  2  0
  7  6  1  0
  8  7  1  0
  9 10  1  0
  9  8  2  0
 10 11  2  0
 11 12  1  0
 12  4  1  0
 13  2  1  0
 14 13  2  0
 16 18  1  0
 16 15  1  0
 17 16  2  0
 19 20  1  0
 19 18  1  0
 20 21  1  0
 22 21  1  1
 22 24  1  0
 22 23  1  0
 23 13  1  0
 24 25  2  0
 27 26  1  6
 27 29  1  0
 27 28  1  0
 29 31  1  0
 30 24  1  0
 29 30  1  6
 31 32  1  0
 33 31  2  0
M  END
$$$$
