WRT.pdb
     RDKit          3D

 33 34  0  0  1  0  0  0  0  0999 V2000
   28.8666  -21.9059  -10.7891 N   0  0  0  0  0  0  0  0  0  0  0  0
   27.7016  -21.2073  -10.4775 C   0  0  1  0  0  0  0  0  0  0  0  0
   28.0172  -19.9549   -9.7013 C   0  0  0  0  0  0  0  0  0  0  0  0
   28.8391  -20.3630   -8.5146 C   0  0  0  0  0  0  0  0  0  0  0  0
   30.0850  -20.9287   -8.4844 C   0  0  0  0  0  0  0  0  0  0  0  0
   30.4074  -21.1167   -7.1919 N   0  0  0  0  0  0  0  0  0  0  0  0
   29.4318  -20.7006   -6.3889 C   0  0  0  0  0  0  0  0  0  0  0  0
   29.2709  -20.6725   -5.0046 C   0  0  0  0  0  0  0  0  0  0  0  0
   28.1108  -20.1642   -4.4758 C   0  0  0  0  0  0  0  0  0  0  0  0
   27.1130  -19.6851   -5.3080 C   0  0  0  0  0  0  0  0  0  0  0  0
   27.2698  -19.7118   -6.6759 C   0  0  0  0  0  0  0  0  0  0  0  0
   28.4341  -20.2220   -7.2068 C   0  0  0  0  0  0  0  0  0  0  0  0
   26.8560  -20.8155  -11.6225 C   0  0  0  0  0  0  0  0  0  0  0  0
   27.3742  -20.1652  -12.5586 O   0  0  0  0  0  0  0  0  0  0  0  0
   23.0093  -26.9565  -14.2745 N   0  0  0  0  0  0  0  0  0  0  0  0
   22.7252  -25.7576  -15.0187 C   0  0  0  0  0  0  0  0  0  0  0  0
   21.6388  -25.7323  -15.6861 N   0  0  0  0  0  0  0  0  0  0  0  0
   23.6030  -24.6569  -15.0208 N   0  0  0  0  0  0  0  0  0  0  0  0
   24.6555  -24.5277  -14.0675 C   0  0  0  0  0  0  0  0  0  0  0  0
   24.5926  -23.3436  -13.1649 C   0  0  0  0  0  0  0  0  0  0  0  0
   24.8417  -22.0202  -13.8251 C   0  0  0  0  0  0  0  0  0  0  0  0
   24.6528  -20.8653  -12.8370 C   0  0  2  0  0  0  0  0  0  0  0  0
   25.4935  -21.1416  -11.7068 N   0  0  0  0  0  0  0  0  0  0  0  0
   23.2586  -20.6061  -12.4952 C   0  0  0  0  0  0  0  0  0  0  0  0
   22.7832  -21.0016  -11.3825 O   0  0  0  0  0  0  0  0  0  0  0  0
   21.3846  -24.8856  -16.2273 C   0  0  0  0  0  0  0  0  0  0  0  0
   21.0415  -17.1991  -13.4944 C   0  0  2  0  0  0  0  0  0  0  0  0
   20.4947  -18.5394  -13.8814 O   0  0  0  0  0  0  0  0  0  0  0  0
   20.7833  -18.8465  -15.1959 C   0  0  2  0  0  0  0  0  0  0  0  0
   20.9686  -19.6688  -13.0009 N   0  0  0  0  0  0  0  0  0  0  0  0
   22.3548  -19.9162  -13.3474 C   0  0  0  0  0  0  0  0  0  0  0  0
   20.1394  -20.8901  -13.1727 O   0  0  0  0  0  0  0  0  0  0  0  0
   18.8616  -21.0324  -12.6864 O   0  0  0  0  0  0  0  0  0  0  0  0
  2  1  1  6
  3  2  1  0
  4  5  2  0
  4  3  1  0
  6  5  1  0
  7 12  2  0
  7  6  1  0
  8  7  1  0
  9 10  1  0
  9  8  2  0
 10 11  2  0
 11 12  1  0
 12  4  1  0
 13  2  1  0
 14 13  2  0
 16 18  1  0
 16 15  1  0
 17 16  2  0
 19 20  1  0
 19 18  1  0
 20 21  1  0
 22 21  1  6
 22 24  1  0
 22 23  1  0
 23 13  1  0
 24 25  2  0
 27 26  1  6
 27 29  1  0
 27 28  1  0
 29 31  1  0
 30 24  1  0
 29 30  1  1
 31 32  1  0
 33 31  2  0
M  END
$$$$
