WRT.pdb
     RDKit          3D

 33 34  0  0  1  0  0  0  0  0999 V2000
   22.5699  -13.5897  -19.3485 N   0  0  0  0  0  0  0  0  0  0  0  0
   22.6614  -13.0598  -18.0626 C   0  0  1  0  0  0  0  0  0  0  0  0
   24.0765  -13.1341  -17.5502 C   0  0  0  0  0  0  0  0  0  0  0  0
   24.5397  -14.5498  -17.7281 C   0  0  0  0  0  0  0  0  0  0  0  0
   25.5404  -15.0337  -18.5266 C   0  0  0  0  0  0  0  0  0  0  0  0
   25.5816  -16.3669  -18.3521 N   0  0  0  0  0  0  0  0  0  0  0  0
   24.6579  -16.7654  -17.4817 C   0  0  0  0  0  0  0  0  0  0  0  0
   24.2933  -18.0083  -16.9667 C   0  0  0  0  0  0  0  0  0  0  0  0
   23.2670  -18.0817  -16.0584 C   0  0  0  0  0  0  0  0  0  0  0  0
   22.6024  -16.9343  -15.6588 C   0  0  0  0  0  0  0  0  0  0  0  0
   22.9609  -15.7053  -16.1661 C   0  0  0  0  0  0  0  0  0  0  0  0
   23.9910  -15.6316  -17.0779 C   0  0  0  0  0  0  0  0  0  0  0  0
   22.2073  -11.6641  -17.9039 C   0  0  0  0  0  0  0  0  0  0  0  0
   22.4862  -10.8349  -18.7998 O   0  0  0  0  0  0  0  0  0  0  0  0
   14.3714   -9.0445  -15.0047 N   0  0  0  0  0  0  0  0  0  0  0  0
   15.0474   -7.8512  -15.4417 C   0  0  0  0  0  0  0  0  0  0  0  0
   14.3498   -6.7871  -15.5279 N   0  0  0  0  0  0  0  0  0  0  0  0
   16.4172   -7.8481  -15.7670 N   0  0  0  0  0  0  0  0  0  0  0  0
   17.1901   -9.0461  -15.7950 C   0  0  0  0  0  0  0  0  0  0  0  0
   18.6071   -8.9124  -16.2365 C   0  0  0  0  0  0  0  0  0  0  0  0
   19.3723  -10.1985  -16.3345 C   0  0  0  0  0  0  0  0  0  0  0  0
   20.8428   -9.9421  -16.6774 C   0  0  2  0  0  0  0  0  0  0  0  0
   21.4748  -11.2260  -16.7898 N   0  0  0  0  0  0  0  0  0  0  0  0
   21.5097   -9.0264  -15.7584 C   0  0  0  0  0  0  0  0  0  0  0  0
   21.8439   -9.4128  -14.5924 O   0  0  0  0  0  0  0  0  0  0  0  0
   14.7918   -5.9036  -15.8416 C   0  0  0  0  0  0  0  0  0  0  0  0
   24.3930   -6.3960  -16.8748 C   0  0  2  0  0  0  0  0  0  0  0  0
   23.2819   -5.8024  -16.0634 O   0  0  0  0  0  0  0  0  0  0  0  0
   22.3580   -5.1572  -16.8606 C   0  0  2  0  0  0  0  0  0  0  0  0
   22.5619   -6.8013  -15.1922 N   0  0  0  0  0  0  0  0  0  0  0  0
   21.8273   -7.6798  -16.0820 C   0  0  0  0  0  0  0  0  0  0  0  0
   21.6584   -6.1362  -14.2176 O   0  0  0  0  0  0  0  0  0  0  0  0
   22.0899   -5.3785  -13.1550 O   0  0  0  0  0  0  0  0  0  0  0  0
  2  1  1  6
  3  2  1  0
  4  5  2  0
  4  3  1  0
  6  5  1  0
  7 12  2  0
  7  6  1  0
  8  7  1  0
  9 10  1  0
  9  8  2  0
 10 11  2  0
 11 12  1  0
 12  4  1  0
 13  2  1  0
 14 13  2  0
 16 18  1  0
 16 15  1  0
 17 16  2  0
 19 20  1  0
 19 18  1  0
 20 21  1  0
 22 21  1  1
 22 24  1  0
 22 23  1  0
 23 13  1  0
 24 25  2  0
 27 26  1  1
 27 29  1  0
 27 28  1  0
 29 31  1  0
 30 24  1  0
 29 30  1  1
 31 32  1  0
 33 31  2  0
M  END
$$$$
