TAF.pdb
     RDKit          3D

 24 24  0  0  1  0  0  0  0  0999 V2000
   28.6364  -18.1061  -16.0456 C   0  0  0  0  0  0  0  0  0  0  0  0
   28.1668  -18.7729  -14.7646 C   0  0  1  0  0  0  0  0  0  0  0  0
   29.0192  -18.4470  -13.7608 O   0  0  0  0  0  0  0  0  0  0  0  0
   26.7264  -18.4120  -14.5951 C   0  0  2  0  0  0  0  0  0  0  0  0
   26.5255  -16.9831  -14.7074 N   0  0  0  0  0  0  0  0  0  0  0  0
   26.0691  -18.9991  -13.4043 C   0  0  0  0  0  0  0  0  0  0  0  0
   25.7850  -18.1976  -12.4771 O   0  0  0  0  0  0  0  0  0  0  0  0
   24.3874  -22.1591  -12.2856 C   0  0  0  0  0  0  0  0  0  0  0  0
   25.1543  -20.8873  -12.0741 C   0  0  2  0  0  0  0  0  0  0  0  0
   25.7585  -20.3607  -13.2610 N   0  0  0  0  0  0  0  0  0  0  0  0
   26.0525  -20.9048  -10.9109 C   0  0  0  0  0  0  0  0  0  0  0  0
   27.2661  -21.1732  -11.1017 O   0  0  0  0  0  0  0  0  0  0  0  0
   25.5738  -20.6320   -9.6205 N   0  0  0  0  0  0  0  0  0  0  0  0
   26.3738  -20.7247   -8.4199 C   0  0  1  0  0  0  0  0  0  0  0  0
   27.2387  -19.5629   -8.1304 C   0  0  0  0  0  0  0  0  0  0  0  0
   27.9145  -19.5706   -6.8202 C   0  0  0  0  0  0  0  0  0  0  0  0
   28.9184  -20.4795   -6.5472 C   0  0  0  0  0  0  0  0  0  0  0  0
   29.6040  -20.5126   -5.3486 C   0  0  0  0  0  0  0  0  0  0  0  0
   29.2805  -19.6037   -4.3799 C   0  0  0  0  0  0  0  0  0  0  0  0
   28.2901  -18.6844   -4.6163 C   0  0  0  0  0  0  0  0  0  0  0  0
   27.6028  -18.6613   -5.8344 C   0  0  0  0  0  0  0  0  0  0  0  0
   25.4473  -20.9989   -7.2438 C   0  0  0  0  0  0  0  0  0  0  0  0
   24.2835  -20.5593   -7.2329 O   0  0  0  0  0  0  0  0  0  0  0  0
   25.9294  -21.7352   -6.2019 O   0  0  0  0  0  0  0  0  0  0  0  0
  2  1  1  6
  2  3  1  0
  4  6  1  0
  4  2  1  0
  4  5  1  1
  6 10  1  0
  7  6  2  0
  9  8  1  6
  9 11  1  0
 10  9  1  0
 11 12  2  0
 11 13  1  0
 13 14  1  0
 14 15  1  1
 14 22  1  0
 16 15  1  0
 16 21  2  0
 17 16  1  0
 18 17  2  0
 18 19  1  0
 19 20  2  0
 20 21  1  0
 22 24  1  0
 23 22  2  0
M  END
$$$$
