TAF.pdb
     RDKit          3D

 24 24  0  0  1  0  0  0  0  0999 V2000
   23.6359  -13.2698  -22.3469 C   0  0  0  0  0  0  0  0  0  0  0  0
   23.4231  -12.1077  -21.3927 C   0  0  1  0  0  0  0  0  0  0  0  0
   23.2609  -12.5937  -20.1366 O   0  0  0  0  0  0  0  0  0  0  0  0
   24.5462  -11.1494  -21.6252 C   0  0  2  0  0  0  0  0  0  0  0  0
   25.8302  -11.8094  -21.5250 N   0  0  0  0  0  0  0  0  0  0  0  0
   24.4742   -9.8965  -20.8379 C   0  0  0  0  0  0  0  0  0  0  0  0
   25.2315   -9.8282  -19.8356 O   0  0  0  0  0  0  0  0  0  0  0  0
   22.9140   -6.4650  -20.9918 C   0  0  0  0  0  0  0  0  0  0  0  0
   23.5687   -7.6401  -20.3276 C   0  0  2  0  0  0  0  0  0  0  0  0
   23.6299   -8.8167  -21.1418 N   0  0  0  0  0  0  0  0  0  0  0  0
   23.1125   -7.8944  -18.9538 C   0  0  0  0  0  0  0  0  0  0  0  0
   22.2070   -8.7490  -18.7773 O   0  0  0  0  0  0  0  0  0  0  0  0
   23.6675   -7.2042  -17.8656 N   0  0  0  0  0  0  0  0  0  0  0  0
   23.2634   -7.3939  -16.4906 C   0  0  1  0  0  0  0  0  0  0  0  0
   24.3585   -7.5757  -15.5162 C   0  0  0  0  0  0  0  0  0  0  0  0
   25.1822   -8.7864  -15.6879 C   0  0  0  0  0  0  0  0  0  0  0  0
   26.3981   -8.7281  -16.3409 C   0  0  0  0  0  0  0  0  0  0  0  0
   27.2226   -9.8242  -16.5047 C   0  0  0  0  0  0  0  0  0  0  0  0
   26.8238  -11.0295  -15.9970 C   0  0  0  0  0  0  0  0  0  0  0  0
   25.6232  -11.1248  -15.3404 C   0  0  0  0  0  0  0  0  0  0  0  0
   24.7970  -10.0073  -15.1813 C   0  0  0  0  0  0  0  0  0  0  0  0
   22.3822   -6.2221  -16.0815 C   0  0  0  0  0  0  0  0  0  0  0  0
   21.7684   -6.2332  -14.9995 O   0  0  0  0  0  0  0  0  0  0  0  0
   22.2812   -5.1633  -16.9351 O   0  0  0  0  0  0  0  0  0  0  0  0
  2  1  1  6
  2  3  1  0
  4  6  1  0
  4  2  1  0
  4  5  1  1
  6 10  1  0
  7  6  2  0
  9  8  1  6
  9 11  1  0
 10  9  1  0
 11 12  2  0
 11 13  1  0
 13 14  1  0
 14 15  1  1
 14 22  1  0
 16 15  1  0
 16 21  2  0
 17 16  1  0
 18 17  2  0
 18 19  1  0
 19 20  2  0
 20 21  1  0
 22 24  1  0
 23 22  2  0
M  END
$$$$
