TAF.pdb
     RDKit          3D

 24 24  0  0  1  0  0  0  0  0999 V2000
   21.2217  -12.1309  -17.5186 C   0  0  0  0  0  0  0  0  0  0  0  0
   20.1552  -11.9140  -18.5778 C   0  0  1  0  0  0  0  0  0  0  0  0
   20.0970  -13.0103  -19.3746 O   0  0  0  0  0  0  0  0  0  0  0  0
   18.9084  -11.5145  -17.8568 C   0  0  2  0  0  0  0  0  0  0  0  0
   17.7539  -11.5792  -18.7271 N   0  0  0  0  0  0  0  0  0  0  0  0
   18.9993  -10.2404  -17.1064 C   0  0  0  0  0  0  0  0  0  0  0  0
   19.2500   -9.2131  -17.7879 O   0  0  0  0  0  0  0  0  0  0  0  0
   18.3247   -8.8255  -13.6867 C   0  0  0  0  0  0  0  0  0  0  0  0
   18.9968   -8.8815  -15.0267 C   0  0  2  0  0  0  0  0  0  0  0  0
   18.8276  -10.1244  -15.7178 N   0  0  0  0  0  0  0  0  0  0  0  0
   20.3794   -8.3833  -15.0351 C   0  0  0  0  0  0  0  0  0  0  0  0
   21.3040   -9.2015  -15.2741 O   0  0  0  0  0  0  0  0  0  0  0  0
   20.6657   -7.0332  -14.7824 N   0  0  0  0  0  0  0  0  0  0  0  0
   21.9357   -6.4040  -15.0675 C   0  0  1  0  0  0  0  0  0  0  0  0
   22.3371   -6.3775  -16.4887 C   0  0  0  0  0  0  0  0  0  0  0  0
   23.5842   -5.6532  -16.7949 C   0  0  0  0  0  0  0  0  0  0  0  0
   24.8148   -6.2509  -16.6033 C   0  0  0  0  0  0  0  0  0  0  0  0
   26.0123   -5.6298  -16.9001 C   0  0  0  0  0  0  0  0  0  0  0  0
   25.9873   -4.3616  -17.4104 C   0  0  0  0  0  0  0  0  0  0  0  0
   24.7833   -3.7372  -17.6162 C   0  0  0  0  0  0  0  0  0  0  0  0
   23.5773   -4.3769  -17.3113 C   0  0  0  0  0  0  0  0  0  0  0  0
   21.9119   -4.9920  -14.4995 C   0  0  0  0  0  0  0  0  0  0  0  0
   22.9571   -4.4470  -14.1019 O   0  0  0  0  0  0  0  0  0  0  0  0
   20.7137   -4.3438  -14.4349 O   0  0  0  0  0  0  0  0  0  0  0  0
  2  1  1  1
  2  3  1  0
  4  6  1  0
  4  2  1  0
  4  5  1  6
  6 10  1  0
  7  6  2  0
  9  8  1  1
  9 11  1  0
 10  9  1  0
 11 12  2  0
 11 13  1  0
 13 14  1  0
 14 15  1  6
 14 22  1  0
 16 15  1  0
 16 21  2  0
 17 16  1  0
 18 17  2  0
 18 19  1  0
 19 20  2  0
 20 21  1  0
 22 24  1  0
 23 22  2  0
M  END
$$$$
