TAF.pdb
     RDKit          3D

 24 24  0  0  1  0  0  0  0  0999 V2000
   19.0274  -12.8479  -19.8723 C   0  0  0  0  0  0  0  0  0  0  0  0
   19.4572  -14.0516  -19.0523 C   0  0  1  0  0  0  0  0  0  0  0  0
   18.5502  -15.0460  -19.2216 O   0  0  0  0  0  0  0  0  0  0  0  0
   20.8768  -14.3384  -19.4214 C   0  0  2  0  0  0  0  0  0  0  0  0
   21.3030  -15.6247  -18.9129 N   0  0  0  0  0  0  0  0  0  0  0  0
   21.8348  -13.2490  -19.1213 C   0  0  0  0  0  0  0  0  0  0  0  0
   22.0532  -13.0237  -17.9030 O   0  0  0  0  0  0  0  0  0  0  0  0
   24.2513  -10.9591  -20.9034 C   0  0  0  0  0  0  0  0  0  0  0  0
   23.4130  -11.4382  -19.7551 C   0  0  2  0  0  0  0  0  0  0  0  0
   22.4892  -12.4783  -20.0954 N   0  0  0  0  0  0  0  0  0  0  0  0
   22.8225  -10.3645  -18.9436 C   0  0  0  0  0  0  0  0  0  0  0  0
   21.6146  -10.0715  -19.1348 O   0  0  0  0  0  0  0  0  0  0  0  0
   23.5816   -9.6809  -17.9817 N   0  0  0  0  0  0  0  0  0  0  0  0
   23.0966   -8.5584  -17.2105 C   0  0  1  0  0  0  0  0  0  0  0  0
   23.9503   -8.1350  -16.0820 C   0  0  0  0  0  0  0  0  0  0  0  0
   23.4743   -6.9708  -15.3127 C   0  0  0  0  0  0  0  0  0  0  0  0
   22.6286   -7.1342  -14.2327 C   0  0  0  0  0  0  0  0  0  0  0  0
   22.1756   -6.0826  -13.4602 C   0  0  0  0  0  0  0  0  0  0  0  0
   22.5806   -4.8145  -13.7721 C   0  0  0  0  0  0  0  0  0  0  0  0
   23.4221   -4.6140  -14.8367 C   0  0  0  0  0  0  0  0  0  0  0  0
   23.8738   -5.6875  -15.6115 C   0  0  0  0  0  0  0  0  0  0  0  0
   22.8564   -7.3913  -18.1575 C   0  0  0  0  0  0  0  0  0  0  0  0
   23.6678   -7.1274  -19.0628 O   0  0  0  0  0  0  0  0  0  0  0  0
   21.7306   -6.6414  -17.9832 O   0  0  0  0  0  0  0  0  0  0  0  0
  2  1  1  6
  2  3  1  0
  4  6  1  0
  4  2  1  0
  4  5  1  1
  6 10  1  0
  7  6  2  0
  9  8  1  6
  9 11  1  0
 10  9  1  0
 11 12  2  0
 11 13  1  0
 13 14  1  0
 14 15  1  1
 14 22  1  0
 16 15  1  0
 16 21  2  0
 17 16  1  0
 18 17  2  0
 18 19  1  0
 19 20  2  0
 20 21  1  0
 22 24  1  0
 23 22  2  0
M  END
$$$$
