TAF.pdb
     RDKit          3D

 24 24  0  0  1  0  0  0  0  0999 V2000
   21.7657  -33.8635  -15.4933 C   0  0  0  0  0  0  0  0  0  0  0  0
   21.2743  -32.4511  -15.2289 C   0  0  1  0  0  0  0  0  0  0  0  0
   21.1197  -32.2821  -13.8918 O   0  0  0  0  0  0  0  0  0  0  0  0
   22.2119  -31.5296  -15.9399 C   0  0  2  0  0  0  0  0  0  0  0  0
   23.5795  -31.7412  -15.5165 N   0  0  0  0  0  0  0  0  0  0  0  0
   21.8153  -30.1023  -15.9305 C   0  0  0  0  0  0  0  0  0  0  0  0
   22.5661  -29.3232  -15.2885 O   0  0  0  0  0  0  0  0  0  0  0  0
   19.4167  -27.7860  -17.6802 C   0  0  0  0  0  0  0  0  0  0  0  0
   20.3759  -28.1914  -16.6002 C   0  0  2  0  0  0  0  0  0  0  0  0
   20.6798  -29.5908  -16.5786 N   0  0  0  0  0  0  0  0  0  0  0  0
   20.0727  -27.6314  -15.2756 C   0  0  0  0  0  0  0  0  0  0  0  0
   19.4331  -28.3450  -14.4614 O   0  0  0  0  0  0  0  0  0  0  0  0
   20.4818  -26.3360  -14.9247 N   0  0  0  0  0  0  0  0  0  0  0  0
   20.3677  -25.7792  -13.5954 C   0  0  1  0  0  0  0  0  0  0  0  0
   21.6377  -25.5851  -12.8667 C   0  0  0  0  0  0  0  0  0  0  0  0
   22.6902  -24.8461  -13.5877 C   0  0  0  0  0  0  0  0  0  0  0  0
   23.7068  -25.5176  -14.2388 C   0  0  0  0  0  0  0  0  0  0  0  0
   24.7010  -24.8774  -14.9526 C   0  0  0  0  0  0  0  0  0  0  0  0
   24.6846  -23.5122  -15.0246 C   0  0  0  0  0  0  0  0  0  0  0  0
   23.6890  -22.8117  -14.3922 C   0  0  0  0  0  0  0  0  0  0  0  0
   22.6878  -23.4718  -13.6721 C   0  0  0  0  0  0  0  0  0  0  0  0
   19.6060  -24.4646  -13.6876 C   0  0  0  0  0  0  0  0  0  0  0  0
   19.1185  -23.9375  -12.6716 O   0  0  0  0  0  0  0  0  0  0  0  0
   19.4695  -23.8839  -14.9141 O   0  0  0  0  0  0  0  0  0  0  0  0
  2  1  1  1
  2  3  1  0
  4  6  1  0
  4  2  1  0
  4  5  1  1
  6 10  1  0
  7  6  2  0
  9  8  1  6
  9 11  1  0
 10  9  1  0
 11 12  2  0
 11 13  1  0
 13 14  1  0
 14 15  1  6
 14 22  1  0
 16 15  1  0
 16 21  2  0
 17 16  1  0
 18 17  2  0
 18 19  1  0
 19 20  2  0
 20 21  1  0
 22 24  1  0
 23 22  2  0
M  END
$$$$
