TAF.pdb
     RDKit          3D

 24 24  0  0  1  0  0  0  0  0999 V2000
   29.8135  -20.8402  -18.4974 C   0  0  0  0  0  0  0  0  0  0  0  0
   28.7340  -20.1205  -17.7082 C   0  0  1  0  0  0  0  0  0  0  0  0
   27.5988  -20.0815  -18.4499 O   0  0  0  0  0  0  0  0  0  0  0  0
   28.6652  -20.7834  -16.3705 C   0  0  2  0  0  0  0  0  0  0  0  0
   28.4063  -22.2015  -16.4988 N   0  0  0  0  0  0  0  0  0  0  0  0
   27.7802  -20.1182  -15.3861 C   0  0  0  0  0  0  0  0  0  0  0  0
   28.0924  -18.9420  -15.0670 O   0  0  0  0  0  0  0  0  0  0  0  0
   24.5350  -19.4804  -14.5316 C   0  0  0  0  0  0  0  0  0  0  0  0
   25.7900  -20.0103  -13.9032 C   0  0  2  0  0  0  0  0  0  0  0  0
   26.6484  -20.7145  -14.8079 N   0  0  0  0  0  0  0  0  0  0  0  0
   25.5840  -20.7026  -12.6232 C   0  0  0  0  0  0  0  0  0  0  0  0
   25.5882  -21.9601  -12.6209 O   0  0  0  0  0  0  0  0  0  0  0  0
   25.3858  -19.9850  -11.4340 N   0  0  0  0  0  0  0  0  0  0  0  0
   25.0498  -20.5907  -10.1650 C   0  0  1  0  0  0  0  0  0  0  0  0
   25.3535  -19.7842   -8.9654 C   0  0  0  0  0  0  0  0  0  0  0  0
   26.7192  -19.9171   -8.4260 C   0  0  0  0  0  0  0  0  0  0  0  0
   27.4868  -21.0300   -8.7096 C   0  0  0  0  0  0  0  0  0  0  0  0
   28.7808  -21.1928   -8.2549 C   0  0  0  0  0  0  0  0  0  0  0  0
   29.3375  -20.2080   -7.4870 C   0  0  0  0  0  0  0  0  0  0  0  0
   28.6058  -19.0872   -7.1867 C   0  0  0  0  0  0  0  0  0  0  0  0
   27.2959  -18.9343   -7.6531 C   0  0  0  0  0  0  0  0  0  0  0  0
   23.5756  -20.9690  -10.1872 C   0  0  0  0  0  0  0  0  0  0  0  0
   22.8094  -20.4981  -11.0468 O   0  0  0  0  0  0  0  0  0  0  0  0
   23.1182  -21.8339   -9.2372 O   0  0  0  0  0  0  0  0  0  0  0  0
  2  1  1  6
  2  3  1  0
  4  6  1  0
  4  2  1  0
  4  5  1  6
  6 10  1  0
  7  6  2  0
  9  8  1  6
  9 11  1  0
 10  9  1  0
 11 12  2  0
 11 13  1  0
 13 14  1  0
 14 15  1  1
 14 22  1  0
 16 15  1  0
 16 21  2  0
 17 16  1  0
 18 17  2  0
 18 19  1  0
 19 20  2  0
 20 21  1  0
 22 24  1  0
 23 22  2  0
M  END
$$$$
