TAF.pdb
     RDKit          3D

 24 24  0  0  1  0  0  0  0  0999 V2000
   28.1406  -21.6158  -13.8620 C   0  0  0  0  0  0  0  0  0  0  0  0
   28.3131  -20.2467  -14.4963 C   0  0  1  0  0  0  0  0  0  0  0  0
   28.9486  -20.3899  -15.6862 O   0  0  0  0  0  0  0  0  0  0  0  0
   26.9640  -19.6037  -14.5043 C   0  0  2  0  0  0  0  0  0  0  0  0
   26.9848  -18.3463  -15.2207 N   0  0  0  0  0  0  0  0  0  0  0  0
   26.3081  -19.5064  -13.1794 C   0  0  0  0  0  0  0  0  0  0  0  0
   26.6516  -18.5319  -12.4618 O   0  0  0  0  0  0  0  0  0  0  0  0
   23.4149  -20.8959  -11.2581 C   0  0  0  0  0  0  0  0  0  0  0  0
   24.7923  -20.3152  -11.3850 C   0  0  2  0  0  0  0  0  0  0  0  0
   25.3549  -20.4179  -12.6981 N   0  0  0  0  0  0  0  0  0  0  0  0
   25.7183  -20.7055  -10.3125 C   0  0  0  0  0  0  0  0  0  0  0  0
   26.3724  -21.7705  -10.4511 O   0  0  0  0  0  0  0  0  0  0  0  0
   25.8707  -19.9161   -9.1627 N   0  0  0  0  0  0  0  0  0  0  0  0
   26.7080  -20.2699   -8.0384 C   0  0  1  0  0  0  0  0  0  0  0  0
   27.4447  -19.1558   -7.4078 C   0  0  0  0  0  0  0  0  0  0  0  0
   28.1565  -19.4773   -6.1574 C   0  0  0  0  0  0  0  0  0  0  0  0
   29.1495  -20.4375   -6.1353 C   0  0  0  0  0  0  0  0  0  0  0  0
   29.8674  -20.7579   -4.9997 C   0  0  0  0  0  0  0  0  0  0  0  0
   29.5891  -20.0957   -3.8363 C   0  0  0  0  0  0  0  0  0  0  0  0
   28.6109  -19.1341   -3.8208 C   0  0  0  0  0  0  0  0  0  0  0  0
   27.8905  -18.8190   -4.9777 C   0  0  0  0  0  0  0  0  0  0  0  0
   25.8499  -20.9867   -7.0057 C   0  0  0  0  0  0  0  0  0  0  0  0
   26.3724  -21.6052   -6.0611 O   0  0  0  0  0  0  0  0  0  0  0  0
   24.4944  -20.9357   -7.1471 O   0  0  0  0  0  0  0  0  0  0  0  0
  2  1  1  6
  2  3  1  0
  4  6  1  0
  4  2  1  0
  4  5  1  1
  6 10  1  0
  7  6  2  0
  9  8  1  6
  9 11  1  0
 10  9  1  0
 11 12  2  0
 11 13  1  0
 13 14  1  0
 14 15  1  1
 14 22  1  0
 16 15  1  0
 16 21  2  0
 17 16  1  0
 18 17  2  0
 18 19  1  0
 19 20  2  0
 20 21  1  0
 22 24  1  0
 23 22  2  0
M  END
$$$$
