TAF.pdb
     RDKit          3D

 24 24  0  0  1  0  0  0  0  0999 V2000
   26.8126  -17.5965  -14.4174 C   0  0  0  0  0  0  0  0  0  0  0  0
   26.9129  -18.2526  -15.7832 C   0  0  1  0  0  0  0  0  0  0  0  0
   27.9245  -17.6730  -16.4767 O   0  0  0  0  0  0  0  0  0  0  0  0
   26.9900  -19.7265  -15.5475 C   0  0  2  0  0  0  0  0  0  0  0  0
   27.2941  -20.4395  -16.7696 N   0  0  0  0  0  0  0  0  0  0  0  0
   25.8432  -20.3038  -14.8083 C   0  0  0  0  0  0  0  0  0  0  0  0
   24.7828  -20.4612  -15.4668 O   0  0  0  0  0  0  0  0  0  0  0  0
   25.0153  -21.7817  -11.4315 C   0  0  0  0  0  0  0  0  0  0  0  0
   24.7202  -21.1561  -12.7628 C   0  0  2  0  0  0  0  0  0  0  0  0
   25.8771  -20.6707  -13.4536 N   0  0  0  0  0  0  0  0  0  0  0  0
   23.5957  -20.2099  -12.7545 C   0  0  0  0  0  0  0  0  0  0  0  0
   23.7443  -19.1164  -12.1516 O   0  0  0  0  0  0  0  0  0  0  0  0
   22.3868  -20.5140  -13.3985 N   0  0  0  0  0  0  0  0  0  0  0  0
   21.2559  -19.6164  -13.4713 C   0  0  1  0  0  0  0  0  0  0  0  0
   21.4271  -18.4332  -14.3388 C   0  0  0  0  0  0  0  0  0  0  0  0
   21.6865  -18.7085  -15.7637 C   0  0  0  0  0  0  0  0  0  0  0  0
   20.6667  -19.1128  -16.6033 C   0  0  0  0  0  0  0  0  0  0  0  0
   20.8473  -19.3562  -17.9509 C   0  0  0  0  0  0  0  0  0  0  0  0
   22.0933  -19.1897  -18.4886 C   0  0  0  0  0  0  0  0  0  0  0  0
   23.1301  -18.7870  -17.6856 C   0  0  0  0  0  0  0  0  0  0  0  0
   22.9342  -18.5439  -16.3221 C   0  0  0  0  0  0  0  0  0  0  0  0
   20.0342  -20.4150  -13.9031 C   0  0  0  0  0  0  0  0  0  0  0  0
   20.1532  -21.5680  -14.3550 O   0  0  0  0  0  0  0  0  0  0  0  0
   18.8077  -19.8304  -13.7848 O   0  0  0  0  0  0  0  0  0  0  0  0
  2  1  1  1
  2  3  1  0
  4  6  1  0
  4  2  1  0
  4  5  1  6
  6 10  1  0
  7  6  2  0
  9  8  1  1
  9 11  1  0
 10  9  1  0
 11 12  2  0
 11 13  1  0
 13 14  1  0
 14 15  1  6
 14 22  1  0
 16 15  1  0
 16 21  2  0
 17 16  1  0
 18 17  2  0
 18 19  1  0
 19 20  2  0
 20 21  1  0
 22 24  1  0
 23 22  2  0
M  END
$$$$
