TAF.pdb
     RDKit          3D

 24 24  0  0  1  0  0  0  0  0999 V2000
   25.5975  -16.2954  -17.8005 C   0  0  0  0  0  0  0  0  0  0  0  0
   25.7848  -17.2070  -16.6004 C   0  0  1  0  0  0  0  0  0  0  0  0
   24.7573  -17.0134  -15.7361 O   0  0  0  0  0  0  0  0  0  0  0  0
   25.9886  -18.5871  -17.1366 C   0  0  2  0  0  0  0  0  0  0  0  0
   24.8845  -18.9921  -17.9801 N   0  0  0  0  0  0  0  0  0  0  0  0
   26.3496  -19.6061  -16.1236 C   0  0  0  0  0  0  0  0  0  0  0  0
   25.3899  -20.2144  -15.5837 O   0  0  0  0  0  0  0  0  0  0  0  0
   29.3560  -21.2917  -14.5980 C   0  0  0  0  0  0  0  0  0  0  0  0
   27.9627  -20.7355  -14.6091 C   0  0  2  0  0  0  0  0  0  0  0  0
   27.6656  -19.9166  -15.7458 N   0  0  0  0  0  0  0  0  0  0  0  0
   27.5301  -20.1529  -13.3310 C   0  0  0  0  0  0  0  0  0  0  0  0
   27.8400  -18.9587  -13.0876 O   0  0  0  0  0  0  0  0  0  0  0  0
   26.7928  -20.9046  -12.4036 N   0  0  0  0  0  0  0  0  0  0  0  0
   26.3322  -20.3993  -11.1299 C   0  0  1  0  0  0  0  0  0  0  0  0
   25.3092  -19.3356  -11.1903 C   0  0  0  0  0  0  0  0  0  0  0  0
   24.0349  -19.7003  -11.8360 C   0  0  0  0  0  0  0  0  0  0  0  0
   22.9292  -20.0369  -11.0794 C   0  0  0  0  0  0  0  0  0  0  0  0
   21.7043  -20.3584  -11.6306 C   0  0  0  0  0  0  0  0  0  0  0  0
   21.5704  -20.3436  -12.9912 C   0  0  0  0  0  0  0  0  0  0  0  0
   22.6465  -20.0119  -13.7748 C   0  0  0  0  0  0  0  0  0  0  0  0
   23.8820  -19.6885  -13.2043 C   0  0  0  0  0  0  0  0  0  0  0  0
   25.8263  -21.5716  -10.3012 C   0  0  0  0  0  0  0  0  0  0  0  0
   25.4264  -21.4027   -9.1353 O   0  0  0  0  0  0  0  0  0  0  0  0
   25.8277  -22.8109  -10.8704 O   0  0  0  0  0  0  0  0  0  0  0  0
  2  1  1  6
  2  3  1  0
  4  6  1  0
  4  2  1  0
  4  5  1  1
  6 10  1  0
  7  6  2  0
  9  8  1  1
  9 11  1  0
 10  9  1  0
 11 12  2  0
 11 13  1  0
 13 14  1  0
 14 15  1  6
 14 22  1  0
 16 15  1  0
 16 21  2  0
 17 16  1  0
 18 17  2  0
 18 19  1  0
 19 20  2  0
 20 21  1  0
 22 24  1  0
 23 22  2  0
M  END
$$$$
