TAF.pdb
     RDKit          3D

 24 24  0  0  1  0  0  0  0  0999 V2000
   20.9283  -13.0963  -20.1748 C   0  0  0  0  0  0  0  0  0  0  0  0
   20.9205  -11.7938  -19.3939 C   0  0  1  0  0  0  0  0  0  0  0  0
   21.2467  -10.7771  -20.2306 O   0  0  0  0  0  0  0  0  0  0  0  0
   19.6016  -11.7197  -18.6947 C   0  0  2  0  0  0  0  0  0  0  0  0
   18.5032  -11.8083  -19.6329 N   0  0  0  0  0  0  0  0  0  0  0  0
   19.4607  -10.5958  -17.7399 C   0  0  0  0  0  0  0  0  0  0  0  0
   19.3169   -9.4534  -18.2468 O   0  0  0  0  0  0  0  0  0  0  0  0
   18.8632   -9.8814  -14.1169 C   0  0  0  0  0  0  0  0  0  0  0  0
   19.4708   -9.6071  -15.4609 C   0  0  2  0  0  0  0  0  0  0  0  0
   19.4806  -10.7352  -16.3430 N   0  0  0  0  0  0  0  0  0  0  0  0
   20.7480   -8.8813  -15.4144 C   0  0  0  0  0  0  0  0  0  0  0  0
   21.7591   -9.4253  -15.9272 O   0  0  0  0  0  0  0  0  0  0  0  0
   20.8423   -7.6167  -14.8140 N   0  0  0  0  0  0  0  0  0  0  0  0
   22.0128   -6.7706  -14.8795 C   0  0  1  0  0  0  0  0  0  0  0  0
   22.2491   -6.0966  -16.1724 C   0  0  0  0  0  0  0  0  0  0  0  0
   23.3684   -5.1375  -16.2063 C   0  0  0  0  0  0  0  0  0  0  0  0
   23.1493   -3.7873  -16.0131 C   0  0  0  0  0  0  0  0  0  0  0  0
   24.1633   -2.8495  -16.0061 C   0  0  0  0  0  0  0  0  0  0  0  0
   25.4501   -3.2699  -16.1973 C   0  0  0  0  0  0  0  0  0  0  0  0
   25.7061   -4.6037  -16.3902 C   0  0  0  0  0  0  0  0  0  0  0  0
   24.6703   -5.5438  -16.3954 C   0  0  0  0  0  0  0  0  0  0  0  0
   21.9295   -5.7456  -13.7574 C   0  0  0  0  0  0  0  0  0  0  0  0
   20.8313   -5.2928  -13.3877 O   0  0  0  0  0  0  0  0  0  0  0  0
   23.0910   -5.3349  -13.1726 O   0  0  0  0  0  0  0  0  0  0  0  0
  2  1  1  6
  2  3  1  0
  4  6  1  0
  4  2  1  0
  4  5  1  6
  6 10  1  0
  7  6  2  0
  9  8  1  1
  9 11  1  0
 10  9  1  0
 11 12  2  0
 11 13  1  0
 13 14  1  0
 14 15  1  6
 14 22  1  0
 16 15  1  0
 16 21  2  0
 17 16  1  0
 18 17  2  0
 18 19  1  0
 19 20  2  0
 20 21  1  0
 22 24  1  0
 23 22  2  0
M  END
$$$$
