TAF.pdb
     RDKit          3D

 24 24  0  0  1  0  0  0  0  0999 V2000
   18.0212  -12.8133  -14.7443 C   0  0  0  0  0  0  0  0  0  0  0  0
   17.9949  -13.2010  -16.2124 C   0  0  1  0  0  0  0  0  0  0  0  0
   18.2312  -14.5325  -16.3202 O   0  0  0  0  0  0  0  0  0  0  0  0
   16.7119  -12.6775  -16.7723 C   0  0  2  0  0  0  0  0  0  0  0  0
   16.4909  -13.1582  -18.1194 N   0  0  0  0  0  0  0  0  0  0  0  0
   16.5205  -11.2145  -16.6390 C   0  0  0  0  0  0  0  0  0  0  0  0
   17.3723  -10.4899  -17.2154 O   0  0  0  0  0  0  0  0  0  0  0  0
   14.0742   -8.7284  -15.1787 C   0  0  0  0  0  0  0  0  0  0  0  0
   15.3843   -9.1965  -15.7399 C   0  0  2  0  0  0  0  0  0  0  0  0
   15.4723  -10.6141  -15.9237 N   0  0  0  0  0  0  0  0  0  0  0  0
   16.5671   -8.6091  -15.0950 C   0  0  0  0  0  0  0  0  0  0  0  0
   17.0850   -9.2262  -14.1295 O   0  0  0  0  0  0  0  0  0  0  0  0
   17.1065   -7.3924  -15.5393 N   0  0  0  0  0  0  0  0  0  0  0  0
   18.1952   -6.6993  -14.8878 C   0  0  1  0  0  0  0  0  0  0  0  0
   19.4910   -6.7245  -15.5962 C   0  0  0  0  0  0  0  0  0  0  0  0
   20.5422   -5.8455  -15.0523 C   0  0  0  0  0  0  0  0  0  0  0  0
   21.4083   -6.2985  -14.0761 C   0  0  0  0  0  0  0  0  0  0  0  0
   22.4281   -5.5281  -13.5523 C   0  0  0  0  0  0  0  0  0  0  0  0
   22.5966   -4.2539  -14.0186 C   0  0  0  0  0  0  0  0  0  0  0  0
   21.7567   -3.7706  -14.9896 C   0  0  0  0  0  0  0  0  0  0  0  0
   20.7273   -4.5608  -15.5118 C   0  0  0  0  0  0  0  0  0  0  0  0
   17.7642   -5.2630  -14.6269 C   0  0  0  0  0  0  0  0  0  0  0  0
   18.1821   -4.6425  -13.6329 O   0  0  0  0  0  0  0  0  0  0  0  0
   16.9050   -4.6779  -15.5097 O   0  0  0  0  0  0  0  0  0  0  0  0
  2  1  1  1
  2  3  1  0
  4  6  1  0
  4  2  1  0
  4  5  1  6
  6 10  1  0
  7  6  2  0
  9  8  1  1
  9 11  1  0
 10  9  1  0
 11 12  2  0
 11 13  1  0
 13 14  1  0
 14 15  1  6
 14 22  1  0
 16 15  1  0
 16 21  2  0
 17 16  1  0
 18 17  2  0
 18 19  1  0
 19 20  2  0
 20 21  1  0
 22 24  1  0
 23 22  2  0
M  END
$$$$
