TAF.pdb
     RDKit          3D

 24 24  0  0  1  0  0  0  0  0999 V2000
   22.9310  -12.4600  -22.0020 C   0  0  0  0  0  0  0  0  0  0  0  0
   22.7969  -11.6279  -20.7387 C   0  0  1  0  0  0  0  0  0  0  0  0
   22.5539  -12.4546  -19.6909 O   0  0  0  0  0  0  0  0  0  0  0  0
   24.0090  -10.7565  -20.6671 C   0  0  2  0  0  0  0  0  0  0  0  0
   25.2244  -11.5402  -20.7246 N   0  0  0  0  0  0  0  0  0  0  0  0
   24.0066   -9.7688  -19.5629 C   0  0  0  0  0  0  0  0  0  0  0  0
   24.3183  -10.2085  -18.4262 O   0  0  0  0  0  0  0  0  0  0  0  0
   23.5121   -6.0714  -18.9649 C   0  0  0  0  0  0  0  0  0  0  0  0
   23.5554   -7.5251  -18.5967 C   0  0  2  0  0  0  0  0  0  0  0  0
   23.6829   -8.4112  -19.7146 N   0  0  0  0  0  0  0  0  0  0  0  0
   22.5298   -7.9381  -17.6284 C   0  0  0  0  0  0  0  0  0  0  0  0
   21.5014   -8.5166  -18.0631 O   0  0  0  0  0  0  0  0  0  0  0  0
   22.6881   -7.6945  -16.2557 N   0  0  0  0  0  0  0  0  0  0  0  0
   21.7467   -8.1134  -15.2416 C   0  0  1  0  0  0  0  0  0  0  0  0
   22.2925   -8.9725  -14.1712 C   0  0  0  0  0  0  0  0  0  0  0  0
   22.7610  -10.3066  -14.5887 C   0  0  0  0  0  0  0  0  0  0  0  0
   24.1052  -10.6243  -14.5636 C   0  0  0  0  0  0  0  0  0  0  0  0
   24.5960  -11.8663  -14.9161 C   0  0  0  0  0  0  0  0  0  0  0  0
   23.7148  -12.8351  -15.3088 C   0  0  0  0  0  0  0  0  0  0  0  0
   22.3721  -12.5564  -15.3439 C   0  0  0  0  0  0  0  0  0  0  0  0
   21.8875  -11.2944  -14.9847 C   0  0  0  0  0  0  0  0  0  0  0  0
   21.0990   -6.8725  -14.6437 C   0  0  0  0  0  0  0  0  0  0  0  0
   21.5498   -5.7386  -14.8857 O   0  0  0  0  0  0  0  0  0  0  0  0
   20.0150   -7.0388  -13.8331 O   0  0  0  0  0  0  0  0  0  0  0  0
  2  1  1  6
  2  3  1  0
  4  6  1  0
  4  2  1  0
  4  5  1  1
  6 10  1  0
  7  6  2  0
  9  8  1  6
  9 11  1  0
 10  9  1  0
 11 12  2  0
 11 13  1  0
 13 14  1  0
 14 15  1  1
 14 22  1  0
 16 15  1  0
 16 21  2  0
 17 16  1  0
 18 17  2  0
 18 19  1  0
 19 20  2  0
 20 21  1  0
 22 24  1  0
 23 22  2  0
M  END
$$$$
