TAF.pdb
     RDKit          3D

 24 24  0  0  1  0  0  0  0  0999 V2000
   27.8867  -21.2688  -14.4694 C   0  0  0  0  0  0  0  0  0  0  0  0
   27.9321  -20.1699  -15.5165 C   0  0  1  0  0  0  0  0  0  0  0  0
   29.2132  -19.7459  -15.6543 O   0  0  0  0  0  0  0  0  0  0  0  0
   27.2449  -20.7049  -16.7312 C   0  0  2  0  0  0  0  0  0  0  0  0
   27.3794  -19.8004  -17.8529 N   0  0  0  0  0  0  0  0  0  0  0  0
   25.8512  -21.1581  -16.5144 C   0  0  0  0  0  0  0  0  0  0  0  0
   24.9645  -20.2674  -16.5698 O   0  0  0  0  0  0  0  0  0  0  0  0
   23.7899  -24.2725  -16.3964 C   0  0  0  0  0  0  0  0  0  0  0  0
   24.1257  -22.8674  -15.9923 C   0  0  2  0  0  0  0  0  0  0  0  0
   25.4811  -22.4876  -16.2565 N   0  0  0  0  0  0  0  0  0  0  0  0
   23.6567  -22.4916  -14.6510 C   0  0  0  0  0  0  0  0  0  0  0  0
   24.2645  -22.9625  -13.6559 O   0  0  0  0  0  0  0  0  0  0  0  0
   22.5605  -21.6328  -14.4800 N   0  0  0  0  0  0  0  0  0  0  0  0
   22.0978  -21.1501  -13.1982 C   0  0  1  0  0  0  0  0  0  0  0  0
   22.8314  -19.9953  -12.6414 C   0  0  0  0  0  0  0  0  0  0  0  0
   23.9834  -20.3161  -11.7790 C   0  0  0  0  0  0  0  0  0  0  0  0
   25.2481  -20.4652  -12.3143 C   0  0  0  0  0  0  0  0  0  0  0  0
   26.3662  -20.7370  -11.5502 C   0  0  0  0  0  0  0  0  0  0  0  0
   26.2232  -20.8648  -10.1965 C   0  0  0  0  0  0  0  0  0  0  0  0
   24.9824  -20.7210   -9.6292 C   0  0  0  0  0  0  0  0  0  0  0  0
   23.8577  -20.4461  -10.4141 C   0  0  0  0  0  0  0  0  0  0  0  0
   20.6145  -20.8280  -13.3117 C   0  0  0  0  0  0  0  0  0  0  0  0
   19.9318  -20.6014  -12.2967 O   0  0  0  0  0  0  0  0  0  0  0  0
   20.0549  -20.7991  -14.5551 O   0  0  0  0  0  0  0  0  0  0  0  0
  2  1  1  1
  2  3  1  0
  4  6  1  0
  4  2  1  0
  4  5  1  6
  6 10  1  0
  7  6  2  0
  9  8  1  1
  9 11  1  0
 10  9  1  0
 11 12  2  0
 11 13  1  0
 13 14  1  0
 14 15  1  6
 14 22  1  0
 16 15  1  0
 16 21  2  0
 17 16  1  0
 18 17  2  0
 18 19  1  0
 19 20  2  0
 20 21  1  0
 22 24  1  0
 23 22  2  0
M  END
$$$$
