GKV.pdb
     RDKit          3D

 21 20  0  0  1  0  0  0  0  0999 V2000
    7.2503  -13.6656   19.3362 N   0  0  0  0  0  0  0  0  0  0  0  0
    7.8555  -14.7983   19.9615 C   0  0  0  0  0  0  0  0  0  0  0  0
    7.4328  -14.9289   21.3779 C   0  0  0  0  0  0  0  0  0  0  0  0
    6.8400  -13.9635   21.9272 O   0  0  0  0  0  0  0  0  0  0  0  0
    7.6477  -16.0709   22.1700 N   0  0  0  0  0  0  0  0  0  0  0  0
    7.2164  -16.1539   23.5226 C   0  0  1  0  0  0  0  0  0  0  0  0
    7.1176  -17.5609   24.0562 C   0  0  0  0  0  0  0  0  0  0  0  0
    6.2379  -18.4436   23.2213 C   0  0  0  0  0  0  0  0  0  0  0  0
    6.2063  -19.8685   23.7267 C   0  0  0  0  0  0  0  0  0  0  0  0
    5.2744  -20.7072   22.8804 C   0  0  0  0  0  0  0  0  0  0  0  0
    5.8857  -21.0192   21.5900 N   0  0  0  0  0  0  0  0  0  0  0  0
    8.0019  -15.2756   24.4399 C   0  0  0  0  0  0  0  0  0  0  0  0
    9.2518  -15.3043   24.3174 O   0  0  0  0  0  0  0  0  0  0  0  0
    6.2129  -12.5426   27.3794 C   0  0  0  0  0  0  0  0  0  0  0  0
    7.5035  -12.3119   26.6637 C   0  0  2  0  0  0  0  0  0  0  0  0
    7.3520  -11.4526   25.4296 C   0  0  0  0  0  0  0  0  0  0  0  0
    8.2184  -13.5935   26.3069 C   0  0  2  0  0  0  0  0  0  0  0  0
    7.4526  -14.4300   25.4176 N   0  0  0  0  0  0  0  0  0  0  0  0
    8.4982  -14.3397   27.5631 C   0  0  0  0  0  0  0  0  0  0  0  0
    7.9417  -15.4457   27.7967 O   0  0  0  0  0  0  0  0  0  0  0  0
    9.3743  -13.8680   28.5345 O   0  0  0  0  0  0  0  0  0  0  0  0
  2  1  1  0
  3  2  1  0
  4  3  2  0
  5  3  1  0
  6  5  1  0
  6 12  1  0
  6  7  1  1
  8  7  1  0
  9  8  1  0
  9 10  1  0
 10 11  1  0
 12 13  2  0
 15 14  1  6
 16 15  1  0
 17 15  1  0
 18 12  1  0
 17 18  1  6
 19 21  1  0
 19 17  1  0
 20 19  2  0
M  END
$$$$
