GKV.pdb
     RDKit          3D

 21 20  0  0  1  0  0  0  0  0999 V2000
    7.8873  -12.1754   19.0882 N   0  0  0  0  0  0  0  0  0  0  0  0
    8.6246  -13.3151   19.5326 C   0  0  0  0  0  0  0  0  0  0  0  0
    8.0179  -13.9172   20.7455 C   0  0  0  0  0  0  0  0  0  0  0  0
    7.1543  -13.2600   21.3839 O   0  0  0  0  0  0  0  0  0  0  0  0
    8.3396  -15.1909   21.2473 N   0  0  0  0  0  0  0  0  0  0  0  0
    7.7737  -15.7042   22.4467 C   0  0  1  0  0  0  0  0  0  0  0  0
    7.7960  -17.2086   22.5482 C   0  0  0  0  0  0  0  0  0  0  0  0
    7.2241  -17.7172   23.8383 C   0  0  0  0  0  0  0  0  0  0  0  0
    7.2159  -19.2278   23.9087 C   0  0  0  0  0  0  0  0  0  0  0  0
    6.4501  -19.6944   25.1268 C   0  0  0  0  0  0  0  0  0  0  0  0
    6.2951  -21.1476   25.1163 N   0  0  0  0  0  0  0  0  0  0  0  0
    8.3332  -15.0655   23.6752 C   0  0  0  0  0  0  0  0  0  0  0  0
    9.5850  -15.0298   23.7737 O   0  0  0  0  0  0  0  0  0  0  0  0
    5.8852  -13.3942   26.9141 C   0  0  0  0  0  0  0  0  0  0  0  0
    7.1945  -12.8287   26.4701 C   0  0  2  0  0  0  0  0  0  0  0  0
    7.0457  -11.6779   25.5015 C   0  0  0  0  0  0  0  0  0  0  0  0
    8.1197  -13.8694   25.8856 C   0  0  2  0  0  0  0  0  0  0  0  0
    7.5718  -14.5085   24.7157 N   0  0  0  0  0  0  0  0  0  0  0  0
    8.3862  -14.8978   26.9270 C   0  0  0  0  0  0  0  0  0  0  0  0
    7.9009  -16.0567   26.8315 O   0  0  0  0  0  0  0  0  0  0  0  0
    9.1720  -14.6440   28.0457 O   0  0  0  0  0  0  0  0  0  0  0  0
  2  1  1  0
  3  2  1  0
  4  3  2  0
  5  3  1  0
  6  5  1  0
  6 12  1  0
  6  7  1  1
  8  7  1  0
  9  8  1  0
  9 10  1  0
 10 11  1  0
 12 13  2  0
 15 14  1  6
 16 15  1  0
 17 15  1  0
 18 12  1  0
 17 18  1  6
 19 21  1  0
 19 17  1  0
 20 19  2  0
M  END
$$$$
