GKV.pdb
     RDKit          3D

 21 20  0  0  1  0  0  0  0  0999 V2000
    7.3400  -12.6087   19.0330 N   0  0  0  0  0  0  0  0  0  0  0  0
    8.2856  -13.5098   19.6108 C   0  0  0  0  0  0  0  0  0  0  0  0
    7.8009  -14.0523   20.9042 C   0  0  0  0  0  0  0  0  0  0  0  0
    6.9515  -13.3938   21.5599 O   0  0  0  0  0  0  0  0  0  0  0  0
    8.2258  -15.2698   21.4653 N   0  0  0  0  0  0  0  0  0  0  0  0
    7.7577  -15.7342   22.7253 C   0  0  1  0  0  0  0  0  0  0  0  0
    7.8707  -17.2256   22.9170 C   0  0  0  0  0  0  0  0  0  0  0  0
    7.3926  -17.6809   24.2640 C   0  0  0  0  0  0  0  0  0  0  0  0
    7.4580  -19.1836   24.4205 C   0  0  0  0  0  0  0  0  0  0  0  0
    6.7762  -19.6101   25.7017 C   0  0  0  0  0  0  0  0  0  0  0  0
    6.7300  -21.0673   25.8040 N   0  0  0  0  0  0  0  0  0  0  0  0
    8.3480  -14.9891   23.8771 C   0  0  0  0  0  0  0  0  0  0  0  0
    9.6018  -14.9392   23.9352 O   0  0  0  0  0  0  0  0  0  0  0  0
    5.9636  -12.8736   26.8665 C   0  0  0  0  0  0  0  0  0  0  0  0
    7.3236  -12.4473   26.4193 C   0  0  2  0  0  0  0  0  0  0  0  0
    7.2886  -11.3946   25.3352 C   0  0  0  0  0  0  0  0  0  0  0  0
    8.1899  -13.6032   25.9786 C   0  0  2  0  0  0  0  0  0  0  0  0
    7.6131  -14.3478   24.8877 N   0  0  0  0  0  0  0  0  0  0  0  0
    8.3885  -14.5102   27.1409 C   0  0  0  0  0  0  0  0  0  0  0  0
    7.8715  -15.6590   27.1613 O   0  0  0  0  0  0  0  0  0  0  0  0
    9.1425  -14.1488   28.2519 O   0  0  0  0  0  0  0  0  0  0  0  0
  2  1  1  0
  3  2  1  0
  4  3  2  0
  5  3  1  0
  6  5  1  0
  6 12  1  0
  6  7  1  1
  8  7  1  0
  9  8  1  0
  9 10  1  0
 10 11  1  0
 12 13  2  0
 15 14  1  6
 16 15  1  0
 17 15  1  0
 18 12  1  0
 17 18  1  6
 19 21  1  0
 19 17  1  0
 20 19  2  0
M  END
$$$$
