GKV.pdb
     RDKit          3D

 21 20  0  0  1  0  0  0  0  0999 V2000
    7.7304  -12.5727   18.9113 N   0  0  0  0  0  0  0  0  0  0  0  0
    8.4660  -13.6299   19.5286 C   0  0  0  0  0  0  0  0  0  0  0  0
    7.9189  -13.9652   20.8665 C   0  0  0  0  0  0  0  0  0  0  0  0
    7.3474  -13.0631   21.5334 O   0  0  0  0  0  0  0  0  0  0  0  0
    7.9908  -15.2385   21.4591 N   0  0  0  0  0  0  0  0  0  0  0  0
    7.4005  -15.5282   22.7200 C   0  0  1  0  0  0  0  0  0  0  0  0
    7.1691  -16.9967   22.9732 C   0  0  0  0  0  0  0  0  0  0  0  0
    5.7805  -17.4403   22.6194 C   0  0  0  0  0  0  0  0  0  0  0  0
    5.7731  -18.5188   21.5594 C   0  0  0  0  0  0  0  0  0  0  0  0
    4.3580  -18.8029   21.1067 C   0  0  0  0  0  0  0  0  0  0  0  0
    4.3373  -19.8720   20.1103 N   0  0  0  0  0  0  0  0  0  0  0  0
    8.1166  -14.8834   23.8608 C   0  0  0  0  0  0  0  0  0  0  0  0
    9.3721  -14.9036   23.8243 O   0  0  0  0  0  0  0  0  0  0  0  0
    6.1137  -12.8334   27.1848 C   0  0  0  0  0  0  0  0  0  0  0  0
    7.4707  -12.4919   26.6620 C   0  0  2  0  0  0  0  0  0  0  0  0
    7.4526  -11.3620   25.6582 C   0  0  0  0  0  0  0  0  0  0  0  0
    8.1947  -13.6811   26.0768 C   0  0  2  0  0  0  0  0  0  0  0  0
    7.4969  -14.2635   24.9583 N   0  0  0  0  0  0  0  0  0  0  0  0
    8.3527  -14.7055   27.1439 C   0  0  0  0  0  0  0  0  0  0  0  0
    7.7542  -15.8120   27.0727 O   0  0  0  0  0  0  0  0  0  0  0  0
    9.1556  -14.5046   28.2612 O   0  0  0  0  0  0  0  0  0  0  0  0
  2  1  1  0
  3  2  1  0
  4  3  2  0
  5  3  1  0
  6  5  1  0
  6 12  1  0
  6  7  1  1
  8  7  1  0
  9  8  1  0
  9 10  1  0
 10 11  1  0
 12 13  2  0
 15 14  1  6
 16 15  1  0
 17 15  1  0
 18 12  1  0
 17 18  1  6
 19 21  1  0
 19 17  1  0
 20 19  2  0
M  END
$$$$
