GKV.pdb
     RDKit          3D

 21 20  0  0  1  0  0  0  0  0999 V2000
    6.1870  -19.9566   24.1690 N   0  0  0  0  0  0  0  0  0  0  0  0
    5.6474  -18.6355   24.1088 C   0  0  0  0  0  0  0  0  0  0  0  0
    6.6220  -17.6748   23.5351 C   0  0  0  0  0  0  0  0  0  0  0  0
    7.8462  -17.9684   23.5497 O   0  0  0  0  0  0  0  0  0  0  0  0
    6.2767  -16.4365   22.9649 N   0  0  0  0  0  0  0  0  0  0  0  0
    7.2522  -15.4895   22.5480 C   0  0  1  0  0  0  0  0  0  0  0  0
    6.7248  -14.4241   21.6201 C   0  0  0  0  0  0  0  0  0  0  0  0
    7.8109  -13.5876   21.0113 C   0  0  0  0  0  0  0  0  0  0  0  0
    7.7233  -13.5396   19.5024 C   0  0  0  0  0  0  0  0  0  0  0  0
    8.8516  -12.7068   18.9353 C   0  0  0  0  0  0  0  0  0  0  0  0
    8.7827  -12.6658   17.4760 N   0  0  0  0  0  0  0  0  0  0  0  0
    8.0113  -14.8942   23.6879 C   0  0  0  0  0  0  0  0  0  0  0  0
    9.1458  -14.4223   23.4267 O   0  0  0  0  0  0  0  0  0  0  0  0
    5.9913  -13.5233   26.7725 C   0  0  0  0  0  0  0  0  0  0  0  0
    7.4597  -13.3190   26.9555 C   0  0  2  0  0  0  0  0  0  0  0  0
    7.8936  -11.8903   26.7206 C   0  0  0  0  0  0  0  0  0  0  0  0
    8.2956  -14.2502   26.1100 C   0  0  2  0  0  0  0  0  0  0  0  0
    7.5554  -14.8241   25.0145 N   0  0  0  0  0  0  0  0  0  0  0  0
    8.8078  -15.3419   26.9813 C   0  0  0  0  0  0  0  0  0  0  0  0
    8.5090  -16.5448   26.7551 O   0  0  0  0  0  0  0  0  0  0  0  0
    9.6311  -15.1018   28.0759 O   0  0  0  0  0  0  0  0  0  0  0  0
  2  1  1  0
  3  2  1  0
  4  3  2  0
  5  3  1  0
  6  5  1  0
  6 12  1  0
  6  7  1  1
  8  7  1  0
  9  8  1  0
  9 10  1  0
 10 11  1  0
 12 13  2  0
 15 14  1  6
 16 15  1  0
 17 15  1  0
 18 12  1  0
 17 18  1  6
 19 21  1  0
 19 17  1  0
 20 19  2  0
M  END
$$$$
