GKV.pdb
     RDKit          3D

 21 20  0  0  1  0  0  0  0  0999 V2000
    8.3254  -19.9844   22.0233 N   0  0  0  0  0  0  0  0  0  0  0  0
    7.3651  -18.9557   22.2677 C   0  0  0  0  0  0  0  0  0  0  0  0
    8.0094  -17.6231   22.3726 C   0  0  0  0  0  0  0  0  0  0  0  0
    9.2392  -17.5611   22.6349 O   0  0  0  0  0  0  0  0  0  0  0  0
    7.3387  -16.3994   22.1982 N   0  0  0  0  0  0  0  0  0  0  0  0
    7.9530  -15.1464   22.4718 C   0  0  1  0  0  0  0  0  0  0  0  0
    7.6010  -14.0563   21.4911 C   0  0  0  0  0  0  0  0  0  0  0  0
    7.9046  -14.4268   20.0696 C   0  0  0  0  0  0  0  0  0  0  0  0
    7.8927  -13.2286   19.1471 C   0  0  0  0  0  0  0  0  0  0  0  0
    8.1783  -13.6560   17.7245 C   0  0  0  0  0  0  0  0  0  0  0  0
    8.2735  -12.4939   16.8433 N   0  0  0  0  0  0  0  0  0  0  0  0
    7.7568  -14.6966   23.8822 C   0  0  0  0  0  0  0  0  0  0  0  0
    6.6419  -14.9448   24.4049 O   0  0  0  0  0  0  0  0  0  0  0  0
    6.9513  -11.8213   25.1813 C   0  0  0  0  0  0  0  0  0  0  0  0
    7.2036  -12.8703   26.2143 C   0  0  2  0  0  0  0  0  0  0  0  0
    7.1186  -12.3431   27.6282 C   0  0  0  0  0  0  0  0  0  0  0  0
    8.5169  -13.5896   26.0173 C   0  0  2  0  0  0  0  0  0  0  0  0
    8.7158  -14.0247   24.6578 N   0  0  0  0  0  0  0  0  0  0  0  0
    8.5438  -14.7719   26.9198 C   0  0  0  0  0  0  0  0  0  0  0  0
    7.8939  -15.8146   26.6403 O   0  0  0  0  0  0  0  0  0  0  0  0
    9.2747  -14.7941   28.1026 O   0  0  0  0  0  0  0  0  0  0  0  0
  2  1  1  0
  3  2  1  0
  4  3  2  0
  5  3  1  0
  6  5  1  0
  6 12  1  0
  6  7  1  6
  8  7  1  0
  9  8  1  0
  9 10  1  0
 10 11  1  0
 12 13  2  0
 15 14  1  6
 16 15  1  0
 17 15  1  0
 18 12  1  0
 17 18  1  6
 19 21  1  0
 19 17  1  0
 20 19  2  0
M  END
$$$$
