GKV.pdb
     RDKit          3D

 21 20  0  0  1  0  0  0  0  0999 V2000
    4.1300  -18.9363   21.1599 N   0  0  0  0  0  0  0  0  0  0  0  0
    4.2674  -17.8300   22.0527 C   0  0  0  0  0  0  0  0  0  0  0  0
    5.6049  -17.1982   21.9352 C   0  0  0  0  0  0  0  0  0  0  0  0
    6.6295  -17.9273   21.9962 O   0  0  0  0  0  0  0  0  0  0  0  0
    5.8207  -15.8199   21.7573 N   0  0  0  0  0  0  0  0  0  0  0  0
    7.1195  -15.2413   21.7810 C   0  0  1  0  0  0  0  0  0  0  0  0
    7.1908  -13.8543   21.1936 C   0  0  0  0  0  0  0  0  0  0  0  0
    6.8256  -13.8146   19.7392 C   0  0  0  0  0  0  0  0  0  0  0  0
    8.0067  -13.4747   18.8580 C   0  0  0  0  0  0  0  0  0  0  0  0
    7.6073  -13.5230   17.3999 C   0  0  0  0  0  0  0  0  0  0  0  0
    8.7587  -13.2622   16.5382 N   0  0  0  0  0  0  0  0  0  0  0  0
    7.7579  -15.2968   23.1298 C   0  0  0  0  0  0  0  0  0  0  0  0
    7.2276  -14.6060   24.0352 O   0  0  0  0  0  0  0  0  0  0  0  0
    7.5702  -17.3373   25.7751 C   0  0  0  0  0  0  0  0  0  0  0  0
    9.0495  -17.2970   25.5722 C   0  0  2  0  0  0  0  0  0  0  0  0
    9.8276  -17.3584   26.8666 C   0  0  0  0  0  0  0  0  0  0  0  0
    9.5025  -16.1057   24.7621 C   0  0  2  0  0  0  0  0  0  0  0  0
    8.8939  -16.0554   23.4566 N   0  0  0  0  0  0  0  0  0  0  0  0
   10.9809  -16.1757   24.6118 C   0  0  0  0  0  0  0  0  0  0  0  0
   11.7394  -16.0574   25.6109 O   0  0  0  0  0  0  0  0  0  0  0  0
   11.5997  -16.3720   23.3822 O   0  0  0  0  0  0  0  0  0  0  0  0
  2  1  1  0
  3  2  1  0
  4  3  2  0
  5  3  1  0
  6  5  1  0
  6 12  1  0
  6  7  1  1
  8  7  1  0
  9  8  1  0
  9 10  1  0
 10 11  1  0
 12 13  2  0
 15 14  1  1
 16 15  1  0
 17 15  1  0
 18 12  1  0
 17 18  1  6
 19 21  1  0
 19 17  1  0
 20 19  2  0
M  END
$$$$
