GKV.pdb
     RDKit          3D

 21 20  0  0  1  0  0  0  0  0999 V2000
    7.9669  -16.5400   19.1475 N   0  0  0  0  0  0  0  0  0  0  0  0
    8.8026  -16.8154   20.2726 C   0  0  0  0  0  0  0  0  0  0  0  0
    8.0827  -16.5983   21.5519 C   0  0  0  0  0  0  0  0  0  0  0  0
    7.2449  -15.6615   21.6269 O   0  0  0  0  0  0  0  0  0  0  0  0
    8.2678  -17.3739   22.7103 N   0  0  0  0  0  0  0  0  0  0  0  0
    7.5733  -17.1120   23.9233 C   0  0  1  0  0  0  0  0  0  0  0  0
    7.4782  -18.2970   24.8511 C   0  0  0  0  0  0  0  0  0  0  0  0
    6.7348  -19.4531   24.2504 C   0  0  0  0  0  0  0  0  0  0  0  0
    6.7876  -20.6873   25.1226 C   0  0  0  0  0  0  0  0  0  0  0  0
    6.0534  -21.8322   24.4606 C   0  0  0  0  0  0  0  0  0  0  0  0
    6.1913  -23.0584   25.2438 N   0  0  0  0  0  0  0  0  0  0  0  0
    8.0790  -15.9003   24.6347 C   0  0  0  0  0  0  0  0  0  0  0  0
    9.3223  -15.7212   24.6325 O   0  0  0  0  0  0  0  0  0  0  0  0
    6.1629  -12.2182   24.9280 C   0  0  0  0  0  0  0  0  0  0  0  0
    6.7188  -12.7446   26.2106 C   0  0  2  0  0  0  0  0  0  0  0  0
    7.2566  -11.6587   27.1139 C   0  0  0  0  0  0  0  0  0  0  0  0
    7.7742  -13.8053   26.0058 C   0  0  2  0  0  0  0  0  0  0  0  0
    7.2763  -14.9578   25.2980 N   0  0  0  0  0  0  0  0  0  0  0  0
    8.2783  -14.2288   27.3398 C   0  0  0  0  0  0  0  0  0  0  0  0
    7.8473  -15.2761   27.8921 O   0  0  0  0  0  0  0  0  0  0  0  0
    9.2370  -13.5063   28.0415 O   0  0  0  0  0  0  0  0  0  0  0  0
  2  1  1  0
  3  2  1  0
  4  3  2  0
  5  3  1  0
  6  5  1  0
  6 12  1  0
  6  7  1  1
  8  7  1  0
  9  8  1  0
  9 10  1  0
 10 11  1  0
 12 13  2  0
 15 14  1  6
 16 15  1  0
 17 15  1  0
 18 12  1  0
 17 18  1  1
 19 21  1  0
 19 17  1  0
 20 19  2  0
M  END
$$$$
