GKV.pdb
     RDKit          3D

 21 20  0  0  1  0  0  0  0  0999 V2000
    4.3429  -20.3203   22.2163 N   0  0  0  0  0  0  0  0  0  0  0  0
    4.8155  -19.3769   23.1789 C   0  0  0  0  0  0  0  0  0  0  0  0
    5.8830  -18.5133   22.6165 C   0  0  0  0  0  0  0  0  0  0  0  0
    6.7463  -19.0287   21.8587 O   0  0  0  0  0  0  0  0  0  0  0  0
    6.0075  -17.1355   22.8697 N   0  0  0  0  0  0  0  0  0  0  0  0
    7.1029  -16.3668   22.3886 C   0  0  1  0  0  0  0  0  0  0  0  0
    6.8253  -14.8881   22.2877 C   0  0  0  0  0  0  0  0  0  0  0  0
    7.9695  -14.1161   21.7004 C   0  0  0  0  0  0  0  0  0  0  0  0
    7.7509  -13.7829   20.2416 C   0  0  0  0  0  0  0  0  0  0  0  0
    8.9028  -12.9585   19.7110 C   0  0  0  0  0  0  0  0  0  0  0  0
    8.7763  -12.7590   18.2687 N   0  0  0  0  0  0  0  0  0  0  0  0
    8.3725  -16.6352   23.1275 C   0  0  0  0  0  0  0  0  0  0  0  0
    8.3089  -16.6281   24.3820 O   0  0  0  0  0  0  0  0  0  0  0  0
   12.8647  -18.8074   22.8891 C   0  0  0  0  0  0  0  0  0  0  0  0
   11.7196  -18.1259   22.2141 C   0  0  2  0  0  0  0  0  0  0  0  0
   12.1572  -17.0715   21.2236 C   0  0  0  0  0  0  0  0  0  0  0  0
   10.7298  -17.5306   23.1871 C   0  0  2  0  0  0  0  0  0  0  0  0
    9.6174  -16.8918   22.5300 N   0  0  0  0  0  0  0  0  0  0  0  0
   11.4422  -16.5317   24.0284 C   0  0  0  0  0  0  0  0  0  0  0  0
   11.4147  -15.3054   23.7402 O   0  0  0  0  0  0  0  0  0  0  0  0
   12.1664  -16.8873   25.1609 O   0  0  0  0  0  0  0  0  0  0  0  0
  2  1  1  0
  3  2  1  0
  4  3  2  0
  5  3  1  0
  6  5  1  0
  6 12  1  0
  6  7  1  1
  8  7  1  0
  9  8  1  0
  9 10  1  0
 10 11  1  0
 12 13  2  0
 15 14  1  1
 16 15  1  0
 17 15  1  0
 18 12  1  0
 17 18  1  6
 19 21  1  0
 19 17  1  0
 20 19  2  0
M  END
$$$$
