GKV.pdb
     RDKit          3D

 21 20  0  0  1  0  0  0  0  0999 V2000
    4.0221  -20.3632   22.2689 N   0  0  0  0  0  0  0  0  0  0  0  0
    3.9299  -19.0254   22.7608 C   0  0  0  0  0  0  0  0  0  0  0  0
    5.1854  -18.2705   22.5246 C   0  0  0  0  0  0  0  0  0  0  0  0
    6.2876  -18.8469   22.7199 O   0  0  0  0  0  0  0  0  0  0  0  0
    5.2403  -16.9339   22.0907 N   0  0  0  0  0  0  0  0  0  0  0  0
    6.4690  -16.2533   21.8686 C   0  0  1  0  0  0  0  0  0  0  0  0
    6.3645  -15.0752   20.9332 C   0  0  0  0  0  0  0  0  0  0  0  0
    7.7008  -14.5153   20.5448 C   0  0  0  0  0  0  0  0  0  0  0  0
    7.5865  -13.4145   19.5142 C   0  0  0  0  0  0  0  0  0  0  0  0
    8.9582  -13.0074   19.0237 C   0  0  0  0  0  0  0  0  0  0  0  0
    8.8524  -12.0931   17.8883 N   0  0  0  0  0  0  0  0  0  0  0  0
    7.1684  -15.8846   23.1355 C   0  0  0  0  0  0  0  0  0  0  0  0
    6.6083  -15.0259   23.8613 O   0  0  0  0  0  0  0  0  0  0  0  0
    9.2777  -18.2874   25.7201 C   0  0  0  0  0  0  0  0  0  0  0  0
    8.8608  -16.8701   25.9404 C   0  0  2  0  0  0  0  0  0  0  0  0
    7.4205  -16.7369   26.3791 C   0  0  0  0  0  0  0  0  0  0  0  0
    9.1112  -15.9874   24.7409 C   0  0  2  0  0  0  0  0  0  0  0  0
    8.3917  -16.4210   23.5697 N   0  0  0  0  0  0  0  0  0  0  0  0
   10.5702  -15.9935   24.4506 C   0  0  0  0  0  0  0  0  0  0  0  0
   11.0208  -16.5418   23.4095 O   0  0  0  0  0  0  0  0  0  0  0  0
   11.5040  -15.4050   25.2963 O   0  0  0  0  0  0  0  0  0  0  0  0
  2  1  1  0
  3  2  1  0
  4  3  2  0
  5  3  1  0
  6  5  1  0
  6 12  1  0
  6  7  1  1
  8  7  1  0
  9  8  1  0
  9 10  1  0
 10 11  1  0
 12 13  2  0
 15 14  1  6
 16 15  1  0
 17 15  1  0
 18 12  1  0
 17 18  1  6
 19 21  1  0
 19 17  1  0
 20 19  2  0
M  END
$$$$
