GKV.pdb
     RDKit          3D

 21 20  0  0  1  0  0  0  0  0999 V2000
    7.2974  -12.8980   18.9252 N   0  0  0  0  0  0  0  0  0  0  0  0
    8.2767  -13.6770   19.6138 C   0  0  0  0  0  0  0  0  0  0  0  0
    7.7701  -14.1537   20.9245 C   0  0  0  0  0  0  0  0  0  0  0  0
    6.8919  -13.4761   21.5201 O   0  0  0  0  0  0  0  0  0  0  0  0
    8.2040  -15.3277   21.5658 N   0  0  0  0  0  0  0  0  0  0  0  0
    7.7153  -15.7266   22.8403 C   0  0  1  0  0  0  0  0  0  0  0  0
    7.8559  -17.2010   23.1241 C   0  0  0  0  0  0  0  0  0  0  0  0
    7.3790  -17.5817   24.4944 C   0  0  0  0  0  0  0  0  0  0  0  0
    7.5997  -19.0474   24.7942 C   0  0  0  0  0  0  0  0  0  0  0  0
    7.0365  -19.3977   26.1537 C   0  0  0  0  0  0  0  0  0  0  0  0
    7.2323  -20.8163   26.4460 N   0  0  0  0  0  0  0  0  0  0  0  0
    8.2606  -14.9006   23.9584 C   0  0  0  0  0  0  0  0  0  0  0  0
    9.5087  -14.7661   24.0054 O   0  0  0  0  0  0  0  0  0  0  0  0
    5.7791  -13.0291   27.0444 C   0  0  0  0  0  0  0  0  0  0  0  0
    7.0479  -12.4364   26.5248 C   0  0  2  0  0  0  0  0  0  0  0  0
    6.8208  -11.3946   25.4535 C   0  0  0  0  0  0  0  0  0  0  0  0
    8.0242  -13.4750   26.0258 C   0  0  2  0  0  0  0  0  0  0  0  0
    7.4899  -14.2706   24.9492 N   0  0  0  0  0  0  0  0  0  0  0  0
    8.3833  -14.3653   27.1623 C   0  0  0  0  0  0  0  0  0  0  0  0
    8.9865  -13.9142   28.1724 O   0  0  0  0  0  0  0  0  0  0  0  0
    8.0794  -15.7221   27.1752 O   0  0  0  0  0  0  0  0  0  0  0  0
  2  1  1  0
  3  2  1  0
  4  3  2  0
  5  3  1  0
  6  5  1  0
  6 12  1  0
  6  7  1  1
  8  7  1  0
  9  8  1  0
  9 10  1  0
 10 11  1  0
 12 13  2  0
 15 14  1  6
 16 15  1  0
 17 15  1  0
 18 12  1  0
 17 18  1  6
 19 21  1  0
 19 17  1  0
 20 19  2  0
M  END
$$$$
