GKV.pdb
     RDKit          3D

 21 20  0  0  1  0  0  0  0  0999 V2000
    7.0530  -16.4613   19.3030 N   0  0  0  0  0  0  0  0  0  0  0  0
    8.0338  -16.6899   20.3158 C   0  0  0  0  0  0  0  0  0  0  0  0
    7.4904  -16.4224   21.6704 C   0  0  0  0  0  0  0  0  0  0  0  0
    6.6899  -15.4631   21.8261 O   0  0  0  0  0  0  0  0  0  0  0  0
    7.8069  -17.1728   22.8169 N   0  0  0  0  0  0  0  0  0  0  0  0
    7.2884  -16.8573   24.1029 C   0  0  1  0  0  0  0  0  0  0  0  0
    7.2538  -18.0221   25.0600 C   0  0  0  0  0  0  0  0  0  0  0  0
    6.7921  -19.2958   24.4160 C   0  0  0  0  0  0  0  0  0  0  0  0
    6.7555  -20.4527   25.3892 C   0  0  0  0  0  0  0  0  0  0  0  0
    6.1554  -21.6756   24.7316 C   0  0  0  0  0  0  0  0  0  0  0  0
    6.2155  -22.8283   25.6281 N   0  0  0  0  0  0  0  0  0  0  0  0
    7.9420  -15.6639   24.7183 C   0  0  0  0  0  0  0  0  0  0  0  0
    9.1829  -15.5534   24.5579 O   0  0  0  0  0  0  0  0  0  0  0  0
    5.7997  -12.5423   26.9621 C   0  0  0  0  0  0  0  0  0  0  0  0
    6.9963  -12.3128   26.0979 C   0  0  2  0  0  0  0  0  0  0  0  0
    6.6405  -11.8641   24.6992 C   0  0  0  0  0  0  0  0  0  0  0  0
    7.9146  -13.5098   26.0303 C   0  0  2  0  0  0  0  0  0  0  0  0
    7.2791  -14.6681   25.4542 N   0  0  0  0  0  0  0  0  0  0  0  0
    8.3657  -13.8333   27.4106 C   0  0  0  0  0  0  0  0  0  0  0  0
    8.0613  -14.9302   27.9507 O   0  0  0  0  0  0  0  0  0  0  0  0
    9.1354  -12.9595   28.1704 O   0  0  0  0  0  0  0  0  0  0  0  0
  2  1  1  0
  3  2  1  0
  4  3  2  0
  5  3  1  0
  6  5  1  0
  6 12  1  0
  6  7  1  1
  8  7  1  0
  9  8  1  0
  9 10  1  0
 10 11  1  0
 12 13  2  0
 15 14  1  1
 16 15  1  0
 17 15  1  0
 18 12  1  0
 17 18  1  1
 19 21  1  0
 19 17  1  0
 20 19  2  0
M  END
$$$$
