GKV.pdb
     RDKit          3D

 21 20  0  0  1  0  0  0  0  0999 V2000
    7.4932  -24.0947   18.2694 N   0  0  0  0  0  0  0  0  0  0  0  0
    7.7855  -22.7127   18.4805 C   0  0  0  0  0  0  0  0  0  0  0  0
    9.2001  -22.4001   18.1595 C   0  0  0  0  0  0  0  0  0  0  0  0
   10.0733  -23.2913   18.3279 O   0  0  0  0  0  0  0  0  0  0  0  0
    9.6498  -21.1600   17.6719 N   0  0  0  0  0  0  0  0  0  0  0  0
   11.0200  -20.9006   17.3935 C   0  0  1  0  0  0  0  0  0  0  0  0
   11.2494  -19.8562   16.3302 C   0  0  0  0  0  0  0  0  0  0  0  0
   10.7422  -20.2724   14.9812 C   0  0  0  0  0  0  0  0  0  0  0  0
   11.4124  -19.5167   13.8558 C   0  0  0  0  0  0  0  0  0  0  0  0
   10.8654  -19.9673   12.5195 C   0  0  0  0  0  0  0  0  0  0  0  0
   11.6334  -19.3835   11.4215 N   0  0  0  0  0  0  0  0  0  0  0  0
   11.8205  -20.6151   18.6214 C   0  0  0  0  0  0  0  0  0  0  0  0
   11.4135  -19.6819   19.3572 O   0  0  0  0  0  0  0  0  0  0  0  0
   12.8850  -22.7479   21.8938 C   0  0  0  0  0  0  0  0  0  0  0  0
   14.0028  -22.3378   20.9918 C   0  0  2  0  0  0  0  0  0  0  0  0
   15.3268  -22.2081   21.7091 C   0  0  0  0  0  0  0  0  0  0  0  0
   13.7106  -21.0675   20.2291 C   0  0  2  0  0  0  0  0  0  0  0  0
   12.9808  -21.3050   19.0092 N   0  0  0  0  0  0  0  0  0  0  0  0
   15.0037  -20.4064   19.9064 C   0  0  0  0  0  0  0  0  0  0  0  0
   15.6351  -19.7571   20.7823 O   0  0  0  0  0  0  0  0  0  0  0  0
   15.5798  -20.4661   18.6422 O   0  0  0  0  0  0  0  0  0  0  0  0
  2  1  1  0
  3  2  1  0
  4  3  2  0
  5  3  1  0
  6  5  1  0
  6 12  1  0
  6  7  1  6
  8  7  1  0
  9  8  1  0
  9 10  1  0
 10 11  1  0
 12 13  2  0
 15 14  1  1
 16 15  1  0
 17 15  1  0
 18 12  1  0
 17 18  1  6
 19 21  1  0
 19 17  1  0
 20 19  2  0
M  END
$$$$
