GKV.pdb
     RDKit          3D

 21 20  0  0  1  0  0  0  0  0999 V2000
   10.1320  -16.6961   19.0034 N   0  0  0  0  0  0  0  0  0  0  0  0
   10.2798  -17.3164   20.2814 C   0  0  0  0  0  0  0  0  0  0  0  0
    9.3023  -16.7828   21.2620 C   0  0  0  0  0  0  0  0  0  0  0  0
    8.7762  -15.6594   21.0468 O   0  0  0  0  0  0  0  0  0  0  0  0
    8.9102  -17.4487   22.4371 N   0  0  0  0  0  0  0  0  0  0  0  0
    7.8635  -16.9703   23.2725 C   0  0  1  0  0  0  0  0  0  0  0  0
    7.0614  -18.0563   23.9442 C   0  0  0  0  0  0  0  0  0  0  0  0
    6.3749  -18.9659   22.9688 C   0  0  0  0  0  0  0  0  0  0  0  0
    5.5560  -20.0351   23.6567 C   0  0  0  0  0  0  0  0  0  0  0  0
    4.7674  -20.8304   22.6400 C   0  0  0  0  0  0  0  0  0  0  0  0
    3.9966  -21.8867   23.2930 N   0  0  0  0  0  0  0  0  0  0  0  0
    8.3245  -15.9445   24.2550 C   0  0  0  0  0  0  0  0  0  0  0  0
    9.5000  -16.0595   24.6828 O   0  0  0  0  0  0  0  0  0  0  0  0
    7.5707  -11.5952   26.6242 C   0  0  0  0  0  0  0  0  0  0  0  0
    7.0488  -12.7030   25.7687 C   0  0  2  0  0  0  0  0  0  0  0  0
    5.7112  -13.2316   26.2335 C   0  0  0  0  0  0  0  0  0  0  0  0
    8.0248  -13.8461   25.6221 C   0  0  2  0  0  0  0  0  0  0  0  0
    7.5498  -14.8737   24.7300 N   0  0  0  0  0  0  0  0  0  0  0  0
    8.2621  -14.4355   26.9673 C   0  0  0  0  0  0  0  0  0  0  0  0
    7.6472  -15.4709   27.3380 O   0  0  0  0  0  0  0  0  0  0  0  0
    9.1600  -13.8875   27.8766 O   0  0  0  0  0  0  0  0  0  0  0  0
  2  1  1  0
  3  2  1  0
  4  3  2  0
  5  3  1  0
  6  5  1  0
  6 12  1  0
  6  7  1  1
  8  7  1  0
  9  8  1  0
  9 10  1  0
 10 11  1  0
 12 13  2  0
 15 14  1  1
 16 15  1  0
 17 15  1  0
 18 12  1  0
 17 18  1  6
 19 21  1  0
 19 17  1  0
 20 19  2  0
M  END
$$$$
