GKV.pdb
     RDKit          3D

 21 20  0  0  1  0  0  0  0  0999 V2000
   10.0583  -16.0608   20.0027 N   0  0  0  0  0  0  0  0  0  0  0  0
   10.1188  -17.1960   20.8673 C   0  0  0  0  0  0  0  0  0  0  0  0
    9.4866  -16.9151   22.1800 C   0  0  0  0  0  0  0  0  0  0  0  0
    9.0127  -15.7684   22.3939 O   0  0  0  0  0  0  0  0  0  0  0  0
    9.3736  -17.8497   23.2248 N   0  0  0  0  0  0  0  0  0  0  0  0
    8.6732  -17.5668   24.4297 C   0  0  1  0  0  0  0  0  0  0  0  0
    7.8924  -18.7331   24.9810 C   0  0  0  0  0  0  0  0  0  0  0  0
    6.9021  -19.2904   24.0018 C   0  0  0  0  0  0  0  0  0  0  0  0
    6.1901  -20.5130   24.5356 C   0  0  0  0  0  0  0  0  0  0  0  0
    5.3291  -21.1338   23.4579 C   0  0  0  0  0  0  0  0  0  0  0  0
    4.7206  -22.3753   23.9318 N   0  0  0  0  0  0  0  0  0  0  0  0
    9.5396  -16.9460   25.4756 C   0  0  0  0  0  0  0  0  0  0  0  0
   10.7012  -17.4090   25.5953 O   0  0  0  0  0  0  0  0  0  0  0  0
    9.2975  -13.0226   26.7940 C   0  0  0  0  0  0  0  0  0  0  0  0
    9.4692  -14.0247   27.8883 C   0  0  2  0  0  0  0  0  0  0  0  0
   10.3599  -13.5347   29.0069 C   0  0  0  0  0  0  0  0  0  0  0  0
    9.9646  -15.3623   27.3922 C   0  0  2  0  0  0  0  0  0  0  0  0
    9.1558  -15.8953   26.3249 N   0  0  0  0  0  0  0  0  0  0  0  0
    9.9613  -16.3163   28.5337 C   0  0  0  0  0  0  0  0  0  0  0  0
    9.0251  -17.1466   28.6807 O   0  0  0  0  0  0  0  0  0  0  0  0
   10.9731  -16.3461   29.4870 O   0  0  0  0  0  0  0  0  0  0  0  0
  2  1  1  0
  3  2  1  0
  4  3  2  0
  5  3  1  0
  6  5  1  0
  6 12  1  0
  6  7  1  1
  8  7  1  0
  9  8  1  0
  9 10  1  0
 10 11  1  0
 12 13  2  0
 15 14  1  6
 16 15  1  0
 17 15  1  0
 18 12  1  0
 17 18  1  6
 19 21  1  0
 19 17  1  0
 20 19  2  0
M  END
$$$$
