NLY.pdb
     RDKit          3D

 29 29  0  0  1  0  0  0  0  0999 V2000
    6.8982  -20.7479   19.3283 N   0  0  0  0  0  0  0  0  0  0  0  0
    7.1962  -20.7208   20.7455 C   0  0  0  0  0  0  0  0  0  0  0  0
    6.8935  -21.7132   21.4205 O   0  0  0  0  0  0  0  0  0  0  0  0
    7.8416  -19.5039   21.2762 C   0  0  0  0  0  0  0  0  0  0  0  0
    8.0605  -18.4442   20.2214 C   0  0  2  0  0  0  0  0  0  0  0  0
    8.8851  -19.1195   19.1927 N   0  0  0  0  0  0  0  0  0  0  0  0
    8.9139  -17.3256   20.7641 C   0  0  0  0  0  0  0  0  0  0  0  0
   10.1927  -17.4008   20.7147 O   0  0  0  0  0  0  0  0  0  0  0  0
    7.9239  -11.9124   20.0092 C   0  0  0  0  0  0  0  0  0  0  0  0
    8.4291  -13.2997   20.2220 C   0  0  2  0  0  0  0  0  0  0  0  0
    7.6618  -14.2196   19.3085 C   0  0  0  0  0  0  0  0  0  0  0  0
    8.5559  -13.7701   21.6071 C   0  0  0  0  0  0  0  0  0  0  0  0
    9.0716  -15.1220   21.8902 C   0  0  2  0  0  0  0  0  0  0  0  0
    8.2971  -16.1897   21.3292 N   0  0  0  0  0  0  0  0  0  0  0  0
    9.4391  -15.3820   23.3153 C   0  0  0  0  0  0  0  0  0  0  0  0
   10.3365  -14.7195   23.9003 O   0  0  0  0  0  0  0  0  0  0  0  0
    6.2394  -10.7298   26.0117 O   0  0  0  0  0  0  0  0  0  0  0  0
    6.5854  -12.0682   26.0698 C   0  0  0  0  0  0  0  0  0  0  0  0
    5.7398  -13.0967   25.7223 C   0  0  0  0  0  0  0  0  0  0  0  0
    6.1622  -14.4052   25.8086 C   0  0  0  0  0  0  0  0  0  0  0  0
    7.4485  -14.7449   26.2460 C   0  0  0  0  0  0  0  0  0  0  0  0
    7.8895  -16.1497   26.3482 C   0  0  0  0  0  0  0  0  0  0  0  0
    9.0849  -16.4963   25.5235 C   0  0  2  0  0  0  0  0  0  0  0  0
    8.7996  -16.3872   24.0910 N   0  0  0  0  0  0  0  0  0  0  0  0
    9.4844  -17.8943   25.7806 C   0  0  0  0  0  0  0  0  0  0  0  0
    9.8204  -18.3545   27.0677 O   0  0  0  0  0  0  0  0  0  0  0  0
    8.2556  -13.6816   26.5820 C   0  0  0  0  0  0  0  0  0  0  0  0
    7.8628  -12.3656   26.5063 C   0  0  0  0  0  0  0  0  0  0  0  0
    9.5591  -18.7854   24.8836 O   0  0  0  0  0  0  0  0  0  0  0  0
  1  2  1  0
  2  3  2  0
  4  5  1  0
  4  2  1  0
  5  6  1  6
  7  5  1  0
  7  8  2  0
 10  9  1  1
 11 10  1  0
 12 10  1  0
 13 12  1  1
 13 14  1  0
 14  7  1  0
 15 24  1  0
 15 13  1  0
 16 15  2  0
 18 17  1  0
 18 28  2  0
 19 18  1  0
 20 19  2  0
 20 21  1  0
 21 27  2  0
 22 21  1  0
 23 22  1  1
 23 24  1  0
 23 25  1  0
 25 26  1  0
 27 28  1  0
 29 25  2  0
M  END
$$$$
