NLY.pdb
     RDKit          3D

 29 29  0  0  1  0  0  0  0  0999 V2000
    8.0149  -18.0342   17.8356 N   0  0  0  0  0  0  0  0  0  0  0  0
    7.8420  -16.5997   17.7340 C   0  0  0  0  0  0  0  0  0  0  0  0
    7.4840  -16.1347   16.6442 O   0  0  0  0  0  0  0  0  0  0  0  0
    8.1082  -15.8005   18.9463 C   0  0  0  0  0  0  0  0  0  0  0  0
    8.4928  -16.6463   20.1379 C   0  0  2  0  0  0  0  0  0  0  0  0
    7.2335  -17.3235   20.5252 N   0  0  0  0  0  0  0  0  0  0  0  0
    8.8671  -15.7724   21.3086 C   0  0  0  0  0  0  0  0  0  0  0  0
    9.8603  -14.9660   21.2264 O   0  0  0  0  0  0  0  0  0  0  0  0
    8.1030  -12.2623   24.6531 C   0  0  0  0  0  0  0  0  0  0  0  0
    7.0005  -13.2660   24.6070 C   0  0  2  0  0  0  0  0  0  0  0  0
    6.0213  -12.9325   25.7024 C   0  0  0  0  0  0  0  0  0  0  0  0
    7.3766  -14.6830   24.5257 C   0  0  0  0  0  0  0  0  0  0  0  0
    8.4987  -15.1077   23.6689 C   0  0  2  0  0  0  0  0  0  0  0  0
    8.1166  -15.8453   22.5008 N   0  0  0  0  0  0  0  0  0  0  0  0
    9.6466  -15.7428   24.3849 C   0  0  0  0  0  0  0  0  0  0  0  0
    9.6159  -16.9482   24.7491 O   0  0  0  0  0  0  0  0  0  0  0  0
    9.0247  -16.2473   30.9895 O   0  0  0  0  0  0  0  0  0  0  0  0
    9.8265  -15.9056   29.9148 C   0  0  0  0  0  0  0  0  0  0  0  0
    9.8440  -14.6578   29.3348 C   0  0  0  0  0  0  0  0  0  0  0  0
   10.6732  -14.3982   28.2657 C   0  0  0  0  0  0  0  0  0  0  0  0
   11.5222  -15.3735   27.7280 C   0  0  0  0  0  0  0  0  0  0  0  0
   12.3983  -15.0917   26.5742 C   0  0  0  0  0  0  0  0  0  0  0  0
   11.9749  -15.7278   25.2915 C   0  0  2  0  0  0  0  0  0  0  0  0
   10.8354  -15.0274   24.6945 N   0  0  0  0  0  0  0  0  0  0  0  0
   11.5475  -17.1195   25.5379 C   0  0  0  0  0  0  0  0  0  0  0  0
   12.4508  -18.1228   25.9364 O   0  0  0  0  0  0  0  0  0  0  0  0
   11.4677  -16.6042   28.3423 C   0  0  0  0  0  0  0  0  0  0  0  0
   10.6512  -16.8937   29.4106 C   0  0  0  0  0  0  0  0  0  0  0  0
   10.3543  -17.5258   25.4147 O   0  0  0  0  0  0  0  0  0  0  0  0
  1  2  1  0
  2  3  2  0
  4  5  1  0
  4  2  1  0
  5  6  1  1
  7  5  1  0
  7  8  2  0
 10  9  1  1
 11 10  1  0
 12 10  1  0
 13 12  1  1
 13 14  1  0
 14  7  1  0
 15 24  1  0
 15 13  1  0
 16 15  2  0
 18 17  1  0
 18 28  2  0
 19 18  1  0
 20 19  2  0
 20 21  1  0
 21 27  2  0
 22 21  1  0
 23 22  1  1
 23 24  1  0
 23 25  1  0
 25 26  1  0
 27 28  1  0
 29 25  2  0
M  END
$$$$
