NLY.pdb
     RDKit          3D

 29 29  0  0  1  0  0  0  0  0999 V2000
   11.6668  -19.3458   17.0591 N   0  0  0  0  0  0  0  0  0  0  0  0
   10.4302  -19.3036   17.8120 C   0  0  0  0  0  0  0  0  0  0  0  0
    9.7153  -20.3141   17.8096 O   0  0  0  0  0  0  0  0  0  0  0  0
   10.1181  -18.0506   18.5273 C   0  0  0  0  0  0  0  0  0  0  0  0
   10.2498  -18.1790   20.0272 C   0  0  2  0  0  0  0  0  0  0  0  0
    9.0116  -18.8779   20.4427 N   0  0  0  0  0  0  0  0  0  0  0  0
   10.1956  -16.8213   20.6814 C   0  0  0  0  0  0  0  0  0  0  0  0
   11.2105  -16.0392   20.6409 O   0  0  0  0  0  0  0  0  0  0  0  0
    8.5765  -12.8610   19.7627 C   0  0  0  0  0  0  0  0  0  0  0  0
    7.5235  -13.8021   20.2430 C   0  0  2  0  0  0  0  0  0  0  0  0
    6.1807  -13.1716   19.9801 C   0  0  0  0  0  0  0  0  0  0  0  0
    7.6853  -14.3721   21.5865 C   0  0  0  0  0  0  0  0  0  0  0  0
    8.9100  -15.1136   21.9384 C   0  0  2  0  0  0  0  0  0  0  0  0
    9.0178  -16.4124   21.3415 N   0  0  0  0  0  0  0  0  0  0  0  0
    9.2516  -15.1329   23.3932 C   0  0  0  0  0  0  0  0  0  0  0  0
    9.1594  -14.1012   24.1098 O   0  0  0  0  0  0  0  0  0  0  0  0
    6.6214  -10.9056   26.9516 O   0  0  0  0  0  0  0  0  0  0  0  0
    7.1234  -12.1828   26.7746 C   0  0  0  0  0  0  0  0  0  0  0  0
    8.4430  -12.5234   26.9648 C   0  0  0  0  0  0  0  0  0  0  0  0
    8.8630  -13.8205   26.7672 C   0  0  0  0  0  0  0  0  0  0  0  0
    7.9835  -14.8356   26.3706 C   0  0  0  0  0  0  0  0  0  0  0  0
    8.4435  -16.2203   26.1482 C   0  0  0  0  0  0  0  0  0  0  0  0
    9.7888  -16.3428   25.5124 C   0  0  2  0  0  0  0  0  0  0  0  0
    9.6975  -16.3117   24.0508 N   0  0  0  0  0  0  0  0  0  0  0  0
   10.4030  -17.6339   25.8809 C   0  0  0  0  0  0  0  0  0  0  0  0
   10.7380  -17.9537   27.2102 O   0  0  0  0  0  0  0  0  0  0  0  0
    6.6756  -14.4447   26.1932 C   0  0  0  0  0  0  0  0  0  0  0  0
    6.2262  -13.1587   26.3828 C   0  0  0  0  0  0  0  0  0  0  0  0
   10.6777  -18.5497   25.0503 O   0  0  0  0  0  0  0  0  0  0  0  0
  1  2  1  0
  2  3  2  0
  4  5  1  0
  4  2  1  0
  5  6  1  1
  7  5  1  0
  7  8  2  0
 10  9  1  1
 11 10  1  0
 12 10  1  0
 13 12  1  1
 13 14  1  0
 14  7  1  0
 15 24  1  0
 15 13  1  0
 16 15  2  0
 18 17  1  0
 18 28  2  0
 19 18  1  0
 20 19  2  0
 20 21  1  0
 21 27  2  0
 22 21  1  0
 23 22  1  1
 23 24  1  0
 23 25  1  0
 25 26  1  0
 27 28  1  0
 29 25  2  0
M  END
$$$$
