NLY.pdb
     RDKit          3D

 29 29  0  0  1  0  0  0  0  0999 V2000
   10.8536  -20.3170   17.5382 N   0  0  0  0  0  0  0  0  0  0  0  0
   11.6889  -20.3034   18.7215 C   0  0  0  0  0  0  0  0  0  0  0  0
   12.1991  -21.3716   19.0833 O   0  0  0  0  0  0  0  0  0  0  0  0
   11.8669  -19.0081   19.4068 C   0  0  0  0  0  0  0  0  0  0  0  0
   11.0978  -17.8839   18.7528 C   0  0  2  0  0  0  0  0  0  0  0  0
   12.0598  -17.2951   17.7925 N   0  0  0  0  0  0  0  0  0  0  0  0
   10.7969  -16.7963   19.7533 C   0  0  0  0  0  0  0  0  0  0  0  0
   11.7494  -16.1886   20.3589 O   0  0  0  0  0  0  0  0  0  0  0  0
    8.7612  -12.6974   19.5155 C   0  0  0  0  0  0  0  0  0  0  0  0
    7.7472  -13.7880   19.6020 C   0  0  2  0  0  0  0  0  0  0  0  0
    6.3841  -13.1713   19.4257 C   0  0  0  0  0  0  0  0  0  0  0  0
    7.8583  -14.7297   20.7232 C   0  0  0  0  0  0  0  0  0  0  0  0
    9.1272  -15.4346   20.9808 C   0  0  2  0  0  0  0  0  0  0  0  0
    9.4566  -16.4478   20.0218 N   0  0  0  0  0  0  0  0  0  0  0  0
    9.3256  -15.9040   22.3857 C   0  0  0  0  0  0  0  0  0  0  0  0
    9.1240  -17.1017   22.7195 O   0  0  0  0  0  0  0  0  0  0  0  0
   10.9906  -16.0078   31.1442 O   0  0  0  0  0  0  0  0  0  0  0  0
   10.8190  -15.6771   29.8117 C   0  0  0  0  0  0  0  0  0  0  0  0
   11.2538  -16.4561   28.7640 C   0  0  0  0  0  0  0  0  0  0  0  0
   11.0429  -16.0547   27.4631 C   0  0  0  0  0  0  0  0  0  0  0  0
   10.3882  -14.8569   27.1504 C   0  0  0  0  0  0  0  0  0  0  0  0
   10.1776  -14.4271   25.7543 C   0  0  0  0  0  0  0  0  0  0  0  0
    9.8743  -15.5299   24.7946 C   0  0  2  0  0  0  0  0  0  0  0  0
    9.7524  -15.0305   23.4230 N   0  0  0  0  0  0  0  0  0  0  0  0
    8.5847  -16.1588   25.1430 C   0  0  0  0  0  0  0  0  0  0  0  0
    7.3546  -15.6559   24.6791 O   0  0  0  0  0  0  0  0  0  0  0  0
    9.9732  -14.1136   28.2322 C   0  0  0  0  0  0  0  0  0  0  0  0
   10.1688  -14.4876   29.5412 C   0  0  0  0  0  0  0  0  0  0  0  0
    8.4732  -17.1859   25.8758 O   0  0  0  0  0  0  0  0  0  0  0  0
  1  2  1  0
  2  3  2  0
  4  5  1  0
  4  2  1  0
  5  6  1  6
  7  5  1  0
  7  8  2  0
 10  9  1  1
 11 10  1  0
 12 10  1  0
 13 12  1  1
 13 14  1  0
 14  7  1  0
 15 24  1  0
 15 13  1  0
 16 15  2  0
 18 17  1  0
 18 28  2  0
 19 18  1  0
 20 19  2  0
 20 21  1  0
 21 27  2  0
 22 21  1  0
 23 22  1  1
 23 24  1  0
 23 25  1  0
 25 26  1  0
 27 28  1  0
 29 25  2  0
M  END
$$$$
