NLY.pdb
     RDKit          3D

 29 29  0  0  1  0  0  0  0  0999 V2000
   15.7490  -14.1335   18.4013 N   0  0  0  0  0  0  0  0  0  0  0  0
   14.4837  -14.7008   17.9826 C   0  0  0  0  0  0  0  0  0  0  0  0
   14.4634  -15.3646   16.9380 O   0  0  0  0  0  0  0  0  0  0  0  0
   13.3108  -14.4408   18.8404 C   0  0  0  0  0  0  0  0  0  0  0  0
   12.8427  -15.6679   19.5876 C   0  0  2  0  0  0  0  0  0  0  0  0
   12.0698  -16.4334   18.5821 N   0  0  0  0  0  0  0  0  0  0  0  0
   11.8563  -15.2883   20.6633 C   0  0  0  0  0  0  0  0  0  0  0  0
   12.2502  -14.6824   21.7221 O   0  0  0  0  0  0  0  0  0  0  0  0
    6.2662  -13.7561   19.9283 C   0  0  0  0  0  0  0  0  0  0  0  0
    7.6332  -13.7970   20.5237 C   0  0  2  0  0  0  0  0  0  0  0  0
    8.5603  -13.0342   19.6137 C   0  0  0  0  0  0  0  0  0  0  0  0
    8.1402  -15.1013   20.9686 C   0  0  0  0  0  0  0  0  0  0  0  0
    9.5163  -15.2297   21.4819 C   0  0  2  0  0  0  0  0  0  0  0  0
   10.4910  -15.6038   20.4998 N   0  0  0  0  0  0  0  0  0  0  0  0
    9.6583  -16.0175   22.7440 C   0  0  0  0  0  0  0  0  0  0  0  0
   10.0441  -17.2165   22.7376 O   0  0  0  0  0  0  0  0  0  0  0  0
    5.8147  -11.1036   26.5043 O   0  0  0  0  0  0  0  0  0  0  0  0
    6.6411  -12.2133   26.4966 C   0  0  0  0  0  0  0  0  0  0  0  0
    6.1882  -13.5099   26.5825 C   0  0  0  0  0  0  0  0  0  0  0  0
    7.0785  -14.5611   26.5679 C   0  0  0  0  0  0  0  0  0  0  0  0
    8.4613  -14.3643   26.4668 C   0  0  0  0  0  0  0  0  0  0  0  0
    9.4098  -15.4951   26.4649 C   0  0  0  0  0  0  0  0  0  0  0  0
    9.4165  -16.3097   25.2138 C   0  0  2  0  0  0  0  0  0  0  0  0
    9.3687  -15.4620   24.0201 N   0  0  0  0  0  0  0  0  0  0  0  0
    8.2248  -17.1806   25.1748 C   0  0  0  0  0  0  0  0  0  0  0  0
    7.2379  -17.0583   24.1785 O   0  0  0  0  0  0  0  0  0  0  0  0
    8.8639  -13.0506   26.3839 C   0  0  0  0  0  0  0  0  0  0  0  0
    7.9999  -11.9805   26.3958 C   0  0  0  0  0  0  0  0  0  0  0  0
    7.9895  -18.0964   26.0174 O   0  0  0  0  0  0  0  0  0  0  0  0
  1  2  1  0
  2  3  2  0
  4  5  1  0
  4  2  1  0
  5  6  1  6
  7  5  1  0
  7  8  2  0
 10  9  1  6
 11 10  1  0
 12 10  1  0
 13 12  1  6
 13 14  1  0
 14  7  1  0
 15 24  1  0
 15 13  1  0
 16 15  2  0
 18 17  1  0
 18 28  2  0
 19 18  1  0
 20 19  2  0
 20 21  1  0
 21 27  2  0
 22 21  1  0
 23 22  1  1
 23 24  1  0
 23 25  1  0
 25 26  1  0
 27 28  1  0
 29 25  2  0
M  END
$$$$
