NLY.pdb
     RDKit          3D

 29 29  0  0  1  0  0  0  0  0999 V2000
   11.5939  -19.2199   16.2006 N   0  0  0  0  0  0  0  0  0  0  0  0
   11.0009  -17.9819   15.7384 C   0  0  0  0  0  0  0  0  0  0  0  0
   11.0043  -17.7564   14.5213 O   0  0  0  0  0  0  0  0  0  0  0  0
   10.4357  -17.0810   16.7622 C   0  0  0  0  0  0  0  0  0  0  0  0
   10.6933  -17.5562   18.1733 C   0  0  2  0  0  0  0  0  0  0  0  0
    9.5211  -18.4042   18.4914 N   0  0  0  0  0  0  0  0  0  0  0  0
   10.6390  -16.3995   19.1394 C   0  0  0  0  0  0  0  0  0  0  0  0
   11.6924  -15.7144   19.3932 O   0  0  0  0  0  0  0  0  0  0  0  0
    8.8371  -12.3488   19.4796 C   0  0  0  0  0  0  0  0  0  0  0  0
    7.8328  -13.4006   19.8117 C   0  0  2  0  0  0  0  0  0  0  0  0
    6.4819  -12.7406   19.9070 C   0  0  0  0  0  0  0  0  0  0  0  0
    8.1506  -14.3180   20.9132 C   0  0  0  0  0  0  0  0  0  0  0  0
    9.3670  -15.1495   20.8624 C   0  0  2  0  0  0  0  0  0  0  0  0
    9.4184  -16.0718   19.7663 N   0  0  0  0  0  0  0  0  0  0  0  0
    9.7603  -15.7890   22.1547 C   0  0  0  0  0  0  0  0  0  0  0  0
    8.9067  -16.2902   22.9335 O   0  0  0  0  0  0  0  0  0  0  0  0
   12.4781  -21.8993   27.4334 O   0  0  0  0  0  0  0  0  0  0  0  0
   12.2157  -21.0224   26.3957 C   0  0  0  0  0  0  0  0  0  0  0  0
   12.9389  -20.9773   25.2259 C   0  0  0  0  0  0  0  0  0  0  0  0
   12.6123  -20.0726   24.2395 C   0  0  0  0  0  0  0  0  0  0  0  0
   11.5486  -19.1723   24.3776 C   0  0  0  0  0  0  0  0  0  0  0  0
   11.2129  -18.1971   23.3219 C   0  0  0  0  0  0  0  0  0  0  0  0
   11.4861  -16.7715   23.6712 C   0  0  2  0  0  0  0  0  0  0  0  0
   11.1150  -15.8696   22.5783 N   0  0  0  0  0  0  0  0  0  0  0  0
   12.9296  -16.5823   23.9178 C   0  0  0  0  0  0  0  0  0  0  0  0
   13.7271  -15.7521   23.1078 O   0  0  0  0  0  0  0  0  0  0  0  0
   10.8569  -19.2567   25.5648 C   0  0  0  0  0  0  0  0  0  0  0  0
   11.1586  -20.1485   26.5674 C   0  0  0  0  0  0  0  0  0  0  0  0
   13.5654  -17.1392   24.8610 O   0  0  0  0  0  0  0  0  0  0  0  0
  1  2  1  0
  2  3  2  0
  4  5  1  0
  4  2  1  0
  5  6  1  1
  7  5  1  0
  7  8  2  0
 10  9  1  1
 11 10  1  0
 12 10  1  0
 13 12  1  1
 13 14  1  0
 14  7  1  0
 15 24  1  0
 15 13  1  0
 16 15  2  0
 18 17  1  0
 18 28  2  0
 19 18  1  0
 20 19  2  0
 20 21  1  0
 21 27  2  0
 22 21  1  0
 23 22  1  6
 23 24  1  0
 23 25  1  0
 25 26  1  0
 27 28  1  0
 29 25  2  0
M  END
$$$$
