NLY.pdb
     RDKit          3D

 29 29  0  0  1  0  0  0  0  0999 V2000
   10.6998  -20.2443   17.5520 N   0  0  0  0  0  0  0  0  0  0  0  0
    9.6072  -19.4275   17.0652 C   0  0  0  0  0  0  0  0  0  0  0  0
    9.2436  -19.5849   15.8925 O   0  0  0  0  0  0  0  0  0  0  0  0
    9.0097  -18.4658   18.0123 C   0  0  0  0  0  0  0  0  0  0  0  0
    9.6537  -18.5057   19.3787 C   0  0  2  0  0  0  0  0  0  0  0  0
    8.6223  -19.1158   20.2495 N   0  0  0  0  0  0  0  0  0  0  0  0
    9.8635  -17.1084   19.9059 C   0  0  0  0  0  0  0  0  0  0  0  0
   10.8102  -16.3758   19.4471 O   0  0  0  0  0  0  0  0  0  0  0  0
    8.0953  -13.0880   19.4437 C   0  0  0  0  0  0  0  0  0  0  0  0
    7.2896  -13.9799   20.3272 C   0  0  2  0  0  0  0  0  0  0  0  0
    5.9516  -13.3255   20.5535 C   0  0  0  0  0  0  0  0  0  0  0  0
    7.9365  -14.4974   21.5395 C   0  0  0  0  0  0  0  0  0  0  0  0
    9.1780  -15.2866   21.4421 C   0  0  2  0  0  0  0  0  0  0  0  0
    9.0098  -16.6073   20.9109 N   0  0  0  0  0  0  0  0  0  0  0  0
   10.0408  -15.2767   22.6624 C   0  0  0  0  0  0  0  0  0  0  0  0
   10.2601  -14.2194   23.3110 O   0  0  0  0  0  0  0  0  0  0  0  0
    6.0619  -19.8162   25.8985 O   0  0  0  0  0  0  0  0  0  0  0  0
    7.1626  -18.9798   25.8411 C   0  0  0  0  0  0  0  0  0  0  0  0
    8.4311  -19.3512   26.2240 C   0  0  0  0  0  0  0  0  0  0  0  0
    9.4753  -18.4568   26.1354 C   0  0  0  0  0  0  0  0  0  0  0  0
    9.2991  -17.1513   25.6603 C   0  0  0  0  0  0  0  0  0  0  0  0
   10.4202  -16.1946   25.5806 C   0  0  0  0  0  0  0  0  0  0  0  0
   11.3634  -16.4226   24.4459 C   0  0  2  0  0  0  0  0  0  0  0  0
   10.6609  -16.4547   23.1610 N   0  0  0  0  0  0  0  0  0  0  0  0
   12.0351  -17.7278   24.6053 C   0  0  0  0  0  0  0  0  0  0  0  0
   11.9384  -18.7450   23.6371 O   0  0  0  0  0  0  0  0  0  0  0  0
    8.0130  -16.8284   25.2906 C   0  0  0  0  0  0  0  0  0  0  0  0
    6.9507  -17.6987   25.3672 C   0  0  0  0  0  0  0  0  0  0  0  0
   12.7433  -18.0417   25.6073 O   0  0  0  0  0  0  0  0  0  0  0  0
  1  2  1  0
  2  3  2  0
  4  5  1  0
  4  2  1  0
  5  6  1  1
  7  5  1  0
  7  8  2  0
 10  9  1  1
 11 10  1  0
 12 10  1  0
 13 12  1  1
 13 14  1  0
 14  7  1  0
 15 24  1  0
 15 13  1  0
 16 15  2  0
 18 17  1  0
 18 28  2  0
 19 18  1  0
 20 19  2  0
 20 21  1  0
 21 27  2  0
 22 21  1  0
 23 22  1  1
 23 24  1  0
 23 25  1  0
 25 26  1  0
 27 28  1  0
 29 25  2  0
M  END
$$$$
