NLY.pdb
     RDKit          3D

 29 29  0  0  1  0  0  0  0  0999 V2000
    7.9452  -14.4042   17.5706 N   0  0  0  0  0  0  0  0  0  0  0  0
    7.8514  -13.0844   18.1599 C   0  0  0  0  0  0  0  0  0  0  0  0
    7.5241  -12.1434   17.4253 O   0  0  0  0  0  0  0  0  0  0  0  0
    8.1554  -12.9651   19.5995 C   0  0  0  0  0  0  0  0  0  0  0  0
    8.5438  -14.2815   20.2316 C   0  0  2  0  0  0  0  0  0  0  0  0
    7.3041  -15.0907   20.1783 N   0  0  0  0  0  0  0  0  0  0  0  0
    8.8512  -14.0951   21.6962 C   0  0  0  0  0  0  0  0  0  0  0  0
    9.9238  -13.4974   22.0644 O   0  0  0  0  0  0  0  0  0  0  0  0
    5.5233  -12.9903   26.2275 C   0  0  0  0  0  0  0  0  0  0  0  0
    6.9126  -13.2716   25.7628 C   0  0  2  0  0  0  0  0  0  0  0  0
    7.4622  -12.0105   25.1487 C   0  0  0  0  0  0  0  0  0  0  0  0
    7.1293  -14.4890   24.9710 C   0  0  0  0  0  0  0  0  0  0  0  0
    8.2834  -14.5886   24.0591 C   0  0  2  0  0  0  0  0  0  0  0  0
    7.9494  -14.5831   22.6651 N   0  0  0  0  0  0  0  0  0  0  0  0
    9.2757  -15.6542   24.3956 C   0  0  0  0  0  0  0  0  0  0  0  0
    9.4641  -16.0344   25.5816 O   0  0  0  0  0  0  0  0  0  0  0  0
   14.4245  -14.5006   19.2473 O   0  0  0  0  0  0  0  0  0  0  0  0
   13.6628  -15.3600   20.0192 C   0  0  0  0  0  0  0  0  0  0  0  0
   12.3125  -15.5588   19.8437 C   0  0  0  0  0  0  0  0  0  0  0  0
   11.6259  -16.4340   20.6563 C   0  0  0  0  0  0  0  0  0  0  0  0
   12.2574  -17.1501   21.6808 C   0  0  0  0  0  0  0  0  0  0  0  0
   11.5125  -18.0762   22.5559 C   0  0  0  0  0  0  0  0  0  0  0  0
   10.8976  -17.4463   23.7617 C   0  0  2  0  0  0  0  0  0  0  0  0
   10.0610  -16.2991   23.4014 N   0  0  0  0  0  0  0  0  0  0  0  0
   11.9555  -16.9454   24.6617 C   0  0  0  0  0  0  0  0  0  0  0  0
   12.9334  -17.7931   25.2155 O   0  0  0  0  0  0  0  0  0  0  0  0
   13.6072  -16.9165   21.8161 C   0  0  0  0  0  0  0  0  0  0  0  0
   14.3199  -16.0497   21.0209 C   0  0  0  0  0  0  0  0  0  0  0  0
   12.0744  -15.7331   25.0086 O   0  0  0  0  0  0  0  0  0  0  0  0
  1  2  1  0
  2  3  2  0
  4  5  1  0
  4  2  1  0
  5  6  1  1
  7  5  1  0
  7  8  2  0
 10  9  1  6
 11 10  1  0
 12 10  1  0
 13 12  1  1
 13 14  1  0
 14  7  1  0
 15 24  1  0
 15 13  1  0
 16 15  2  0
 18 17  1  0
 18 28  2  0
 19 18  1  0
 20 19  2  0
 20 21  1  0
 21 27  2  0
 22 21  1  0
 23 22  1  6
 23 24  1  0
 23 25  1  0
 25 26  1  0
 27 28  1  0
 29 25  2  0
M  END
$$$$
