NLY.pdb
     RDKit          3D

 29 29  0  0  1  0  0  0  0  0999 V2000
    6.3011  -21.7116   23.3102 N   0  0  0  0  0  0  0  0  0  0  0  0
    5.9870  -20.4533   22.6654 C   0  0  0  0  0  0  0  0  0  0  0  0
    4.8111  -20.2474   22.3379 O   0  0  0  0  0  0  0  0  0  0  0  0
    7.1012  -19.5096   22.4485 C   0  0  0  0  0  0  0  0  0  0  0  0
    7.1874  -19.0160   21.0229 C   0  0  2  0  0  0  0  0  0  0  0  0
    7.6220  -20.2040   20.2521 N   0  0  0  0  0  0  0  0  0  0  0  0
    8.2961  -18.0039   20.8794 C   0  0  0  0  0  0  0  0  0  0  0  0
    9.5218  -18.3794   20.8692 O   0  0  0  0  0  0  0  0  0  0  0  0
    7.0371  -12.4519   19.6470 C   0  0  0  0  0  0  0  0  0  0  0  0
    7.4594  -13.6116   20.4848 C   0  0  2  0  0  0  0  0  0  0  0  0
    7.5198  -13.1526   21.9184 C   0  0  0  0  0  0  0  0  0  0  0  0
    8.6236  -14.3850   20.0347 C   0  0  0  0  0  0  0  0  0  0  0  0
    9.0015  -15.6317   20.7250 C   0  0  2  0  0  0  0  0  0  0  0  0
    7.9783  -16.6350   20.7554 N   0  0  0  0  0  0  0  0  0  0  0  0
    9.6545  -15.4535   22.0574 C   0  0  0  0  0  0  0  0  0  0  0  0
   10.6467  -14.6933   22.2135 O   0  0  0  0  0  0  0  0  0  0  0  0
   10.9234  -15.1076   30.8242 O   0  0  0  0  0  0  0  0  0  0  0  0
   10.4394  -15.1096   29.5280 C   0  0  0  0  0  0  0  0  0  0  0  0
   10.3014  -13.9781   28.7571 C   0  0  0  0  0  0  0  0  0  0  0  0
    9.8108  -14.0658   27.4727 C   0  0  0  0  0  0  0  0  0  0  0  0
    9.4360  -15.2879   26.9009 C   0  0  0  0  0  0  0  0  0  0  0  0
    8.8988  -15.3724   25.5287 C   0  0  0  0  0  0  0  0  0  0  0  0
    9.8557  -15.8947   24.5087 C   0  0  2  0  0  0  0  0  0  0  0  0
    9.1957  -16.1276   23.2219 N   0  0  0  0  0  0  0  0  0  0  0  0
   10.4070  -17.1902   24.9536 C   0  0  0  0  0  0  0  0  0  0  0  0
   11.6461  -17.2918   25.6137 O   0  0  0  0  0  0  0  0  0  0  0  0
    9.5924  -16.3894   27.7116 C   0  0  0  0  0  0  0  0  0  0  0  0
   10.0793  -16.3339   28.9967 C   0  0  0  0  0  0  0  0  0  0  0  0
    9.8256  -18.3026   24.7841 O   0  0  0  0  0  0  0  0  0  0  0  0
  1  2  1  0
  2  3  2  0
  4  5  1  0
  4  2  1  0
  5  6  1  6
  7  5  1  0
  7  8  2  0
 10  9  1  6
 11 10  1  0
 12 10  1  0
 13 12  1  1
 13 14  1  0
 14  7  1  0
 15 24  1  0
 15 13  1  0
 16 15  2  0
 18 17  1  0
 18 28  2  0
 19 18  1  0
 20 19  2  0
 20 21  1  0
 21 27  2  0
 22 21  1  0
 23 22  1  1
 23 24  1  0
 23 25  1  0
 25 26  1  0
 27 28  1  0
 29 25  2  0
M  END
$$$$
