NLY.pdb
     RDKit          3D

 29 29  0  0  1  0  0  0  0  0999 V2000
   11.7111  -17.8165   14.0732 N   0  0  0  0  0  0  0  0  0  0  0  0
   12.5718  -18.2684   15.1469 C   0  0  0  0  0  0  0  0  0  0  0  0
   13.1186  -19.3723   15.0260 O   0  0  0  0  0  0  0  0  0  0  0  0
   12.7298  -17.3708   16.3082 C   0  0  0  0  0  0  0  0  0  0  0  0
   11.8360  -16.1544   16.2396 C   0  0  2  0  0  0  0  0  0  0  0  0
   12.6513  -15.1434   15.5271 N   0  0  0  0  0  0  0  0  0  0  0  0
   11.5986  -15.5937   17.6193 C   0  0  0  0  0  0  0  0  0  0  0  0
   12.5658  -15.0857   18.2899 O   0  0  0  0  0  0  0  0  0  0  0  0
    8.4569  -12.4197   19.0036 C   0  0  0  0  0  0  0  0  0  0  0  0
    7.9074  -13.8063   18.9825 C   0  0  2  0  0  0  0  0  0  0  0  0
    6.4266  -13.7242   19.2473 C   0  0  0  0  0  0  0  0  0  0  0  0
    8.6177  -14.8291   19.7607 C   0  0  0  0  0  0  0  0  0  0  0  0
   10.0364  -15.1217   19.4863 C   0  0  2  0  0  0  0  0  0  0  0  0
   10.3013  -15.6299   18.1725 N   0  0  0  0  0  0  0  0  0  0  0  0
   10.7459  -15.9023   20.5451 C   0  0  0  0  0  0  0  0  0  0  0  0
   10.8099  -17.1598   20.5113 O   0  0  0  0  0  0  0  0  0  0  0  0
   16.9403  -15.2033   18.3242 O   0  0  0  0  0  0  0  0  0  0  0  0
   16.0784  -15.2140   19.4065 C   0  0  0  0  0  0  0  0  0  0  0  0
   15.1782  -14.2104   19.6825 C   0  0  0  0  0  0  0  0  0  0  0  0
   14.3535  -14.2975   20.7826 C   0  0  0  0  0  0  0  0  0  0  0  0
   14.3910  -15.3911   21.6564 C   0  0  0  0  0  0  0  0  0  0  0  0
   13.5133  -15.4712   22.8403 C   0  0  0  0  0  0  0  0  0  0  0  0
   12.1713  -16.0757   22.5900 C   0  0  2  0  0  0  0  0  0  0  0  0
   11.3881  -15.2741   21.6468 N   0  0  0  0  0  0  0  0  0  0  0  0
   11.4039  -16.1350   23.8500 C   0  0  0  0  0  0  0  0  0  0  0  0
   10.1313  -15.5480   23.9821 O   0  0  0  0  0  0  0  0  0  0  0  0
   15.3076  -16.3675   21.3378 C   0  0  0  0  0  0  0  0  0  0  0  0
   16.1437  -16.3092   20.2473 C   0  0  0  0  0  0  0  0  0  0  0  0
   11.8144  -16.7074   24.9025 O   0  0  0  0  0  0  0  0  0  0  0  0
  1  2  1  0
  2  3  2  0
  4  5  1  0
  4  2  1  0
  5  6  1  6
  7  5  1  0
  7  8  2  0
 10  9  1  1
 11 10  1  0
 12 10  1  0
 13 12  1  1
 13 14  1  0
 14  7  1  0
 15 24  1  0
 15 13  1  0
 16 15  2  0
 18 17  1  0
 18 28  2  0
 19 18  1  0
 20 19  2  0
 20 21  1  0
 21 27  2  0
 22 21  1  0
 23 22  1  1
 23 24  1  0
 23 25  1  0
 25 26  1  0
 27 28  1  0
 29 25  2  0
M  END
$$$$
