NLY.pdb
     RDKit          3D

 29 29  0  0  1  0  0  0  0  0999 V2000
    5.8088  -19.2809   20.4779 N   0  0  0  0  0  0  0  0  0  0  0  0
    7.2263  -19.4981   20.6812 C   0  0  0  0  0  0  0  0  0  0  0  0
    7.6385  -20.6653   20.6900 O   0  0  0  0  0  0  0  0  0  0  0  0
    8.0729  -18.3026   20.8631 C   0  0  0  0  0  0  0  0  0  0  0  0
    7.2737  -17.0251   20.9747 C   0  0  2  0  0  0  0  0  0  0  0  0
    7.2150  -16.5100   19.5871 N   0  0  0  0  0  0  0  0  0  0  0  0
    8.0356  -15.9915   21.7657 C   0  0  0  0  0  0  0  0  0  0  0  0
    9.1262  -15.4968   21.3082 O   0  0  0  0  0  0  0  0  0  0  0  0
    7.7539  -11.7592   24.8431 C   0  0  0  0  0  0  0  0  0  0  0  0
    6.9395  -12.9690   25.1566 C   0  0  2  0  0  0  0  0  0  0  0  0
    6.1859  -12.7046   26.4341 C   0  0  0  0  0  0  0  0  0  0  0  0
    7.6113  -14.2733   25.0950 C   0  0  0  0  0  0  0  0  0  0  0  0
    8.3027  -14.6974   23.8639 C   0  0  2  0  0  0  0  0  0  0  0  0
    7.5415  -15.5684   23.0174 N   0  0  0  0  0  0  0  0  0  0  0  0
    9.7054  -15.1785   24.0503 C   0  0  0  0  0  0  0  0  0  0  0  0
   10.6852  -14.5851   23.5265 O   0  0  0  0  0  0  0  0  0  0  0  0
    9.7646  -15.7110   31.2655 O   0  0  0  0  0  0  0  0  0  0  0  0
   10.3051  -15.6397   29.9938 C   0  0  0  0  0  0  0  0  0  0  0  0
   10.3615  -14.4858   29.2460 C   0  0  0  0  0  0  0  0  0  0  0  0
   10.9173  -14.4992   27.9855 C   0  0  0  0  0  0  0  0  0  0  0  0
   11.4416  -15.6659   27.4154 C   0  0  0  0  0  0  0  0  0  0  0  0
   12.0236  -15.6752   26.0591 C   0  0  0  0  0  0  0  0  0  0  0  0
   11.4117  -16.6593   25.1177 C   0  0  2  0  0  0  0  0  0  0  0  0
   10.0147  -16.3282   24.8270 N   0  0  0  0  0  0  0  0  0  0  0  0
   11.4210  -18.0061   25.7226 C   0  0  0  0  0  0  0  0  0  0  0  0
   10.2355  -18.7126   26.0002 O   0  0  0  0  0  0  0  0  0  0  0  0
   11.3612  -16.7926   28.2021 C   0  0  0  0  0  0  0  0  0  0  0  0
   10.8129  -16.8108   29.4634 C   0  0  0  0  0  0  0  0  0  0  0  0
   12.4752  -18.6325   26.0394 O   0  0  0  0  0  0  0  0  0  0  0  0
  1  2  1  0
  2  3  2  0
  4  5  1  0
  4  2  1  0
  5  6  1  6
  7  5  1  0
  7  8  2  0
 10  9  1  1
 11 10  1  0
 12 10  1  0
 13 12  1  1
 13 14  1  0
 14  7  1  0
 15 24  1  0
 15 13  1  0
 16 15  2  0
 18 17  1  0
 18 28  2  0
 19 18  1  0
 20 19  2  0
 20 21  1  0
 21 27  2  0
 22 21  1  0
 23 22  1  1
 23 24  1  0
 23 25  1  0
 25 26  1  0
 27 28  1  0
 29 25  2  0
M  END
$$$$
