PIV.pdb
     RDKit          3D

 23 23  0  0  1  0  0  0  0  0999 V2000
    7.7633  -15.1826   20.1699 N   0  0  0  0  0  0  0  0  0  0  0  0
    7.9126  -16.3569   19.3696 C   0  0  0  0  0  0  0  0  0  0  0  0
    6.7573  -17.2487   19.7439 C   0  0  0  0  0  0  0  0  0  0  0  0
    6.6372  -16.9489   21.2447 C   0  0  0  0  0  0  0  0  0  0  0  0
    7.0822  -15.5544   21.3940 C   0  0  1  0  0  0  0  0  0  0  0  0
    7.8736  -15.2492   22.5959 C   0  0  0  0  0  0  0  0  0  0  0  0
    9.1338  -15.2959   22.4663 O   0  0  0  0  0  0  0  0  0  0  0  0
    5.9826  -11.6124   26.1424 C   0  0  0  0  0  0  0  0  0  0  0  0
    6.9401  -12.4474   25.4197 C   0  0  0  0  0  0  0  0  0  0  0  0
    7.4945  -13.6889   25.9267 C   0  0  2  0  0  0  0  0  0  0  0  0
    8.2211  -13.5416   27.2696 C   0  0  0  0  0  0  0  0  0  0  0  0
    8.2225  -14.6499   25.0464 C   0  0  2  0  0  0  0  0  0  0  0  0
    7.3769  -14.9178   23.8480 N   0  0  0  0  0  0  0  0  0  0  0  0
    8.5639  -15.9047   25.6942 C   0  0  0  0  0  0  0  0  0  0  0  0
    7.6813  -16.6686   26.1287 O   0  0  0  0  0  0  0  0  0  0  0  0
   10.9735  -18.5650   24.1582 C   0  0  0  0  0  0  0  0  0  0  0  0
   11.2282  -18.4105   25.6187 C   0  0  1  0  0  0  0  0  0  0  0  0
   12.5168  -17.6394   25.8070 C   0  0  0  0  0  0  0  0  0  0  0  0
   10.1524  -17.6683   26.3643 C   0  0  2  0  0  0  0  0  0  0  0  0
    9.9271  -16.3448   25.8755 N   0  0  0  0  0  0  0  0  0  0  0  0
   10.5247  -17.5825   27.8238 C   0  0  0  0  0  0  0  0  0  0  0  0
   10.8127  -16.4855   28.3597 O   0  0  0  0  0  0  0  0  0  0  0  0
   10.5587  -18.7221   28.6172 O   0  0  0  0  0  0  0  0  0  0  0  0
  1  5  1  0
  2  3  1  0
  2  1  1  0
  3  4  1  0
  4  5  1  0
  5  6  1  1
  6  7  2  0
  8  9  1  0
  9 10  1  0
 10 12  1  0
 10 11  1  1
 12 14  1  0
 12 13  1  6
 13  6  1  0
 14 15  2  0
 14 20  1  0
 17 19  1  0
 17 16  1  6
 18 17  1  0
 19 21  1  0
 19 20  1  6
 21 22  2  0
 21 23  1  0
M  END
$$$$
