PIV.pdb
     RDKit          3D

 23 23  0  0  1  0  0  0  0  0999 V2000
    7.8589  -14.8996   19.9365 N   0  0  0  0  0  0  0  0  0  0  0  0
    7.9226  -16.0695   19.1187 C   0  0  0  0  0  0  0  0  0  0  0  0
    6.6796  -16.8564   19.4443 C   0  0  0  0  0  0  0  0  0  0  0  0
    6.5440  -16.5711   20.9465 C   0  0  0  0  0  0  0  0  0  0  0  0
    7.1111  -15.2265   21.1343 C   0  0  1  0  0  0  0  0  0  0  0  0
    7.8919  -15.0154   22.3630 C   0  0  0  0  0  0  0  0  0  0  0  0
    9.1496  -15.1341   22.2574 O   0  0  0  0  0  0  0  0  0  0  0  0
    5.8462  -11.5557   26.0846 C   0  0  0  0  0  0  0  0  0  0  0  0
    6.8365  -12.3060   25.3147 C   0  0  0  0  0  0  0  0  0  0  0  0
    7.4372  -13.5551   25.7445 C   0  0  2  0  0  0  0  0  0  0  0  0
    8.1282  -13.4735   27.1116 C   0  0  0  0  0  0  0  0  0  0  0  0
    8.2269  -14.4160   24.8154 C   0  0  2  0  0  0  0  0  0  0  0  0
    7.3877  -14.7013   23.6165 N   0  0  0  0  0  0  0  0  0  0  0  0
    8.6784  -15.6649   25.4046 C   0  0  0  0  0  0  0  0  0  0  0  0
    7.8679  -16.5394   25.7648 O   0  0  0  0  0  0  0  0  0  0  0  0
   12.1661  -19.1322   25.6798 C   0  0  0  0  0  0  0  0  0  0  0  0
   11.7526  -17.7426   25.3337 C   0  0  1  0  0  0  0  0  0  0  0  0
   11.6300  -17.6341   23.8291 C   0  0  0  0  0  0  0  0  0  0  0  0
   10.4323  -17.3207   25.9193 C   0  0  2  0  0  0  0  0  0  0  0  0
   10.0741  -15.9727   25.6096 N   0  0  0  0  0  0  0  0  0  0  0  0
   10.4809  -17.4703   27.4197 C   0  0  0  0  0  0  0  0  0  0  0  0
   10.8253  -16.5173   28.1591 O   0  0  0  0  0  0  0  0  0  0  0  0
   10.1438  -18.6739   28.0256 O   0  0  0  0  0  0  0  0  0  0  0  0
  1  5  1  0
  2  3  1  0
  2  1  1  0
  3  4  1  0
  4  5  1  0
  5  6  1  1
  6  7  2  0
  8  9  1  0
  9 10  1  0
 10 12  1  0
 10 11  1  1
 12 14  1  0
 12 13  1  6
 13  6  1  0
 14 15  2  0
 14 20  1  0
 17 19  1  0
 17 16  1  6
 18 17  1  0
 19 21  1  0
 19 20  1  1
 21 22  2  0
 21 23  1  0
M  END
$$$$
