PIV.pdb
     RDKit          3D

 23 23  0  0  1  0  0  0  0  0999 V2000
    7.8058  -14.9731   19.9864 N   0  0  0  0  0  0  0  0  0  0  0  0
    7.9309  -16.1307   19.1581 C   0  0  0  0  0  0  0  0  0  0  0  0
    6.7419  -16.9943   19.4909 C   0  0  0  0  0  0  0  0  0  0  0  0
    6.6066  -16.7293   20.9969 C   0  0  0  0  0  0  0  0  0  0  0  0
    7.0931  -15.3541   21.1896 C   0  0  1  0  0  0  0  0  0  0  0  0
    7.8739  -15.1054   22.4113 C   0  0  0  0  0  0  0  0  0  0  0  0
    9.1346  -15.1718   22.2963 O   0  0  0  0  0  0  0  0  0  0  0  0
    5.9712  -11.5712   26.0971 C   0  0  0  0  0  0  0  0  0  0  0  0
    6.8958  -12.3997   25.3257 C   0  0  0  0  0  0  0  0  0  0  0  0
    7.4586  -13.6540   25.7903 C   0  0  2  0  0  0  0  0  0  0  0  0
    8.1742  -13.5499   27.1431 C   0  0  0  0  0  0  0  0  0  0  0  0
    8.2020  -14.5746   24.8804 C   0  0  2  0  0  0  0  0  0  0  0  0
    7.3667  -14.8074   23.6676 N   0  0  0  0  0  0  0  0  0  0  0  0
    8.5528  -15.8486   25.4843 C   0  0  0  0  0  0  0  0  0  0  0  0
    7.6763  -16.6283   25.9029 O   0  0  0  0  0  0  0  0  0  0  0  0
   11.0263  -18.4885   23.9240 C   0  0  0  0  0  0  0  0  0  0  0  0
   11.2529  -18.3364   25.3894 C   0  0  1  0  0  0  0  0  0  0  0  0
   12.5248  -17.5446   25.6034 C   0  0  0  0  0  0  0  0  0  0  0  0
   10.1519  -17.6156   26.1192 C   0  0  2  0  0  0  0  0  0  0  0  0
    9.9187  -16.2908   25.6378 N   0  0  0  0  0  0  0  0  0  0  0  0
   10.4929  -17.5385   27.5868 C   0  0  0  0  0  0  0  0  0  0  0  0
   10.8116  -16.4516   28.1258 O   0  0  0  0  0  0  0  0  0  0  0  0
   10.4627  -18.6752   28.3846 O   0  0  0  0  0  0  0  0  0  0  0  0
  1  5  1  0
  2  3  1  0
  2  1  1  0
  3  4  1  0
  4  5  1  0
  5  6  1  1
  6  7  2  0
  8  9  1  0
  9 10  1  0
 10 12  1  0
 10 11  1  1
 12 14  1  0
 12 13  1  6
 13  6  1  0
 14 15  2  0
 14 20  1  0
 17 19  1  0
 17 16  1  6
 18 17  1  0
 19 21  1  0
 19 20  1  6
 21 22  2  0
 21 23  1  0
M  END
$$$$
