PIV.pdb
     RDKit          3D

 23 23  0  0  1  0  0  0  0  0999 V2000
    8.3149  -15.6357   20.1178 N   0  0  0  0  0  0  0  0  0  0  0  0
    8.5848  -16.8907   19.4901 C   0  0  0  0  0  0  0  0  0  0  0  0
    7.4553  -17.7985   19.9029 C   0  0  0  0  0  0  0  0  0  0  0  0
    7.2110  -17.3181   21.3403 C   0  0  0  0  0  0  0  0  0  0  0  0
    7.5681  -15.8907   21.3336 C   0  0  1  0  0  0  0  0  0  0  0  0
    8.2530  -15.3858   22.5336 C   0  0  0  0  0  0  0  0  0  0  0  0
    9.5185  -15.3352   22.4795 O   0  0  0  0  0  0  0  0  0  0  0  0
    7.2100  -11.6319   27.3982 C   0  0  0  0  0  0  0  0  0  0  0  0
    8.0294  -12.5784   26.6438 C   0  0  0  0  0  0  0  0  0  0  0  0
    7.5487  -13.3774   25.5319 C   0  0  2  0  0  0  0  0  0  0  0  0
    6.1088  -13.8776   25.7038 C   0  0  0  0  0  0  0  0  0  0  0  0
    8.3899  -14.4304   24.8903 C   0  0  2  0  0  0  0  0  0  0  0  0
    7.6513  -14.9629   23.7097 N   0  0  0  0  0  0  0  0  0  0  0  0
    8.7480  -15.5243   25.7770 C   0  0  0  0  0  0  0  0  0  0  0  0
    7.8999  -16.3556   26.1526 O   0  0  0  0  0  0  0  0  0  0  0  0
   11.5596  -17.9170   24.8568 C   0  0  0  0  0  0  0  0  0  0  0  0
   11.6382  -17.6230   26.3160 C   0  0  1  0  0  0  0  0  0  0  0  0
   12.7991  -16.6829   26.5591 C   0  0  0  0  0  0  0  0  0  0  0  0
   10.4093  -16.9697   26.8877 C   0  0  2  0  0  0  0  0  0  0  0  0
   10.0891  -15.7192   26.2752 N   0  0  0  0  0  0  0  0  0  0  0  0
   10.6067  -16.7419   28.3660 C   0  0  0  0  0  0  0  0  0  0  0  0
   10.6538  -15.5842   28.8466 O   0  0  0  0  0  0  0  0  0  0  0  0
   10.7423  -17.8139   29.2388 O   0  0  0  0  0  0  0  0  0  0  0  0
  1  5  1  0
  2  3  1  0
  2  1  1  0
  3  4  1  0
  4  5  1  0
  5  6  1  1
  6  7  2  0
  8  9  1  0
  9 10  1  0
 10 12  1  0
 10 11  1  1
 12 14  1  0
 12 13  1  6
 13  6  1  0
 14 15  2  0
 14 20  1  0
 17 19  1  0
 17 16  1  6
 18 17  1  0
 19 21  1  0
 19 20  1  6
 21 22  2  0
 21 23  1  0
M  END
$$$$
