PIV.pdb
     RDKit          3D

 23 23  0  0  1  0  0  0  0  0999 V2000
    7.8250  -14.6929   19.9639 N   0  0  0  0  0  0  0  0  0  0  0  0
    7.8867  -15.8273   19.0972 C   0  0  0  0  0  0  0  0  0  0  0  0
    6.6423  -16.6250   19.3890 C   0  0  0  0  0  0  0  0  0  0  0  0
    6.5068  -16.4034   20.9019 C   0  0  0  0  0  0  0  0  0  0  0  0
    7.0763  -15.0689   21.1466 C   0  0  1  0  0  0  0  0  0  0  0  0
    7.8573  -14.9115   22.3833 C   0  0  0  0  0  0  0  0  0  0  0  0
    9.1123  -15.0556   22.2780 O   0  0  0  0  0  0  0  0  0  0  0  0
    5.7741  -11.5859   26.1742 C   0  0  0  0  0  0  0  0  0  0  0  0
    6.8260  -12.2719   25.4264 C   0  0  0  0  0  0  0  0  0  0  0  0
    7.4083  -13.5452   25.8075 C   0  0  2  0  0  0  0  0  0  0  0  0
    8.0869  -13.5306   27.1831 C   0  0  0  0  0  0  0  0  0  0  0  0
    8.1973  -14.3746   24.8494 C   0  0  2  0  0  0  0  0  0  0  0  0
    7.3557  -14.6228   23.6440 N   0  0  0  0  0  0  0  0  0  0  0  0
    8.6521  -15.6410   25.3973 C   0  0  0  0  0  0  0  0  0  0  0  0
    7.8457  -16.5403   25.7013 O   0  0  0  0  0  0  0  0  0  0  0  0
   12.1391  -19.0937   25.7908 C   0  0  0  0  0  0  0  0  0  0  0  0
   11.7038  -17.7320   25.3687 C   0  0  1  0  0  0  0  0  0  0  0  0
   11.5207  -17.7257   23.8663 C   0  0  0  0  0  0  0  0  0  0  0  0
   10.4054  -17.2758   25.9771 C   0  0  2  0  0  0  0  0  0  0  0  0
   10.0468  -15.9388   25.6232 N   0  0  0  0  0  0  0  0  0  0  0  0
   10.5001  -17.3639   27.4802 C   0  0  0  0  0  0  0  0  0  0  0  0
   10.7787  -16.3580   28.1760 O   0  0  0  0  0  0  0  0  0  0  0  0
   10.2802  -18.5679   28.1372 O   0  0  0  0  0  0  0  0  0  0  0  0
  1  5  1  0
  2  3  1  0
  2  1  1  0
  3  4  1  0
  4  5  1  0
  5  6  1  1
  6  7  2  0
  8  9  1  0
  9 10  1  0
 10 12  1  0
 10 11  1  1
 12 14  1  0
 12 13  1  6
 13  6  1  0
 14 15  2  0
 14 20  1  0
 17 19  1  0
 17 16  1  1
 18 17  1  0
 19 21  1  0
 19 20  1  1
 21 22  2  0
 21 23  1  0
M  END
$$$$
