PIV.pdb
     RDKit          3D

 23 23  0  0  1  0  0  0  0  0999 V2000
    8.6179  -15.1310   20.1658 N   0  0  0  0  0  0  0  0  0  0  0  0
    7.7159  -14.9373   19.0747 C   0  0  0  0  0  0  0  0  0  0  0  0
    7.5215  -13.4467   18.9727 C   0  0  0  0  0  0  0  0  0  0  0  0
    7.5548  -13.0503   20.4554 C   0  0  0  0  0  0  0  0  0  0  0  0
    8.4445  -14.0322   21.0950 C   0  0  1  0  0  0  0  0  0  0  0  0
    8.0542  -14.4853   22.4390 C   0  0  0  0  0  0  0  0  0  0  0  0
    7.5374  -13.6122   23.1989 O   0  0  0  0  0  0  0  0  0  0  0  0
    5.8399  -18.9203   22.5007 C   0  0  0  0  0  0  0  0  0  0  0  0
    5.9878  -17.7501   23.3639 C   0  0  0  0  0  0  0  0  0  0  0  0
    7.1226  -17.5103   24.2360 C   0  0  2  0  0  0  0  0  0  0  0  0
    6.9717  -18.1237   25.6338 C   0  0  0  0  0  0  0  0  0  0  0  0
    7.7865  -16.1763   24.3245 C   0  0  2  0  0  0  0  0  0  0  0  0
    8.1965  -15.7668   22.9507 N   0  0  0  0  0  0  0  0  0  0  0  0
    8.9393  -16.1458   25.2082 C   0  0  0  0  0  0  0  0  0  0  0  0
   10.0311  -16.6360   24.8630 O   0  0  0  0  0  0  0  0  0  0  0  0
    9.8998  -13.0575   27.7342 C   0  0  0  0  0  0  0  0  0  0  0  0
   10.1507  -14.4130   28.3012 C   0  0  1  0  0  0  0  0  0  0  0  0
    9.0929  -14.7057   29.3433 C   0  0  0  0  0  0  0  0  0  0  0  0
   10.1033  -15.5292   27.2932 C   0  0  2  0  0  0  0  0  0  0  0  0
    8.8989  -15.5550   26.5251 N   0  0  0  0  0  0  0  0  0  0  0  0
   10.2451  -16.8516   28.0055 C   0  0  0  0  0  0  0  0  0  0  0  0
    9.2622  -17.6140   28.1665 O   0  0  0  0  0  0  0  0  0  0  0  0
   11.4746  -17.2621   28.5048 O   0  0  0  0  0  0  0  0  0  0  0  0
  1  5  1  0
  2  3  1  0
  2  1  1  0
  3  4  1  0
  4  5  1  0
  5  6  1  1
  6  7  2  0
  8  9  1  0
  9 10  1  0
 10 12  1  0
 10 11  1  1
 12 14  1  0
 12 13  1  6
 13  6  1  0
 14 15  2  0
 14 20  1  0
 17 19  1  0
 17 16  1  6
 18 17  1  0
 19 21  1  0
 19 20  1  1
 21 22  2  0
 21 23  1  0
M  END
$$$$
