PIV.pdb
     RDKit          3D

 23 23  0  0  1  0  0  0  0  0999 V2000
    7.7203  -14.6865   19.9363 N   0  0  0  0  0  0  0  0  0  0  0  0
    7.8668  -15.8252   19.0856 C   0  0  0  0  0  0  0  0  0  0  0  0
    6.6948  -16.7176   19.4022 C   0  0  0  0  0  0  0  0  0  0  0  0
    6.5557  -16.4845   20.9131 C   0  0  0  0  0  0  0  0  0  0  0  0
    7.0161  -15.1043   21.1322 C   0  0  1  0  0  0  0  0  0  0  0  0
    7.7930  -14.8645   22.3582 C   0  0  0  0  0  0  0  0  0  0  0  0
    9.0542  -14.9250   22.2455 O   0  0  0  0  0  0  0  0  0  0  0  0
    5.6947  -11.5041   26.1317 C   0  0  0  0  0  0  0  0  0  0  0  0
    6.6936  -12.2307   25.3503 C   0  0  0  0  0  0  0  0  0  0  0  0
    7.3162  -13.4740   25.7652 C   0  0  2  0  0  0  0  0  0  0  0  0
    8.0136  -13.3941   27.1292 C   0  0  0  0  0  0  0  0  0  0  0  0
    8.1142  -14.3138   24.8238 C   0  0  2  0  0  0  0  0  0  0  0  0
    7.2817  -14.5807   23.6160 N   0  0  0  0  0  0  0  0  0  0  0  0
    8.5689  -15.5714   25.3918 C   0  0  0  0  0  0  0  0  0  0  0  0
    7.7614  -16.4592   25.7251 O   0  0  0  0  0  0  0  0  0  0  0  0
   12.0409  -19.0280   25.9104 C   0  0  0  0  0  0  0  0  0  0  0  0
   11.6081  -17.6874   25.4232 C   0  0  1  0  0  0  0  0  0  0  0  0
   11.4126  -17.7566   23.9240 C   0  0  0  0  0  0  0  0  0  0  0  0
   10.3168  -17.1947   26.0181 C   0  0  2  0  0  0  0  0  0  0  0  0
    9.9647  -15.8730   25.6052 N   0  0  0  0  0  0  0  0  0  0  0  0
   10.4209  -17.2141   27.5231 C   0  0  0  0  0  0  0  0  0  0  0  0
   10.7254  -16.1827   28.1689 O   0  0  0  0  0  0  0  0  0  0  0  0
   10.1810  -18.3809   28.2375 O   0  0  0  0  0  0  0  0  0  0  0  0
  1  5  1  0
  2  3  1  0
  2  1  1  0
  3  4  1  0
  4  5  1  0
  5  6  1  1
  6  7  2  0
  8  9  1  0
  9 10  1  0
 10 12  1  0
 10 11  1  1
 12 14  1  0
 12 13  1  6
 13  6  1  0
 14 15  2  0
 14 20  1  0
 17 19  1  0
 17 16  1  1
 18 17  1  0
 19 21  1  0
 19 20  1  6
 21 22  2  0
 21 23  1  0
M  END
$$$$
