PIV.pdb
     RDKit          3D

 23 23  0  0  1  0  0  0  0  0999 V2000
    6.8736  -15.7661   21.3862 N   0  0  0  0  0  0  0  0  0  0  0  0
    6.1241  -14.8533   20.5819 C   0  0  0  0  0  0  0  0  0  0  0  0
    7.0971  -14.3244   19.5602 C   0  0  0  0  0  0  0  0  0  0  0  0
    8.3823  -14.2533   20.3968 C   0  0  0  0  0  0  0  0  0  0  0  0
    8.2584  -15.3382   21.3830 C   0  0  1  0  0  0  0  0  0  0  0  0
    8.7636  -15.0499   22.7342 C   0  0  0  0  0  0  0  0  0  0  0  0
    9.9943  -14.7602   22.8246 O   0  0  0  0  0  0  0  0  0  0  0  0
    5.9798  -11.9635   26.0515 C   0  0  0  0  0  0  0  0  0  0  0  0
    7.0201  -12.7689   25.4147 C   0  0  0  0  0  0  0  0  0  0  0  0
    7.6351  -13.9390   26.0133 C   0  0  2  0  0  0  0  0  0  0  0  0
    8.1292  -13.7151   27.4482 C   0  0  0  0  0  0  0  0  0  0  0  0
    8.5956  -14.8010   25.2632 C   0  0  2  0  0  0  0  0  0  0  0  0
    8.0277  -15.0647   23.9101 N   0  0  0  0  0  0  0  0  0  0  0  0
    8.8987  -16.0609   25.9202 C   0  0  0  0  0  0  0  0  0  0  0  0
    7.9961  -16.8615   26.2299 O   0  0  0  0  0  0  0  0  0  0  0  0
   11.4486  -18.6725   24.6337 C   0  0  0  0  0  0  0  0  0  0  0  0
   11.5866  -18.5146   26.1095 C   0  0  1  0  0  0  0  0  0  0  0  0
   12.8494  -17.7315   26.3970 C   0  0  0  0  0  0  0  0  0  0  0  0
   10.4490  -17.7817   26.7674 C   0  0  2  0  0  0  0  0  0  0  0  0
   10.2444  -16.4644   26.2537 N   0  0  0  0  0  0  0  0  0  0  0  0
   10.7103  -17.6820   28.2500 C   0  0  0  0  0  0  0  0  0  0  0  0
   10.9298  -16.5764   28.8003 O   0  0  0  0  0  0  0  0  0  0  0  0
   10.7146  -18.8180   29.0493 O   0  0  0  0  0  0  0  0  0  0  0  0
  1  5  1  0
  2  3  1  0
  2  1  1  0
  3  4  1  0
  4  5  1  0
  5  6  1  1
  6  7  2  0
  8  9  1  0
  9 10  1  0
 10 12  1  0
 10 11  1  1
 12 14  1  0
 12 13  1  6
 13  6  1  0
 14 15  2  0
 14 20  1  0
 17 19  1  0
 17 16  1  6
 18 17  1  0
 19 21  1  0
 19 20  1  6
 21 22  2  0
 21 23  1  0
M  END
$$$$
