PIV.pdb
     RDKit          3D

 23 23  0  0  1  0  0  0  0  0999 V2000
    6.8319  -14.8967   20.5798 N   0  0  0  0  0  0  0  0  0  0  0  0
    6.1291  -13.8614   19.8898 C   0  0  0  0  0  0  0  0  0  0  0  0
    7.1286  -13.2650   18.9330 C   0  0  0  0  0  0  0  0  0  0  0  0
    8.4140  -13.3538   19.7675 C   0  0  0  0  0  0  0  0  0  0  0  0
    8.2358  -14.5387   20.6214 C   0  0  1  0  0  0  0  0  0  0  0  0
    8.7516  -14.4343   21.9951 C   0  0  0  0  0  0  0  0  0  0  0  0
   10.0002  -14.2510   22.1146 O   0  0  0  0  0  0  0  0  0  0  0  0
    7.0226  -11.9871   27.3410 C   0  0  0  0  0  0  0  0  0  0  0  0
    7.8780  -12.9181   26.6076 C   0  0  0  0  0  0  0  0  0  0  0  0
    7.5851  -13.4342   25.2833 C   0  0  2  0  0  0  0  0  0  0  0  0
    6.1645  -13.9936   25.1353 C   0  0  0  0  0  0  0  0  0  0  0  0
    8.5564  -14.2808   24.5297 C   0  0  2  0  0  0  0  0  0  0  0  0
    8.0082  -14.5166   23.1634 N   0  0  0  0  0  0  0  0  0  0  0  0
    8.8500  -15.5540   25.1651 C   0  0  0  0  0  0  0  0  0  0  0  0
    7.9770  -16.4350   25.2803 O   0  0  0  0  0  0  0  0  0  0  0  0
   12.1051  -19.1030   26.0978 C   0  0  0  0  0  0  0  0  0  0  0  0
   11.8000  -17.6990   25.7011 C   0  0  1  0  0  0  0  0  0  0  0  0
   11.9336  -17.5801   24.1982 C   0  0  0  0  0  0  0  0  0  0  0  0
   10.4148  -17.2357   26.0627 C   0  0  2  0  0  0  0  0  0  0  0  0
   10.1519  -15.8796   25.6977 N   0  0  0  0  0  0  0  0  0  0  0  0
   10.2132  -17.3784   27.5511 C   0  0  0  0  0  0  0  0  0  0  0  0
   10.2291  -16.3796   28.3098 O   0  0  0  0  0  0  0  0  0  0  0  0
   10.0036  -18.6263   28.1239 O   0  0  0  0  0  0  0  0  0  0  0  0
  1  5  1  0
  2  3  1  0
  2  1  1  0
  3  4  1  0
  4  5  1  0
  5  6  1  1
  6  7  2  0
  8  9  1  0
  9 10  1  0
 10 12  1  0
 10 11  1  1
 12 14  1  0
 12 13  1  6
 13  6  1  0
 14 15  2  0
 14 20  1  0
 17 19  1  0
 17 16  1  6
 18 17  1  0
 19 21  1  0
 19 20  1  1
 21 22  2  0
 21 23  1  0
M  END
$$$$
