PIV.pdb
     RDKit          3D

 23 23  0  0  1  0  0  0  0  0999 V2000
    6.7584  -15.4482   21.0446 N   0  0  0  0  0  0  0  0  0  0  0  0
    5.9956  -14.4918   20.3062 C   0  0  0  0  0  0  0  0  0  0  0  0
    6.9506  -13.9070   19.2982 C   0  0  0  0  0  0  0  0  0  0  0  0
    8.2507  -13.8828   20.1141 C   0  0  0  0  0  0  0  0  0  0  0  0
    8.1434  -15.0209   21.0404 C   0  0  1  0  0  0  0  0  0  0  0  0
    8.6731  -14.8085   22.3962 C   0  0  0  0  0  0  0  0  0  0  0  0
    9.9272  -14.6496   22.4915 O   0  0  0  0  0  0  0  0  0  0  0  0
    5.8736  -11.7921   25.8913 C   0  0  0  0  0  0  0  0  0  0  0  0
    6.9538  -12.5197   25.2278 C   0  0  0  0  0  0  0  0  0  0  0  0
    7.5474  -13.7456   25.7283 C   0  0  2  0  0  0  0  0  0  0  0  0
    8.0058  -13.6618   27.1898 C   0  0  0  0  0  0  0  0  0  0  0  0
    8.5223  -14.5401   24.9243 C   0  0  2  0  0  0  0  0  0  0  0  0
    7.9375  -14.7659   23.5715 N   0  0  0  0  0  0  0  0  0  0  0  0
    8.8818  -15.8153   25.5205 C   0  0  0  0  0  0  0  0  0  0  0  0
    8.0286  -16.7025   25.7115 O   0  0  0  0  0  0  0  0  0  0  0  0
   12.1427  -19.3783   26.3565 C   0  0  0  0  0  0  0  0  0  0  0  0
   11.7856  -18.0324   25.8247 C   0  0  1  0  0  0  0  0  0  0  0  0
   11.6236  -18.1320   24.3232 C   0  0  0  0  0  0  0  0  0  0  0  0
   10.5048  -17.4646   26.3738 C   0  0  2  0  0  0  0  0  0  0  0  0
   10.2300  -16.1361   25.9256 N   0  0  0  0  0  0  0  0  0  0  0  0
   10.5673  -17.4579   27.8811 C   0  0  0  0  0  0  0  0  0  0  0  0
   10.9601  -16.4479   28.5129 O   0  0  0  0  0  0  0  0  0  0  0  0
   10.1897  -18.5762   28.6135 O   0  0  0  0  0  0  0  0  0  0  0  0
  1  5  1  0
  2  3  1  0
  2  1  1  0
  3  4  1  0
  4  5  1  0
  5  6  1  1
  6  7  2  0
  8  9  1  0
  9 10  1  0
 10 12  1  0
 10 11  1  1
 12 14  1  0
 12 13  1  6
 13  6  1  0
 14 15  2  0
 14 20  1  0
 17 19  1  0
 17 16  1  1
 18 17  1  0
 19 21  1  0
 19 20  1  6
 21 22  2  0
 21 23  1  0
M  END
$$$$
