PIV.pdb
     RDKit          3D

 23 23  0  0  1  0  0  0  0  0999 V2000
    7.0562  -15.9707   21.5503 N   0  0  0  0  0  0  0  0  0  0  0  0
    6.1700  -15.1795   20.7562 C   0  0  0  0  0  0  0  0  0  0  0  0
    7.0355  -14.5436   19.6995 C   0  0  0  0  0  0  0  0  0  0  0  0
    8.3221  -14.2880   20.4970 C   0  0  0  0  0  0  0  0  0  0  0  0
    8.3709  -15.3627   21.5008 C   0  0  1  0  0  0  0  0  0  0  0  0
    8.8698  -14.9867   22.8327 C   0  0  0  0  0  0  0  0  0  0  0  0
   10.0825  -14.6231   22.8969 O   0  0  0  0  0  0  0  0  0  0  0  0
    5.8727  -11.9224   25.9419 C   0  0  0  0  0  0  0  0  0  0  0  0
    6.9501  -12.7098   25.3457 C   0  0  0  0  0  0  0  0  0  0  0  0
    7.6889  -13.7489   26.0386 C   0  0  2  0  0  0  0  0  0  0  0  0
    8.2074  -13.3266   27.4191 C   0  0  0  0  0  0  0  0  0  0  0  0
    8.6990  -14.6008   25.3442 C   0  0  2  0  0  0  0  0  0  0  0  0
    8.1459  -14.9919   24.0160 N   0  0  0  0  0  0  0  0  0  0  0  0
    9.0796  -15.7913   26.0850 C   0  0  0  0  0  0  0  0  0  0  0  0
    8.2211  -16.5607   26.5568 O   0  0  0  0  0  0  0  0  0  0  0  0
   12.0606  -18.3498   25.1251 C   0  0  0  0  0  0  0  0  0  0  0  0
   11.9899  -18.0564   26.5848 C   0  0  1  0  0  0  0  0  0  0  0  0
   13.1400  -17.1437   26.9518 C   0  0  0  0  0  0  0  0  0  0  0  0
   10.7226  -17.3735   27.0229 C   0  0  2  0  0  0  0  0  0  0  0  0
   10.4561  -16.1580   26.3210 N   0  0  0  0  0  0  0  0  0  0  0  0
   10.8051  -17.0664   28.4977 C   0  0  0  0  0  0  0  0  0  0  0  0
   10.8247  -17.9826   29.3543 O   0  0  0  0  0  0  0  0  0  0  0  0
   10.8619  -15.7538   28.9486 O   0  0  0  0  0  0  0  0  0  0  0  0
  1  5  1  0
  2  3  1  0
  2  1  1  0
  3  4  1  0
  4  5  1  0
  5  6  1  1
  6  7  2  0
  8  9  1  0
  9 10  1  0
 10 12  1  0
 10 11  1  1
 12 14  1  0
 12 13  1  6
 13  6  1  0
 14 15  2  0
 14 20  1  0
 17 19  1  0
 17 16  1  6
 18 17  1  0
 19 21  1  0
 19 20  1  6
 21 22  2  0
 21 23  1  0
M  END
$$$$
