RIQ.pdb
     RDKit          3D

 29 28  0  0  1  0  0  0  0  0999 V2000
    9.1970  -19.5636   19.4128 N   0  0  0  0  0  0  0  0  0  0  0  0
    8.4943  -19.3055   18.2175 C   0  0  0  0  0  0  0  0  0  0  0  0
    9.0953  -19.3901   17.0926 N   0  0  0  0  0  0  0  0  0  0  0  0
    7.1052  -18.9461   18.2339 N   0  0  0  0  0  0  0  0  0  0  0  0
    6.4159  -18.5870   19.4635 C   0  0  0  0  0  0  0  0  0  0  0  0
    7.2932  -17.6224   20.2042 C   0  0  0  0  0  0  0  0  0  0  0  0
    6.6942  -17.1390   21.4963 C   0  0  0  0  0  0  0  0  0  0  0  0
    6.7831  -15.6072   21.4644 C   0  0  2  0  0  0  0  0  0  0  0  0
    7.3002  -15.2627   20.1622 N   0  0  0  0  0  0  0  0  0  0  0  0
    7.6219  -15.0967   22.5652 C   0  0  0  0  0  0  0  0  0  0  0  0
    8.8685  -15.2134   22.4457 O   0  0  0  0  0  0  0  0  0  0  0  0
    8.6485  -19.2297   16.1704 C   0  0  0  0  0  0  0  0  0  0  0  0
    5.5265  -11.4474   26.0939 C   0  0  0  0  0  0  0  0  0  0  0  0
    6.6781  -11.9386   25.2287 C   0  0  2  0  0  0  0  0  0  0  0  0
    7.1669  -13.2275   25.8420 C   0  0  0  0  0  0  0  0  0  0  0  0
    8.0393  -12.8750   27.0283 C   0  0  2  0  0  0  0  0  0  0  0  0
    7.9245  -14.0814   24.8543 N   0  0  0  0  0  0  0  0  0  0  0  0
    7.1275  -14.4883   23.7395 C   0  0  0  0  0  0  0  0  0  0  0  0
    8.3290  -15.3243   25.5982 O   0  0  0  0  0  0  0  0  0  0  0  0
    7.4708  -16.0957   26.1170 N   0  0  0  0  0  0  0  0  0  0  0  0
   14.1856  -19.4529   26.6443 C   0  0  0  0  0  0  0  0  0  0  0  0
   13.1396  -19.1561   25.7531 O   0  0  0  0  0  0  0  0  0  0  0  0
   13.3301  -19.2387   24.5040 C   0  0  0  0  0  0  0  0  0  0  0  0
   11.8170  -18.7473   26.2908 C   0  0  0  0  0  0  0  0  0  0  0  0
   11.4404  -17.3896   25.7120 C   0  0  1  0  0  0  0  0  0  0  0  0
   10.0693  -16.9614   26.2467 N   0  0  0  0  0  0  0  0  0  0  0  0
    9.6868  -15.6790   25.7467 C   0  0  0  0  0  0  0  0  0  0  0  0
   10.0956  -16.9869   27.7290 O   0  0  0  0  0  0  0  0  0  0  0  0
    9.9215  -18.0780   28.3241 O   0  0  0  0  0  0  0  0  0  0  0  0
  2  3  2  0
  2  1  1  0
  4  2  1  0
  5  4  1  0
  5  6  1  0
  7  6  1  0
  8  7  1  0
  8  9  1  6
 10 11  2  0
 10  8  1  0
 12 13  1  0
 13 14  1  0
 14 16  1  0
 14 15  1  6
 16 18  1  0
 16 17  1  6
 17 10  1  0
 18 26  1  0
 19 18  2  0
 20 21  1  0
 21 22  2  0
 21 23  1  0
 23 24  1  0
 25 24  1  6
 25 27  1  0
 26 25  1  0
 27 28  2  0
 27 29  1  0
M  END
$$$$
