RIQ.pdb
     RDKit          3D

 29 28  0  0  1  0  0  0  0  0999 V2000
    8.9877  -14.9040   15.8803 N   0  0  0  0  0  0  0  0  0  0  0  0
    8.3011  -14.1681   16.8684 C   0  0  0  0  0  0  0  0  0  0  0  0
    8.8199  -13.1020   17.3461 N   0  0  0  0  0  0  0  0  0  0  0  0
    7.0199  -14.5921   17.3559 N   0  0  0  0  0  0  0  0  0  0  0  0
    6.7209  -14.6644   18.7776 C   0  0  0  0  0  0  0  0  0  0  0  0
    7.5296  -15.7905   19.3493 C   0  0  0  0  0  0  0  0  0  0  0  0
    8.3157  -15.4028   20.5715 C   0  0  0  0  0  0  0  0  0  0  0  0
    7.3239  -15.4172   21.7425 C   0  0  2  0  0  0  0  0  0  0  0  0
    6.0877  -14.8801   21.2277 N   0  0  0  0  0  0  0  0  0  0  0  0
    7.8430  -14.6536   22.8929 C   0  0  0  0  0  0  0  0  0  0  0  0
    8.6312  -13.7040   22.6498 O   0  0  0  0  0  0  0  0  0  0  0  0
    8.4115  -12.5399   18.1162 C   0  0  0  0  0  0  0  0  0  0  0  0
    5.6432  -11.9373   26.5517 C   0  0  0  0  0  0  0  0  0  0  0  0
    6.7173  -12.4553   25.6062 C   0  0  2  0  0  0  0  0  0  0  0  0
    7.4057  -13.5982   26.3107 C   0  0  0  0  0  0  0  0  0  0  0  0
    8.2519  -13.0153   27.4227 C   0  0  2  0  0  0  0  0  0  0  0  0
    8.2500  -14.4254   25.3717 N   0  0  0  0  0  0  0  0  0  0  0  0
    7.5195  -14.9110   24.2430 C   0  0  0  0  0  0  0  0  0  0  0  0
    8.7078  -15.6203   26.1619 O   0  0  0  0  0  0  0  0  0  0  0  0
    8.0171  -16.0919   27.1113 N   0  0  0  0  0  0  0  0  0  0  0  0
   12.2683  -17.3360   23.6672 C   0  0  0  0  0  0  0  0  0  0  0  0
   11.8965  -18.4428   24.4503 O   0  0  0  0  0  0  0  0  0  0  0  0
   11.1580  -19.3462   23.9587 C   0  0  0  0  0  0  0  0  0  0  0  0
   12.3772  -18.5390   25.8522 C   0  0  0  0  0  0  0  0  0  0  0  0
   12.0658  -17.2362   26.5776 C   0  0  2  0  0  0  0  0  0  0  0  0
   10.5567  -17.1283   26.8227 N   0  0  0  0  0  0  0  0  0  0  0  0
    9.9302  -16.2637   25.8736 C   0  0  0  0  0  0  0  0  0  0  0  0
   10.3210  -16.6771   28.2154 O   0  0  0  0  0  0  0  0  0  0  0  0
   10.5100  -15.4712   28.5068 O   0  0  0  0  0  0  0  0  0  0  0  0
  2  3  2  0
  2  1  1  0
  4  2  1  0
  5  4  1  0
  5  6  1  0
  7  6  1  0
  8  7  1  0
  8  9  1  6
 10 11  2  0
 10  8  1  0
 12 13  1  0
 13 14  1  0
 14 16  1  0
 14 15  1  1
 16 18  1  0
 16 17  1  6
 17 10  1  0
 18 26  1  0
 19 18  2  0
 20 21  1  0
 21 22  2  0
 21 23  1  0
 23 24  1  0
 25 24  1  6
 25 27  1  0
 26 25  1  0
 27 28  2  0
 27 29  1  0
M  END
$$$$
