RIQ.pdb
     RDKit          3D

 29 28  0  0  1  0  0  0  0  0999 V2000
    6.8162  -15.1806   15.9983 N   0  0  0  0  0  0  0  0  0  0  0  0
    8.1976  -15.3363   15.7601 C   0  0  0  0  0  0  0  0  0  0  0  0
    8.7430  -14.7534   14.7618 N   0  0  0  0  0  0  0  0  0  0  0  0
    9.0147  -16.1425   16.6211 N   0  0  0  0  0  0  0  0  0  0  0  0
    8.6079  -16.4805   17.9761 C   0  0  0  0  0  0  0  0  0  0  0  0
    8.3273  -15.1943   18.6943 C   0  0  0  0  0  0  0  0  0  0  0  0
    7.8848  -15.3879   20.1186 C   0  0  0  0  0  0  0  0  0  0  0  0
    7.5392  -13.9920   20.6545 C   0  0  2  0  0  0  0  0  0  0  0  0
    8.0022  -13.0547   19.6600 N   0  0  0  0  0  0  0  0  0  0  0  0
    8.1438  -13.7628   21.9803 C   0  0  0  0  0  0  0  0  0  0  0  0
    9.3515  -13.4128   22.0136 O   0  0  0  0  0  0  0  0  0  0  0  0
    9.7484  -14.8196   14.5160 C   0  0  0  0  0  0  0  0  0  0  0  0
    5.1884  -11.3479   25.8892 C   0  0  0  0  0  0  0  0  0  0  0  0
    6.2997  -11.7120   24.9153 C   0  0  2  0  0  0  0  0  0  0  0  0
    6.9200  -12.9920   25.4185 C   0  0  0  0  0  0  0  0  0  0  0  0
    7.4963  -12.7195   26.7918 C   0  0  2  0  0  0  0  0  0  0  0  0
    7.9833  -13.5193   24.4857 N   0  0  0  0  0  0  0  0  0  0  0  0
    7.4666  -13.9077   23.2107 C   0  0  0  0  0  0  0  0  0  0  0  0
    8.5424  -14.7519   25.1414 O   0  0  0  0  0  0  0  0  0  0  0  0
    9.1756  -14.6922   26.2351 N   0  0  0  0  0  0  0  0  0  0  0  0
   12.0498  -20.1787   24.2451 C   0  0  0  0  0  0  0  0  0  0  0  0
   12.3213  -18.8062   24.1076 O   0  0  0  0  0  0  0  0  0  0  0  0
   13.1666  -18.4111   23.2516 C   0  0  0  0  0  0  0  0  0  0  0  0
   11.6094  -17.8314   24.9728 C   0  0  0  0  0  0  0  0  0  0  0  0
   10.5302  -17.1330   24.1555 C   0  0  1  0  0  0  0  0  0  0  0  0
    9.2119  -17.1267   24.9373 N   0  0  0  0  0  0  0  0  0  0  0  0
    8.3815  -16.0274   24.5594 C   0  0  0  0  0  0  0  0  0  0  0  0
    9.5079  -17.1167   26.3902 O   0  0  0  0  0  0  0  0  0  0  0  0
    9.6109  -16.0164   26.9849 O   0  0  0  0  0  0  0  0  0  0  0  0
  2  3  2  0
  2  1  1  0
  4  2  1  0
  5  4  1  0
  5  6  1  0
  7  6  1  0
  8  7  1  0
  8  9  1  6
 10 11  2  0
 10  8  1  0
 12 13  1  0
 13 14  1  0
 14 16  1  0
 14 15  1  6
 16 18  1  0
 16 17  1  6
 17 10  1  0
 18 26  1  0
 19 18  2  0
 20 21  1  0
 21 22  2  0
 21 23  1  0
 23 24  1  0
 25 24  1  6
 25 27  1  0
 26 25  1  0
 27 28  2  0
 27 29  1  0
M  END
$$$$
