RIQ.pdb
     RDKit          3D

 29 28  0  0  1  0  0  0  0  0999 V2000
    7.6727  -13.0649   16.2722 N   0  0  0  0  0  0  0  0  0  0  0  0
    8.1891  -14.3347   15.9401 C   0  0  0  0  0  0  0  0  0  0  0  0
    7.9773  -14.8264   14.7794 N   0  0  0  0  0  0  0  0  0  0  0  0
    8.9551  -15.0965   16.8846 N   0  0  0  0  0  0  0  0  0  0  0  0
    8.3807  -15.5844   18.1287 C   0  0  0  0  0  0  0  0  0  0  0  0
    8.2397  -14.4088   19.0490 C   0  0  0  0  0  0  0  0  0  0  0  0
    9.1128  -14.4965   20.2705 C   0  0  0  0  0  0  0  0  0  0  0  0
    8.2738  -15.1952   21.3489 C   0  0  2  0  0  0  0  0  0  0  0  0
    6.9022  -14.8313   21.0882 N   0  0  0  0  0  0  0  0  0  0  0  0
    8.7180  -14.8142   22.7030 C   0  0  0  0  0  0  0  0  0  0  0  0
    9.9555  -14.6974   22.8952 O   0  0  0  0  0  0  0  0  0  0  0  0
    8.3665  -15.7253   14.4386 C   0  0  0  0  0  0  0  0  0  0  0  0
    5.7303  -11.6110   26.0158 C   0  0  0  0  0  0  0  0  0  0  0  0
    6.9135  -12.1904   25.2540 C   0  0  2  0  0  0  0  0  0  0  0  0
    7.2627  -13.4991   25.9184 C   0  0  0  0  0  0  0  0  0  0  0  0
    7.7796  -13.1905   27.3077 C   0  0  2  0  0  0  0  0  0  0  0  0
    8.2802  -14.2885   25.1308 N   0  0  0  0  0  0  0  0  0  0  0  0
    7.8567  -14.5721   23.7953 C   0  0  0  0  0  0  0  0  0  0  0  0
    8.4350  -15.6032   25.8447 O   0  0  0  0  0  0  0  0  0  0  0  0
    7.4709  -16.4149   25.9560 N   0  0  0  0  0  0  0  0  0  0  0  0
   13.4526  -20.6515   27.0479 C   0  0  0  0  0  0  0  0  0  0  0  0
   12.4963  -19.9797   26.2664 O   0  0  0  0  0  0  0  0  0  0  0  0
   12.6267  -19.9343   25.0077 C   0  0  0  0  0  0  0  0  0  0  0  0
   11.3388  -19.3281   26.9305 C   0  0  0  0  0  0  0  0  0  0  0  0
   11.1350  -17.9420   26.3324 C   0  0  1  0  0  0  0  0  0  0  0  0
    9.8745  -17.3029   26.9254 N   0  0  0  0  0  0  0  0  0  0  0  0
    9.6663  -15.9830   26.4199 C   0  0  0  0  0  0  0  0  0  0  0  0
    9.9729  -17.3146   28.4049 O   0  0  0  0  0  0  0  0  0  0  0  0
   10.1245  -16.2288   29.0154 O   0  0  0  0  0  0  0  0  0  0  0  0
  2  3  2  0
  2  1  1  0
  4  2  1  0
  5  4  1  0
  5  6  1  0
  7  6  1  0
  8  7  1  0
  8  9  1  6
 10 11  2  0
 10  8  1  0
 12 13  1  0
 13 14  1  0
 14 16  1  0
 14 15  1  6
 16 18  1  0
 16 17  1  6
 17 10  1  0
 18 26  1  0
 19 18  2  0
 20 21  1  0
 21 22  2  0
 21 23  1  0
 23 24  1  0
 25 24  1  6
 25 27  1  0
 26 25  1  0
 27 28  2  0
 27 29  1  0
M  END
$$$$
