RIQ.pdb
     RDKit          3D

 29 28  0  0  1  0  0  0  0  0999 V2000
    6.6595  -20.8959   18.3632 N   0  0  0  0  0  0  0  0  0  0  0  0
    6.6977  -20.1725   19.5734 C   0  0  0  0  0  0  0  0  0  0  0  0
    6.0107  -20.5686   20.5759 N   0  0  0  0  0  0  0  0  0  0  0  0
    7.4982  -18.9892   19.7078 N   0  0  0  0  0  0  0  0  0  0  0  0
    7.6149  -18.0112   18.6375 C   0  0  0  0  0  0  0  0  0  0  0  0
    7.2763  -16.6700   19.2165 C   0  0  0  0  0  0  0  0  0  0  0  0
    8.1019  -16.3123   20.4216 C   0  0  0  0  0  0  0  0  0  0  0  0
    7.5316  -14.9917   20.9563 C   0  0  2  0  0  0  0  0  0  0  0  0
    7.7422  -14.0138   19.9165 N   0  0  0  0  0  0  0  0  0  0  0  0
    8.1656  -14.6128   22.2332 C   0  0  0  0  0  0  0  0  0  0  0  0
    9.4045  -14.3958   22.2229 O   0  0  0  0  0  0  0  0  0  0  0  0
    5.9731  -20.0870   21.4937 C   0  0  0  0  0  0  0  0  0  0  0  0
    5.5385  -11.5749   25.9517 C   0  0  0  0  0  0  0  0  0  0  0  0
    6.6086  -12.1057   25.0087 C   0  0  2  0  0  0  0  0  0  0  0  0
    7.1448  -13.3739   25.6256 C   0  0  0  0  0  0  0  0  0  0  0  0
    7.8372  -13.0032   26.9201 C   0  0  2  0  0  0  0  0  0  0  0  0
    8.0893  -14.1056   24.7028 N   0  0  0  0  0  0  0  0  0  0  0  0
    7.4839  -14.4768   23.4622 C   0  0  0  0  0  0  0  0  0  0  0  0
    8.4737  -15.3730   25.4153 O   0  0  0  0  0  0  0  0  0  0  0  0
    7.6219  -16.2711   25.6773 N   0  0  0  0  0  0  0  0  0  0  0  0
   13.7177  -20.2230   24.8852 C   0  0  0  0  0  0  0  0  0  0  0  0
   13.3682  -18.9274   25.3045 O   0  0  0  0  0  0  0  0  0  0  0  0
   14.2124  -17.9872   25.2241 C   0  0  0  0  0  0  0  0  0  0  0  0
   12.0057  -18.6765   25.8393 C   0  0  0  0  0  0  0  0  0  0  0  0
   11.5668  -17.2709   25.4492 C   0  0  2  0  0  0  0  0  0  0  0  0
   10.2550  -16.9221   26.1610 N   0  0  0  0  0  0  0  0  0  0  0  0
    9.8045  -15.6099   25.8204 C   0  0  0  0  0  0  0  0  0  0  0  0
   10.4395  -17.0764   27.6242 O   0  0  0  0  0  0  0  0  0  0  0  0
   10.2149  -18.1918   28.1537 O   0  0  0  0  0  0  0  0  0  0  0  0
  2  3  2  0
  2  1  1  0
  4  2  1  0
  5  4  1  0
  5  6  1  0
  7  6  1  0
  8  7  1  0
  8  9  1  6
 10 11  2  0
 10  8  1  0
 12 13  1  0
 13 14  1  0
 14 16  1  0
 14 15  1  6
 16 18  1  0
 16 17  1  6
 17 10  1  0
 18 26  1  0
 19 18  2  0
 20 21  1  0
 21 22  2  0
 21 23  1  0
 23 24  1  0
 25 24  1  6
 25 27  1  0
 26 25  1  0
 27 28  2  0
 27 29  1  0
M  END
$$$$
