RIQ.pdb
     RDKit          3D

 29 28  0  0  1  0  0  0  0  0999 V2000
    8.1078  -13.0127   17.6159 N   0  0  0  0  0  0  0  0  0  0  0  0
    7.8603  -14.0113   16.6511 C   0  0  0  0  0  0  0  0  0  0  0  0
    8.1850  -13.8144   15.4307 N   0  0  0  0  0  0  0  0  0  0  0  0
    7.2457  -15.2571   17.0108 N   0  0  0  0  0  0  0  0  0  0  0  0
    6.7323  -15.5060   18.3488 C   0  0  0  0  0  0  0  0  0  0  0  0
    7.8296  -16.1578   19.1362 C   0  0  0  0  0  0  0  0  0  0  0  0
    7.6864  -15.9806   20.6228 C   0  0  0  0  0  0  0  0  0  0  0  0
    8.2503  -14.5904   20.9459 C   0  0  2  0  0  0  0  0  0  0  0  0
    9.3817  -14.4032   20.0704 N   0  0  0  0  0  0  0  0  0  0  0  0
    8.6075  -14.4761   22.3726 C   0  0  0  0  0  0  0  0  0  0  0  0
    9.6857  -15.0064   22.7442 O   0  0  0  0  0  0  0  0  0  0  0  0
    7.9078  -14.4252   14.6396 C   0  0  0  0  0  0  0  0  0  0  0  0
    6.7319  -11.5163   27.5140 C   0  0  0  0  0  0  0  0  0  0  0  0
    7.6847  -12.5365   26.9078 C   0  0  2  0  0  0  0  0  0  0  0  0
    7.2650  -12.7269   25.4711 C   0  0  0  0  0  0  0  0  0  0  0  0
    5.8522  -13.2715   25.4689 C   0  0  2  0  0  0  0  0  0  0  0  0
    8.1956  -13.6474   24.7191 N   0  0  0  0  0  0  0  0  0  0  0  0
    7.8284  -13.8161   23.3479 C   0  0  0  0  0  0  0  0  0  0  0  0
    8.0850  -14.9912   25.3852 O   0  0  0  0  0  0  0  0  0  0  0  0
    7.1108  -15.7659   25.1581 N   0  0  0  0  0  0  0  0  0  0  0  0
   10.4503  -19.5869   23.9818 C   0  0  0  0  0  0  0  0  0  0  0  0
   11.4182  -18.7416   24.5521 O   0  0  0  0  0  0  0  0  0  0  0  0
   12.6269  -18.8252   24.1842 C   0  0  0  0  0  0  0  0  0  0  0  0
   11.0086  -17.7558   25.5845 C   0  0  0  0  0  0  0  0  0  0  0  0
    9.4929  -17.7880   25.7327 C   0  0  1  0  0  0  0  0  0  0  0  0
    9.0555  -16.7772   26.7985 N   0  0  0  0  0  0  0  0  0  0  0  0
    9.0675  -15.4412   26.2927 C   0  0  0  0  0  0  0  0  0  0  0  0
    9.9253  -16.9204   27.9908 O   0  0  0  0  0  0  0  0  0  0  0  0
    9.9207  -18.0042   28.6234 O   0  0  0  0  0  0  0  0  0  0  0  0
  2  3  2  0
  2  1  1  0
  4  2  1  0
  5  4  1  0
  5  6  1  0
  7  6  1  0
  8  7  1  0
  8  9  1  6
 10 11  2  0
 10  8  1  0
 12 13  1  0
 13 14  1  0
 14 16  1  0
 14 15  1  6
 16 18  1  0
 16 17  1  1
 17 10  1  0
 18 26  1  0
 19 18  2  0
 20 21  1  0
 21 22  2  0
 21 23  1  0
 23 24  1  0
 25 24  1  6
 25 27  1  0
 26 25  1  0
 27 28  2  0
 27 29  1  0
M  END
$$$$
