RIQ.pdb
     RDKit          3D

 29 28  0  0  1  0  0  0  0  0999 V2000
    9.4981  -14.6551   17.5520 N   0  0  0  0  0  0  0  0  0  0  0  0
    8.4478  -13.8818   17.0152 C   0  0  0  0  0  0  0  0  0  0  0  0
    8.0558  -14.0829   15.8153 N   0  0  0  0  0  0  0  0  0  0  0  0
    7.8014  -12.8633   17.7923 N   0  0  0  0  0  0  0  0  0  0  0  0
    6.9823  -13.1810   18.9516 C   0  0  0  0  0  0  0  0  0  0  0  0
    7.1011  -14.6561   19.1941 C   0  0  0  0  0  0  0  0  0  0  0  0
    7.2587  -15.0133   20.6466 C   0  0  0  0  0  0  0  0  0  0  0  0
    8.4094  -14.1488   21.1791 C   0  0  2  0  0  0  0  0  0  0  0  0
    9.5604  -14.4713   20.3711 N   0  0  0  0  0  0  0  0  0  0  0  0
    8.6366  -14.3868   22.6171 C   0  0  0  0  0  0  0  0  0  0  0  0
    9.6225  -15.0989   22.9377 O   0  0  0  0  0  0  0  0  0  0  0  0
    7.3389  -13.5159   15.3251 C   0  0  0  0  0  0  0  0  0  0  0  0
    5.8135  -11.2038   26.2697 C   0  0  0  0  0  0  0  0  0  0  0  0
    7.0067  -11.7636   25.5088 C   0  0  2  0  0  0  0  0  0  0  0  0
    7.1445  -13.2102   25.9147 C   0  0  0  0  0  0  0  0  0  0  0  0
    7.5670  -13.2459   27.3682 C   0  0  2  0  0  0  0  0  0  0  0  0
    8.1319  -13.9566   25.0507 N   0  0  0  0  0  0  0  0  0  0  0  0
    7.8294  -13.8743   23.6560 C   0  0  0  0  0  0  0  0  0  0  0  0
    8.0298  -15.4028   25.4507 O   0  0  0  0  0  0  0  0  0  0  0  0
    7.1289  -16.1582   24.9834 N   0  0  0  0  0  0  0  0  0  0  0  0
   11.1712  -20.2798   22.7862 C   0  0  0  0  0  0  0  0  0  0  0  0
   11.4228  -19.1875   23.6349 O   0  0  0  0  0  0  0  0  0  0  0  0
   12.3448  -18.3667   23.3532 C   0  0  0  0  0  0  0  0  0  0  0  0
   10.5993  -19.0091   24.8579 C   0  0  0  0  0  0  0  0  0  0  0  0
   10.0850  -17.5762   24.9093 C   0  0  1  0  0  0  0  0  0  0  0  0
    9.3651  -17.3323   26.2402 N   0  0  0  0  0  0  0  0  0  0  0  0
    8.9386  -15.9747   26.3664 C   0  0  0  0  0  0  0  0  0  0  0  0
   10.2556  -17.7337   27.3557 O   0  0  0  0  0  0  0  0  0  0  0  0
   10.3708  -18.9512   27.6373 O   0  0  0  0  0  0  0  0  0  0  0  0
  2  3  2  0
  2  1  1  0
  4  2  1  0
  5  4  1  0
  5  6  1  0
  7  6  1  0
  8  7  1  0
  8  9  1  6
 10 11  2  0
 10  8  1  0
 12 13  1  0
 13 14  1  0
 14 16  1  0
 14 15  1  6
 16 18  1  0
 16 17  1  1
 17 10  1  0
 18 26  1  0
 19 18  2  0
 20 21  1  0
 21 22  2  0
 21 23  1  0
 23 24  1  0
 25 24  1  6
 25 27  1  0
 26 25  1  0
 27 28  2  0
 27 29  1  0
M  END
$$$$
