RIQ.pdb
     RDKit          3D

 29 28  0  0  1  0  0  0  0  0999 V2000
    8.9444  -19.4150   22.5893 N   0  0  0  0  0  0  0  0  0  0  0  0
    9.2034  -19.7352   21.2403 C   0  0  0  0  0  0  0  0  0  0  0  0
   10.3241  -20.2543   20.9111 N   0  0  0  0  0  0  0  0  0  0  0  0
    8.2280  -19.4895   20.2169 N   0  0  0  0  0  0  0  0  0  0  0  0
    7.1297  -18.5548   20.4066 C   0  0  0  0  0  0  0  0  0  0  0  0
    7.7261  -17.1880   20.5645 C   0  0  0  0  0  0  0  0  0  0  0  0
    6.7022  -16.1109   20.7951 C   0  0  0  0  0  0  0  0  0  0  0  0
    7.4799  -14.7909   20.8844 C   0  0  2  0  0  0  0  0  0  0  0  0
    8.4661  -14.8347   19.8322 N   0  0  0  0  0  0  0  0  0  0  0  0
    8.0783  -14.6116   22.2207 C   0  0  0  0  0  0  0  0  0  0  0  0
    9.2222  -15.0978   22.4132 O   0  0  0  0  0  0  0  0  0  0  0  0
   10.5920  -20.5178   19.9444 C   0  0  0  0  0  0  0  0  0  0  0  0
    6.9341  -11.7078   27.6035 C   0  0  0  0  0  0  0  0  0  0  0  0
    7.8382  -12.6639   26.8389 C   0  0  2  0  0  0  0  0  0  0  0  0
    7.1672  -12.9356   25.5152 C   0  0  0  0  0  0  0  0  0  0  0  0
    5.8458  -13.6190   25.7966 C   0  0  2  0  0  0  0  0  0  0  0  0
    8.0229  -13.7787   24.6010 N   0  0  0  0  0  0  0  0  0  0  0  0
    7.4612  -13.9355   23.2958 C   0  0  0  0  0  0  0  0  0  0  0  0
    8.0911  -15.1428   25.2305 O   0  0  0  0  0  0  0  0  0  0  0  0
    7.3461  -16.0897   24.8442 N   0  0  0  0  0  0  0  0  0  0  0  0
   12.1731  -19.5986   23.5043 C   0  0  0  0  0  0  0  0  0  0  0  0
   12.2927  -18.4888   24.3591 O   0  0  0  0  0  0  0  0  0  0  0  0
   13.2449  -17.6692   24.2023 C   0  0  0  0  0  0  0  0  0  0  0  0
   11.2950  -18.2907   25.4412 C   0  0  0  0  0  0  0  0  0  0  0  0
   10.6127  -16.9422   25.2508 C   0  0  1  0  0  0  0  0  0  0  0  0
    9.6268  -16.6946   26.3979 N   0  0  0  0  0  0  0  0  0  0  0  0
    8.9923  -15.4200   26.2804 C   0  0  0  0  0  0  0  0  0  0  0  0
   10.3391  -16.8359   27.6907 O   0  0  0  0  0  0  0  0  0  0  0  0
   10.7154  -15.8034   28.2966 O   0  0  0  0  0  0  0  0  0  0  0  0
  2  3  2  0
  2  1  1  0
  4  2  1  0
  5  4  1  0
  5  6  1  0
  7  6  1  0
  8  7  1  0
  8  9  1  6
 10 11  2  0
 10  8  1  0
 12 13  1  0
 13 14  1  0
 14 16  1  0
 14 15  1  6
 16 18  1  0
 16 17  1  1
 17 10  1  0
 18 26  1  0
 19 18  2  0
 20 21  1  0
 21 22  2  0
 21 23  1  0
 23 24  1  0
 25 24  1  6
 25 27  1  0
 26 25  1  0
 27 28  2  0
 27 29  1  0
M  END
$$$$
