RIQ.pdb
     RDKit          3D

 29 28  0  0  1  0  0  0  0  0999 V2000
    8.6560  -17.6700   16.5270 N   0  0  0  0  0  0  0  0  0  0  0  0
    7.4955  -17.0727   15.9924 C   0  0  0  0  0  0  0  0  0  0  0  0
    6.7330  -17.7423   15.2151 N   0  0  0  0  0  0  0  0  0  0  0  0
    7.1463  -15.7161   16.3035 N   0  0  0  0  0  0  0  0  0  0  0  0
    7.8798  -14.9374   17.2890 C   0  0  0  0  0  0  0  0  0  0  0  0
    7.6546  -15.5791   18.6256 C   0  0  0  0  0  0  0  0  0  0  0  0
    8.5421  -15.0321   19.7096 C   0  0  0  0  0  0  0  0  0  0  0  0
    7.7082  -13.9848   20.4598 C   0  0  2  0  0  0  0  0  0  0  0  0
    7.6538  -12.8260   19.6019 N   0  0  0  0  0  0  0  0  0  0  0  0
    8.2869  -13.6882   21.7838 C   0  0  0  0  0  0  0  0  0  0  0  0
    9.3839  -13.0736   21.8121 O   0  0  0  0  0  0  0  0  0  0  0  0
    5.8122  -17.4165   14.8661 C   0  0  0  0  0  0  0  0  0  0  0  0
    6.9534  -12.0987   27.4305 C   0  0  0  0  0  0  0  0  0  0  0  0
    7.9808  -12.8535   26.5994 C   0  0  2  0  0  0  0  0  0  0  0  0
    7.3231  -13.1784   25.2809 C   0  0  0  0  0  0  0  0  0  0  0  0
    6.1525  -14.0971   25.5605 C   0  0  2  0  0  0  0  0  0  0  0  0
    8.2817  -13.8136   24.3031 N   0  0  0  0  0  0  0  0  0  0  0  0
    7.6997  -14.0434   23.0178 C   0  0  0  0  0  0  0  0  0  0  0  0
    8.6437  -15.1539   24.8814 O   0  0  0  0  0  0  0  0  0  0  0  0
    7.7744  -16.0555   25.0609 N   0  0  0  0  0  0  0  0  0  0  0  0
   12.6888  -20.7157   25.1848 C   0  0  0  0  0  0  0  0  0  0  0  0
   12.7181  -19.3228   24.9971 O   0  0  0  0  0  0  0  0  0  0  0  0
   13.2236  -18.8369   23.9428 C   0  0  0  0  0  0  0  0  0  0  0  0
   12.1526  -18.4336   26.0436 C   0  0  0  0  0  0  0  0  0  0  0  0
   11.7887  -17.0935   25.4173 C   0  0  1  0  0  0  0  0  0  0  0  0
   10.3297  -16.7512   25.7389 N   0  0  0  0  0  0  0  0  0  0  0  0
    9.9721  -15.4583   25.2474 C   0  0  0  0  0  0  0  0  0  0  0  0
   10.1155  -16.8606   27.2020 O   0  0  0  0  0  0  0  0  0  0  0  0
    9.9343  -15.8154   27.8725 O   0  0  0  0  0  0  0  0  0  0  0  0
  2  3  2  0
  2  1  1  0
  4  2  1  0
  5  4  1  0
  5  6  1  0
  7  6  1  0
  8  7  1  0
  8  9  1  6
 10 11  2  0
 10  8  1  0
 12 13  1  0
 13 14  1  0
 14 16  1  0
 14 15  1  6
 16 18  1  0
 16 17  1  1
 17 10  1  0
 18 26  1  0
 19 18  2  0
 20 21  1  0
 21 22  2  0
 21 23  1  0
 23 24  1  0
 25 24  1  6
 25 27  1  0
 26 25  1  0
 27 28  2  0
 27 29  1  0
M  END
$$$$
