RIQ.pdb
     RDKit          3D

 29 28  0  0  1  0  0  0  0  0999 V2000
    7.9113  -12.7264   14.6529 N   0  0  0  0  0  0  0  0  0  0  0  0
    8.1705  -13.7272   15.6124 C   0  0  0  0  0  0  0  0  0  0  0  0
    8.0551  -14.9602   15.2960 N   0  0  0  0  0  0  0  0  0  0  0  0
    8.5651  -13.3906   16.9504 N   0  0  0  0  0  0  0  0  0  0  0  0
    8.8758  -14.4084   17.9420 C   0  0  0  0  0  0  0  0  0  0  0  0
    7.6797  -14.5429   18.8366 C   0  0  0  0  0  0  0  0  0  0  0  0
    7.8337  -13.8323   20.1531 C   0  0  0  0  0  0  0  0  0  0  0  0
    7.5392  -14.8742   21.2406 C   0  0  2  0  0  0  0  0  0  0  0  0
    6.1033  -15.0057   21.2917 N   0  0  0  0  0  0  0  0  0  0  0  0
    8.1224  -14.4758   22.5357 C   0  0  0  0  0  0  0  0  0  0  0  0
    8.9971  -13.5721   22.5235 O   0  0  0  0  0  0  0  0  0  0  0  0
    8.2478  -15.7545   15.9345 C   0  0  0  0  0  0  0  0  0  0  0  0
    6.0915  -11.8365   26.1614 C   0  0  0  0  0  0  0  0  0  0  0  0
    7.1045  -12.5208   25.2551 C   0  0  2  0  0  0  0  0  0  0  0  0
    7.4478  -13.8404   25.9011 C   0  0  0  0  0  0  0  0  0  0  0  0
    8.0940  -13.5479   27.2387 C   0  0  2  0  0  0  0  0  0  0  0  0
    8.3575  -14.6815   25.0386 N   0  0  0  0  0  0  0  0  0  0  0  0
    7.7704  -15.0342   23.7838 C   0  0  0  0  0  0  0  0  0  0  0  0
    8.5965  -15.9563   25.8000 O   0  0  0  0  0  0  0  0  0  0  0  0
    7.6692  -16.5287   26.4429 N   0  0  0  0  0  0  0  0  0  0  0  0
   12.7164  -20.1316   24.0725 C   0  0  0  0  0  0  0  0  0  0  0  0
   12.6830  -18.7511   23.8087 O   0  0  0  0  0  0  0  0  0  0  0  0
   13.4546  -18.2549   22.9361 C   0  0  0  0  0  0  0  0  0  0  0  0
   11.7379  -17.8873   24.5612 C   0  0  0  0  0  0  0  0  0  0  0  0
   10.9503  -18.7453   25.5430 C   0  0  1  0  0  0  0  0  0  0  0  0
   10.0658  -17.8505   26.4182 N   0  0  0  0  0  0  0  0  0  0  0  0
    9.8692  -16.5651   25.8266 C   0  0  0  0  0  0  0  0  0  0  0  0
   10.6658  -17.7464   27.7702 O   0  0  0  0  0  0  0  0  0  0  0  0
   10.9056  -18.7963   28.4143 O   0  0  0  0  0  0  0  0  0  0  0  0
  2  3  2  0
  2  1  1  0
  4  2  1  0
  5  4  1  0
  5  6  1  0
  7  6  1  0
  8  7  1  0
  8  9  1  1
 10 11  2  0
 10  8  1  0
 12 13  1  0
 13 14  1  0
 14 16  1  0
 14 15  1  6
 16 18  1  0
 16 17  1  6
 17 10  1  0
 18 26  1  0
 19 18  2  0
 20 21  1  0
 21 22  2  0
 21 23  1  0
 23 24  1  0
 25 24  1  6
 25 27  1  0
 26 25  1  0
 27 28  2  0
 27 29  1  0
M  END
$$$$
