RIQ.pdb
     RDKit          3D

 29 28  0  0  1  0  0  0  0  0999 V2000
    8.0800  -12.3847   17.0103 N   0  0  0  0  0  0  0  0  0  0  0  0
    8.1496  -13.6557   16.4028 C   0  0  0  0  0  0  0  0  0  0  0  0
    8.5346  -13.7627   15.1886 N   0  0  0  0  0  0  0  0  0  0  0  0
    7.7945  -14.8449   17.1230 N   0  0  0  0  0  0  0  0  0  0  0  0
    7.1584  -14.7941   18.4301 C   0  0  0  0  0  0  0  0  0  0  0  0
    8.0785  -15.4690   19.4032 C   0  0  0  0  0  0  0  0  0  0  0  0
    8.1682  -14.7654   20.7293 C   0  0  0  0  0  0  0  0  0  0  0  0
    8.2203  -15.8664   21.7971 C   0  0  2  0  0  0  0  0  0  0  0  0
    6.8699  -16.3551   21.9355 N   0  0  0  0  0  0  0  0  0  0  0  0
    8.7757  -15.3565   23.0650 C   0  0  0  0  0  0  0  0  0  0  0  0
    9.9840  -15.0074   23.0694 O   0  0  0  0  0  0  0  0  0  0  0  0
    8.5120  -14.6406   14.6368 C   0  0  0  0  0  0  0  0  0  0  0  0
    5.7686  -12.3086   26.1268 C   0  0  0  0  0  0  0  0  0  0  0  0
    7.0521  -12.7655   25.4487 C   0  0  2  0  0  0  0  0  0  0  0  0
    7.6056  -13.8977   26.2783 C   0  0  0  0  0  0  0  0  0  0  0  0
    8.2653  -13.2970   27.5015 C   0  0  2  0  0  0  0  0  0  0  0  0
    8.5834  -14.7498   25.5058 N   0  0  0  0  0  0  0  0  0  0  0  0
    8.0506  -15.2325   24.2702 C   0  0  0  0  0  0  0  0  0  0  0  0
    8.8725  -15.9454   26.3711 O   0  0  0  0  0  0  0  0  0  0  0  0
    7.9555  -16.7363   26.7375 N   0  0  0  0  0  0  0  0  0  0  0  0
   12.4459  -19.5032   23.5250 C   0  0  0  0  0  0  0  0  0  0  0  0
   12.4352  -19.2720   24.9117 O   0  0  0  0  0  0  0  0  0  0  0  0
   13.4099  -19.6535   25.6242 C   0  0  0  0  0  0  0  0  0  0  0  0
   11.2745  -18.5794   25.5269 C   0  0  0  0  0  0  0  0  0  0  0  0
   11.6164  -18.2127   26.9653 C   0  0  2  0  0  0  0  0  0  0  0  0
   10.4702  -17.4008   27.5787 N   0  0  0  0  0  0  0  0  0  0  0  0
   10.1829  -16.2319   26.8092 C   0  0  0  0  0  0  0  0  0  0  0  0
   10.8093  -17.0642   28.9824 O   0  0  0  0  0  0  0  0  0  0  0  0
   11.0141  -17.9933   29.8007 O   0  0  0  0  0  0  0  0  0  0  0  0
  2  3  2  0
  2  1  1  0
  4  2  1  0
  5  4  1  0
  5  6  1  0
  7  6  1  0
  8  7  1  0
  8  9  1  1
 10 11  2  0
 10  8  1  0
 12 13  1  0
 13 14  1  0
 14 16  1  0
 14 15  1  6
 16 18  1  0
 16 17  1  6
 17 10  1  0
 18 26  1  0
 19 18  2  0
 20 21  1  0
 21 22  2  0
 21 23  1  0
 23 24  1  0
 25 24  1  6
 25 27  1  0
 26 25  1  0
 27 28  2  0
 27 29  1  0
M  END
$$$$
