RIQ.pdb
     RDKit          3D

 29 28  0  0  1  0  0  0  0  0999 V2000
    8.2750  -13.8765   15.9927 N   0  0  0  0  0  0  0  0  0  0  0  0
    8.0339  -13.3304   17.2707 C   0  0  0  0  0  0  0  0  0  0  0  0
    8.4462  -12.1533   17.5501 N   0  0  0  0  0  0  0  0  0  0  0  0
    7.3290  -14.0730   18.2760 N   0  0  0  0  0  0  0  0  0  0  0  0
    7.2818  -15.5268   18.2700 C   0  0  0  0  0  0  0  0  0  0  0  0
    8.2347  -16.0109   19.3219 C   0  0  0  0  0  0  0  0  0  0  0  0
    8.1448  -15.2414   20.6110 C   0  0  0  0  0  0  0  0  0  0  0  0
    8.3500  -16.2640   21.7368 C   0  0  2  0  0  0  0  0  0  0  0  0
    7.0581  -16.8596   21.9779 N   0  0  0  0  0  0  0  0  0  0  0  0
    8.9190  -15.6283   22.9402 C   0  0  0  0  0  0  0  0  0  0  0  0
   10.1229  -15.2674   22.8903 O   0  0  0  0  0  0  0  0  0  0  0  0
    8.3640  -11.7040   18.4813 C   0  0  0  0  0  0  0  0  0  0  0  0
    6.0824  -12.2309   26.0139 C   0  0  0  0  0  0  0  0  0  0  0  0
    7.2215  -12.8600   25.2248 C   0  0  2  0  0  0  0  0  0  0  0  0
    7.7920  -13.9616   26.0834 C   0  0  0  0  0  0  0  0  0  0  0  0
    8.4585  -13.3183   27.2810 C   0  0  2  0  0  0  0  0  0  0  0  0
    8.7691  -14.8297   25.3280 N   0  0  0  0  0  0  0  0  0  0  0  0
    8.2117  -15.3965   24.1400 C   0  0  0  0  0  0  0  0  0  0  0  0
    9.1200  -15.9655   26.2492 O   0  0  0  0  0  0  0  0  0  0  0  0
    8.2272  -16.6725   26.8004 N   0  0  0  0  0  0  0  0  0  0  0  0
   10.9443  -21.3310   27.9869 C   0  0  0  0  0  0  0  0  0  0  0  0
   11.7841  -20.5405   27.1830 O   0  0  0  0  0  0  0  0  0  0  0  0
   12.0245  -20.8853   25.9886 C   0  0  0  0  0  0  0  0  0  0  0  0
   12.3819  -19.3039   27.7478 C   0  0  0  0  0  0  0  0  0  0  0  0
   12.0520  -18.1283   26.8370 C   0  0  1  0  0  0  0  0  0  0  0  0
   10.8014  -17.4085   27.3537 N   0  0  0  0  0  0  0  0  0  0  0  0
   10.4639  -16.2874   26.5351 C   0  0  0  0  0  0  0  0  0  0  0  0
   11.0169  -17.0118   28.7660 O   0  0  0  0  0  0  0  0  0  0  0  0
   11.0425  -17.8996   29.6526 O   0  0  0  0  0  0  0  0  0  0  0  0
  2  3  2  0
  2  1  1  0
  4  2  1  0
  5  4  1  0
  5  6  1  0
  7  6  1  0
  8  7  1  0
  8  9  1  1
 10 11  2  0
 10  8  1  0
 12 13  1  0
 13 14  1  0
 14 16  1  0
 14 15  1  1
 16 18  1  0
 16 17  1  6
 17 10  1  0
 18 26  1  0
 19 18  2  0
 20 21  1  0
 21 22  2  0
 21 23  1  0
 23 24  1  0
 25 24  1  6
 25 27  1  0
 26 25  1  0
 27 28  2  0
 27 29  1  0
M  END
$$$$
