ELS.pdb
     RDKit          3D

 24 23  0  0  1  0  0  0  0  0999 V2000
    8.7634  -17.8433   17.0724 N   0  0  0  0  0  0  0  0  0  0  0  0
   10.1738  -17.6825   17.1004 C   0  0  1  0  0  0  0  0  0  0  0  0
   10.8441  -17.2530   15.8550 C   0  0  0  0  0  0  0  0  0  0  0  0
    9.9256  -16.6553   14.8679 C   0  0  0  0  0  0  0  0  0  0  0  0
   10.4887  -16.1281   13.6296 C   0  0  0  0  0  0  0  0  0  0  0  0
    9.7917  -15.4722   12.8260 O   0  0  0  0  0  0  0  0  0  0  0  0
   10.5064  -16.7847   18.2636 C   0  0  0  0  0  0  0  0  0  0  0  0
   11.6993  -16.4436   18.5058 O   0  0  0  0  0  0  0  0  0  0  0  0
   11.8395  -16.3349   13.2852 O   0  0  0  0  0  0  0  0  0  0  0  0
    9.0100  -12.6134   19.3552 C   0  0  0  0  0  0  0  0  0  0  0  0
    7.9882  -13.7539   19.4742 C   0  0  2  0  0  0  0  0  0  0  0  0
    6.6688  -13.1156   19.7828 C   0  0  0  0  0  0  0  0  0  0  0  0
    8.4921  -14.6659   20.5294 C   0  0  0  0  0  0  0  0  0  0  0  0
    9.7680  -15.3766   20.2408 C   0  0  2  0  0  0  0  0  0  0  0  0
    9.5107  -16.2824   19.1367 N   0  0  0  0  0  0  0  0  0  0  0  0
   10.2558  -16.1863   21.3904 C   0  0  0  0  0  0  0  0  0  0  0  0
    9.6817  -17.2723   21.6450 O   0  0  0  0  0  0  0  0  0  0  0  0
   14.0918  -16.2772   22.6405 O   0  0  0  0  0  0  0  0  0  0  0  0
   13.2296  -16.2468   23.7304 C   0  0  0  0  0  0  0  0  0  0  0  0
   11.8083  -16.5860   23.3420 C   0  0  2  0  0  0  0  0  0  0  0  0
   11.3375  -15.8093   22.2269 N   0  0  0  0  0  0  0  0  0  0  0  0
   10.9114  -16.5070   24.5125 C   0  0  0  0  0  0  0  0  0  0  0  0
   11.0554  -17.2538   25.6730 O   0  0  0  0  0  0  0  0  0  0  0  0
    9.9410  -15.7097   24.4711 O   0  0  0  0  0  0  0  0  0  0  0  0
  2  1  1  6
  2  3  1  0
  3  4  1  0
  4  5  1  0
  5  6  2  0
  5  9  1  0
  7  2  1  0
  7  8  2  0
 11 10  1  1
 11 13  1  0
 11 12  1  0
 14 13  1  1
 14 15  1  0
 14 16  1  0
 15  7  1  0
 16 21  1  0
 17 16  2  0
 19 18  1  0
 20 19  1  1
 20 22  1  0
 21 20  1  0
 22 24  2  0
 22 23  1  0
M  END
$$$$
