ELS.pdb
     RDKit          3D

 24 23  0  0  1  0  0  0  0  0999 V2000
    6.4041  -15.8844   21.6199 N   0  0  0  0  0  0  0  0  0  0  0  0
    7.7973  -16.1477   21.5443 C   0  0  1  0  0  0  0  0  0  0  0  0
    8.5504  -15.5594   20.4168 C   0  0  0  0  0  0  0  0  0  0  0  0
    8.0003  -15.9105   19.0942 C   0  0  0  0  0  0  0  0  0  0  0  0
    8.9297  -16.0919   17.9844 C   0  0  0  0  0  0  0  0  0  0  0  0
   10.1665  -16.0642   18.1610 O   0  0  0  0  0  0  0  0  0  0  0  0
    8.4006  -15.7920   22.8782 C   0  0  0  0  0  0  0  0  0  0  0  0
    9.6516  -15.8191   23.0578 O   0  0  0  0  0  0  0  0  0  0  0  0
    8.4754  -16.3053   16.6675 O   0  0  0  0  0  0  0  0  0  0  0  0
    8.1423  -12.1424   25.5516 C   0  0  0  0  0  0  0  0  0  0  0  0
    6.8556  -12.9678   25.4034 C   0  0  2  0  0  0  0  0  0  0  0  0
    5.7671  -12.1873   26.0738 C   0  0  0  0  0  0  0  0  0  0  0  0
    7.1288  -14.2915   26.0136 C   0  0  0  0  0  0  0  0  0  0  0  0
    8.1244  -15.1521   25.3178 C   0  0  2  0  0  0  0  0  0  0  0  0
    7.6061  -15.4135   23.9878 N   0  0  0  0  0  0  0  0  0  0  0  0
    8.3323  -16.4628   25.9916 C   0  0  0  0  0  0  0  0  0  0  0  0
    7.3332  -17.1891   26.2108 O   0  0  0  0  0  0  0  0  0  0  0  0
   11.6787  -18.7229   25.5933 O   0  0  0  0  0  0  0  0  0  0  0  0
   10.4877  -19.2211   26.1084 C   0  0  0  0  0  0  0  0  0  0  0  0
    9.8068  -18.2325   27.0275 C   0  0  2  0  0  0  0  0  0  0  0  0
    9.5972  -16.9519   26.4073 N   0  0  0  0  0  0  0  0  0  0  0  0
   10.5235  -18.1332   28.3149 C   0  0  0  0  0  0  0  0  0  0  0  0
   11.0463  -16.9612   28.8424 O   0  0  0  0  0  0  0  0  0  0  0  0
   10.6803  -19.1777   28.9955 O   0  0  0  0  0  0  0  0  0  0  0  0
  2  1  1  1
  2  3  1  0
  3  4  1  0
  4  5  1  0
  5  6  2  0
  5  9  1  0
  7  2  1  0
  7  8  2  0
 11 10  1  1
 11 13  1  0
 11 12  1  0
 14 13  1  1
 14 15  1  0
 14 16  1  0
 15  7  1  0
 16 21  1  0
 17 16  2  0
 19 18  1  0
 20 19  1  6
 20 22  1  0
 21 20  1  0
 22 24  2  0
 22 23  1  0
M  END
$$$$
