ELS.pdb
     RDKit          3D

 24 23  0  0  1  0  0  0  0  0999 V2000
   12.6619  -16.8181   16.9391 N   0  0  0  0  0  0  0  0  0  0  0  0
   11.5199  -17.1486   17.7154 C   0  0  1  0  0  0  0  0  0  0  0  0
   11.4280  -18.5204   18.2579 C   0  0  0  0  0  0  0  0  0  0  0  0
   12.5883  -18.9066   19.0824 C   0  0  0  0  0  0  0  0  0  0  0  0
   12.6409  -20.2661   19.6091 C   0  0  0  0  0  0  0  0  0  0  0  0
   13.6793  -20.9562   19.5248 O   0  0  0  0  0  0  0  0  0  0  0  0
   11.3818  -16.1018   18.7900 C   0  0  0  0  0  0  0  0  0  0  0  0
   12.3776  -15.4249   19.1749 O   0  0  0  0  0  0  0  0  0  0  0  0
   11.5261  -20.8600   20.2342 O   0  0  0  0  0  0  0  0  0  0  0  0
    6.8822  -12.6040   20.0509 C   0  0  0  0  0  0  0  0  0  0  0  0
    8.3883  -12.8612   20.2073 C   0  0  2  0  0  0  0  0  0  0  0  0
    9.0519  -12.2596   19.0068 C   0  0  0  0  0  0  0  0  0  0  0  0
    8.5567  -14.3292   20.3323 C   0  0  0  0  0  0  0  0  0  0  0  0
    9.9529  -14.8304   20.4571 C   0  0  2  0  0  0  0  0  0  0  0  0
   10.1428  -15.8254   19.4180 N   0  0  0  0  0  0  0  0  0  0  0  0
   10.2220  -15.4827   21.7675 C   0  0  0  0  0  0  0  0  0  0  0  0
   10.1586  -14.7853   22.8083 O   0  0  0  0  0  0  0  0  0  0  0  0
   10.8045  -19.6118   22.0265 O   0  0  0  0  0  0  0  0  0  0  0  0
   10.3469  -18.9614   23.1666 C   0  0  0  0  0  0  0  0  0  0  0  0
   10.7457  -17.5033   23.1894 C   0  0  2  0  0  0  0  0  0  0  0  0
   10.5489  -16.8544   21.9211 N   0  0  0  0  0  0  0  0  0  0  0  0
   12.1199  -17.3431   23.7060 C   0  0  0  0  0  0  0  0  0  0  0  0
   12.5763  -17.8499   24.9143 O   0  0  0  0  0  0  0  0  0  0  0  0
   12.9500  -16.7033   23.0127 O   0  0  0  0  0  0  0  0  0  0  0  0
  2  1  1  1
  2  3  1  0
  3  4  1  0
  4  5  1  0
  5  6  2  0
  5  9  1  0
  7  2  1  0
  7  8  2  0
 11 10  1  6
 11 13  1  0
 11 12  1  0
 14 13  1  1
 14 15  1  0
 14 16  1  0
 15  7  1  0
 16 21  1  0
 17 16  2  0
 19 18  1  0
 20 19  1  6
 20 22  1  0
 21 20  1  0
 22 24  2  0
 22 23  1  0
M  END
$$$$
