ELS.pdb
     RDKit          3D

 24 23  0  0  1  0  0  0  0  0999 V2000
    9.2832  -18.1759   19.8962 N   0  0  0  0  0  0  0  0  0  0  0  0
   10.5604  -17.6182   20.1677 C   0  0  1  0  0  0  0  0  0  0  0  0
   11.4376  -17.3113   19.0184 C   0  0  0  0  0  0  0  0  0  0  0  0
   10.8086  -17.5746   17.7106 C   0  0  0  0  0  0  0  0  0  0  0  0
   11.6354  -17.4751   16.5127 C   0  0  0  0  0  0  0  0  0  0  0  0
   11.1678  -17.7131   15.3785 O   0  0  0  0  0  0  0  0  0  0  0  0
   10.3544  -16.4226   21.0608 C   0  0  0  0  0  0  0  0  0  0  0  0
   11.3296  -15.8616   21.6372 O   0  0  0  0  0  0  0  0  0  0  0  0
   12.9942  -17.1078   16.5811 O   0  0  0  0  0  0  0  0  0  0  0  0
    8.9397  -12.5295   20.0236 C   0  0  0  0  0  0  0  0  0  0  0  0
    7.8219  -13.5816   20.0713 C   0  0  2  0  0  0  0  0  0  0  0  0
    6.6070  -12.9425   19.4720 C   0  0  0  0  0  0  0  0  0  0  0  0
    7.6717  -13.9762   21.4928 C   0  0  0  0  0  0  0  0  0  0  0  0
    8.8209  -14.6943   22.1090 C   0  0  2  0  0  0  0  0  0  0  0  0
    9.0715  -15.8718   21.2986 N   0  0  0  0  0  0  0  0  0  0  0  0
    8.5454  -15.1482   23.4994 C   0  0  0  0  0  0  0  0  0  0  0  0
    8.5956  -14.3043   24.4263 O   0  0  0  0  0  0  0  0  0  0  0  0
    7.2573  -19.1327   24.5206 O   0  0  0  0  0  0  0  0  0  0  0  0
    6.8888  -18.0035   25.2427 C   0  0  0  0  0  0  0  0  0  0  0  0
    7.9467  -16.9246   25.1920 C   0  0  2  0  0  0  0  0  0  0  0  0
    8.2266  -16.4847   23.8516 N   0  0  0  0  0  0  0  0  0  0  0  0
    9.1605  -17.3451   25.9204 C   0  0  0  0  0  0  0  0  0  0  0  0
   10.4361  -17.3885   25.3761 O   0  0  0  0  0  0  0  0  0  0  0  0
    9.0477  -17.6926   27.1227 O   0  0  0  0  0  0  0  0  0  0  0  0
  2  1  1  6
  2  3  1  0
  3  4  1  0
  4  5  1  0
  5  6  2  0
  5  9  1  0
  7  2  1  0
  7  8  2  0
 11 10  1  1
 11 13  1  0
 11 12  1  0
 14 13  1  6
 14 15  1  0
 14 16  1  0
 15  7  1  0
 16 21  1  0
 17 16  2  0
 19 18  1  0
 20 19  1  6
 20 22  1  0
 21 20  1  0
 22 24  2  0
 22 23  1  0
M  END
$$$$
