ELS.pdb
     RDKit          3D

 24 23  0  0  1  0  0  0  0  0999 V2000
    7.1344  -16.5975   22.2990 N   0  0  0  0  0  0  0  0  0  0  0  0
    8.5448  -16.4928   22.1729 C   0  0  1  0  0  0  0  0  0  0  0  0
    9.0830  -15.8607   20.9501 C   0  0  0  0  0  0  0  0  0  0  0  0
    8.3824  -16.2697   19.7184 C   0  0  0  0  0  0  0  0  0  0  0  0
    9.1667  -16.4386   18.4999 C   0  0  0  0  0  0  0  0  0  0  0  0
   10.4141  -16.3646   18.5142 O   0  0  0  0  0  0  0  0  0  0  0  0
    9.0665  -15.8408   23.4268 C   0  0  0  0  0  0  0  0  0  0  0  0
   10.2957  -15.5793   23.5646 O   0  0  0  0  0  0  0  0  0  0  0  0
    8.5544  -16.6915   17.2560 O   0  0  0  0  0  0  0  0  0  0  0  0
    7.8352  -12.0880   24.9889 C   0  0  0  0  0  0  0  0  0  0  0  0
    6.8322  -13.1946   25.3468 C   0  0  2  0  0  0  0  0  0  0  0  0
    5.6262  -12.5115   25.9146 C   0  0  0  0  0  0  0  0  0  0  0  0
    7.5247  -14.1052   26.2904 C   0  0  0  0  0  0  0  0  0  0  0  0
    8.6681  -14.8859   25.7434 C   0  0  2  0  0  0  0  0  0  0  0  0
    8.2165  -15.4914   24.5043 N   0  0  0  0  0  0  0  0  0  0  0  0
    9.1123  -15.9797   26.6497 C   0  0  0  0  0  0  0  0  0  0  0  0
    9.4447  -15.6875   27.8236 O   0  0  0  0  0  0  0  0  0  0  0  0
    9.8435  -19.8620   25.1853 O   0  0  0  0  0  0  0  0  0  0  0  0
    9.5184  -19.7644   26.5332 C   0  0  0  0  0  0  0  0  0  0  0  0
    9.7733  -18.3787   27.0817 C   0  0  2  0  0  0  0  0  0  0  0  0
    9.1862  -17.3450   26.2723 N   0  0  0  0  0  0  0  0  0  0  0  0
   11.2149  -18.1665   27.3221 C   0  0  0  0  0  0  0  0  0  0  0  0
   11.9844  -17.1871   26.7107 O   0  0  0  0  0  0  0  0  0  0  0  0
   11.8037  -18.9197   28.1376 O   0  0  0  0  0  0  0  0  0  0  0  0
  2  1  1  6
  2  3  1  0
  3  4  1  0
  4  5  1  0
  5  6  2  0
  5  9  1  0
  7  2  1  0
  7  8  2  0
 11 10  1  1
 11 13  1  0
 11 12  1  0
 14 13  1  1
 14 15  1  0
 14 16  1  0
 15  7  1  0
 16 21  1  0
 17 16  2  0
 19 18  1  0
 20 19  1  6
 20 22  1  0
 21 20  1  0
 22 24  2  0
 22 23  1  0
M  END
$$$$
