ELS.pdb
     RDKit          3D

 24 23  0  0  1  0  0  0  0  0999 V2000
   10.3162  -18.6374   15.6973 N   0  0  0  0  0  0  0  0  0  0  0  0
    9.2011  -18.2129   16.4668 C   0  0  1  0  0  0  0  0  0  0  0  0
    8.3318  -19.2540   17.0542 C   0  0  0  0  0  0  0  0  0  0  0  0
    9.0359  -20.1493   17.9912 C   0  0  0  0  0  0  0  0  0  0  0  0
    8.3029  -21.2800   18.5505 C   0  0  0  0  0  0  0  0  0  0  0  0
    8.5676  -22.4550   18.2175 O   0  0  0  0  0  0  0  0  0  0  0  0
    9.7061  -17.2428   17.5029 C   0  0  0  0  0  0  0  0  0  0  0  0
   10.9342  -17.1800   17.7959 O   0  0  0  0  0  0  0  0  0  0  0  0
    7.2666  -21.0979   19.4881 O   0  0  0  0  0  0  0  0  0  0  0  0
    7.0125  -12.7032   20.6485 C   0  0  0  0  0  0  0  0  0  0  0  0
    8.3809  -13.3153   20.3143 C   0  0  2  0  0  0  0  0  0  0  0  0
    9.1861  -12.2330   19.6634 C   0  0  0  0  0  0  0  0  0  0  0  0
    8.1193  -14.4917   19.4503 C   0  0  0  0  0  0  0  0  0  0  0  0
    9.2752  -15.3908   19.1827 C   0  0  2  0  0  0  0  0  0  0  0  0
    8.8405  -16.3611   18.1951 N   0  0  0  0  0  0  0  0  0  0  0  0
    9.7226  -16.1381   20.3896 C   0  0  0  0  0  0  0  0  0  0  0  0
    8.9874  -17.0515   20.8357 O   0  0  0  0  0  0  0  0  0  0  0  0
   13.5639  -15.5692   22.2355 O   0  0  0  0  0  0  0  0  0  0  0  0
   12.9276  -16.8039   22.1839 C   0  0  0  0  0  0  0  0  0  0  0  0
   11.4218  -16.6690   22.1812 C   0  0  2  0  0  0  0  0  0  0  0  0
   10.9370  -15.8848   21.0773 N   0  0  0  0  0  0  0  0  0  0  0  0
   10.9364  -16.1787   23.4869 C   0  0  0  0  0  0  0  0  0  0  0  0
   11.1502  -16.8149   24.7014 O   0  0  0  0  0  0  0  0  0  0  0  0
   10.2796  -15.1080   23.5185 O   0  0  0  0  0  0  0  0  0  0  0  0
  2  1  1  1
  2  3  1  0
  3  4  1  0
  4  5  1  0
  5  6  2  0
  5  9  1  0
  7  2  1  0
  7  8  2  0
 11 10  1  6
 11 13  1  0
 11 12  1  0
 14 13  1  1
 14 15  1  0
 14 16  1  0
 15  7  1  0
 16 21  1  0
 17 16  2  0
 19 18  1  0
 20 19  1  1
 20 22  1  0
 21 20  1  0
 22 24  2  0
 22 23  1  0
M  END
$$$$
