ELS.pdb
     RDKit          3D

 24 23  0  0  1  0  0  0  0  0999 V2000
    9.7100  -15.4920   19.9123 N   0  0  0  0  0  0  0  0  0  0  0  0
    8.6831  -15.9147   20.7970 C   0  0  1  0  0  0  0  0  0  0  0  0
    8.3071  -17.3440   20.7849 C   0  0  0  0  0  0  0  0  0  0  0  0
    8.4643  -17.9831   19.4650 C   0  0  0  0  0  0  0  0  0  0  0  0
    8.1347  -19.3986   19.3381 C   0  0  0  0  0  0  0  0  0  0  0  0
    7.5705  -19.8457   18.3166 O   0  0  0  0  0  0  0  0  0  0  0  0
    9.0459  -15.4340   22.1780 C   0  0  0  0  0  0  0  0  0  0  0  0
   10.2317  -15.5167   22.6082 O   0  0  0  0  0  0  0  0  0  0  0  0
    8.4367  -20.3221   20.3590 O   0  0  0  0  0  0  0  0  0  0  0  0
    5.9234  -12.4079   26.5017 C   0  0  0  0  0  0  0  0  0  0  0  0
    7.2692  -13.1039   26.2501 C   0  0  2  0  0  0  0  0  0  0  0  0
    8.3353  -12.0978   26.5579 C   0  0  0  0  0  0  0  0  0  0  0  0
    7.2495  -13.5680   24.8418 C   0  0  0  0  0  0  0  0  0  0  0  0
    8.3662  -14.4568   24.4185 C   0  0  2  0  0  0  0  0  0  0  0  0
    8.0877  -14.8713   23.0560 N   0  0  0  0  0  0  0  0  0  0  0  0
    8.4819  -15.6835   25.2535 C   0  0  0  0  0  0  0  0  0  0  0  0
    7.5891  -16.5597   25.1582 O   0  0  0  0  0  0  0  0  0  0  0  0
   11.3516  -19.1357   26.0449 O   0  0  0  0  0  0  0  0  0  0  0  0
   10.9200  -17.8897   25.6053 C   0  0  0  0  0  0  0  0  0  0  0  0
    9.9617  -17.2426   26.5794 C   0  0  2  0  0  0  0  0  0  0  0  0
    9.5446  -15.9318   26.1594 N   0  0  0  0  0  0  0  0  0  0  0  0
   10.5168  -17.2544   27.9478 C   0  0  0  0  0  0  0  0  0  0  0  0
   10.8743  -18.3977   28.6481 O   0  0  0  0  0  0  0  0  0  0  0  0
   10.6841  -16.1567   28.5361 O   0  0  0  0  0  0  0  0  0  0  0  0
  2  1  1  6
  2  3  1  0
  3  4  1  0
  4  5  1  0
  5  6  2  0
  5  9  1  0
  7  2  1  0
  7  8  2  0
 11 10  1  6
 11 13  1  0
 11 12  1  0
 14 13  1  1
 14 15  1  0
 14 16  1  0
 15  7  1  0
 16 21  1  0
 17 16  2  0
 19 18  1  0
 20 19  1  6
 20 22  1  0
 21 20  1  0
 22 24  2  0
 22 23  1  0
M  END
$$$$
