ELS.pdb
     RDKit          3D

 24 23  0  0  1  0  0  0  0  0999 V2000
    7.9274  -14.9166   20.4207 N   0  0  0  0  0  0  0  0  0  0  0  0
    7.4400  -15.6287   21.5482 C   0  0  1  0  0  0  0  0  0  0  0  0
    7.3365  -17.0994   21.4434 C   0  0  0  0  0  0  0  0  0  0  0  0
    8.5664  -17.7422   20.9439 C   0  0  0  0  0  0  0  0  0  0  0  0
    8.5447  -19.1801   20.6981 C   0  0  0  0  0  0  0  0  0  0  0  0
    9.5533  -19.7820   20.2715 O   0  0  0  0  0  0  0  0  0  0  0  0
    8.2515  -15.1996   22.7428 C   0  0  0  0  0  0  0  0  0  0  0  0
    9.5059  -15.0628   22.6658 O   0  0  0  0  0  0  0  0  0  0  0  0
    7.3885  -19.9520   20.9297 O   0  0  0  0  0  0  0  0  0  0  0  0
    8.1513  -11.6645   25.4775 C   0  0  0  0  0  0  0  0  0  0  0  0
    6.9503  -12.6120   25.6144 C   0  0  2  0  0  0  0  0  0  0  0  0
    5.9764  -11.9384   26.5316 C   0  0  0  0  0  0  0  0  0  0  0  0
    7.4823  -13.9002   26.1208 C   0  0  0  0  0  0  0  0  0  0  0  0
    8.3992  -14.6439   25.2139 C   0  0  2  0  0  0  0  0  0  0  0  0
    7.6576  -14.9307   24.0001 N   0  0  0  0  0  0  0  0  0  0  0  0
    8.8576  -15.9397   25.7849 C   0  0  0  0  0  0  0  0  0  0  0  0
    8.0081  -16.8415   25.9823 O   0  0  0  0  0  0  0  0  0  0  0  0
   12.4070  -19.1462   26.5405 O   0  0  0  0  0  0  0  0  0  0  0  0
   11.9956  -17.9065   26.0651 C   0  0  0  0  0  0  0  0  0  0  0  0
   10.6583  -17.4925   26.6363 C   0  0  2  0  0  0  0  0  0  0  0  0
   10.2043  -16.2273   26.1248 N   0  0  0  0  0  0  0  0  0  0  0  0
   10.6818  -17.5368   28.1122 C   0  0  0  0  0  0  0  0  0  0  0  0
   10.9322  -18.6739   28.8669 O   0  0  0  0  0  0  0  0  0  0  0  0
   10.4606  -16.4753   28.7472 O   0  0  0  0  0  0  0  0  0  0  0  0
  2  1  1  6
  2  3  1  0
  3  4  1  0
  4  5  1  0
  5  6  2  0
  5  9  1  0
  7  2  1  0
  7  8  2  0
 11 10  1  1
 11 13  1  0
 11 12  1  0
 14 13  1  1
 14 15  1  0
 14 16  1  0
 15  7  1  0
 16 21  1  0
 17 16  2  0
 19 18  1  0
 20 19  1  6
 20 22  1  0
 21 20  1  0
 22 24  2  0
 22 23  1  0
M  END
$$$$
