ELS.pdb
     RDKit          3D

 24 23  0  0  1  0  0  0  0  0999 V2000
    9.6041  -18.1887   18.4287 N   0  0  0  0  0  0  0  0  0  0  0  0
   10.8706  -17.5524   18.3457 C   0  0  1  0  0  0  0  0  0  0  0  0
   11.3383  -17.1178   17.0127 C   0  0  0  0  0  0  0  0  0  0  0  0
   10.2433  -16.8695   16.0565 C   0  0  0  0  0  0  0  0  0  0  0  0
   10.5833  -16.3604   14.7322 C   0  0  0  0  0  0  0  0  0  0  0  0
    9.8121  -15.5979   14.1112 O   0  0  0  0  0  0  0  0  0  0  0  0
   10.8807  -16.4266   19.3467 C   0  0  0  0  0  0  0  0  0  0  0  0
   11.9514  -15.8214   19.6389 O   0  0  0  0  0  0  0  0  0  0  0  0
   11.7927  -16.7051   14.0961 O   0  0  0  0  0  0  0  0  0  0  0  0
    8.8850  -12.5772   19.1755 C   0  0  0  0  0  0  0  0  0  0  0  0
    7.9406  -13.7535   19.4642 C   0  0  2  0  0  0  0  0  0  0  0  0
    6.5457  -13.2181   19.3579 C   0  0  0  0  0  0  0  0  0  0  0  0
    8.3017  -14.2670   20.8077 C   0  0  0  0  0  0  0  0  0  0  0  0
    9.6482  -14.8871   20.9430 C   0  0  2  0  0  0  0  0  0  0  0  0
    9.7042  -15.9930   20.0051 N   0  0  0  0  0  0  0  0  0  0  0  0
    9.9041  -15.4310   22.3046 C   0  0  0  0  0  0  0  0  0  0  0  0
    9.8097  -14.6563   23.2869 O   0  0  0  0  0  0  0  0  0  0  0  0
   10.1266  -19.5641   23.1362 O   0  0  0  0  0  0  0  0  0  0  0  0
    9.8293  -18.6338   24.1253 C   0  0  0  0  0  0  0  0  0  0  0  0
   10.5119  -17.3067   23.8829 C   0  0  2  0  0  0  0  0  0  0  0  0
   10.2512  -16.7804   22.5701 N   0  0  0  0  0  0  0  0  0  0  0  0
   11.9544  -17.3954   24.1867 C   0  0  0  0  0  0  0  0  0  0  0  0
   12.4846  -17.6868   25.4354 O   0  0  0  0  0  0  0  0  0  0  0  0
   12.7760  -17.1948   23.2574 O   0  0  0  0  0  0  0  0  0  0  0  0
  2  1  1  6
  2  3  1  0
  3  4  1  0
  4  5  1  0
  5  6  2  0
  5  9  1  0
  7  2  1  0
  7  8  2  0
 11 10  1  1
 11 13  1  0
 11 12  1  0
 14 13  1  1
 14 15  1  0
 14 16  1  0
 15  7  1  0
 16 21  1  0
 17 16  2  0
 19 18  1  0
 20 19  1  6
 20 22  1  0
 21 20  1  0
 22 24  2  0
 22 23  1  0
M  END
$$$$
