ELS.pdb
     RDKit          3D

 24 23  0  0  1  0  0  0  0  0999 V2000
    9.0467  -15.0254   20.8227 N   0  0  0  0  0  0  0  0  0  0  0  0
    8.3750  -15.7935   21.8100 C   0  0  1  0  0  0  0  0  0  0  0  0
    8.3535  -17.2621   21.6449 C   0  0  0  0  0  0  0  0  0  0  0  0
    9.2134  -17.7441   20.5478 C   0  0  0  0  0  0  0  0  0  0  0  0
    9.2026  -19.1691   20.2353 C   0  0  0  0  0  0  0  0  0  0  0  0
    8.4147  -19.6430   19.3889 O   0  0  0  0  0  0  0  0  0  0  0  0
    8.9161  -15.3803   23.1539 C   0  0  0  0  0  0  0  0  0  0  0  0
   10.1536  -15.1920   23.3304 O   0  0  0  0  0  0  0  0  0  0  0  0
   10.0771  -20.0720   20.8725 O   0  0  0  0  0  0  0  0  0  0  0  0
    8.0352  -11.8695   25.6683 C   0  0  0  0  0  0  0  0  0  0  0  0
    6.9144  -12.9186   25.6214 C   0  0  2  0  0  0  0  0  0  0  0  0
    5.7237  -12.3026   26.2895 C   0  0  0  0  0  0  0  0  0  0  0  0
    7.4397  -14.1304   26.2956 C   0  0  0  0  0  0  0  0  0  0  0  0
    8.5478  -14.8473   25.6070 C   0  0  2  0  0  0  0  0  0  0  0  0
    8.0756  -15.1842   24.2769 N   0  0  0  0  0  0  0  0  0  0  0  0
    8.9336  -16.1132   26.2879 C   0  0  0  0  0  0  0  0  0  0  0  0
    8.0494  -16.9809   26.4856 O   0  0  0  0  0  0  0  0  0  0  0  0
   12.9121  -17.4484   26.6548 O   0  0  0  0  0  0  0  0  0  0  0  0
   11.8155  -18.2987   26.7363 C   0  0  0  0  0  0  0  0  0  0  0  0
   10.6251  -17.6322   27.3880 C   0  0  2  0  0  0  0  0  0  0  0  0
   10.2474  -16.4085   26.7336 N   0  0  0  0  0  0  0  0  0  0  0  0
   10.8489  -17.4594   28.8375 C   0  0  0  0  0  0  0  0  0  0  0  0
   11.1982  -18.4783   29.7123 O   0  0  0  0  0  0  0  0  0  0  0  0
   10.7173  -16.3116   29.3315 O   0  0  0  0  0  0  0  0  0  0  0  0
  2  1  1  6
  2  3  1  0
  3  4  1  0
  4  5  1  0
  5  6  2  0
  5  9  1  0
  7  2  1  0
  7  8  2  0
 11 10  1  1
 11 13  1  0
 11 12  1  0
 14 13  1  1
 14 15  1  0
 14 16  1  0
 15  7  1  0
 16 21  1  0
 17 16  2  0
 19 18  1  0
 20 19  1  6
 20 22  1  0
 21 20  1  0
 22 24  2  0
 22 23  1  0
M  END
$$$$
