ELS.pdb
     RDKit          3D

 24 23  0  0  1  0  0  0  0  0999 V2000
   10.5497  -17.3217   16.3746 N   0  0  0  0  0  0  0  0  0  0  0  0
   11.8114  -17.2505   17.0218 C   0  0  1  0  0  0  0  0  0  0  0  0
   12.9780  -16.8349   16.2152 C   0  0  0  0  0  0  0  0  0  0  0  0
   12.7057  -16.7879   14.7664 C   0  0  0  0  0  0  0  0  0  0  0  0
   13.7839  -16.3790   13.8727 C   0  0  0  0  0  0  0  0  0  0  0  0
   13.8456  -16.7945   12.6958 O   0  0  0  0  0  0  0  0  0  0  0  0
   11.6425  -16.4030   18.2558 C   0  0  0  0  0  0  0  0  0  0  0  0
   12.6434  -16.0066   18.9185 O   0  0  0  0  0  0  0  0  0  0  0  0
   14.8011  -15.5001   14.2958 O   0  0  0  0  0  0  0  0  0  0  0  0
    6.9724  -13.1418   20.2175 C   0  0  0  0  0  0  0  0  0  0  0  0
    8.4880  -13.3707   20.3146 C   0  0  2  0  0  0  0  0  0  0  0  0
    9.1325  -12.3490   19.4289 C   0  0  0  0  0  0  0  0  0  0  0  0
    8.7310  -14.7765   19.9101 C   0  0  0  0  0  0  0  0  0  0  0  0
   10.1441  -15.2437   19.9434 C   0  0  2  0  0  0  0  0  0  0  0  0
   10.3676  -16.0114   18.7324 N   0  0  0  0  0  0  0  0  0  0  0  0
   10.4373  -16.1278   21.1042 C   0  0  0  0  0  0  0  0  0  0  0  0
   10.0914  -17.3321   21.0427 O   0  0  0  0  0  0  0  0  0  0  0  0
   13.7295  -16.3916   22.7602 O   0  0  0  0  0  0  0  0  0  0  0  0
   12.8511  -16.4219   23.8371 C   0  0  0  0  0  0  0  0  0  0  0  0
   11.4117  -16.5568   23.3945 C   0  0  2  0  0  0  0  0  0  0  0  0
   11.0885  -15.6965   22.2882 N   0  0  0  0  0  0  0  0  0  0  0  0
   10.4929  -16.3866   24.5380 C   0  0  0  0  0  0  0  0  0  0  0  0
   10.4841  -17.1848   25.6729 O   0  0  0  0  0  0  0  0  0  0  0  0
    9.6507  -15.4550   24.4965 O   0  0  0  0  0  0  0  0  0  0  0  0
  2  1  1  6
  2  3  1  0
  3  4  1  0
  4  5  1  0
  5  6  2  0
  5  9  1  0
  7  2  1  0
  7  8  2  0
 11 10  1  6
 11 13  1  0
 11 12  1  0
 14 13  1  1
 14 15  1  0
 14 16  1  0
 15  7  1  0
 16 21  1  0
 17 16  2  0
 19 18  1  0
 20 19  1  1
 20 22  1  0
 21 20  1  0
 22 24  2  0
 22 23  1  0
M  END
$$$$
