ELS.pdb
     RDKit          3D

 24 23  0  0  1  0  0  0  0  0999 V2000
    8.6159  -15.2380   20.1265 N   0  0  0  0  0  0  0  0  0  0  0  0
    8.4430  -16.2384   21.1190 C   0  0  1  0  0  0  0  0  0  0  0  0
    9.0337  -17.5696   20.8670 C   0  0  0  0  0  0  0  0  0  0  0  0
    9.9972  -17.5845   19.7505 C   0  0  0  0  0  0  0  0  0  0  0  0
   10.6268  -18.8522   19.3968 C   0  0  0  0  0  0  0  0  0  0  0  0
   10.0047  -19.9328   19.4811 O   0  0  0  0  0  0  0  0  0  0  0  0
    8.8922  -15.6568   22.4342 C   0  0  0  0  0  0  0  0  0  0  0  0
   10.1150  -15.6313   22.7539 O   0  0  0  0  0  0  0  0  0  0  0  0
   11.9606  -18.9145   18.9462 O   0  0  0  0  0  0  0  0  0  0  0  0
    6.0355  -12.5017   26.8378 C   0  0  0  0  0  0  0  0  0  0  0  0
    7.3890  -13.1413   26.4947 C   0  0  2  0  0  0  0  0  0  0  0  0
    8.4152  -12.0557   26.6046 C   0  0  0  0  0  0  0  0  0  0  0  0
    7.2512  -13.7224   25.1374 C   0  0  0  0  0  0  0  0  0  0  0  0
    8.3429  -14.6292   24.6880 C   0  0  2  0  0  0  0  0  0  0  0  0
    7.9778  -15.1151   23.3703 N   0  0  0  0  0  0  0  0  0  0  0  0
    8.5209  -15.8103   25.5761 C   0  0  0  0  0  0  0  0  0  0  0  0
    7.5187  -16.5164   25.8421 O   0  0  0  0  0  0  0  0  0  0  0  0
   10.9586  -18.2547   24.9820 O   0  0  0  0  0  0  0  0  0  0  0  0
   10.9001  -18.3602   26.3667 C   0  0  0  0  0  0  0  0  0  0  0  0
    9.9442  -17.3587   26.9743 C   0  0  2  0  0  0  0  0  0  0  0  0
    9.7601  -16.1958   26.1484 N   0  0  0  0  0  0  0  0  0  0  0  0
   10.3454  -17.0212   28.3549 C   0  0  0  0  0  0  0  0  0  0  0  0
   10.5472  -17.9456   29.3698 O   0  0  0  0  0  0  0  0  0  0  0  0
   10.5213  -15.8123   28.6493 O   0  0  0  0  0  0  0  0  0  0  0  0
  2  1  1  6
  2  3  1  0
  3  4  1  0
  4  5  1  0
  5  6  2  0
  5  9  1  0
  7  2  1  0
  7  8  2  0
 11 10  1  6
 11 13  1  0
 11 12  1  0
 14 13  1  1
 14 15  1  0
 14 16  1  0
 15  7  1  0
 16 21  1  0
 17 16  2  0
 19 18  1  0
 20 19  1  6
 20 22  1  0
 21 20  1  0
 22 24  2  0
 22 23  1  0
M  END
$$$$
