ELS.pdb
     RDKit          3D

 24 23  0  0  1  0  0  0  0  0999 V2000
    7.3398  -16.7620   21.4009 N   0  0  0  0  0  0  0  0  0  0  0  0
    8.7392  -16.5260   21.3589 C   0  0  1  0  0  0  0  0  0  0  0  0
    9.3022  -15.9327   20.1278 C   0  0  0  0  0  0  0  0  0  0  0  0
    8.8230  -16.5775   18.8909 C   0  0  0  0  0  0  0  0  0  0  0  0
    9.7624  -16.7394   17.7865 C   0  0  0  0  0  0  0  0  0  0  0  0
   10.8493  -17.3368   17.9398 O   0  0  0  0  0  0  0  0  0  0  0  0
    9.1046  -15.7365   22.5889 C   0  0  0  0  0  0  0  0  0  0  0  0
   10.2987  -15.3846   22.8089 O   0  0  0  0  0  0  0  0  0  0  0  0
    9.4871  -16.2304   16.5015 O   0  0  0  0  0  0  0  0  0  0  0  0
    5.8030  -12.4513   26.5074 C   0  0  0  0  0  0  0  0  0  0  0  0
    7.2473  -12.8918   26.2267 C   0  0  2  0  0  0  0  0  0  0  0  0
    8.0509  -11.6394   26.0560 C   0  0  0  0  0  0  0  0  0  0  0  0
    7.1996  -13.7607   25.0259 C   0  0  0  0  0  0  0  0  0  0  0  0
    8.4264  -14.5488   24.7259 C   0  0  2  0  0  0  0  0  0  0  0  0
    8.1399  -15.3525   23.5521 N   0  0  0  0  0  0  0  0  0  0  0  0
    8.8086  -15.4726   25.8285 C   0  0  0  0  0  0  0  0  0  0  0  0
    9.0868  -14.9842   26.9501 O   0  0  0  0  0  0  0  0  0  0  0  0
    9.1897  -19.6962   25.3058 O   0  0  0  0  0  0  0  0  0  0  0  0
    8.7379  -19.1921   26.5199 C   0  0  0  0  0  0  0  0  0  0  0  0
    9.2216  -17.7810   26.7662 C   0  0  2  0  0  0  0  0  0  0  0  0
    8.8806  -16.8829   25.6959 N   0  0  0  0  0  0  0  0  0  0  0  0
   10.6635  -17.7686   27.0848 C   0  0  0  0  0  0  0  0  0  0  0  0
   11.2450  -18.4383   28.1519 O   0  0  0  0  0  0  0  0  0  0  0  0
   11.4350  -17.1077   26.3453 O   0  0  0  0  0  0  0  0  0  0  0  0
  2  1  1  6
  2  3  1  0
  3  4  1  0
  4  5  1  0
  5  6  2  0
  5  9  1  0
  7  2  1  0
  7  8  2  0
 11 10  1  6
 11 13  1  0
 11 12  1  0
 14 13  1  1
 14 15  1  0
 14 16  1  0
 15  7  1  0
 16 21  1  0
 17 16  2  0
 19 18  1  0
 20 19  1  6
 20 22  1  0
 21 20  1  0
 22 24  2  0
 22 23  1  0
M  END
$$$$
