ELS.pdb
     RDKit          3D

 24 23  0  0  1  0  0  0  0  0999 V2000
    7.2129  -16.1961   21.7102 N   0  0  0  0  0  0  0  0  0  0  0  0
    8.6057  -16.4489   21.8201 C   0  0  1  0  0  0  0  0  0  0  0  0
    9.4913  -15.8999   20.7718 C   0  0  0  0  0  0  0  0  0  0  0  0
   10.1513  -16.9364   19.9562 C   0  0  0  0  0  0  0  0  0  0  0  0
   11.0652  -16.5095   18.9022 C   0  0  0  0  0  0  0  0  0  0  0  0
   11.3527  -15.3042   18.7398 O   0  0  0  0  0  0  0  0  0  0  0  0
    9.0358  -16.0331   23.2028 C   0  0  0  0  0  0  0  0  0  0  0  0
   10.2534  -16.0536   23.5423 O   0  0  0  0  0  0  0  0  0  0  0  0
   11.6624  -17.4345   18.0225 O   0  0  0  0  0  0  0  0  0  0  0  0
    8.2315  -12.2357   25.8066 C   0  0  0  0  0  0  0  0  0  0  0  0
    7.0570  -13.1586   25.4495 C   0  0  2  0  0  0  0  0  0  0  0  0
    5.8137  -12.4726   25.9262 C   0  0  0  0  0  0  0  0  0  0  0  0
    7.3289  -14.4623   26.1017 C   0  0  0  0  0  0  0  0  0  0  0  0
    8.4578  -15.2600   25.5491 C   0  0  2  0  0  0  0  0  0  0  0  0
    8.1086  -15.6031   24.1831 N   0  0  0  0  0  0  0  0  0  0  0  0
    8.6923  -16.5283   26.2918 C   0  0  0  0  0  0  0  0  0  0  0  0
    7.7524  -17.3547   26.3783 O   0  0  0  0  0  0  0  0  0  0  0  0
   11.2873  -20.2514   27.4060 O   0  0  0  0  0  0  0  0  0  0  0  0
   11.0676  -19.0361   26.7680 C   0  0  0  0  0  0  0  0  0  0  0  0
   10.1725  -18.1229   27.5745 C   0  0  2  0  0  0  0  0  0  0  0  0
    9.9197  -16.8699   26.9153 N   0  0  0  0  0  0  0  0  0  0  0  0
   10.6953  -17.9521   28.9450 C   0  0  0  0  0  0  0  0  0  0  0  0
   10.7300  -18.9487   29.9098 O   0  0  0  0  0  0  0  0  0  0  0  0
   11.1459  -16.8275   29.2787 O   0  0  0  0  0  0  0  0  0  0  0  0
  2  1  1  6
  2  3  1  0
  3  4  1  0
  4  5  1  0
  5  6  2  0
  5  9  1  0
  7  2  1  0
  7  8  2  0
 11 10  1  1
 11 13  1  0
 11 12  1  0
 14 13  1  1
 14 15  1  0
 14 16  1  0
 15  7  1  0
 16 21  1  0
 17 16  2  0
 19 18  1  0
 20 19  1  6
 20 22  1  0
 21 20  1  0
 22 24  2  0
 22 23  1  0
M  END
$$$$
