HNS.pdb
     RDKit          3D

 25 25  0  0  1  0  0  0  0  0999 V2000
    8.2715  -17.5277   19.9745 N   0  0  0  0  0  0  0  0  0  0  0  0
    8.0615  -16.2584   20.5991 C   0  0  1  0  0  0  0  0  0  0  0  0
    6.9756  -15.4341   19.9131 C   0  0  0  0  0  0  0  0  0  0  0  0
    7.6216  -14.4435   18.9954 C   0  0  0  0  0  0  0  0  0  0  0  0
    8.9716  -14.3348   18.7294 C   0  0  0  0  0  0  0  0  0  0  0  0
    9.1380  -13.3353   17.8661 N   0  0  0  0  0  0  0  0  0  0  0  0
    7.9271  -12.8308   17.5978 C   0  0  0  0  0  0  0  0  0  0  0  0
    7.0038  -13.5041   18.2841 N   0  0  0  0  0  0  0  0  0  0  0  0
    7.7212  -16.3991   22.0522 C   0  0  0  0  0  0  0  0  0  0  0  0
    6.5382  -16.5474   22.4322 O   0  0  0  0  0  0  0  0  0  0  0  0
    8.7429  -18.4326   27.2992 N   0  0  0  0  0  0  0  0  0  0  0  0
    9.3312  -17.3238   26.6197 C   0  0  0  0  0  0  0  0  0  0  0  0
    9.7628  -16.3947   27.3395 O   0  0  0  0  0  0  0  0  0  0  0  0
    9.3746  -17.3759   25.1597 C   0  0  0  0  0  0  0  0  0  0  0  0
    8.4242  -16.4173   24.4843 C   0  0  2  0  0  0  0  0  0  0  0  0
    8.7243  -16.3703   23.0606 N   0  0  0  0  0  0  0  0  0  0  0  0
    8.5001  -15.0620   25.0987 C   0  0  0  0  0  0  0  0  0  0  0  0
    9.5300  -14.3793   24.8672 O   0  0  0  0  0  0  0  0  0  0  0  0
    5.2778  -13.3392   27.3529 O   0  0  0  0  0  0  0  0  0  0  0  0
    6.1569  -12.5661   26.6186 C   0  0  0  0  0  0  0  0  0  0  0  0
    7.5214  -13.1903   26.4874 C   0  0  2  0  0  0  0  0  0  0  0  0
    7.5073  -14.4958   25.9142 N   0  0  0  0  0  0  0  0  0  0  0  0
    8.1627  -13.2183   27.8171 C   0  0  0  0  0  0  0  0  0  0  0  0
    8.2585  -12.1769   28.5178 O   0  0  0  0  0  0  0  0  0  0  0  0
    8.6853  -14.3904   28.3489 O   0  0  0  0  0  0  0  0  0  0  0  0
  2  1  1  6
  3  2  1  0
  4  3  1  0
  5  4  2  0
  6  5  1  0
  7  6  1  0
  7  8  2  0
  8  4  1  0
  9  2  1  0
  9 10  2  0
 11 12  1  0
 12 14  1  0
 12 13  2  0
 15 14  1  1
 15 16  1  0
 16  9  1  0
 17 15  1  0
 18 17  2  0
 19 20  1  0
 21 20  1  1
 21 22  1  0
 21 23  1  0
 22 17  1  0
 23 24  2  0
 23 25  1  0
M  END
$$$$
