HNS.pdb
     RDKit          3D

 25 25  0  0  1  0  0  0  0  0999 V2000
   10.6858  -16.1760   17.9887 N   0  0  0  0  0  0  0  0  0  0  0  0
   10.2804  -16.0803   19.3568 C   0  0  1  0  0  0  0  0  0  0  0  0
    8.8127  -15.6920   19.5131 C   0  0  0  0  0  0  0  0  0  0  0  0
    8.7117  -14.2030   19.6281 C   0  0  0  0  0  0  0  0  0  0  0  0
    9.7571  -13.3046   19.5569 C   0  0  0  0  0  0  0  0  0  0  0  0
    9.2541  -12.0810   19.7048 N   0  0  0  0  0  0  0  0  0  0  0  0
    7.9308  -12.2075   19.8643 C   0  0  0  0  0  0  0  0  0  0  0  0
    7.5995  -13.4978   19.8179 N   0  0  0  0  0  0  0  0  0  0  0  0
   10.5291  -17.3554   20.1048 C   0  0  0  0  0  0  0  0  0  0  0  0
   10.1162  -18.4547   19.6724 O   0  0  0  0  0  0  0  0  0  0  0  0
   11.6439  -21.6683   22.1957 N   0  0  0  0  0  0  0  0  0  0  0  0
   12.6767  -20.8088   21.7142 C   0  0  0  0  0  0  0  0  0  0  0  0
   13.8523  -21.2134   21.8629 O   0  0  0  0  0  0  0  0  0  0  0  0
   12.2695  -19.5477   21.0980 C   0  0  0  0  0  0  0  0  0  0  0  0
   11.5764  -18.5989   22.0455 C   0  0  2  0  0  0  0  0  0  0  0  0
   11.2430  -17.3727   21.3352 N   0  0  0  0  0  0  0  0  0  0  0  0
   12.4211  -18.3197   23.2408 C   0  0  0  0  0  0  0  0  0  0  0  0
   13.6649  -18.4493   23.1126 O   0  0  0  0  0  0  0  0  0  0  0  0
    9.9255  -20.3465   26.4011 O   0  0  0  0  0  0  0  0  0  0  0  0
   10.2990  -19.5680   25.3222 C   0  0  0  0  0  0  0  0  0  0  0  0
   11.5594  -18.7821   25.5718 C   0  0  2  0  0  0  0  0  0  0  0  0
   11.9285  -17.9238   24.4946 N   0  0  0  0  0  0  0  0  0  0  0  0
   12.6549  -19.7230   25.8794 C   0  0  0  0  0  0  0  0  0  0  0  0
   13.1492  -20.4631   24.9891 O   0  0  0  0  0  0  0  0  0  0  0  0
   13.1843  -19.8308   27.1592 O   0  0  0  0  0  0  0  0  0  0  0  0
  2  1  1  6
  3  2  1  0
  4  3  1  0
  5  4  2  0
  6  5  1  0
  7  6  1  0
  7  8  2  0
  8  4  1  0
  9  2  1  0
  9 10  2  0
 11 12  1  0
 12 14  1  0
 12 13  2  0
 15 14  1  6
 15 16  1  0
 16  9  1  0
 17 15  1  0
 18 17  2  0
 19 20  1  0
 21 20  1  6
 21 22  1  0
 21 23  1  0
 22 17  1  0
 23 24  2  0
 23 25  1  0
M  END
$$$$
