HNS.pdb
     RDKit          3D

 25 25  0  0  1  0  0  0  0  0999 V2000
    8.6682  -17.4516   17.0088 N   0  0  0  0  0  0  0  0  0  0  0  0
    8.8161  -16.6747   18.2004 C   0  0  1  0  0  0  0  0  0  0  0  0
    7.6585  -15.7050   18.4217 C   0  0  0  0  0  0  0  0  0  0  0  0
    7.5150  -14.8330   17.2135 C   0  0  0  0  0  0  0  0  0  0  0  0
    8.2703  -14.9026   16.0604 C   0  0  0  0  0  0  0  0  0  0  0  0
    7.8328  -13.9599   15.2286 N   0  0  0  0  0  0  0  0  0  0  0  0
    6.8314  -13.3167   15.8420 C   0  0  0  0  0  0  0  0  0  0  0  0
    6.6371  -13.8468   17.0495 N   0  0  0  0  0  0  0  0  0  0  0  0
    8.9672  -17.5383   19.4164 C   0  0  0  0  0  0  0  0  0  0  0  0
    9.0505  -17.0408   20.5616 O   0  0  0  0  0  0  0  0  0  0  0  0
    8.4211  -23.2559   21.2899 N   0  0  0  0  0  0  0  0  0  0  0  0
    8.3531  -21.8613   21.5862 C   0  0  0  0  0  0  0  0  0  0  0  0
    8.4014  -21.5462   22.7971 O   0  0  0  0  0  0  0  0  0  0  0  0
    8.2343  -20.9392   20.4586 C   0  0  0  0  0  0  0  0  0  0  0  0
    9.2496  -19.8222   20.4715 C   0  0  2  0  0  0  0  0  0  0  0  0
    9.0225  -18.9567   19.3232 N   0  0  0  0  0  0  0  0  0  0  0  0
   10.6395  -20.3588   20.4786 C   0  0  0  0  0  0  0  0  0  0  0  0
   11.0010  -21.0139   21.4888 O   0  0  0  0  0  0  0  0  0  0  0  0
   13.4471  -18.6692   17.8438 O   0  0  0  0  0  0  0  0  0  0  0  0
   13.7444  -19.0817   19.1287 C   0  0  0  0  0  0  0  0  0  0  0  0
   12.9865  -20.3164   19.5406 C   0  0  2  0  0  0  0  0  0  0  0  0
   11.5701  -20.1853   19.4416 N   0  0  0  0  0  0  0  0  0  0  0  0
   13.3755  -20.6770   20.9186 C   0  0  0  0  0  0  0  0  0  0  0  0
   14.0097  -21.7370   21.1617 O   0  0  0  0  0  0  0  0  0  0  0  0
   13.0594  -19.8651   22.0006 O   0  0  0  0  0  0  0  0  0  0  0  0
  2  1  1  6
  3  2  1  0
  4  3  1  0
  5  4  2  0
  6  5  1  0
  7  6  1  0
  7  8  2  0
  8  4  1  0
  9  2  1  0
  9 10  2  0
 11 12  1  0
 12 14  1  0
 12 13  2  0
 15 14  1  6
 15 16  1  0
 16  9  1  0
 17 15  1  0
 18 17  2  0
 19 20  1  0
 21 20  1  1
 21 22  1  0
 21 23  1  0
 22 17  1  0
 23 24  2  0
 23 25  1  0
M  END
$$$$
