HNS.pdb
     RDKit          3D

 25 25  0  0  1  0  0  0  0  0999 V2000
    7.3259  -17.5454   17.9684 N   0  0  0  0  0  0  0  0  0  0  0  0
    7.6778  -16.7102   19.0748 C   0  0  1  0  0  0  0  0  0  0  0  0
    6.9623  -15.3624   19.0495 C   0  0  0  0  0  0  0  0  0  0  0  0
    7.4558  -14.5700   17.8794 C   0  0  0  0  0  0  0  0  0  0  0  0
    8.4004  -14.9744   16.9579 C   0  0  0  0  0  0  0  0  0  0  0  0
    8.5604  -13.9883   16.0782 N   0  0  0  0  0  0  0  0  0  0  0  0
    7.7398  -12.9931   16.4371 C   0  0  0  0  0  0  0  0  0  0  0  0
    7.0673  -13.3456   17.5327 N   0  0  0  0  0  0  0  0  0  0  0  0
    7.4094  -17.3796   20.3889 C   0  0  0  0  0  0  0  0  0  0  0  0
    6.2569  -17.4208   20.8749 O   0  0  0  0  0  0  0  0  0  0  0  0
    7.9512  -20.0443   24.7509 N   0  0  0  0  0  0  0  0  0  0  0  0
    8.6572  -20.7122   23.7056 C   0  0  0  0  0  0  0  0  0  0  0  0
    9.0815  -21.8611   23.9658 O   0  0  0  0  0  0  0  0  0  0  0  0
    8.8176  -19.9991   22.4400 C   0  0  0  0  0  0  0  0  0  0  0  0
    8.2353  -18.6065   22.4437 C   0  0  2  0  0  0  0  0  0  0  0  0
    8.4489  -17.9956   21.1397 N   0  0  0  0  0  0  0  0  0  0  0  0
    8.8265  -17.7791   23.5327 C   0  0  0  0  0  0  0  0  0  0  0  0
   10.0484  -17.4968   23.4456 O   0  0  0  0  0  0  0  0  0  0  0  0
    6.4055  -15.7015   26.2309 O   0  0  0  0  0  0  0  0  0  0  0  0
    7.7132  -15.3035   26.0280 C   0  0  0  0  0  0  0  0  0  0  0  0
    8.6274  -16.4460   25.6712 C   0  0  2  0  0  0  0  0  0  0  0  0
    8.1188  -17.2945   24.6443 N   0  0  0  0  0  0  0  0  0  0  0  0
    8.9125  -17.2274   26.8911 C   0  0  0  0  0  0  0  0  0  0  0  0
    9.3758  -16.6782   27.9247 O   0  0  0  0  0  0  0  0  0  0  0  0
    8.6824  -18.5961   26.9495 O   0  0  0  0  0  0  0  0  0  0  0  0
  2  1  1  6
  3  2  1  0
  4  3  1  0
  5  4  2  0
  6  5  1  0
  7  6  1  0
  7  8  2  0
  8  4  1  0
  9  2  1  0
  9 10  2  0
 11 12  1  0
 12 14  1  0
 12 13  2  0
 15 14  1  6
 15 16  1  0
 16  9  1  0
 17 15  1  0
 18 17  2  0
 19 20  1  0
 21 20  1  1
 21 22  1  0
 21 23  1  0
 22 17  1  0
 23 24  2  0
 23 25  1  0
M  END
$$$$
