HNS.pdb
     RDKit          3D

 25 25  0  0  1  0  0  0  0  0999 V2000
    9.9551  -15.7904   16.8328 N   0  0  0  0  0  0  0  0  0  0  0  0
   10.6015  -14.9045   17.7508 C   0  0  1  0  0  0  0  0  0  0  0  0
    9.8142  -14.7159   19.0446 C   0  0  0  0  0  0  0  0  0  0  0  0
    8.5625  -13.9510   18.7467 C   0  0  0  0  0  0  0  0  0  0  0  0
    7.5755  -14.3140   17.8529 C   0  0  0  0  0  0  0  0  0  0  0  0
    6.6349  -13.3724   17.8793 N   0  0  0  0  0  0  0  0  0  0  0  0
    7.0203  -12.4447   18.7645 C   0  0  0  0  0  0  0  0  0  0  0  0
    8.1928  -12.7954   19.2928 N   0  0  0  0  0  0  0  0  0  0  0  0
   11.9889  -15.3619   18.0872 C   0  0  0  0  0  0  0  0  0  0  0  0
   12.2026  -16.5029   18.5546 O   0  0  0  0  0  0  0  0  0  0  0  0
   15.3434  -13.5471   15.1007 N   0  0  0  0  0  0  0  0  0  0  0  0
   15.5560  -14.5374   16.1063 C   0  0  0  0  0  0  0  0  0  0  0  0
   15.8004  -15.6973   15.7028 O   0  0  0  0  0  0  0  0  0  0  0  0
   15.4695  -14.1091   17.5009 C   0  0  0  0  0  0  0  0  0  0  0  0
   14.4643  -14.8840   18.3181 C   0  0  2  0  0  0  0  0  0  0  0  0
   13.1205  -14.5224   17.8908 N   0  0  0  0  0  0  0  0  0  0  0  0
   14.6531  -14.6396   19.7757 C   0  0  0  0  0  0  0  0  0  0  0  0
   14.5617  -13.4526   20.1795 O   0  0  0  0  0  0  0  0  0  0  0  0
   14.3287  -16.2030   24.3063 O   0  0  0  0  0  0  0  0  0  0  0  0
   14.0841  -16.2696   22.9479 C   0  0  0  0  0  0  0  0  0  0  0  0
   15.0553  -15.4551   22.1344 C   0  0  2  0  0  0  0  0  0  0  0  0
   14.9248  -15.6368   20.7262 N   0  0  0  0  0  0  0  0  0  0  0  0
   16.4289  -15.7761   22.5702 C   0  0  0  0  0  0  0  0  0  0  0  0
   17.2495  -16.3266   21.7902 O   0  0  0  0  0  0  0  0  0  0  0  0
   16.8722  -15.4853   23.8543 O   0  0  0  0  0  0  0  0  0  0  0  0
  2  1  1  6
  3  2  1  0
  4  3  1  0
  5  4  2  0
  6  5  1  0
  7  6  1  0
  7  8  2  0
  8  4  1  0
  9  2  1  0
  9 10  2  0
 11 12  1  0
 12 14  1  0
 12 13  2  0
 15 14  1  6
 15 16  1  0
 16  9  1  0
 17 15  1  0
 18 17  2  0
 19 20  1  0
 21 20  1  1
 21 22  1  0
 21 23  1  0
 22 17  1  0
 23 24  2  0
 23 25  1  0
M  END
$$$$
