HNS.pdb
     RDKit          3D

 25 25  0  0  1  0  0  0  0  0999 V2000
   11.7373  -13.4732   19.5483 N   0  0  0  0  0  0  0  0  0  0  0  0
   10.5542  -14.1950   19.9011 C   0  0  1  0  0  0  0  0  0  0  0  0
   10.2839  -15.3770   18.9742 C   0  0  0  0  0  0  0  0  0  0  0  0
    9.4775  -14.9052   17.8047 C   0  0  0  0  0  0  0  0  0  0  0  0
    9.1544  -13.5963   17.5089 C   0  0  0  0  0  0  0  0  0  0  0  0
    8.4298  -13.5974   16.3922 N   0  0  0  0  0  0  0  0  0  0  0  0
    8.3016  -14.8706   15.9981 C   0  0  0  0  0  0  0  0  0  0  0  0
    8.9385  -15.6671   16.8565 N   0  0  0  0  0  0  0  0  0  0  0  0
   10.5997  -14.6866   21.3166 C   0  0  0  0  0  0  0  0  0  0  0  0
   11.6875  -14.9151   21.8915 O   0  0  0  0  0  0  0  0  0  0  0  0
    8.5211  -12.8723   23.7090 N   0  0  0  0  0  0  0  0  0  0  0  0
    7.6252  -13.8805   24.1760 C   0  0  0  0  0  0  0  0  0  0  0  0
    6.5506  -13.4808   24.6794 O   0  0  0  0  0  0  0  0  0  0  0  0
    8.0418  -15.2731   24.0245 C   0  0  0  0  0  0  0  0  0  0  0  0
    9.4171  -15.4390   23.4249 C   0  0  2  0  0  0  0  0  0  0  0  0
    9.4127  -14.9146   22.0668 N   0  0  0  0  0  0  0  0  0  0  0  0
    9.8479  -16.8650   23.4533 C   0  0  0  0  0  0  0  0  0  0  0  0
    9.2499  -17.6648   22.6897 O   0  0  0  0  0  0  0  0  0  0  0  0
   13.5001  -18.0359   25.0538 O   0  0  0  0  0  0  0  0  0  0  0  0
   12.8036  -18.8941   24.2243 C   0  0  0  0  0  0  0  0  0  0  0  0
   11.3099  -18.7315   24.3299 C   0  0  2  0  0  0  0  0  0  0  0  0
   10.8700  -17.3766   24.2688 N   0  0  0  0  0  0  0  0  0  0  0  0
   10.8484  -19.3672   25.5801 C   0  0  0  0  0  0  0  0  0  0  0  0
   10.1311  -18.7419   26.4043 O   0  0  0  0  0  0  0  0  0  0  0  0
   11.1850  -20.6768   25.8985 O   0  0  0  0  0  0  0  0  0  0  0  0
  2  1  1  6
  3  2  1  0
  4  3  1  0
  5  4  2  0
  6  5  1  0
  7  6  1  0
  7  8  2  0
  8  4  1  0
  9  2  1  0
  9 10  2  0
 11 12  1  0
 12 14  1  0
 12 13  2  0
 15 14  1  6
 15 16  1  0
 16  9  1  0
 17 15  1  0
 18 17  2  0
 19 20  1  0
 21 20  1  1
 21 22  1  0
 21 23  1  0
 22 17  1  0
 23 24  2  0
 23 25  1  0
M  END
$$$$
