HNS.pdb
     RDKit          3D

 25 25  0  0  1  0  0  0  0  0999 V2000
   11.9962  -16.2063   13.3819 N   0  0  0  0  0  0  0  0  0  0  0  0
   11.8100  -15.5794   14.6538 C   0  0  1  0  0  0  0  0  0  0  0  0
   10.5053  -15.9905   15.3304 C   0  0  0  0  0  0  0  0  0  0  0  0
   10.3617  -17.4783   15.2499 C   0  0  0  0  0  0  0  0  0  0  0  0
   11.2582  -18.3563   14.6750 C   0  0  0  0  0  0  0  0  0  0  0  0
   10.7671  -19.5864   14.8086 N   0  0  0  0  0  0  0  0  0  0  0  0
    9.5958  -19.4836   15.4491 C   0  0  0  0  0  0  0  0  0  0  0  0
    9.3481  -18.2017   15.7181 N   0  0  0  0  0  0  0  0  0  0  0  0
   12.9505  -15.8560   15.5864 C   0  0  0  0  0  0  0  0  0  0  0  0
   13.8375  -16.6911   15.3001 O   0  0  0  0  0  0  0  0  0  0  0  0
   17.0528  -13.2798   18.0049 N   0  0  0  0  0  0  0  0  0  0  0  0
   15.9946  -13.8760   18.7545 C   0  0  0  0  0  0  0  0  0  0  0  0
   16.2938  -14.3145   19.8885 O   0  0  0  0  0  0  0  0  0  0  0  0
   14.6720  -13.9189   18.1340 C   0  0  0  0  0  0  0  0  0  0  0  0
   14.2503  -15.2972   17.6859 C   0  0  2  0  0  0  0  0  0  0  0  0
   13.0752  -15.1841   16.8341 N   0  0  0  0  0  0  0  0  0  0  0  0
   13.9895  -16.1860   18.8531 C   0  0  0  0  0  0  0  0  0  0  0  0
   12.8168  -16.2178   19.3047 O   0  0  0  0  0  0  0  0  0  0  0  0
   13.5444  -18.2002   22.6521 O   0  0  0  0  0  0  0  0  0  0  0  0
   13.7226  -17.3516   21.5761 C   0  0  0  0  0  0  0  0  0  0  0  0
   14.7488  -17.8535   20.5945 C   0  0  2  0  0  0  0  0  0  0  0  0
   14.9565  -16.9869   19.4814 N   0  0  0  0  0  0  0  0  0  0  0  0
   14.3497  -19.1981   20.1332 C   0  0  0  0  0  0  0  0  0  0  0  0
   13.1984  -19.4152   19.6725 O   0  0  0  0  0  0  0  0  0  0  0  0
   15.2242  -20.2761   20.1878 O   0  0  0  0  0  0  0  0  0  0  0  0
  2  1  1  6
  3  2  1  0
  4  3  1  0
  5  4  2  0
  6  5  1  0
  7  6  1  0
  7  8  2  0
  8  4  1  0
  9  2  1  0
  9 10  2  0
 11 12  1  0
 12 14  1  0
 12 13  2  0
 15 14  1  1
 15 16  1  0
 16  9  1  0
 17 15  1  0
 18 17  2  0
 19 20  1  0
 21 20  1  1
 21 22  1  0
 21 23  1  0
 22 17  1  0
 23 24  2  0
 23 25  1  0
M  END
$$$$
