HNS.pdb
     RDKit          3D

 25 25  0  0  1  0  0  0  0  0999 V2000
    6.3251  -17.0264   19.9380 N   0  0  0  0  0  0  0  0  0  0  0  0
    7.4585  -16.3846   20.5287 C   0  0  1  0  0  0  0  0  0  0  0  0
    7.1271  -15.0099   21.1030 C   0  0  0  0  0  0  0  0  0  0  0  0
    7.7126  -13.9564   20.2154 C   0  0  0  0  0  0  0  0  0  0  0  0
    8.4426  -14.1707   19.0637 C   0  0  0  0  0  0  0  0  0  0  0  0
    8.7808  -12.9824   18.5682 N   0  0  0  0  0  0  0  0  0  0  0  0
    8.2775  -12.0487   19.3853 C   0  0  0  0  0  0  0  0  0  0  0  0
    7.6275  -12.6399   20.3877 N   0  0  0  0  0  0  0  0  0  0  0  0
    8.0801  -17.2244   21.6036 C   0  0  0  0  0  0  0  0  0  0  0  0
    7.3841  -17.7605   22.4949 O   0  0  0  0  0  0  0  0  0  0  0  0
   11.6211  -20.6384   23.6260 N   0  0  0  0  0  0  0  0  0  0  0  0
   12.2646  -19.4516   23.1627 C   0  0  0  0  0  0  0  0  0  0  0  0
   13.4153  -19.2330   23.6053 O   0  0  0  0  0  0  0  0  0  0  0  0
   11.5269  -18.6096   22.2231 C   0  0  0  0  0  0  0  0  0  0  0  0
   10.1168  -18.2948   22.6600 C   0  0  2  0  0  0  0  0  0  0  0  0
    9.4838  -17.4489   21.6584 N   0  0  0  0  0  0  0  0  0  0  0  0
   10.1011  -17.6487   24.0025 C   0  0  0  0  0  0  0  0  0  0  0  0
   10.6733  -16.5350   24.1147 O   0  0  0  0  0  0  0  0  0  0  0  0
    7.1271  -17.9762   26.7318 O   0  0  0  0  0  0  0  0  0  0  0  0
    8.1630  -17.0740   26.8827 C   0  0  0  0  0  0  0  0  0  0  0  0
    9.4957  -17.6316   26.4567 C   0  0  2  0  0  0  0  0  0  0  0  0
    9.4953  -18.1933   25.1461 N   0  0  0  0  0  0  0  0  0  0  0  0
    9.9311  -18.6359   27.4476 C   0  0  0  0  0  0  0  0  0  0  0  0
   10.2379  -19.8062   27.0994 O   0  0  0  0  0  0  0  0  0  0  0  0
   10.0201  -18.3332   28.8004 O   0  0  0  0  0  0  0  0  0  0  0  0
  2  1  1  1
  3  2  1  0
  4  3  1  0
  5  4  2  0
  6  5  1  0
  7  6  1  0
  7  8  2  0
  8  4  1  0
  9  2  1  0
  9 10  2  0
 11 12  1  0
 12 14  1  0
 12 13  2  0
 15 14  1  6
 15 16  1  0
 16  9  1  0
 17 15  1  0
 18 17  2  0
 19 20  1  0
 21 20  1  1
 21 22  1  0
 21 23  1  0
 22 17  1  0
 23 24  2  0
 23 25  1  0
M  END
$$$$
