HNS.pdb
     RDKit          3D

 25 25  0  0  1  0  0  0  0  0999 V2000
    9.4614  -16.9415   17.4449 N   0  0  0  0  0  0  0  0  0  0  0  0
    9.4291  -16.1209   18.6157 C   0  0  1  0  0  0  0  0  0  0  0  0
    8.0733  -15.4550   18.8340 C   0  0  0  0  0  0  0  0  0  0  0  0
    7.7536  -14.5994   17.6481 C   0  0  0  0  0  0  0  0  0  0  0  0
    8.1555  -13.2940   17.4494 C   0  0  0  0  0  0  0  0  0  0  0  0
    7.6670  -12.8904   16.2787 N   0  0  0  0  0  0  0  0  0  0  0  0
    6.9780  -13.9133   15.7572 C   0  0  0  0  0  0  0  0  0  0  0  0
    7.0299  -14.9534   16.5893 N   0  0  0  0  0  0  0  0  0  0  0  0
    9.7982  -16.8898   19.8485 C   0  0  0  0  0  0  0  0  0  0  0  0
    8.9256  -17.4330   20.5622 O   0  0  0  0  0  0  0  0  0  0  0  0
   14.7335  -19.6034   22.3443 N   0  0  0  0  0  0  0  0  0  0  0  0
   13.3464  -19.2685   22.3100 C   0  0  0  0  0  0  0  0  0  0  0  0
   12.6406  -19.7231   23.2390 O   0  0  0  0  0  0  0  0  0  0  0  0
   12.8833  -18.4335   21.2035 C   0  0  0  0  0  0  0  0  0  0  0  0
   11.5470  -17.7761   21.4501 C   0  0  2  0  0  0  0  0  0  0  0  0
   11.1519  -17.0358   20.2606 N   0  0  0  0  0  0  0  0  0  0  0  0
   11.5958  -16.8909   22.6476 C   0  0  0  0  0  0  0  0  0  0  0  0
   12.5349  -16.0577   22.7126 O   0  0  0  0  0  0  0  0  0  0  0  0
    8.2993  -16.1943   25.1090 O   0  0  0  0  0  0  0  0  0  0  0  0
    9.4098  -15.3724   25.1369 C   0  0  0  0  0  0  0  0  0  0  0  0
   10.6960  -16.1121   24.8778 C   0  0  2  0  0  0  0  0  0  0  0  0
   10.6713  -16.9212   23.7039 N   0  0  0  0  0  0  0  0  0  0  0  0
   11.0214  -16.9319   26.0618 C   0  0  0  0  0  0  0  0  0  0  0  0
   11.1608  -16.4100   27.1989 O   0  0  0  0  0  0  0  0  0  0  0  0
   11.1868  -18.3083   25.9715 O   0  0  0  0  0  0  0  0  0  0  0  0
  2  1  1  6
  3  2  1  0
  4  3  1  0
  5  4  2  0
  6  5  1  0
  7  6  1  0
  7  8  2  0
  8  4  1  0
  9  2  1  0
  9 10  2  0
 11 12  1  0
 12 14  1  0
 12 13  2  0
 15 14  1  6
 15 16  1  0
 16  9  1  0
 17 15  1  0
 18 17  2  0
 19 20  1  0
 21 20  1  1
 21 22  1  0
 21 23  1  0
 22 17  1  0
 23 24  2  0
 23 25  1  0
M  END
$$$$
