HNS.pdb
     RDKit          3D

 25 25  0  0  1  0  0  0  0  0999 V2000
    8.9448  -16.9017   15.9835 N   0  0  0  0  0  0  0  0  0  0  0  0
    8.9785  -16.4285   17.3327 C   0  0  1  0  0  0  0  0  0  0  0  0
    7.6028  -16.0168   17.8496 C   0  0  0  0  0  0  0  0  0  0  0  0
    7.5961  -14.5404   18.0962 C   0  0  0  0  0  0  0  0  0  0  0  0
    8.6434  -13.6695   17.8736 C   0  0  0  0  0  0  0  0  0  0  0  0
    8.2389  -12.4487   18.2172 N   0  0  0  0  0  0  0  0  0  0  0  0
    6.9737  -12.5503   18.6434 C   0  0  0  0  0  0  0  0  0  0  0  0
    6.5815  -13.8221   18.5703 N   0  0  0  0  0  0  0  0  0  0  0  0
    9.5663  -17.4427   18.2670 C   0  0  0  0  0  0  0  0  0  0  0  0
    9.4688  -18.6696   18.0407 O   0  0  0  0  0  0  0  0  0  0  0  0
   12.5036  -20.9298   20.2376 N   0  0  0  0  0  0  0  0  0  0  0  0
   12.9287  -19.5676   20.2070 C   0  0  0  0  0  0  0  0  0  0  0  0
   13.9831  -19.2992   20.8268 O   0  0  0  0  0  0  0  0  0  0  0  0
   12.1010  -18.6213   19.4617 C   0  0  0  0  0  0  0  0  0  0  0  0
   10.9981  -17.9955   20.2805 C   0  0  2  0  0  0  0  0  0  0  0  0
   10.2588  -17.0572   19.4484 N   0  0  0  0  0  0  0  0  0  0  0  0
   11.5429  -17.3283   21.4962 C   0  0  0  0  0  0  0  0  0  0  0  0
   12.3402  -16.3720   21.3225 O   0  0  0  0  0  0  0  0  0  0  0  0
    9.2660  -16.1100   24.0615 O   0  0  0  0  0  0  0  0  0  0  0  0
   10.3131  -16.5990   24.8191 C   0  0  0  0  0  0  0  0  0  0  0  0
   11.5255  -16.9435   23.9945 C   0  0  2  0  0  0  0  0  0  0  0  0
   11.2302  -17.6903   22.8163 N   0  0  0  0  0  0  0  0  0  0  0  0
   12.4860  -17.6773   24.8424 C   0  0  0  0  0  0  0  0  0  0  0  0
   12.7800  -18.8785   24.6067 O   0  0  0  0  0  0  0  0  0  0  0  0
   13.1034  -17.0756   25.9317 O   0  0  0  0  0  0  0  0  0  0  0  0
  2  1  1  6
  3  2  1  0
  4  3  1  0
  5  4  2  0
  6  5  1  0
  7  6  1  0
  7  8  2  0
  8  4  1  0
  9  2  1  0
  9 10  2  0
 11 12  1  0
 12 14  1  0
 12 13  2  0
 15 14  1  6
 15 16  1  0
 16  9  1  0
 17 15  1  0
 18 17  2  0
 19 20  1  0
 21 20  1  1
 21 22  1  0
 21 23  1  0
 22 17  1  0
 23 24  2  0
 23 25  1  0
M  END
$$$$
