HNS.pdb
     RDKit          3D

 25 25  0  0  1  0  0  0  0  0999 V2000
    8.9163  -15.9987   18.2744 N   0  0  0  0  0  0  0  0  0  0  0  0
    9.5708  -14.7551   18.5396 C   0  0  1  0  0  0  0  0  0  0  0  0
    8.9687  -13.5912   17.7572 C   0  0  0  0  0  0  0  0  0  0  0  0
    8.8312  -13.9886   16.3206 C   0  0  0  0  0  0  0  0  0  0  0  0
    9.8463  -14.4195   15.4906 C   0  0  0  0  0  0  0  0  0  0  0  0
    9.3165  -14.6735   14.2961 N   0  0  0  0  0  0  0  0  0  0  0  0
    8.0061  -14.4095   14.3739 C   0  0  0  0  0  0  0  0  0  0  0  0
    7.7096  -13.9928   15.6049 N   0  0  0  0  0  0  0  0  0  0  0  0
    9.5603  -14.4173   20.0001 C   0  0  0  0  0  0  0  0  0  0  0  0
   10.1065  -13.3773   20.4315 O   0  0  0  0  0  0  0  0  0  0  0  0
    6.7601  -13.7566   21.4154 N   0  0  0  0  0  0  0  0  0  0  0  0
    6.5097  -14.7118   22.4459 C   0  0  0  0  0  0  0  0  0  0  0  0
    5.3136  -14.8688   22.7811 O   0  0  0  0  0  0  0  0  0  0  0  0
    7.6627  -15.4116   23.0089 C   0  0  0  0  0  0  0  0  0  0  0  0
    8.9815  -15.0143   22.3913 C   0  0  2  0  0  0  0  0  0  0  0  0
    8.9313  -15.2608   20.9575 N   0  0  0  0  0  0  0  0  0  0  0  0
   10.1146  -15.7439   23.0268 C   0  0  0  0  0  0  0  0  0  0  0  0
   10.2956  -15.5704   24.2586 O   0  0  0  0  0  0  0  0  0  0  0  0
   11.7853  -19.0632   21.2658 O   0  0  0  0  0  0  0  0  0  0  0  0
   12.0599  -18.8077   22.5959 C   0  0  0  0  0  0  0  0  0  0  0  0
   12.0741  -17.3374   22.9220 C   0  0  2  0  0  0  0  0  0  0  0  0
   10.9907  -16.6078   22.3503 N   0  0  0  0  0  0  0  0  0  0  0  0
   13.3651  -16.7657   22.4900 C   0  0  0  0  0  0  0  0  0  0  0  0
   13.4198  -15.8713   21.6058 O   0  0  0  0  0  0  0  0  0  0  0  0
   14.5691  -17.1890   23.0388 O   0  0  0  0  0  0  0  0  0  0  0  0
  2  1  1  1
  3  2  1  0
  4  3  1  0
  5  4  2  0
  6  5  1  0
  7  6  1  0
  7  8  2  0
  8  4  1  0
  9  2  1  0
  9 10  2  0
 11 12  1  0
 12 14  1  0
 12 13  2  0
 15 14  1  1
 15 16  1  0
 16  9  1  0
 17 15  1  0
 18 17  2  0
 19 20  1  0
 21 20  1  6
 21 22  1  0
 21 23  1  0
 22 17  1  0
 23 24  2  0
 23 25  1  0
M  END
$$$$
