HNS.pdb
     RDKit          3D

 25 25  0  0  1  0  0  0  0  0999 V2000
   11.1764  -14.5113   18.0312 N   0  0  0  0  0  0  0  0  0  0  0  0
   10.6830  -15.8234   18.3147 C   0  0  1  0  0  0  0  0  0  0  0  0
    9.2601  -16.0425   17.8080 C   0  0  0  0  0  0  0  0  0  0  0  0
    8.4066  -14.8902   18.2373 C   0  0  0  0  0  0  0  0  0  0  0  0
    7.9692  -14.6300   19.5202 C   0  0  0  0  0  0  0  0  0  0  0  0
    7.2384  -13.5180   19.4844 N   0  0  0  0  0  0  0  0  0  0  0  0
    7.2175  -13.0921   18.2151 C   0  0  0  0  0  0  0  0  0  0  0  0
    7.9278  -13.9260   17.4555 N   0  0  0  0  0  0  0  0  0  0  0  0
   11.5713  -16.8899   17.7484 C   0  0  0  0  0  0  0  0  0  0  0  0
   11.2996  -18.1037   17.8855 O   0  0  0  0  0  0  0  0  0  0  0  0
   13.0809  -16.4833   13.1168 N   0  0  0  0  0  0  0  0  0  0  0  0
   13.2250  -17.4720   14.1361 C   0  0  0  0  0  0  0  0  0  0  0  0
   12.5012  -18.4884   14.0324 O   0  0  0  0  0  0  0  0  0  0  0  0
   14.1953  -17.2081   15.1967 C   0  0  0  0  0  0  0  0  0  0  0  0
   13.7085  -17.5758   16.5774 C   0  0  2  0  0  0  0  0  0  0  0  0
   12.7585  -16.5710   17.0325 N   0  0  0  0  0  0  0  0  0  0  0  0
   14.8461  -17.7158   17.5293 C   0  0  0  0  0  0  0  0  0  0  0  0
   15.4739  -16.6712   17.8375 O   0  0  0  0  0  0  0  0  0  0  0  0
   15.6154  -21.4081   19.2881 O   0  0  0  0  0  0  0  0  0  0  0  0
   16.0183  -20.2954   20.0018 C   0  0  0  0  0  0  0  0  0  0  0  0
   16.2406  -19.0866   19.1313 C   0  0  2  0  0  0  0  0  0  0  0  0
   15.2649  -18.9266   18.1040 N   0  0  0  0  0  0  0  0  0  0  0  0
   17.5951  -19.1614   18.5483 C   0  0  0  0  0  0  0  0  0  0  0  0
   18.6158  -19.2580   19.2788 O   0  0  0  0  0  0  0  0  0  0  0  0
   17.7994  -19.1285   17.1747 O   0  0  0  0  0  0  0  0  0  0  0  0
  2  1  1  6
  3  2  1  0
  4  3  1  0
  5  4  2  0
  6  5  1  0
  7  6  1  0
  7  8  2  0
  8  4  1  0
  9  2  1  0
  9 10  2  0
 11 12  1  0
 12 14  1  0
 12 13  2  0
 15 14  1  6
 15 16  1  0
 16  9  1  0
 17 15  1  0
 18 17  2  0
 19 20  1  0
 21 20  1  6
 21 22  1  0
 21 23  1  0
 22 17  1  0
 23 24  2  0
 23 25  1  0
M  END
$$$$
