MKR.pdb
     RDKit          3D

 29 28  0  0  1  0  0  0  0  0999 V2000
    5.9005  -10.8878   26.8150 C   0  0  0  0  0  0  0  0  0  0  0  0
    6.9919  -11.8765   27.8698 S   0  0  0  0  0  0  0  0  0  0  0  0
    6.7300  -13.6500   27.4845 C   0  0  0  0  0  0  0  0  0  0  0  0
    6.6195  -13.8188   26.0058 C   0  0  0  0  0  0  0  0  0  0  0  0
    6.8632  -15.2273   25.5446 C   0  0  2  0  0  0  0  0  0  0  0  0
    6.7740  -16.2250   26.5616 N   0  0  0  0  0  0  0  0  0  0  0  0
    8.1457  -15.3776   24.8221 C   0  0  0  0  0  0  0  0  0  0  0  0
    8.5687  -14.4975   24.0236 O   0  0  0  0  0  0  0  0  0  0  0  0
    8.9157  -16.5462   25.0368 N   0  0  0  0  0  0  0  0  0  0  0  0
   10.1056  -16.8613   24.2799 C   0  0  1  0  0  0  0  0  0  0  0  0
   10.6445  -18.1842   24.7779 C   0  0  0  0  0  0  0  0  0  0  0  0
   11.8638  -18.6278   24.0423 C   0  0  0  0  0  0  0  0  0  0  0  0
   12.3778  -19.9169   24.6234 C   0  0  0  0  0  0  0  0  0  0  0  0
   13.6177  -20.4390   23.9733 C   0  0  0  0  0  0  0  0  0  0  0  0
   14.0872  -21.6240   24.7078 N   0  0  0  0  0  0  0  0  0  0  0  0
    9.8185  -16.9149   22.8175 C   0  0  0  0  0  0  0  0  0  0  0  0
    8.9862  -17.7501   22.3939 O   0  0  0  0  0  0  0  0  0  0  0  0
    8.5456  -12.5646   16.2835 N   0  0  0  0  0  0  0  0  0  0  0  0
    8.1455  -13.8849   15.9619 C   0  0  0  0  0  0  0  0  0  0  0  0
    8.4213  -14.3314   14.7746 N   0  0  0  0  0  0  0  0  0  0  0  0
    7.4658  -14.6890   16.9156 N   0  0  0  0  0  0  0  0  0  0  0  0
    7.7623  -14.6000   18.3174 C   0  0  0  0  0  0  0  0  0  0  0  0
    9.2465  -14.5733   18.6261 C   0  0  0  0  0  0  0  0  0  0  0  0
    9.4626  -14.8002   20.0808 C   0  0  0  0  0  0  0  0  0  0  0  0
   10.1320  -16.0968   20.4384 C   0  0  2  0  0  0  0  0  0  0  0  0
   10.4437  -16.0630   21.8769 N   0  0  0  0  0  0  0  0  0  0  0  0
   11.3347  -16.3687   19.6455 C   0  0  0  0  0  0  0  0  0  0  0  0
   11.3140  -16.5680   18.3814 O   0  0  0  0  0  0  0  0  0  0  0  0
   12.5998  -16.4325   20.2106 O   0  0  0  0  0  0  0  0  0  0  0  0
  2  3  1  0
  2  1  1  0
  4  5  1  0
  4  3  1  0
  5  6  1  1
  7  5  1  0
  7  8  2  0
  9  7  1  0
 10  9  1  0
 10 11  1  1
 12 13  1  0
 12 11  1  0
 13 14  1  0
 14 15  1  0
 16 17  2  0
 16 10  1  0
 19 18  1  0
 20 19  2  0
 21 19  1  0
 22 21  1  0
 22 23  1  0
 23 24  1  0
 25 24  1  6
 25 26  1  0
 25 27  1  0
 26 16  1  0
 27 29  1  0
 28 27  2  0
M  END
$$$$
