MKR.pdb
     RDKit          3D

 29 28  0  0  1  0  0  0  0  0999 V2000
    6.7516  -11.2095   26.6635 C   0  0  0  0  0  0  0  0  0  0  0  0
    7.2719  -12.4607   27.8658 S   0  0  0  0  0  0  0  0  0  0  0  0
    6.7026  -14.1039   27.2847 C   0  0  0  0  0  0  0  0  0  0  0  0
    7.3814  -14.4302   25.9963 C   0  0  0  0  0  0  0  0  0  0  0  0
    6.8582  -15.6775   25.3435 C   0  0  2  0  0  0  0  0  0  0  0  0
    6.9816  -16.8689   26.1200 N   0  0  0  0  0  0  0  0  0  0  0  0
    7.4378  -15.9055   24.0012 C   0  0  0  0  0  0  0  0  0  0  0  0
    8.1605  -16.9078   23.7480 O   0  0  0  0  0  0  0  0  0  0  0  0
    7.1706  -14.9669   22.9754 N   0  0  0  0  0  0  0  0  0  0  0  0
    7.9056  -14.9212   21.7321 C   0  0  1  0  0  0  0  0  0  0  0  0
    7.5552  -13.6307   21.0246 C   0  0  0  0  0  0  0  0  0  0  0  0
    8.3279  -13.4317   19.7645 C   0  0  0  0  0  0  0  0  0  0  0  0
    7.5990  -14.0575   18.6066 C   0  0  0  0  0  0  0  0  0  0  0  0
    8.3089  -13.9504   17.2963 C   0  0  0  0  0  0  0  0  0  0  0  0
    7.5244  -14.6434   16.2626 N   0  0  0  0  0  0  0  0  0  0  0  0
    9.3746  -15.0224   21.9677 C   0  0  0  0  0  0  0  0  0  0  0  0
    9.8995  -14.2944   22.8418 O   0  0  0  0  0  0  0  0  0  0  0  0
   12.2447  -22.5772   21.8641 N   0  0  0  0  0  0  0  0  0  0  0  0
   10.9602  -21.9835   21.7997 C   0  0  0  0  0  0  0  0  0  0  0  0
    9.9457  -22.7549   21.5530 N   0  0  0  0  0  0  0  0  0  0  0  0
   10.7963  -20.5869   22.0018 N   0  0  0  0  0  0  0  0  0  0  0  0
   11.8972  -19.7524   22.3920 C   0  0  0  0  0  0  0  0  0  0  0  0
   11.5177  -18.2989   22.5975 C   0  0  0  0  0  0  0  0  0  0  0  0
   12.0170  -17.4819   21.4585 C   0  0  0  0  0  0  0  0  0  0  0  0
   11.6571  -16.0241   21.5044 C   0  0  2  0  0  0  0  0  0  0  0  0
   10.2121  -15.9067   21.2479 N   0  0  0  0  0  0  0  0  0  0  0  0
   12.4268  -15.2048   20.5633 C   0  0  0  0  0  0  0  0  0  0  0  0
   12.0235  -14.9241   19.3815 O   0  0  0  0  0  0  0  0  0  0  0  0
   13.6641  -14.6666   20.8846 O   0  0  0  0  0  0  0  0  0  0  0  0
  2  3  1  0
  2  1  1  0
  4  5  1  0
  4  3  1  0
  5  6  1  1
  7  5  1  0
  7  8  2  0
  9  7  1  0
 10  9  1  0
 10 11  1  1
 12 13  1  0
 12 11  1  0
 13 14  1  0
 14 15  1  0
 16 17  2  0
 16 10  1  0
 19 18  1  0
 20 19  2  0
 21 19  1  0
 22 21  1  0
 22 23  1  0
 23 24  1  0
 25 24  1  6
 25 26  1  0
 25 27  1  0
 26 16  1  0
 27 29  1  0
 28 27  2  0
M  END
$$$$
