MKR.pdb
     RDKit          3D

 29 28  0  0  1  0  0  0  0  0999 V2000
    5.7503  -11.4977   18.1747 C   0  0  0  0  0  0  0  0  0  0  0  0
    7.3940  -11.7052   18.9073 S   0  0  0  0  0  0  0  0  0  0  0  0
    8.0911  -13.3030   18.3387 C   0  0  0  0  0  0  0  0  0  0  0  0
    9.4208  -13.5142   18.9828 C   0  0  0  0  0  0  0  0  0  0  0  0
   10.0405  -14.8422   18.6542 C   0  0  2  0  0  0  0  0  0  0  0  0
    9.3070  -15.6442   17.7287 N   0  0  0  0  0  0  0  0  0  0  0  0
   10.3475  -15.6428   19.8601 C   0  0  0  0  0  0  0  0  0  0  0  0
   11.1190  -15.2192   20.7637 O   0  0  0  0  0  0  0  0  0  0  0  0
    9.7555  -16.9217   19.9978 N   0  0  0  0  0  0  0  0  0  0  0  0
   10.0775  -17.8324   21.0725 C   0  0  1  0  0  0  0  0  0  0  0  0
    9.5959  -19.2121   20.6814 C   0  0  0  0  0  0  0  0  0  0  0  0
    9.8815  -20.2425   21.7211 C   0  0  0  0  0  0  0  0  0  0  0  0
    9.4637  -21.6020   21.2302 C   0  0  0  0  0  0  0  0  0  0  0  0
    9.8032  -22.7260   22.1541 C   0  0  0  0  0  0  0  0  0  0  0  0
    9.4733  -24.0038   21.5039 N   0  0  0  0  0  0  0  0  0  0  0  0
   11.5410  -17.8359   21.3589 C   0  0  0  0  0  0  0  0  0  0  0  0
   12.3192  -18.3620   20.5298 O   0  0  0  0  0  0  0  0  0  0  0  0
   16.3030  -12.9487   18.5859 N   0  0  0  0  0  0  0  0  0  0  0  0
   16.4163  -14.2812   18.1192 C   0  0  0  0  0  0  0  0  0  0  0  0
   16.9748  -14.4751   16.9635 N   0  0  0  0  0  0  0  0  0  0  0  0
   15.9327  -15.3660   18.8988 N   0  0  0  0  0  0  0  0  0  0  0  0
   15.2856  -15.1504   20.1620 C   0  0  0  0  0  0  0  0  0  0  0  0
   14.9484  -16.4308   20.9007 C   0  0  0  0  0  0  0  0  0  0  0  0
   14.1696  -16.1139   22.1284 C   0  0  0  0  0  0  0  0  0  0  0  0
   13.5431  -17.2932   22.8166 C   0  0  2  0  0  0  0  0  0  0  0  0
   12.0994  -17.2700   22.5292 N   0  0  0  0  0  0  0  0  0  0  0  0
   13.7917  -17.3235   24.2611 C   0  0  0  0  0  0  0  0  0  0  0  0
   14.9642  -17.3650   24.7726 O   0  0  0  0  0  0  0  0  0  0  0  0
   12.7647  -17.3105   25.1933 O   0  0  0  0  0  0  0  0  0  0  0  0
  2  3  1  0
  2  1  1  0
  4  5  1  0
  4  3  1  0
  5  6  1  6
  7  5  1  0
  7  8  2  0
  9  7  1  0
 10  9  1  0
 10 11  1  6
 12 13  1  0
 12 11  1  0
 13 14  1  0
 14 15  1  0
 16 17  2  0
 16 10  1  0
 19 18  1  0
 20 19  2  0
 21 19  1  0
 22 21  1  0
 22 23  1  0
 23 24  1  0
 25 24  1  1
 25 26  1  0
 25 27  1  0
 26 16  1  0
 27 29  1  0
 28 27  2  0
M  END
$$$$
