MKR.pdb
     RDKit          3D

 29 28  0  0  1  0  0  0  0  0999 V2000
    7.1527  -19.1120   19.0759 C   0  0  0  0  0  0  0  0  0  0  0  0
    7.0730  -18.4113   17.4073 S   0  0  0  0  0  0  0  0  0  0  0  0
    7.0117  -16.5836   17.5419 C   0  0  0  0  0  0  0  0  0  0  0  0
    7.6531  -16.1650   18.8227 C   0  0  0  0  0  0  0  0  0  0  0  0
    7.4743  -14.7063   19.1326 C   0  0  2  0  0  0  0  0  0  0  0  0
    7.8933  -13.8095   18.1040 N   0  0  0  0  0  0  0  0  0  0  0  0
    8.1048  -14.3130   20.4121 C   0  0  0  0  0  0  0  0  0  0  0  0
    9.3334  -14.0397   20.4942 O   0  0  0  0  0  0  0  0  0  0  0  0
    7.3003  -14.2441   21.5752 N   0  0  0  0  0  0  0  0  0  0  0  0
    7.8264  -13.9365   22.8855 C   0  0  1  0  0  0  0  0  0  0  0  0
    6.6910  -13.4156   23.7388 C   0  0  0  0  0  0  0  0  0  0  0  0
    7.1299  -13.0154   25.1069 C   0  0  0  0  0  0  0  0  0  0  0  0
    5.9831  -12.3941   25.8568 C   0  0  0  0  0  0  0  0  0  0  0  0
    6.3465  -11.8371   27.1947 C   0  0  0  0  0  0  0  0  0  0  0  0
    5.1495  -11.2489   27.8157 N   0  0  0  0  0  0  0  0  0  0  0  0
    8.4609  -15.1335   23.5087 C   0  0  0  0  0  0  0  0  0  0  0  0
    7.8187  -16.2085   23.5471 O   0  0  0  0  0  0  0  0  0  0  0  0
   16.9062  -17.2417   23.2704 N   0  0  0  0  0  0  0  0  0  0  0  0
   16.3287  -18.3819   23.8812 C   0  0  0  0  0  0  0  0  0  0  0  0
   17.0710  -19.4374   24.0224 N   0  0  0  0  0  0  0  0  0  0  0  0
   14.9790  -18.3616   24.3240 N   0  0  0  0  0  0  0  0  0  0  0  0
   14.1337  -17.2236   24.0978 C   0  0  0  0  0  0  0  0  0  0  0  0
   12.7131  -17.4111   24.5937 C   0  0  0  0  0  0  0  0  0  0  0  0
   11.8848  -16.2378   24.2045 C   0  0  0  0  0  0  0  0  0  0  0  0
   10.4303  -16.3258   24.5704 C   0  0  2  0  0  0  0  0  0  0  0  0
    9.7624  -15.1159   24.0631 N   0  0  0  0  0  0  0  0  0  0  0  0
   10.2012  -16.4893   26.0092 C   0  0  0  0  0  0  0  0  0  0  0  0
    9.8479  -15.5298   26.7790 O   0  0  0  0  0  0  0  0  0  0  0  0
   10.3521  -17.7086   26.6528 O   0  0  0  0  0  0  0  0  0  0  0  0
  2  3  1  0
  2  1  1  0
  4  5  1  0
  4  3  1  0
  5  6  1  6
  7  5  1  0
  7  8  2  0
  9  7  1  0
 10  9  1  0
 10 11  1  1
 12 13  1  0
 12 11  1  0
 13 14  1  0
 14 15  1  0
 16 17  2  0
 16 10  1  0
 19 18  1  0
 20 19  2  0
 21 19  1  0
 22 21  1  0
 22 23  1  0
 23 24  1  0
 25 24  1  1
 25 26  1  0
 25 27  1  0
 26 16  1  0
 27 29  1  0
 28 27  2  0
M  END
$$$$
