MKR.pdb
     RDKit          3D

 29 28  0  0  1  0  0  0  0  0999 V2000
    7.5542  -11.9812   20.8635 C   0  0  0  0  0  0  0  0  0  0  0  0
    7.2199  -12.0912   19.0866 S   0  0  0  0  0  0  0  0  0  0  0  0
    7.9594  -13.6422   18.4464 C   0  0  0  0  0  0  0  0  0  0  0  0
    7.9950  -14.6561   19.5408 C   0  0  0  0  0  0  0  0  0  0  0  0
    9.2701  -15.4488   19.5808 C   0  0  2  0  0  0  0  0  0  0  0  0
    9.5927  -16.1442   18.3766 N   0  0  0  0  0  0  0  0  0  0  0  0
    9.3203  -16.3921   20.7197 C   0  0  0  0  0  0  0  0  0  0  0  0
    9.0520  -16.0304   21.8980 O   0  0  0  0  0  0  0  0  0  0  0  0
    9.6817  -17.7388   20.4735 N   0  0  0  0  0  0  0  0  0  0  0  0
    9.7848  -18.7347   21.5155 C   0  0  1  0  0  0  0  0  0  0  0  0
   10.3095  -20.0115   20.8968 C   0  0  0  0  0  0  0  0  0  0  0  0
   10.3814  -21.1403   21.8689 C   0  0  0  0  0  0  0  0  0  0  0  0
   10.8624  -22.3876   21.1784 C   0  0  0  0  0  0  0  0  0  0  0  0
   10.9221  -23.5969   22.0538 C   0  0  0  0  0  0  0  0  0  0  0  0
   11.3458  -24.7549   21.2514 N   0  0  0  0  0  0  0  0  0  0  0  0
   10.6706  -18.2709   22.6218 C   0  0  0  0  0  0  0  0  0  0  0  0
   11.6626  -17.5574   22.3450 O   0  0  0  0  0  0  0  0  0  0  0  0
    9.4027  -16.0729   28.8740 N   0  0  0  0  0  0  0  0  0  0  0  0
    9.8698  -14.7530   28.6592 C   0  0  0  0  0  0  0  0  0  0  0  0
   10.4411  -14.1413   29.6515 N   0  0  0  0  0  0  0  0  0  0  0  0
    9.7154  -14.1264   27.3936 N   0  0  0  0  0  0  0  0  0  0  0  0
    8.9828  -14.7551   26.3311 C   0  0  0  0  0  0  0  0  0  0  0  0
    9.8592  -15.5030   25.3455 C   0  0  0  0  0  0  0  0  0  0  0  0
    9.7892  -16.9643   25.6172 C   0  0  0  0  0  0  0  0  0  0  0  0
   10.9415  -17.7733   25.0931 C   0  0  2  0  0  0  0  0  0  0  0  0
   10.4451  -18.5987   23.9795 N   0  0  0  0  0  0  0  0  0  0  0  0
   11.5837  -18.6026   26.1172 C   0  0  0  0  0  0  0  0  0  0  0  0
   11.3205  -19.8440   26.2844 O   0  0  0  0  0  0  0  0  0  0  0  0
   12.5346  -18.1001   26.9930 O   0  0  0  0  0  0  0  0  0  0  0  0
  2  3  1  0
  2  1  1  0
  4  5  1  0
  4  3  1  0
  5  6  1  6
  7  5  1  0
  7  8  2  0
  9  7  1  0
 10  9  1  0
 10 11  1  6
 12 13  1  0
 12 11  1  0
 13 14  1  0
 14 15  1  0
 16 17  2  0
 16 10  1  0
 19 18  1  0
 20 19  2  0
 21 19  1  0
 22 21  1  0
 22 23  1  0
 23 24  1  0
 25 24  1  1
 25 26  1  0
 25 27  1  0
 26 16  1  0
 27 29  1  0
 28 27  2  0
M  END
$$$$
