MKR.pdb
     RDKit          3D

 29 28  0  0  1  0  0  0  0  0999 V2000
    7.6162  -11.5878   26.8571 C   0  0  0  0  0  0  0  0  0  0  0  0
    6.3286  -12.5250   27.7203 S   0  0  0  0  0  0  0  0  0  0  0  0
    5.6471  -13.7802   26.5704 C   0  0  0  0  0  0  0  0  0  0  0  0
    6.7496  -14.3124   25.7169 C   0  0  0  0  0  0  0  0  0  0  0  0
    6.2838  -15.2976   24.6833 C   0  0  2  0  0  0  0  0  0  0  0  0
    5.5840  -16.4317   25.1949 N   0  0  0  0  0  0  0  0  0  0  0  0
    7.3769  -15.7552   23.7973 C   0  0  0  0  0  0  0  0  0  0  0  0
    7.9303  -16.8788   23.9461 O   0  0  0  0  0  0  0  0  0  0  0  0
    7.8108  -14.9018   22.7540 N   0  0  0  0  0  0  0  0  0  0  0  0
    8.9494  -15.1935   21.9135 C   0  0  1  0  0  0  0  0  0  0  0  0
    9.0789  -14.0838   20.8935 C   0  0  0  0  0  0  0  0  0  0  0  0
    8.0553  -14.1677   19.8120 C   0  0  0  0  0  0  0  0  0  0  0  0
    8.4496  -13.2872   18.6575 C   0  0  0  0  0  0  0  0  0  0  0  0
    7.4336  -13.2055   17.5650 C   0  0  0  0  0  0  0  0  0  0  0  0
    7.8859  -12.2365   16.5547 N   0  0  0  0  0  0  0  0  0  0  0  0
   10.1966  -15.3297   22.7197 C   0  0  0  0  0  0  0  0  0  0  0  0
   10.2592  -14.7685   23.8381 O   0  0  0  0  0  0  0  0  0  0  0  0
   11.5077  -20.9544   28.3957 N   0  0  0  0  0  0  0  0  0  0  0  0
   11.6451  -19.5477   28.3032 C   0  0  0  0  0  0  0  0  0  0  0  0
   12.2726  -18.9340   29.2597 N   0  0  0  0  0  0  0  0  0  0  0  0
   11.1114  -18.8386   27.1939 N   0  0  0  0  0  0  0  0  0  0  0  0
   11.2173  -19.3502   25.8568 C   0  0  0  0  0  0  0  0  0  0  0  0
   12.1723  -18.5663   24.9780 C   0  0  0  0  0  0  0  0  0  0  0  0
   11.4029  -17.6776   24.0656 C   0  0  0  0  0  0  0  0  0  0  0  0
   12.2302  -16.7628   23.2078 C   0  0  2  0  0  0  0  0  0  0  0  0
   11.3216  -16.0671   22.2815 N   0  0  0  0  0  0  0  0  0  0  0  0
   13.2964  -17.4556   22.4781 C   0  0  0  0  0  0  0  0  0  0  0  0
   14.2936  -18.0154   23.0529 O   0  0  0  0  0  0  0  0  0  0  0  0
   13.3065  -17.5577   21.0949 O   0  0  0  0  0  0  0  0  0  0  0  0
  2  3  1  0
  2  1  1  0
  4  5  1  0
  4  3  1  0
  5  6  1  1
  7  5  1  0
  7  8  2  0
  9  7  1  0
 10  9  1  0
 10 11  1  6
 12 13  1  0
 12 11  1  0
 13 14  1  0
 14 15  1  0
 16 17  2  0
 16 10  1  0
 19 18  1  0
 20 19  2  0
 21 19  1  0
 22 21  1  0
 22 23  1  0
 23 24  1  0
 25 24  1  6
 25 26  1  0
 25 27  1  0
 26 16  1  0
 27 29  1  0
 28 27  2  0
M  END
$$$$
