MKR.pdb
     RDKit          3D

 29 28  0  0  1  0  0  0  0  0999 V2000
    5.6899  -11.9927   25.7745 C   0  0  0  0  0  0  0  0  0  0  0  0
    7.1110  -12.8206   26.5338 S   0  0  0  0  0  0  0  0  0  0  0  0
    6.8979  -14.6329   26.3542 C   0  0  0  0  0  0  0  0  0  0  0  0
    5.8404  -14.9033   25.3364 C   0  0  0  0  0  0  0  0  0  0  0  0
    6.0396  -16.1942   24.5951 C   0  0  2  0  0  0  0  0  0  0  0  0
    5.9467  -17.3747   25.3923 N   0  0  0  0  0  0  0  0  0  0  0  0
    7.3029  -16.2213   23.8251 C   0  0  0  0  0  0  0  0  0  0  0  0
    8.2141  -17.0591   24.0673 O   0  0  0  0  0  0  0  0  0  0  0  0
    7.4887  -15.2758   22.7876 N   0  0  0  0  0  0  0  0  0  0  0  0
    8.6707  -15.2325   21.9574 C   0  0  1  0  0  0  0  0  0  0  0  0
    8.4573  -14.1840   20.8880 C   0  0  0  0  0  0  0  0  0  0  0  0
    7.9873  -14.7611   19.5955 C   0  0  0  0  0  0  0  0  0  0  0  0
    8.0845  -13.7307   18.5034 C   0  0  0  0  0  0  0  0  0  0  0  0
    7.5543  -14.1781   17.1801 C   0  0  0  0  0  0  0  0  0  0  0  0
    7.8253  -13.1397   16.1738 N   0  0  0  0  0  0  0  0  0  0  0  0
    9.8887  -14.9354   22.7649 C   0  0  0  0  0  0  0  0  0  0  0  0
    9.7910  -14.1637   23.7471 O   0  0  0  0  0  0  0  0  0  0  0  0
   12.7447  -19.5007   28.2528 N   0  0  0  0  0  0  0  0  0  0  0  0
   12.7079  -20.4638   27.2148 C   0  0  0  0  0  0  0  0  0  0  0  0
   13.3872  -21.5582   27.3766 N   0  0  0  0  0  0  0  0  0  0  0  0
   11.9473  -20.2320   26.0374 N   0  0  0  0  0  0  0  0  0  0  0  0
   11.2580  -18.9911   25.8235 C   0  0  0  0  0  0  0  0  0  0  0  0
   12.1206  -17.9153   25.1931 C   0  0  0  0  0  0  0  0  0  0  0  0
   11.3067  -17.1092   24.2434 C   0  0  0  0  0  0  0  0  0  0  0  0
   12.0509  -16.0265   23.5147 C   0  0  2  0  0  0  0  0  0  0  0  0
   11.1594  -15.4858   22.4753 N   0  0  0  0  0  0  0  0  0  0  0  0
   13.3193  -16.4801   22.9363 C   0  0  0  0  0  0  0  0  0  0  0  0
   14.2780  -16.9626   23.6336 O   0  0  0  0  0  0  0  0  0  0  0  0
   13.5804  -16.4195   21.5754 O   0  0  0  0  0  0  0  0  0  0  0  0
  2  3  1  0
  2  1  1  0
  4  5  1  0
  4  3  1  0
  5  6  1  1
  7  5  1  0
  7  8  2  0
  9  7  1  0
 10  9  1  0
 10 11  1  6
 12 13  1  0
 12 11  1  0
 13 14  1  0
 14 15  1  0
 16 17  2  0
 16 10  1  0
 19 18  1  0
 20 19  2  0
 21 19  1  0
 22 21  1  0
 22 23  1  0
 23 24  1  0
 25 24  1  6
 25 26  1  0
 25 27  1  0
 26 16  1  0
 27 29  1  0
 28 27  2  0
M  END
$$$$
