MKR.pdb
     RDKit          3D

 29 28  0  0  1  0  0  0  0  0999 V2000
    7.7371  -11.6136   27.2598 C   0  0  0  0  0  0  0  0  0  0  0  0
    5.9561  -11.8704   27.4686 S   0  0  0  0  0  0  0  0  0  0  0  0
    5.5233  -13.5294   26.8185 C   0  0  0  0  0  0  0  0  0  0  0  0
    6.5172  -13.9218   25.7766 C   0  0  0  0  0  0  0  0  0  0  0  0
    6.1885  -15.2190   25.0946 C   0  0  2  0  0  0  0  0  0  0  0  0
    6.0712  -16.3488   25.9591 N   0  0  0  0  0  0  0  0  0  0  0  0
    7.1251  -15.5389   23.9946 C   0  0  0  0  0  0  0  0  0  0  0  0
    7.9224  -16.5141   24.0597 O   0  0  0  0  0  0  0  0  0  0  0  0
    7.1220  -14.7222   22.8380 N   0  0  0  0  0  0  0  0  0  0  0  0
    8.0097  -14.9324   21.7173 C   0  0  1  0  0  0  0  0  0  0  0  0
    7.7957  -13.8071   20.7291 C   0  0  0  0  0  0  0  0  0  0  0  0
    8.6756  -13.9133   19.5295 C   0  0  0  0  0  0  0  0  0  0  0  0
    7.9534  -13.4042   18.3118 C   0  0  0  0  0  0  0  0  0  0  0  0
    8.6596  -13.6600   17.0202 C   0  0  0  0  0  0  0  0  0  0  0  0
    8.0072  -12.8887   15.9507 N   0  0  0  0  0  0  0  0  0  0  0  0
    9.4328  -14.9960   22.1584 C   0  0  0  0  0  0  0  0  0  0  0  0
    9.8304  -14.1978   23.0383 O   0  0  0  0  0  0  0  0  0  0  0  0
   12.0969  -20.5166   28.1281 N   0  0  0  0  0  0  0  0  0  0  0  0
   12.4125  -19.3674   27.3625 C   0  0  0  0  0  0  0  0  0  0  0  0
   13.6501  -18.9766   27.3345 N   0  0  0  0  0  0  0  0  0  0  0  0
   11.4001  -18.6712   26.6491 N   0  0  0  0  0  0  0  0  0  0  0  0
   11.0669  -19.0145   25.2957 C   0  0  0  0  0  0  0  0  0  0  0  0
   11.8128  -18.1983   24.2583 C   0  0  0  0  0  0  0  0  0  0  0  0
   10.8534  -17.3530   23.4972 C   0  0  0  0  0  0  0  0  0  0  0  0
   11.4613  -16.4931   22.4257 C   0  0  2  0  0  0  0  0  0  0  0  0
   10.3639  -15.9203   21.6289 N   0  0  0  0  0  0  0  0  0  0  0  0
   12.4118  -17.2122   21.5721 C   0  0  0  0  0  0  0  0  0  0  0  0
   13.5039  -17.7190   22.0065 O   0  0  0  0  0  0  0  0  0  0  0  0
   12.1986  -17.3992   20.2144 O   0  0  0  0  0  0  0  0  0  0  0  0
  2  3  1  0
  2  1  1  0
  4  5  1  0
  4  3  1  0
  5  6  1  1
  7  5  1  0
  7  8  2  0
  9  7  1  0
 10  9  1  0
 10 11  1  6
 12 13  1  0
 12 11  1  0
 13 14  1  0
 14 15  1  0
 16 17  2  0
 16 10  1  0
 19 18  1  0
 20 19  2  0
 21 19  1  0
 22 21  1  0
 22 23  1  0
 23 24  1  0
 25 24  1  1
 25 26  1  0
 25 27  1  0
 26 16  1  0
 27 29  1  0
 28 27  2  0
M  END
$$$$
