MKR.pdb
     RDKit          3D

 29 28  0  0  1  0  0  0  0  0999 V2000
   -0.8604  -25.5377   13.4308 C   0  0  0  0  0  0  0  0  0  0  0  0
   -0.9822  -24.8541   15.1039 S   0  0  0  0  0  0  0  0  0  0  0  0
    0.3971  -23.6724   15.3557 C   0  0  0  0  0  0  0  0  0  0  0  0
    1.6936  -24.3804   15.1434 C   0  0  0  0  0  0  0  0  0  0  0  0
    2.7320  -24.0501   16.1771 C   0  0  2  0  0  0  0  0  0  0  0  0
    2.2752  -23.2439   17.2630 N   0  0  0  0  0  0  0  0  0  0  0  0
    3.9466  -23.4407   15.5916 C   0  0  0  0  0  0  0  0  0  0  0  0
    4.5834  -23.9920   14.6527 O   0  0  0  0  0  0  0  0  0  0  0  0
    4.4031  -22.2028   16.1053 N   0  0  0  0  0  0  0  0  0  0  0  0
    5.6175  -21.5591   15.6591 C   0  0  1  0  0  0  0  0  0  0  0  0
    5.3450  -20.0767   15.5297 C   0  0  0  0  0  0  0  0  0  0  0  0
    4.8078  -19.7003   14.1902 C   0  0  0  0  0  0  0  0  0  0  0  0
    5.5649  -18.5213   13.6421 C   0  0  0  0  0  0  0  0  0  0  0  0
    5.0994  -18.0547   12.3013 C   0  0  0  0  0  0  0  0  0  0  0  0
    5.7076  -16.7483   12.0052 N   0  0  0  0  0  0  0  0  0  0  0  0
    6.7445  -21.8175   16.6008 C   0  0  0  0  0  0  0  0  0  0  0  0
    6.5633  -21.6352   17.8270 O   0  0  0  0  0  0  0  0  0  0  0  0
   13.7513  -21.8385   18.1884 N   0  0  0  0  0  0  0  0  0  0  0  0
   14.4316  -23.0286   17.8316 C   0  0  0  0  0  0  0  0  0  0  0  0
   15.5257  -23.3174   18.4678 N   0  0  0  0  0  0  0  0  0  0  0  0
   13.9244  -23.8749   16.8094 N   0  0  0  0  0  0  0  0  0  0  0  0
   12.6896  -23.5817   16.1386 C   0  0  0  0  0  0  0  0  0  0  0  0
   11.5904  -23.1028   17.0666 C   0  0  0  0  0  0  0  0  0  0  0  0
   10.3455  -22.8582   16.2890 C   0  0  0  0  0  0  0  0  0  0  0  0
    9.1522  -22.4365   17.0984 C   0  0  2  0  0  0  0  0  0  0  0  0
    8.0185  -22.2621   16.1755 N   0  0  0  0  0  0  0  0  0  0  0  0
    9.3826  -21.2208   17.8846 C   0  0  0  0  0  0  0  0  0  0  0  0
    9.6414  -21.2318   19.1381 O   0  0  0  0  0  0  0  0  0  0  0  0
    9.3363  -19.9526   17.3247 O   0  0  0  0  0  0  0  0  0  0  0  0
  2  3  1  0
  2  1  1  0
  4  5  1  0
  4  3  1  0
  5  6  1  1
  7  5  1  0
  7  8  2  0
  9  7  1  0
 10  9  1  0
 10 11  1  1
 12 13  1  0
 12 11  1  0
 13 14  1  0
 14 15  1  0
 16 17  2  0
 16 10  1  0
 19 18  1  0
 20 19  2  0
 21 19  1  0
 22 21  1  0
 22 23  1  0
 23 24  1  0
 25 24  1  6
 25 26  1  0
 25 27  1  0
 26 16  1  0
 27 29  1  0
 28 27  2  0
M  END
$$$$
