MKR.pdb
     RDKit          3D

 29 28  0  0  1  0  0  0  0  0999 V2000
    6.8367  -10.9715   26.0331 C   0  0  0  0  0  0  0  0  0  0  0  0
    6.6937  -12.1416   27.4086 S   0  0  0  0  0  0  0  0  0  0  0  0
    5.7850  -13.6235   26.8251 C   0  0  0  0  0  0  0  0  0  0  0  0
    6.0883  -13.8469   25.3810 C   0  0  0  0  0  0  0  0  0  0  0  0
    5.9767  -15.2848   24.9617 C   0  0  2  0  0  0  0  0  0  0  0  0
    5.5784  -16.1901   25.9911 N   0  0  0  0  0  0  0  0  0  0  0  0
    7.2093  -15.7885   24.3164 C   0  0  0  0  0  0  0  0  0  0  0  0
    8.0305  -16.5240   24.9292 O   0  0  0  0  0  0  0  0  0  0  0  0
    7.4694  -15.4302   22.9714 N   0  0  0  0  0  0  0  0  0  0  0  0
    8.5638  -15.9777   22.2030 C   0  0  1  0  0  0  0  0  0  0  0  0
    8.6221  -15.2476   20.8794 C   0  0  0  0  0  0  0  0  0  0  0  0
    9.7391  -15.7141   20.0082 C   0  0  0  0  0  0  0  0  0  0  0  0
    9.2085  -16.6101   18.9223 C   0  0  0  0  0  0  0  0  0  0  0  0
   10.2561  -17.1828   18.0240 C   0  0  0  0  0  0  0  0  0  0  0  0
    9.6347  -18.1604   17.1172 N   0  0  0  0  0  0  0  0  0  0  0  0
    9.8552  -15.8582   22.9393 C   0  0  0  0  0  0  0  0  0  0  0  0
   10.2719  -14.7183   23.2502 O   0  0  0  0  0  0  0  0  0  0  0  0
   12.7369  -19.6006   29.4353 N   0  0  0  0  0  0  0  0  0  0  0  0
   12.5443  -20.5662   28.4170 C   0  0  0  0  0  0  0  0  0  0  0  0
   13.2531  -21.6525   28.4673 N   0  0  0  0  0  0  0  0  0  0  0  0
   11.6012  -20.3453   27.3777 N   0  0  0  0  0  0  0  0  0  0  0  0
   11.1577  -19.0230   27.0375 C   0  0  0  0  0  0  0  0  0  0  0  0
   11.2830  -18.6988   25.5617 C   0  0  0  0  0  0  0  0  0  0  0  0
   11.7906  -17.3103   25.3923 C   0  0  0  0  0  0  0  0  0  0  0  0
   11.9478  -16.8504   23.9708 C   0  0  2  0  0  0  0  0  0  0  0  0
   10.6396  -16.9766   23.3074 N   0  0  0  0  0  0  0  0  0  0  0  0
   12.9840  -17.5805   23.2342 C   0  0  0  0  0  0  0  0  0  0  0  0
   14.2110  -17.6177   23.5966 O   0  0  0  0  0  0  0  0  0  0  0  0
   12.7113  -18.2932   22.0760 O   0  0  0  0  0  0  0  0  0  0  0  0
  2  3  1  0
  2  1  1  0
  4  5  1  0
  4  3  1  0
  5  6  1  1
  7  5  1  0
  7  8  2  0
  9  7  1  0
 10  9  1  0
 10 11  1  6
 12 13  1  0
 12 11  1  0
 13 14  1  0
 14 15  1  0
 16 17  2  0
 16 10  1  0
 19 18  1  0
 20 19  2  0
 21 19  1  0
 22 21  1  0
 22 23  1  0
 23 24  1  0
 25 24  1  1
 25 26  1  0
 25 27  1  0
 26 16  1  0
 27 29  1  0
 28 27  2  0
M  END
$$$$
