MKR.pdb
     RDKit          3D

 29 28  0  0  1  0  0  0  0  0999 V2000
    6.3916  -12.0188   20.6611 C   0  0  0  0  0  0  0  0  0  0  0  0
    6.8198  -12.9110   19.1439 S   0  0  0  0  0  0  0  0  0  0  0  0
    7.9531  -14.2870   19.5735 C   0  0  0  0  0  0  0  0  0  0  0  0
    8.5211  -14.0476   20.9326 C   0  0  0  0  0  0  0  0  0  0  0  0
    9.6134  -15.0097   21.3026 C   0  0  2  0  0  0  0  0  0  0  0  0
   10.0104  -15.9078   20.2665 N   0  0  0  0  0  0  0  0  0  0  0  0
    9.3047  -15.7806   22.5273 C   0  0  0  0  0  0  0  0  0  0  0  0
    8.6450  -15.2829   23.4803 O   0  0  0  0  0  0  0  0  0  0  0  0
    9.7667  -17.1153   22.6268 N   0  0  0  0  0  0  0  0  0  0  0  0
    9.5538  -17.9426   23.7923 C   0  0  1  0  0  0  0  0  0  0  0  0
    9.9746  -19.3550   23.4508 C   0  0  0  0  0  0  0  0  0  0  0  0
    9.0760  -20.0026   22.4520 C   0  0  0  0  0  0  0  0  0  0  0  0
    9.6356  -21.3377   22.0421 C   0  0  0  0  0  0  0  0  0  0  0  0
    8.8460  -22.0436   20.9882 C   0  0  0  0  0  0  0  0  0  0  0  0
    9.5412  -23.2844   20.6121 N   0  0  0  0  0  0  0  0  0  0  0  0
   10.3114  -17.4263   24.9684 C   0  0  0  0  0  0  0  0  0  0  0  0
   11.5489  -17.2595   24.8660 O   0  0  0  0  0  0  0  0  0  0  0  0
    6.9315  -13.6275   25.5914 N   0  0  0  0  0  0  0  0  0  0  0  0
    7.3768  -12.3922   26.1228 C   0  0  0  0  0  0  0  0  0  0  0  0
    7.1847  -11.3213   25.4147 N   0  0  0  0  0  0  0  0  0  0  0  0
    8.0112  -12.3359   27.3927 N   0  0  0  0  0  0  0  0  0  0  0  0
    8.3922  -13.5298   28.0930 C   0  0  0  0  0  0  0  0  0  0  0  0
    9.2500  -14.4715   27.2708 C   0  0  0  0  0  0  0  0  0  0  0  0
    9.6583  -15.6363   28.1019 C   0  0  0  0  0  0  0  0  0  0  0  0
   10.4610  -16.6871   27.3889 C   0  0  2  0  0  0  0  0  0  0  0  0
    9.6979  -17.1126   26.2040 N   0  0  0  0  0  0  0  0  0  0  0  0
   10.8006  -17.8344   28.2360 C   0  0  0  0  0  0  0  0  0  0  0  0
   11.6595  -17.7799   29.1834 O   0  0  0  0  0  0  0  0  0  0  0  0
   10.2117  -19.0796   28.0734 O   0  0  0  0  0  0  0  0  0  0  0  0
  2  3  1  0
  2  1  1  0
  4  5  1  0
  4  3  1  0
  5  6  1  6
  7  5  1  0
  7  8  2  0
  9  7  1  0
 10  9  1  0
 10 11  1  6
 12 13  1  0
 12 11  1  0
 13 14  1  0
 14 15  1  0
 16 17  2  0
 16 10  1  0
 19 18  1  0
 20 19  2  0
 21 19  1  0
 22 21  1  0
 22 23  1  0
 23 24  1  0
 25 24  1  1
 25 26  1  0
 25 27  1  0
 26 16  1  0
 27 29  1  0
 28 27  2  0
M  END
$$$$
