MKR.pdb
     RDKit          3D

 29 28  0  0  1  0  0  0  0  0999 V2000
    6.8384  -11.6551   20.9223 C   0  0  0  0  0  0  0  0  0  0  0  0
    6.9104  -12.1232   19.1738 S   0  0  0  0  0  0  0  0  0  0  0  0
    7.1863  -13.9325   19.0626 C   0  0  0  0  0  0  0  0  0  0  0  0
    8.1271  -14.3519   20.1426 C   0  0  0  0  0  0  0  0  0  0  0  0
    8.5076  -15.8032   20.0743 C   0  0  2  0  0  0  0  0  0  0  0  0
    7.6750  -16.6126   19.2441 N   0  0  0  0  0  0  0  0  0  0  0  0
    8.6207  -16.4271   21.4113 C   0  0  0  0  0  0  0  0  0  0  0  0
    9.1871  -15.8423   22.3747 O   0  0  0  0  0  0  0  0  0  0  0  0
    8.0760  -17.7191   21.6084 N   0  0  0  0  0  0  0  0  0  0  0  0
    8.1158  -18.4108   22.8765 C   0  0  1  0  0  0  0  0  0  0  0  0
    7.4517  -19.7584   22.6994 C   0  0  0  0  0  0  0  0  0  0  0  0
    5.9689  -19.6619   22.5707 C   0  0  0  0  0  0  0  0  0  0  0  0
    5.3822  -21.0239   22.3167 C   0  0  0  0  0  0  0  0  0  0  0  0
    3.8985  -21.0368   22.1409 C   0  0  0  0  0  0  0  0  0  0  0  0
    3.4656  -22.3954   21.7792 N   0  0  0  0  0  0  0  0  0  0  0  0
    9.5161  -18.5627   23.3665 C   0  0  0  0  0  0  0  0  0  0  0  0
   10.3919  -18.9846   22.5762 O   0  0  0  0  0  0  0  0  0  0  0  0
   15.3011  -14.7921   21.2121 N   0  0  0  0  0  0  0  0  0  0  0  0
   14.2542  -15.4281   20.5009 C   0  0  0  0  0  0  0  0  0  0  0  0
   14.0890  -15.1138   19.2523 N   0  0  0  0  0  0  0  0  0  0  0  0
   13.4169  -16.3804   21.1414 N   0  0  0  0  0  0  0  0  0  0  0  0
   13.1876  -16.3431   22.5581 C   0  0  0  0  0  0  0  0  0  0  0  0
   12.3262  -17.4826   23.0665 C   0  0  0  0  0  0  0  0  0  0  0  0
   12.1329  -17.3510   24.5360 C   0  0  0  0  0  0  0  0  0  0  0  0
   11.2889  -18.4182   25.1732 C   0  0  2  0  0  0  0  0  0  0  0  0
    9.9083  -18.2516   24.6897 N   0  0  0  0  0  0  0  0  0  0  0  0
   11.3390  -18.4022   26.6382 C   0  0  0  0  0  0  0  0  0  0  0  0
   10.3894  -17.9538   27.3700 O   0  0  0  0  0  0  0  0  0  0  0  0
   12.4308  -18.8757   27.3506 O   0  0  0  0  0  0  0  0  0  0  0  0
  2  3  1  0
  2  1  1  0
  4  5  1  0
  4  3  1  0
  5  6  1  6
  7  5  1  0
  7  8  2  0
  9  7  1  0
 10  9  1  0
 10 11  1  6
 12 13  1  0
 12 11  1  0
 13 14  1  0
 14 15  1  0
 16 17  2  0
 16 10  1  0
 19 18  1  0
 20 19  2  0
 21 19  1  0
 22 21  1  0
 22 23  1  0
 23 24  1  0
 25 24  1  6
 25 26  1  0
 25 27  1  0
 26 16  1  0
 27 29  1  0
 28 27  2  0
M  END
$$$$
