IRS.pdb
     RDKit          3D

 26 25  0  0  1  0  0  0  0  0999 V2000
   28.4328  -17.5223  -17.7615 C   0  0  0  0  0  0  0  0  0  0  0  0
   28.7141  -18.7031  -16.8331 C   0  0  0  0  0  0  0  0  0  0  0  0
   27.4124  -19.1595  -16.1676 C   0  0  2  0  0  0  0  0  0  0  0  0
   26.9250  -18.0263  -15.3094 C   0  0  0  0  0  0  0  0  0  0  0  0
   27.7733  -20.3796  -15.3560 C   0  0  2  0  0  0  0  0  0  0  0  0
   28.2603  -21.3950  -16.2611 N   0  0  0  0  0  0  0  0  0  0  0  0
   26.6827  -20.9059  -14.5377 C   0  0  0  0  0  0  0  0  0  0  0  0
   25.8068  -21.7092  -14.9540 O   0  0  0  0  0  0  0  0  0  0  0  0
   21.6392  -20.4430   -8.7879 N   0  0  0  0  0  0  0  0  0  0  0  0
   22.3453  -21.1514   -7.7855 C   0  0  0  0  0  0  0  0  0  0  0  0
   21.6988  -21.8363   -6.9033 N   0  0  0  0  0  0  0  0  0  0  0  0
   23.7656  -21.1590   -7.6955 N   0  0  0  0  0  0  0  0  0  0  0  0
   24.6283  -20.4339   -8.6203 C   0  0  0  0  0  0  0  0  0  0  0  0
   24.3473  -20.7707  -10.0368 C   0  0  0  0  0  0  0  0  0  0  0  0
   25.5428  -20.5979  -10.9117 C   0  0  0  0  0  0  0  0  0  0  0  0
   25.4215  -20.8780  -12.3517 C   0  0  2  0  0  0  0  0  0  0  0  0
   26.5635  -20.5119  -13.1770 N   0  0  0  0  0  0  0  0  0  0  0  0
   24.2110  -20.1305  -12.8953 C   0  0  0  0  0  0  0  0  0  0  0  0
   24.1897  -18.9009  -13.0376 O   0  0  0  0  0  0  0  0  0  0  0  0
   22.1566  -22.3814   -6.1511 O   0  0  0  0  0  0  0  0  0  0  0  0
   22.1340  -18.9454  -15.8846 C   0  0  0  0  0  0  0  0  0  0  0  0
   22.0681  -20.2381  -15.3815 C   0  0  2  0  0  0  0  0  0  0  0  0
   21.9375  -20.2067  -13.8864 N   0  0  0  0  0  0  0  0  0  0  0  0
   23.0733  -20.8858  -13.2485 C   0  0  0  0  0  0  0  0  0  0  0  0
   20.6581  -20.8170  -13.4400 O   0  0  0  0  0  0  0  0  0  0  0  0
   19.4401  -20.3609  -13.9172 O   0  0  0  0  0  0  0  0  0  0  0  0
  2  1  1  0
  2  3  1  0
  3  4  1  1
  5  3  1  0
  5  6  1  6
  7  5  1  0
  7  8  2  0
  9 10  1  0
 10 11  2  0
 12 10  1  0
 12 13  1  0
 14 15  1  0
 14 13  1  0
 16 15  1  1
 16 18  1  0
 16 17  1  0
 17  7  1  0
 18 19  2  0
 21 20  1  0
 22 21  1  1
 23 22  1  0
 23 18  1  0
 24 22  1  0
 25 24  1  0
 26 24  2  0
M  END
$$$$
