IRS.pdb
     RDKit          3D

 26 25  0  0  1  0  0  0  0  0999 V2000
   28.0415  -19.3354   -6.0974 C   0  0  0  0  0  0  0  0  0  0  0  0
   26.5942  -19.6299   -6.4899 C   0  0  0  0  0  0  0  0  0  0  0  0
   26.5565  -20.2849   -7.8738 C   0  0  2  0  0  0  0  0  0  0  0  0
   27.2652  -19.3638   -8.8265 C   0  0  0  0  0  0  0  0  0  0  0  0
   25.0943  -20.4450   -8.2114 C   0  0  2  0  0  0  0  0  0  0  0  0
   24.4932  -21.3018   -7.2155 N   0  0  0  0  0  0  0  0  0  0  0  0
   24.8368  -20.9634   -9.5534 C   0  0  0  0  0  0  0  0  0  0  0  0
   25.1986  -22.1002   -9.9567 O   0  0  0  0  0  0  0  0  0  0  0  0
   20.5425  -21.5199  -16.7449 N   0  0  0  0  0  0  0  0  0  0  0  0
   19.7824  -21.3370  -15.5642 C   0  0  0  0  0  0  0  0  0  0  0  0
   18.6907  -22.0029  -15.3906 N   0  0  0  0  0  0  0  0  0  0  0  0
   20.1660  -20.4431  -14.5253 N   0  0  0  0  0  0  0  0  0  0  0  0
   21.3775  -19.6337  -14.5751 C   0  0  0  0  0  0  0  0  0  0  0  0
   22.5524  -20.3404  -14.0101 C   0  0  0  0  0  0  0  0  0  0  0  0
   22.7560  -20.0410  -12.5632 C   0  0  0  0  0  0  0  0  0  0  0  0
   23.9470  -20.5755  -11.8832 C   0  0  2  0  0  0  0  0  0  0  0  0
   24.1356  -20.1664  -10.4988 N   0  0  0  0  0  0  0  0  0  0  0  0
   25.1865  -20.1447  -12.6562 C   0  0  0  0  0  0  0  0  0  0  0  0
   25.7176  -19.0362  -12.5091 O   0  0  0  0  0  0  0  0  0  0  0  0
   18.1038  -21.9318  -14.5402 O   0  0  0  0  0  0  0  0  0  0  0  0
   27.4210  -22.9508  -14.8603 C   0  0  0  0  0  0  0  0  0  0  0  0
   27.9625  -21.8222  -14.2590 C   0  0  1  0  0  0  0  0  0  0  0  0
   26.9729  -20.6937  -14.2884 N   0  0  0  0  0  0  0  0  0  0  0  0
   25.7422  -21.0596  -13.5747 C   0  0  0  0  0  0  0  0  0  0  0  0
   26.6561  -20.2853  -15.6817 O   0  0  0  0  0  0  0  0  0  0  0  0
   27.6484  -19.8526  -16.5463 O   0  0  0  0  0  0  0  0  0  0  0  0
  2  1  1  0
  2  3  1  0
  3  4  1  6
  5  3  1  0
  5  6  1  1
  7  5  1  0
  7  8  2  0
  9 10  1  0
 10 11  2  0
 12 10  1  0
 12 13  1  0
 14 15  1  0
 14 13  1  0
 16 15  1  6
 16 18  1  0
 16 17  1  0
 17  7  1  0
 18 19  2  0
 21 20  1  0
 22 21  1  1
 23 22  1  0
 23 18  1  0
 24 22  1  0
 25 24  1  0
 26 24  2  0
M  END
$$$$
