IRS.pdb
     RDKit          3D

 26 25  0  0  1  0  0  0  0  0999 V2000
   28.1393  -19.3343   -6.8514 C   0  0  0  0  0  0  0  0  0  0  0  0
   27.5619  -20.3895   -7.7940 C   0  0  0  0  0  0  0  0  0  0  0  0
   26.6255  -19.7224   -8.8058 C   0  0  2  0  0  0  0  0  0  0  0  0
   25.4896  -19.1131   -8.0333 C   0  0  0  0  0  0  0  0  0  0  0  0
   26.1658  -20.8254   -9.7276 C   0  0  2  0  0  0  0  0  0  0  0  0
   27.3297  -21.3875  -10.3731 N   0  0  0  0  0  0  0  0  0  0  0  0
   25.1804  -20.4098  -10.7238 C   0  0  0  0  0  0  0  0  0  0  0  0
   24.0790  -19.8651  -10.4483 O   0  0  0  0  0  0  0  0  0  0  0  0
   28.7406  -22.4037  -15.9048 N   0  0  0  0  0  0  0  0  0  0  0  0
   27.8057  -22.2108  -16.9508 C   0  0  0  0  0  0  0  0  0  0  0  0
   27.6008  -23.1484  -17.8134 N   0  0  0  0  0  0  0  0  0  0  0  0
   27.0521  -21.0136  -17.1067 N   0  0  0  0  0  0  0  0  0  0  0  0
   27.0166  -19.9561  -16.1038 C   0  0  0  0  0  0  0  0  0  0  0  0
   26.4871  -20.4297  -14.8022 C   0  0  0  0  0  0  0  0  0  0  0  0
   25.2085  -19.7587  -14.4288 C   0  0  0  0  0  0  0  0  0  0  0  0
   24.5638  -20.1080  -13.1525 C   0  0  2  0  0  0  0  0  0  0  0  0
   25.4400  -20.6149  -12.1063 N   0  0  0  0  0  0  0  0  0  0  0  0
   23.5065  -21.1727  -13.4137 C   0  0  0  0  0  0  0  0  0  0  0  0
   23.7879  -22.3576  -13.6362 O   0  0  0  0  0  0  0  0  0  0  0  0
   26.9072  -23.0821  -18.5797 O   0  0  0  0  0  0  0  0  0  0  0  0
   19.4958  -20.3418  -12.6013 C   0  0  0  0  0  0  0  0  0  0  0  0
   20.0335  -21.6193  -12.5155 C   0  0  1  0  0  0  0  0  0  0  0  0
   21.1093  -21.7993  -13.5470 N   0  0  0  0  0  0  0  0  0  0  0  0
   22.1530  -20.7763  -13.3970 C   0  0  0  0  0  0  0  0  0  0  0  0
   20.5523  -21.7660  -14.9243 O   0  0  0  0  0  0  0  0  0  0  0  0
   19.6677  -22.7371  -15.3647 O   0  0  0  0  0  0  0  0  0  0  0  0
  2  1  1  0
  2  3  1  0
  3  4  1  1
  5  3  1  0
  5  6  1  6
  7  5  1  0
  7  8  2  0
  9 10  1  0
 10 11  2  0
 12 10  1  0
 12 13  1  0
 14 15  1  0
 14 13  1  0
 16 15  1  6
 16 18  1  0
 16 17  1  0
 17  7  1  0
 18 19  2  0
 21 20  1  0
 22 21  1  1
 23 22  1  0
 23 18  1  0
 24 22  1  0
 25 24  1  0
 26 24  2  0
M  END
$$$$
