IRS.pdb
     RDKit          3D

 26 25  0  0  1  0  0  0  0  0999 V2000
   19.8336  -15.4357  -18.4882 C   0  0  0  0  0  0  0  0  0  0  0  0
   20.0100  -14.3486  -17.4286 C   0  0  0  0  0  0  0  0  0  0  0  0
   19.0511  -13.1888  -17.7128 C   0  0  2  0  0  0  0  0  0  0  0  0
   19.3632  -12.6746  -19.0899 C   0  0  0  0  0  0  0  0  0  0  0  0
   19.3228  -12.1609  -16.6416 C   0  0  2  0  0  0  0  0  0  0  0  0
   19.1187  -12.7861  -15.3552 N   0  0  0  0  0  0  0  0  0  0  0  0
   18.5186  -10.9455  -16.7517 C   0  0  0  0  0  0  0  0  0  0  0  0
   18.4850  -10.2067  -17.7709 O   0  0  0  0  0  0  0  0  0  0  0  0
   10.9136  -10.9103  -12.6825 N   0  0  0  0  0  0  0  0  0  0  0  0
   11.2746  -11.7618  -13.7548 C   0  0  0  0  0  0  0  0  0  0  0  0
   10.4996  -12.7366  -14.0931 N   0  0  0  0  0  0  0  0  0  0  0  0
   12.4712  -11.5968  -14.5075 N   0  0  0  0  0  0  0  0  0  0  0  0
   13.4618  -10.5674  -14.2169 C   0  0  0  0  0  0  0  0  0  0  0  0
   14.5777  -10.5657  -15.1935 C   0  0  0  0  0  0  0  0  0  0  0  0
   15.5743   -9.4907  -14.9184 C   0  0  0  0  0  0  0  0  0  0  0  0
   16.7851   -9.4080  -15.7512 C   0  0  2  0  0  0  0  0  0  0  0  0
   17.7064  -10.5316  -15.6610 N   0  0  0  0  0  0  0  0  0  0  0  0
   17.5596   -8.1546  -15.3656 C   0  0  0  0  0  0  0  0  0  0  0  0
   18.3427   -8.1178  -14.4075 O   0  0  0  0  0  0  0  0  0  0  0  0
   10.7090  -13.3957  -14.8641 O   0  0  0  0  0  0  0  0  0  0  0  0
   19.6520   -4.1788  -16.6628 C   0  0  0  0  0  0  0  0  0  0  0  0
   19.0073   -5.3733  -16.9560 C   0  0  1  0  0  0  0  0  0  0  0  0
   18.1239   -5.7800  -15.8124 N   0  0  0  0  0  0  0  0  0  0  0  0
   17.3663   -6.9942  -16.1438 C   0  0  0  0  0  0  0  0  0  0  0  0
   17.1958   -4.6852  -15.4270 O   0  0  0  0  0  0  0  0  0  0  0  0
   17.6284   -3.6120  -14.6652 O   0  0  0  0  0  0  0  0  0  0  0  0
  2  1  1  0
  2  3  1  0
  3  4  1  6
  5  3  1  0
  5  6  1  1
  7  5  1  0
  7  8  2  0
  9 10  1  0
 10 11  2  0
 12 10  1  0
 12 13  1  0
 14 15  1  0
 14 13  1  0
 16 15  1  1
 16 18  1  0
 16 17  1  0
 17  7  1  0
 18 19  2  0
 21 20  1  0
 22 21  1  1
 23 22  1  0
 23 18  1  0
 24 22  1  0
 25 24  1  0
 26 24  2  0
M  END
$$$$
