IRS.pdb
     RDKit          3D

 26 25  0  0  1  0  0  0  0  0999 V2000
   13.5321  -10.9655  -16.9638 C   0  0  0  0  0  0  0  0  0  0  0  0
   14.7242  -10.2068  -17.5458 C   0  0  0  0  0  0  0  0  0  0  0  0
   15.8142  -10.0599  -16.4801 C   0  0  2  0  0  0  0  0  0  0  0  0
   15.2264   -9.2757  -15.3409 C   0  0  0  0  0  0  0  0  0  0  0  0
   16.9499   -9.3291  -17.1538 C   0  0  2  0  0  0  0  0  0  0  0  0
   17.2473  -10.0055  -18.3953 N   0  0  0  0  0  0  0  0  0  0  0  0
   18.1566   -9.2041  -16.3388 C   0  0  0  0  0  0  0  0  0  0  0  0
   18.1683   -8.8051  -15.1446 O   0  0  0  0  0  0  0  0  0  0  0  0
   26.6035  -12.5134  -17.0980 N   0  0  0  0  0  0  0  0  0  0  0  0
   26.5691  -11.5832  -16.0308 C   0  0  0  0  0  0  0  0  0  0  0  0
   27.6050  -11.4282  -15.2770 N   0  0  0  0  0  0  0  0  0  0  0  0
   25.4306  -10.7814  -15.7370 N   0  0  0  0  0  0  0  0  0  0  0  0
   24.1766  -10.8741  -16.4748 C   0  0  0  0  0  0  0  0  0  0  0  0
   23.1348   -9.9678  -15.9342 C   0  0  0  0  0  0  0  0  0  0  0  0
   21.8281  -10.1178  -16.6373 C   0  0  0  0  0  0  0  0  0  0  0  0
   20.6715   -9.3355  -16.1716 C   0  0  2  0  0  0  0  0  0  0  0  0
   19.4224   -9.5436  -16.8896 N   0  0  0  0  0  0  0  0  0  0  0  0
   21.0106   -7.8541  -16.2717 C   0  0  0  0  0  0  0  0  0  0  0  0
   20.9197   -7.2146  -17.3278 O   0  0  0  0  0  0  0  0  0  0  0  0
   27.6508  -10.7486  -14.4968 O   0  0  0  0  0  0  0  0  0  0  0  0
   20.8270   -4.6133  -17.0132 C   0  0  0  0  0  0  0  0  0  0  0  0
   20.6076   -4.9752  -15.6905 C   0  0  2  0  0  0  0  0  0  0  0  0
   21.7724   -5.7657  -15.1692 N   0  0  0  0  0  0  0  0  0  0  0  0
   21.4445   -7.1962  -15.1019 C   0  0  0  0  0  0  0  0  0  0  0  0
   22.2080   -5.2758  -13.8355 O   0  0  0  0  0  0  0  0  0  0  0  0
   22.2192   -6.1129  -12.7316 O   0  0  0  0  0  0  0  0  0  0  0  0
  2  1  1  0
  2  3  1  0
  3  4  1  1
  5  3  1  0
  5  6  1  6
  7  5  1  0
  7  8  2  0
  9 10  1  0
 10 11  2  0
 12 10  1  0
 12 13  1  0
 14 15  1  0
 14 13  1  0
 16 15  1  6
 16 18  1  0
 16 17  1  0
 17  7  1  0
 18 19  2  0
 21 20  1  0
 22 21  1  6
 23 22  1  0
 23 18  1  0
 24 22  1  0
 25 24  1  0
 26 24  2  0
M  END
$$$$
