IRS.pdb
     RDKit          3D

 26 25  0  0  1  0  0  0  0  0999 V2000
   18.7291  -10.9836  -17.4107 C   0  0  0  0  0  0  0  0  0  0  0  0
   19.1528  -10.4298  -16.0509 C   0  0  0  0  0  0  0  0  0  0  0  0
   18.0008   -9.6290  -15.4367 C   0  0  2  0  0  0  0  0  0  0  0  0
   17.6527   -8.5303  -16.4010 C   0  0  0  0  0  0  0  0  0  0  0  0
   18.5254   -9.0966  -14.1256 C   0  0  2  0  0  0  0  0  0  0  0  0
   19.1268  -10.1933  -13.4023 N   0  0  0  0  0  0  0  0  0  0  0  0
   17.5219   -8.4292  -13.2988 C   0  0  0  0  0  0  0  0  0  0  0  0
   16.8459   -7.4332  -13.6687 O   0  0  0  0  0  0  0  0  0  0  0  0
   11.0616  -10.6611   -8.3614 N   0  0  0  0  0  0  0  0  0  0  0  0
   11.3465   -9.3486   -7.9124 C   0  0  0  0  0  0  0  0  0  0  0  0
   10.4719   -8.7000   -7.2198 N   0  0  0  0  0  0  0  0  0  0  0  0
   12.5776   -8.6870   -8.1809 N   0  0  0  0  0  0  0  0  0  0  0  0
   13.6304   -9.2639   -9.0080 C   0  0  0  0  0  0  0  0  0  0  0  0
   14.8709   -8.4516   -8.9910 C   0  0  0  0  0  0  0  0  0  0  0  0
   15.9268   -9.0049   -9.8874 C   0  0  0  0  0  0  0  0  0  0  0  0
   16.3078   -8.2517  -11.0933 C   0  0  2  0  0  0  0  0  0  0  0  0
   17.2589   -8.9010  -11.9839 N   0  0  0  0  0  0  0  0  0  0  0  0
   16.9192   -6.9233  -10.6677 C   0  0  0  0  0  0  0  0  0  0  0  0
   18.1351   -6.6966  -10.7201 O   0  0  0  0  0  0  0  0  0  0  0  0
   10.6206   -7.7398   -6.8613 O   0  0  0  0  0  0  0  0  0  0  0  0
   17.4076   -2.7724  -11.4968 C   0  0  0  0  0  0  0  0  0  0  0  0
   16.9886   -4.0960  -11.5305 C   0  0  1  0  0  0  0  0  0  0  0  0
   16.5179   -4.5255  -10.1713 N   0  0  0  0  0  0  0  0  0  0  0  0
   16.0495   -5.9177  -10.1967 C   0  0  0  0  0  0  0  0  0  0  0  0
   15.4455   -3.6325   -9.6605 O   0  0  0  0  0  0  0  0  0  0  0  0
   15.7459   -2.4222   -9.0569 O   0  0  0  0  0  0  0  0  0  0  0  0
  2  1  1  0
  2  3  1  0
  3  4  1  6
  5  3  1  0
  5  6  1  1
  7  5  1  0
  7  8  2  0
  9 10  1  0
 10 11  2  0
 12 10  1  0
 12 13  1  0
 14 15  1  0
 14 13  1  0
 16 15  1  1
 16 18  1  0
 16 17  1  0
 17  7  1  0
 18 19  2  0
 21 20  1  0
 22 21  1  1
 23 22  1  0
 23 18  1  0
 24 22  1  0
 25 24  1  0
 26 24  2  0
M  END
$$$$
