IRS.pdb
     RDKit          3D

 26 25  0  0  1  0  0  0  0  0999 V2000
   18.3512  -20.5350  -11.7210 C   0  0  0  0  0  0  0  0  0  0  0  0
   18.9749  -21.9264  -11.6183 C   0  0  0  0  0  0  0  0  0  0  0  0
   18.2024  -22.7653  -10.5961 C   0  0  2  0  0  0  0  0  0  0  0  0
   18.4241  -22.1446   -9.2456 C   0  0  0  0  0  0  0  0  0  0  0  0
   18.7787  -24.1571  -10.6893 C   0  0  2  0  0  0  0  0  0  0  0  0
   18.7315  -24.5725  -12.0722 N   0  0  0  0  0  0  0  0  0  0  0  0
   18.1179  -25.1436   -9.8372 C   0  0  0  0  0  0  0  0  0  0  0  0
   16.8820  -25.3845   -9.8571 O   0  0  0  0  0  0  0  0  0  0  0  0
   21.3286  -29.2935  -11.3188 N   0  0  0  0  0  0  0  0  0  0  0  0
   20.7137  -30.5685  -11.2801 C   0  0  0  0  0  0  0  0  0  0  0  0
   20.8070  -31.3604  -12.2948 N   0  0  0  0  0  0  0  0  0  0  0  0
   19.9851  -31.0445  -10.1541 N   0  0  0  0  0  0  0  0  0  0  0  0
   19.8081  -30.2699   -8.9318 C   0  0  0  0  0  0  0  0  0  0  0  0
   19.1441  -28.9673   -9.1799 C   0  0  0  0  0  0  0  0  0  0  0  0
   18.9344  -28.1867   -7.9265 C   0  0  0  0  0  0  0  0  0  0  0  0
   18.2779  -26.8715   -8.0045 C   0  0  2  0  0  0  0  0  0  0  0  0
   18.8810  -25.9038   -8.9096 N   0  0  0  0  0  0  0  0  0  0  0  0
   18.2663  -26.2472   -6.6154 C   0  0  0  0  0  0  0  0  0  0  0  0
   19.0038  -25.3054   -6.2967 O   0  0  0  0  0  0  0  0  0  0  0  0
   20.4641  -32.3377  -12.2939 O   0  0  0  0  0  0  0  0  0  0  0  0
   15.7019  -23.9057   -4.1150 C   0  0  0  0  0  0  0  0  0  0  0  0
   16.2636  -24.6586   -5.1378 C   0  0  1  0  0  0  0  0  0  0  0  0
   16.8868  -25.9059   -4.5814 N   0  0  0  0  0  0  0  0  0  0  0  0
   17.3704  -26.7751   -5.6624 C   0  0  0  0  0  0  0  0  0  0  0  0
   15.9356  -26.6476   -3.7131 O   0  0  0  0  0  0  0  0  0  0  0  0
   15.8762  -26.4130   -2.3490 O   0  0  0  0  0  0  0  0  0  0  0  0
  2  1  1  0
  2  3  1  0
  3  4  1  1
  5  3  1  0
  5  6  1  6
  7  5  1  0
  7  8  2  0
  9 10  1  0
 10 11  2  0
 12 10  1  0
 12 13  1  0
 14 15  1  0
 14 13  1  0
 16 15  1  1
 16 18  1  0
 16 17  1  0
 17  7  1  0
 18 19  2  0
 21 20  1  0
 22 21  1  1
 23 22  1  0
 23 18  1  0
 24 22  1  0
 25 24  1  0
 26 24  2  0
M  END
$$$$
