IRS.pdb
     RDKit          3D

 26 25  0  0  1  0  0  0  0  0999 V2000
   20.6299  -22.1111   -7.7894 C   0  0  0  0  0  0  0  0  0  0  0  0
   19.8583  -21.2861   -8.8187 C   0  0  0  0  0  0  0  0  0  0  0  0
   20.8413  -20.5329   -9.7198 C   0  0  2  0  0  0  0  0  0  0  0  0
   20.8148  -19.0886   -9.3056 C   0  0  0  0  0  0  0  0  0  0  0  0
   20.3416  -20.7345  -11.1296 C   0  0  2  0  0  0  0  0  0  0  0  0
   20.1754  -22.1526  -11.3501 N   0  0  0  0  0  0  0  0  0  0  0  0
   21.1964  -20.1540  -12.1631 C   0  0  0  0  0  0  0  0  0  0  0  0
   21.2997  -18.9193  -12.3878 O   0  0  0  0  0  0  0  0  0  0  0  0
   27.9554  -21.1652  -15.8503 N   0  0  0  0  0  0  0  0  0  0  0  0
   27.6881  -19.9540  -16.5335 C   0  0  0  0  0  0  0  0  0  0  0  0
   28.6301  -19.3599  -17.1852 N   0  0  0  0  0  0  0  0  0  0  0  0
   26.4042  -19.3401  -16.5506 N   0  0  0  0  0  0  0  0  0  0  0  0
   25.1999  -19.9936  -16.0527 C   0  0  0  0  0  0  0  0  0  0  0  0
   25.3597  -20.4907  -14.6648 C   0  0  0  0  0  0  0  0  0  0  0  0
   24.1541  -21.2219  -14.1789 C   0  0  0  0  0  0  0  0  0  0  0  0
   22.8929  -20.4838  -14.0025 C   0  0  2  0  0  0  0  0  0  0  0  0
   21.9800  -21.0011  -12.9933 N   0  0  0  0  0  0  0  0  0  0  0  0
   22.1434  -20.4718  -15.3283 C   0  0  0  0  0  0  0  0  0  0  0  0
   21.3369  -21.3537  -15.6514 O   0  0  0  0  0  0  0  0  0  0  0  0
   28.5180  -18.4381  -17.6440 O   0  0  0  0  0  0  0  0  0  0  0  0
   19.2040  -17.7381  -16.9248 C   0  0  0  0  0  0  0  0  0  0  0  0
   20.1984  -18.3176  -16.1478 C   0  0  1  0  0  0  0  0  0  0  0  0
   21.2798  -18.8797  -17.0243 N   0  0  0  0  0  0  0  0  0  0  0  0
   22.3888  -19.4027  -16.2151 C   0  0  0  0  0  0  0  0  0  0  0  0
   21.7811  -17.8646  -17.9870 O   0  0  0  0  0  0  0  0  0  0  0  0
   21.0016  -17.4354  -19.0487 O   0  0  0  0  0  0  0  0  0  0  0  0
  2  1  1  0
  2  3  1  0
  3  4  1  1
  5  3  1  0
  5  6  1  6
  7  5  1  0
  7  8  2  0
  9 10  1  0
 10 11  2  0
 12 10  1  0
 12 13  1  0
 14 15  1  0
 14 13  1  0
 16 15  1  6
 16 18  1  0
 16 17  1  0
 17  7  1  0
 18 19  2  0
 21 20  1  0
 22 21  1  1
 23 22  1  0
 23 18  1  0
 24 22  1  0
 25 24  1  0
 26 24  2  0
M  END
$$$$
