FTQ.pdb
     RDKit          3D

 28 28  0  0  1  0  0  0  0  0999 V2000
   27.2520  -21.8100  -10.5277 N   0  0  0  0  0  0  0  0  0  0  0  0
   26.2947  -20.9581  -11.2180 C   0  0  1  0  0  0  0  0  0  0  0  0
   25.6749  -20.0388  -10.1700 C   0  0  0  0  0  0  0  0  0  0  0  0
   24.7365  -20.7201   -9.2765 C   0  0  0  0  0  0  0  0  0  0  0  0
   23.5263  -21.1560   -9.7634 C   0  0  0  0  0  0  0  0  0  0  0  0
   22.5999  -21.8009   -8.9854 C   0  0  0  0  0  0  0  0  0  0  0  0
   22.8770  -22.0315   -7.6530 C   0  0  0  0  0  0  0  0  0  0  0  0
   24.0907  -21.5910   -7.1765 C   0  0  0  0  0  0  0  0  0  0  0  0
   25.0285  -20.9412   -7.9519 C   0  0  0  0  0  0  0  0  0  0  0  0
   26.9292  -20.1426  -12.2614 C   0  0  0  0  0  0  0  0  0  0  0  0
   28.1793  -19.9473  -12.3293 O   0  0  0  0  0  0  0  0  0  0  0  0
   26.8164  -21.0598  -15.6529 C   0  0  0  0  0  0  0  0  0  0  0  0
   27.5760  -19.8434  -15.1918 C   0  0  1  0  0  0  0  0  0  0  0  0
   28.0653  -19.2515  -16.3730 O   0  0  0  0  0  0  0  0  0  0  0  0
   26.7168  -18.8543  -14.4310 C   0  0  2  0  0  0  0  0  0  0  0  0
   26.1349  -19.5309  -13.2535 N   0  0  0  0  0  0  0  0  0  0  0  0
   25.6681  -18.2039  -15.2135 C   0  0  0  0  0  0  0  0  0  0  0  0
   24.4960  -18.7389  -15.2089 O   0  0  0  0  0  0  0  0  0  0  0  0
   24.5774  -12.2563  -15.3773 N   0  0  0  0  0  0  0  0  0  0  0  0
   23.3605  -12.7634  -15.8538 C   0  0  0  0  0  0  0  0  0  0  0  0
   22.3620  -12.0173  -15.9406 O   0  0  0  0  0  0  0  0  0  0  0  0
   23.2416  -14.1997  -16.2633 C   0  0  0  0  0  0  0  0  0  0  0  0
   24.5389  -14.9146  -15.9732 C   0  0  0  0  0  0  0  0  0  0  0  0
   24.5837  -16.3199  -16.4932 C   0  0  2  0  0  0  0  0  0  0  0  0
   25.7690  -17.0327  -15.9951 N   0  0  0  0  0  0  0  0  0  0  0  0
   24.4834  -16.4378  -17.9609 C   0  0  0  0  0  0  0  0  0  0  0  0
   23.3389  -16.2107  -18.7033 O   0  0  0  0  0  0  0  0  0  0  0  0
   25.5111  -16.7715  -18.6022 O   0  0  0  0  0  0  0  0  0  0  0  0
  2  1  1  1
  2 10  1  0
  3  2  1  0
  4  3  1  0
  4  9  2  0
  5  4  1  0
  6  5  2  0
  6  7  1  0
  7  8  2  0
  8  9  1  0
 10 11  2  0
 13 12  1  6
 13 15  1  0
 14 13  1  0
 15 16  1  1
 16 10  1  0
 17 18  2  0
 17 15  1  0
 19 20  1  0
 20 22  1  0
 20 21  2  0
 22 23  1  0
 24 23  1  6
 24 25  1  0
 24 26  1  0
 25 17  1  0
 26 27  1  0
 28 26  2  0
M  END
$$$$
