FTQ.pdb
     RDKit          3D

 28 28  0  0  1  0  0  0  0  0999 V2000
   28.5650  -20.7678  -15.7911 N   0  0  0  0  0  0  0  0  0  0  0  0
   27.6940  -20.0091  -14.9054 C   0  0  1  0  0  0  0  0  0  0  0  0
   26.7836  -19.1620  -15.7891 C   0  0  0  0  0  0  0  0  0  0  0  0
   27.5066  -18.1910  -16.6123 C   0  0  0  0  0  0  0  0  0  0  0  0
   27.6821  -18.4325  -17.9548 C   0  0  0  0  0  0  0  0  0  0  0  0
   28.3475  -17.5685  -18.7856 C   0  0  0  0  0  0  0  0  0  0  0  0
   28.8708  -16.4003  -18.2692 C   0  0  0  0  0  0  0  0  0  0  0  0
   28.6893  -16.1689  -16.9247 C   0  0  0  0  0  0  0  0  0  0  0  0
   28.0215  -17.0326  -16.0815 C   0  0  0  0  0  0  0  0  0  0  0  0
   26.8702  -20.8802  -14.0575 C   0  0  0  0  0  0  0  0  0  0  0  0
   27.3274  -21.8899  -13.4437 O   0  0  0  0  0  0  0  0  0  0  0  0
   26.8210  -21.3921  -11.6469 C   0  0  0  0  0  0  0  0  0  0  0  0
   25.3190  -21.3066  -11.5715 C   0  0  1  0  0  0  0  0  0  0  0  0
   25.0570  -20.0809  -10.9277 O   0  0  0  0  0  0  0  0  0  0  0  0
   24.6490  -21.3348  -12.9300 C   0  0  2  0  0  0  0  0  0  0  0  0
   25.4957  -20.6070  -13.8976 N   0  0  0  0  0  0  0  0  0  0  0  0
   23.2812  -20.8217  -12.9646 C   0  0  0  0  0  0  0  0  0  0  0  0
   23.1201  -19.5489  -13.0838 O   0  0  0  0  0  0  0  0  0  0  0  0
   19.0157  -24.4552  -15.4710 N   0  0  0  0  0  0  0  0  0  0  0  0
   18.7690  -24.3021  -14.0996 C   0  0  0  0  0  0  0  0  0  0  0  0
   18.0391  -25.1196  -13.4993 O   0  0  0  0  0  0  0  0  0  0  0  0
   19.3743  -23.1620  -13.3390 C   0  0  0  0  0  0  0  0  0  0  0  0
   20.2109  -22.3220  -14.2731 C   0  0  0  0  0  0  0  0  0  0  0  0
   20.8642  -21.1478  -13.6084 C   0  0  2  0  0  0  0  0  0  0  0  0
   22.0775  -21.5547  -12.8849 N   0  0  0  0  0  0  0  0  0  0  0  0
   19.9742  -20.3613  -12.7323 C   0  0  0  0  0  0  0  0  0  0  0  0
   18.9159  -19.5820  -13.1627 O   0  0  0  0  0  0  0  0  0  0  0  0
   20.1820  -20.3905  -11.4934 O   0  0  0  0  0  0  0  0  0  0  0  0
  2  1  1  6
  2 10  1  0
  3  2  1  0
  4  3  1  0
  4  9  2  0
  5  4  1  0
  6  5  2  0
  6  7  1  0
  7  8  2  0
  8  9  1  0
 10 11  2  0
 13 12  1  6
 13 15  1  0
 14 13  1  0
 15 16  1  6
 16 10  1  0
 17 18  2  0
 17 15  1  0
 19 20  1  0
 20 22  1  0
 20 21  2  0
 22 23  1  0
 24 23  1  1
 24 25  1  0
 24 26  1  0
 25 17  1  0
 26 27  1  0
 28 26  2  0
M  END
$$$$
