FTQ.pdb
     RDKit          3D

 28 28  0  0  1  0  0  0  0  0999 V2000
   13.7116   -9.9844  -10.5394 N   0  0  0  0  0  0  0  0  0  0  0  0
   15.1355   -9.6822  -10.5401 C   0  0  1  0  0  0  0  0  0  0  0  0
   15.7580  -10.4570  -11.6975 C   0  0  0  0  0  0  0  0  0  0  0  0
   15.6096  -11.9084  -11.5762 C   0  0  0  0  0  0  0  0  0  0  0  0
   16.4882  -12.6201  -10.7932 C   0  0  0  0  0  0  0  0  0  0  0  0
   16.4094  -13.9794  -10.6333 C   0  0  0  0  0  0  0  0  0  0  0  0
   15.4110  -14.6806  -11.2788 C   0  0  0  0  0  0  0  0  0  0  0  0
   14.5376  -13.9584  -12.0596 C   0  0  0  0  0  0  0  0  0  0  0  0
   14.6095  -12.5909  -12.2264 C   0  0  0  0  0  0  0  0  0  0  0  0
   15.3985   -8.2489  -10.7213 C   0  0  0  0  0  0  0  0  0  0  0  0
   14.6817   -7.4950  -11.4447 O   0  0  0  0  0  0  0  0  0  0  0  0
   15.1443   -5.5507   -8.5375 C   0  0  0  0  0  0  0  0  0  0  0  0
   16.5828   -5.4752   -8.9779 C   0  0  1  0  0  0  0  0  0  0  0  0
   17.3172   -6.0435   -7.9182 O   0  0  0  0  0  0  0  0  0  0  0  0
   16.8555   -6.2292  -10.2634 C   0  0  2  0  0  0  0  0  0  0  0  0
   16.4975   -7.6498  -10.0714 N   0  0  0  0  0  0  0  0  0  0  0  0
   18.2172   -6.1135  -10.7807 C   0  0  0  0  0  0  0  0  0  0  0  0
   19.0562   -7.0428  -10.4765 O   0  0  0  0  0  0  0  0  0  0  0  0
   20.3577   -8.9331  -14.2744 N   0  0  0  0  0  0  0  0  0  0  0  0
   21.4461   -8.0613  -14.4174 C   0  0  0  0  0  0  0  0  0  0  0  0
   22.4480   -8.4129  -15.0761 O   0  0  0  0  0  0  0  0  0  0  0  0
   21.4226   -6.7030  -13.7855 C   0  0  0  0  0  0  0  0  0  0  0  0
   20.1419   -6.5333  -13.0051 C   0  0  0  0  0  0  0  0  0  0  0  0
   20.0497   -5.2291  -12.2716 C   0  0  2  0  0  0  0  0  0  0  0  0
   18.7521   -5.0916  -11.5944 N   0  0  0  0  0  0  0  0  0  0  0  0
   20.3372   -4.0376  -13.0936 C   0  0  0  0  0  0  0  0  0  0  0  0
   21.6003   -3.5583  -13.3895 O   0  0  0  0  0  0  0  0  0  0  0  0
   19.3678   -3.3953  -13.5693 O   0  0  0  0  0  0  0  0  0  0  0  0
  2  1  1  6
  2 10  1  0
  3  2  1  0
  4  3  1  0
  4  9  2  0
  5  4  1  0
  6  5  2  0
  6  7  1  0
  7  8  2  0
  8  9  1  0
 10 11  2  0
 13 12  1  1
 13 15  1  0
 14 13  1  0
 15 16  1  1
 16 10  1  0
 17 18  2  0
 17 15  1  0
 19 20  1  0
 20 22  1  0
 20 21  2  0
 22 23  1  0
 24 23  1  6
 24 25  1  0
 24 26  1  0
 25 17  1  0
 26 27  1  0
 28 26  2  0
M  END
$$$$
