FTQ.pdb
     RDKit          3D

 28 28  0  0  1  0  0  0  0  0999 V2000
   26.4599  -13.0796  -19.6270 N   0  0  0  0  0  0  0  0  0  0  0  0
   25.7574  -12.4574  -18.5144 C   0  0  1  0  0  0  0  0  0  0  0  0
   26.7430  -12.3716  -17.3531 C   0  0  0  0  0  0  0  0  0  0  0  0
   27.0407  -13.6683  -16.7421 C   0  0  0  0  0  0  0  0  0  0  0  0
   26.3574  -14.0640  -15.6160 C   0  0  0  0  0  0  0  0  0  0  0  0
   26.5832  -15.2633  -14.9916 C   0  0  0  0  0  0  0  0  0  0  0  0
   27.5342  -16.1240  -15.5015 C   0  0  0  0  0  0  0  0  0  0  0  0
   28.2118  -15.7179  -16.6285 C   0  0  0  0  0  0  0  0  0  0  0  0
   27.9914  -14.5131  -17.2631 C   0  0  0  0  0  0  0  0  0  0  0  0
   25.2806  -11.1081  -18.8440 C   0  0  0  0  0  0  0  0  0  0  0  0
   25.8572  -10.3501  -19.6796 O   0  0  0  0  0  0  0  0  0  0  0  0
   24.4742   -9.5925  -20.9310 C   0  0  0  0  0  0  0  0  0  0  0  0
   23.2322   -9.3585  -20.1114 C   0  0  1  0  0  0  0  0  0  0  0  0
   22.3802  -10.4352  -20.4279 O   0  0  0  0  0  0  0  0  0  0  0  0
   23.4969   -9.3249  -18.6201 C   0  0  2  0  0  0  0  0  0  0  0  0
   24.1248  -10.5997  -18.2156 N   0  0  0  0  0  0  0  0  0  0  0  0
   22.3323   -9.0437  -17.7834 C   0  0  0  0  0  0  0  0  0  0  0  0
   21.6317  -10.0444  -17.3734 O   0  0  0  0  0  0  0  0  0  0  0  0
   20.9468   -4.4787  -13.7247 N   0  0  0  0  0  0  0  0  0  0  0  0
   22.0452   -5.3481  -13.7758 C   0  0  0  0  0  0  0  0  0  0  0  0
   23.0229   -5.1675  -13.0190 O   0  0  0  0  0  0  0  0  0  0  0  0
   22.0614   -6.4999  -14.7339 C   0  0  0  0  0  0  0  0  0  0  0  0
   20.8036   -6.4783  -15.5678 C   0  0  0  0  0  0  0  0  0  0  0  0
   20.6720   -7.6504  -16.4932 C   0  0  2  0  0  0  0  0  0  0  0  0
   21.8590   -7.7866  -17.3496 N   0  0  0  0  0  0  0  0  0  0  0  0
   19.4398   -7.6595  -17.3054 C   0  0  0  0  0  0  0  0  0  0  0  0
   18.1712   -7.9335  -16.8276 O   0  0  0  0  0  0  0  0  0  0  0  0
   19.5338   -7.4008  -18.5313 O   0  0  0  0  0  0  0  0  0  0  0  0
  2  1  1  6
  2 10  1  0
  3  2  1  0
  4  3  1  0
  4  9  2  0
  5  4  1  0
  6  5  2  0
  6  7  1  0
  7  8  2  0
  8  9  1  0
 10 11  2  0
 13 12  1  6
 13 15  1  0
 14 13  1  0
 15 16  1  1
 16 10  1  0
 17 18  2  0
 17 15  1  0
 19 20  1  0
 20 22  1  0
 20 21  2  0
 22 23  1  0
 24 23  1  6
 24 25  1  0
 24 26  1  0
 25 17  1  0
 26 27  1  0
 28 26  2  0
M  END
$$$$
