FTQ.pdb
     RDKit          3D

 28 28  0  0  1  0  0  0  0  0999 V2000
   23.8470  -33.6792   -9.3613 N   0  0  0  0  0  0  0  0  0  0  0  0
   24.5396  -33.1810   -8.1820 C   0  0  1  0  0  0  0  0  0  0  0  0
   23.5459  -32.3196   -7.4086 C   0  0  0  0  0  0  0  0  0  0  0  0
   22.9768  -31.2287   -8.2020 C   0  0  0  0  0  0  0  0  0  0  0  0
   23.7505  -30.1339   -8.5090 C   0  0  0  0  0  0  0  0  0  0  0  0
   23.2845  -29.0768   -9.2472 C   0  0  0  0  0  0  0  0  0  0  0  0
   21.9845  -29.0952   -9.7108 C   0  0  0  0  0  0  0  0  0  0  0  0
   21.2195  -30.1955   -9.3976 C   0  0  0  0  0  0  0  0  0  0  0  0
   21.6799  -31.2633   -8.6554 C   0  0  0  0  0  0  0  0  0  0  0  0
   25.0129  -34.2683   -7.3158 C   0  0  0  0  0  0  0  0  0  0  0  0
   24.5213  -35.4360   -7.3315 O   0  0  0  0  0  0  0  0  0  0  0  0
   28.4659  -35.3807   -7.3785 C   0  0  0  0  0  0  0  0  0  0  0  0
   28.1668  -35.1654   -5.9179 C   0  0  1  0  0  0  0  0  0  0  0  0
   28.7691  -33.9314   -5.6021 O   0  0  0  0  0  0  0  0  0  0  0  0
   26.6839  -35.1144   -5.6118 C   0  0  2  0  0  0  0  0  0  0  0  0
   26.0667  -34.0338   -6.4082 N   0  0  0  0  0  0  0  0  0  0  0  0
   26.3406  -34.9649   -4.1994 C   0  0  0  0  0  0  0  0  0  0  0  0
   25.9215  -33.8131   -3.8019 O   0  0  0  0  0  0  0  0  0  0  0  0
   22.5483  -35.2611   -0.7115 N   0  0  0  0  0  0  0  0  0  0  0  0
   23.3336  -35.6650    0.3772 C   0  0  0  0  0  0  0  0  0  0  0  0
   22.9539  -35.4312    1.5444 O   0  0  0  0  0  0  0  0  0  0  0  0
   24.6322  -36.3791    0.1567 C   0  0  0  0  0  0  0  0  0  0  0  0
   24.9046  -36.4819   -1.3242 C   0  0  0  0  0  0  0  0  0  0  0  0
   26.0575  -35.6424   -1.7862 C   0  0  2  0  0  0  0  0  0  0  0  0
   26.4063  -35.9417   -3.1825 N   0  0  0  0  0  0  0  0  0  0  0  0
   27.2538  -35.7098   -0.9245 C   0  0  0  0  0  0  0  0  0  0  0  0
   27.4439  -34.9807    0.2353 O   0  0  0  0  0  0  0  0  0  0  0  0
   28.1837  -36.4862   -1.2578 O   0  0  0  0  0  0  0  0  0  0  0  0
  2  1  1  6
  2 10  1  0
  3  2  1  0
  4  3  1  0
  4  9  2  0
  5  4  1  0
  6  5  2  0
  6  7  1  0
  7  8  2  0
  8  9  1  0
 10 11  2  0
 13 12  1  6
 13 15  1  0
 14 13  1  0
 15 16  1  6
 16 10  1  0
 17 18  2  0
 17 15  1  0
 19 20  1  0
 20 22  1  0
 20 21  2  0
 22 23  1  0
 24 23  1  1
 24 25  1  0
 24 26  1  0
 25 17  1  0
 26 27  1  0
 28 26  2  0
M  END
$$$$
