FTQ.pdb
     RDKit          3D

 28 28  0  0  1  0  0  0  0  0999 V2000
   14.4320  -12.0299  -11.9923 N   0  0  0  0  0  0  0  0  0  0  0  0
   14.1844  -10.6704  -11.5349 C   0  0  1  0  0  0  0  0  0  0  0  0
   14.0239  -10.7294  -10.0189 C   0  0  0  0  0  0  0  0  0  0  0  0
   12.6358  -10.8948   -9.5841 C   0  0  0  0  0  0  0  0  0  0  0  0
   12.0843  -12.1536   -9.5293 C   0  0  0  0  0  0  0  0  0  0  0  0
   10.7926  -12.3834   -9.1317 C   0  0  0  0  0  0  0  0  0  0  0  0
    9.9962  -11.3166   -8.7669 C   0  0  0  0  0  0  0  0  0  0  0  0
   10.5583  -10.0618   -8.8255 C   0  0  0  0  0  0  0  0  0  0  0  0
   11.8567   -9.8213   -9.2245 C   0  0  0  0  0  0  0  0  0  0  0  0
   15.2894   -9.7627  -11.8688 C   0  0  0  0  0  0  0  0  0  0  0  0
   16.4858   -9.9557  -11.4988 O   0  0  0  0  0  0  0  0  0  0  0  0
   16.6582   -9.0752  -15.0626 C   0  0  0  0  0  0  0  0  0  0  0  0
   16.2678   -7.7160  -14.5438 C   0  0  1  0  0  0  0  0  0  0  0  0
   15.0366   -7.4296  -15.1662 O   0  0  0  0  0  0  0  0  0  0  0  0
   16.1121   -7.6725  -13.0374 C   0  0  2  0  0  0  0  0  0  0  0  0
   15.0400   -8.6077  -12.6388 N   0  0  0  0  0  0  0  0  0  0  0  0
   15.8680   -6.3478  -12.4709 C   0  0  0  0  0  0  0  0  0  0  0  0
   14.7896   -6.1766  -11.7868 O   0  0  0  0  0  0  0  0  0  0  0  0
   15.7754   -4.4133   -7.7745 N   0  0  0  0  0  0  0  0  0  0  0  0
   15.6974   -3.0995   -8.2570 C   0  0  0  0  0  0  0  0  0  0  0  0
   15.5152   -2.1509   -7.4644 O   0  0  0  0  0  0  0  0  0  0  0  0
   15.8310   -2.8166   -9.7222 C   0  0  0  0  0  0  0  0  0  0  0  0
   16.0807   -4.1076  -10.4631 C   0  0  0  0  0  0  0  0  0  0  0  0
   16.3181   -3.9250  -11.9321 C   0  0  2  0  0  0  0  0  0  0  0  0
   16.6796   -5.1974  -12.5735 N   0  0  0  0  0  0  0  0  0  0  0  0
   17.2960   -2.8735  -12.2727 C   0  0  0  0  0  0  0  0  0  0  0  0
   18.4606   -3.0698  -12.9923 O   0  0  0  0  0  0  0  0  0  0  0  0
   17.0676   -1.7006  -11.8842 O   0  0  0  0  0  0  0  0  0  0  0  0
  2  1  1  1
  2 10  1  0
  3  2  1  0
  4  3  1  0
  4  9  2  0
  5  4  1  0
  6  5  2  0
  6  7  1  0
  7  8  2  0
  8  9  1  0
 10 11  2  0
 13 12  1  1
 13 15  1  0
 14 13  1  0
 15 16  1  6
 16 10  1  0
 17 18  2  0
 17 15  1  0
 19 20  1  0
 20 22  1  0
 20 21  2  0
 22 23  1  0
 24 23  1  1
 24 25  1  0
 24 26  1  0
 25 17  1  0
 26 27  1  0
 28 26  2  0
M  END
$$$$
