FTQ.pdb
     RDKit          3D

 28 28  0  0  1  0  0  0  0  0999 V2000
   16.2672  -10.2413  -12.7234 N   0  0  0  0  0  0  0  0  0  0  0  0
   15.6530   -9.3195  -11.7791 C   0  0  1  0  0  0  0  0  0  0  0  0
   15.5562  -10.0462  -10.4412 C   0  0  0  0  0  0  0  0  0  0  0  0
   14.4113  -10.9541  -10.3506 C   0  0  0  0  0  0  0  0  0  0  0  0
   14.5777  -12.2905  -10.6295 C   0  0  0  0  0  0  0  0  0  0  0  0
   13.5518  -13.1975  -10.5648 C   0  0  0  0  0  0  0  0  0  0  0  0
   12.2900  -12.7684  -10.2057 C   0  0  0  0  0  0  0  0  0  0  0  0
   12.1350  -11.4292   -9.9289 C   0  0  0  0  0  0  0  0  0  0  0  0
   13.1613  -10.5097   -9.9917 C   0  0  0  0  0  0  0  0  0  0  0  0
   16.4428   -8.0935  -11.6070 C   0  0  0  0  0  0  0  0  0  0  0  0
   17.7011   -8.0495  -11.7487 O   0  0  0  0  0  0  0  0  0  0  0  0
   18.2298   -6.3234  -12.8853 C   0  0  0  0  0  0  0  0  0  0  0  0
   17.1773   -5.3124  -12.5120 C   0  0  1  0  0  0  0  0  0  0  0  0
   16.2243   -5.3812  -13.5475 O   0  0  0  0  0  0  0  0  0  0  0  0
   16.5185   -5.5991  -11.1781 C   0  0  2  0  0  0  0  0  0  0  0  0
   15.7984   -6.8862  -11.2657 N   0  0  0  0  0  0  0  0  0  0  0  0
   15.6292   -4.5517  -10.6808 C   0  0  0  0  0  0  0  0  0  0  0  0
   14.3777   -4.8335  -10.5606 O   0  0  0  0  0  0  0  0  0  0  0  0
   13.5900   -4.2003   -6.0701 N   0  0  0  0  0  0  0  0  0  0  0  0
   13.0872   -2.9213   -6.3461 C   0  0  0  0  0  0  0  0  0  0  0  0
   12.2584   -2.3939   -5.5739 O   0  0  0  0  0  0  0  0  0  0  0  0
   13.5347   -2.1732   -7.5646 C   0  0  0  0  0  0  0  0  0  0  0  0
   14.4769   -3.0368   -8.3674 C   0  0  0  0  0  0  0  0  0  0  0  0
   15.0256   -2.3602   -9.5874 C   0  0  2  0  0  0  0  0  0  0  0  0
   15.9672   -3.2348  -10.3013 N   0  0  0  0  0  0  0  0  0  0  0  0
   15.6296   -1.0366   -9.3393 C   0  0  0  0  0  0  0  0  0  0  0  0
   14.9258    0.1280   -9.0923 O   0  0  0  0  0  0  0  0  0  0  0  0
   16.8826   -0.9431   -9.3512 O   0  0  0  0  0  0  0  0  0  0  0  0
  2  1  1  6
  2 10  1  0
  3  2  1  0
  4  3  1  0
  4  9  2  0
  5  4  1  0
  6  5  2  0
  6  7  1  0
  7  8  2  0
  8  9  1  0
 10 11  2  0
 13 12  1  6
 13 15  1  0
 14 13  1  0
 15 16  1  6
 16 10  1  0
 17 18  2  0
 17 15  1  0
 19 20  1  0
 20 22  1  0
 20 21  2  0
 22 23  1  0
 24 23  1  1
 24 25  1  0
 24 26  1  0
 25 17  1  0
 26 27  1  0
 28 26  2  0
M  END
$$$$
