FTQ.pdb
     RDKit          3D

 28 28  0  0  1  0  0  0  0  0999 V2000
   23.1871  -14.0838  -17.7408 N   0  0  0  0  0  0  0  0  0  0  0  0
   23.3959  -13.1109  -16.6785 C   0  0  1  0  0  0  0  0  0  0  0  0
   24.9033  -12.9453  -16.5116 C   0  0  0  0  0  0  0  0  0  0  0  0
   25.6010  -14.2002  -16.2253 C   0  0  0  0  0  0  0  0  0  0  0  0
   26.3253  -14.8188  -17.2173 C   0  0  0  0  0  0  0  0  0  0  0  0
   27.0033  -15.9940  -17.0210 C   0  0  0  0  0  0  0  0  0  0  0  0
   26.9687  -16.5968  -15.7797 C   0  0  0  0  0  0  0  0  0  0  0  0
   26.2409  -15.9691  -14.7947 C   0  0  0  0  0  0  0  0  0  0  0  0
   25.5555  -14.7869  -14.9833 C   0  0  0  0  0  0  0  0  0  0  0  0
   22.7988  -11.8071  -16.9949 C   0  0  0  0  0  0  0  0  0  0  0  0
   22.7102  -11.3487  -18.1728 O   0  0  0  0  0  0  0  0  0  0  0  0
   19.4749  -11.2526  -16.6711 C   0  0  0  0  0  0  0  0  0  0  0  0
   20.0310  -10.0887  -15.8932 C   0  0  1  0  0  0  0  0  0  0  0  0
   19.9046  -10.4624  -14.5406 O   0  0  0  0  0  0  0  0  0  0  0  0
   21.4804   -9.7899  -16.2176 C   0  0  2  0  0  0  0  0  0  0  0  0
   22.2891  -10.9988  -15.9576 N   0  0  0  0  0  0  0  0  0  0  0  0
   22.0524   -8.6370  -15.5255 C   0  0  0  0  0  0  0  0  0  0  0  0
   22.7514   -8.8586  -14.4660 O   0  0  0  0  0  0  0  0  0  0  0  0
   20.5319   -2.3265  -17.2832 N   0  0  0  0  0  0  0  0  0  0  0  0
   21.5285   -3.0188  -16.5814 C   0  0  0  0  0  0  0  0  0  0  0  0
   22.3337   -2.3947  -15.8580 O   0  0  0  0  0  0  0  0  0  0  0  0
   21.6407   -4.5090  -16.6887 C   0  0  0  0  0  0  0  0  0  0  0  0
   22.8151   -4.9854  -15.8691 C   0  0  0  0  0  0  0  0  0  0  0  0
   22.5238   -6.2054  -15.0481 C   0  0  2  0  0  0  0  0  0  0  0  0
   21.9405   -7.2734  -15.8729 N   0  0  0  0  0  0  0  0  0  0  0  0
   21.6955   -5.9601  -13.8515 C   0  0  0  0  0  0  0  0  0  0  0  0
   20.4262   -6.4676  -13.6419 O   0  0  0  0  0  0  0  0  0  0  0  0
   22.1663   -5.2329  -12.9413 O   0  0  0  0  0  0  0  0  0  0  0  0
  2  1  1  6
  2 10  1  0
  3  2  1  0
  4  3  1  0
  4  9  2  0
  5  4  1  0
  6  5  2  0
  6  7  1  0
  7  8  2  0
  8  9  1  0
 10 11  2  0
 13 12  1  6
 13 15  1  0
 14 13  1  0
 15 16  1  1
 16 10  1  0
 17 18  2  0
 17 15  1  0
 19 20  1  0
 20 22  1  0
 20 21  2  0
 22 23  1  0
 24 23  1  6
 24 25  1  0
 24 26  1  0
 25 17  1  0
 26 27  1  0
 28 26  2  0
M  END
$$$$
