FTQ.pdb
     RDKit          3D

 28 28  0  0  1  0  0  0  0  0999 V2000
   28.5204  -19.5615  -15.3188 N   0  0  0  0  0  0  0  0  0  0  0  0
   27.3073  -19.1309  -14.6392 C   0  0  1  0  0  0  0  0  0  0  0  0
   26.4365  -18.4295  -15.6771 C   0  0  0  0  0  0  0  0  0  0  0  0
   26.9797  -17.1457  -16.1244 C   0  0  0  0  0  0  0  0  0  0  0  0
   27.4220  -17.0070  -17.4193 C   0  0  0  0  0  0  0  0  0  0  0  0
   27.9415  -15.8357  -17.9067 C   0  0  0  0  0  0  0  0  0  0  0  0
   28.0321  -14.7373  -17.0757 C   0  0  0  0  0  0  0  0  0  0  0  0
   27.5867  -14.8874  -15.7823 C   0  0  0  0  0  0  0  0  0  0  0  0
   27.0629  -16.0620  -15.2833 C   0  0  0  0  0  0  0  0  0  0  0  0
   26.5621  -20.2589  -14.0661 C   0  0  0  0  0  0  0  0  0  0  0  0
   26.7366  -21.4623  -14.4223 O   0  0  0  0  0  0  0  0  0  0  0  0
   26.3959  -21.2522  -10.5672 C   0  0  0  0  0  0  0  0  0  0  0  0
   24.9554  -21.1214  -10.9878 C   0  0  1  0  0  0  0  0  0  0  0  0
   24.5256  -19.8984  -10.4357 O   0  0  0  0  0  0  0  0  0  0  0  0
   24.7699  -21.1076  -12.4914 C   0  0  2  0  0  0  0  0  0  0  0  0
   25.5949  -20.0252  -13.0665 N   0  0  0  0  0  0  0  0  0  0  0  0
   23.3876  -20.9923  -12.9510 C   0  0  0  0  0  0  0  0  0  0  0  0
   22.9969  -19.8489  -13.3985 O   0  0  0  0  0  0  0  0  0  0  0  0
   19.0159  -25.3019  -14.4186 N   0  0  0  0  0  0  0  0  0  0  0  0
   18.3015  -24.1155  -14.6356 C   0  0  0  0  0  0  0  0  0  0  0  0
   17.1244  -24.1604  -15.0524 O   0  0  0  0  0  0  0  0  0  0  0  0
   18.9367  -22.7844  -14.3718 C   0  0  0  0  0  0  0  0  0  0  0  0
   20.3534  -22.9890  -13.8932 C   0  0  0  0  0  0  0  0  0  0  0  0
   21.0243  -21.7291  -13.4350 C   0  0  2  0  0  0  0  0  0  0  0  0
   22.3944  -21.9950  -12.9731 N   0  0  0  0  0  0  0  0  0  0  0  0
   20.2723  -20.9635  -12.4218 C   0  0  0  0  0  0  0  0  0  0  0  0
   19.3222  -19.9966  -12.6953 O   0  0  0  0  0  0  0  0  0  0  0  0
   20.5029  -21.1961  -11.2087 O   0  0  0  0  0  0  0  0  0  0  0  0
  2  1  1  6
  2 10  1  0
  3  2  1  0
  4  3  1  0
  4  9  2  0
  5  4  1  0
  6  5  2  0
  6  7  1  0
  7  8  2  0
  8  9  1  0
 10 11  2  0
 13 12  1  6
 13 15  1  0
 14 13  1  0
 15 16  1  6
 16 10  1  0
 17 18  2  0
 17 15  1  0
 19 20  1  0
 20 22  1  0
 20 21  2  0
 22 23  1  0
 24 23  1  1
 24 25  1  0
 24 26  1  0
 25 17  1  0
 26 27  1  0
 28 26  2  0
M  END
$$$$
