FTQ.pdb
     RDKit          3D

 28 28  0  0  1  0  0  0  0  0999 V2000
   28.2774  -18.1831  -17.0669 N   0  0  0  0  0  0  0  0  0  0  0  0
   27.6858  -18.1430  -15.7375 C   0  0  1  0  0  0  0  0  0  0  0  0
   26.5135  -17.1686  -15.7973 C   0  0  0  0  0  0  0  0  0  0  0  0
   26.9039  -15.8063  -16.1647 C   0  0  0  0  0  0  0  0  0  0  0  0
   27.0234  -15.4662  -17.4920 C   0  0  0  0  0  0  0  0  0  0  0  0
   27.3841  -14.2111  -17.9090 C   0  0  0  0  0  0  0  0  0  0  0  0
   27.6423  -13.2334  -16.9695 C   0  0  0  0  0  0  0  0  0  0  0  0
   27.5196  -13.5847  -15.6445 C   0  0  0  0  0  0  0  0  0  0  0  0
   27.1576  -14.8449  -15.2160 C   0  0  0  0  0  0  0  0  0  0  0  0
   27.1982  -19.4597  -15.3072 C   0  0  0  0  0  0  0  0  0  0  0  0
   27.8726  -20.5257  -15.4266 O   0  0  0  0  0  0  0  0  0  0  0  0
   26.6857  -19.7532  -11.8862 C   0  0  0  0  0  0  0  0  0  0  0  0
   26.5602  -20.9358  -12.8108 C   0  0  1  0  0  0  0  0  0  0  0  0
   26.1871  -22.0096  -11.9784 O   0  0  0  0  0  0  0  0  0  0  0  0
   25.5254  -20.7371  -13.8995 C   0  0  2  0  0  0  0  0  0  0  0  0
   25.9176  -19.5785  -14.7282 N   0  0  0  0  0  0  0  0  0  0  0  0
   24.1482  -20.5869  -13.4348 C   0  0  0  0  0  0  0  0  0  0  0  0
   23.7550  -19.4086  -13.0926 O   0  0  0  0  0  0  0  0  0  0  0  0
   22.9156  -21.1122   -8.3832 N   0  0  0  0  0  0  0  0  0  0  0  0
   21.6083  -21.5191   -8.6843 C   0  0  0  0  0  0  0  0  0  0  0  0
   20.8018  -21.7679   -7.7630 O   0  0  0  0  0  0  0  0  0  0  0  0
   21.1630  -21.6603  -10.1079 C   0  0  0  0  0  0  0  0  0  0  0  0
   22.3067  -21.3131  -11.0295 C   0  0  0  0  0  0  0  0  0  0  0  0
   21.9580  -21.4014  -12.4849 C   0  0  2  0  0  0  0  0  0  0  0  0
   23.1612  -21.5881  -13.3086 N   0  0  0  0  0  0  0  0  0  0  0  0
   21.1472  -20.2782  -12.9940 C   0  0  0  0  0  0  0  0  0  0  0  0
   21.5374  -19.3982  -13.9870 O   0  0  0  0  0  0  0  0  0  0  0  0
   20.0092  -20.0922  -12.4949 O   0  0  0  0  0  0  0  0  0  0  0  0
  2  1  1  6
  2 10  1  0
  3  2  1  0
  4  3  1  0
  4  9  2  0
  5  4  1  0
  6  5  2  0
  6  7  1  0
  7  8  2  0
  8  9  1  0
 10 11  2  0
 13 12  1  1
 13 15  1  0
 14 13  1  0
 15 16  1  1
 16 10  1  0
 17 18  2  0
 17 15  1  0
 19 20  1  0
 20 22  1  0
 20 21  2  0
 22 23  1  0
 24 23  1  1
 24 25  1  0
 24 26  1  0
 25 17  1  0
 26 27  1  0
 28 26  2  0
M  END
$$$$
