FTQ.pdb
     RDKit          3D

 28 28  0  0  1  0  0  0  0  0999 V2000
   19.1966   -9.2051  -15.3859 N   0  0  0  0  0  0  0  0  0  0  0  0
   19.2995   -7.9027  -14.7440 C   0  0  1  0  0  0  0  0  0  0  0  0
   20.7615   -7.4751  -14.8286 C   0  0  0  0  0  0  0  0  0  0  0  0
   21.6813   -8.4043  -14.1698 C   0  0  0  0  0  0  0  0  0  0  0  0
   22.5745   -9.1286  -14.9241 C   0  0  0  0  0  0  0  0  0  0  0  0
   23.4643  -10.0156  -14.3756 C   0  0  0  0  0  0  0  0  0  0  0  0
   23.4784  -10.2025  -13.0081 C   0  0  0  0  0  0  0  0  0  0  0  0
   22.5804   -9.4727  -12.2631 C   0  0  0  0  0  0  0  0  0  0  0  0
   21.6816   -8.5784  -12.8065 C   0  0  0  0  0  0  0  0  0  0  0  0
   18.4618   -6.8920  -15.4020 C   0  0  0  0  0  0  0  0  0  0  0  0
   18.3000   -6.8309  -16.6573 O   0  0  0  0  0  0  0  0  0  0  0  0
   14.9192   -6.3951  -15.2411 C   0  0  0  0  0  0  0  0  0  0  0  0
   15.5063   -5.0898  -14.7715 C   0  0  1  0  0  0  0  0  0  0  0  0
   15.4495   -5.1512  -13.3651 O   0  0  0  0  0  0  0  0  0  0  0  0
   16.9361   -4.8788  -15.2262 C   0  0  2  0  0  0  0  0  0  0  0  0
   17.7895   -5.9249  -14.6261 N   0  0  0  0  0  0  0  0  0  0  0  0
   17.4901   -3.5538  -14.9562 C   0  0  0  0  0  0  0  0  0  0  0  0
   18.3421   -3.4434  -13.9960 O   0  0  0  0  0  0  0  0  0  0  0  0
   21.0513    0.8785  -16.7514 N   0  0  0  0  0  0  0  0  0  0  0  0
   19.8844    0.9578  -17.5241 C   0  0  0  0  0  0  0  0  0  0  0  0
   19.8456    1.7042  -18.5254 O   0  0  0  0  0  0  0  0  0  0  0  0
   18.6741    0.1524  -17.1615 C   0  0  0  0  0  0  0  0  0  0  0  0
   18.9610   -0.6551  -15.9190 C   0  0  0  0  0  0  0  0  0  0  0  0
   17.7313   -1.0511  -15.1585 C   0  0  2  0  0  0  0  0  0  0  0  0
   17.2107   -2.3436  -15.6270 N   0  0  0  0  0  0  0  0  0  0  0  0
   16.6621   -0.0339  -15.1420 C   0  0  0  0  0  0  0  0  0  0  0  0
   16.7896    1.2496  -14.6430 O   0  0  0  0  0  0  0  0  0  0  0  0
   15.5397   -0.3432  -15.6144 O   0  0  0  0  0  0  0  0  0  0  0  0
  2  1  1  6
  2 10  1  0
  3  2  1  0
  4  3  1  0
  4  9  2  0
  5  4  1  0
  6  5  2  0
  6  7  1  0
  7  8  2  0
  8  9  1  0
 10 11  2  0
 13 12  1  6
 13 15  1  0
 14 13  1  0
 15 16  1  1
 16 10  1  0
 17 18  2  0
 17 15  1  0
 19 20  1  0
 20 22  1  0
 20 21  2  0
 22 23  1  0
 24 23  1  6
 24 25  1  0
 24 26  1  0
 25 17  1  0
 26 27  1  0
 28 26  2  0
M  END
$$$$
