FTQ.pdb
     RDKit          3D

 28 28  0  0  1  0  0  0  0  0999 V2000
   27.5766  -21.9671  -10.3635 N   0  0  0  0  0  0  0  0  0  0  0  0
   26.5560  -20.9528  -10.5834 C   0  0  1  0  0  0  0  0  0  0  0  0
   27.0969  -19.6425  -10.0196 C   0  0  0  0  0  0  0  0  0  0  0  0
   27.2685  -19.6584   -8.5658 C   0  0  0  0  0  0  0  0  0  0  0  0
   26.3413  -20.2986   -7.7771 C   0  0  0  0  0  0  0  0  0  0  0  0
   26.4379  -20.3540   -6.4108 C   0  0  0  0  0  0  0  0  0  0  0  0
   27.5060  -19.7464   -5.7821 C   0  0  0  0  0  0  0  0  0  0  0  0
   28.4276  -19.1088   -6.5809 C   0  0  0  0  0  0  0  0  0  0  0  0
   28.3382  -19.0478   -7.9561 C   0  0  0  0  0  0  0  0  0  0  0  0
   26.2483  -20.7752  -12.0083 C   0  0  0  0  0  0  0  0  0  0  0  0
   27.0422  -21.1050  -12.9390 O   0  0  0  0  0  0  0  0  0  0  0  0
   23.4775  -22.5474  -13.2849 C   0  0  0  0  0  0  0  0  0  0  0  0
   24.3961  -21.7524  -14.1755 C   0  0  1  0  0  0  0  0  0  0  0  0
   23.8378  -21.8632  -15.4644 O   0  0  0  0  0  0  0  0  0  0  0  0
   24.5016  -20.2944  -13.7774 C   0  0  2  0  0  0  0  0  0  0  0  0
   25.0147  -20.2109  -12.3944 N   0  0  0  0  0  0  0  0  0  0  0  0
   23.2709  -19.5179  -13.9109 C   0  0  0  0  0  0  0  0  0  0  0  0
   22.4413  -19.5331  -12.9252 O   0  0  0  0  0  0  0  0  0  0  0  0
   21.4797  -15.1612  -18.1460 N   0  0  0  0  0  0  0  0  0  0  0  0
   20.3753  -15.1667  -17.2827 C   0  0  0  0  0  0  0  0  0  0  0  0
   19.4359  -14.3626  -17.4621 O   0  0  0  0  0  0  0  0  0  0  0  0
   20.3069  -16.1323  -16.1391 C   0  0  0  0  0  0  0  0  0  0  0  0
   21.5484  -16.9905  -16.1303 C   0  0  0  0  0  0  0  0  0  0  0  0
   21.6058  -17.9583  -14.9869 C   0  0  2  0  0  0  0  0  0  0  0  0
   22.8577  -18.7288  -15.0059 N   0  0  0  0  0  0  0  0  0  0  0  0
   20.4414  -18.8589  -14.8822 C   0  0  0  0  0  0  0  0  0  0  0  0
   19.3618  -18.6726  -14.0381 O   0  0  0  0  0  0  0  0  0  0  0  0
   20.4136  -19.8822  -15.6109 O   0  0  0  0  0  0  0  0  0  0  0  0
  2  1  1  6
  2 10  1  0
  3  2  1  0
  4  3  1  0
  4  9  2  0
  5  4  1  0
  6  5  2  0
  6  7  1  0
  7  8  2  0
  8  9  1  0
 10 11  2  0
 13 12  1  1
 13 15  1  0
 14 13  1  0
 15 16  1  1
 16 10  1  0
 17 18  2  0
 17 15  1  0
 19 20  1  0
 20 22  1  0
 20 21  2  0
 22 23  1  0
 24 23  1  6
 24 25  1  0
 24 26  1  0
 25 17  1  0
 26 27  1  0
 28 26  2  0
M  END
$$$$
