INK.pdb
     RDKit          3D

 26 25  0  0  1  0  0  0  0  0999 V2000
   28.6131  -19.3187  -20.0604 C   0  0  0  0  0  0  0  0  0  0  0  0
   28.6248  -18.6860  -18.7122 C   0  0  0  0  0  0  0  0  0  0  0  0
   28.2134  -19.6139  -17.5914 C   0  0  2  0  0  0  0  0  0  0  0  0
   26.8988  -20.2879  -17.8263 C   0  0  0  0  0  0  0  0  0  0  0  0
   28.2014  -18.7996  -16.2790 C   0  0  2  0  0  0  0  0  0  0  0  0
   29.4826  -18.1902  -16.0632 N   0  0  0  0  0  0  0  0  0  0  0  0
   27.8867  -19.7651  -15.1864 C   0  0  0  0  0  0  0  0  0  0  0  0
   26.9228  -20.5455  -15.2195 O   0  0  0  0  0  0  0  0  0  0  0  0
   31.9812  -21.3000  -11.7840 N   0  0  0  0  0  0  0  0  0  0  0  0
   30.6865  -21.4159  -12.3509 C   0  0  0  0  0  0  0  0  0  0  0  0
   30.5386  -22.2628  -13.2778 O   0  0  0  0  0  0  0  0  0  0  0  0
   29.5594  -20.5768  -11.8730 C   0  0  0  0  0  0  0  0  0  0  0  0
   28.4296  -20.5332  -12.8702 C   0  0  2  0  0  0  0  0  0  0  0  0
   28.7270  -19.7999  -14.0489 N   0  0  0  0  0  0  0  0  0  0  0  0
   27.2332  -20.0178  -12.1456 C   0  0  0  0  0  0  0  0  0  0  0  0
   26.9817  -18.7818  -12.1955 O   0  0  0  0  0  0  0  0  0  0  0  0
   26.4699  -20.9793  -11.4534 N   0  0  0  0  0  0  0  0  0  0  0  0
   25.1938  -20.5482  -10.7904 C   0  0  1  0  0  0  0  0  0  0  0  0
   24.1547  -20.8483  -11.7801 C   0  0  0  0  0  0  0  0  0  0  0  0
   22.7588  -20.4406  -11.6815 C   0  0  0  0  0  0  0  0  0  0  0  0
   21.8300  -20.7895  -12.7820 C   0  0  0  0  0  0  0  0  0  0  0  0
   20.4260  -20.1961  -12.4645 C   0  0  0  0  0  0  0  0  0  0  0  0
   19.5306  -20.5773  -13.5190 N   0  0  0  0  0  0  0  0  0  0  0  0
   25.2452  -21.1486   -9.4755 C   0  0  0  0  0  0  0  0  0  0  0  0
   25.8919  -22.1813   -9.1354 O   0  0  0  0  0  0  0  0  0  0  0  0
   24.5263  -20.6005   -8.3771 O   0  0  0  0  0  0  0  0  0  0  0  0
  2  1  1  0
  3  2  1  0
  3  4  1  6
  5  3  1  0
  5  6  1  1
  7  5  1  0
  7  8  2  0
  9 10  1  0
 10 11  2  0
 12 10  1  0
 13 12  1  1
 13 14  1  0
 14  7  1  0
 15 13  1  0
 16 15  2  0
 17 15  1  0
 18 17  1  0
 18 24  1  0
 18 19  1  6
 20 19  1  0
 21 20  1  0
 22 21  1  0
 23 22  1  0
 24 26  1  0
 25 24  2  0
M  END
$$$$
