INK.pdb
     RDKit          3D

 26 25  0  0  1  0  0  0  0  0999 V2000
   18.5221  -20.3522  -16.5432 C   0  0  0  0  0  0  0  0  0  0  0  0
   19.9361  -20.4611  -16.0887 C   0  0  0  0  0  0  0  0  0  0  0  0
   20.6377  -19.1310  -15.9303 C   0  0  2  0  0  0  0  0  0  0  0  0
   20.6505  -18.3101  -17.1807 C   0  0  0  0  0  0  0  0  0  0  0  0
   22.0705  -19.4057  -15.4232 C   0  0  2  0  0  0  0  0  0  0  0  0
   22.0281  -20.1837  -14.2180 N   0  0  0  0  0  0  0  0  0  0  0  0
   22.6904  -18.0731  -15.1683 C   0  0  0  0  0  0  0  0  0  0  0  0
   22.1977  -17.2228  -14.4111 O   0  0  0  0  0  0  0  0  0  0  0  0
   26.5271  -14.4430  -14.3197 N   0  0  0  0  0  0  0  0  0  0  0  0
   26.6060  -15.1594  -15.5410 C   0  0  0  0  0  0  0  0  0  0  0  0
   27.1942  -14.5900  -16.5044 O   0  0  0  0  0  0  0  0  0  0  0  0
   26.0215  -16.5169  -15.6758 C   0  0  0  0  0  0  0  0  0  0  0  0
   24.5172  -16.4744  -15.7655 C   0  0  2  0  0  0  0  0  0  0  0  0
   23.9049  -17.7540  -15.8199 N   0  0  0  0  0  0  0  0  0  0  0  0
   24.1780  -15.6122  -16.9332 C   0  0  0  0  0  0  0  0  0  0  0  0
   24.1526  -16.1333  -18.0827 O   0  0  0  0  0  0  0  0  0  0  0  0
   23.9081  -14.2597  -16.6435 N   0  0  0  0  0  0  0  0  0  0  0  0
   23.4142  -13.3690  -17.7466 C   0  0  1  0  0  0  0  0  0  0  0  0
   22.2916  -12.6417  -17.1464 C   0  0  0  0  0  0  0  0  0  0  0  0
   21.2697  -11.9144  -17.8890 C   0  0  0  0  0  0  0  0  0  0  0  0
   20.1367  -11.3119  -17.1481 C   0  0  0  0  0  0  0  0  0  0  0  0
   19.0733  -10.8137  -18.1704 C   0  0  0  0  0  0  0  0  0  0  0  0
   18.0894  -10.0513  -17.4563 N   0  0  0  0  0  0  0  0  0  0  0  0
   24.6050  -12.7254  -18.2563 C   0  0  0  0  0  0  0  0  0  0  0  0
   25.7658  -12.7664  -17.7552 O   0  0  0  0  0  0  0  0  0  0  0  0
   24.5774  -11.9360  -19.4394 O   0  0  0  0  0  0  0  0  0  0  0  0
  2  1  1  0
  3  2  1  0
  3  4  1  6
  5  3  1  0
  5  6  1  1
  7  5  1  0
  7  8  2  0
  9 10  1  0
 10 11  2  0
 12 10  1  0
 13 12  1  6
 13 14  1  0
 14  7  1  0
 15 13  1  0
 16 15  2  0
 17 15  1  0
 18 17  1  0
 18 24  1  0
 18 19  1  1
 20 19  1  0
 21 20  1  0
 22 21  1  0
 23 22  1  0
 24 26  1  0
 25 24  2  0
M  END
$$$$
