INK.pdb
     RDKit          3D

 26 25  0  0  1  0  0  0  0  0999 V2000
   27.4112  -25.7696  -19.1586 C   0  0  0  0  0  0  0  0  0  0  0  0
   27.9147  -24.6080  -18.3743 C   0  0  0  0  0  0  0  0  0  0  0  0
   26.8259  -23.7002  -17.8479 C   0  0  2  0  0  0  0  0  0  0  0  0
   25.9347  -23.1541  -18.9180 C   0  0  0  0  0  0  0  0  0  0  0  0
   27.4988  -22.5663  -17.0435 C   0  0  2  0  0  0  0  0  0  0  0  0
   28.3091  -23.1171  -15.9949 N   0  0  0  0  0  0  0  0  0  0  0  0
   26.3947  -21.7388  -16.4766 C   0  0  0  0  0  0  0  0  0  0  0  0
   25.6941  -22.0974  -15.5175 O   0  0  0  0  0  0  0  0  0  0  0  0
   26.5642  -16.4733  -15.5804 N   0  0  0  0  0  0  0  0  0  0  0  0
   26.5683  -17.6222  -16.4115 C   0  0  0  0  0  0  0  0  0  0  0  0
   27.6883  -18.1622  -16.6402 O   0  0  0  0  0  0  0  0  0  0  0  0
   25.3101  -18.1617  -16.9847 C   0  0  0  0  0  0  0  0  0  0  0  0
   25.0968  -19.6065  -16.6109 C   0  0  2  0  0  0  0  0  0  0  0  0
   26.1259  -20.4769  -17.0566 N   0  0  0  0  0  0  0  0  0  0  0  0
   23.7470  -19.9886  -17.1148 C   0  0  0  0  0  0  0  0  0  0  0  0
   23.6388  -20.3979  -18.3041 O   0  0  0  0  0  0  0  0  0  0  0  0
   22.6859  -19.8572  -16.1967 N   0  0  0  0  0  0  0  0  0  0  0  0
   21.3145  -20.3092  -16.6076 C   0  0  1  0  0  0  0  0  0  0  0  0
   20.7831  -20.9764  -15.4152 C   0  0  0  0  0  0  0  0  0  0  0  0
   19.6278  -21.8648  -15.3953 C   0  0  0  0  0  0  0  0  0  0  0  0
   18.5936  -21.6737  -14.3514 C   0  0  0  0  0  0  0  0  0  0  0  0
   17.5288  -22.8020  -14.4836 C   0  0  0  0  0  0  0  0  0  0  0  0
   16.6835  -22.7568  -13.3249 N   0  0  0  0  0  0  0  0  0  0  0  0
   20.7101  -19.1403  -17.2080 C   0  0  0  0  0  0  0  0  0  0  0  0
   20.9548  -17.9304  -16.9317 O   0  0  0  0  0  0  0  0  0  0  0  0
   19.7218  -19.2514  -18.2252 O   0  0  0  0  0  0  0  0  0  0  0  0
  2  1  1  0
  3  2  1  0
  3  4  1  6
  5  3  1  0
  5  6  1  1
  7  5  1  0
  7  8  2  0
  9 10  1  0
 10 11  2  0
 12 10  1  0
 13 12  1  6
 13 14  1  0
 14  7  1  0
 15 13  1  0
 16 15  2  0
 17 15  1  0
 18 17  1  0
 18 24  1  0
 18 19  1  1
 20 19  1  0
 21 20  1  0
 22 21  1  0
 23 22  1  0
 24 26  1  0
 25 24  2  0
M  END
$$$$
