INK.pdb
     RDKit          3D

 26 25  0  0  1  0  0  0  0  0999 V2000
   18.9399  -16.6011  -20.6180 C   0  0  0  0  0  0  0  0  0  0  0  0
   19.6427  -15.5556  -19.8237 C   0  0  0  0  0  0  0  0  0  0  0  0
   18.9939  -14.1912  -19.8881 C   0  0  2  0  0  0  0  0  0  0  0  0
   18.8262  -13.6750  -21.2820 C   0  0  0  0  0  0  0  0  0  0  0  0
   19.8345  -13.2229  -19.0271 C   0  0  2  0  0  0  0  0  0  0  0  0
   19.9117  -13.7019  -17.6765 N   0  0  0  0  0  0  0  0  0  0  0  0
   19.1419  -11.9028  -19.0790 C   0  0  0  0  0  0  0  0  0  0  0  0
   19.0080  -11.2408  -20.1197 O   0  0  0  0  0  0  0  0  0  0  0  0
   15.4465  -10.9300  -18.8664 N   0  0  0  0  0  0  0  0  0  0  0  0
   15.4949  -10.6197  -17.4836 C   0  0  0  0  0  0  0  0  0  0  0  0
   14.4262  -10.7654  -16.8240 O   0  0  0  0  0  0  0  0  0  0  0  0
   16.7478  -10.1451  -16.8450 C   0  0  0  0  0  0  0  0  0  0  0  0
   17.9038  -10.1385  -17.8126 C   0  0  2  0  0  0  0  0  0  0  0  0
   18.6057  -11.3704  -17.8830 N   0  0  0  0  0  0  0  0  0  0  0  0
   18.7748   -8.9884  -17.4376 C   0  0  0  0  0  0  0  0  0  0  0  0
   19.6373   -9.1532  -16.5307 O   0  0  0  0  0  0  0  0  0  0  0  0
   18.5538   -7.7905  -18.1465 N   0  0  0  0  0  0  0  0  0  0  0  0
   19.3790   -6.5844  -17.8025 C   0  0  1  0  0  0  0  0  0  0  0  0
   20.0531   -6.2395  -19.0579 C   0  0  0  0  0  0  0  0  0  0  0  0
   21.1661   -6.9767  -19.6429 C   0  0  0  0  0  0  0  0  0  0  0  0
   21.6604   -6.5849  -20.9837 C   0  0  0  0  0  0  0  0  0  0  0  0
   22.7001   -7.6388  -21.4659 C   0  0  0  0  0  0  0  0  0  0  0  0
   23.0129   -7.3625  -22.8389 N   0  0  0  0  0  0  0  0  0  0  0  0
   18.4634   -5.7002  -17.1155 C   0  0  0  0  0  0  0  0  0  0  0  0
   17.2041   -5.8051  -17.0569 O   0  0  0  0  0  0  0  0  0  0  0  0
   18.9236   -4.5593  -16.4011 O   0  0  0  0  0  0  0  0  0  0  0  0
  2  1  1  0
  3  2  1  0
  3  4  1  6
  5  3  1  0
  5  6  1  1
  7  5  1  0
  7  8  2  0
  9 10  1  0
 10 11  2  0
 12 10  1  0
 13 12  1  1
 13 14  1  0
 14  7  1  0
 15 13  1  0
 16 15  2  0
 17 15  1  0
 18 17  1  0
 18 24  1  0
 18 19  1  6
 20 19  1  0
 21 20  1  0
 22 21  1  0
 23 22  1  0
 24 26  1  0
 25 24  2  0
M  END
$$$$
