INK.pdb
     RDKit          3D

 26 25  0  0  1  0  0  0  0  0999 V2000
   24.6528  -17.7568  -18.1360 C   0  0  0  0  0  0  0  0  0  0  0  0
   24.6063  -19.0213  -17.3507 C   0  0  0  0  0  0  0  0  0  0  0  0
   23.9351  -18.8862  -16.0024 C   0  0  2  0  0  0  0  0  0  0  0  0
   24.8642  -18.4506  -14.9140 C   0  0  0  0  0  0  0  0  0  0  0  0
   23.2680  -20.2378  -15.6649 C   0  0  2  0  0  0  0  0  0  0  0  0
   22.3362  -20.6002  -16.6944 N   0  0  0  0  0  0  0  0  0  0  0  0
   22.5662  -20.0480  -14.3624 C   0  0  0  0  0  0  0  0  0  0  0  0
   23.1536  -19.7961  -13.2990 O   0  0  0  0  0  0  0  0  0  0  0  0
   18.7631  -17.9492  -15.4888 N   0  0  0  0  0  0  0  0  0  0  0  0
   18.5632  -18.7991  -14.3714 C   0  0  0  0  0  0  0  0  0  0  0  0
   17.5738  -19.5850  -14.4166 O   0  0  0  0  0  0  0  0  0  0  0  0
   19.4784  -18.7627  -13.2036 C   0  0  0  0  0  0  0  0  0  0  0  0
   20.3776  -19.9718  -13.1567 C   0  0  2  0  0  0  0  0  0  0  0  0
   21.1563  -20.1588  -14.3289 N   0  0  0  0  0  0  0  0  0  0  0  0
   19.5119  -21.1420  -12.8354 C   0  0  0  0  0  0  0  0  0  0  0  0
   19.3664  -22.0441  -13.7064 O   0  0  0  0  0  0  0  0  0  0  0  0
   18.9194  -21.1382  -11.5567 N   0  0  0  0  0  0  0  0  0  0  0  0
   18.0454  -22.2932  -11.1617 C   0  0  1  0  0  0  0  0  0  0  0  0
   18.4574  -22.6035   -9.7894 C   0  0  0  0  0  0  0  0  0  0  0  0
   17.8582  -23.6293   -8.9448 C   0  0  0  0  0  0  0  0  0  0  0  0
   18.7290  -24.6752   -8.3590 C   0  0  0  0  0  0  0  0  0  0  0  0
   17.8751  -25.5727   -7.4159 C   0  0  0  0  0  0  0  0  0  0  0  0
   18.7208  -26.6112   -6.9005 N   0  0  0  0  0  0  0  0  0  0  0  0
   16.7076  -21.8779  -11.5221 C   0  0  0  0  0  0  0  0  0  0  0  0
   16.2506  -20.6983  -11.5200 O   0  0  0  0  0  0  0  0  0  0  0  0
   15.7214  -22.8165  -11.9347 O   0  0  0  0  0  0  0  0  0  0  0  0
  2  1  1  0
  3  2  1  0
  3  4  1  1
  5  3  1  0
  5  6  1  6
  7  5  1  0
  7  8  2  0
  9 10  1  0
 10 11  2  0
 12 10  1  0
 13 12  1  6
 13 14  1  0
 14  7  1  0
 15 13  1  0
 16 15  2  0
 17 15  1  0
 18 17  1  0
 18 24  1  0
 18 19  1  1
 20 19  1  0
 21 20  1  0
 22 21  1  0
 23 22  1  0
 24 26  1  0
 25 24  2  0
M  END
$$$$
