INK.pdb
     RDKit          3D

 26 25  0  0  1  0  0  0  0  0999 V2000
   27.2404  -19.6784   -7.3875 C   0  0  0  0  0  0  0  0  0  0  0  0
   26.8318  -20.7540   -8.3331 C   0  0  0  0  0  0  0  0  0  0  0  0
   25.9622  -20.2753   -9.4739 C   0  0  2  0  0  0  0  0  0  0  0  0
   24.6855  -19.6382   -9.0247 C   0  0  0  0  0  0  0  0  0  0  0  0
   25.6934  -21.4779  -10.4050 C   0  0  2  0  0  0  0  0  0  0  0  0
   26.9293  -22.1169  -10.7570 N   0  0  0  0  0  0  0  0  0  0  0  0
   25.0197  -20.9300  -11.6178 C   0  0  0  0  0  0  0  0  0  0  0  0
   23.9946  -20.2326  -11.5748 O   0  0  0  0  0  0  0  0  0  0  0  0
   28.3904  -21.2561  -15.0334 N   0  0  0  0  0  0  0  0  0  0  0  0
   27.2439  -20.4316  -15.1625 C   0  0  0  0  0  0  0  0  0  0  0  0
   27.4296  -19.1812  -15.1409 O   0  0  0  0  0  0  0  0  0  0  0  0
   25.8886  -21.0169  -15.3157 C   0  0  0  0  0  0  0  0  0  0  0  0
   25.0221  -20.7497  -14.1112 C   0  0  2  0  0  0  0  0  0  0  0  0
   25.5727  -21.2151  -12.8883 N   0  0  0  0  0  0  0  0  0  0  0  0
   23.6803  -21.3275  -14.4073 C   0  0  0  0  0  0  0  0  0  0  0  0
   23.5212  -22.5749  -14.2973 O   0  0  0  0  0  0  0  0  0  0  0  0
   22.6840  -20.4079  -14.7918 N   0  0  0  0  0  0  0  0  0  0  0  0
   21.2716  -20.8938  -14.9431 C   0  0  1  0  0  0  0  0  0  0  0  0
   20.6243  -20.5166  -13.6829 C   0  0  0  0  0  0  0  0  0  0  0  0
   20.1993  -21.4485  -12.6459 C   0  0  0  0  0  0  0  0  0  0  0  0
   19.1972  -22.4871  -12.9815 C   0  0  0  0  0  0  0  0  0  0  0  0
   18.8684  -23.3045  -11.6978 C   0  0  0  0  0  0  0  0  0  0  0  0
   17.9826  -24.3729  -12.0628 N   0  0  0  0  0  0  0  0  0  0  0  0
   20.8534  -20.4017  -16.2373 C   0  0  0  0  0  0  0  0  0  0  0  0
   21.2866  -19.3759  -16.8376 O   0  0  0  0  0  0  0  0  0  0  0  0
   19.8524  -21.0658  -16.9995 O   0  0  0  0  0  0  0  0  0  0  0  0
  2  1  1  0
  3  2  1  0
  3  4  1  1
  5  3  1  0
  5  6  1  6
  7  5  1  0
  7  8  2  0
  9 10  1  0
 10 11  2  0
 12 10  1  0
 13 12  1  6
 13 14  1  0
 14  7  1  0
 15 13  1  0
 16 15  2  0
 17 15  1  0
 18 17  1  0
 18 24  1  0
 18 19  1  1
 20 19  1  0
 21 20  1  0
 22 21  1  0
 23 22  1  0
 24 26  1  0
 25 24  2  0
M  END
$$$$
