INK.pdb
     RDKit          3D

 26 25  0  0  1  0  0  0  0  0999 V2000
   26.2530  -11.8322  -17.3796 C   0  0  0  0  0  0  0  0  0  0  0  0
   24.8753  -11.7552  -16.8192 C   0  0  0  0  0  0  0  0  0  0  0  0
   24.5954  -10.4894  -16.0408 C   0  0  2  0  0  0  0  0  0  0  0  0
   25.5135  -10.2888  -14.8771 C   0  0  0  0  0  0  0  0  0  0  0  0
   23.1178  -10.5230  -15.5922 C   0  0  2  0  0  0  0  0  0  0  0  0
   22.2623  -10.7432  -16.7232 N   0  0  0  0  0  0  0  0  0  0  0  0
   22.8361   -9.1975  -14.9688 C   0  0  0  0  0  0  0  0  0  0  0  0
   23.3599   -8.8132  -13.9119 O   0  0  0  0  0  0  0  0  0  0  0  0
   22.2744   -3.6317  -14.7646 N   0  0  0  0  0  0  0  0  0  0  0  0
   22.1854   -4.8904  -14.1174 C   0  0  0  0  0  0  0  0  0  0  0  0
   21.6908   -4.9048  -12.9540 O   0  0  0  0  0  0  0  0  0  0  0  0
   22.6542   -6.1320  -14.7818 C   0  0  0  0  0  0  0  0  0  0  0  0
   21.5163   -7.0769  -15.0734 C   0  0  2  0  0  0  0  0  0  0  0  0
   21.9252   -8.3258  -15.6105 N   0  0  0  0  0  0  0  0  0  0  0  0
   20.5614   -6.3450  -15.9534 C   0  0  0  0  0  0  0  0  0  0  0  0
   20.9386   -6.0133  -17.1115 O   0  0  0  0  0  0  0  0  0  0  0  0
   19.2913   -6.0829  -15.4018 N   0  0  0  0  0  0  0  0  0  0  0  0
   18.2209   -5.5165  -16.2893 C   0  0  1  0  0  0  0  0  0  0  0  0
   17.1043   -6.4565  -16.1513 C   0  0  0  0  0  0  0  0  0  0  0  0
   15.7477   -6.2243  -16.6309 C   0  0  0  0  0  0  0  0  0  0  0  0
   14.7340   -7.2916  -16.4606 C   0  0  0  0  0  0  0  0  0  0  0  0
   13.3748   -6.7926  -17.0333 C   0  0  0  0  0  0  0  0  0  0  0  0
   12.3748   -7.7769  -16.7329 N   0  0  0  0  0  0  0  0  0  0  0  0
   18.1429   -4.1201  -15.9207 C   0  0  0  0  0  0  0  0  0  0  0  0
   18.3471   -3.6229  -14.7755 O   0  0  0  0  0  0  0  0  0  0  0  0
   17.8055   -3.1161  -16.8705 O   0  0  0  0  0  0  0  0  0  0  0  0
  2  1  1  0
  3  2  1  0
  3  4  1  1
  5  3  1  0
  5  6  1  6
  7  5  1  0
  7  8  2  0
  9 10  1  0
 10 11  2  0
 12 10  1  0
 13 12  1  6
 13 14  1  0
 14  7  1  0
 15 13  1  0
 16 15  2  0
 17 15  1  0
 18 17  1  0
 18 24  1  0
 18 19  1  1
 20 19  1  0
 21 20  1  0
 22 21  1  0
 23 22  1  0
 24 26  1  0
 25 24  2  0
M  END
$$$$
