INK.pdb
     RDKit          3D

 26 25  0  0  1  0  0  0  0  0999 V2000
   28.1240  -20.2147   -6.8264 C   0  0  0  0  0  0  0  0  0  0  0  0
   26.7816  -20.3729   -7.4515 C   0  0  0  0  0  0  0  0  0  0  0  0
   26.7547  -20.0885   -8.9364 C   0  0  2  0  0  0  0  0  0  0  0  0
   27.3443  -18.7630   -9.3011 C   0  0  0  0  0  0  0  0  0  0  0  0
   25.2915  -20.2046   -9.4172 C   0  0  2  0  0  0  0  0  0  0  0  0
   24.7751  -21.5100   -9.1192 N   0  0  0  0  0  0  0  0  0  0  0  0
   25.3117  -19.9698  -10.8901 C   0  0  0  0  0  0  0  0  0  0  0  0
   25.7155  -18.9182  -11.4099 O   0  0  0  0  0  0  0  0  0  0  0  0
   27.5260  -20.7599  -13.3059 N   0  0  0  0  0  0  0  0  0  0  0  0
   26.8759  -21.8378  -13.9588 C   0  0  0  0  0  0  0  0  0  0  0  0
   27.6102  -22.6709  -14.5631 O   0  0  0  0  0  0  0  0  0  0  0  0
   25.3985  -21.9762  -13.9304 C   0  0  0  0  0  0  0  0  0  0  0  0
   24.7447  -20.8598  -13.1564 C   0  0  2  0  0  0  0  0  0  0  0  0
   24.8484  -20.9956  -11.7471 N   0  0  0  0  0  0  0  0  0  0  0  0
   23.3357  -20.7698  -13.6344 C   0  0  0  0  0  0  0  0  0  0  0  0
   22.4358  -21.3666  -12.9805 O   0  0  0  0  0  0  0  0  0  0  0  0
   23.1277  -20.0073  -14.8012 N   0  0  0  0  0  0  0  0  0  0  0  0
   21.7231  -19.6408  -15.1842 C   0  0  1  0  0  0  0  0  0  0  0  0
   21.8798  -18.4624  -16.0421 C   0  0  0  0  0  0  0  0  0  0  0  0
   20.7899  -17.6194  -16.5175 C   0  0  0  0  0  0  0  0  0  0  0  0
   21.1070  -16.4491  -17.3693 C   0  0  0  0  0  0  0  0  0  0  0  0
   19.7857  -15.6978  -17.7067 C   0  0  0  0  0  0  0  0  0  0  0  0
   20.1149  -14.5498  -18.5023 N   0  0  0  0  0  0  0  0  0  0  0  0
   21.1308  -20.8830  -15.6294 C   0  0  0  0  0  0  0  0  0  0  0  0
   21.7167  -21.8376  -16.2173 O   0  0  0  0  0  0  0  0  0  0  0  0
   19.7488  -21.1607  -15.4377 O   0  0  0  0  0  0  0  0  0  0  0  0
  2  1  1  0
  3  2  1  0
  3  4  1  1
  5  3  1  0
  5  6  1  6
  7  5  1  0
  7  8  2  0
  9 10  1  0
 10 11  2  0
 12 10  1  0
 13 12  1  6
 13 14  1  0
 14  7  1  0
 15 13  1  0
 16 15  2  0
 17 15  1  0
 18 17  1  0
 18 24  1  0
 18 19  1  6
 20 19  1  0
 21 20  1  0
 22 21  1  0
 23 22  1  0
 24 26  1  0
 25 24  2  0
M  END
$$$$
