INK.pdb
     RDKit          3D

 26 25  0  0  1  0  0  0  0  0999 V2000
   25.3803  -13.4980  -15.9698 C   0  0  0  0  0  0  0  0  0  0  0  0
   24.6032  -12.5009  -16.7571 C   0  0  0  0  0  0  0  0  0  0  0  0
   23.7502  -11.5790  -15.9151 C   0  0  2  0  0  0  0  0  0  0  0  0
   22.7809  -12.3012  -15.0340 C   0  0  0  0  0  0  0  0  0  0  0  0
   23.0253  -10.6006  -16.8653 C   0  0  2  0  0  0  0  0  0  0  0  0
   23.9813   -9.8799  -17.6566 N   0  0  0  0  0  0  0  0  0  0  0  0
   22.2491   -9.6676  -15.9981 C   0  0  0  0  0  0  0  0  0  0  0  0
   21.2480  -10.0091  -15.3499 O   0  0  0  0  0  0  0  0  0  0  0  0
   20.6507   -5.4772  -13.5582 N   0  0  0  0  0  0  0  0  0  0  0  0
   22.0535   -5.3400  -13.7138 C   0  0  0  0  0  0  0  0  0  0  0  0
   22.6198   -4.4293  -13.0443 O   0  0  0  0  0  0  0  0  0  0  0  0
   22.8173   -6.2293  -14.6242 C   0  0  0  0  0  0  0  0  0  0  0  0
   21.9491   -7.3151  -15.2074 C   0  0  2  0  0  0  0  0  0  0  0  0
   22.6704   -8.3205  -15.9034 N   0  0  0  0  0  0  0  0  0  0  0  0
   20.9217   -6.6407  -16.0509 C   0  0  0  0  0  0  0  0  0  0  0  0
   21.2435   -6.2670  -17.2130 O   0  0  0  0  0  0  0  0  0  0  0  0
   19.6515   -6.4771  -15.4629 N   0  0  0  0  0  0  0  0  0  0  0  0
   18.5593   -5.8351  -16.2685 C   0  0  1  0  0  0  0  0  0  0  0  0
   17.5035   -6.8510  -16.3174 C   0  0  0  0  0  0  0  0  0  0  0  0
   17.0430   -7.5254  -17.5248 C   0  0  0  0  0  0  0  0  0  0  0  0
   16.0108   -8.5820  -17.4071 C   0  0  0  0  0  0  0  0  0  0  0  0
   15.7490   -9.1908  -18.8160 C   0  0  0  0  0  0  0  0  0  0  0  0
   14.8152  -10.2705  -18.6700 N   0  0  0  0  0  0  0  0  0  0  0  0
   18.3870   -4.5284  -15.6728 C   0  0  0  0  0  0  0  0  0  0  0  0
   18.1581   -4.2713  -14.4555 O   0  0  0  0  0  0  0  0  0  0  0  0
   18.4606   -3.3392  -16.4501 O   0  0  0  0  0  0  0  0  0  0  0  0
  2  1  1  0
  3  2  1  0
  3  4  1  6
  5  3  1  0
  5  6  1  1
  7  5  1  0
  7  8  2  0
  9 10  1  0
 10 11  2  0
 12 10  1  0
 13 12  1  6
 13 14  1  0
 14  7  1  0
 15 13  1  0
 16 15  2  0
 17 15  1  0
 18 17  1  0
 18 24  1  0
 18 19  1  1
 20 19  1  0
 21 20  1  0
 22 21  1  0
 23 22  1  0
 24 26  1  0
 25 24  2  0
M  END
$$$$
