INK.pdb
     RDKit          3D

 26 25  0  0  1  0  0  0  0  0999 V2000
   27.5453  -17.4020  -18.3305 C   0  0  0  0  0  0  0  0  0  0  0  0
   27.0678  -18.0856  -17.0965 C   0  0  0  0  0  0  0  0  0  0  0  0
   25.8188  -17.4783  -16.4985 C   0  0  2  0  0  0  0  0  0  0  0  0
   25.9854  -16.0479  -16.0935 C   0  0  0  0  0  0  0  0  0  0  0  0
   25.3888  -18.3551  -15.3019 C   0  0  2  0  0  0  0  0  0  0  0  0
   25.4446  -19.7435  -15.6607 N   0  0  0  0  0  0  0  0  0  0  0  0
   23.9921  -17.9537  -14.9654 C   0  0  0  0  0  0  0  0  0  0  0  0
   23.6497  -16.7805  -14.7525 O   0  0  0  0  0  0  0  0  0  0  0  0
   19.1774  -16.3095  -14.4359 N   0  0  0  0  0  0  0  0  0  0  0  0
   19.5687  -17.4541  -15.1761 C   0  0  0  0  0  0  0  0  0  0  0  0
   18.6537  -18.2542  -15.5240 O   0  0  0  0  0  0  0  0  0  0  0  0
   20.9912  -17.6964  -15.5235 C   0  0  0  0  0  0  0  0  0  0  0  0
   21.6336  -18.6956  -14.5952 C   0  0  2  0  0  0  0  0  0  0  0  0
   22.9988  -18.9577  -14.8834 N   0  0  0  0  0  0  0  0  0  0  0  0
   20.7834  -19.9196  -14.6224 C   0  0  0  0  0  0  0  0  0  0  0  0
   20.9059  -20.7198  -15.5911 O   0  0  0  0  0  0  0  0  0  0  0  0
   19.8979  -20.0798  -13.5379 N   0  0  0  0  0  0  0  0  0  0  0  0
   19.1471  -21.3728  -13.4027 C   0  0  1  0  0  0  0  0  0  0  0  0
   19.3371  -21.7544  -12.0000 C   0  0  0  0  0  0  0  0  0  0  0  0
   18.7923  -22.9533  -11.3752 C   0  0  0  0  0  0  0  0  0  0  0  0
   19.1593  -23.2617   -9.9731 C   0  0  0  0  0  0  0  0  0  0  0  0
   18.4648  -24.5894   -9.5501 C   0  0  0  0  0  0  0  0  0  0  0  0
   18.8518  -24.8861   -8.2005 N   0  0  0  0  0  0  0  0  0  0  0  0
   17.8534  -21.1065  -13.9923 C   0  0  0  0  0  0  0  0  0  0  0  0
   17.3053  -21.7380  -14.9415 O   0  0  0  0  0  0  0  0  0  0  0  0
   17.0294  -20.0420  -13.5323 O   0  0  0  0  0  0  0  0  0  0  0  0
  2  1  1  0
  3  2  1  0
  3  4  1  1
  5  3  1  0
  5  6  1  6
  7  5  1  0
  7  8  2  0
  9 10  1  0
 10 11  2  0
 12 10  1  0
 13 12  1  6
 13 14  1  0
 14  7  1  0
 15 13  1  0
 16 15  2  0
 17 15  1  0
 18 17  1  0
 18 24  1  0
 18 19  1  1
 20 19  1  0
 21 20  1  0
 22 21  1  0
 23 22  1  0
 24 26  1  0
 25 24  2  0
M  END
$$$$
