INK.pdb
     RDKit          3D

 26 25  0  0  1  0  0  0  0  0999 V2000
   21.0971  -20.5862  -18.1203 C   0  0  0  0  0  0  0  0  0  0  0  0
   22.3207  -20.0959  -17.4271 C   0  0  0  0  0  0  0  0  0  0  0  0
   22.3135  -18.6117  -17.1381 C   0  0  2  0  0  0  0  0  0  0  0  0
   22.1342  -17.7665  -18.3592 C   0  0  0  0  0  0  0  0  0  0  0  0
   23.6253  -18.2636  -16.4009 C   0  0  2  0  0  0  0  0  0  0  0  0
   23.7752  -19.0932  -15.2395 N   0  0  0  0  0  0  0  0  0  0  0  0
   23.5224  -16.8271  -16.0124 C   0  0  0  0  0  0  0  0  0  0  0  0
   22.6771  -16.3929  -15.2148 O   0  0  0  0  0  0  0  0  0  0  0  0
   27.2416  -14.2815  -14.4302 N   0  0  0  0  0  0  0  0  0  0  0  0
   26.8770  -14.5996  -15.7632 C   0  0  0  0  0  0  0  0  0  0  0  0
   27.5149  -15.5349  -16.3260 O   0  0  0  0  0  0  0  0  0  0  0  0
   25.7939  -13.8632  -16.4612 C   0  0  0  0  0  0  0  0  0  0  0  0
   24.4511  -14.5199  -16.2645 C   0  0  2  0  0  0  0  0  0  0  0  0
   24.4333  -15.9043  -16.5781 N   0  0  0  0  0  0  0  0  0  0  0  0
   23.4633  -13.7280  -17.0513 C   0  0  0  0  0  0  0  0  0  0  0  0
   23.1869  -14.1006  -18.2252 O   0  0  0  0  0  0  0  0  0  0  0  0
   22.9114  -12.6073  -16.3988 N   0  0  0  0  0  0  0  0  0  0  0  0
   21.7699  -11.8815  -17.0501 C   0  0  1  0  0  0  0  0  0  0  0  0
   20.6128  -12.2019  -16.2088 C   0  0  0  0  0  0  0  0  0  0  0  0
   19.2497  -11.7436  -16.4465 C   0  0  0  0  0  0  0  0  0  0  0  0
   18.1742  -12.1839  -15.5273 C   0  0  0  0  0  0  0  0  0  0  0  0
   16.8074  -11.6682  -16.0661 C   0  0  0  0  0  0  0  0  0  0  0  0
   15.7728  -12.1539  -15.1984 N   0  0  0  0  0  0  0  0  0  0  0  0
   22.2629  -10.5375  -17.2566 C   0  0  0  0  0  0  0  0  0  0  0  0
   23.2055   -9.9687  -16.6335 O   0  0  0  0  0  0  0  0  0  0  0  0
   21.6955   -9.6779  -18.2380 O   0  0  0  0  0  0  0  0  0  0  0  0
  2  1  1  0
  3  2  1  0
  3  4  1  6
  5  3  1  0
  5  6  1  1
  7  5  1  0
  7  8  2  0
  9 10  1  0
 10 11  2  0
 12 10  1  0
 13 12  1  6
 13 14  1  0
 14  7  1  0
 15 13  1  0
 16 15  2  0
 17 15  1  0
 18 17  1  0
 18 24  1  0
 18 19  1  1
 20 19  1  0
 21 20  1  0
 22 21  1  0
 23 22  1  0
 24 26  1  0
 25 24  2  0
M  END
$$$$
