MQG.pdb
     RDKit          3D

 22 21  0  0  1  0  0  0  0  0999 V2000
   28.5100  -18.3227   -4.3103 C   0  0  0  0  0  0  0  0  0  0  0  0
   27.9882  -19.8298   -5.1471 S   0  0  0  0  0  0  0  0  0  0  0  0
   29.1005  -20.2188   -6.5441 C   0  0  0  0  0  0  0  0  0  0  0  0
   28.4505  -19.6731   -7.7958 C   0  0  0  0  0  0  0  0  0  0  0  0
   28.0780  -20.8579   -8.6609 C   0  0  2  0  0  0  0  0  0  0  0  0
   29.2722  -21.5053   -9.1631 N   0  0  0  0  0  0  0  0  0  0  0  0
   27.1844  -20.5042   -9.7681 C   0  0  0  0  0  0  0  0  0  0  0  0
   27.5814  -19.6987  -10.6430 O   0  0  0  0  0  0  0  0  0  0  0  0
   24.6155  -19.4695  -14.9236 N   0  0  0  0  0  0  0  0  0  0  0  0
   25.2761  -20.5182  -14.2463 C   0  0  0  0  0  0  0  0  0  0  0  0
   26.5060  -20.6697  -14.3653 O   0  0  0  0  0  0  0  0  0  0  0  0
   24.4974  -21.4338  -13.3959 C   0  0  0  0  0  0  0  0  0  0  0  0
   25.2661  -21.7312  -12.1493 C   0  0  0  0  0  0  0  0  0  0  0  0
   25.0201  -20.7094  -11.0561 C   0  0  2  0  0  0  0  0  0  0  0  0
   25.8698  -21.0209   -9.9245 N   0  0  0  0  0  0  0  0  0  0  0  0
   23.5858  -20.6861  -10.6823 C   0  0  0  0  0  0  0  0  0  0  0  0
   23.1505  -21.5009   -9.8324 O   0  0  0  0  0  0  0  0  0  0  0  0
   22.7281  -19.7475  -11.2869 N   0  0  0  0  0  0  0  0  0  0  0  0
   21.3059  -19.6593  -10.9799 C   0  0  0  0  0  0  0  0  0  0  0  0
   20.5576  -20.7390  -11.6454 C   0  0  0  0  0  0  0  0  0  0  0  0
   20.6229  -21.8985  -11.1615 O   0  0  0  0  0  0  0  0  0  0  0  0
   19.7884  -20.5665  -12.7655 O   0  0  0  0  0  0  0  0  0  0  0  0
  1  2  1  0
  3  4  1  0
  3  2  1  0
  5  7  1  0
  5  6  1  6
  5  4  1  0
  7  8  2  0
  9 10  1  0
 10 12  1  0
 11 10  2  0
 12 13  1  0
 14 13  1  6
 14 16  1  0
 15 14  1  0
 15  7  1  0
 16 17  2  0
 16 18  1  0
 18 19  1  0
 19 20  1  0
 20 21  2  0
 20 22  1  0
M  END
$$$$
