MQG.pdb
     RDKit          3D

 22 21  0  0  1  0  0  0  0  0999 V2000
   26.8817  -14.4145  -14.7124 C   0  0  0  0  0  0  0  0  0  0  0  0
   25.3355  -15.2952  -14.9908 S   0  0  0  0  0  0  0  0  0  0  0  0
   24.5680  -14.7834  -16.5684 C   0  0  0  0  0  0  0  0  0  0  0  0
   24.1067  -13.3535  -16.3958 C   0  0  0  0  0  0  0  0  0  0  0  0
   23.3230  -12.9822  -17.6362 C   0  0  2  0  0  0  0  0  0  0  0  0
   24.1199  -13.2217  -18.8215 N   0  0  0  0  0  0  0  0  0  0  0  0
   22.8373  -11.5989  -17.6179 C   0  0  0  0  0  0  0  0  0  0  0  0
   23.4873  -10.7130  -18.2215 O   0  0  0  0  0  0  0  0  0  0  0  0
   16.7883   -9.2308  -17.1319 N   0  0  0  0  0  0  0  0  0  0  0  0
   17.8365   -8.3954  -16.6869 C   0  0  0  0  0  0  0  0  0  0  0  0
   17.6680   -7.6354  -15.7153 O   0  0  0  0  0  0  0  0  0  0  0  0
   19.1339   -8.4296  -17.3822 C   0  0  0  0  0  0  0  0  0  0  0  0
   19.7030   -9.8095  -17.3077 C   0  0  0  0  0  0  0  0  0  0  0  0
   21.1778   -9.8125  -16.9548 C   0  0  2  0  0  0  0  0  0  0  0  0
   21.6549  -11.1806  -16.9495 N   0  0  0  0  0  0  0  0  0  0  0  0
   21.3996   -9.1432  -15.6508 C   0  0  0  0  0  0  0  0  0  0  0  0
   21.3182   -9.8069  -14.5884 O   0  0  0  0  0  0  0  0  0  0  0  0
   21.6996   -7.7679  -15.6208 N   0  0  0  0  0  0  0  0  0  0  0  0
   21.8598   -7.0178  -14.3814 C   0  0  0  0  0  0  0  0  0  0  0  0
   22.2157   -5.6160  -14.6590 C   0  0  0  0  0  0  0  0  0  0  0  0
   22.2960   -5.2454  -15.8586 O   0  0  0  0  0  0  0  0  0  0  0  0
   22.4678   -4.6790  -13.6922 O   0  0  0  0  0  0  0  0  0  0  0  0
  1  2  1  0
  3  4  1  0
  3  2  1  0
  5  7  1  0
  5  6  1  6
  5  4  1  0
  7  8  2  0
  9 10  1  0
 10 12  1  0
 11 10  2  0
 12 13  1  0
 14 13  1  1
 14 16  1  0
 15 14  1  0
 15  7  1  0
 16 17  2  0
 16 18  1  0
 18 19  1  0
 19 20  1  0
 20 21  2  0
 20 22  1  0
M  END
$$$$
