MQG.pdb
     RDKit          3D

 22 21  0  0  1  0  0  0  0  0999 V2000
   31.7843  -21.4649  -10.3670 C   0  0  0  0  0  0  0  0  0  0  0  0
   30.7098  -22.4735   -9.3318 S   0  0  0  0  0  0  0  0  0  0  0  0
   28.9617  -21.9775   -9.5278 C   0  0  0  0  0  0  0  0  0  0  0  0
   28.8154  -21.4034  -10.9192 C   0  0  0  0  0  0  0  0  0  0  0  0
   27.3549  -21.0545  -11.1091 C   0  0  2  0  0  0  0  0  0  0  0  0
   26.5166  -22.0432  -10.4633 N   0  0  0  0  0  0  0  0  0  0  0  0
   26.9768  -20.9055  -12.5178 C   0  0  0  0  0  0  0  0  0  0  0  0
   26.8694  -21.9280  -13.2352 O   0  0  0  0  0  0  0  0  0  0  0  0
   23.7252  -21.8546  -13.2381 N   0  0  0  0  0  0  0  0  0  0  0  0
   23.6343  -20.4553  -13.4066 C   0  0  0  0  0  0  0  0  0  0  0  0
   23.3446  -19.7215  -12.4435 O   0  0  0  0  0  0  0  0  0  0  0  0
   23.8853  -19.8686  -14.7335 C   0  0  0  0  0  0  0  0  0  0  0  0
   24.9929  -18.8701  -14.6356 C   0  0  0  0  0  0  0  0  0  0  0  0
   26.3583  -19.5231  -14.5406 C   0  0  2  0  0  0  0  0  0  0  0  0
   26.7173  -19.6559  -13.1431 N   0  0  0  0  0  0  0  0  0  0  0  0
   27.3618  -18.7379  -15.2983 C   0  0  0  0  0  0  0  0  0  0  0  0
   27.6676  -17.5826  -14.9143 O   0  0  0  0  0  0  0  0  0  0  0  0
   27.9604  -19.2998  -16.4420 N   0  0  0  0  0  0  0  0  0  0  0  0
   28.9479  -18.5936  -17.2487 C   0  0  0  0  0  0  0  0  0  0  0  0
   28.3743  -18.1868  -18.5426 C   0  0  0  0  0  0  0  0  0  0  0  0
   27.2762  -17.5729  -18.5437 O   0  0  0  0  0  0  0  0  0  0  0  0
   28.9593  -18.4331  -19.7564 O   0  0  0  0  0  0  0  0  0  0  0  0
  1  2  1  0
  3  4  1  0
  3  2  1  0
  5  7  1  0
  5  6  1  6
  5  4  1  0
  7  8  2  0
  9 10  1  0
 10 12  1  0
 11 10  2  0
 12 13  1  0
 14 13  1  1
 14 16  1  0
 15 14  1  0
 15  7  1  0
 16 17  2  0
 16 18  1  0
 18 19  1  0
 19 20  1  0
 20 21  2  0
 20 22  1  0
M  END
$$$$
