MQG.pdb
     RDKit          3D

 22 21  0  0  1  0  0  0  0  0999 V2000
   19.3416  -29.7977   -1.5177 C   0  0  0  0  0  0  0  0  0  0  0  0
   17.6975  -29.2202   -1.0629 S   0  0  0  0  0  0  0  0  0  0  0  0
   16.7022  -28.8479   -2.5498 C   0  0  0  0  0  0  0  0  0  0  0  0
   16.6640  -27.3431   -2.6944 C   0  0  0  0  0  0  0  0  0  0  0  0
   17.8042  -26.9514   -3.6095 C   0  0  2  0  0  0  0  0  0  0  0  0
   18.9769  -26.6125   -2.8302 N   0  0  0  0  0  0  0  0  0  0  0  0
   17.4611  -25.8546   -4.5200 C   0  0  0  0  0  0  0  0  0  0  0  0
   17.5487  -24.6714   -4.1148 O   0  0  0  0  0  0  0  0  0  0  0  0
   19.3667  -24.4256   -9.1474 N   0  0  0  0  0  0  0  0  0  0  0  0
   18.1901  -23.8131   -9.6325 C   0  0  0  0  0  0  0  0  0  0  0  0
   18.2584  -22.8538  -10.4230 O   0  0  0  0  0  0  0  0  0  0  0  0
   16.8782  -24.3188   -9.1954 C   0  0  0  0  0  0  0  0  0  0  0  0
   17.0732  -25.4036   -8.1862 C   0  0  0  0  0  0  0  0  0  0  0  0
   16.7666  -24.9461   -6.7733 C   0  0  2  0  0  0  0  0  0  0  0  0
   17.0264  -26.0407   -5.8602 N   0  0  0  0  0  0  0  0  0  0  0  0
   15.3680  -24.4642   -6.6770 C   0  0  0  0  0  0  0  0  0  0  0  0
   14.4281  -25.2925   -6.5978 O   0  0  0  0  0  0  0  0  0  0  0  0
   15.1113  -23.0799   -6.6756 N   0  0  0  0  0  0  0  0  0  0  0  0
   13.7644  -22.5227   -6.6767 C   0  0  0  0  0  0  0  0  0  0  0  0
   13.2774  -22.3306   -8.0532 C   0  0  0  0  0  0  0  0  0  0  0  0
   14.0017  -22.7228   -9.0042 O   0  0  0  0  0  0  0  0  0  0  0  0
   12.0792  -21.7489   -8.3726 O   0  0  0  0  0  0  0  0  0  0  0  0
  1  2  1  0
  3  4  1  0
  3  2  1  0
  5  7  1  0
  5  6  1  1
  5  4  1  0
  7  8  2  0
  9 10  1  0
 10 12  1  0
 11 10  2  0
 12 13  1  0
 14 13  1  6
 14 16  1  0
 15 14  1  0
 15  7  1  0
 16 17  2  0
 16 18  1  0
 18 19  1  0
 19 20  1  0
 20 21  2  0
 20 22  1  0
M  END
$$$$
