MQG.pdb
     RDKit          3D

 22 21  0  0  1  0  0  0  0  0999 V2000
   19.2144  -16.0024  -15.1251 C   0  0  0  0  0  0  0  0  0  0  0  0
   17.5779  -15.8609  -15.8636 S   0  0  0  0  0  0  0  0  0  0  0  0
   17.4330  -14.3219  -16.8387 C   0  0  0  0  0  0  0  0  0  0  0  0
   18.1729  -13.2430  -16.0800 C   0  0  0  0  0  0  0  0  0  0  0  0
   18.1874  -12.0086  -16.9557 C   0  0  2  0  0  0  0  0  0  0  0  0
   19.0330  -12.2252  -18.1113 N   0  0  0  0  0  0  0  0  0  0  0  0
   18.6020  -10.7988  -16.2387 C   0  0  0  0  0  0  0  0  0  0  0  0
   18.0465  -10.5090  -15.1528 O   0  0  0  0  0  0  0  0  0  0  0  0
   24.2087   -9.0155  -15.6977 N   0  0  0  0  0  0  0  0  0  0  0  0
   23.4803   -9.8134  -14.7879 C   0  0  0  0  0  0  0  0  0  0  0  0
   24.0746  -10.5244  -13.9566 O   0  0  0  0  0  0  0  0  0  0  0  0
   22.0085   -9.7982  -14.8298 C   0  0  0  0  0  0  0  0  0  0  0  0
   21.5485   -8.7735  -15.8155 C   0  0  0  0  0  0  0  0  0  0  0  0
   20.0391   -8.7394  -15.9579 C   0  0  2  0  0  0  0  0  0  0  0  0
   19.6121   -9.9102  -16.6970 N   0  0  0  0  0  0  0  0  0  0  0  0
   19.6092   -7.4820  -16.6150 C   0  0  0  0  0  0  0  0  0  0  0  0
   19.6236   -7.3975  -17.8674 O   0  0  0  0  0  0  0  0  0  0  0  0
   19.1890   -6.3960  -15.8237 N   0  0  0  0  0  0  0  0  0  0  0  0
   18.7774   -5.1163  -16.3871 C   0  0  0  0  0  0  0  0  0  0  0  0
   19.8744   -4.1362  -16.3196 C   0  0  0  0  0  0  0  0  0  0  0  0
   20.9876   -4.5142  -15.8716 O   0  0  0  0  0  0  0  0  0  0  0  0
   19.7655   -2.8291  -16.7144 O   0  0  0  0  0  0  0  0  0  0  0  0
  1  2  1  0
  3  4  1  0
  3  2  1  0
  5  7  1  0
  5  6  1  6
  5  4  1  0
  7  8  2  0
  9 10  1  0
 10 12  1  0
 11 10  2  0
 12 13  1  0
 14 13  1  6
 14 16  1  0
 15 14  1  0
 15  7  1  0
 16 17  2  0
 16 18  1  0
 18 19  1  0
 19 20  1  0
 20 21  2  0
 20 22  1  0
M  END
$$$$
