MQG.pdb
     RDKit          3D

 22 21  0  0  1  0  0  0  0  0999 V2000
   27.3884  -17.1108  -16.6692 C   0  0  0  0  0  0  0  0  0  0  0  0
   28.8776  -18.1189  -16.7689 S   0  0  0  0  0  0  0  0  0  0  0  0
   28.4575  -19.8940  -16.8816 C   0  0  0  0  0  0  0  0  0  0  0  0
   27.6147  -20.2296  -15.6716 C   0  0  0  0  0  0  0  0  0  0  0  0
   26.2108  -20.5053  -16.1653 C   0  0  2  0  0  0  0  0  0  0  0  0
   25.6314  -19.3009  -16.7231 N   0  0  0  0  0  0  0  0  0  0  0  0
   25.3348  -21.0614  -15.1294 C   0  0  0  0  0  0  0  0  0  0  0  0
   25.5977  -22.1868  -14.6436 O   0  0  0  0  0  0  0  0  0  0  0  0
   25.8348  -21.8772  -10.5040 N   0  0  0  0  0  0  0  0  0  0  0  0
   24.6617  -21.1097  -10.6756 C   0  0  0  0  0  0  0  0  0  0  0  0
   23.6606  -21.3207   -9.9663 O   0  0  0  0  0  0  0  0  0  0  0  0
   24.6309  -20.0550  -11.7026 C   0  0  0  0  0  0  0  0  0  0  0  0
   23.3091  -20.0764  -12.3995 C   0  0  0  0  0  0  0  0  0  0  0  0
   23.3095  -20.9754  -13.6208 C   0  0  2  0  0  0  0  0  0  0  0  0
   24.1823  -20.4007  -14.6246 N   0  0  0  0  0  0  0  0  0  0  0  0
   21.9289  -21.1611  -14.1276 C   0  0  0  0  0  0  0  0  0  0  0  0
   21.4791  -20.3869  -15.0074 O   0  0  0  0  0  0  0  0  0  0  0  0
   21.1378  -22.2065  -13.6142 N   0  0  0  0  0  0  0  0  0  0  0  0
   19.7560  -22.4291  -14.0211 C   0  0  0  0  0  0  0  0  0  0  0  0
   18.8936  -21.3209  -13.5776 C   0  0  0  0  0  0  0  0  0  0  0  0
   19.2719  -20.6217  -12.6025 O   0  0  0  0  0  0  0  0  0  0  0  0
   17.6966  -20.9958  -14.1588 O   0  0  0  0  0  0  0  0  0  0  0  0
  1  2  1  0
  3  4  1  0
  3  2  1  0
  5  7  1  0
  5  6  1  1
  5  4  1  0
  7  8  2  0
  9 10  1  0
 10 12  1  0
 11 10  2  0
 12 13  1  0
 14 13  1  1
 14 16  1  0
 15 14  1  0
 15  7  1  0
 16 17  2  0
 16 18  1  0
 18 19  1  0
 19 20  1  0
 20 21  2  0
 20 22  1  0
M  END
$$$$
