MQG.pdb
     RDKit          3D

 22 21  0  0  1  0  0  0  0  0999 V2000
   27.4893  -15.2447  -15.1850 C   0  0  0  0  0  0  0  0  0  0  0  0
   26.7585  -13.5989  -15.2149 S   0  0  0  0  0  0  0  0  0  0  0  0
   25.0855  -13.6411  -15.9493 C   0  0  0  0  0  0  0  0  0  0  0  0
   24.5287  -12.2373  -15.8691 C   0  0  0  0  0  0  0  0  0  0  0  0
   23.1248  -12.2788  -16.4332 C   0  0  2  0  0  0  0  0  0  0  0  0
   23.1361  -12.8583  -17.7604 N   0  0  0  0  0  0  0  0  0  0  0  0
   22.4738  -10.9653  -16.4547 C   0  0  0  0  0  0  0  0  0  0  0  0
   22.6025  -10.2337  -17.4646 O   0  0  0  0  0  0  0  0  0  0  0  0
   16.3117   -7.4659  -15.2734 N   0  0  0  0  0  0  0  0  0  0  0  0
   17.2700   -8.5004  -15.1949 C   0  0  0  0  0  0  0  0  0  0  0  0
   16.9135   -9.6767  -14.9975 O   0  0  0  0  0  0  0  0  0  0  0  0
   18.6982   -8.1768  -15.3488 C   0  0  0  0  0  0  0  0  0  0  0  0
   19.5048   -9.4325  -15.2714 C   0  0  0  0  0  0  0  0  0  0  0  0
   20.9895   -9.1825  -15.4528 C   0  0  2  0  0  0  0  0  0  0  0  0
   21.6889  -10.4498  -15.3879 N   0  0  0  0  0  0  0  0  0  0  0  0
   21.4818   -8.2251  -14.4337 C   0  0  0  0  0  0  0  0  0  0  0  0
   21.8537   -8.6468  -13.3114 O   0  0  0  0  0  0  0  0  0  0  0  0
   21.5259   -6.8513  -14.7386 N   0  0  0  0  0  0  0  0  0  0  0  0
   21.9783   -5.8421  -13.7893 C   0  0  0  0  0  0  0  0  0  0  0  0
   22.0037   -4.5086  -14.4137 C   0  0  0  0  0  0  0  0  0  0  0  0
   21.6958   -4.4114  -15.6297 O   0  0  0  0  0  0  0  0  0  0  0  0
   22.3426   -3.3560  -13.7559 O   0  0  0  0  0  0  0  0  0  0  0  0
  1  2  1  0
  3  4  1  0
  3  2  1  0
  5  7  1  0
  5  6  1  6
  5  4  1  0
  7  8  2  0
  9 10  1  0
 10 12  1  0
 11 10  2  0
 12 13  1  0
 14 13  1  1
 14 16  1  0
 15 14  1  0
 15  7  1  0
 16 17  2  0
 16 18  1  0
 18 19  1  0
 19 20  1  0
 20 21  2  0
 20 22  1  0
M  END
$$$$
