MQG.pdb
     RDKit          3D

 22 21  0  0  1  0  0  0  0  0999 V2000
   23.6912  -15.8926  -14.2888 C   0  0  0  0  0  0  0  0  0  0  0  0
   22.2795  -16.1727  -15.3717 S   0  0  0  0  0  0  0  0  0  0  0  0
   21.6539  -14.5950  -16.0494 C   0  0  0  0  0  0  0  0  0  0  0  0
   22.5958  -13.5066  -15.5853 C   0  0  0  0  0  0  0  0  0  0  0  0
   22.1253  -12.2103  -16.2091 C   0  0  2  0  0  0  0  0  0  0  0  0
   22.3240  -12.2446  -17.6433 N   0  0  0  0  0  0  0  0  0  0  0  0
   22.7696  -11.0264  -15.6321 C   0  0  0  0  0  0  0  0  0  0  0  0
   22.5301  -10.7174  -14.4410 O   0  0  0  0  0  0  0  0  0  0  0  0
   27.5722  -10.5548  -17.5076 N   0  0  0  0  0  0  0  0  0  0  0  0
   27.2679  -11.2120  -16.2950 C   0  0  0  0  0  0  0  0  0  0  0  0
   27.7942  -12.3065  -16.0216 O   0  0  0  0  0  0  0  0  0  0  0  0
   26.3208  -10.5915  -15.3537 C   0  0  0  0  0  0  0  0  0  0  0  0
   25.8597   -9.2802  -15.9024 C   0  0  0  0  0  0  0  0  0  0  0  0
   24.3672   -9.0713  -15.7340 C   0  0  2  0  0  0  0  0  0  0  0  0
   23.6672  -10.1844  -16.3428 N   0  0  0  0  0  0  0  0  0  0  0  0
   23.9568   -7.7722  -16.3186 C   0  0  0  0  0  0  0  0  0  0  0  0
   24.7855   -7.0951  -16.9746 O   0  0  0  0  0  0  0  0  0  0  0  0
   22.6391   -7.3136  -16.1298 N   0  0  0  0  0  0  0  0  0  0  0  0
   22.3265   -6.0284  -15.5174 C   0  0  0  0  0  0  0  0  0  0  0  0
   22.3514   -4.9498  -16.5199 C   0  0  0  0  0  0  0  0  0  0  0  0
   22.8068   -5.2070  -17.6641 O   0  0  0  0  0  0  0  0  0  0  0  0
   21.9087   -3.6741  -16.2904 O   0  0  0  0  0  0  0  0  0  0  0  0
  1  2  1  0
  3  4  1  0
  3  2  1  0
  5  7  1  0
  5  6  1  6
  5  4  1  0
  7  8  2  0
  9 10  1  0
 10 12  1  0
 11 10  2  0
 12 13  1  0
 14 13  1  6
 14 16  1  0
 15 14  1  0
 15  7  1  0
 16 17  2  0
 16 18  1  0
 18 19  1  0
 19 20  1  0
 20 21  2  0
 20 22  1  0
M  END
$$$$
