MQG.pdb
     RDKit          3D

 22 21  0  0  1  0  0  0  0  0999 V2000
   23.6799  -10.1685  -14.0342 C   0  0  0  0  0  0  0  0  0  0  0  0
   22.3335   -9.0482  -13.6147 S   0  0  0  0  0  0  0  0  0  0  0  0
   20.7241   -9.7369  -14.1396 C   0  0  0  0  0  0  0  0  0  0  0  0
   19.6570   -8.7603  -13.6984 C   0  0  0  0  0  0  0  0  0  0  0  0
   18.3171   -9.4248  -13.9313 C   0  0  2  0  0  0  0  0  0  0  0  0
   18.1537   -9.7422  -15.3348 N   0  0  0  0  0  0  0  0  0  0  0  0
   17.1861   -8.6233  -13.4535 C   0  0  0  0  0  0  0  0  0  0  0  0
   16.4571   -8.0343  -14.2861 O   0  0  0  0  0  0  0  0  0  0  0  0
   12.4898  -11.4880  -10.7991 N   0  0  0  0  0  0  0  0  0  0  0  0
   13.4038  -10.5057  -10.3578 C   0  0  0  0  0  0  0  0  0  0  0  0
   13.5619  -10.2924   -9.1416 O   0  0  0  0  0  0  0  0  0  0  0  0
   14.1705   -9.7334  -11.3496 C   0  0  0  0  0  0  0  0  0  0  0  0
   14.9074   -8.6306  -10.6610 C   0  0  0  0  0  0  0  0  0  0  0  0
   15.6724   -7.7488  -11.6290 C   0  0  2  0  0  0  0  0  0  0  0  0
   16.8492   -8.4625  -12.0823 N   0  0  0  0  0  0  0  0  0  0  0  0
   16.0198   -6.4574  -10.9893 C   0  0  0  0  0  0  0  0  0  0  0  0
   15.1120   -5.6363  -10.7110 O   0  0  0  0  0  0  0  0  0  0  0  0
   17.3672   -6.1677  -10.7016 N   0  0  0  0  0  0  0  0  0  0  0  0
   17.8224   -4.8492  -10.2787 C   0  0  0  0  0  0  0  0  0  0  0  0
   17.8016   -4.7330   -8.8108 C   0  0  0  0  0  0  0  0  0  0  0  0
   17.3699   -5.7057   -8.1397 O   0  0  0  0  0  0  0  0  0  0  0  0
   18.2237   -3.6287   -8.1191 O   0  0  0  0  0  0  0  0  0  0  0  0
  1  2  1  0
  3  4  1  0
  3  2  1  0
  5  7  1  0
  5  6  1  6
  5  4  1  0
  7  8  2  0
  9 10  1  0
 10 12  1  0
 11 10  2  0
 12 13  1  0
 14 13  1  1
 14 16  1  0
 15 14  1  0
 15  7  1  0
 16 17  2  0
 16 18  1  0
 18 19  1  0
 19 20  1  0
 20 21  2  0
 20 22  1  0
M  END
$$$$
