MQG.pdb
     RDKit          3D

 22 21  0  0  1  0  0  0  0  0999 V2000
   27.0379  -17.9955   -6.4082 C   0  0  0  0  0  0  0  0  0  0  0  0
   28.1831  -19.3499   -6.7212 S   0  0  0  0  0  0  0  0  0  0  0  0
   27.3999  -20.6423   -7.7490 C   0  0  0  0  0  0  0  0  0  0  0  0
   26.5676  -19.9354   -8.7952 C   0  0  0  0  0  0  0  0  0  0  0  0
   25.8215  -21.0004   -9.5696 C   0  0  2  0  0  0  0  0  0  0  0  0
   26.6455  -22.1825   -9.7151 N   0  0  0  0  0  0  0  0  0  0  0  0
   25.3545  -20.5385  -10.8804 C   0  0  0  0  0  0  0  0  0  0  0  0
   24.7608  -19.4377  -10.9667 O   0  0  0  0  0  0  0  0  0  0  0  0
   26.2501  -19.4306  -15.7270 N   0  0  0  0  0  0  0  0  0  0  0  0
   27.3237  -20.2085  -15.2403 C   0  0  0  0  0  0  0  0  0  0  0  0
   28.4991  -19.8289  -15.3961 O   0  0  0  0  0  0  0  0  0  0  0  0
   27.0422  -21.4757  -14.5453 C   0  0  0  0  0  0  0  0  0  0  0  0
   25.5643  -21.6821  -14.4642 C   0  0  0  0  0  0  0  0  0  0  0  0
   24.9252  -20.8802  -13.3470 C   0  0  2  0  0  0  0  0  0  0  0  0
   25.5307  -21.2661  -12.0885 N   0  0  0  0  0  0  0  0  0  0  0  0
   23.4565  -21.0812  -13.3399 C   0  0  0  0  0  0  0  0  0  0  0  0
   22.9736  -22.1272  -12.8416 O   0  0  0  0  0  0  0  0  0  0  0  0
   22.6200  -20.0935  -13.8938 N   0  0  0  0  0  0  0  0  0  0  0  0
   21.1938  -20.0085  -13.6050 C   0  0  0  0  0  0  0  0  0  0  0  0
   20.5880  -18.8535  -14.2889 C   0  0  0  0  0  0  0  0  0  0  0  0
   19.3525  -18.6587  -14.1538 O   0  0  0  0  0  0  0  0  0  0  0  0
   21.2835  -17.9683  -15.0693 O   0  0  0  0  0  0  0  0  0  0  0  0
  1  2  1  0
  3  4  1  0
  3  2  1  0
  5  7  1  0
  5  6  1  6
  5  4  1  0
  7  8  2  0
  9 10  1  0
 10 12  1  0
 11 10  2  0
 12 13  1  0
 14 13  1  6
 14 16  1  0
 15 14  1  0
 15  7  1  0
 16 17  2  0
 16 18  1  0
 18 19  1  0
 19 20  1  0
 20 21  2  0
 20 22  1  0
M  END
$$$$
