MQG.pdb
     RDKit          3D

 22 21  0  0  1  0  0  0  0  0999 V2000
   29.6728  -13.1138  -15.8418 C   0  0  0  0  0  0  0  0  0  0  0  0
   28.5353  -11.7386  -16.0840 S   0  0  0  0  0  0  0  0  0  0  0  0
   26.8805  -12.3393  -16.5747 C   0  0  0  0  0  0  0  0  0  0  0  0
   25.9892  -11.1254  -16.7126 C   0  0  0  0  0  0  0  0  0  0  0  0
   24.6155  -11.6205  -17.1109 C   0  0  2  0  0  0  0  0  0  0  0  0
   24.6570  -12.1953  -18.4395 N   0  0  0  0  0  0  0  0  0  0  0  0
   23.5845  -10.5807  -17.0358 C   0  0  0  0  0  0  0  0  0  0  0  0
   23.4143   -9.8145  -18.0134 O   0  0  0  0  0  0  0  0  0  0  0  0
   17.9981  -11.1461  -15.1248 N   0  0  0  0  0  0  0  0  0  0  0  0
   17.9656   -9.7835  -15.4948 C   0  0  0  0  0  0  0  0  0  0  0  0
   16.8783   -9.1923  -15.6296 O   0  0  0  0  0  0  0  0  0  0  0  0
   19.2307   -9.0648  -15.7207 C   0  0  0  0  0  0  0  0  0  0  0  0
   20.3699  -10.0302  -15.6609 C   0  0  0  0  0  0  0  0  0  0  0  0
   21.7144   -9.3567  -15.8570 C   0  0  2  0  0  0  0  0  0  0  0  0
   22.7446  -10.3744  -15.9081 N   0  0  0  0  0  0  0  0  0  0  0  0
   21.9622   -8.3711  -14.7778 C   0  0  0  0  0  0  0  0  0  0  0  0
   22.2036   -8.7710  -13.6127 O   0  0  0  0  0  0  0  0  0  0  0  0
   21.9236   -6.9953  -15.0746 N   0  0  0  0  0  0  0  0  0  0  0  0
   22.1653   -5.9613  -14.0761 C   0  0  0  0  0  0  0  0  0  0  0  0
   22.0578   -4.6197  -14.6739 C   0  0  0  0  0  0  0  0  0  0  0  0
   21.7797   -4.5304  -15.8976 O   0  0  0  0  0  0  0  0  0  0  0  0
   22.2415   -3.4513  -13.9830 O   0  0  0  0  0  0  0  0  0  0  0  0
  1  2  1  0
  3  4  1  0
  3  2  1  0
  5  7  1  0
  5  6  1  6
  5  4  1  0
  7  8  2  0
  9 10  1  0
 10 12  1  0
 11 10  2  0
 12 13  1  0
 14 13  1  1
 14 16  1  0
 15 14  1  0
 15  7  1  0
 16 17  2  0
 16 18  1  0
 18 19  1  0
 19 20  1  0
 20 21  2  0
 20 22  1  0
M  END
$$$$
