MQG.pdb
     RDKit          3D

 22 21  0  0  1  0  0  0  0  0999 V2000
   29.3233  -20.3856  -13.6515 C   0  0  0  0  0  0  0  0  0  0  0  0
   29.4064  -20.2970  -11.8545 S   0  0  0  0  0  0  0  0  0  0  0  0
   28.1820  -21.4169  -11.0886 C   0  0  0  0  0  0  0  0  0  0  0  0
   27.2069  -21.8184  -12.1726 C   0  0  0  0  0  0  0  0  0  0  0  0
   26.0989  -20.7874  -12.1836 C   0  0  2  0  0  0  0  0  0  0  0  0
   25.3976  -20.7937  -10.9165 N   0  0  0  0  0  0  0  0  0  0  0  0
   25.1550  -20.9682  -13.2909 C   0  0  0  0  0  0  0  0  0  0  0  0
   25.5644  -21.4520  -14.3726 O   0  0  0  0  0  0  0  0  0  0  0  0
   22.1508  -24.6910  -14.1370 N   0  0  0  0  0  0  0  0  0  0  0  0
   21.3139  -23.5533  -14.1408 C   0  0  0  0  0  0  0  0  0  0  0  0
   20.3777  -23.4618  -14.9563 O   0  0  0  0  0  0  0  0  0  0  0  0
   21.5572  -22.4729  -13.1705 C   0  0  0  0  0  0  0  0  0  0  0  0
   21.5142  -21.1540  -13.8719 C   0  0  0  0  0  0  0  0  0  0  0  0
   22.8797  -20.7092  -14.3590 C   0  0  2  0  0  0  0  0  0  0  0  0
   23.7771  -20.6264  -13.2244 N   0  0  0  0  0  0  0  0  0  0  0  0
   22.7770  -19.4178  -15.0796 C   0  0  0  0  0  0  0  0  0  0  0  0
   22.6517  -18.3507  -14.4306 O   0  0  0  0  0  0  0  0  0  0  0  0
   22.8216  -19.4049  -16.4868 N   0  0  0  0  0  0  0  0  0  0  0  0
   22.7024  -18.1835  -17.2732 C   0  0  0  0  0  0  0  0  0  0  0  0
   24.0255  -17.5831  -17.5135 C   0  0  0  0  0  0  0  0  0  0  0  0
   24.9161  -18.2925  -18.0487 O   0  0  0  0  0  0  0  0  0  0  0  0
   24.3566  -16.2936  -17.1915 O   0  0  0  0  0  0  0  0  0  0  0  0
  1  2  1  0
  3  4  1  0
  3  2  1  0
  5  7  1  0
  5  6  1  1
  5  4  1  0
  7  8  2  0
  9 10  1  0
 10 12  1  0
 11 10  2  0
 12 13  1  0
 14 13  1  1
 14 16  1  0
 15 14  1  0
 15  7  1  0
 16 17  2  0
 16 18  1  0
 18 19  1  0
 19 20  1  0
 20 21  2  0
 20 22  1  0
M  END
$$$$
