MQG.pdb
     RDKit          3D

 22 21  0  0  1  0  0  0  0  0999 V2000
   27.3312  -14.9623  -14.5096 C   0  0  0  0  0  0  0  0  0  0  0  0
   27.2031  -13.2309  -14.9886 S   0  0  0  0  0  0  0  0  0  0  0  0
   26.5822  -13.0715  -16.7000 C   0  0  0  0  0  0  0  0  0  0  0  0
   26.7142  -11.6158  -17.0877 C   0  0  0  0  0  0  0  0  0  0  0  0
   25.7349  -10.8348  -16.2380 C   0  0  2  0  0  0  0  0  0  0  0  0
   24.4323  -11.4670  -16.2677 N   0  0  0  0  0  0  0  0  0  0  0  0
   25.6283   -9.4260  -16.6300 C   0  0  0  0  0  0  0  0  0  0  0  0
   26.6632   -8.7193  -16.6645 O   0  0  0  0  0  0  0  0  0  0  0  0
   22.0590   -6.9264  -20.8134 N   0  0  0  0  0  0  0  0  0  0  0  0
   23.3244   -7.5343  -20.9685 C   0  0  0  0  0  0  0  0  0  0  0  0
   23.7123   -7.9056  -22.0917 O   0  0  0  0  0  0  0  0  0  0  0  0
   24.1843   -7.7265  -19.7888 C   0  0  0  0  0  0  0  0  0  0  0  0
   23.4761   -7.2307  -18.5698 C   0  0  0  0  0  0  0  0  0  0  0  0
   24.3085   -7.3817  -17.3113 C   0  0  2  0  0  0  0  0  0  0  0  0
   24.4074   -8.7893  -16.9817 N   0  0  0  0  0  0  0  0  0  0  0  0
   23.7193   -6.5932  -16.2028 C   0  0  0  0  0  0  0  0  0  0  0  0
   23.7899   -5.3401  -16.2239 O   0  0  0  0  0  0  0  0  0  0  0  0
   23.0864   -7.2620  -15.1378 N   0  0  0  0  0  0  0  0  0  0  0  0
   22.3026   -6.5715  -14.1212 C   0  0  0  0  0  0  0  0  0  0  0  0
   20.8621   -6.8002  -14.3243 C   0  0  0  0  0  0  0  0  0  0  0  0
   20.4149   -6.7909  -15.5002 O   0  0  0  0  0  0  0  0  0  0  0  0
   19.9671   -7.0243  -13.3119 O   0  0  0  0  0  0  0  0  0  0  0  0
  1  2  1  0
  3  4  1  0
  3  2  1  0
  5  7  1  0
  5  6  1  6
  5  4  1  0
  7  8  2  0
  9 10  1  0
 10 12  1  0
 11 10  2  0
 12 13  1  0
 14 13  1  6
 14 16  1  0
 15 14  1  0
 15  7  1  0
 16 17  2  0
 16 18  1  0
 18 19  1  0
 19 20  1  0
 20 21  2  0
 20 22  1  0
M  END
$$$$
