MQG.pdb
     RDKit          3D

 22 21  0  0  1  0  0  0  0  0999 V2000
   26.4427  -34.8393  -13.0000 C   0  0  0  0  0  0  0  0  0  0  0  0
   26.6128  -34.4249  -11.2555 S   0  0  0  0  0  0  0  0  0  0  0  0
   26.1307  -32.6893  -10.9471 C   0  0  0  0  0  0  0  0  0  0  0  0
   26.2532  -32.4510   -9.4587 C   0  0  0  0  0  0  0  0  0  0  0  0
   24.9984  -32.9973   -8.8123 C   0  0  2  0  0  0  0  0  0  0  0  0
   23.8730  -32.1301   -9.0933 N   0  0  0  0  0  0  0  0  0  0  0  0
   25.1374  -33.2021   -7.3672 C   0  0  0  0  0  0  0  0  0  0  0  0
   25.2057  -32.2049   -6.6104 O   0  0  0  0  0  0  0  0  0  0  0  0
   25.0528  -35.2569   -1.4216 N   0  0  0  0  0  0  0  0  0  0  0  0
   24.1384  -35.7618   -2.3722 C   0  0  0  0  0  0  0  0  0  0  0  0
   23.7008  -36.9229   -2.2715 O   0  0  0  0  0  0  0  0  0  0  0  0
   23.7051  -34.9026   -3.4866 C   0  0  0  0  0  0  0  0  0  0  0  0
   24.2201  -35.4590   -4.7745 C   0  0  0  0  0  0  0  0  0  0  0  0
   25.3908  -34.6670   -5.3238 C   0  0  2  0  0  0  0  0  0  0  0  0
   25.2019  -34.4798   -6.7482 N   0  0  0  0  0  0  0  0  0  0  0  0
   26.6689  -35.3536   -5.0199 C   0  0  0  0  0  0  0  0  0  0  0  0
   27.1706  -36.1372   -5.8624 O   0  0  0  0  0  0  0  0  0  0  0  0
   27.3054  -35.1172   -3.7865 N   0  0  0  0  0  0  0  0  0  0  0  0
   28.5846  -35.7159   -3.4262 C   0  0  0  0  0  0  0  0  0  0  0  0
   28.9835  -35.3213   -2.0646 C   0  0  0  0  0  0  0  0  0  0  0  0
   28.2738  -34.4816   -1.4530 O   0  0  0  0  0  0  0  0  0  0  0  0
   30.0842  -35.8099   -1.4120 O   0  0  0  0  0  0  0  0  0  0  0  0
  1  2  1  0
  3  4  1  0
  3  2  1  0
  5  7  1  0
  5  6  1  1
  5  4  1  0
  7  8  2  0
  9 10  1  0
 10 12  1  0
 11 10  2  0
 12 13  1  0
 14 13  1  6
 14 16  1  0
 15 14  1  0
 15  7  1  0
 16 17  2  0
 16 18  1  0
 18 19  1  0
 19 20  1  0
 20 21  2  0
 20 22  1  0
M  END
$$$$
