FTT.pdb
     RDKit          3D

 26 26  0  0  1  0  0  0  0  0999 V2000
   25.3579  -21.1381   -8.1315 N   0  0  0  0  0  0  0  0  0  0  0  0
   26.4061  -20.3534   -8.7558 C   0  0  1  0  0  0  0  0  0  0  0  0
   27.7686  -20.8018   -8.2537 C   0  0  0  0  0  0  0  0  0  0  0  0
   28.0252  -20.3772   -6.8566 C   0  0  0  0  0  0  0  0  0  0  0  0
   27.8027  -19.0787   -6.4572 C   0  0  0  0  0  0  0  0  0  0  0  0
   28.0573  -18.7319   -5.1462 C   0  0  0  0  0  0  0  0  0  0  0  0
   28.5270  -19.6291   -4.2098 C   0  0  0  0  0  0  0  0  0  0  0  0
   28.7322  -20.9164   -4.6647 C   0  0  0  0  0  0  0  0  0  0  0  0
   28.4932  -21.3125   -5.9634 C   0  0  0  0  0  0  0  0  0  0  0  0
   26.2481  -20.4339  -10.2050 C   0  0  0  0  0  0  0  0  0  0  0  0
   27.2137  -20.1114  -10.9494 O   0  0  0  0  0  0  0  0  0  0  0  0
   25.8961  -22.9270  -12.5842 C   0  0  0  0  0  0  0  0  0  0  0  0
   24.6617  -22.1108  -12.8340 C   0  0  1  0  0  0  0  0  0  0  0  0
   23.5132  -22.6951  -12.3405 O   0  0  0  0  0  0  0  0  0  0  0  0
   24.8426  -20.6745  -12.3088 C   0  0  2  0  0  0  0  0  0  0  0  0
   25.0792  -20.8532  -10.8883 N   0  0  0  0  0  0  0  0  0  0  0  0
   23.6257  -19.9231  -12.6060 C   0  0  0  0  0  0  0  0  0  0  0  0
   22.6882  -19.6962  -11.7832 O   0  0  0  0  0  0  0  0  0  0  0  0
   23.4876  -16.6174  -15.2327 C   0  0  0  0  0  0  0  0  0  0  0  0
   22.5161  -17.7443  -15.4777 C   0  0  1  0  0  0  0  0  0  0  0  0
   23.0851  -18.5725  -16.4567 O   0  0  0  0  0  0  0  0  0  0  0  0
   22.2947  -18.5926  -14.2590 C   0  0  2  0  0  0  0  0  0  0  0  0
   23.4428  -19.3890  -13.9060 N   0  0  0  0  0  0  0  0  0  0  0  0
   21.1182  -19.4379  -14.4763 C   0  0  0  0  0  0  0  0  0  0  0  0
   21.1453  -20.8020  -14.6398 O   0  0  0  0  0  0  0  0  0  0  0  0
   19.9638  -18.8917  -14.5219 O   0  0  0  0  0  0  0  0  0  0  0  0
  2  1  1  1
  3  2  1  0
  4  3  1  0
  5  4  2  0
  6  5  1  0
  7  6  2  0
  7  8  1  0
  8  9  2  0
  9  4  1  0
 10  2  1  0
 10 11  2  0
 13 12  1  1
 13 15  1  0
 13 14  1  0
 15 16  1  1
 16 10  1  0
 17 15  1  0
 18 17  2  0
 20 21  1  0
 20 19  1  1
 22 20  1  0
 22 23  1  6
 23 17  1  0
 24 25  1  0
 24 22  1  0
 26 24  2  0
M  END
$$$$
