FTT.pdb
     RDKit          3D

 26 26  0  0  1  0  0  0  0  0999 V2000
   15.2046  -15.1123    4.7320 N   0  0  0  0  0  0  0  0  0  0  0  0
   16.2724  -16.0407    4.4121 C   0  0  1  0  0  0  0  0  0  0  0  0
   17.5768  -15.5788    5.0404 C   0  0  0  0  0  0  0  0  0  0  0  0
   18.1385  -14.3841    4.3657 C   0  0  0  0  0  0  0  0  0  0  0  0
   18.5615  -14.4414    3.0568 C   0  0  0  0  0  0  0  0  0  0  0  0
   19.0778  -13.3028    2.4731 C   0  0  0  0  0  0  0  0  0  0  0  0
   19.1916  -12.1017    3.1416 C   0  0  0  0  0  0  0  0  0  0  0  0
   18.7526  -12.1014    4.4505 C   0  0  0  0  0  0  0  0  0  0  0  0
   18.2293  -13.2115    5.0787 C   0  0  0  0  0  0  0  0  0  0  0  0
   15.8591  -17.3824    4.8132 C   0  0  0  0  0  0  0  0  0  0  0  0
   15.0496  -17.5178    5.7707 O   0  0  0  0  0  0  0  0  0  0  0  0
   14.2278  -20.1547    2.9324 C   0  0  0  0  0  0  0  0  0  0  0  0
   15.5304  -20.6882    3.4528 C   0  0  1  0  0  0  0  0  0  0  0  0
   16.5268  -20.7183    2.4988 O   0  0  0  0  0  0  0  0  0  0  0  0
   15.9696  -19.9195    4.7129 C   0  0  2  0  0  0  0  0  0  0  0  0
   16.2881  -18.5940    4.2157 N   0  0  0  0  0  0  0  0  0  0  0  0
   17.1156  -20.6136    5.2949 C   0  0  0  0  0  0  0  0  0  0  0  0
   18.3276  -20.2722    5.1483 O   0  0  0  0  0  0  0  0  0  0  0  0
   18.0120  -21.2903    8.9739 C   0  0  0  0  0  0  0  0  0  0  0  0
   17.7612  -22.5839    8.2407 C   0  0  1  0  0  0  0  0  0  0  0  0
   16.4128  -22.9154    8.4407 O   0  0  0  0  0  0  0  0  0  0  0  0
   17.9679  -22.4587    6.7590 C   0  0  2  0  0  0  0  0  0  0  0  0
   16.8951  -21.7636    6.0934 N   0  0  0  0  0  0  0  0  0  0  0  0
   18.1569  -23.7958    6.1913 C   0  0  0  0  0  0  0  0  0  0  0  0
   19.1967  -24.6420    6.4931 O   0  0  0  0  0  0  0  0  0  0  0  0
   17.3044  -24.2358    5.3472 O   0  0  0  0  0  0  0  0  0  0  0  0
  2  1  1  1
  3  2  1  0
  4  3  1  0
  5  4  2  0
  6  5  1  0
  7  6  2  0
  7  8  1  0
  8  9  2  0
  9  4  1  0
 10  2  1  0
 10 11  2  0
 13 12  1  6
 13 15  1  0
 13 14  1  0
 15 16  1  6
 16 10  1  0
 17 15  1  0
 18 17  2  0
 20 21  1  0
 20 19  1  1
 22 20  1  0
 22 23  1  6
 23 17  1  0
 24 25  1  0
 24 22  1  0
 26 24  2  0
M  END
$$$$
