FTT.pdb
     RDKit          3D

 26 26  0  0  1  0  0  0  0  0999 V2000
   25.1026  -21.4984   -8.0772 N   0  0  0  0  0  0  0  0  0  0  0  0
   25.3753  -20.5044   -9.0979 C   0  0  1  0  0  0  0  0  0  0  0  0
   26.8741  -20.3057   -9.2516 C   0  0  0  0  0  0  0  0  0  0  0  0
   27.5164  -19.8484   -7.9961 C   0  0  0  0  0  0  0  0  0  0  0  0
   28.6278  -20.4870   -7.4939 C   0  0  0  0  0  0  0  0  0  0  0  0
   29.1892  -20.0244   -6.3215 C   0  0  0  0  0  0  0  0  0  0  0  0
   28.6877  -18.9458   -5.6232 C   0  0  0  0  0  0  0  0  0  0  0  0
   27.5730  -18.3437   -6.1719 C   0  0  0  0  0  0  0  0  0  0  0  0
   26.9754  -18.7676   -7.3397 C   0  0  0  0  0  0  0  0  0  0  0  0
   24.6968  -20.9015  -10.3283 C   0  0  0  0  0  0  0  0  0  0  0  0
   24.9443  -22.0308  -10.8319 O   0  0  0  0  0  0  0  0  0  0  0  0
   21.3965  -21.7731  -10.5977 C   0  0  0  0  0  0  0  0  0  0  0  0
   21.5286  -20.6590  -11.5945 C   0  0  1  0  0  0  0  0  0  0  0  0
   21.1222  -19.4360  -11.1016 O   0  0  0  0  0  0  0  0  0  0  0  0
   22.9601  -20.5998  -12.1592 C   0  0  2  0  0  0  0  0  0  0  0  0
   23.7528  -20.1213  -11.0419 N   0  0  0  0  0  0  0  0  0  0  0  0
   22.9620  -19.6932  -13.3045 C   0  0  0  0  0  0  0  0  0  0  0  0
   23.3973  -18.5026  -13.2928 O   0  0  0  0  0  0  0  0  0  0  0  0
   24.6688  -20.1842  -16.6401 C   0  0  0  0  0  0  0  0  0  0  0  0
   23.1900  -20.0158  -16.8819 C   0  0  1  0  0  0  0  0  0  0  0  0
   22.6424  -21.3025  -16.9948 O   0  0  0  0  0  0  0  0  0  0  0  0
   22.4902  -19.3392  -15.7389 C   0  0  2  0  0  0  0  0  0  0  0  0
   22.4451  -20.1446  -14.5447 N   0  0  0  0  0  0  0  0  0  0  0  0
   21.1411  -18.9600  -16.1657 C   0  0  0  0  0  0  0  0  0  0  0  0
   20.8522  -18.0730  -17.1747 O   0  0  0  0  0  0  0  0  0  0  0  0
   20.1356  -19.4785  -15.5716 O   0  0  0  0  0  0  0  0  0  0  0  0
  2  1  1  1
  3  2  1  0
  4  3  1  0
  5  4  2  0
  6  5  1  0
  7  6  2  0
  7  8  1  0
  8  9  2  0
  9  4  1  0
 10  2  1  0
 10 11  2  0
 13 12  1  1
 13 15  1  0
 13 14  1  0
 15 16  1  1
 16 10  1  0
 17 15  1  0
 18 17  2  0
 20 21  1  0
 20 19  1  1
 22 20  1  0
 22 23  1  1
 23 17  1  0
 24 25  1  0
 24 22  1  0
 26 24  2  0
M  END
$$$$
