FTT.pdb
     RDKit          3D

 26 26  0  0  1  0  0  0  0  0999 V2000
   21.4964  -12.9009  -17.4383 N   0  0  0  0  0  0  0  0  0  0  0  0
   21.0287  -11.5938  -17.8592 C   0  0  1  0  0  0  0  0  0  0  0  0
   19.5261  -11.6203  -18.0848 C   0  0  0  0  0  0  0  0  0  0  0  0
   19.1397  -12.4873  -19.2237 C   0  0  0  0  0  0  0  0  0  0  0  0
   19.4044  -12.1136  -20.5219 C   0  0  0  0  0  0  0  0  0  0  0  0
   19.0245  -12.9544  -21.5479 C   0  0  0  0  0  0  0  0  0  0  0  0
   18.3880  -14.1593  -21.3347 C   0  0  0  0  0  0  0  0  0  0  0  0
   18.1477  -14.4837  -20.0144 C   0  0  0  0  0  0  0  0  0  0  0  0
   18.5072  -13.6787  -18.9546 C   0  0  0  0  0  0  0  0  0  0  0  0
   21.4676  -10.6041  -16.8795 C   0  0  0  0  0  0  0  0  0  0  0  0
   21.2584  -10.8150  -15.6539 O   0  0  0  0  0  0  0  0  0  0  0  0
   24.5171   -9.8646  -15.6758 C   0  0  0  0  0  0  0  0  0  0  0  0
   24.0812   -8.5201  -16.1807 C   0  0  1  0  0  0  0  0  0  0  0  0
   24.6181   -8.1999  -17.4107 O   0  0  0  0  0  0  0  0  0  0  0  0
   22.5451   -8.4105  -16.1821 C   0  0  2  0  0  0  0  0  0  0  0  0
   22.1300   -9.3859  -17.1731 N   0  0  0  0  0  0  0  0  0  0  0  0
   22.1857   -7.0381  -16.5303 C   0  0  0  0  0  0  0  0  0  0  0  0
   22.1492   -6.5691  -17.7076 O   0  0  0  0  0  0  0  0  0  0  0  0
   19.0744   -5.4511  -16.4296 C   0  0  0  0  0  0  0  0  0  0  0  0
   19.9272   -4.5935  -15.5290 C   0  0  1  0  0  0  0  0  0  0  0  0
   19.6689   -4.9977  -14.2106 O   0  0  0  0  0  0  0  0  0  0  0  0
   21.3967   -4.7864  -15.7679 C   0  0  2  0  0  0  0  0  0  0  0  0
   21.8438   -6.1296  -15.4977 N   0  0  0  0  0  0  0  0  0  0  0  0
   22.1403   -3.8152  -14.9619 C   0  0  0  0  0  0  0  0  0  0  0  0
   22.0643   -2.4502  -15.1014 O   0  0  0  0  0  0  0  0  0  0  0  0
   22.9285   -4.2415  -14.0509 O   0  0  0  0  0  0  0  0  0  0  0  0
  2  1  1  1
  3  2  1  0
  4  3  1  0
  5  4  2  0
  6  5  1  0
  7  6  2  0
  7  8  1  0
  8  9  2  0
  9  4  1  0
 10  2  1  0
 10 11  2  0
 13 12  1  6
 13 15  1  0
 13 14  1  0
 15 16  1  6
 16 10  1  0
 17 15  1  0
 18 17  2  0
 20 21  1  0
 20 19  1  6
 22 20  1  0
 22 23  1  1
 23 17  1  0
 24 25  1  0
 24 22  1  0
 26 24  2  0
M  END
$$$$
