FTT.pdb
     RDKit          3D

 26 26  0  0  1  0  0  0  0  0999 V2000
   22.7719  -13.2936  -17.3768 N   0  0  0  0  0  0  0  0  0  0  0  0
   23.2696  -12.3645  -16.3801 C   0  0  1  0  0  0  0  0  0  0  0  0
   24.7841  -12.2678  -16.4610 C   0  0  0  0  0  0  0  0  0  0  0  0
   25.4485  -13.5704  -16.2169 C   0  0  0  0  0  0  0  0  0  0  0  0
   25.4073  -14.1669  -14.9768 C   0  0  0  0  0  0  0  0  0  0  0  0
   26.0418  -15.3792  -14.7992 C   0  0  0  0  0  0  0  0  0  0  0  0
   26.7201  -16.0271  -15.8105 C   0  0  0  0  0  0  0  0  0  0  0  0
   26.7293  -15.3842  -17.0322 C   0  0  0  0  0  0  0  0  0  0  0  0
   26.1111  -14.1733  -17.2606 C   0  0  0  0  0  0  0  0  0  0  0  0
   22.5804  -11.0883  -16.5474 C   0  0  0  0  0  0  0  0  0  0  0  0
   22.3593  -10.6547  -17.7108 O   0  0  0  0  0  0  0  0  0  0  0  0
   19.2941  -10.2255  -16.0952 C   0  0  0  0  0  0  0  0  0  0  0  0
   20.0028   -9.2650  -15.1855 C   0  0  1  0  0  0  0  0  0  0  0  0
   19.9949   -9.6600  -13.8635 O   0  0  0  0  0  0  0  0  0  0  0  0
   21.4314   -8.9895  -15.6905 C   0  0  2  0  0  0  0  0  0  0  0  0
   22.1155  -10.2549  -15.4993 N   0  0  0  0  0  0  0  0  0  0  0  0
   21.9933   -7.8987  -14.8979 C   0  0  0  0  0  0  0  0  0  0  0  0
   22.5137   -8.0239  -13.7487 O   0  0  0  0  0  0  0  0  0  0  0  0
   24.4728   -5.0619  -16.2353 C   0  0  0  0  0  0  0  0  0  0  0  0
   23.2339   -4.4808  -15.6019 C   0  0  1  0  0  0  0  0  0  0  0  0
   22.3494   -4.1635  -16.6435 O   0  0  0  0  0  0  0  0  0  0  0  0
   22.5277   -5.4589  -14.7083 C   0  0  2  0  0  0  0  0  0  0  0  0
   21.9742   -6.5820  -15.4220 N   0  0  0  0  0  0  0  0  0  0  0  0
   21.4872   -4.7512  -13.9582 C   0  0  0  0  0  0  0  0  0  0  0  0
   20.1392   -5.0023  -14.0490 O   0  0  0  0  0  0  0  0  0  0  0  0
   21.8303   -3.8235  -13.1492 O   0  0  0  0  0  0  0  0  0  0  0  0
  2  1  1  6
  3  2  1  0
  4  3  1  0
  5  4  2  0
  6  5  1  0
  7  6  2  0
  7  8  1  0
  8  9  2  0
  9  4  1  0
 10  2  1  0
 10 11  2  0
 13 12  1  6
 13 15  1  0
 13 14  1  0
 15 16  1  1
 16 10  1  0
 17 15  1  0
 18 17  2  0
 20 21  1  0
 20 19  1  6
 22 20  1  0
 22 23  1  6
 23 17  1  0
 24 25  1  0
 24 22  1  0
 26 24  2  0
M  END
$$$$
