FTT.pdb
     RDKit          3D

 26 26  0  0  1  0  0  0  0  0999 V2000
   27.6867  -21.5988  -10.3124 N   0  0  0  0  0  0  0  0  0  0  0  0
   26.5085  -20.7526  -10.3222 C   0  0  1  0  0  0  0  0  0  0  0  0
   26.8351  -19.3893   -9.7356 C   0  0  0  0  0  0  0  0  0  0  0  0
   26.8967  -19.4101   -8.2544 C   0  0  0  0  0  0  0  0  0  0  0  0
   26.4687  -20.5074   -7.5417 C   0  0  0  0  0  0  0  0  0  0  0  0
   26.5453  -20.4786   -6.1643 C   0  0  0  0  0  0  0  0  0  0  0  0
   27.0333  -19.3965   -5.4619 C   0  0  0  0  0  0  0  0  0  0  0  0
   27.4483  -18.3245   -6.2266 C   0  0  0  0  0  0  0  0  0  0  0  0
   27.3922  -18.3043   -7.6039 C   0  0  0  0  0  0  0  0  0  0  0  0
   25.9798  -20.7058  -11.6824 C   0  0  0  0  0  0  0  0  0  0  0  0
   26.7795  -20.5983  -12.6515 O   0  0  0  0  0  0  0  0  0  0  0  0
   24.8959  -23.0599  -13.6782 C   0  0  0  0  0  0  0  0  0  0  0  0
   23.7001  -22.1537  -13.7155 C   0  0  1  0  0  0  0  0  0  0  0  0
   22.6663  -22.5824  -12.9085 O   0  0  0  0  0  0  0  0  0  0  0  0
   24.1064  -20.7021  -13.3999 C   0  0  2  0  0  0  0  0  0  0  0  0
   24.6100  -20.7719  -12.0408 N   0  0  0  0  0  0  0  0  0  0  0  0
   22.9237  -19.8564  -13.5396 C   0  0  0  0  0  0  0  0  0  0  0  0
   22.1794  -19.4784  -12.5855 O   0  0  0  0  0  0  0  0  0  0  0  0
   22.6788  -16.7164  -16.3116 C   0  0  0  0  0  0  0  0  0  0  0  0
   21.5557  -17.7225  -16.3221 C   0  0  1  0  0  0  0  0  0  0  0  0
   21.8467  -18.6535  -17.3305 O   0  0  0  0  0  0  0  0  0  0  0  0
   21.4520  -18.4875  -15.0345 C   0  0  2  0  0  0  0  0  0  0  0  0
   22.5469  -19.4016  -14.8280 N   0  0  0  0  0  0  0  0  0  0  0  0
   20.1684  -19.1926  -15.0031 C   0  0  0  0  0  0  0  0  0  0  0  0
   18.9353  -18.5869  -14.9727 O   0  0  0  0  0  0  0  0  0  0  0  0
   20.1642  -20.4704  -15.0032 O   0  0  0  0  0  0  0  0  0  0  0  0
  2  1  1  6
  3  2  1  0
  4  3  1  0
  5  4  2  0
  6  5  1  0
  7  6  2  0
  7  8  1  0
  8  9  2  0
  9  4  1  0
 10  2  1  0
 10 11  2  0
 13 12  1  1
 13 15  1  0
 13 14  1  0
 15 16  1  1
 16 10  1  0
 17 15  1  0
 18 17  2  0
 20 21  1  0
 20 19  1  1
 22 20  1  0
 22 23  1  6
 23 17  1  0
 24 25  1  0
 24 22  1  0
 26 24  2  0
M  END
$$$$
