FTT.pdb
     RDKit          3D

 26 26  0  0  1  0  0  0  0  0999 V2000
   19.2266   -2.8440  -20.1322 N   0  0  0  0  0  0  0  0  0  0  0  0
   18.6895   -3.3748  -18.8936 C   0  0  1  0  0  0  0  0  0  0  0  0
   17.4193   -4.1634  -19.1663 C   0  0  0  0  0  0  0  0  0  0  0  0
   16.2827   -3.2917  -19.5485 C   0  0  0  0  0  0  0  0  0  0  0  0
   15.8342   -3.2396  -20.8491 C   0  0  0  0  0  0  0  0  0  0  0  0
   14.7734   -2.4122  -21.1555 C   0  0  0  0  0  0  0  0  0  0  0  0
   14.1360   -1.6292  -20.2157 C   0  0  0  0  0  0  0  0  0  0  0  0
   14.6266   -1.7207  -18.9285 C   0  0  0  0  0  0  0  0  0  0  0  0
   15.6830   -2.5315  -18.5717 C   0  0  0  0  0  0  0  0  0  0  0  0
   19.7355   -4.1416  -18.2229 C   0  0  0  0  0  0  0  0  0  0  0  0
   20.5062   -4.8655  -18.9101 O   0  0  0  0  0  0  0  0  0  0  0  0
   22.4526   -2.9497  -16.1091 C   0  0  0  0  0  0  0  0  0  0  0  0
   21.7494   -3.9835  -15.2790 C   0  0  1  0  0  0  0  0  0  0  0  0
   20.9313   -3.4398  -14.3100 O   0  0  0  0  0  0  0  0  0  0  0  0
   20.9889   -4.9777  -16.1762 C   0  0  2  0  0  0  0  0  0  0  0  0
   19.9849   -4.1571  -16.8277 N   0  0  0  0  0  0  0  0  0  0  0  0
   20.4241   -6.0214  -15.3244 C   0  0  0  0  0  0  0  0  0  0  0  0
   19.2765   -5.9839  -14.7870 O   0  0  0  0  0  0  0  0  0  0  0  0
   21.0362   -9.9668  -16.1286 C   0  0  0  0  0  0  0  0  0  0  0  0
   21.2801   -9.6102  -14.6839 C   0  0  1  0  0  0  0  0  0  0  0  0
   22.6673   -9.4788  -14.5210 O   0  0  0  0  0  0  0  0  0  0  0  0
   20.6662   -8.2948  -14.3009 C   0  0  2  0  0  0  0  0  0  0  0  0
   21.1892   -7.1837  -15.0552 N   0  0  0  0  0  0  0  0  0  0  0  0
   20.8517   -8.0848  -12.8631 C   0  0  0  0  0  0  0  0  0  0  0  0
   20.2868   -8.8530  -11.8736 O   0  0  0  0  0  0  0  0  0  0  0  0
   21.5910   -7.1199  -12.4690 O   0  0  0  0  0  0  0  0  0  0  0  0
  2  1  1  6
  3  2  1  0
  4  3  1  0
  5  4  2  0
  6  5  1  0
  7  6  2  0
  7  8  1  0
  8  9  2  0
  9  4  1  0
 10  2  1  0
 10 11  2  0
 13 12  1  6
 13 15  1  0
 13 14  1  0
 15 16  1  1
 16 10  1  0
 17 15  1  0
 18 17  2  0
 20 21  1  0
 20 19  1  6
 22 20  1  0
 22 23  1  6
 23 17  1  0
 24 25  1  0
 24 22  1  0
 26 24  2  0
M  END
$$$$
