FTT.pdb
     RDKit          3D

 26 26  0  0  1  0  0  0  0  0999 V2000
   26.9815  -21.8366   -8.1884 N   0  0  0  0  0  0  0  0  0  0  0  0
   25.9763  -20.8687   -8.5849 C   0  0  1  0  0  0  0  0  0  0  0  0
   25.6836  -19.9147   -7.4386 C   0  0  0  0  0  0  0  0  0  0  0  0
   26.8606  -19.7051   -6.5618 C   0  0  0  0  0  0  0  0  0  0  0  0
   27.8588  -18.8242   -6.9123 C   0  0  0  0  0  0  0  0  0  0  0  0
   28.9346  -18.6642   -6.0633 C   0  0  0  0  0  0  0  0  0  0  0  0
   29.0596  -19.3486   -4.8723 C   0  0  0  0  0  0  0  0  0  0  0  0
   28.0304  -20.2181   -4.5710 C   0  0  0  0  0  0  0  0  0  0  0  0
   26.9351  -20.4133   -5.3852 C   0  0  0  0  0  0  0  0  0  0  0  0
   26.4206  -20.2108   -9.8102 C   0  0  0  0  0  0  0  0  0  0  0  0
   27.5356  -19.6218   -9.8243 O   0  0  0  0  0  0  0  0  0  0  0  0
   28.4957  -20.3669  -11.5663 C   0  0  0  0  0  0  0  0  0  0  0  0
   27.4205  -20.5151  -12.6028 C   0  0  1  0  0  0  0  0  0  0  0  0
   27.0376  -21.8248  -12.8071 O   0  0  0  0  0  0  0  0  0  0  0  0
   26.2167  -19.6133  -12.2720 C   0  0  2  0  0  0  0  0  0  0  0  0
   25.7030  -20.1639  -11.0316 N   0  0  0  0  0  0  0  0  0  0  0  0
   25.2688  -19.6926  -13.3805 C   0  0  0  0  0  0  0  0  0  0  0  0
   24.2707  -20.4725  -13.4336 O   0  0  0  0  0  0  0  0  0  0  0  0
   22.7645  -17.3285  -14.6453 C   0  0  0  0  0  0  0  0  0  0  0  0
   23.7803  -17.5305  -15.7413 C   0  0  1  0  0  0  0  0  0  0  0  0
   24.7269  -16.5023  -15.6196 O   0  0  0  0  0  0  0  0  0  0  0  0
   24.5225  -18.8289  -15.6102 C   0  0  2  0  0  0  0  0  0  0  0  0
   25.4451  -18.8456  -14.5032 N   0  0  0  0  0  0  0  0  0  0  0  0
   25.2128  -19.1106  -16.8712 C   0  0  0  0  0  0  0  0  0  0  0  0
   24.5939  -19.3282  -18.0787 O   0  0  0  0  0  0  0  0  0  0  0  0
   26.4894  -19.1643  -16.8791 O   0  0  0  0  0  0  0  0  0  0  0  0
  2  1  1  1
  3  2  1  0
  4  3  1  0
  5  4  2  0
  6  5  1  0
  7  6  2  0
  7  8  1  0
  8  9  2  0
  9  4  1  0
 10  2  1  0
 10 11  2  0
 13 12  1  1
 13 15  1  0
 13 14  1  0
 15 16  1  1
 16 10  1  0
 17 15  1  0
 18 17  2  0
 20 21  1  0
 20 19  1  1
 22 20  1  0
 22 23  1  1
 23 17  1  0
 24 25  1  0
 24 22  1  0
 26 24  2  0
M  END
$$$$
