FTT.pdb
     RDKit          3D

 26 26  0  0  1  0  0  0  0  0999 V2000
   28.5709  -20.9656   -8.7975 N   0  0  0  0  0  0  0  0  0  0  0  0
   27.1914  -20.5774   -8.5725 C   0  0  1  0  0  0  0  0  0  0  0  0
   27.1258  -19.4019   -7.6115 C   0  0  0  0  0  0  0  0  0  0  0  0
   27.8179  -19.6790   -6.3299 C   0  0  0  0  0  0  0  0  0  0  0  0
   27.3396  -20.6291   -5.4560 C   0  0  0  0  0  0  0  0  0  0  0  0
   28.0184  -20.8501   -4.2752 C   0  0  0  0  0  0  0  0  0  0  0  0
   29.1608  -20.1607   -3.9254 C   0  0  0  0  0  0  0  0  0  0  0  0
   29.5954  -19.2205   -4.8382 C   0  0  0  0  0  0  0  0  0  0  0  0
   28.9532  -18.9626   -6.0306 C   0  0  0  0  0  0  0  0  0  0  0  0
   26.5610  -20.3269   -9.8655 C   0  0  0  0  0  0  0  0  0  0  0  0
   27.2202  -19.7474  -10.7709 O   0  0  0  0  0  0  0  0  0  0  0  0
   26.8806  -20.7157  -12.5113 C   0  0  0  0  0  0  0  0  0  0  0  0
   25.4555  -21.1865  -12.5116 C   0  0  1  0  0  0  0  0  0  0  0  0
   25.3310  -22.5463  -12.3139 O   0  0  0  0  0  0  0  0  0  0  0  0
   24.6162  -20.3833  -11.5006 C   0  0  2  0  0  0  0  0  0  0  0  0
   25.2360  -20.6814  -10.2228 N   0  0  0  0  0  0  0  0  0  0  0  0
   23.2308  -20.8368  -11.5952 C   0  0  0  0  0  0  0  0  0  0  0  0
   22.5290  -21.2479  -10.6228 O   0  0  0  0  0  0  0  0  0  0  0  0
   20.8437  -19.5843  -10.8772 C   0  0  0  0  0  0  0  0  0  0  0  0
   20.4472  -19.7461  -12.3230 C   0  0  1  0  0  0  0  0  0  0  0  0
   20.8392  -18.5761  -12.9905 O   0  0  0  0  0  0  0  0  0  0  0  0
   21.1521  -20.8906  -12.9917 C   0  0  2  0  0  0  0  0  0  0  0  0
   22.5857  -20.8304  -12.8572 N   0  0  0  0  0  0  0  0  0  0  0  0
   20.7600  -20.9306  -14.4026 C   0  0  0  0  0  0  0  0  0  0  0  0
   19.5276  -21.3207  -14.8689 O   0  0  0  0  0  0  0  0  0  0  0  0
   21.6094  -20.5811  -15.2909 O   0  0  0  0  0  0  0  0  0  0  0  0
  2  1  1  6
  3  2  1  0
  4  3  1  0
  5  4  2  0
  6  5  1  0
  7  6  2  0
  7  8  1  0
  8  9  2  0
  9  4  1  0
 10  2  1  0
 10 11  2  0
 13 12  1  1
 13 15  1  0
 13 14  1  0
 15 16  1  1
 16 10  1  0
 17 15  1  0
 18 17  2  0
 20 21  1  0
 20 19  1  1
 22 20  1  0
 22 23  1  6
 23 17  1  0
 24 25  1  0
 24 22  1  0
 26 24  2  0
M  END
$$$$
