FTT.pdb
     RDKit          3D

 26 26  0  0  1  0  0  0  0  0999 V2000
   33.5976  -26.5276  -16.7450 N   0  0  0  0  0  0  0  0  0  0  0  0
   34.7483  -25.7279  -17.1201 C   0  0  1  0  0  0  0  0  0  0  0  0
   36.0004  -26.2567  -16.4403 C   0  0  0  0  0  0  0  0  0  0  0  0
   35.9320  -26.1473  -14.9633 C   0  0  0  0  0  0  0  0  0  0  0  0
   35.7450  -27.2617  -14.1770 C   0  0  0  0  0  0  0  0  0  0  0  0
   35.6873  -27.1085  -12.8070 C   0  0  0  0  0  0  0  0  0  0  0  0
   35.8088  -25.8847  -12.1825 C   0  0  0  0  0  0  0  0  0  0  0  0
   35.9946  -24.8020  -13.0188 C   0  0  0  0  0  0  0  0  0  0  0  0
   36.0592  -24.9026  -14.3923 C   0  0  0  0  0  0  0  0  0  0  0  0
   34.8324  -25.6871  -18.5772 C   0  0  0  0  0  0  0  0  0  0  0  0
   34.4890  -26.7014  -19.2433 O   0  0  0  0  0  0  0  0  0  0  0  0
   32.9834  -23.6033  -20.9246 C   0  0  0  0  0  0  0  0  0  0  0  0
   34.4394  -23.3164  -21.1486 C   0  0  1  0  0  0  0  0  0  0  0  0
   34.8789  -22.1848  -20.4927 O   0  0  0  0  0  0  0  0  0  0  0  0
   35.2971  -24.5472  -20.8007 C   0  0  2  0  0  0  0  0  0  0  0  0
   35.2754  -24.5848  -19.3502 N   0  0  0  0  0  0  0  0  0  0  0  0
   36.6324  -24.3454  -21.3576 C   0  0  0  0  0  0  0  0  0  0  0  0
   37.5956  -23.7794  -20.7585 O   0  0  0  0  0  0  0  0  0  0  0  0
   37.5362  -25.8793  -25.3652 C   0  0  0  0  0  0  0  0  0  0  0  0
   38.5065  -25.8601  -24.2111 C   0  0  1  0  0  0  0  0  0  0  0  0
   39.7817  -25.6316  -24.7495 O   0  0  0  0  0  0  0  0  0  0  0  0
   38.2322  -24.7459  -23.2429 C   0  0  2  0  0  0  0  0  0  0  0  0
   36.9117  -24.8059  -22.6686 N   0  0  0  0  0  0  0  0  0  0  0  0
   38.4514  -23.4649  -23.9187 C   0  0  0  0  0  0  0  0  0  0  0  0
   39.6756  -22.9762  -24.3071 O   0  0  0  0  0  0  0  0  0  0  0  0
   37.4443  -22.7231  -24.1803 O   0  0  0  0  0  0  0  0  0  0  0  0
  2  1  1  6
  3  2  1  0
  4  3  1  0
  5  4  2  0
  6  5  1  0
  7  6  2  0
  7  8  1  0
  8  9  2  0
  9  4  1  0
 10  2  1  0
 10 11  2  0
 13 12  1  1
 13 15  1  0
 13 14  1  0
 15 16  1  1
 16 10  1  0
 17 15  1  0
 18 17  2  0
 20 21  1  0
 20 19  1  6
 22 20  1  0
 22 23  1  6
 23 17  1  0
 24 25  1  0
 24 22  1  0
 26 24  2  0
M  END
$$$$
