FTT.pdb
     RDKit          3D

 26 26  0  0  1  0  0  0  0  0999 V2000
   20.6873  -11.9553  -17.6999 N   0  0  0  0  0  0  0  0  0  0  0  0
   21.4918  -10.7586  -17.8578 C   0  0  1  0  0  0  0  0  0  0  0  0
   21.7933  -10.5176  -19.3276 C   0  0  0  0  0  0  0  0  0  0  0  0
   22.5853  -11.6163  -19.9308 C   0  0  0  0  0  0  0  0  0  0  0  0
   23.8850  -11.8506  -19.5420 C   0  0  0  0  0  0  0  0  0  0  0  0
   24.5812  -12.8847  -20.1334 C   0  0  0  0  0  0  0  0  0  0  0  0
   24.0346  -13.7009  -21.1017 C   0  0  0  0  0  0  0  0  0  0  0  0
   22.7291  -13.4210  -21.4530 C   0  0  0  0  0  0  0  0  0  0  0  0
   21.9914  -12.4002  -20.8923 C   0  0  0  0  0  0  0  0  0  0  0  0
   20.8099   -9.6484  -17.1987 C   0  0  0  0  0  0  0  0  0  0  0  0
   19.5991   -9.4211  -17.4684 O   0  0  0  0  0  0  0  0  0  0  0  0
   19.1278   -9.3100  -14.5259 C   0  0  0  0  0  0  0  0  0  0  0  0
   20.1996   -8.2896  -14.2760 C   0  0  1  0  0  0  0  0  0  0  0  0
   21.2479   -8.7743  -13.5211 O   0  0  0  0  0  0  0  0  0  0  0  0
   20.6868   -7.6753  -15.6015 C   0  0  2  0  0  0  0  0  0  0  0  0
   21.3882   -8.7670  -16.2512 N   0  0  0  0  0  0  0  0  0  0  0  0
   21.5461   -6.5363  -15.2883 C   0  0  0  0  0  0  0  0  0  0  0  0
   22.7829   -6.6069  -15.0190 O   0  0  0  0  0  0  0  0  0  0  0  0
   22.2844   -3.6678  -17.4964 C   0  0  0  0  0  0  0  0  0  0  0  0
   21.7270   -3.0890  -16.2204 C   0  0  1  0  0  0  0  0  0  0  0  0
   20.3707   -2.8147  -16.4511 O   0  0  0  0  0  0  0  0  0  0  0  0
   21.7912   -4.0529  -15.0712 C   0  0  2  0  0  0  0  0  0  0  0  0
   20.9894   -5.2330  -15.2753 N   0  0  0  0  0  0  0  0  0  0  0  0
   21.3951   -3.3567  -13.8448 C   0  0  0  0  0  0  0  0  0  0  0  0
   22.0557   -2.2830  -13.2978 O   0  0  0  0  0  0  0  0  0  0  0  0
   20.3589   -3.7569  -13.2132 O   0  0  0  0  0  0  0  0  0  0  0  0
  2  1  1  6
  3  2  1  0
  4  3  1  0
  5  4  2  0
  6  5  1  0
  7  6  2  0
  7  8  1  0
  8  9  2  0
  9  4  1  0
 10  2  1  0
 10 11  2  0
 13 12  1  6
 13 15  1  0
 13 14  1  0
 15 16  1  1
 16 10  1  0
 17 15  1  0
 18 17  2  0
 20 21  1  0
 20 19  1  6
 22 20  1  0
 22 23  1  6
 23 17  1  0
 24 25  1  0
 24 22  1  0
 26 24  2  0
M  END
$$$$
