ACI.pdb
     RDKit          3D

 20 19  0  0  1  0  0  0  0  0999 V2000
    7.4952  -12.9965   18.6692 C   0  0  0  0  0  0  0  0  0  0  0  0
    8.4589  -13.8156   19.4774 C   0  0  2  0  0  0  0  0  0  0  0  0
    8.8474  -14.9999   18.7404 N   0  0  0  0  0  0  0  0  0  0  0  0
    7.8388  -14.1964   20.7960 C   0  0  0  0  0  0  0  0  0  0  0  0
    7.4557  -13.3287   21.5955 O   0  0  0  0  0  0  0  0  0  0  0  0
    7.6843  -15.5501   21.1418 N   0  0  0  0  0  0  0  0  0  0  0  0
    7.0142  -15.9593   22.3809 C   0  0  1  0  0  0  0  0  0  0  0  0
    6.9039  -17.4694   22.3267 C   0  0  0  0  0  0  0  0  0  0  0  0
    6.2675  -18.1414   23.8618 S   0  0  0  0  0  0  0  0  0  0  0  0
    7.8275  -15.5381   23.5573 C   0  0  0  0  0  0  0  0  0  0  0  0
    9.0934  -15.5490   23.4191 O   0  0  0  0  0  0  0  0  0  0  0  0
    5.8522  -11.5299   26.4077 C   0  0  0  0  0  0  0  0  0  0  0  0
    6.8767  -12.3819   25.7732 C   0  0  0  0  0  0  0  0  0  0  0  0
    7.5030  -13.4803   26.5156 C   0  0  2  0  0  0  0  0  0  0  0  0
    8.4486  -12.8901   27.6051 C   0  0  0  0  0  0  0  0  0  0  0  0
    8.2136  -14.5729   25.8139 C   0  0  2  0  0  0  0  0  0  0  0  0
    7.2914  -15.1365   24.7828 N   0  0  0  0  0  0  0  0  0  0  0  0
    8.7207  -15.6862   26.6027 C   0  0  0  0  0  0  0  0  0  0  0  0
    8.0665  -16.6896   26.9548 O   0  0  0  0  0  0  0  0  0  0  0  0
   10.0594  -15.6695   27.0252 O   0  0  0  0  0  0  0  0  0  0  0  0
  2  1  1  6
  2  3  1  0
  4  2  1  0
  5  4  2  0
  6  4  1  0
  7  6  1  0
  7  8  1  6
  9  8  1  0
 10  7  1  0
 10 11  2  0
 12 13  1  0
 14 13  1  0
 14 16  1  0
 14 15  1  1
 16 17  1  6
 17 10  1  0
 18 16  1  0
 19 18  2  0
 20 18  1  0
M  END
$$$$
