ACI.pdb
     RDKit          3D

 20 19  0  0  1  0  0  0  0  0999 V2000
    9.7360  -17.9480   19.6835 C   0  0  0  0  0  0  0  0  0  0  0  0
    8.6574  -18.7953   20.2930 C   0  0  2  0  0  0  0  0  0  0  0  0
    7.8745  -19.4302   19.2534 N   0  0  0  0  0  0  0  0  0  0  0  0
    7.7743  -17.9553   21.1778 C   0  0  0  0  0  0  0  0  0  0  0  0
    6.8592  -17.2683   20.6986 O   0  0  0  0  0  0  0  0  0  0  0  0
    7.9760  -17.9378   22.5688 N   0  0  0  0  0  0  0  0  0  0  0  0
    7.0899  -17.1913   23.4685 C   0  0  1  0  0  0  0  0  0  0  0  0
    6.4091  -18.2214   24.3467 C   0  0  0  0  0  0  0  0  0  0  0  0
    7.3942  -18.6123   25.7924 S   0  0  0  0  0  0  0  0  0  0  0  0
    7.8921  -16.2475   24.2983 C   0  0  0  0  0  0  0  0  0  0  0  0
    9.1519  -16.4304   24.3279 O   0  0  0  0  0  0  0  0  0  0  0  0
    6.0041  -11.5873   27.3644 C   0  0  0  0  0  0  0  0  0  0  0  0
    6.3670  -12.8527   26.6972 C   0  0  0  0  0  0  0  0  0  0  0  0
    7.5752  -12.9451   25.8716 C   0  0  2  0  0  0  0  0  0  0  0  0
    7.2835  -12.3401   24.4651 C   0  0  0  0  0  0  0  0  0  0  0  0
    8.2867  -14.2311   25.6952 C   0  0  2  0  0  0  0  0  0  0  0  0
    7.3519  -15.1894   25.0326 N   0  0  0  0  0  0  0  0  0  0  0  0
    8.8252  -14.8908   26.8757 C   0  0  0  0  0  0  0  0  0  0  0  0
    8.3738  -15.9291   27.4020 O   0  0  0  0  0  0  0  0  0  0  0  0
    9.9522  -14.3434   27.5093 O   0  0  0  0  0  0  0  0  0  0  0  0
  2  1  1  6
  2  3  1  0
  4  2  1  0
  5  4  2  0
  6  4  1  0
  7  6  1  0
  7  8  1  1
  9  8  1  0
 10  7  1  0
 10 11  2  0
 12 13  1  0
 14 13  1  0
 14 16  1  0
 14 15  1  6
 16 17  1  1
 17 10  1  0
 18 16  1  0
 19 18  2  0
 20 18  1  0
M  END
$$$$
