ACI.pdb
     RDKit          3D

 20 19  0  0  1  0  0  0  0  0999 V2000
    7.4165  -13.0587   18.7120 C   0  0  0  0  0  0  0  0  0  0  0  0
    8.3601  -13.8785   19.5428 C   0  0  2  0  0  0  0  0  0  0  0  0
    8.7296  -15.0855   18.8332 N   0  0  0  0  0  0  0  0  0  0  0  0
    7.7260  -14.2192   20.8657 C   0  0  0  0  0  0  0  0  0  0  0  0
    7.3747  -13.3276   21.6536 O   0  0  0  0  0  0  0  0  0  0  0  0
    7.5220  -15.5617   21.2289 N   0  0  0  0  0  0  0  0  0  0  0  0
    6.8931  -15.9306   22.5019 C   0  0  1  0  0  0  0  0  0  0  0  0
    6.7575  -17.4396   22.4883 C   0  0  0  0  0  0  0  0  0  0  0  0
    8.2763  -18.2444   22.9971 S   0  0  0  0  0  0  0  0  0  0  0  0
    7.7570  -15.4952   23.6363 C   0  0  0  0  0  0  0  0  0  0  0  0
    8.9928  -15.3161   23.3869 O   0  0  0  0  0  0  0  0  0  0  0  0
    5.7938  -11.6576   26.5265 C   0  0  0  0  0  0  0  0  0  0  0  0
    6.8566  -12.4692   25.9021 C   0  0  0  0  0  0  0  0  0  0  0  0
    7.4811  -13.5765   26.6326 C   0  0  2  0  0  0  0  0  0  0  0  0
    8.3910  -13.0000   27.7592 C   0  0  0  0  0  0  0  0  0  0  0  0
    8.2249  -14.6410   25.9220 C   0  0  2  0  0  0  0  0  0  0  0  0
    7.2976  -15.2737   24.9366 N   0  0  0  0  0  0  0  0  0  0  0  0
    8.8228  -15.7097   26.7089 C   0  0  0  0  0  0  0  0  0  0  0  0
    9.9501  -15.6792   27.2448 O   0  0  0  0  0  0  0  0  0  0  0  0
    8.1009  -16.8974   26.9071 O   0  0  0  0  0  0  0  0  0  0  0  0
  2  1  1  6
  2  3  1  0
  4  2  1  0
  5  4  2  0
  6  4  1  0
  7  6  1  0
  7  8  1  6
  9  8  1  0
 10  7  1  0
 10 11  2  0
 12 13  1  0
 14 13  1  0
 14 16  1  0
 14 15  1  1
 16 17  1  6
 17 10  1  0
 18 16  1  0
 19 18  2  0
 20 18  1  0
M  END
$$$$
