ACI.pdb
     RDKit          3D

 20 19  0  0  1  0  0  0  0  0999 V2000
    8.3912  -12.3278   19.1042 C   0  0  0  0  0  0  0  0  0  0  0  0
    8.4306  -13.8114   18.8805 C   0  0  2  0  0  0  0  0  0  0  0  0
    7.7393  -14.1494   17.6538 N   0  0  0  0  0  0  0  0  0  0  0  0
    7.8095  -14.5299   20.0494 C   0  0  0  0  0  0  0  0  0  0  0  0
    6.5986  -14.7994   20.0628 O   0  0  0  0  0  0  0  0  0  0  0  0
    8.5988  -14.9080   21.1494 N   0  0  0  0  0  0  0  0  0  0  0  0
    8.0686  -15.7497   22.2276 C   0  0  1  0  0  0  0  0  0  0  0  0
    8.6200  -17.1412   21.9916 C   0  0  0  0  0  0  0  0  0  0  0  0
    8.3285  -18.2149   23.3972 S   0  0  0  0  0  0  0  0  0  0  0  0
    8.5237  -15.2257   23.5471 C   0  0  0  0  0  0  0  0  0  0  0  0
    9.7349  -14.8413   23.6303 O   0  0  0  0  0  0  0  0  0  0  0  0
    5.7194  -11.6597   26.2817 C   0  0  0  0  0  0  0  0  0  0  0  0
    6.7989  -12.5095   25.7426 C   0  0  0  0  0  0  0  0  0  0  0  0
    7.3299  -13.6317   26.5226 C   0  0  2  0  0  0  0  0  0  0  0  0
    7.9060  -13.0950   27.8678 C   0  0  0  0  0  0  0  0  0  0  0  0
    8.3030  -14.5806   25.9362 C   0  0  2  0  0  0  0  0  0  0  0  0
    7.7120  -15.1311   24.6797 N   0  0  0  0  0  0  0  0  0  0  0  0
    8.7414  -15.7089   26.7445 C   0  0  0  0  0  0  0  0  0  0  0  0
    8.1767  -16.8203   26.8147 O   0  0  0  0  0  0  0  0  0  0  0  0
    9.8979  -15.5777   27.5297 O   0  0  0  0  0  0  0  0  0  0  0  0
  2  1  1  1
  2  3  1  0
  4  2  1  0
  5  4  2  0
  6  4  1  0
  7  6  1  0
  7  8  1  6
  9  8  1  0
 10  7  1  0
 10 11  2  0
 12 13  1  0
 14 13  1  0
 14 16  1  0
 14 15  1  1
 16 17  1  6
 17 10  1  0
 18 16  1  0
 19 18  2  0
 20 18  1  0
M  END
$$$$
