ACI.pdb
     RDKit          3D

 20 19  0  0  1  0  0  0  0  0999 V2000
    8.4663  -15.5974   18.3412 C   0  0  0  0  0  0  0  0  0  0  0  0
    8.2982  -16.8557   19.1420 C   0  0  2  0  0  0  0  0  0  0  0  0
    7.6265  -17.8650   18.3501 N   0  0  0  0  0  0  0  0  0  0  0  0
    7.5211  -16.5710   20.4003 C   0  0  0  0  0  0  0  0  0  0  0  0
    6.4448  -15.9554   20.3603 O   0  0  0  0  0  0  0  0  0  0  0  0
    8.0079  -17.0020   21.6466 N   0  0  0  0  0  0  0  0  0  0  0  0
    7.2205  -16.8564   22.8757 C   0  0  1  0  0  0  0  0  0  0  0  0
    7.2205  -18.2159   23.5448 C   0  0  0  0  0  0  0  0  0  0  0  0
    8.8737  -18.7173   24.0232 S   0  0  0  0  0  0  0  0  0  0  0  0
    7.8533  -15.8390   23.7630 C   0  0  0  0  0  0  0  0  0  0  0  0
    9.0816  -15.5747   23.5559 O   0  0  0  0  0  0  0  0  0  0  0  0
    6.6118  -10.6556   26.7495 C   0  0  0  0  0  0  0  0  0  0  0  0
    7.5028  -11.8164   26.5577 C   0  0  0  0  0  0  0  0  0  0  0  0
    7.0340  -13.0127   25.8513 C   0  0  2  0  0  0  0  0  0  0  0  0
    5.7520  -13.5541   26.5533 C   0  0  0  0  0  0  0  0  0  0  0  0
    7.9426  -14.1500   25.5829 C   0  0  2  0  0  0  0  0  0  0  0  0
    7.1881  -15.1674   24.7911 N   0  0  0  0  0  0  0  0  0  0  0  0
    8.5446  -14.8363   26.7166 C   0  0  0  0  0  0  0  0  0  0  0  0
    8.1574  -15.9181   27.2051 O   0  0  0  0  0  0  0  0  0  0  0  0
    9.6622  -14.2649   27.3456 O   0  0  0  0  0  0  0  0  0  0  0  0
  2  1  1  6
  2  3  1  0
  4  2  1  0
  5  4  2  0
  6  4  1  0
  7  6  1  0
  7  8  1  1
  9  8  1  0
 10  7  1  0
 10 11  2  0
 12 13  1  0
 14 13  1  0
 14 16  1  0
 14 15  1  1
 16 17  1  1
 17 10  1  0
 18 16  1  0
 19 18  2  0
 20 18  1  0
M  END
$$$$
