ACI.pdb
     RDKit          3D

 20 19  0  0  1  0  0  0  0  0999 V2000
    7.2318  -13.2298   19.3813 C   0  0  0  0  0  0  0  0  0  0  0  0
    8.2938  -14.0510   20.0524 C   0  0  2  0  0  0  0  0  0  0  0  0
    8.5555  -15.2510   19.2853 N   0  0  0  0  0  0  0  0  0  0  0  0
    7.8696  -14.4045   21.4536 C   0  0  0  0  0  0  0  0  0  0  0  0
    7.5518  -13.5224   22.2660 O   0  0  0  0  0  0  0  0  0  0  0  0
    7.8275  -15.7484   21.8636 N   0  0  0  0  0  0  0  0  0  0  0  0
    7.2963  -16.1401   23.1737 C   0  0  1  0  0  0  0  0  0  0  0  0
    7.1227  -17.6446   23.1301 C   0  0  0  0  0  0  0  0  0  0  0  0
    6.7081  -18.3092   24.7425 S   0  0  0  0  0  0  0  0  0  0  0  0
    8.2608  -15.7575   24.2442 C   0  0  0  0  0  0  0  0  0  0  0  0
    9.4853  -15.6558   23.9102 O   0  0  0  0  0  0  0  0  0  0  0  0
    6.7940  -11.7515   27.2274 C   0  0  0  0  0  0  0  0  0  0  0  0
    7.6575  -12.7074   26.5071 C   0  0  0  0  0  0  0  0  0  0  0  0
    8.3204  -13.8035   27.2206 C   0  0  2  0  0  0  0  0  0  0  0  0
    9.3758  -13.2122   28.2035 C   0  0  0  0  0  0  0  0  0  0  0  0
    8.9362  -14.9331   26.4886 C   0  0  2  0  0  0  0  0  0  0  0  0
    7.9058  -15.5060   25.5714 N   0  0  0  0  0  0  0  0  0  0  0  0
    9.4960  -16.0334   27.2597 C   0  0  0  0  0  0  0  0  0  0  0  0
    8.8997  -17.0856   27.5698 O   0  0  0  0  0  0  0  0  0  0  0  0
   10.8213  -15.9438   27.7140 O   0  0  0  0  0  0  0  0  0  0  0  0
  2  1  1  6
  2  3  1  0
  4  2  1  0
  5  4  2  0
  6  4  1  0
  7  6  1  0
  7  8  1  6
  9  8  1  0
 10  7  1  0
 10 11  2  0
 12 13  1  0
 14 13  1  0
 14 16  1  0
 14 15  1  6
 16 17  1  6
 17 10  1  0
 18 16  1  0
 19 18  2  0
 20 18  1  0
M  END
$$$$
