ACI.pdb
     RDKit          3D

 20 19  0  0  1  0  0  0  0  0999 V2000
    8.1904  -12.3887   18.9958 C   0  0  0  0  0  0  0  0  0  0  0  0
    8.4082  -13.8625   18.8134 C   0  0  2  0  0  0  0  0  0  0  0  0
    7.8900  -14.2883   17.5300 N   0  0  0  0  0  0  0  0  0  0  0  0
    7.7452  -14.6277   19.9285 C   0  0  0  0  0  0  0  0  0  0  0  0
    6.5908  -15.0648   19.8043 O   0  0  0  0  0  0  0  0  0  0  0  0
    8.4300  -14.8590   21.1340 N   0  0  0  0  0  0  0  0  0  0  0  0
    7.8397  -15.6522   22.2178 C   0  0  1  0  0  0  0  0  0  0  0  0
    8.2205  -17.0934   21.9466 C   0  0  0  0  0  0  0  0  0  0  0  0
    7.6926  -18.1775   23.2731 S   0  0  0  0  0  0  0  0  0  0  0  0
    8.3916  -15.2051   23.5286 C   0  0  0  0  0  0  0  0  0  0  0  0
    9.6417  -14.9681   23.5794 O   0  0  0  0  0  0  0  0  0  0  0  0
    5.6149  -11.5845   26.2619 C   0  0  0  0  0  0  0  0  0  0  0  0
    6.7046  -12.4061   25.7003 C   0  0  0  0  0  0  0  0  0  0  0  0
    7.3247  -13.4722   26.4933 C   0  0  2  0  0  0  0  0  0  0  0  0
    7.9791  -12.8520   27.7647 C   0  0  0  0  0  0  0  0  0  0  0  0
    8.2820  -14.4229   25.8843 C   0  0  2  0  0  0  0  0  0  0  0  0
    7.6298  -15.0318   24.6863 N   0  0  0  0  0  0  0  0  0  0  0  0
    8.7923  -15.5112   26.7052 C   0  0  0  0  0  0  0  0  0  0  0  0
    9.8542  -15.4948   27.3618 O   0  0  0  0  0  0  0  0  0  0  0  0
    8.0554  -16.7029   26.7939 O   0  0  0  0  0  0  0  0  0  0  0  0
  2  1  1  1
  2  3  1  0
  4  2  1  0
  5  4  2  0
  6  4  1  0
  7  6  1  0
  7  8  1  6
  9  8  1  0
 10  7  1  0
 10 11  2  0
 12 13  1  0
 14 13  1  0
 14 16  1  0
 14 15  1  1
 16 17  1  6
 17 10  1  0
 18 16  1  0
 19 18  2  0
 20 18  1  0
M  END
$$$$
