ACI.pdb
     RDKit          3D

 20 19  0  0  1  0  0  0  0  0999 V2000
    8.4600  -12.6938   18.8259 C   0  0  0  0  0  0  0  0  0  0  0  0
    8.4887  -14.1933   18.7665 C   0  0  2  0  0  0  0  0  0  0  0  0
    8.0340  -14.6499   17.4697 N   0  0  0  0  0  0  0  0  0  0  0  0
    7.6298  -14.7733   19.8592 C   0  0  0  0  0  0  0  0  0  0  0  0
    6.5530  -15.3307   19.5967 O   0  0  0  0  0  0  0  0  0  0  0  0
    8.0390  -14.6906   21.2015 N   0  0  0  0  0  0  0  0  0  0  0  0
    7.3438  -15.4203   22.2674 C   0  0  1  0  0  0  0  0  0  0  0  0
    7.4533  -16.8906   21.9182 C   0  0  0  0  0  0  0  0  0  0  0  0
    6.8812  -17.9330   23.2596 S   0  0  0  0  0  0  0  0  0  0  0  0
    7.9996  -15.1456   23.5778 C   0  0  0  0  0  0  0  0  0  0  0  0
    9.2713  -15.2030   23.6115 O   0  0  0  0  0  0  0  0  0  0  0  0
    5.4218  -11.5979   26.8409 C   0  0  0  0  0  0  0  0  0  0  0  0
    6.4602  -12.3302   26.0902 C   0  0  0  0  0  0  0  0  0  0  0  0
    7.1926  -13.4386   26.7107 C   0  0  2  0  0  0  0  0  0  0  0  0
    7.9812  -12.9057   27.9450 C   0  0  0  0  0  0  0  0  0  0  0  0
    8.0897  -14.3057   25.9143 C   0  0  2  0  0  0  0  0  0  0  0  0
    7.3123  -14.8319   24.7524 N   0  0  0  0  0  0  0  0  0  0  0  0
    8.7157  -15.4429   26.5729 C   0  0  0  0  0  0  0  0  0  0  0  0
    9.8176  -15.4312   27.1600 O   0  0  0  0  0  0  0  0  0  0  0  0
    8.0548  -16.6815   26.5712 O   0  0  0  0  0  0  0  0  0  0  0  0
  2  1  1  6
  2  3  1  0
  4  2  1  0
  5  4  2  0
  6  4  1  0
  7  6  1  0
  7  8  1  6
  9  8  1  0
 10  7  1  0
 10 11  2  0
 12 13  1  0
 14 13  1  0
 14 16  1  0
 14 15  1  1
 16 17  1  6
 17 10  1  0
 18 16  1  0
 19 18  2  0
 20 18  1  0
M  END
$$$$
