ACI.pdb
     RDKit          3D

 20 19  0  0  1  0  0  0  0  0999 V2000
    7.5595  -13.0883   18.1935 C   0  0  0  0  0  0  0  0  0  0  0  0
    8.6723  -13.5025   19.1115 C   0  0  2  0  0  0  0  0  0  0  0  0
    9.5621  -14.4221   18.4337 N   0  0  0  0  0  0  0  0  0  0  0  0
    8.1101  -14.1361   20.3568 C   0  0  0  0  0  0  0  0  0  0  0  0
    7.3117  -13.5218   21.0808 O   0  0  0  0  0  0  0  0  0  0  0  0
    8.4848  -15.4416   20.7188 N   0  0  0  0  0  0  0  0  0  0  0  0
    7.9230  -16.1073   21.8992 C   0  0  1  0  0  0  0  0  0  0  0  0
    8.3599  -17.5559   21.8192 C   0  0  0  0  0  0  0  0  0  0  0  0
    8.0105  -18.4367   23.3409 S   0  0  0  0  0  0  0  0  0  0  0  0
    8.4540  -15.4705   23.1382 C   0  0  0  0  0  0  0  0  0  0  0  0
    9.6395  -15.0083   23.0887 O   0  0  0  0  0  0  0  0  0  0  0  0
    6.5890  -11.3094   26.9536 C   0  0  0  0  0  0  0  0  0  0  0  0
    7.5729  -12.3786   26.6950 C   0  0  0  0  0  0  0  0  0  0  0  0
    7.2937  -13.4333   25.7155 C   0  0  2  0  0  0  0  0  0  0  0  0
    5.9424  -14.1223   26.0739 C   0  0  0  0  0  0  0  0  0  0  0  0
    8.2936  -14.4818   25.4119 C   0  0  2  0  0  0  0  0  0  0  0  0
    7.7382  -15.3511   24.3316 N   0  0  0  0  0  0  0  0  0  0  0  0
    8.7315  -15.3529   26.4927 C   0  0  0  0  0  0  0  0  0  0  0  0
    9.4551  -15.0176   27.4534 O   0  0  0  0  0  0  0  0  0  0  0  0
    8.3263  -16.6971   26.4929 O   0  0  0  0  0  0  0  0  0  0  0  0
  2  1  1  6
  2  3  1  0
  4  2  1  0
  5  4  2  0
  6  4  1  0
  7  6  1  0
  7  8  1  1
  9  8  1  0
 10  7  1  0
 10 11  2  0
 12 13  1  0
 14 13  1  0
 14 16  1  0
 14 15  1  1
 16 17  1  6
 17 10  1  0
 18 16  1  0
 19 18  2  0
 20 18  1  0
M  END
$$$$
