ACI.pdb
     RDKit          3D

 20 19  0  0  1  0  0  0  0  0999 V2000
    8.2837  -12.3300   19.3431 C   0  0  0  0  0  0  0  0  0  0  0  0
    8.3600  -13.7872   18.9918 C   0  0  2  0  0  0  0  0  0  0  0  0
    7.6495  -14.0403   17.7557 N   0  0  0  0  0  0  0  0  0  0  0  0
    7.7879  -14.6214   20.1077 C   0  0  0  0  0  0  0  0  0  0  0  0
    6.6000  -14.9787   20.0931 O   0  0  0  0  0  0  0  0  0  0  0  0
    8.5977  -15.0097   21.1891 N   0  0  0  0  0  0  0  0  0  0  0  0
    8.0765  -15.8272   22.2900 C   0  0  1  0  0  0  0  0  0  0  0  0
    8.5918  -17.2329   22.0575 C   0  0  0  0  0  0  0  0  0  0  0  0
    8.2011  -18.3160   23.4314 S   0  0  0  0  0  0  0  0  0  0  0  0
    8.5752  -15.2979   23.5915 C   0  0  0  0  0  0  0  0  0  0  0  0
    9.8214  -15.0501   23.6759 O   0  0  0  0  0  0  0  0  0  0  0  0
    5.5901  -11.7033   26.1908 C   0  0  0  0  0  0  0  0  0  0  0  0
    6.7282  -12.4802   25.6622 C   0  0  0  0  0  0  0  0  0  0  0  0
    7.3967  -13.4885   26.4907 C   0  0  2  0  0  0  0  0  0  0  0  0
    8.0380  -12.7925   27.7291 C   0  0  0  0  0  0  0  0  0  0  0  0
    8.3848  -14.4253   25.9100 C   0  0  2  0  0  0  0  0  0  0  0  0
    7.7683  -15.0597   24.7063 N   0  0  0  0  0  0  0  0  0  0  0  0
    8.9015  -15.4944   26.7518 C   0  0  0  0  0  0  0  0  0  0  0  0
    9.9851  -15.4769   27.3718 O   0  0  0  0  0  0  0  0  0  0  0  0
    8.1450  -16.6668   26.9076 O   0  0  0  0  0  0  0  0  0  0  0  0
  2  1  1  1
  2  3  1  0
  4  2  1  0
  5  4  2  0
  6  4  1  0
  7  6  1  0
  7  8  1  6
  9  8  1  0
 10  7  1  0
 10 11  2  0
 12 13  1  0
 14 13  1  0
 14 16  1  0
 14 15  1  1
 16 17  1  6
 17 10  1  0
 18 16  1  0
 19 18  2  0
 20 18  1  0
M  END
$$$$
