ACI.pdb
     RDKit          3D

 20 19  0  0  1  0  0  0  0  0999 V2000
    8.4541  -12.4073   19.1367 C   0  0  0  0  0  0  0  0  0  0  0  0
    8.3861  -13.8851   18.8832 C   0  0  2  0  0  0  0  0  0  0  0  0
    7.6984  -14.1462   17.6359 N   0  0  0  0  0  0  0  0  0  0  0  0
    7.6870  -14.5764   20.0241 C   0  0  0  0  0  0  0  0  0  0  0  0
    6.4544  -14.7170   20.0262 O   0  0  0  0  0  0  0  0  0  0  0  0
    8.4265  -15.0756   21.1103 N   0  0  0  0  0  0  0  0  0  0  0  0
    7.7872  -15.8096   22.2078 C   0  0  1  0  0  0  0  0  0  0  0  0
    8.1415  -17.2690   22.0071 C   0  0  0  0  0  0  0  0  0  0  0  0
    7.6433  -18.2691   23.4088 S   0  0  0  0  0  0  0  0  0  0  0  0
    8.3121  -15.3209   23.5149 C   0  0  0  0  0  0  0  0  0  0  0  0
    9.5744  -15.1895   23.6187 O   0  0  0  0  0  0  0  0  0  0  0  0
    5.6188  -11.4869   26.1390 C   0  0  0  0  0  0  0  0  0  0  0  0
    6.6591  -12.3782   25.5899 C   0  0  0  0  0  0  0  0  0  0  0  0
    7.2600  -13.4284   26.4181 C   0  0  2  0  0  0  0  0  0  0  0  0
    7.9647  -12.7745   27.6450 C   0  0  0  0  0  0  0  0  0  0  0  0
    8.1695  -14.4394   25.8334 C   0  0  2  0  0  0  0  0  0  0  0  0
    7.5132  -15.0019   24.6151 N   0  0  0  0  0  0  0  0  0  0  0  0
    8.5828  -15.5604   26.6648 C   0  0  0  0  0  0  0  0  0  0  0  0
    7.9237  -16.6013   26.8678 O   0  0  0  0  0  0  0  0  0  0  0  0
    9.8264  -15.5068   27.3140 O   0  0  0  0  0  0  0  0  0  0  0  0
  2  1  1  1
  2  3  1  0
  4  2  1  0
  5  4  2  0
  6  4  1  0
  7  6  1  0
  7  8  1  6
  9  8  1  0
 10  7  1  0
 10 11  2  0
 12 13  1  0
 14 13  1  0
 14 16  1  0
 14 15  1  1
 16 17  1  6
 17 10  1  0
 18 16  1  0
 19 18  2  0
 20 18  1  0
M  END
$$$$
