VLS.pdb
     RDKit          3D

 22 21  0  0  1  0  0  0  0  0999 V2000
   27.3552  -14.9155  -17.3643 C   0  0  0  0  0  0  0  0  0  0  0  0
   27.5498  -16.3834  -17.2898 C   0  0  2  0  0  0  0  0  0  0  0  0
   28.5809  -16.8278  -18.3200 C   0  0  0  0  0  0  0  0  0  0  0  0
   26.3152  -17.2216  -17.5015 C   0  0  2  0  0  0  0  0  0  0  0  0
   25.8282  -17.0366  -18.8810 N   0  0  0  0  0  0  0  0  0  0  0  0
   25.2025  -16.9160  -16.5866 C   0  0  0  0  0  0  0  0  0  0  0  0
   25.3838  -17.1160  -15.3523 O   0  0  0  0  0  0  0  0  0  0  0  0
   23.7588  -13.9683  -14.3196 C   0  0  0  0  0  0  0  0  0  0  0  0
   23.3979  -13.7016  -15.7955 C   0  0  2  0  0  0  0  0  0  0  0  0
   22.9055  -12.2870  -15.8271 C   0  0  0  0  0  0  0  0  0  0  0  0
   22.4158  -14.7395  -16.1978 C   0  0  0  0  0  0  0  0  0  0  0  0
   22.8603  -16.1531  -16.1591 C   0  0  2  0  0  0  0  0  0  0  0  0
   23.9595  -16.4123  -17.0487 N   0  0  0  0  0  0  0  0  0  0  0  0
   21.6652  -16.9873  -16.5245 C   0  0  0  0  0  0  0  0  0  0  0  0
   21.2786  -17.1297  -17.7040 O   0  0  0  0  0  0  0  0  0  0  0  0
   20.7383  -20.3738  -14.6697 O   0  0  0  0  0  0  0  0  0  0  0  0
   19.6521  -19.5328  -14.7071 C   0  0  0  0  0  0  0  0  0  0  0  0
   19.7833  -18.4993  -15.8149 C   0  0  2  0  0  0  0  0  0  0  0  0
   20.9291  -17.6508  -15.5050 N   0  0  0  0  0  0  0  0  0  0  0  0
   18.5278  -17.7136  -15.8490 C   0  0  0  0  0  0  0  0  0  0  0  0
   18.4382  -16.7171  -15.0877 O   0  0  0  0  0  0  0  0  0  0  0  0
   17.4629  -18.0158  -16.6647 O   0  0  0  0  0  0  0  0  0  0  0  0
  2  4  1  0
  2  1  1  6
  2  3  1  0
  4  6  1  0
  4  5  1  6
  6 13  1  0
  6  7  2  0
  9  8  1  1
  9 10  1  0
 12 11  1  6
 11  9  1  0
 12 14  1  0
 13 12  1  0
 14 15  2  0
 16 17  1  0
 18 17  1  1
 18 20  1  0
 19 14  1  0
 19 18  1  0
 20 22  1  0
 21 20  2  0
M  END
$$$$
