VLS.pdb
     RDKit          3D

 22 21  0  0  1  0  0  0  0  0999 V2000
   16.7707  -11.4394  -16.8335 C   0  0  0  0  0  0  0  0  0  0  0  0
   17.6800  -12.3295  -17.5944 C   0  0  2  0  0  0  0  0  0  0  0  0
   16.9201  -13.5535  -18.0909 C   0  0  0  0  0  0  0  0  0  0  0  0
   18.8904  -12.8270  -16.8467 C   0  0  2  0  0  0  0  0  0  0  0  0
   18.4768  -13.8548  -15.8737 N   0  0  0  0  0  0  0  0  0  0  0  0
   19.6292  -11.7849  -16.1139 C   0  0  0  0  0  0  0  0  0  0  0  0
   19.1653  -11.4071  -15.0011 O   0  0  0  0  0  0  0  0  0  0  0  0
   23.3648  -11.1104  -13.9142 C   0  0  0  0  0  0  0  0  0  0  0  0
   23.6205  -11.2387  -15.4300 C   0  0  2  0  0  0  0  0  0  0  0  0
   25.1116  -11.2616  -15.5735 C   0  0  0  0  0  0  0  0  0  0  0  0
   22.9229  -10.1048  -16.0866 C   0  0  0  0  0  0  0  0  0  0  0  0
   21.4436  -10.0687  -15.9984 C   0  0  2  0  0  0  0  0  0  0  0  0
   20.8241  -11.2091  -16.6169 N   0  0  0  0  0  0  0  0  0  0  0  0
   21.0066   -8.7938  -16.6627 C   0  0  0  0  0  0  0  0  0  0  0  0
   21.0291   -8.6383  -17.9022 O   0  0  0  0  0  0  0  0  0  0  0  0
   17.9767   -6.5996  -15.2397 O   0  0  0  0  0  0  0  0  0  0  0  0
   19.0899   -5.8277  -15.4714 C   0  0  0  0  0  0  0  0  0  0  0  0
   20.0265   -6.4840  -16.4737 C   0  0  2  0  0  0  0  0  0  0  0  0
   20.5452   -7.7071  -15.8704 N   0  0  0  0  0  0  0  0  0  0  0  0
   21.1176   -5.5253  -16.7654 C   0  0  0  0  0  0  0  0  0  0  0  0
   22.2806   -5.8302  -16.3975 O   0  0  0  0  0  0  0  0  0  0  0  0
   20.9254   -4.3277  -17.4131 O   0  0  0  0  0  0  0  0  0  0  0  0
  2  4  1  0
  2  1  1  1
  2  3  1  0
  4  6  1  0
  4  5  1  1
  6 13  1  0
  6  7  2  0
  9  8  1  1
  9 10  1  0
 12 11  1  6
 11  9  1  0
 12 14  1  0
 13 12  1  0
 14 15  2  0
 16 17  1  0
 18 17  1  1
 18 20  1  0
 19 14  1  0
 19 18  1  0
 20 22  1  0
 21 20  2  0
M  END
$$$$
