VLS.pdb
     RDKit          3D

 22 21  0  0  1  0  0  0  0  0999 V2000
   26.1821  -19.2881  -16.3836 C   0  0  0  0  0  0  0  0  0  0  0  0
   27.0692  -18.7840  -15.3079 C   0  0  2  0  0  0  0  0  0  0  0  0
   28.2427  -18.0219  -15.9112 C   0  0  0  0  0  0  0  0  0  0  0  0
   27.6411  -19.8286  -14.3841 C   0  0  2  0  0  0  0  0  0  0  0  0
   28.4377  -20.7915  -15.1669 N   0  0  0  0  0  0  0  0  0  0  0  0
   26.6364  -20.5897  -13.6225 C   0  0  0  0  0  0  0  0  0  0  0  0
   26.2610  -21.7014  -14.0911 O   0  0  0  0  0  0  0  0  0  0  0  0
   26.4261  -22.0066   -9.2367 C   0  0  0  0  0  0  0  0  0  0  0  0
   26.1350  -20.5012   -9.4064 C   0  0  2  0  0  0  0  0  0  0  0  0
   25.9814  -19.9742   -8.0124 C   0  0  0  0  0  0  0  0  0  0  0  0
   24.9400  -20.3847  -10.2794 C   0  0  0  0  0  0  0  0  0  0  0  0
   25.0743  -20.8334  -11.6858 C   0  0  2  0  0  0  0  0  0  0  0  0
   26.0931  -20.1145  -12.4013 N   0  0  0  0  0  0  0  0  0  0  0  0
   23.7293  -20.6395  -12.3267 C   0  0  0  0  0  0  0  0  0  0  0  0
   23.2416  -19.5091  -12.5400 O   0  0  0  0  0  0  0  0  0  0  0  0
   20.1142  -22.9397  -14.6542 O   0  0  0  0  0  0  0  0  0  0  0  0
   21.3245  -22.9818  -14.0045 C   0  0  0  0  0  0  0  0  0  0  0  0
   21.6817  -21.6328  -13.4002 C   0  0  2  0  0  0  0  0  0  0  0  0
   22.9623  -21.7720  -12.7149 N   0  0  0  0  0  0  0  0  0  0  0  0
   20.6040  -21.2639  -12.4531 C   0  0  0  0  0  0  0  0  0  0  0  0
   20.8634  -21.3057  -11.2236 O   0  0  0  0  0  0  0  0  0  0  0  0
   19.3434  -20.8806  -12.8466 O   0  0  0  0  0  0  0  0  0  0  0  0
  2  4  1  0
  2  1  1  6
  2  3  1  0
  4  6  1  0
  4  5  1  6
  6 13  1  0
  6  7  2  0
  9  8  1  1
  9 10  1  0
 12 11  1  1
 11  9  1  0
 12 14  1  0
 13 12  1  0
 14 15  2  0
 16 17  1  0
 18 17  1  1
 18 20  1  0
 19 14  1  0
 19 18  1  0
 20 22  1  0
 21 20  2  0
M  END
$$$$
