VLS.pdb
     RDKit          3D

 22 21  0  0  1  0  0  0  0  0999 V2000
   19.8850  -15.6032  -16.2240 C   0  0  0  0  0  0  0  0  0  0  0  0
   18.5858  -14.9843  -16.5807 C   0  0  2  0  0  0  0  0  0  0  0  0
   17.8554  -15.8506  -17.5995 C   0  0  0  0  0  0  0  0  0  0  0  0
   18.6557  -13.5894  -17.1472 C   0  0  2  0  0  0  0  0  0  0  0  0
   19.3046  -13.6303  -18.4708 N   0  0  0  0  0  0  0  0  0  0  0  0
   19.3939  -12.6255  -16.3137 C   0  0  0  0  0  0  0  0  0  0  0  0
   18.9848  -12.4337  -15.1338 O   0  0  0  0  0  0  0  0  0  0  0  0
   22.8532  -12.1696  -13.8050 C   0  0  0  0  0  0  0  0  0  0  0  0
   23.2397  -12.3295  -15.2898 C   0  0  2  0  0  0  0  0  0  0  0  0
   24.7316  -12.4673  -15.2918 C   0  0  0  0  0  0  0  0  0  0  0  0
   22.6961  -11.1510  -16.0105 C   0  0  0  0  0  0  0  0  0  0  0  0
   21.2267  -10.9560  -15.9916 C   0  0  2  0  0  0  0  0  0  0  0  0
   20.5295  -11.9239  -16.7939 N   0  0  0  0  0  0  0  0  0  0  0  0
   20.9740   -9.5617  -16.4914 C   0  0  0  0  0  0  0  0  0  0  0  0
   21.3129   -9.1839  -17.6330 O   0  0  0  0  0  0  0  0  0  0  0  0
   18.6677   -7.0216  -14.1568 O   0  0  0  0  0  0  0  0  0  0  0  0
   18.7217   -6.8224  -15.5154 C   0  0  0  0  0  0  0  0  0  0  0  0
   20.0628   -7.2508  -16.0903 C   0  0  2  0  0  0  0  0  0  0  0  0
   20.3250   -8.6170  -15.6501 N   0  0  0  0  0  0  0  0  0  0  0  0
   21.0917   -6.3157  -15.5788 C   0  0  0  0  0  0  0  0  0  0  0  0
   21.9528   -6.7689  -14.7827 O   0  0  0  0  0  0  0  0  0  0  0  0
   21.1530   -4.9870  -15.9274 O   0  0  0  0  0  0  0  0  0  0  0  0
  2  4  1  0
  2  1  1  6
  2  3  1  0
  4  6  1  0
  4  5  1  6
  6 13  1  0
  6  7  2  0
  9  8  1  1
  9 10  1  0
 12 11  1  6
 11  9  1  0
 12 14  1  0
 13 12  1  0
 14 15  2  0
 16 17  1  0
 18 17  1  1
 18 20  1  0
 19 14  1  0
 19 18  1  0
 20 22  1  0
 21 20  2  0
M  END
$$$$
