VLS.pdb
     RDKit          3D

 22 21  0  0  1  0  0  0  0  0999 V2000
   19.1133  -13.9033  -16.0878 C   0  0  0  0  0  0  0  0  0  0  0  0
   17.9844  -13.2734  -16.8138 C   0  0  2  0  0  0  0  0  0  0  0  0
   17.4897  -14.2001  -17.9177 C   0  0  0  0  0  0  0  0  0  0  0  0
   18.2743  -11.9370  -17.4474 C   0  0  2  0  0  0  0  0  0  0  0  0
   19.2327  -12.1170  -18.5535 N   0  0  0  0  0  0  0  0  0  0  0  0
   18.8319  -10.9308  -16.5281 C   0  0  0  0  0  0  0  0  0  0  0  0
   18.1499  -10.6216  -15.5105 O   0  0  0  0  0  0  0  0  0  0  0  0
   22.0077  -10.0146  -13.3701 C   0  0  0  0  0  0  0  0  0  0  0  0
   22.5440  -10.3635  -14.7738 C   0  0  2  0  0  0  0  0  0  0  0  0
   24.0319  -10.4387  -14.6152 C   0  0  0  0  0  0  0  0  0  0  0  0
   22.0426   -9.3200  -15.7031 C   0  0  0  0  0  0  0  0  0  0  0  0
   20.5786   -9.2472  -15.9237 C   0  0  2  0  0  0  0  0  0  0  0  0
   20.0900  -10.3151  -16.7529 N   0  0  0  0  0  0  0  0  0  0  0  0
   20.3071   -7.9105  -16.5537 C   0  0  0  0  0  0  0  0  0  0  0  0
   20.7728   -7.5831  -17.6659 O   0  0  0  0  0  0  0  0  0  0  0  0
   17.3412   -5.5788  -14.9312 O   0  0  0  0  0  0  0  0  0  0  0  0
   17.7065   -5.3847  -16.2418 C   0  0  0  0  0  0  0  0  0  0  0  0
   19.1867   -5.6595  -16.4561 C   0  0  2  0  0  0  0  0  0  0  0  0
   19.4904   -6.9637  -15.8767 N   0  0  0  0  0  0  0  0  0  0  0  0
   19.9473   -4.5824  -15.7809 C   0  0  0  0  0  0  0  0  0  0  0  0
   20.6712   -4.8994  -14.8031 O   0  0  0  0  0  0  0  0  0  0  0  0
   19.9027   -3.2631  -16.1658 O   0  0  0  0  0  0  0  0  0  0  0  0
  2  4  1  0
  2  1  1  6
  2  3  1  0
  4  6  1  0
  4  5  1  6
  6 13  1  0
  6  7  2  0
  9  8  1  1
  9 10  1  0
 12 11  1  6
 11  9  1  0
 12 14  1  0
 13 12  1  0
 14 15  2  0
 16 17  1  0
 18 17  1  1
 18 20  1  0
 19 14  1  0
 19 18  1  0
 20 22  1  0
 21 20  2  0
M  END
$$$$
