VLS.pdb
     RDKit          3D

 22 21  0  0  1  0  0  0  0  0999 V2000
   27.1947  -38.5722   -5.9666 C   0  0  0  0  0  0  0  0  0  0  0  0
   27.3497  -37.5480   -7.0273 C   0  0  2  0  0  0  0  0  0  0  0  0
   26.4580  -37.8861   -8.2158 C   0  0  0  0  0  0  0  0  0  0  0  0
   28.7478  -37.3562   -7.5566 C   0  0  2  0  0  0  0  0  0  0  0  0
   29.1658  -38.5677   -8.2860 N   0  0  0  0  0  0  0  0  0  0  0  0
   29.7614  -37.0800   -6.5247 C   0  0  0  0  0  0  0  0  0  0  0  0
   30.5007  -38.0357   -6.1554 O   0  0  0  0  0  0  0  0  0  0  0  0
   33.7306  -34.7843   -5.7022 C   0  0  0  0  0  0  0  0  0  0  0  0
   32.4698  -33.9722   -6.0638 C   0  0  2  0  0  0  0  0  0  0  0  0
   32.9484  -32.5621   -6.2294 C   0  0  0  0  0  0  0  0  0  0  0  0
   31.4807  -34.1985   -4.9803 C   0  0  0  0  0  0  0  0  0  0  0  0
   30.8622  -35.5426   -4.8890 C   0  0  2  0  0  0  0  0  0  0  0  0
   29.9243  -35.7936   -5.9493 N   0  0  0  0  0  0  0  0  0  0  0  0
   30.1884  -35.6130   -3.5479 C   0  0  0  0  0  0  0  0  0  0  0  0
   29.0099  -35.2401   -3.3660 O   0  0  0  0  0  0  0  0  0  0  0  0
   31.2800  -38.1771   -0.1991 O   0  0  0  0  0  0  0  0  0  0  0  0
   31.3102  -36.8040   -0.1517 C   0  0  0  0  0  0  0  0  0  0  0  0
   30.2934  -36.1894   -1.1008 C   0  0  2  0  0  0  0  0  0  0  0  0
   30.8996  -36.1205   -2.4262 N   0  0  0  0  0  0  0  0  0  0  0  0
   29.9614  -34.8382   -0.5920 C   0  0  0  0  0  0  0  0  0  0  0  0
   30.3858  -33.8470   -1.2386 O   0  0  0  0  0  0  0  0  0  0  0  0
   29.2183  -34.6139    0.5429 O   0  0  0  0  0  0  0  0  0  0  0  0
  2  4  1  0
  2  1  1  1
  2  3  1  0
  4  6  1  0
  4  5  1  1
  6 13  1  0
  6  7  2  0
  9  8  1  1
  9 10  1  0
 12 11  1  6
 11  9  1  0
 12 14  1  0
 13 12  1  0
 14 15  2  0
 16 17  1  0
 18 17  1  1
 18 20  1  0
 19 14  1  0
 19 18  1  0
 20 22  1  0
 21 20  2  0
M  END
$$$$
