VLS.pdb
     RDKit          3D

 22 21  0  0  1  0  0  0  0  0999 V2000
   26.3085  -18.6362  -17.8006 C   0  0  0  0  0  0  0  0  0  0  0  0
   27.4286  -18.2311  -16.9178 C   0  0  2  0  0  0  0  0  0  0  0  0
   28.4819  -17.4775  -17.7206 C   0  0  0  0  0  0  0  0  0  0  0  0
   28.1330  -19.3501  -16.1943 C   0  0  2  0  0  0  0  0  0  0  0  0
   28.7182  -20.2783  -17.1794 N   0  0  0  0  0  0  0  0  0  0  0  0
   27.2725  -20.1345  -15.2927 C   0  0  0  0  0  0  0  0  0  0  0  0
   26.7540  -21.1931  -15.7475 O   0  0  0  0  0  0  0  0  0  0  0  0
   25.6414  -20.1033   -9.3175 C   0  0  0  0  0  0  0  0  0  0  0  0
   25.3988  -20.7756  -10.6845 C   0  0  2  0  0  0  0  0  0  0  0  0
   25.6786  -22.2301  -10.4589 C   0  0  0  0  0  0  0  0  0  0  0  0
   26.2755  -20.0912  -11.6678 C   0  0  0  0  0  0  0  0  0  0  0  0
   26.1347  -20.4750  -13.0927 C   0  0  2  0  0  0  0  0  0  0  0  0
   27.0188  -19.7384  -13.9543 N   0  0  0  0  0  0  0  0  0  0  0  0
   24.6986  -20.2309  -13.4613 C   0  0  0  0  0  0  0  0  0  0  0  0
   24.2186  -19.0832  -13.5762 O   0  0  0  0  0  0  0  0  0  0  0  0
   20.7727  -22.1806  -15.4710 O   0  0  0  0  0  0  0  0  0  0  0  0
   22.0660  -22.2971  -15.0212 C   0  0  0  0  0  0  0  0  0  0  0  0
   22.4440  -21.1461  -14.1019 C   0  0  2  0  0  0  0  0  0  0  0  0
   23.8321  -21.3340  -13.6935 N   0  0  0  0  0  0  0  0  0  0  0  0
   21.5319  -21.1833  -12.9351 C   0  0  0  0  0  0  0  0  0  0  0  0
   21.9172  -21.7982  -11.9084 O   0  0  0  0  0  0  0  0  0  0  0  0
   20.2943  -20.5843  -12.9173 O   0  0  0  0  0  0  0  0  0  0  0  0
  2  4  1  0
  2  1  1  6
  2  3  1  0
  4  6  1  0
  4  5  1  6
  6 13  1  0
  6  7  2  0
  9  8  1  1
  9 10  1  0
 12 11  1  1
 11  9  1  0
 12 14  1  0
 13 12  1  0
 14 15  2  0
 16 17  1  0
 18 17  1  6
 18 20  1  0
 19 14  1  0
 19 18  1  0
 20 22  1  0
 21 20  2  0
M  END
$$$$
