VLS.pdb
     RDKit          3D

 22 21  0  0  1  0  0  0  0  0999 V2000
   25.4364  -13.4310  -15.7759 C   0  0  0  0  0  0  0  0  0  0  0  0
   24.7045  -12.1952  -16.1437 C   0  0  2  0  0  0  0  0  0  0  0  0
   25.0348  -11.0789  -15.1605 C   0  0  0  0  0  0  0  0  0  0  0  0
   23.2030  -12.3126  -16.1999 C   0  0  2  0  0  0  0  0  0  0  0  0
   22.8280  -13.3229  -17.2065 N   0  0  0  0  0  0  0  0  0  0  0  0
   22.5023  -11.0615  -16.5353 C   0  0  0  0  0  0  0  0  0  0  0  0
   22.6830  -10.5769  -17.6881 O   0  0  0  0  0  0  0  0  0  0  0  0
   18.6320   -9.5163  -17.9635 C   0  0  0  0  0  0  0  0  0  0  0  0
   18.6364  -10.2159  -16.5886 C   0  0  2  0  0  0  0  0  0  0  0  0
   17.1911  -10.3725  -16.2262 C   0  0  0  0  0  0  0  0  0  0  0  0
   19.4469   -9.3731  -15.6740 C   0  0  0  0  0  0  0  0  0  0  0  0
   20.8919   -9.2335  -15.9736 C   0  0  2  0  0  0  0  0  0  0  0  0
   21.6472  -10.4030  -15.6148 N   0  0  0  0  0  0  0  0  0  0  0  0
   21.3719   -8.0298  -15.2131 C   0  0  0  0  0  0  0  0  0  0  0  0
   21.5549   -8.0429  -13.9773 O   0  0  0  0  0  0  0  0  0  0  0  0
   23.3053   -3.5880  -15.7500 O   0  0  0  0  0  0  0  0  0  0  0  0
   22.6914   -4.6863  -16.3026 C   0  0  0  0  0  0  0  0  0  0  0  0
   22.2245   -5.6625  -15.2341 C   0  0  2  0  0  0  0  0  0  0  0  0
   21.6352   -6.8161  -15.9055 N   0  0  0  0  0  0  0  0  0  0  0  0
   21.2259   -4.9644  -14.3915 C   0  0  0  0  0  0  0  0  0  0  0  0
   20.0208   -5.0145  -14.7465 O   0  0  0  0  0  0  0  0  0  0  0  0
   21.5467   -4.2694  -13.2492 O   0  0  0  0  0  0  0  0  0  0  0  0
  2  4  1  0
  2  1  1  1
  2  3  1  0
  4  6  1  0
  4  5  1  6
  6 13  1  0
  6  7  2  0
  9  8  1  6
  9 10  1  0
 12 11  1  1
 11  9  1  0
 12 14  1  0
 13 12  1  0
 14 15  2  0
 16 17  1  0
 18 17  1  6
 18 20  1  0
 19 14  1  0
 19 18  1  0
 20 22  1  0
 21 20  2  0
M  END
$$$$
