VLS.pdb
     RDKit          3D

 22 21  0  0  1  0  0  0  0  0999 V2000
   20.1754  -13.7527  -15.8098 C   0  0  0  0  0  0  0  0  0  0  0  0
   19.2578  -13.3508  -16.9029 C   0  0  2  0  0  0  0  0  0  0  0  0
   19.0706  -14.5049  -17.8801 C   0  0  0  0  0  0  0  0  0  0  0  0
   19.6799  -12.1476  -17.7064 C   0  0  2  0  0  0  0  0  0  0  0  0
   20.7936  -12.5204  -18.5982 N   0  0  0  0  0  0  0  0  0  0  0  0
   20.1152  -10.9944  -16.9006 C   0  0  0  0  0  0  0  0  0  0  0  0
   19.3097  -10.5408  -16.0395 O   0  0  0  0  0  0  0  0  0  0  0  0
   23.5384  -10.3350  -14.0437 C   0  0  0  0  0  0  0  0  0  0  0  0
   24.0056  -10.2969  -15.5133 C   0  0  2  0  0  0  0  0  0  0  0  0
   25.4971  -10.1727  -15.4453 C   0  0  0  0  0  0  0  0  0  0  0  0
   23.2903   -9.1731  -16.1685 C   0  0  0  0  0  0  0  0  0  0  0  0
   21.8150   -9.2711  -16.2750 C   0  0  2  0  0  0  0  0  0  0  0  0
   21.3904  -10.3950  -17.0645 N   0  0  0  0  0  0  0  0  0  0  0  0
   21.3434   -7.9797  -16.8813 C   0  0  0  0  0  0  0  0  0  0  0  0
   21.4931   -7.7100  -18.0920 O   0  0  0  0  0  0  0  0  0  0  0  0
   18.0232   -4.6874  -16.8907 O   0  0  0  0  0  0  0  0  0  0  0  0
   18.6294   -5.8238  -16.4114 C   0  0  0  0  0  0  0  0  0  0  0  0
   20.1344   -5.7877  -16.6266 C   0  0  2  0  0  0  0  0  0  0  0  0
   20.6984   -7.0106  -16.0650 N   0  0  0  0  0  0  0  0  0  0  0  0
   20.6598   -4.5878  -15.9347 C   0  0  0  0  0  0  0  0  0  0  0  0
   21.1331   -4.7365  -14.7795 O   0  0  0  0  0  0  0  0  0  0  0  0
   20.6566   -3.3285  -16.4870 O   0  0  0  0  0  0  0  0  0  0  0  0
  2  4  1  0
  2  1  1  1
  2  3  1  0
  4  6  1  0
  4  5  1  6
  6 13  1  0
  6  7  2  0
  9  8  1  1
  9 10  1  0
 12 11  1  6
 11  9  1  0
 12 14  1  0
 13 12  1  0
 14 15  2  0
 16 17  1  0
 18 17  1  1
 18 20  1  0
 19 14  1  0
 19 18  1  0
 20 22  1  0
 21 20  2  0
M  END
$$$$
