VLS.pdb
     RDKit          3D

 22 21  0  0  1  0  0  0  0  0999 V2000
   17.3180  -10.8907  -19.1131 C   0  0  0  0  0  0  0  0  0  0  0  0
   18.7457  -11.2199  -19.3396 C   0  0  2  0  0  0  0  0  0  0  0  0
   18.8692  -12.3272  -20.3791 C   0  0  0  0  0  0  0  0  0  0  0  0
   19.5199  -11.6591  -18.1233 C   0  0  2  0  0  0  0  0  0  0  0  0
   18.9789  -12.9410  -17.6350 N   0  0  0  0  0  0  0  0  0  0  0  0
   19.4948  -10.7039  -17.0027 C   0  0  0  0  0  0  0  0  0  0  0  0
   18.5199  -10.7627  -16.2013 O   0  0  0  0  0  0  0  0  0  0  0  0
   21.0805   -9.8088  -12.9297 C   0  0  0  0  0  0  0  0  0  0  0  0
   22.0887   -9.8251  -14.0972 C   0  0  2  0  0  0  0  0  0  0  0  0
   23.4376   -9.7590  -13.4486 C   0  0  0  0  0  0  0  0  0  0  0  0
   21.7411   -8.6898  -14.9883 C   0  0  0  0  0  0  0  0  0  0  0  0
   20.4671   -8.7769  -15.7412 C   0  0  2  0  0  0  0  0  0  0  0  0
   20.5181   -9.7414  -16.8060 N   0  0  0  0  0  0  0  0  0  0  0  0
   20.1917   -7.4001  -16.2761 C   0  0  0  0  0  0  0  0  0  0  0  0
   20.9232   -6.8491  -17.1260 O   0  0  0  0  0  0  0  0  0  0  0  0
   16.5036   -5.8057  -15.5782 O   0  0  0  0  0  0  0  0  0  0  0  0
   17.2425   -5.3202  -16.6304 C   0  0  0  0  0  0  0  0  0  0  0  0
   18.7325   -5.3508  -16.3282 C   0  0  2  0  0  0  0  0  0  0  0  0
   19.0597   -6.6757  -15.8120 N   0  0  0  0  0  0  0  0  0  0  0  0
   19.0098   -4.2996  -15.3218 C   0  0  0  0  0  0  0  0  0  0  0  0
   19.3937   -4.6652  -14.1818 O   0  0  0  0  0  0  0  0  0  0  0  0
   18.8699   -2.9541  -15.5685 O   0  0  0  0  0  0  0  0  0  0  0  0
  2  4  1  0
  2  1  1  1
  2  3  1  0
  4  6  1  0
  4  5  1  1
  6 13  1  0
  6  7  2  0
  9  8  1  1
  9 10  1  0
 12 11  1  6
 11  9  1  0
 12 14  1  0
 13 12  1  0
 14 15  2  0
 16 17  1  0
 18 17  1  1
 18 20  1  0
 19 14  1  0
 19 18  1  0
 20 22  1  0
 21 20  2  0
M  END
$$$$
