VLS.pdb
     RDKit          3D

 22 21  0  0  1  0  0  0  0  0999 V2000
   17.2479  -11.6823  -16.9226 C   0  0  0  0  0  0  0  0  0  0  0  0
   18.2911  -12.1715  -17.8556 C   0  0  2  0  0  0  0  0  0  0  0  0
   17.8261  -13.4536  -18.5352 C   0  0  0  0  0  0  0  0  0  0  0  0
   19.6399  -12.4525  -17.2445 C   0  0  2  0  0  0  0  0  0  0  0  0
   19.5981  -13.7469  -16.5395 N   0  0  0  0  0  0  0  0  0  0  0  0
   20.1037  -11.4336  -16.2876 C   0  0  0  0  0  0  0  0  0  0  0  0
   19.6144  -11.4543  -15.1230 O   0  0  0  0  0  0  0  0  0  0  0  0
   23.4673  -10.7267  -13.8677 C   0  0  0  0  0  0  0  0  0  0  0  0
   23.8020  -10.3815  -15.3335 C   0  0  2  0  0  0  0  0  0  0  0  0
   25.2805  -10.1398  -15.3494 C   0  0  0  0  0  0  0  0  0  0  0  0
   22.9515   -9.2257  -15.7136 C   0  0  0  0  0  0  0  0  0  0  0  0
   21.4831   -9.4286  -15.7153 C   0  0  2  0  0  0  0  0  0  0  0  0
   21.0667  -10.4518  -16.6353 N   0  0  0  0  0  0  0  0  0  0  0  0
   20.8689   -8.1042  -16.0708 C   0  0  0  0  0  0  0  0  0  0  0  0
   20.8701   -7.6523  -17.2356 O   0  0  0  0  0  0  0  0  0  0  0  0
   18.1276   -4.4513  -14.3607 O   0  0  0  0  0  0  0  0  0  0  0  0
   18.6906   -5.6951  -14.2031 C   0  0  0  0  0  0  0  0  0  0  0  0
   19.6095   -6.0438  -15.3635 C   0  0  2  0  0  0  0  0  0  0  0  0
   20.2560   -7.3158  -15.0587 N   0  0  0  0  0  0  0  0  0  0  0  0
   20.6046   -4.9540  -15.4934 C   0  0  0  0  0  0  0  0  0  0  0  0
   21.6085   -4.9828  -14.7370 O   0  0  0  0  0  0  0  0  0  0  0  0
   20.4877   -3.9200  -16.3921 O   0  0  0  0  0  0  0  0  0  0  0  0
  2  4  1  0
  2  1  1  1
  2  3  1  0
  4  6  1  0
  4  5  1  1
  6 13  1  0
  6  7  2  0
  9  8  1  1
  9 10  1  0
 12 11  1  6
 11  9  1  0
 12 14  1  0
 13 12  1  0
 14 15  2  0
 16 17  1  0
 18 17  1  1
 18 20  1  0
 19 14  1  0
 19 18  1  0
 20 22  1  0
 21 20  2  0
M  END
$$$$
