VLS.pdb
     RDKit          3D

 22 21  0  0  1  0  0  0  0  0999 V2000
   16.8626  -23.7025   -8.6737 C   0  0  0  0  0  0  0  0  0  0  0  0
   18.2242  -24.2201   -8.3977 C   0  0  2  0  0  0  0  0  0  0  0  0
   19.1090  -24.0473   -9.6262 C   0  0  0  0  0  0  0  0  0  0  0  0
   18.3062  -25.6679   -7.9869 C   0  0  2  0  0  0  0  0  0  0  0  0
   17.8242  -26.5183   -9.0908 N   0  0  0  0  0  0  0  0  0  0  0  0
   17.5285  -26.0087   -6.7836 C   0  0  0  0  0  0  0  0  0  0  0  0
   16.3731  -26.4927   -6.9475 O   0  0  0  0  0  0  0  0  0  0  0  0
   17.7489  -28.7238   -2.9621 C   0  0  0  0  0  0  0  0  0  0  0  0
   18.8071  -27.6032   -3.0268 C   0  0  2  0  0  0  0  0  0  0  0  0
   19.6628  -27.8042   -1.8135 C   0  0  0  0  0  0  0  0  0  0  0  0
   18.0729  -26.3149   -3.0966 C   0  0  0  0  0  0  0  0  0  0  0  0
   17.2449  -26.0641   -4.3003 C   0  0  2  0  0  0  0  0  0  0  0  0
   18.0361  -25.8115   -5.4737 N   0  0  0  0  0  0  0  0  0  0  0  0
   16.3691  -24.8862   -3.9790 C   0  0  0  0  0  0  0  0  0  0  0  0
   16.7596  -23.7051   -4.0957 O   0  0  0  0  0  0  0  0  0  0  0  0
   11.7857  -23.4775   -3.3923 O   0  0  0  0  0  0  0  0  0  0  0  0
   12.7082  -24.4866   -3.5311 C   0  0  0  0  0  0  0  0  0  0  0  0
   14.1236  -23.9880   -3.2846 C   0  0  2  0  0  0  0  0  0  0  0  0
   15.0395  -25.0986   -3.5226 N   0  0  0  0  0  0  0  0  0  0  0  0
   14.1989  -23.5222   -1.8803 C   0  0  0  0  0  0  0  0  0  0  0  0
   14.4180  -24.3806   -0.9882 O   0  0  0  0  0  0  0  0  0  0  0  0
   14.0427  -22.2086   -1.5050 O   0  0  0  0  0  0  0  0  0  0  0  0
  2  4  1  0
  2  1  1  6
  2  3  1  0
  4  6  1  0
  4  5  1  6
  6 13  1  0
  6  7  2  0
  9  8  1  1
  9 10  1  0
 12 11  1  1
 11  9  1  0
 12 14  1  0
 13 12  1  0
 14 15  2  0
 16 17  1  0
 18 17  1  1
 18 20  1  0
 19 14  1  0
 19 18  1  0
 20 22  1  0
 21 20  2  0
M  END
$$$$
