VLS.pdb
     RDKit          3D

 22 21  0  0  1  0  0  0  0  0999 V2000
   15.8695  -11.7288  -15.5826 C   0  0  0  0  0  0  0  0  0  0  0  0
   16.6513  -11.3738  -16.7913 C   0  0  2  0  0  0  0  0  0  0  0  0
   17.7638  -12.3912  -17.0127 C   0  0  0  0  0  0  0  0  0  0  0  0
   17.2885  -10.0079  -16.7842 C   0  0  2  0  0  0  0  0  0  0  0  0
   17.6800   -9.6429  -18.1581 N   0  0  0  0  0  0  0  0  0  0  0  0
   18.4828   -9.8931  -15.9303 C   0  0  0  0  0  0  0  0  0  0  0  0
   18.3313  -10.0376  -14.6843 O   0  0  0  0  0  0  0  0  0  0  0  0
   24.3879  -10.9030  -15.6763 C   0  0  0  0  0  0  0  0  0  0  0  0
   23.3050   -9.9551  -15.1210 C   0  0  2  0  0  0  0  0  0  0  0  0
   23.1987  -10.2944  -13.6656 C   0  0  0  0  0  0  0  0  0  0  0  0
   22.0792  -10.1738  -15.9293 C   0  0  0  0  0  0  0  0  0  0  0  0
   20.8993   -9.3300  -15.6240 C   0  0  2  0  0  0  0  0  0  0  0  0
   19.7713   -9.6312  -16.4628 N   0  0  0  0  0  0  0  0  0  0  0  0
   21.3360   -7.9035  -15.8028 C   0  0  0  0  0  0  0  0  0  0  0  0
   21.9202   -7.5020  -16.8316 O   0  0  0  0  0  0  0  0  0  0  0  0
   19.3470   -4.8818  -14.1474 O   0  0  0  0  0  0  0  0  0  0  0  0
   20.2873   -4.7087  -15.1346 C   0  0  0  0  0  0  0  0  0  0  0  0
   21.5193   -5.5659  -14.8897 C   0  0  2  0  0  0  0  0  0  0  0  0
   21.0855   -6.9542  -14.7743 N   0  0  0  0  0  0  0  0  0  0  0  0
   22.1530   -5.0960  -13.6358 C   0  0  0  0  0  0  0  0  0  0  0  0
   22.7202   -3.9741  -13.6494 O   0  0  0  0  0  0  0  0  0  0  0  0
   22.1528   -5.8187  -12.4659 O   0  0  0  0  0  0  0  0  0  0  0  0
  2  4  1  0
  2  1  1  1
  2  3  1  0
  4  6  1  0
  4  5  1  6
  6 13  1  0
  6  7  2  0
  9  8  1  6
  9 10  1  0
 12 11  1  6
 11  9  1  0
 12 14  1  0
 13 12  1  0
 14 15  2  0
 16 17  1  0
 18 17  1  1
 18 20  1  0
 19 14  1  0
 19 18  1  0
 20 22  1  0
 21 20  2  0
M  END
$$$$
