KNT.pdb
     RDKit          3D

 25 24  0  0  1  0  0  0  0  0999 V2000
    9.3037  -13.0850   18.2509 N   0  0  0  0  0  0  0  0  0  0  0  0
    8.7242  -14.3314   18.6532 C   0  0  1  0  0  0  0  0  0  0  0  0
    8.0138  -14.9679   17.5266 C   0  0  0  0  0  0  0  0  0  0  0  0
    8.1220  -14.3021   16.2018 C   0  0  0  0  0  0  0  0  0  0  0  0
    7.3649  -14.9534   15.0974 C   0  0  0  0  0  0  0  0  0  0  0  0
    7.5336  -14.1871   13.7896 C   0  0  0  0  0  0  0  0  0  0  0  0
    6.7994  -14.8472   12.7338 N   0  0  0  0  0  0  0  0  0  0  0  0
    9.5562  -15.1554   19.5277 C   0  0  0  0  0  0  0  0  0  0  0  0
    9.0838  -16.2079   20.0150 O   0  0  0  0  0  0  0  0  0  0  0  0
   14.1707  -13.8840   18.5459 N   0  0  0  0  0  0  0  0  0  0  0  0
   13.8153  -15.1023   19.1876 C   0  0  0  0  0  0  0  0  0  0  0  0
   14.0013  -16.1571   18.5694 O   0  0  0  0  0  0  0  0  0  0  0  0
   13.2560  -15.0652   20.5255 C   0  0  0  0  0  0  0  0  0  0  0  0
   11.8216  -15.3638   20.7064 C   0  0  2  0  0  0  0  0  0  0  0  0
   10.8778  -14.7983   19.8248 N   0  0  0  0  0  0  0  0  0  0  0  0
   11.3928  -15.2137   22.1595 C   0  0  0  0  0  0  0  0  0  0  0  0
   12.1031  -14.6199   22.9748 O   0  0  0  0  0  0  0  0  0  0  0  0
    8.2495  -13.7306   23.5283 C   0  0  0  0  0  0  0  0  0  0  0  0
    8.2474  -15.1806   23.9732 C   0  0  1  0  0  0  0  0  0  0  0  0
    7.3154  -15.8915   23.2421 O   0  0  0  0  0  0  0  0  0  0  0  0
    9.6445  -15.7404   23.8794 C   0  0  2  0  0  0  0  0  0  0  0  0
   10.1590  -15.7721   22.5294 N   0  0  0  0  0  0  0  0  0  0  0  0
    9.8348  -16.9921   24.6484 C   0  0  0  0  0  0  0  0  0  0  0  0
   10.2763  -18.0344   24.1327 O   0  0  0  0  0  0  0  0  0  0  0  0
    9.5197  -17.0384   25.9914 O   0  0  0  0  0  0  0  0  0  0  0  0
  2  8  1  0
  2  1  1  6
  3  2  1  0
  4  3  1  0
  5  4  1  0
  5  6  1  0
  6  7  1  0
  8  9  2  0
 10 11  1  0
 11 12  2  0
 13 11  1  0
 14 13  1  1
 15 14  1  0
 15  8  1  0
 16 17  2  0
 16 14  1  0
 19 18  1  6
 19 21  1  0
 20 19  1  0
 21 22  1  6
 21 23  1  0
 22 16  1  0
 23 25  1  0
 24 23  2  0
M  END
$$$$
