KNT.pdb
     RDKit          3D

 25 24  0  0  1  0  0  0  0  0999 V2000
    7.0189  -15.1773   20.1996 N   0  0  0  0  0  0  0  0  0  0  0  0
    8.0224  -14.1636   20.3292 C   0  0  1  0  0  0  0  0  0  0  0  0
    7.7653  -13.0483   19.3969 C   0  0  0  0  0  0  0  0  0  0  0  0
    7.4351  -13.4086   17.9930 C   0  0  0  0  0  0  0  0  0  0  0  0
    8.4779  -14.1908   17.2736 C   0  0  0  0  0  0  0  0  0  0  0  0
    8.0645  -14.4597   15.8304 C   0  0  0  0  0  0  0  0  0  0  0  0
    9.0558  -15.2867   15.1800 N   0  0  0  0  0  0  0  0  0  0  0  0
    8.4389  -13.8663   21.6981 C   0  0  0  0  0  0  0  0  0  0  0  0
    9.4135  -13.1048   21.8940 O   0  0  0  0  0  0  0  0  0  0  0  0
    8.6753  -13.9780   26.9473 N   0  0  0  0  0  0  0  0  0  0  0  0
    7.5103  -13.3402   26.4389 C   0  0  0  0  0  0  0  0  0  0  0  0
    6.8576  -12.6278   27.2109 O   0  0  0  0  0  0  0  0  0  0  0  0
    7.1348  -13.5442   25.0527 C   0  0  0  0  0  0  0  0  0  0  0  0
    8.0259  -14.3369   24.1826 C   0  0  2  0  0  0  0  0  0  0  0  0
    7.7630  -14.4076   22.7994 N   0  0  0  0  0  0  0  0  0  0  0  0
    8.3119  -15.7118   24.7707 C   0  0  0  0  0  0  0  0  0  0  0  0
    7.3949  -16.4895   25.0468 O   0  0  0  0  0  0  0  0  0  0  0  0
   10.2518  -18.2763   23.1767 C   0  0  0  0  0  0  0  0  0  0  0  0
   10.9741  -18.0872   24.4968 C   0  0  1  0  0  0  0  0  0  0  0  0
   12.1866  -17.4616   24.2798 O   0  0  0  0  0  0  0  0  0  0  0  0
   10.0789  -17.3523   25.4625 C   0  0  2  0  0  0  0  0  0  0  0  0
    9.6565  -16.0575   24.9794 N   0  0  0  0  0  0  0  0  0  0  0  0
   10.5746  -17.3653   26.8583 C   0  0  0  0  0  0  0  0  0  0  0  0
   10.7605  -16.3240   27.5128 O   0  0  0  0  0  0  0  0  0  0  0  0
   10.8513  -18.5624   27.4873 O   0  0  0  0  0  0  0  0  0  0  0  0
  2  8  1  0
  2  1  1  1
  3  2  1  0
  4  3  1  0
  5  4  1  0
  5  6  1  0
  6  7  1  0
  8  9  2  0
 10 11  1  0
 11 12  2  0
 13 11  1  0
 14 13  1  1
 15 14  1  0
 15  8  1  0
 16 17  2  0
 16 14  1  0
 19 18  1  6
 19 21  1  0
 20 19  1  0
 21 22  1  6
 21 23  1  0
 22 16  1  0
 23 25  1  0
 24 23  2  0
M  END
$$$$
