KNT.pdb
     RDKit          3D

 25 24  0  0  1  0  0  0  0  0999 V2000
    6.0818  -16.6113   20.7837 N   0  0  0  0  0  0  0  0  0  0  0  0
    7.1437  -15.9571   21.4878 C   0  0  1  0  0  0  0  0  0  0  0  0
    6.9682  -14.4916   21.4585 C   0  0  0  0  0  0  0  0  0  0  0  0
    6.9427  -13.8445   20.1203 C   0  0  0  0  0  0  0  0  0  0  0  0
    8.2753  -13.4933   19.5567 C   0  0  0  0  0  0  0  0  0  0  0  0
    8.3498  -12.0109   19.2061 C   0  0  0  0  0  0  0  0  0  0  0  0
    9.6147  -11.7180   18.5706 N   0  0  0  0  0  0  0  0  0  0  0  0
    7.5591  -16.6001   22.7326 C   0  0  0  0  0  0  0  0  0  0  0  0
    6.6892  -16.9884   23.5455 O   0  0  0  0  0  0  0  0  0  0  0  0
   10.8640  -18.3548   26.4995 N   0  0  0  0  0  0  0  0  0  0  0  0
   11.1415  -18.9547   25.2404 C   0  0  0  0  0  0  0  0  0  0  0  0
   11.9320  -19.9055   25.2146 O   0  0  0  0  0  0  0  0  0  0  0  0
   10.4965  -18.4381   24.0483 C   0  0  0  0  0  0  0  0  0  0  0  0
    9.5474  -17.3152   24.1817 C   0  0  2  0  0  0  0  0  0  0  0  0
    8.9125  -16.8021   23.0323 N   0  0  0  0  0  0  0  0  0  0  0  0
   10.1085  -16.2030   25.0569 C   0  0  0  0  0  0  0  0  0  0  0  0
   11.1672  -15.6389   24.7689 O   0  0  0  0  0  0  0  0  0  0  0  0
    7.4311  -13.9850   27.3143 C   0  0  0  0  0  0  0  0  0  0  0  0
    8.8598  -13.5736   27.0148 C   0  0  1  0  0  0  0  0  0  0  0  0
    9.2358  -12.5456   27.8578 O   0  0  0  0  0  0  0  0  0  0  0  0
    9.7608  -14.7802   27.0934 C   0  0  2  0  0  0  0  0  0  0  0  0
    9.3715  -15.8446   26.1968 N   0  0  0  0  0  0  0  0  0  0  0  0
   10.0571  -15.2102   28.4796 C   0  0  0  0  0  0  0  0  0  0  0  0
    9.8461  -16.3684   28.8811 O   0  0  0  0  0  0  0  0  0  0  0  0
   10.5880  -14.3158   29.3870 O   0  0  0  0  0  0  0  0  0  0  0  0
  2  8  1  0
  2  1  1  1
  3  2  1  0
  4  3  1  0
  5  4  1  0
  5  6  1  0
  6  7  1  0
  8  9  2  0
 10 11  1  0
 11 12  2  0
 13 11  1  0
 14 13  1  6
 15 14  1  0
 15  8  1  0
 16 17  2  0
 16 14  1  0
 19 18  1  1
 19 21  1  0
 20 19  1  0
 21 22  1  6
 21 23  1  0
 22 16  1  0
 23 25  1  0
 24 23  2  0
M  END
$$$$
