KNT.pdb
     RDKit          3D

 25 24  0  0  1  0  0  0  0  0999 V2000
   10.7376  -19.7261   17.1828 N   0  0  0  0  0  0  0  0  0  0  0  0
    9.6437  -19.0863   17.8501 C   0  0  1  0  0  0  0  0  0  0  0  0
    8.3639  -19.4107   17.1898 C   0  0  0  0  0  0  0  0  0  0  0  0
    8.4381  -20.1941   15.9285 C   0  0  0  0  0  0  0  0  0  0  0  0
    7.1269  -20.5225   15.3042 C   0  0  0  0  0  0  0  0  0  0  0  0
    7.3131  -21.3685   14.0489 C   0  0  0  0  0  0  0  0  0  0  0  0
    6.0246  -21.7111   13.4903 N   0  0  0  0  0  0  0  0  0  0  0  0
    9.7130  -19.0888   19.3099 C   0  0  0  0  0  0  0  0  0  0  0  0
    8.7624  -18.6142   19.9727 O   0  0  0  0  0  0  0  0  0  0  0  0
   10.3007  -22.9345   21.4903 N   0  0  0  0  0  0  0  0  0  0  0  0
   11.5436  -22.3088   21.1968 C   0  0  0  0  0  0  0  0  0  0  0  0
   12.3262  -22.9019   20.4449 O   0  0  0  0  0  0  0  0  0  0  0  0
   11.8448  -21.0157   21.7808 C   0  0  0  0  0  0  0  0  0  0  0  0
   11.0552  -19.8420   21.3583 C   0  0  2  0  0  0  0  0  0  0  0  0
   10.8181  -19.6218   19.9861 N   0  0  0  0  0  0  0  0  0  0  0  0
   11.5139  -18.5711   22.0598 C   0  0  0  0  0  0  0  0  0  0  0  0
   12.5436  -17.9877   21.7114 O   0  0  0  0  0  0  0  0  0  0  0  0
    9.6217  -15.4340   22.3538 C   0  0  0  0  0  0  0  0  0  0  0  0
    9.8593  -15.8771   23.7846 C   0  0  1  0  0  0  0  0  0  0  0  0
    8.6836  -16.3625   24.3240 O   0  0  0  0  0  0  0  0  0  0  0  0
   10.9969  -16.8661   23.8256 C   0  0  2  0  0  0  0  0  0  0  0  0
   10.7170  -18.0905   23.1110 N   0  0  0  0  0  0  0  0  0  0  0  0
   11.5735  -17.0514   25.1775 C   0  0  0  0  0  0  0  0  0  0  0  0
   11.5617  -18.1470   25.7662 O   0  0  0  0  0  0  0  0  0  0  0  0
   12.1540  -15.9875   25.8381 O   0  0  0  0  0  0  0  0  0  0  0  0
  2  8  1  0
  2  1  1  6
  3  2  1  0
  4  3  1  0
  5  4  1  0
  5  6  1  0
  6  7  1  0
  8  9  2  0
 10 11  1  0
 11 12  2  0
 13 11  1  0
 14 13  1  6
 15 14  1  0
 15  8  1  0
 16 17  2  0
 16 14  1  0
 19 18  1  6
 19 21  1  0
 20 19  1  0
 21 22  1  1
 21 23  1  0
 22 16  1  0
 23 25  1  0
 24 23  2  0
M  END
$$$$
