KNT.pdb
     RDKit          3D

 25 24  0  0  1  0  0  0  0  0999 V2000
    6.3535  -15.8999   20.4483 N   0  0  0  0  0  0  0  0  0  0  0  0
    7.4076  -15.1777   21.0954 C   0  0  1  0  0  0  0  0  0  0  0  0
    7.2341  -13.7228   20.9161 C   0  0  0  0  0  0  0  0  0  0  0  0
    7.2046  -13.2167   19.5186 C   0  0  0  0  0  0  0  0  0  0  0  0
    8.2972  -13.7136   18.6376 C   0  0  0  0  0  0  0  0  0  0  0  0
    8.1396  -13.1847   17.2159 C   0  0  0  0  0  0  0  0  0  0  0  0
    9.1839  -13.7207   16.3723 N   0  0  0  0  0  0  0  0  0  0  0  0
    7.8072  -15.6918   22.4038 C   0  0  0  0  0  0  0  0  0  0  0  0
    6.9366  -15.8795   23.2841 O   0  0  0  0  0  0  0  0  0  0  0  0
   11.5257  -19.1994   25.3266 N   0  0  0  0  0  0  0  0  0  0  0  0
   11.5891  -17.8281   24.9552 C   0  0  0  0  0  0  0  0  0  0  0  0
   12.2195  -17.0587   25.6901 O   0  0  0  0  0  0  0  0  0  0  0  0
   10.9223  -17.3870   23.7449 C   0  0  0  0  0  0  0  0  0  0  0  0
    9.7608  -16.4832   23.8605 C   0  0  2  0  0  0  0  0  0  0  0  0
    9.1453  -15.9902   22.6919 N   0  0  0  0  0  0  0  0  0  0  0  0
   10.0066  -15.3755   24.8756 C   0  0  0  0  0  0  0  0  0  0  0  0
   10.8370  -14.4886   24.6617 O   0  0  0  0  0  0  0  0  0  0  0  0
    8.4249  -12.5348   26.0238 C   0  0  0  0  0  0  0  0  0  0  0  0
    8.3748  -13.4269   27.2493 C   0  0  1  0  0  0  0  0  0  0  0  0
    7.1024  -13.9443   27.3980 O   0  0  0  0  0  0  0  0  0  0  0  0
    9.4487  -14.4811   27.1518 C   0  0  2  0  0  0  0  0  0  0  0  0
    9.2484  -15.4027   26.0569 N   0  0  0  0  0  0  0  0  0  0  0  0
    9.7757  -15.1165   28.4493 C   0  0  0  0  0  0  0  0  0  0  0  0
    9.7185  -16.3464   28.6260 O   0  0  0  0  0  0  0  0  0  0  0  0
   10.1623  -14.3430   29.5251 O   0  0  0  0  0  0  0  0  0  0  0  0
  2  8  1  0
  2  1  1  1
  3  2  1  0
  4  3  1  0
  5  4  1  0
  5  6  1  0
  6  7  1  0
  8  9  2  0
 10 11  1  0
 11 12  2  0
 13 11  1  0
 14 13  1  6
 15 14  1  0
 15  8  1  0
 16 17  2  0
 16 14  1  0
 19 18  1  6
 19 21  1  0
 20 19  1  0
 21 22  1  6
 21 23  1  0
 22 16  1  0
 23 25  1  0
 24 23  2  0
M  END
$$$$
