KNT.pdb
     RDKit          3D

 25 24  0  0  1  0  0  0  0  0999 V2000
    9.7322  -16.0630   19.8206 N   0  0  0  0  0  0  0  0  0  0  0  0
    8.9828  -15.0019   20.4237 C   0  0  1  0  0  0  0  0  0  0  0  0
    7.9725  -14.4739   19.4858 C   0  0  0  0  0  0  0  0  0  0  0  0
    8.2018  -14.7265   18.0389 C   0  0  0  0  0  0  0  0  0  0  0  0
    7.5824  -13.7382   17.1134 C   0  0  0  0  0  0  0  0  0  0  0  0
    7.8407  -14.1124   15.6576 C   0  0  0  0  0  0  0  0  0  0  0  0
    7.2152  -13.1468   14.7824 N   0  0  0  0  0  0  0  0  0  0  0  0
    8.6158  -15.2111   21.8227 C   0  0  0  0  0  0  0  0  0  0  0  0
    7.6446  -14.5849   22.3052 O   0  0  0  0  0  0  0  0  0  0  0  0
   11.4183  -19.3105   23.5608 N   0  0  0  0  0  0  0  0  0  0  0  0
   10.1120  -18.7536   23.6380 C   0  0  0  0  0  0  0  0  0  0  0  0
    9.2278  -19.2536   22.9326 O   0  0  0  0  0  0  0  0  0  0  0  0
    9.8665  -17.6356   24.5290 C   0  0  0  0  0  0  0  0  0  0  0  0
    9.1844  -16.4386   23.9987 C   0  0  2  0  0  0  0  0  0  0  0  0
    9.3220  -16.1076   22.6352 N   0  0  0  0  0  0  0  0  0  0  0  0
    9.3946  -15.2259   24.8948 C   0  0  0  0  0  0  0  0  0  0  0  0
   10.4657  -14.6138   24.8969 O   0  0  0  0  0  0  0  0  0  0  0  0
    7.0712  -12.1674   25.1618 C   0  0  0  0  0  0  0  0  0  0  0  0
    7.1490  -12.8213   26.5281 C   0  0  1  0  0  0  0  0  0  0  0  0
    5.9717  -13.4949   26.7906 O   0  0  0  0  0  0  0  0  0  0  0  0
    8.3753  -13.6957   26.6012 C   0  0  2  0  0  0  0  0  0  0  0  0
    8.3218  -14.8324   25.7104 N   0  0  0  0  0  0  0  0  0  0  0  0
    8.7992  -14.0084   27.9857 C   0  0  0  0  0  0  0  0  0  0  0  0
    8.9589  -15.1738   28.3902 O   0  0  0  0  0  0  0  0  0  0  0  0
    9.0343  -12.9907   28.8880 O   0  0  0  0  0  0  0  0  0  0  0  0
  2  8  1  0
  2  1  1  6
  3  2  1  0
  4  3  1  0
  5  4  1  0
  5  6  1  0
  6  7  1  0
  8  9  2  0
 10 11  1  0
 11 12  2  0
 13 11  1  0
 14 13  1  1
 15 14  1  0
 15  8  1  0
 16 17  2  0
 16 14  1  0
 19 18  1  6
 19 21  1  0
 20 19  1  0
 21 22  1  6
 21 23  1  0
 22 16  1  0
 23 25  1  0
 24 23  2  0
M  END
$$$$
