KNT.pdb
     RDKit          3D

 25 24  0  0  1  0  0  0  0  0999 V2000
    8.1049  -18.2029   19.2898 N   0  0  0  0  0  0  0  0  0  0  0  0
    9.4884  -17.8350   19.2491 C   0  0  1  0  0  0  0  0  0  0  0  0
   10.0804  -18.1632   17.9372 C   0  0  0  0  0  0  0  0  0  0  0  0
    9.2105  -18.8799   16.9678 C   0  0  0  0  0  0  0  0  0  0  0  0
    8.9690  -20.3177   17.2701 C   0  0  0  0  0  0  0  0  0  0  0  0
    8.1028  -20.9666   16.1957 C   0  0  0  0  0  0  0  0  0  0  0  0
    7.7737  -22.3208   16.5797 N   0  0  0  0  0  0  0  0  0  0  0  0
    9.8153  -16.5573   19.8787 C   0  0  0  0  0  0  0  0  0  0  0  0
   11.0087  -16.1805   19.9244 O   0  0  0  0  0  0  0  0  0  0  0  0
    6.3558  -12.7533   19.0270 N   0  0  0  0  0  0  0  0  0  0  0  0
    7.6599  -13.1990   19.3778 C   0  0  0  0  0  0  0  0  0  0  0  0
    8.4718  -13.3874   18.4641 O   0  0  0  0  0  0  0  0  0  0  0  0
    7.9870  -13.4131   20.7746 C   0  0  0  0  0  0  0  0  0  0  0  0
    8.8954  -14.5206   21.1319 C   0  0  2  0  0  0  0  0  0  0  0  0
    8.8189  -15.7375   20.4241 N   0  0  0  0  0  0  0  0  0  0  0  0
    8.9432  -14.7483   22.6364 C   0  0  0  0  0  0  0  0  0  0  0  0
    9.0699  -13.8036   23.4197 O   0  0  0  0  0  0  0  0  0  0  0  0
    6.6234  -15.9076   25.0607 C   0  0  0  0  0  0  0  0  0  0  0  0
    7.6896  -16.9861   25.0795 C   0  0  1  0  0  0  0  0  0  0  0  0
    7.2174  -18.1200   24.4471 O   0  0  0  0  0  0  0  0  0  0  0  0
    8.9649  -16.4471   24.4819 C   0  0  2  0  0  0  0  0  0  0  0  0
    8.8321  -16.0713   23.0929 N   0  0  0  0  0  0  0  0  0  0  0  0
   10.1590  -17.2661   24.7945 C   0  0  0  0  0  0  0  0  0  0  0  0
   10.9453  -17.6657   23.9175 O   0  0  0  0  0  0  0  0  0  0  0  0
   10.4394  -17.6178   26.0994 O   0  0  0  0  0  0  0  0  0  0  0  0
  2  8  1  0
  2  1  1  6
  3  2  1  0
  4  3  1  0
  5  4  1  0
  5  6  1  0
  6  7  1  0
  8  9  2  0
 10 11  1  0
 11 12  2  0
 13 11  1  0
 14 13  1  1
 15 14  1  0
 15  8  1  0
 16 17  2  0
 16 14  1  0
 19 18  1  6
 19 21  1  0
 20 19  1  0
 21 22  1  6
 21 23  1  0
 22 16  1  0
 23 25  1  0
 24 23  2  0
M  END
$$$$
