KNT.pdb
     RDKit          3D

 25 24  0  0  1  0  0  0  0  0999 V2000
    9.0384  -15.1972   19.5415 N   0  0  0  0  0  0  0  0  0  0  0  0
    8.1532  -14.4510   20.3847 C   0  0  1  0  0  0  0  0  0  0  0  0
    6.9141  -14.0989   19.6638 C   0  0  0  0  0  0  0  0  0  0  0  0
    6.8826  -14.3804   18.2044 C   0  0  0  0  0  0  0  0  0  0  0  0
    7.7690  -13.5225   17.3705 C   0  0  0  0  0  0  0  0  0  0  0  0
    7.5432  -13.7808   15.8845 C   0  0  0  0  0  0  0  0  0  0  0  0
    8.3689  -12.8916   15.0990 N   0  0  0  0  0  0  0  0  0  0  0  0
    8.0655  -14.9158   21.7674 C   0  0  0  0  0  0  0  0  0  0  0  0
    7.1630  -14.4687   22.5117 O   0  0  0  0  0  0  0  0  0  0  0  0
   11.3345  -18.6767   25.4755 N   0  0  0  0  0  0  0  0  0  0  0  0
   10.0582  -18.1895   25.0805 C   0  0  0  0  0  0  0  0  0  0  0  0
    9.1393  -18.2394   25.9067 O   0  0  0  0  0  0  0  0  0  0  0  0
    9.8820  -17.6584   23.7423 C   0  0  0  0  0  0  0  0  0  0  0  0
    9.1066  -16.4146   23.5659 C   0  0  2  0  0  0  0  0  0  0  0  0
    8.9647  -15.8615   22.2769 N   0  0  0  0  0  0  0  0  0  0  0  0
    9.4945  -15.3577   24.5907 C   0  0  0  0  0  0  0  0  0  0  0  0
   10.6097  -14.8306   24.5709 O   0  0  0  0  0  0  0  0  0  0  0  0
    7.6246  -12.1389   25.5201 C   0  0  0  0  0  0  0  0  0  0  0  0
    7.6641  -13.0301   26.7467 C   0  0  1  0  0  0  0  0  0  0  0  0
    6.4206  -13.5957   26.9527 O   0  0  0  0  0  0  0  0  0  0  0  0
    8.7722  -14.0425   26.6009 C   0  0  2  0  0  0  0  0  0  0  0  0
    8.5326  -15.0062   25.5510 N   0  0  0  0  0  0  0  0  0  0  0  0
    9.2194  -14.6220   27.8886 C   0  0  0  0  0  0  0  0  0  0  0  0
    9.3008  -15.8486   28.0787 O   0  0  0  0  0  0  0  0  0  0  0  0
    9.5665  -13.7974   28.9396 O   0  0  0  0  0  0  0  0  0  0  0  0
  2  8  1  0
  2  1  1  6
  3  2  1  0
  4  3  1  0
  5  4  1  0
  5  6  1  0
  6  7  1  0
  8  9  2  0
 10 11  1  0
 11 12  2  0
 13 11  1  0
 14 13  1  6
 15 14  1  0
 15  8  1  0
 16 17  2  0
 16 14  1  0
 19 18  1  6
 19 21  1  0
 20 19  1  0
 21 22  1  6
 21 23  1  0
 22 16  1  0
 23 25  1  0
 24 23  2  0
M  END
$$$$
