KNT.pdb
     RDKit          3D

 25 24  0  0  1  0  0  0  0  0999 V2000
    8.6059  -19.4594   20.8446 N   0  0  0  0  0  0  0  0  0  0  0  0
    9.6821  -19.0701   19.9834 C   0  0  1  0  0  0  0  0  0  0  0  0
    9.7912  -19.9877   18.8322 C   0  0  0  0  0  0  0  0  0  0  0  0
    8.5372  -20.6393   18.3710 C   0  0  0  0  0  0  0  0  0  0  0  0
    8.2217  -20.4639   16.9264 C   0  0  0  0  0  0  0  0  0  0  0  0
    8.7906  -21.6103   16.0970 C   0  0  0  0  0  0  0  0  0  0  0  0
    8.3536  -21.4894   14.7244 N   0  0  0  0  0  0  0  0  0  0  0  0
    9.8194  -17.6319   19.7637 C   0  0  0  0  0  0  0  0  0  0  0  0
   10.7669  -17.2028   19.0663 O   0  0  0  0  0  0  0  0  0  0  0  0
    6.7455  -12.4673   19.9554 N   0  0  0  0  0  0  0  0  0  0  0  0
    7.7468  -13.2400   19.3051 C   0  0  0  0  0  0  0  0  0  0  0  0
    8.5879  -12.6412   18.6244 O   0  0  0  0  0  0  0  0  0  0  0  0
    7.7464  -14.6820   19.4617 C   0  0  0  0  0  0  0  0  0  0  0  0
    8.8328  -15.3148   20.2355 C   0  0  2  0  0  0  0  0  0  0  0  0
    8.9054  -16.7208   20.3089 N   0  0  0  0  0  0  0  0  0  0  0  0
    8.9981  -14.6719   21.6056 C   0  0  0  0  0  0  0  0  0  0  0  0
    9.1587  -13.4543   21.7224 O   0  0  0  0  0  0  0  0  0  0  0  0
    6.8376  -14.0886   24.3103 C   0  0  0  0  0  0  0  0  0  0  0  0
    7.8219  -15.0944   24.8758 C   0  0  1  0  0  0  0  0  0  0  0  0
    7.2393  -16.3465   24.9141 O   0  0  0  0  0  0  0  0  0  0  0  0
    9.1040  -15.0479   24.0834 C   0  0  2  0  0  0  0  0  0  0  0  0
    8.9548  -15.5180   22.7251 N   0  0  0  0  0  0  0  0  0  0  0  0
   10.2706  -15.6011   24.8097 C   0  0  0  0  0  0  0  0  0  0  0  0
   11.0040  -16.4820   24.3266 O   0  0  0  0  0  0  0  0  0  0  0  0
   10.5841  -15.1438   26.0737 O   0  0  0  0  0  0  0  0  0  0  0  0
  2  8  1  0
  2  1  1  6
  3  2  1  0
  4  3  1  0
  5  4  1  0
  5  6  1  0
  6  7  1  0
  8  9  2  0
 10 11  1  0
 11 12  2  0
 13 11  1  0
 14 13  1  1
 15 14  1  0
 15  8  1  0
 16 17  2  0
 16 14  1  0
 19 18  1  6
 19 21  1  0
 20 19  1  0
 21 22  1  6
 21 23  1  0
 22 16  1  0
 23 25  1  0
 24 23  2  0
M  END
$$$$
