KNT.pdb
     RDKit          3D

 25 24  0  0  1  0  0  0  0  0999 V2000
   -1.4549  -25.4569   27.1022 N   0  0  0  0  0  0  0  0  0  0  0  0
   -2.6131  -26.2882   27.2401 C   0  0  1  0  0  0  0  0  0  0  0  0
   -2.2282  -27.7078   27.3661 C   0  0  0  0  0  0  0  0  0  0  0  0
   -1.8040  -28.4020   26.1220 C   0  0  0  0  0  0  0  0  0  0  0  0
   -0.4677  -29.0561   26.1811 C   0  0  0  0  0  0  0  0  0  0  0  0
   -0.1412  -29.7578   24.8669 C   0  0  0  0  0  0  0  0  0  0  0  0
    1.1939  -30.3092   24.9213 N   0  0  0  0  0  0  0  0  0  0  0  0
   -3.6665  -25.7563   28.1021 C   0  0  0  0  0  0  0  0  0  0  0  0
   -4.7158  -26.4182   28.2727 O   0  0  0  0  0  0  0  0  0  0  0  0
   -3.8358  -25.6624   31.8876 N   0  0  0  0  0  0  0  0  0  0  0  0
   -3.4328  -24.3053   32.0226 C   0  0  0  0  0  0  0  0  0  0  0  0
   -2.8463  -23.9770   33.0608 O   0  0  0  0  0  0  0  0  0  0  0  0
   -3.7191  -23.3681   30.9532 C   0  0  0  0  0  0  0  0  0  0  0  0
   -4.3302  -23.8733   29.7079 C   0  0  2  0  0  0  0  0  0  0  0  0
   -3.5232  -24.5237   28.7523 N   0  0  0  0  0  0  0  0  0  0  0  0
   -5.2376  -22.8348   29.0630 C   0  0  0  0  0  0  0  0  0  0  0  0
   -6.0591  -22.2033   29.7326 O   0  0  0  0  0  0  0  0  0  0  0  0
   -4.0615  -20.0874   26.6563 C   0  0  0  0  0  0  0  0  0  0  0  0
   -5.1331  -20.8818   25.9345 C   0  0  1  0  0  0  0  0  0  0  0  0
   -4.5576  -21.6366   24.9306 O   0  0  0  0  0  0  0  0  0  0  0  0
   -5.9156  -21.6983   26.9321 C   0  0  2  0  0  0  0  0  0  0  0  0
   -5.0972  -22.6233   27.6822 N   0  0  0  0  0  0  0  0  0  0  0  0
   -7.1617  -22.2766   26.3780 C   0  0  0  0  0  0  0  0  0  0  0  0
   -7.4481  -23.4818   26.4896 O   0  0  0  0  0  0  0  0  0  0  0  0
   -8.0619  -21.4749   25.7056 O   0  0  0  0  0  0  0  0  0  0  0  0
  2  8  1  0
  2  1  1  1
  3  2  1  0
  4  3  1  0
  5  4  1  0
  5  6  1  0
  6  7  1  0
  8  9  2  0
 10 11  1  0
 11 12  2  0
 13 11  1  0
 14 13  1  1
 15 14  1  0
 15  8  1  0
 16 17  2  0
 16 14  1  0
 19 18  1  1
 19 21  1  0
 20 19  1  0
 21 22  1  6
 21 23  1  0
 22 16  1  0
 23 25  1  0
 24 23  2  0
M  END
$$$$
