KNT.pdb
     RDKit          3D

 25 24  0  0  1  0  0  0  0  0999 V2000
    9.4033  -15.5709   19.6703 N   0  0  0  0  0  0  0  0  0  0  0  0
    8.6341  -14.4393   20.0936 C   0  0  1  0  0  0  0  0  0  0  0  0
    7.8739  -13.8691   18.9638 C   0  0  0  0  0  0  0  0  0  0  0  0
    7.9884  -14.5673   17.6564 C   0  0  0  0  0  0  0  0  0  0  0  0
    8.2147  -13.6835   16.4796 C   0  0  0  0  0  0  0  0  0  0  0  0
    8.2883  -14.4945   15.1901 C   0  0  0  0  0  0  0  0  0  0  0  0
    8.4089  -13.6064   14.0559 N   0  0  0  0  0  0  0  0  0  0  0  0
    7.9818  -14.5766   21.3941 C   0  0  0  0  0  0  0  0  0  0  0  0
    7.3098  -13.6234   21.8501 O   0  0  0  0  0  0  0  0  0  0  0  0
    7.5557  -18.8777   25.8282 N   0  0  0  0  0  0  0  0  0  0  0  0
    6.8911  -17.8782   25.0655 C   0  0  0  0  0  0  0  0  0  0  0  0
    5.8968  -17.3369   25.5634 O   0  0  0  0  0  0  0  0  0  0  0  0
    7.3960  -17.5336   23.7502 C   0  0  0  0  0  0  0  0  0  0  0  0
    7.5764  -16.1090   23.4071 C   0  0  2  0  0  0  0  0  0  0  0  0
    8.0832  -15.7587   22.1390 N   0  0  0  0  0  0  0  0  0  0  0  0
    8.2762  -15.3443   24.5222 C   0  0  0  0  0  0  0  0  0  0  0  0
    9.5041  -15.3708   24.6391 O   0  0  0  0  0  0  0  0  0  0  0  0
    7.1923  -11.6517   25.7079 C   0  0  0  0  0  0  0  0  0  0  0  0
    7.1599  -12.6387   26.8590 C   0  0  1  0  0  0  0  0  0  0  0  0
    5.8501  -12.9436   27.1755 O   0  0  0  0  0  0  0  0  0  0  0  0
    7.9954  -13.8457   26.5141 C   0  0  2  0  0  0  0  0  0  0  0  0
    7.4699  -14.6073   25.4040 N   0  0  0  0  0  0  0  0  0  0  0  0
    8.3877  -14.6523   27.6930 C   0  0  0  0  0  0  0  0  0  0  0  0
    8.2008  -15.8803   27.7565 O   0  0  0  0  0  0  0  0  0  0  0  0
    8.9859  -14.0491   28.7809 O   0  0  0  0  0  0  0  0  0  0  0  0
  2  8  1  0
  2  1  1  6
  3  2  1  0
  4  3  1  0
  5  4  1  0
  5  6  1  0
  6  7  1  0
  8  9  2  0
 10 11  1  0
 11 12  2  0
 13 11  1  0
 14 13  1  1
 15 14  1  0
 15  8  1  0
 16 17  2  0
 16 14  1  0
 19 18  1  6
 19 21  1  0
 20 19  1  0
 21 22  1  6
 21 23  1  0
 22 16  1  0
 23 25  1  0
 24 23  2  0
M  END
$$$$
