KNT.pdb
     RDKit          3D

 25 24  0  0  1  0  0  0  0  0999 V2000
    7.0707  -14.4208   23.1504 N   0  0  0  0  0  0  0  0  0  0  0  0
    7.1959  -15.6106   22.3632 C   0  0  1  0  0  0  0  0  0  0  0  0
    6.7056  -15.3850   20.9892 C   0  0  0  0  0  0  0  0  0  0  0  0
    7.2100  -14.1764   20.2857 C   0  0  0  0  0  0  0  0  0  0  0  0
    7.7574  -14.4149   18.9217 C   0  0  0  0  0  0  0  0  0  0  0  0
    8.2170  -13.1105   18.2788 C   0  0  0  0  0  0  0  0  0  0  0  0
    8.7106  -13.3662   16.9445 N   0  0  0  0  0  0  0  0  0  0  0  0
    8.4301  -16.3672   22.5640 C   0  0  0  0  0  0  0  0  0  0  0  0
    8.8494  -17.1154   21.6515 O   0  0  0  0  0  0  0  0  0  0  0  0
   13.4032  -17.7614   23.1298 N   0  0  0  0  0  0  0  0  0  0  0  0
   12.9387  -16.4319   23.3271 C   0  0  0  0  0  0  0  0  0  0  0  0
   13.7500  -15.5898   23.7298 O   0  0  0  0  0  0  0  0  0  0  0  0
   11.5502  -16.1150   23.0524 C   0  0  0  0  0  0  0  0  0  0  0  0
   10.5220  -16.5064   24.0368 C   0  0  2  0  0  0  0  0  0  0  0  0
    9.1621  -16.2651   23.7540 N   0  0  0  0  0  0  0  0  0  0  0  0
   10.8903  -16.0604   25.4451 C   0  0  0  0  0  0  0  0  0  0  0  0
   11.9784  -16.3598   25.9437 O   0  0  0  0  0  0  0  0  0  0  0  0
    9.3761  -12.5176   26.9991 C   0  0  0  0  0  0  0  0  0  0  0  0
    9.1890  -13.7264   27.8957 C   0  0  1  0  0  0  0  0  0  0  0  0
    7.8669  -14.1266   27.8695 O   0  0  0  0  0  0  0  0  0  0  0  0
   10.1569  -14.8101   27.4923 C   0  0  2  0  0  0  0  0  0  0  0  0
    9.9467  -15.2935   26.1468 N   0  0  0  0  0  0  0  0  0  0  0  0
   10.3232  -15.8681   28.5157 C   0  0  0  0  0  0  0  0  0  0  0  0
   10.2076  -17.0783   28.2528 O   0  0  0  0  0  0  0  0  0  0  0  0
   10.6180  -15.5326   29.8218 O   0  0  0  0  0  0  0  0  0  0  0  0
  2  8  1  0
  2  1  1  6
  3  2  1  0
  4  3  1  0
  5  4  1  0
  5  6  1  0
  6  7  1  0
  8  9  2  0
 10 11  1  0
 11 12  2  0
 13 11  1  0
 14 13  1  6
 15 14  1  0
 15  8  1  0
 16 17  2  0
 16 14  1  0
 19 18  1  6
 19 21  1  0
 20 19  1  0
 21 22  1  6
 21 23  1  0
 22 16  1  0
 23 25  1  0
 24 23  2  0
M  END
$$$$
