INA.pdb
     RDKit          3D

 22 21  0  0  1  0  0  0  0  0999 V2000
   17.3433  -12.1101  -14.6735 C   0  0  0  0  0  0  0  0  0  0  0  0
   17.1650  -11.8302  -13.1977 C   0  0  0  0  0  0  0  0  0  0  0  0
   16.6071  -10.4774  -12.9301 C   0  0  2  0  0  0  0  0  0  0  0  0
   17.4021   -9.3655  -13.5624 C   0  0  0  0  0  0  0  0  0  0  0  0
   16.3788  -10.1649  -11.4677 C   0  0  2  0  0  0  0  0  0  0  0  0
   15.4477  -11.2074  -10.9820 N   0  0  0  0  0  0  0  0  0  0  0  0
   15.7027   -8.8750  -11.2277 C   0  0  0  0  0  0  0  0  0  0  0  0
   14.5301   -8.6648  -11.6605 O   0  0  0  0  0  0  0  0  0  0  0  0
   15.0169   -7.6636   -7.0738 N   0  0  0  0  0  0  0  0  0  0  0  0
   14.7104   -6.8177   -8.1912 C   0  0  0  0  0  0  0  0  0  0  0  0
   13.4990   -6.7162   -8.5158 O   0  0  0  0  0  0  0  0  0  0  0  0
   15.8031   -6.0991   -8.9239 C   0  0  0  0  0  0  0  0  0  0  0  0
   15.6468   -6.4768  -10.3979 C   0  0  2  0  0  0  0  0  0  0  0  0
   16.2652   -7.7831  -10.5159 N   0  0  0  0  0  0  0  0  0  0  0  0
   16.2162   -5.4778  -11.2912 C   0  0  0  0  0  0  0  0  0  0  0  0
   17.4304   -5.1966  -11.2225 O   0  0  0  0  0  0  0  0  0  0  0  0
   15.0583   -3.4236  -14.2469 C   0  0  0  0  0  0  0  0  0  0  0  0
   16.0299   -3.8114  -13.1343 C   0  0  2  0  0  0  0  0  0  0  0  0
   15.4296   -4.7990  -12.2534 N   0  0  0  0  0  0  0  0  0  0  0  0
   16.3120   -2.5892  -12.3585 C   0  0  0  0  0  0  0  0  0  0  0  0
   15.8097   -2.4350  -11.2305 O   0  0  0  0  0  0  0  0  0  0  0  0
   17.1319   -1.6221  -12.8872 O   0  0  0  0  0  0  0  0  0  0  0  0
  2  1  1  0
  2  3  1  0
  3  5  1  0
  3  4  1  1
  5  7  1  0
  5  6  1  6
  7 14  1  0
  7  8  2  0
  9 10  1  0
 10 12  1  0
 10 11  2  0
 13 12  1  1
 13 15  1  0
 14 13  1  0
 15 16  2  0
 18 17  1  6
 19 18  1  0
 19 15  1  0
 20 18  1  0
 20 22  1  0
 21 20  2  0
M  END
$$$$
