INA.pdb
     RDKit          3D

 22 21  0  0  1  0  0  0  0  0999 V2000
   26.9885  -11.1001  -15.4149 C   0  0  0  0  0  0  0  0  0  0  0  0
   25.5176  -11.4152  -15.2559 C   0  0  0  0  0  0  0  0  0  0  0  0
   24.6378  -10.2921  -15.6774 C   0  0  2  0  0  0  0  0  0  0  0  0
   25.0198   -8.9698  -15.0659 C   0  0  0  0  0  0  0  0  0  0  0  0
   23.1591  -10.5345  -15.4703 C   0  0  2  0  0  0  0  0  0  0  0  0
   22.8453  -11.7510  -16.2522 N   0  0  0  0  0  0  0  0  0  0  0  0
   22.2940   -9.4695  -16.0143 C   0  0  0  0  0  0  0  0  0  0  0  0
   22.2590   -9.2323  -17.2590 O   0  0  0  0  0  0  0  0  0  0  0  0
   18.5670   -6.5869  -17.2168 N   0  0  0  0  0  0  0  0  0  0  0  0
   18.1947   -7.1704  -15.9603 C   0  0  0  0  0  0  0  0  0  0  0  0
   16.9867   -7.0749  -15.6214 O   0  0  0  0  0  0  0  0  0  0  0  0
   19.2185   -7.8559  -15.1065 C   0  0  0  0  0  0  0  0  0  0  0  0
   20.5672   -7.6228  -15.7894 C   0  0  2  0  0  0  0  0  0  0  0  0
   21.4445   -8.6375  -15.2388 N   0  0  0  0  0  0  0  0  0  0  0  0
   21.0566   -6.2640  -15.6044 C   0  0  0  0  0  0  0  0  0  0  0  0
   21.5086   -5.9073  -14.4969 O   0  0  0  0  0  0  0  0  0  0  0  0
   21.7802   -3.2700  -17.7851 C   0  0  0  0  0  0  0  0  0  0  0  0
   21.5714   -3.9764  -16.4473 C   0  0  2  0  0  0  0  0  0  0  0  0
   21.0386   -5.3126  -16.6531 N   0  0  0  0  0  0  0  0  0  0  0  0
   20.5883   -3.1831  -15.6861 C   0  0  0  0  0  0  0  0  0  0  0  0
   19.4466   -3.6332  -15.4805 O   0  0  0  0  0  0  0  0  0  0  0  0
   20.9392   -1.9451  -15.2053 O   0  0  0  0  0  0  0  0  0  0  0  0
  2  1  1  0
  2  3  1  0
  3  5  1  0
  3  4  1  1
  5  7  1  0
  5  6  1  6
  7 14  1  0
  7  8  2  0
  9 10  1  0
 10 12  1  0
 10 11  2  0
 13 12  1  1
 13 15  1  0
 14 13  1  0
 15 16  2  0
 18 17  1  6
 19 18  1  0
 19 15  1  0
 20 18  1  0
 20 22  1  0
 21 20  2  0
M  END
$$$$
