INA.pdb
     RDKit          3D

 22 21  0  0  1  0  0  0  0  0999 V2000
   29.5975  -24.5532  -19.3303 C   0  0  0  0  0  0  0  0  0  0  0  0
   28.9443  -25.3047  -18.1916 C   0  0  0  0  0  0  0  0  0  0  0  0
   29.4185  -26.7103  -18.0804 C   0  0  2  0  0  0  0  0  0  0  0  0
   29.2961  -27.4874  -19.3648 C   0  0  0  0  0  0  0  0  0  0  0  0
   28.7950  -27.5012  -16.9517 C   0  0  2  0  0  0  0  0  0  0  0  0
   29.2899  -26.8709  -15.7077 N   0  0  0  0  0  0  0  0  0  0  0  0
   29.2315  -28.9100  -16.8929 C   0  0  0  0  0  0  0  0  0  0  0  0
   30.4374  -29.2072  -16.6393 O   0  0  0  0  0  0  0  0  0  0  0  0
   28.7196  -31.7919  -14.4248 N   0  0  0  0  0  0  0  0  0  0  0  0
   27.6117  -32.3124  -15.1730 C   0  0  0  0  0  0  0  0  0  0  0  0
   26.6798  -32.8461  -14.5175 O   0  0  0  0  0  0  0  0  0  0  0  0
   27.5903  -32.2141  -16.6686 C   0  0  0  0  0  0  0  0  0  0  0  0
   28.8318  -31.4110  -17.0601 C   0  0  2  0  0  0  0  0  0  0  0  0
   28.3865  -30.0316  -17.1003 N   0  0  0  0  0  0  0  0  0  0  0  0
   29.4208  -31.8716  -18.3096 C   0  0  0  0  0  0  0  0  0  0  0  0
   28.9737  -31.4617  -19.4006 O   0  0  0  0  0  0  0  0  0  0  0  0
   32.3399  -34.0503  -19.3486 C   0  0  0  0  0  0  0  0  0  0  0  0
   31.1270  -33.1554  -19.5940 C   0  0  2  0  0  0  0  0  0  0  0  0
   30.5023  -32.7854  -18.3351 N   0  0  0  0  0  0  0  0  0  0  0  0
   30.1645  -33.9375  -20.3921 C   0  0  0  0  0  0  0  0  0  0  0  0
   29.3873  -34.7315  -19.8319 O   0  0  0  0  0  0  0  0  0  0  0  0
   30.1303  -33.7852  -21.7569 O   0  0  0  0  0  0  0  0  0  0  0  0
  2  1  1  0
  2  3  1  0
  3  5  1  0
  3  4  1  6
  5  7  1  0
  5  6  1  1
  7 14  1  0
  7  8  2  0
  9 10  1  0
 10 12  1  0
 10 11  2  0
 13 12  1  6
 13 15  1  0
 14 13  1  0
 15 16  2  0
 18 17  1  1
 19 18  1  0
 19 15  1  0
 20 18  1  0
 20 22  1  0
 21 20  2  0
M  END
$$$$
