INA.pdb
     RDKit          3D

 22 21  0  0  1  0  0  0  0  0999 V2000
   16.4458  -11.1838  -19.0977 C   0  0  0  0  0  0  0  0  0  0  0  0
   17.7573  -11.2696  -18.3489 C   0  0  0  0  0  0  0  0  0  0  0  0
   18.0039  -10.0879  -17.4796 C   0  0  2  0  0  0  0  0  0  0  0  0
   17.9677   -8.7788  -18.2235 C   0  0  0  0  0  0  0  0  0  0  0  0
   19.2688  -10.1630  -16.6534 C   0  0  2  0  0  0  0  0  0  0  0  0
   19.1159  -11.3663  -15.8059 N   0  0  0  0  0  0  0  0  0  0  0  0
   19.4458   -9.0318  -15.7218 C   0  0  0  0  0  0  0  0  0  0  0  0
   18.6771   -8.8840  -14.7248 O   0  0  0  0  0  0  0  0  0  0  0  0
   22.6767   -4.5986  -13.7072 N   0  0  0  0  0  0  0  0  0  0  0  0
   21.7883   -5.6731  -13.3687 C   0  0  0  0  0  0  0  0  0  0  0  0
   21.0643   -5.5171  -12.3517 O   0  0  0  0  0  0  0  0  0  0  0  0
   21.7451   -6.9166  -14.2047 C   0  0  0  0  0  0  0  0  0  0  0  0
   20.4812   -6.8109  -15.0597 C   0  0  2  0  0  0  0  0  0  0  0  0
   20.4515   -8.0362  -15.8346 N   0  0  0  0  0  0  0  0  0  0  0  0
   20.4600   -5.6039  -15.8738 C   0  0  0  0  0  0  0  0  0  0  0  0
   21.3495   -5.4095  -16.7277 O   0  0  0  0  0  0  0  0  0  0  0  0
   18.0963   -2.7456  -16.5373 C   0  0  0  0  0  0  0  0  0  0  0  0
   19.4660   -3.4207  -16.5479 C   0  0  2  0  0  0  0  0  0  0  0  0
   19.4495   -4.6222  -15.7307 N   0  0  0  0  0  0  0  0  0  0  0  0
   20.4266   -2.4633  -15.9686 C   0  0  0  0  0  0  0  0  0  0  0  0
   20.7136   -2.5201  -14.7591 O   0  0  0  0  0  0  0  0  0  0  0  0
   21.0030   -1.5085  -16.7707 O   0  0  0  0  0  0  0  0  0  0  0  0
  2  1  1  0
  2  3  1  0
  3  5  1  0
  3  4  1  6
  5  7  1  0
  5  6  1  1
  7 14  1  0
  7  8  2  0
  9 10  1  0
 10 12  1  0
 10 11  2  0
 13 12  1  6
 13 15  1  0
 14 13  1  0
 15 16  2  0
 18 17  1  1
 19 18  1  0
 19 15  1  0
 20 18  1  0
 20 22  1  0
 21 20  2  0
M  END
$$$$
