INA.pdb
     RDKit          3D

 22 21  0  0  1  0  0  0  0  0999 V2000
   16.4155  -13.3032  -13.3107 C   0  0  0  0  0  0  0  0  0  0  0  0
   16.4213  -12.6488  -11.9470 C   0  0  0  0  0  0  0  0  0  0  0  0
   16.0728  -11.2035  -11.9989 C   0  0  2  0  0  0  0  0  0  0  0  0
   16.9428  -10.4107  -12.9385 C   0  0  0  0  0  0  0  0  0  0  0  0
   16.0270  -10.5148  -10.6528 C   0  0  2  0  0  0  0  0  0  0  0  0
   14.9448  -11.1885   -9.9014 N   0  0  0  0  0  0  0  0  0  0  0  0
   15.6468   -9.0902  -10.7197 C   0  0  0  0  0  0  0  0  0  0  0  0
   14.4640   -8.7460  -11.0181 O   0  0  0  0  0  0  0  0  0  0  0  0
   15.2163   -4.1307  -10.7560 N   0  0  0  0  0  0  0  0  0  0  0  0
   15.6176   -4.6005   -9.4613 C   0  0  0  0  0  0  0  0  0  0  0  0
   15.4763   -3.8060   -8.4960 O   0  0  0  0  0  0  0  0  0  0  0  0
   16.1794   -5.9800   -9.2929 C   0  0  0  0  0  0  0  0  0  0  0  0
   16.1858   -6.6100  -10.6867 C   0  0  2  0  0  0  0  0  0  0  0  0
   16.5231   -8.0027  -10.4651 N   0  0  0  0  0  0  0  0  0  0  0  0
   17.0906   -5.9279  -11.6011 C   0  0  0  0  0  0  0  0  0  0  0  0
   18.3024   -5.8235  -11.3204 O   0  0  0  0  0  0  0  0  0  0  0  0
   16.9768   -4.7361  -15.1640 C   0  0  0  0  0  0  0  0  0  0  0  0
   17.5848   -4.7943  -13.7644 C   0  0  2  0  0  0  0  0  0  0  0  0
   16.6395   -5.3665  -12.8205 N   0  0  0  0  0  0  0  0  0  0  0  0
   17.8806   -3.4069  -13.3612 C   0  0  0  0  0  0  0  0  0  0  0  0
   17.2173   -2.8629  -12.4598 O   0  0  0  0  0  0  0  0  0  0  0  0
   18.8919   -2.7181  -13.9856 O   0  0  0  0  0  0  0  0  0  0  0  0
  2  1  1  0
  2  3  1  0
  3  5  1  0
  3  4  1  6
  5  7  1  0
  5  6  1  1
  7 14  1  0
  7  8  2  0
  9 10  1  0
 10 12  1  0
 10 11  2  0
 13 12  1  1
 13 15  1  0
 14 13  1  0
 15 16  2  0
 18 17  1  6
 19 18  1  0
 19 15  1  0
 20 18  1  0
 20 22  1  0
 21 20  2  0
M  END
$$$$
