INA.pdb
     RDKit          3D

 22 21  0  0  1  0  0  0  0  0999 V2000
   14.6190  -14.0637  -16.4714 C   0  0  0  0  0  0  0  0  0  0  0  0
   15.8936  -13.4778  -15.9056 C   0  0  0  0  0  0  0  0  0  0  0  0
   15.7079  -12.1033  -15.3677 C   0  0  2  0  0  0  0  0  0  0  0  0
   15.1011  -11.1479  -16.3613 C   0  0  0  0  0  0  0  0  0  0  0  0
   16.9516  -11.4847  -14.7688 C   0  0  2  0  0  0  0  0  0  0  0  0
   17.3352  -12.3738  -13.6499 N   0  0  0  0  0  0  0  0  0  0  0  0
   16.7319  -10.1534  -14.1706 C   0  0  0  0  0  0  0  0  0  0  0  0
   16.3097   -9.1863  -14.8729 O   0  0  0  0  0  0  0  0  0  0  0  0
   16.1593   -6.3013  -10.8774 N   0  0  0  0  0  0  0  0  0  0  0  0
   16.7090   -7.3741  -10.0996 C   0  0  0  0  0  0  0  0  0  0  0  0
   16.8580   -7.1686   -8.8673 O   0  0  0  0  0  0  0  0  0  0  0  0
   17.0829   -8.6717  -10.7504 C   0  0  0  0  0  0  0  0  0  0  0  0
   16.7685   -8.5078  -12.2383 C   0  0  2  0  0  0  0  0  0  0  0  0
   16.9555   -9.8286  -12.8068 N   0  0  0  0  0  0  0  0  0  0  0  0
   17.5839   -7.4793  -12.8688 C   0  0  0  0  0  0  0  0  0  0  0  0
   18.7623   -7.7286  -13.1964 O   0  0  0  0  0  0  0  0  0  0  0  0
   18.0644   -5.6376  -15.3068 C   0  0  0  0  0  0  0  0  0  0  0  0
   17.8850   -5.2096  -13.8520 C   0  0  2  0  0  0  0  0  0  0  0  0
   17.0816   -6.1811  -13.1292 N   0  0  0  0  0  0  0  0  0  0  0  0
   17.1742   -3.9174  -13.8638 C   0  0  0  0  0  0  0  0  0  0  0  0
   16.0005   -3.8458  -13.4568 O   0  0  0  0  0  0  0  0  0  0  0  0
   17.8142   -2.7934  -14.3264 O   0  0  0  0  0  0  0  0  0  0  0  0
  2  1  1  0
  2  3  1  0
  3  5  1  0
  3  4  1  6
  5  7  1  0
  5  6  1  1
  7 14  1  0
  7  8  2  0
  9 10  1  0
 10 12  1  0
 10 11  2  0
 13 12  1  1
 13 15  1  0
 14 13  1  0
 15 16  2  0
 18 17  1  6
 19 18  1  0
 19 15  1  0
 20 18  1  0
 20 22  1  0
 21 20  2  0
M  END
$$$$
