INA.pdb
     RDKit          3D

 22 21  0  0  1  0  0  0  0  0999 V2000
   11.4108  -12.2945   -9.9371 C   0  0  0  0  0  0  0  0  0  0  0  0
   12.7058  -12.3200  -10.7185 C   0  0  0  0  0  0  0  0  0  0  0  0
   13.6180  -11.2007  -10.3606 C   0  0  2  0  0  0  0  0  0  0  0  0
   12.9665   -9.8456  -10.4474 C   0  0  0  0  0  0  0  0  0  0  0  0
   14.9248  -11.1811  -11.1222 C   0  0  2  0  0  0  0  0  0  0  0  0
   15.6090  -12.4436  -10.7648 N   0  0  0  0  0  0  0  0  0  0  0  0
   15.8399  -10.0963  -10.7169 C   0  0  0  0  0  0  0  0  0  0  0  0
   16.4418  -10.1356   -9.6021 O   0  0  0  0  0  0  0  0  0  0  0  0
   19.1193   -6.3394  -10.4474 N   0  0  0  0  0  0  0  0  0  0  0  0
   19.0930   -6.8072  -11.8033 C   0  0  0  0  0  0  0  0  0  0  0  0
   19.9797   -6.3641  -12.5781 O   0  0  0  0  0  0  0  0  0  0  0  0
   18.0439   -7.7792  -12.2527 C   0  0  0  0  0  0  0  0  0  0  0  0
   17.0499   -7.8974  -11.0961 C   0  0  2  0  0  0  0  0  0  0  0  0
   16.1339   -8.9474  -11.4973 N   0  0  0  0  0  0  0  0  0  0  0  0
   16.3938   -6.6328  -10.7954 C   0  0  0  0  0  0  0  0  0  0  0  0
   15.8081   -6.0014  -11.6990 O   0  0  0  0  0  0  0  0  0  0  0  0
   15.5640   -4.6389   -7.6929 C   0  0  0  0  0  0  0  0  0  0  0  0
   15.6407   -4.8731   -9.2000 C   0  0  2  0  0  0  0  0  0  0  0  0
   16.3954   -6.0803   -9.4915 N   0  0  0  0  0  0  0  0  0  0  0  0
   16.3462   -3.7171   -9.7839 C   0  0  0  0  0  0  0  0  0  0  0  0
   17.4105   -3.8837  -10.4068 O   0  0  0  0  0  0  0  0  0  0  0  0
   15.8228   -2.4556   -9.6367 O   0  0  0  0  0  0  0  0  0  0  0  0
  2  1  1  0
  2  3  1  0
  3  5  1  0
  3  4  1  6
  5  7  1  0
  5  6  1  1
  7 14  1  0
  7  8  2  0
  9 10  1  0
 10 12  1  0
 10 11  2  0
 13 12  1  6
 13 15  1  0
 14 13  1  0
 15 16  2  0
 18 17  1  1
 19 18  1  0
 19 15  1  0
 20 18  1  0
 20 22  1  0
 21 20  2  0
M  END
$$$$
