INA.pdb
     RDKit          3D

 22 21  0  0  1  0  0  0  0  0999 V2000
   16.0371  -12.2111  -18.9887 C   0  0  0  0  0  0  0  0  0  0  0  0
   17.4668  -11.8679  -18.6329 C   0  0  0  0  0  0  0  0  0  0  0  0
   17.5755  -10.6402  -17.8000 C   0  0  2  0  0  0  0  0  0  0  0  0
   16.8913   -9.4428  -18.4053 C   0  0  0  0  0  0  0  0  0  0  0  0
   18.9869  -10.2671  -17.4039 C   0  0  2  0  0  0  0  0  0  0  0  0
   19.5032  -11.4268  -16.6435 N   0  0  0  0  0  0  0  0  0  0  0  0
   19.0683   -9.1134  -16.4868 C   0  0  0  0  0  0  0  0  0  0  0  0
   18.2937   -9.0208  -15.4877 O   0  0  0  0  0  0  0  0  0  0  0  0
   20.0091   -7.3944  -13.1796 N   0  0  0  0  0  0  0  0  0  0  0  0
   21.2808   -7.0749  -13.7617 C   0  0  0  0  0  0  0  0  0  0  0  0
   22.2784   -7.0826  -12.9951 O   0  0  0  0  0  0  0  0  0  0  0  0
   21.3892   -6.7480  -15.2207 C   0  0  0  0  0  0  0  0  0  0  0  0
   19.9712   -6.8472  -15.7855 C   0  0  2  0  0  0  0  0  0  0  0  0
   19.9829   -8.0354  -16.6164 N   0  0  0  0  0  0  0  0  0  0  0  0
   19.5701   -5.6411  -16.4959 C   0  0  0  0  0  0  0  0  0  0  0  0
   19.6420   -5.5955  -17.7413 O   0  0  0  0  0  0  0  0  0  0  0  0
   17.5728   -3.6571  -17.5443 C   0  0  0  0  0  0  0  0  0  0  0  0
   18.6839   -3.3130  -16.5547 C   0  0  2  0  0  0  0  0  0  0  0  0
   19.0928   -4.4950  -15.8148 N   0  0  0  0  0  0  0  0  0  0  0  0
   18.1323   -2.3253  -15.6086 C   0  0  0  0  0  0  0  0  0  0  0  0
   17.7046   -2.6932  -14.4995 O   0  0  0  0  0  0  0  0  0  0  0  0
   18.0930   -0.9973  -15.9577 O   0  0  0  0  0  0  0  0  0  0  0  0
  2  1  1  0
  2  3  1  0
  3  5  1  0
  3  4  1  6
  5  7  1  0
  5  6  1  1
  7 14  1  0
  7  8  2  0
  9 10  1  0
 10 12  1  0
 10 11  2  0
 13 12  1  6
 13 15  1  0
 14 13  1  0
 15 16  2  0
 18 17  1  6
 19 18  1  0
 19 15  1  0
 20 18  1  0
 20 22  1  0
 21 20  2  0
M  END
$$$$
