INA.pdb
     RDKit          3D

 22 21  0  0  1  0  0  0  0  0999 V2000
   26.9840  -18.9662   -6.9238 C   0  0  0  0  0  0  0  0  0  0  0  0
   26.8597  -20.4689   -7.0440 C   0  0  0  0  0  0  0  0  0  0  0  0
   26.4910  -20.9097   -8.4161 C   0  0  2  0  0  0  0  0  0  0  0  0
   27.4318  -20.4079   -9.4798 C   0  0  0  0  0  0  0  0  0  0  0  0
   25.0656  -20.6016   -8.8182 C   0  0  2  0  0  0  0  0  0  0  0  0
   24.2189  -21.4547   -7.9552 N   0  0  0  0  0  0  0  0  0  0  0  0
   24.7383  -20.9797  -10.2069 C   0  0  0  0  0  0  0  0  0  0  0  0
   24.8220  -22.1851  -10.5898 O   0  0  0  0  0  0  0  0  0  0  0  0
   21.9891  -21.6670  -14.6874 N   0  0  0  0  0  0  0  0  0  0  0  0
   22.4764  -20.3533  -14.3790 C   0  0  0  0  0  0  0  0  0  0  0  0
   22.6860  -19.5794  -15.3486 O   0  0  0  0  0  0  0  0  0  0  0  0
   22.7188  -19.9461  -12.9569 C   0  0  0  0  0  0  0  0  0  0  0  0
   24.1265  -20.4329  -12.6089 C   0  0  2  0  0  0  0  0  0  0  0  0
   24.3105  -20.0768  -11.2154 N   0  0  0  0  0  0  0  0  0  0  0  0
   25.1413  -19.8773  -13.4931 C   0  0  0  0  0  0  0  0  0  0  0  0
   25.3874  -18.6537  -13.4720 O   0  0  0  0  0  0  0  0  0  0  0  0
   28.2738  -20.8546  -14.8580 C   0  0  0  0  0  0  0  0  0  0  0  0
   26.9677  -20.1273  -15.1696 C   0  0  2  0  0  0  0  0  0  0  0  0
   25.8737  -20.6877  -14.3942 N   0  0  0  0  0  0  0  0  0  0  0  0
   26.6888  -20.3304  -16.6035 C   0  0  0  0  0  0  0  0  0  0  0  0
   25.5141  -20.3984  -17.0083 O   0  0  0  0  0  0  0  0  0  0  0  0
   27.7321  -20.4440  -17.4898 O   0  0  0  0  0  0  0  0  0  0  0  0
  2  1  1  0
  2  3  1  0
  3  5  1  0
  3  4  1  6
  5  7  1  0
  5  6  1  1
  7 14  1  0
  7  8  2  0
  9 10  1  0
 10 12  1  0
 10 11  2  0
 13 12  1  6
 13 15  1  0
 14 13  1  0
 15 16  2  0
 18 17  1  1
 19 18  1  0
 19 15  1  0
 20 18  1  0
 20 22  1  0
 21 20  2  0
M  END
$$$$
