INA.pdb
     RDKit          3D

 22 21  0  0  1  0  0  0  0  0999 V2000
   12.2507   -8.6434   -8.2671 C   0  0  0  0  0  0  0  0  0  0  0  0
   13.6952   -8.2545   -8.0426 C   0  0  0  0  0  0  0  0  0  0  0  0
   14.4585   -8.1122   -9.3115 C   0  0  2  0  0  0  0  0  0  0  0  0
   14.3281   -9.3018  -10.2259 C   0  0  0  0  0  0  0  0  0  0  0  0
   15.9215   -7.7704   -9.1350 C   0  0  2  0  0  0  0  0  0  0  0  0
   15.9407   -6.4462   -8.4749 N   0  0  0  0  0  0  0  0  0  0  0  0
   16.6559   -7.6005  -10.4041 C   0  0  0  0  0  0  0  0  0  0  0  0
   17.1558   -8.5984  -11.0048 O   0  0  0  0  0  0  0  0  0  0  0  0
   15.8715   -6.7540  -15.2782 N   0  0  0  0  0  0  0  0  0  0  0  0
   15.7009   -6.4594  -13.8846 C   0  0  0  0  0  0  0  0  0  0  0  0
   14.8049   -7.0954  -13.2715 O   0  0  0  0  0  0  0  0  0  0  0  0
   16.5631   -5.4337  -13.2125 C   0  0  0  0  0  0  0  0  0  0  0  0
   17.5442   -6.2120  -12.3343 C   0  0  2  0  0  0  0  0  0  0  0  0
   16.8682   -6.3596  -11.0600 N   0  0  0  0  0  0  0  0  0  0  0  0
   18.8414   -5.5579  -12.2354 C   0  0  0  0  0  0  0  0  0  0  0  0
   18.9611   -4.5016  -11.5811 O   0  0  0  0  0  0  0  0  0  0  0  0
   22.3946   -6.2338  -13.3381 C   0  0  0  0  0  0  0  0  0  0  0  0
   21.2521   -5.3557  -12.8325 C   0  0  2  0  0  0  0  0  0  0  0  0
   19.9950   -6.0840  -12.8661 N   0  0  0  0  0  0  0  0  0  0  0  0
   21.1575   -4.1992  -13.7428 C   0  0  0  0  0  0  0  0  0  0  0  0
   20.2368   -4.1341  -14.5773 O   0  0  0  0  0  0  0  0  0  0  0  0
   22.0908   -3.1942  -13.6649 O   0  0  0  0  0  0  0  0  0  0  0  0
  2  1  1  0
  2  3  1  0
  3  5  1  0
  3  4  1  1
  5  7  1  0
  5  6  1  6
  7 14  1  0
  7  8  2  0
  9 10  1  0
 10 12  1  0
 10 11  2  0
 13 12  1  6
 13 15  1  0
 14 13  1  0
 15 16  2  0
 18 17  1  6
 19 18  1  0
 19 15  1  0
 20 18  1  0
 20 22  1  0
 21 20  2  0
M  END
$$$$
