INA.pdb
     RDKit          3D

 22 21  0  0  1  0  0  0  0  0999 V2000
   14.7977  -13.7338  -15.1221 C   0  0  0  0  0  0  0  0  0  0  0  0
   14.8651  -13.5564  -13.6214 C   0  0  0  0  0  0  0  0  0  0  0  0
   14.7142  -12.1375  -13.2006 C   0  0  2  0  0  0  0  0  0  0  0  0
   15.7128  -11.2121  -13.8446 C   0  0  0  0  0  0  0  0  0  0  0  0
   14.7157  -11.9177  -11.7040 C   0  0  2  0  0  0  0  0  0  0  0  0
   13.5290  -12.6419  -11.1974 N   0  0  0  0  0  0  0  0  0  0  0  0
   14.5313  -10.5090  -11.3037 C   0  0  0  0  0  0  0  0  0  0  0  0
   13.4506   -9.8970  -11.5570 O   0  0  0  0  0  0  0  0  0  0  0  0
   14.6722   -6.0065   -8.4123 N   0  0  0  0  0  0  0  0  0  0  0  0
   15.9155   -6.6976   -8.5984 C   0  0  0  0  0  0  0  0  0  0  0  0
   16.9686   -6.0162   -8.4992 O   0  0  0  0  0  0  0  0  0  0  0  0
   15.9322   -8.1662   -8.8988 C   0  0  0  0  0  0  0  0  0  0  0  0
   15.3345   -8.3211  -10.2982 C   0  0  2  0  0  0  0  0  0  0  0  0
   15.4979   -9.7254  -10.6202 N   0  0  0  0  0  0  0  0  0  0  0  0
   15.9478   -7.4240  -11.2672 C   0  0  0  0  0  0  0  0  0  0  0  0
   17.1731   -7.4931  -11.4957 O   0  0  0  0  0  0  0  0  0  0  0  0
   14.7665   -5.0788  -13.9547 C   0  0  0  0  0  0  0  0  0  0  0  0
   15.8179   -5.6354  -12.9973 C   0  0  2  0  0  0  0  0  0  0  0  0
   15.1930   -6.4564  -11.9739 N   0  0  0  0  0  0  0  0  0  0  0  0
   16.4705   -4.4818  -12.3504 C   0  0  0  0  0  0  0  0  0  0  0  0
   17.2593   -3.7674  -12.9951 O   0  0  0  0  0  0  0  0  0  0  0  0
   16.2031   -4.1999  -11.0328 O   0  0  0  0  0  0  0  0  0  0  0  0
  2  1  1  0
  2  3  1  0
  3  5  1  0
  3  4  1  6
  5  7  1  0
  5  6  1  1
  7 14  1  0
  7  8  2  0
  9 10  1  0
 10 12  1  0
 10 11  2  0
 13 12  1  1
 13 15  1  0
 14 13  1  0
 15 16  2  0
 18 17  1  6
 19 18  1  0
 19 15  1  0
 20 18  1  0
 20 22  1  0
 21 20  2  0
M  END
$$$$
