INA.pdb
     RDKit          3D

 22 21  0  0  1  0  0  0  0  0999 V2000
   14.4996  -15.1338  -16.8574 C   0  0  0  0  0  0  0  0  0  0  0  0
   15.8682  -14.5630  -17.1560 C   0  0  0  0  0  0  0  0  0  0  0  0
   16.3403  -13.6174  -16.1091 C   0  0  2  0  0  0  0  0  0  0  0  0
   15.3434  -12.5361  -15.7848 C   0  0  0  0  0  0  0  0  0  0  0  0
   17.6902  -12.9923  -16.3831 C   0  0  2  0  0  0  0  0  0  0  0  0
   18.6481  -14.1197  -16.4151 N   0  0  0  0  0  0  0  0  0  0  0  0
   18.1625  -12.0905  -15.3143 C   0  0  0  0  0  0  0  0  0  0  0  0
   18.2902  -12.5045  -14.1231 O   0  0  0  0  0  0  0  0  0  0  0  0
   21.2680   -8.1130  -13.1381 N   0  0  0  0  0  0  0  0  0  0  0  0
   20.1015   -7.8236  -13.9214 C   0  0  0  0  0  0  0  0  0  0  0  0
   19.4533   -6.7882  -13.6202 O   0  0  0  0  0  0  0  0  0  0  0  0
   19.6931   -8.7315  -15.0421 C   0  0  0  0  0  0  0  0  0  0  0  0
   18.7970   -9.8022  -14.4175 C   0  0  2  0  0  0  0  0  0  0  0  0
   18.5121  -10.7268  -15.4976 N   0  0  0  0  0  0  0  0  0  0  0  0
   17.6045   -9.2387  -13.8007 C   0  0  0  0  0  0  0  0  0  0  0  0
   16.6826   -8.7921  -14.5141 O   0  0  0  0  0  0  0  0  0  0  0  0
   16.1875   -8.8767  -10.3147 C   0  0  0  0  0  0  0  0  0  0  0  0
   16.2595   -8.5766  -11.8103 C   0  0  2  0  0  0  0  0  0  0  0  0
   17.4475   -9.1759  -12.3947 N   0  0  0  0  0  0  0  0  0  0  0  0
   16.3437   -7.1114  -11.9558 C   0  0  0  0  0  0  0  0  0  0  0  0
   15.4099   -6.3894  -11.5620 O   0  0  0  0  0  0  0  0  0  0  0  0
   17.4580   -6.5477  -12.5281 O   0  0  0  0  0  0  0  0  0  0  0  0
  2  1  1  0
  2  3  1  0
  3  5  1  0
  3  4  1  6
  5  7  1  0
  5  6  1  1
  7 14  1  0
  7  8  2  0
  9 10  1  0
 10 12  1  0
 10 11  2  0
 13 12  1  6
 13 15  1  0
 14 13  1  0
 15 16  2  0
 18 17  1  1
 19 18  1  0
 19 15  1  0
 20 18  1  0
 20 22  1  0
 21 20  2  0
M  END
$$$$
