INA.pdb
     RDKit          3D

 22 21  0  0  1  0  0  0  0  0999 V2000
   24.1203  -15.0039  -15.8343 C   0  0  0  0  0  0  0  0  0  0  0  0
   22.9295  -14.2249  -15.3209 C   0  0  0  0  0  0  0  0  0  0  0  0
   23.0476  -12.7624  -15.5657 C   0  0  2  0  0  0  0  0  0  0  0  0
   24.3146  -12.1629  -15.0144 C   0  0  0  0  0  0  0  0  0  0  0  0
   21.8612  -11.9456  -15.1036 C   0  0  2  0  0  0  0  0  0  0  0  0
   20.6867  -12.5363  -15.7826 N   0  0  0  0  0  0  0  0  0  0  0  0
   21.9041  -10.5319  -15.5259 C   0  0  0  0  0  0  0  0  0  0  0  0
   22.7925   -9.7462  -15.0787 O   0  0  0  0  0  0  0  0  0  0  0  0
   21.2181   -6.1472  -17.9888 N   0  0  0  0  0  0  0  0  0  0  0  0
   20.2609   -7.0457  -18.5671 C   0  0  0  0  0  0  0  0  0  0  0  0
   19.6061   -6.6244  -19.5555 O   0  0  0  0  0  0  0  0  0  0  0  0
   20.0669   -8.4194  -17.9993 C   0  0  0  0  0  0  0  0  0  0  0  0
   21.0240   -8.5278  -16.8111 C   0  0  2  0  0  0  0  0  0  0  0  0
   20.9996   -9.9291  -16.4390 N   0  0  0  0  0  0  0  0  0  0  0  0
   20.6647   -7.6281  -15.7240 C   0  0  0  0  0  0  0  0  0  0  0  0
   19.7003   -7.9001  -14.9796 O   0  0  0  0  0  0  0  0  0  0  0  0
   22.2973   -4.8390  -13.8539 C   0  0  0  0  0  0  0  0  0  0  0  0
   21.0633   -5.6083  -14.3202 C   0  0  2  0  0  0  0  0  0  0  0  0
   21.3812   -6.4325  -15.4742 N   0  0  0  0  0  0  0  0  0  0  0  0
   20.0512   -4.6097  -14.7118 C   0  0  0  0  0  0  0  0  0  0  0  0
   19.6718   -4.5348  -15.8946 O   0  0  0  0  0  0  0  0  0  0  0  0
   19.5294   -3.7626  -13.7646 O   0  0  0  0  0  0  0  0  0  0  0  0
  2  1  1  0
  2  3  1  0
  3  5  1  0
  3  4  1  1
  5  7  1  0
  5  6  1  6
  7 14  1  0
  7  8  2  0
  9 10  1  0
 10 12  1  0
 10 11  2  0
 13 12  1  6
 13 15  1  0
 14 13  1  0
 15 16  2  0
 18 17  1  6
 19 18  1  0
 19 15  1  0
 20 18  1  0
 20 22  1  0
 21 20  2  0
M  END
$$$$
