IVT.pdb
     RDKit          3D

 23 22  0  0  1  0  0  0  0  0999 V2000
   21.2705  -20.6493   -9.3477 C   0  0  0  0  0  0  0  0  0  0  0  0
   22.7119  -21.0461   -9.2558 C   0  0  0  0  0  0  0  0  0  0  0  0
   23.5065  -20.2533  -10.2665 C   0  0  2  0  0  0  0  0  0  0  0  0
   22.9706  -20.3762  -11.6641 C   0  0  0  0  0  0  0  0  0  0  0  0
   24.9467  -20.7790  -10.2122 C   0  0  2  0  0  0  0  0  0  0  0  0
   25.4684  -20.5134   -8.8878 N   0  0  0  0  0  0  0  0  0  0  0  0
   25.7254  -19.9983  -11.1894 C   0  0  0  0  0  0  0  0  0  0  0  0
   26.1556  -18.8582  -10.8766 O   0  0  0  0  0  0  0  0  0  0  0  0
   28.9781  -20.5057  -12.2333 C   0  0  0  0  0  0  0  0  0  0  0  0
   28.2248  -20.3496  -13.5142 C   0  0  1  0  0  0  0  0  0  0  0  0
   28.1589  -21.6608  -14.2381 C   0  0  0  0  0  0  0  0  0  0  0  0
   26.8969  -19.6365  -13.3644 C   0  0  2  0  0  0  0  0  0  0  0  0
   26.0321  -20.4535  -12.4909 N   0  0  0  0  0  0  0  0  0  0  0  0
   26.2089  -19.3766  -14.6484 C   0  0  0  0  0  0  0  0  0  0  0  0
   25.3466  -20.1905  -15.1110 O   0  0  0  0  0  0  0  0  0  0  0  0
   24.4870  -16.0305  -15.5835 C   0  0  0  0  0  0  0  0  0  0  0  0
   25.4418  -16.4612  -16.6450 C   0  0  1  0  0  0  0  0  0  0  0  0
   26.6236  -15.7072  -16.5268 O   0  0  0  0  0  0  0  0  0  0  0  0
   25.7247  -17.9313  -16.6445 C   0  0  2  0  0  0  0  0  0  0  0  0
   26.4558  -18.2389  -15.4208 N   0  0  0  0  0  0  0  0  0  0  0  0
   26.4446  -18.4037  -17.8387 C   0  0  0  0  0  0  0  0  0  0  0  0
   27.6505  -18.8239  -17.7987 O   0  0  0  0  0  0  0  0  0  0  0  0
   25.8491  -18.4204  -19.0911 O   0  0  0  0  0  0  0  0  0  0  0  0
  2  1  1  0
  2  3  1  0
  3  4  1  6
  3  5  1  0
  5  7  1  0
  5  6  1  1
  7  8  2  0
  7 13  1  0
 10  9  1  1
 10 11  1  0
 12 14  1  0
 12 10  1  0
 12 13  1  1
 14 20  1  0
 15 14  2  0
 17 16  1  1
 17 18  1  0
 19 17  1  0
 19 21  1  0
 19 20  1  1
 21 22  2  0
 21 23  1  0
M  END
$$$$
