IVT.pdb
     RDKit          3D

 23 22  0  0  1  0  0  0  0  0999 V2000
   21.7942  -20.7799   -7.8130 C   0  0  0  0  0  0  0  0  0  0  0  0
   23.2847  -20.9146   -7.8758 C   0  0  0  0  0  0  0  0  0  0  0  0
   23.7710  -20.3898   -9.2060 C   0  0  2  0  0  0  0  0  0  0  0  0
   23.0648  -21.0100  -10.3775 C   0  0  0  0  0  0  0  0  0  0  0  0
   25.2728  -20.6930   -9.2823 C   0  0  2  0  0  0  0  0  0  0  0  0
   25.9290  -19.9658   -8.2158 N   0  0  0  0  0  0  0  0  0  0  0  0
   25.7515  -20.1679  -10.5730 C   0  0  0  0  0  0  0  0  0  0  0  0
   25.8432  -18.9252  -10.7457 O   0  0  0  0  0  0  0  0  0  0  0  0
   28.5980  -20.4407  -14.4700 C   0  0  0  0  0  0  0  0  0  0  0  0
   28.0327  -20.8515  -13.1492 C   0  0  1  0  0  0  0  0  0  0  0  0
   29.0056  -20.5410  -12.0517 C   0  0  0  0  0  0  0  0  0  0  0  0
   26.6196  -20.3633  -12.9058 C   0  0  2  0  0  0  0  0  0  0  0  0
   26.1258  -20.9858  -11.6620 N   0  0  0  0  0  0  0  0  0  0  0  0
   25.6861  -20.6548  -14.0163 C   0  0  0  0  0  0  0  0  0  0  0  0
   25.3249  -21.8467  -14.2786 O   0  0  0  0  0  0  0  0  0  0  0  0
   22.1532  -18.9229  -16.9593 C   0  0  0  0  0  0  0  0  0  0  0  0
   23.1616  -18.8343  -15.8640 C   0  0  1  0  0  0  0  0  0  0  0  0
   22.4890  -18.7894  -14.6292 O   0  0  0  0  0  0  0  0  0  0  0  0
   24.1851  -19.9265  -15.8937 C   0  0  2  0  0  0  0  0  0  0  0  0
   25.1483  -19.6566  -14.8326 N   0  0  0  0  0  0  0  0  0  0  0  0
   24.8480  -20.0917  -17.1978 C   0  0  0  0  0  0  0  0  0  0  0  0
   25.8374  -19.3726  -17.5673 O   0  0  0  0  0  0  0  0  0  0  0  0
   24.4326  -21.0484  -18.1119 O   0  0  0  0  0  0  0  0  0  0  0  0
  2  1  1  0
  2  3  1  0
  3  4  1  6
  3  5  1  0
  5  7  1  0
  5  6  1  1
  7  8  2  0
  7 13  1  0
 10  9  1  6
 10 11  1  0
 12 14  1  0
 12 10  1  0
 12 13  1  1
 14 20  1  0
 15 14  2  0
 17 16  1  6
 17 18  1  0
 19 17  1  0
 19 21  1  0
 19 20  1  1
 21 22  2  0
 21 23  1  0
M  END
$$$$
