IVT.pdb
     RDKit          3D

 23 22  0  0  1  0  0  0  0  0999 V2000
   28.7270  -17.4779  -16.7425 C   0  0  0  0  0  0  0  0  0  0  0  0
   28.1028  -18.5970  -17.5181 C   0  0  0  0  0  0  0  0  0  0  0  0
   27.0756  -19.2848  -16.6502 C   0  0  2  0  0  0  0  0  0  0  0  0
   26.0239  -18.3483  -16.1282 C   0  0  0  0  0  0  0  0  0  0  0  0
   27.8357  -19.9203  -15.4790 C   0  0  2  0  0  0  0  0  0  0  0  0
   28.6514  -20.9938  -16.0072 N   0  0  0  0  0  0  0  0  0  0  0  0
   26.8258  -20.4984  -14.5753 C   0  0  0  0  0  0  0  0  0  0  0  0
   26.1418  -21.4844  -14.9530 O   0  0  0  0  0  0  0  0  0  0  0  0
   25.0513  -21.0937   -9.9846 C   0  0  0  0  0  0  0  0  0  0  0  0
   26.0340  -20.5694  -10.9807 C   0  0  1  0  0  0  0  0  0  0  0  0
   27.4005  -21.1161  -10.6954 C   0  0  0  0  0  0  0  0  0  0  0  0
   25.5817  -20.7020  -12.4201 C   0  0  2  0  0  0  0  0  0  0  0  0
   26.5639  -20.0089  -13.2765 N   0  0  0  0  0  0  0  0  0  0  0  0
   24.2274  -20.1626  -12.6741 C   0  0  0  0  0  0  0  0  0  0  0  0
   23.9597  -18.9337  -12.4788 O   0  0  0  0  0  0  0  0  0  0  0  0
   22.2719  -20.3807  -15.8680 C   0  0  0  0  0  0  0  0  0  0  0  0
   21.4249  -20.9078  -14.7595 C   0  0  1  0  0  0  0  0  0  0  0  0
   21.4061  -22.3127  -14.8301 O   0  0  0  0  0  0  0  0  0  0  0  0
   21.8387  -20.4307  -13.4020 C   0  0  2  0  0  0  0  0  0  0  0  0
   23.1742  -20.9540  -13.1393 N   0  0  0  0  0  0  0  0  0  0  0  0
   20.8965  -20.7870  -12.3284 C   0  0  0  0  0  0  0  0  0  0  0  0
   21.1615  -21.6639  -11.4378 O   0  0  0  0  0  0  0  0  0  0  0  0
   19.6519  -20.1848  -12.2197 O   0  0  0  0  0  0  0  0  0  0  0  0
  2  1  1  0
  2  3  1  0
  3  4  1  1
  3  5  1  0
  5  7  1  0
  5  6  1  6
  7  8  2  0
  7 13  1  0
 10  9  1  1
 10 11  1  0
 12 14  1  0
 12 10  1  0
 12 13  1  6
 14 20  1  0
 15 14  2  0
 17 16  1  6
 17 18  1  0
 19 17  1  0
 19 21  1  0
 19 20  1  1
 21 22  2  0
 21 23  1  0
M  END
$$$$
