IVT.pdb
     RDKit          3D

 23 22  0  0  1  0  0  0  0  0999 V2000
   21.2370  -18.5612  -18.2254 C   0  0  0  0  0  0  0  0  0  0  0  0
   22.7102  -18.8033  -18.3456 C   0  0  0  0  0  0  0  0  0  0  0  0
   23.1726  -19.6241  -17.1650 C   0  0  2  0  0  0  0  0  0  0  0  0
   22.8850  -18.9695  -15.8441 C   0  0  0  0  0  0  0  0  0  0  0  0
   24.6843  -19.8270  -17.3282 C   0  0  2  0  0  0  0  0  0  0  0  0
   24.8963  -20.7079  -18.4577 N   0  0  0  0  0  0  0  0  0  0  0  0
   25.1605  -20.5032  -16.1089 C   0  0  0  0  0  0  0  0  0  0  0  0
   24.8313  -21.6972  -15.8885 O   0  0  0  0  0  0  0  0  0  0  0  0
   28.5391  -21.3913  -15.3117 C   0  0  0  0  0  0  0  0  0  0  0  0
   28.0107  -20.7036  -14.0949 C   0  0  1  0  0  0  0  0  0  0  0  0
   28.6727  -19.3690  -13.9273 C   0  0  0  0  0  0  0  0  0  0  0  0
   26.4987  -20.6809  -14.0084 C   0  0  2  0  0  0  0  0  0  0  0  0
   25.9851  -19.8869  -15.1417 N   0  0  0  0  0  0  0  0  0  0  0  0
   25.9802  -20.1312  -12.7363 C   0  0  0  0  0  0  0  0  0  0  0  0
   25.8810  -18.8757  -12.5522 O   0  0  0  0  0  0  0  0  0  0  0  0
   23.2269  -20.5301   -8.7812 C   0  0  0  0  0  0  0  0  0  0  0  0
   23.7670  -20.9236  -10.1145 C   0  0  1  0  0  0  0  0  0  0  0  0
   22.8614  -20.5152  -11.1105 O   0  0  0  0  0  0  0  0  0  0  0  0
   25.1480  -20.4120  -10.3833 C   0  0  2  0  0  0  0  0  0  0  0  0
   25.5706  -20.9417  -11.6745 N   0  0  0  0  0  0  0  0  0  0  0  0
   26.1208  -20.7271   -9.3241 C   0  0  0  0  0  0  0  0  0  0  0  0
   27.0044  -21.6419   -9.4457 O   0  0  0  0  0  0  0  0  0  0  0  0
   26.1352  -20.0415   -8.1186 O   0  0  0  0  0  0  0  0  0  0  0  0
  2  1  1  0
  2  3  1  0
  3  4  1  1
  3  5  1  0
  5  7  1  0
  5  6  1  6
  7  8  2  0
  7 13  1  0
 10  9  1  6
 10 11  1  0
 12 14  1  0
 12 10  1  0
 12 13  1  6
 14 20  1  0
 15 14  2  0
 17 16  1  1
 17 18  1  0
 19 17  1  0
 19 21  1  0
 19 20  1  6
 21 22  2  0
 21 23  1  0
M  END
$$$$
