IVT.pdb
     RDKit          3D

 23 22  0  0  1  0  0  0  0  0999 V2000
   14.6232  -26.0066  -14.8326 C   0  0  0  0  0  0  0  0  0  0  0  0
   15.8236  -25.1900  -14.4641 C   0  0  0  0  0  0  0  0  0  0  0  0
   16.2936  -25.5984  -13.0879 C   0  0  2  0  0  0  0  0  0  0  0  0
   15.2223  -25.4834  -12.0417 C   0  0  0  0  0  0  0  0  0  0  0  0
   17.4722  -24.6840  -12.7302 C   0  0  2  0  0  0  0  0  0  0  0  0
   18.5660  -24.9955  -13.6264 N   0  0  0  0  0  0  0  0  0  0  0  0
   17.8787  -25.0259  -11.3559 C   0  0  0  0  0  0  0  0  0  0  0  0
   18.4790  -26.1089  -11.1339 O   0  0  0  0  0  0  0  0  0  0  0  0
   19.6255  -23.6298   -7.0759 C   0  0  0  0  0  0  0  0  0  0  0  0
   19.1473  -23.4881   -8.4844 C   0  0  1  0  0  0  0  0  0  0  0  0
   20.3100  -23.2696   -9.4053 C   0  0  0  0  0  0  0  0  0  0  0  0
   18.1841  -24.5730   -8.9196 C   0  0  2  0  0  0  0  0  0  0  0  0
   17.6346  -24.1986  -10.2373 N   0  0  0  0  0  0  0  0  0  0  0  0
   17.0785  -24.8099   -7.9651 C   0  0  0  0  0  0  0  0  0  0  0  0
   16.0835  -24.0190   -7.8990 O   0  0  0  0  0  0  0  0  0  0  0  0
   15.1669  -28.1466   -7.4210 C   0  0  0  0  0  0  0  0  0  0  0  0
   15.7059  -27.6180   -6.1348 C   0  0  1  0  0  0  0  0  0  0  0  0
   16.8594  -28.3464   -5.7915 O   0  0  0  0  0  0  0  0  0  0  0  0
   15.9697  -26.1443   -6.1491 C   0  0  2  0  0  0  0  0  0  0  0  0
   17.0552  -25.9002   -7.0918 N   0  0  0  0  0  0  0  0  0  0  0  0
   16.2651  -25.5753   -4.8239 C   0  0  0  0  0  0  0  0  0  0  0  0
   17.4491  -25.2781   -4.4465 O   0  0  0  0  0  0  0  0  0  0  0  0
   15.2641  -25.3256   -3.8970 O   0  0  0  0  0  0  0  0  0  0  0  0
  2  1  1  0
  2  3  1  0
  3  4  1  1
  3  5  1  0
  5  7  1  0
  5  6  1  6
  7  8  2  0
  7 13  1  0
 10  9  1  1
 10 11  1  0
 12 14  1  0
 12 10  1  0
 12 13  1  6
 14 20  1  0
 15 14  2  0
 17 16  1  6
 17 18  1  0
 19 17  1  0
 19 21  1  0
 19 20  1  6
 21 22  2  0
 21 23  1  0
M  END
$$$$
