IVT.pdb
     RDKit          3D

 23 22  0  0  1  0  0  0  0  0999 V2000
   28.1278  -18.5271  -18.1819 C   0  0  0  0  0  0  0  0  0  0  0  0
   28.5535  -19.3328  -16.9932 C   0  0  0  0  0  0  0  0  0  0  0  0
   27.3253  -19.7876  -16.2408 C   0  0  2  0  0  0  0  0  0  0  0  0
   26.4654  -18.6482  -15.7739 C   0  0  0  0  0  0  0  0  0  0  0  0
   27.8166  -20.5984  -15.0348 C   0  0  2  0  0  0  0  0  0  0  0  0
   28.5328  -21.7528  -15.5357 N   0  0  0  0  0  0  0  0  0  0  0  0
   26.6187  -21.0646  -14.3146 C   0  0  0  0  0  0  0  0  0  0  0  0
   25.9156  -21.9859  -14.8039 O   0  0  0  0  0  0  0  0  0  0  0  0
   26.4895  -21.8374  -10.4982 C   0  0  0  0  0  0  0  0  0  0  0  0
   25.2603  -21.0960  -10.9130 C   0  0  1  0  0  0  0  0  0  0  0  0
   25.2383  -19.7371  -10.2802 C   0  0  0  0  0  0  0  0  0  0  0  0
   25.0088  -21.1081  -12.4066 C   0  0  2  0  0  0  0  0  0  0  0  0
   26.1919  -20.5343  -13.0769 N   0  0  0  0  0  0  0  0  0  0  0  0
   23.7941  -20.3683  -12.8150 C   0  0  0  0  0  0  0  0  0  0  0  0
   23.7623  -19.0960  -12.8051 O   0  0  0  0  0  0  0  0  0  0  0  0
   19.7980  -20.5962  -15.5588 C   0  0  0  0  0  0  0  0  0  0  0  0
   21.2257  -20.6542  -15.1317 C   0  0  1  0  0  0  0  0  0  0  0  0
   21.9910  -19.8460  -15.9922 O   0  0  0  0  0  0  0  0  0  0  0  0
   21.4435  -20.2896  -13.6961 C   0  0  2  0  0  0  0  0  0  0  0  0
   22.6248  -21.0085  -13.2332 N   0  0  0  0  0  0  0  0  0  0  0  0
   20.2806  -20.5441  -12.8298 C   0  0  0  0  0  0  0  0  0  0  0  0
   20.1971  -21.5644  -12.0654 O   0  0  0  0  0  0  0  0  0  0  0  0
   19.1954  -19.6813  -12.7925 O   0  0  0  0  0  0  0  0  0  0  0  0
  2  1  1  0
  2  3  1  0
  3  4  1  1
  3  5  1  0
  5  7  1  0
  5  6  1  6
  7  8  2  0
  7 13  1  0
 10  9  1  6
 10 11  1  0
 12 14  1  0
 12 10  1  0
 12 13  1  6
 14 20  1  0
 15 14  2  0
 17 16  1  6
 17 18  1  0
 19 17  1  0
 19 21  1  0
 19 20  1  1
 21 22  2  0
 21 23  1  0
M  END
$$$$
