IVT.pdb
     RDKit          3D

 23 22  0  0  1  0  0  0  0  0999 V2000
   22.0263  -20.6682   -8.1923 C   0  0  0  0  0  0  0  0  0  0  0  0
   23.4621  -21.0149   -8.4410 C   0  0  0  0  0  0  0  0  0  0  0  0
   23.8809  -20.4497   -9.7776 C   0  0  2  0  0  0  0  0  0  0  0  0
   23.0275  -20.9333  -10.9149 C   0  0  0  0  0  0  0  0  0  0  0  0
   25.3383  -20.8722  -10.0029 C   0  0  2  0  0  0  0  0  0  0  0  0
   26.1376  -20.3005   -8.9394 N   0  0  0  0  0  0  0  0  0  0  0  0
   25.7643  -20.2783  -11.2822 C   0  0  0  0  0  0  0  0  0  0  0  0
   25.9639  -19.0386  -11.3589 O   0  0  0  0  0  0  0  0  0  0  0  0
   28.2485  -20.3194  -15.3960 C   0  0  0  0  0  0  0  0  0  0  0  0
   27.7770  -20.7933  -14.0596 C   0  0  1  0  0  0  0  0  0  0  0  0
   28.8185  -20.5183  -13.0169 C   0  0  0  0  0  0  0  0  0  0  0  0
   26.3790  -20.3334  -13.7015 C   0  0  2  0  0  0  0  0  0  0  0  0
   25.9704  -21.0250  -12.4633 N   0  0  0  0  0  0  0  0  0  0  0  0
   25.3784  -20.5765  -14.7642 C   0  0  0  0  0  0  0  0  0  0  0  0
   25.0835  -21.7580  -15.1346 O   0  0  0  0  0  0  0  0  0  0  0  0
   21.7777  -19.6235  -14.8083 C   0  0  0  0  0  0  0  0  0  0  0  0
   22.4476  -19.0360  -16.0042 C   0  0  1  0  0  0  0  0  0  0  0  0
   22.7165  -17.6781  -15.7536 O   0  0  0  0  0  0  0  0  0  0  0  0
   23.6800  -19.7715  -16.4302 C   0  0  2  0  0  0  0  0  0  0  0  0
   24.7026  -19.5420  -15.4162 N   0  0  0  0  0  0  0  0  0  0  0  0
   24.1595  -19.4100  -17.7744 C   0  0  0  0  0  0  0  0  0  0  0  0
   25.1566  -18.6351  -17.9684 O   0  0  0  0  0  0  0  0  0  0  0  0
   23.5499  -19.8950  -18.9218 O   0  0  0  0  0  0  0  0  0  0  0  0
  2  1  1  0
  2  3  1  0
  3  4  1  6
  3  5  1  0
  5  7  1  0
  5  6  1  1
  7  8  2  0
  7 13  1  0
 10  9  1  6
 10 11  1  0
 12 14  1  0
 12 10  1  0
 12 13  1  1
 14 20  1  0
 15 14  2  0
 17 16  1  1
 17 18  1  0
 19 17  1  0
 19 21  1  0
 19 20  1  1
 21 22  2  0
 21 23  1  0
M  END
$$$$
