IVT.pdb
     RDKit          3D

 23 22  0  0  1  0  0  0  0  0999 V2000
   13.5901  -11.7843  -15.7097 C   0  0  0  0  0  0  0  0  0  0  0  0
   14.7464  -12.4610  -16.3795 C   0  0  0  0  0  0  0  0  0  0  0  0
   16.0294  -11.8003  -15.9336 C   0  0  2  0  0  0  0  0  0  0  0  0
   16.0768  -10.3328  -16.2500 C   0  0  0  0  0  0  0  0  0  0  0  0
   17.1760  -12.5253  -16.6497 C   0  0  2  0  0  0  0  0  0  0  0  0
   17.2268  -13.8829  -16.1486 N   0  0  0  0  0  0  0  0  0  0  0  0
   18.4223  -11.8373  -16.2699 C   0  0  0  0  0  0  0  0  0  0  0  0
   18.8882  -11.9849  -15.1107 O   0  0  0  0  0  0  0  0  0  0  0  0
   22.7306   -9.8498  -17.3903 C   0  0  0  0  0  0  0  0  0  0  0  0
   21.5273  -10.7248  -17.5281 C   0  0  1  0  0  0  0  0  0  0  0  0
   21.9219  -12.1670  -17.4188 C   0  0  0  0  0  0  0  0  0  0  0  0
   20.3635  -10.3138  -16.6501 C   0  0  2  0  0  0  0  0  0  0  0  0
   19.1522  -10.9991  -17.1416 N   0  0  0  0  0  0  0  0  0  0  0  0
   20.1308   -8.8530  -16.6100 C   0  0  0  0  0  0  0  0  0  0  0  0
   19.8144   -8.2066  -17.6597 O   0  0  0  0  0  0  0  0  0  0  0  0
   19.6304   -6.9509  -12.9495 C   0  0  0  0  0  0  0  0  0  0  0  0
   19.1875   -6.3330  -14.2325 C   0  0  1  0  0  0  0  0  0  0  0  0
   19.0602   -4.9442  -14.0483 O   0  0  0  0  0  0  0  0  0  0  0  0
   20.0723   -6.6548  -15.3966 C   0  0  2  0  0  0  0  0  0  0  0  0
   20.2389   -8.1030  -15.4362 N   0  0  0  0  0  0  0  0  0  0  0  0
   21.3704   -5.9607  -15.3729 C   0  0  0  0  0  0  0  0  0  0  0  0
   21.5094   -4.7406  -15.7256 O   0  0  0  0  0  0  0  0  0  0  0  0
   22.5315   -6.5980  -14.9618 O   0  0  0  0  0  0  0  0  0  0  0  0
  2  1  1  0
  2  3  1  0
  3  4  1  6
  3  5  1  0
  5  7  1  0
  5  6  1  1
  7  8  2  0
  7 13  1  0
 10  9  1  1
 10 11  1  0
 12 14  1  0
 12 10  1  0
 12 13  1  6
 14 20  1  0
 15 14  2  0
 17 16  1  1
 17 18  1  0
 19 17  1  0
 19 21  1  0
 19 20  1  1
 21 22  2  0
 21 23  1  0
M  END
$$$$
