IVT.pdb
     RDKit          3D

 23 22  0  0  1  0  0  0  0  0999 V2000
   28.2262  -18.4543  -18.0808 C   0  0  0  0  0  0  0  0  0  0  0  0
   28.7527  -19.2438  -16.9220 C   0  0  0  0  0  0  0  0  0  0  0  0
   27.5915  -19.7165  -16.0797 C   0  0  2  0  0  0  0  0  0  0  0  0
   26.7372  -18.5912  -15.5703 C   0  0  0  0  0  0  0  0  0  0  0  0
   28.1855  -20.4958  -14.8995 C   0  0  2  0  0  0  0  0  0  0  0  0
   28.8578  -21.6635  -15.4297 N   0  0  0  0  0  0  0  0  0  0  0  0
   27.0545  -20.9421  -14.0674 C   0  0  0  0  0  0  0  0  0  0  0  0
   26.3770  -21.9420  -14.4195 O   0  0  0  0  0  0  0  0  0  0  0  0
   24.5863  -20.7679   -9.7496 C   0  0  0  0  0  0  0  0  0  0  0  0
   25.7689  -20.5115  -10.6262 C   0  0  1  0  0  0  0  0  0  0  0  0
   27.0010  -21.1144  -10.0213 C   0  0  0  0  0  0  0  0  0  0  0  0
   25.5406  -20.8545  -12.0837 C   0  0  2  0  0  0  0  0  0  0  0  0
   26.6660  -20.3077  -12.8666 N   0  0  0  0  0  0  0  0  0  0  0  0
   24.2606  -20.3463  -12.6249 C   0  0  0  0  0  0  0  0  0  0  0  0
   24.0327  -19.0974  -12.7162 O   0  0  0  0  0  0  0  0  0  0  0  0
   20.3601  -21.0633  -15.4591 C   0  0  0  0  0  0  0  0  0  0  0  0
   21.6888  -21.3919  -14.8669 C   0  0  1  0  0  0  0  0  0  0  0  0
   22.6901  -21.1177  -15.8161 O   0  0  0  0  0  0  0  0  0  0  0  0
   21.9594  -20.7012  -13.5664 C   0  0  2  0  0  0  0  0  0  0  0  0
   23.2385  -21.1908  -13.0654 N   0  0  0  0  0  0  0  0  0  0  0  0
   20.8894  -20.8620  -12.5681 C   0  0  0  0  0  0  0  0  0  0  0  0
   20.7994  -21.8856  -11.8087 O   0  0  0  0  0  0  0  0  0  0  0  0
   19.9053  -19.9009  -12.3916 O   0  0  0  0  0  0  0  0  0  0  0  0
  2  1  1  0
  2  3  1  0
  3  4  1  1
  3  5  1  0
  5  7  1  0
  5  6  1  6
  7  8  2  0
  7 13  1  0
 10  9  1  1
 10 11  1  0
 12 14  1  0
 12 10  1  0
 12 13  1  6
 14 20  1  0
 15 14  2  0
 17 16  1  6
 17 18  1  0
 19 17  1  0
 19 21  1  0
 19 20  1  1
 21 22  2  0
 21 23  1  0
M  END
$$$$
