IVT.pdb
     RDKit          3D

 23 22  0  0  1  0  0  0  0  0999 V2000
   19.2534  -17.8003  -16.6038 C   0  0  0  0  0  0  0  0  0  0  0  0
   18.0877  -16.9135  -16.2901 C   0  0  0  0  0  0  0  0  0  0  0  0
   18.4139  -15.5017  -16.7165 C   0  0  2  0  0  0  0  0  0  0  0  0
   19.6560  -14.9626  -16.0667 C   0  0  0  0  0  0  0  0  0  0  0  0
   17.2081  -14.6323  -16.3382 C   0  0  2  0  0  0  0  0  0  0  0  0
   16.0411  -15.1760  -17.0010 N   0  0  0  0  0  0  0  0  0  0  0  0
   17.4667  -13.2840  -16.8729 C   0  0  0  0  0  0  0  0  0  0  0  0
   17.7561  -13.1397  -18.0886 O   0  0  0  0  0  0  0  0  0  0  0  0
   15.7134  -10.7986  -18.2431 C   0  0  0  0  0  0  0  0  0  0  0  0
   16.4148  -10.1418  -17.0988 C   0  0  1  0  0  0  0  0  0  0  0  0
   15.4600   -9.9244  -15.9636 C   0  0  0  0  0  0  0  0  0  0  0  0
   17.7213  -10.8052  -16.7151 C   0  0  2  0  0  0  0  0  0  0  0  0
   17.4107  -12.1073  -16.0934 N   0  0  0  0  0  0  0  0  0  0  0  0
   18.5552   -9.9983  -15.7969 C   0  0  0  0  0  0  0  0  0  0  0  0
   18.4942  -10.1607  -14.5360 O   0  0  0  0  0  0  0  0  0  0  0  0
   22.6153   -7.3279  -15.1794 C   0  0  0  0  0  0  0  0  0  0  0  0
   21.6420   -8.1244  -15.9810 C   0  0  1  0  0  0  0  0  0  0  0  0
   22.1960   -9.3911  -16.2410 O   0  0  0  0  0  0  0  0  0  0  0  0
   20.2875   -8.2347  -15.3530 C   0  0  2  0  0  0  0  0  0  0  0  0
   19.4499   -9.0246  -16.2480 N   0  0  0  0  0  0  0  0  0  0  0  0
   19.6670   -6.9383  -15.0342 C   0  0  0  0  0  0  0  0  0  0  0  0
   19.0154   -6.2529  -15.8933 O   0  0  0  0  0  0  0  0  0  0  0  0
   19.7546   -6.3787  -13.7682 O   0  0  0  0  0  0  0  0  0  0  0  0
  2  1  1  0
  2  3  1  0
  3  4  1  1
  3  5  1  0
  5  7  1  0
  5  6  1  6
  7  8  2  0
  7 13  1  0
 10  9  1  6
 10 11  1  0
 12 14  1  0
 12 10  1  0
 12 13  1  1
 14 20  1  0
 15 14  2  0
 17 16  1  1
 17 18  1  0
 19 17  1  0
 19 21  1  0
 19 20  1  6
 21 22  2  0
 21 23  1  0
M  END
$$$$
