IVT.pdb
     RDKit          3D

 23 22  0  0  1  0  0  0  0  0999 V2000
   18.4898  -13.8489  -19.3670 C   0  0  0  0  0  0  0  0  0  0  0  0
   18.9479  -13.6436  -17.9558 C   0  0  0  0  0  0  0  0  0  0  0  0
   18.7033  -12.2059  -17.5627 C   0  0  2  0  0  0  0  0  0  0  0  0
   19.6454  -11.2448  -18.2295 C   0  0  0  0  0  0  0  0  0  0  0  0
   18.8688  -12.1262  -16.0397 C   0  0  2  0  0  0  0  0  0  0  0  0
   17.8904  -13.0081  -15.4384 N   0  0  0  0  0  0  0  0  0  0  0  0
   18.5575  -10.7409  -15.6462 C   0  0  0  0  0  0  0  0  0  0  0  0
   17.3581  -10.3706  -15.5623 O   0  0  0  0  0  0  0  0  0  0  0  0
   17.0465   -9.4375  -13.8835 C   0  0  0  0  0  0  0  0  0  0  0  0
   18.2586   -8.5914  -13.6647 C   0  0  1  0  0  0  0  0  0  0  0  0
   18.9874   -9.0412  -12.4342 C   0  0  0  0  0  0  0  0  0  0  0  0
   19.1257   -8.4283  -14.8958 C   0  0  2  0  0  0  0  0  0  0  0  0
   19.5400   -9.7709  -15.3477 N   0  0  0  0  0  0  0  0  0  0  0  0
   20.3203   -7.5826  -14.6786 C   0  0  0  0  0  0  0  0  0  0  0  0
   21.3970   -8.0706  -14.2068 O   0  0  0  0  0  0  0  0  0  0  0  0
   22.6421   -3.5265  -16.2016 C   0  0  0  0  0  0  0  0  0  0  0  0
   21.4218   -4.3642  -16.0190 C   0  0  1  0  0  0  0  0  0  0  0  0
   21.0602   -4.9177  -17.2608 O   0  0  0  0  0  0  0  0  0  0  0  0
   21.5639   -5.4196  -14.9667 C   0  0  2  0  0  0  0  0  0  0  0  0
   20.3433   -6.2174  -14.9752 N   0  0  0  0  0  0  0  0  0  0  0  0
   21.8564   -4.8917  -13.6238 C   0  0  0  0  0  0  0  0  0  0  0  0
   20.9437   -4.4996  -12.8203 O   0  0  0  0  0  0  0  0  0  0  0  0
   23.1546   -4.7879  -13.1470 O   0  0  0  0  0  0  0  0  0  0  0  0
  2  1  1  0
  2  3  1  0
  3  4  1  6
  3  5  1  0
  5  7  1  0
  5  6  1  1
  7  8  2  0
  7 13  1  0
 10  9  1  6
 10 11  1  0
 12 14  1  0
 12 10  1  0
 12 13  1  1
 14 20  1  0
 15 14  2  0
 17 16  1  6
 17 18  1  0
 19 17  1  0
 19 21  1  0
 19 20  1  1
 21 22  2  0
 21 23  1  0
M  END
$$$$
