IVT.pdb
     RDKit          3D

 23 22  0  0  1  0  0  0  0  0999 V2000
   14.9394   -6.0531   -7.1102 C   0  0  0  0  0  0  0  0  0  0  0  0
   14.1518   -6.7293   -8.1900 C   0  0  0  0  0  0  0  0  0  0  0  0
   15.1057   -7.4106   -9.1425 C   0  0  2  0  0  0  0  0  0  0  0  0
   16.1566   -6.4852   -9.6855 C   0  0  0  0  0  0  0  0  0  0  0  0
   14.2608   -7.9725  -10.2930 C   0  0  2  0  0  0  0  0  0  0  0  0
   13.6277   -9.1889   -9.8282 N   0  0  0  0  0  0  0  0  0  0  0  0
   15.1923   -8.3142  -11.3822 C   0  0  0  0  0  0  0  0  0  0  0  0
   15.8107   -9.4093  -11.3539 O   0  0  0  0  0  0  0  0  0  0  0  0
   16.2912   -8.1029  -16.0973 C   0  0  0  0  0  0  0  0  0  0  0  0
   15.4872   -8.0576  -14.8387 C   0  0  1  0  0  0  0  0  0  0  0  0
   14.4752   -9.1637  -14.8319 C   0  0  0  0  0  0  0  0  0  0  0  0
   16.3212   -7.9485  -13.5790 C   0  0  2  0  0  0  0  0  0  0  0  0
   15.4473   -7.4737  -12.4885 N   0  0  0  0  0  0  0  0  0  0  0  0
   17.4899   -7.0506  -13.7109 C   0  0  0  0  0  0  0  0  0  0  0  0
   17.3486   -5.7865  -13.7556 O   0  0  0  0  0  0  0  0  0  0  0  0
   20.9761   -7.6072  -11.8587 C   0  0  0  0  0  0  0  0  0  0  0  0
   21.1322   -7.3443  -13.3184 C   0  0  1  0  0  0  0  0  0  0  0  0
   21.4183   -8.5572  -13.9709 O   0  0  0  0  0  0  0  0  0  0  0  0
   19.9590   -6.6500  -13.9373 C   0  0  2  0  0  0  0  0  0  0  0  0
   18.8016   -7.5250  -13.7907 N   0  0  0  0  0  0  0  0  0  0  0  0
   20.1667   -6.2572  -15.3408 C   0  0  0  0  0  0  0  0  0  0  0  0
   19.6594   -6.8998  -16.3217 O   0  0  0  0  0  0  0  0  0  0  0  0
   20.9340   -5.1542  -15.6843 O   0  0  0  0  0  0  0  0  0  0  0  0
  2  1  1  0
  2  3  1  0
  3  4  1  6
  3  5  1  0
  5  7  1  0
  5  6  1  1
  7  8  2  0
  7 13  1  0
 10  9  1  6
 10 11  1  0
 12 14  1  0
 12 10  1  0
 12 13  1  1
 14 20  1  0
 15 14  2  0
 17 16  1  1
 17 18  1  0
 19 17  1  0
 19 21  1  0
 19 20  1  6
 21 22  2  0
 21 23  1  0
M  END
$$$$
