IVT.pdb
     RDKit          3D

 23 22  0  0  1  0  0  0  0  0999 V2000
   27.3723  -20.0704  -18.8478 C   0  0  0  0  0  0  0  0  0  0  0  0
   27.9668  -20.6751  -17.6130 C   0  0  0  0  0  0  0  0  0  0  0  0
   26.8708  -20.9013  -16.5986 C   0  0  2  0  0  0  0  0  0  0  0  0
   26.0821  -19.6593  -16.2971 C   0  0  0  0  0  0  0  0  0  0  0  0
   27.5462  -21.4134  -15.3200 C   0  0  2  0  0  0  0  0  0  0  0  0
   28.1148  -22.7139  -15.6065 N   0  0  0  0  0  0  0  0  0  0  0  0
   26.4856  -21.5763  -14.3103 C   0  0  0  0  0  0  0  0  0  0  0  0
   25.6859  -22.5437  -14.3959 O   0  0  0  0  0  0  0  0  0  0  0  0
   24.6271  -20.5404   -9.8368 C   0  0  0  0  0  0  0  0  0  0  0  0
   25.6977  -20.5554  -10.8790 C   0  0  1  0  0  0  0  0  0  0  0  0
   26.8877  -21.3226  -10.3862 C   0  0  0  0  0  0  0  0  0  0  0  0
   25.2097  -20.9512  -12.2571 C   0  0  2  0  0  0  0  0  0  0  0  0
   26.2981  -20.6968  -13.2210 N   0  0  0  0  0  0  0  0  0  0  0  0
   23.9851  -20.2397  -12.6857 C   0  0  0  0  0  0  0  0  0  0  0  0
   23.9448  -18.9686  -12.7370 O   0  0  0  0  0  0  0  0  0  0  0  0
   22.3356  -20.2934  -15.8922 C   0  0  0  0  0  0  0  0  0  0  0  0
   21.3030  -20.6791  -14.8876 C   0  0  1  0  0  0  0  0  0  0  0  0
   21.1166  -22.0725  -14.9392 O   0  0  0  0  0  0  0  0  0  0  0  0
   21.6084  -20.2159  -13.4971 C   0  0  2  0  0  0  0  0  0  0  0  0
   22.8152  -20.9067  -13.0577 N   0  0  0  0  0  0  0  0  0  0  0  0
   20.5004  -20.4033  -12.5459 C   0  0  0  0  0  0  0  0  0  0  0  0
   20.5382  -21.2610  -11.5997 O   0  0  0  0  0  0  0  0  0  0  0  0
   19.3377  -19.6512  -12.6222 O   0  0  0  0  0  0  0  0  0  0  0  0
  2  1  1  0
  2  3  1  0
  3  4  1  1
  3  5  1  0
  5  7  1  0
  5  6  1  6
  7  8  2  0
  7 13  1  0
 10  9  1  1
 10 11  1  0
 12 14  1  0
 12 10  1  0
 12 13  1  6
 14 20  1  0
 15 14  2  0
 17 16  1  6
 17 18  1  0
 19 17  1  0
 19 21  1  0
 19 20  1  1
 21 22  2  0
 21 23  1  0
M  END
$$$$
