YSN.pdb
     RDKit          3D

 27 27  0  0  1  0  0  0  0  0999 V2000
   19.0977  -13.7991  -19.9951 O   0  0  0  0  0  0  0  0  0  0  0  0
   18.9500  -12.6512  -19.2361 C   0  0  0  0  0  0  0  0  0  0  0  0
   17.7425  -12.2237  -18.7320 C   0  0  0  0  0  0  0  0  0  0  0  0
   17.6426  -11.0733  -17.9805 C   0  0  0  0  0  0  0  0  0  0  0  0
   18.7540  -10.3143  -17.7107 C   0  0  0  0  0  0  0  0  0  0  0  0
   18.6272   -9.0890  -16.9078 C   0  0  0  0  0  0  0  0  0  0  0  0
   19.1157   -9.3319  -15.4746 C   0  0  2  0  0  0  0  0  0  0  0  0
   18.1780  -10.2171  -14.8613 N   0  0  0  0  0  0  0  0  0  0  0  0
   19.1089   -7.9772  -14.8225 C   0  0  0  0  0  0  0  0  0  0  0  0
   18.0775   -7.4763  -14.3083 O   0  0  0  0  0  0  0  0  0  0  0  0
   19.9673  -10.7180  -18.2007 C   0  0  0  0  0  0  0  0  0  0  0  0
   20.0455  -11.8717  -18.9502 C   0  0  0  0  0  0  0  0  0  0  0  0
   22.5312   -6.2562  -13.2402 O   0  0  0  0  0  0  0  0  0  0  0  0
   21.2560   -5.8009  -12.9779 C   0  0  0  0  0  0  0  0  0  0  0  0
   20.3390   -5.8676  -14.1739 C   0  0  2  0  0  0  0  0  0  0  0  0
   20.2961   -7.1898  -14.7597 N   0  0  0  0  0  0  0  0  0  0  0  0
   20.6792   -4.8340  -15.1917 C   0  0  0  0  0  0  0  0  0  0  0  0
   21.5684   -5.0220  -16.0808 O   0  0  0  0  0  0  0  0  0  0  0  0
   18.3760    0.3110  -17.6825 N   0  0  0  0  0  0  0  0  0  0  0  0
   19.4060   -0.6470  -17.4114 C   0  0  0  0  0  0  0  0  0  0  0  0
   20.3697   -0.6550  -18.2074 O   0  0  0  0  0  0  0  0  0  0  0  0
   19.3484   -1.5652  -16.2790 C   0  0  0  0  0  0  0  0  0  0  0  0
   20.4938   -2.5312  -16.1499 C   0  0  2  0  0  0  0  0  0  0  0  0
   20.0269   -3.5747  -15.2276 N   0  0  0  0  0  0  0  0  0  0  0  0
   21.6770   -1.9048  -15.5570 C   0  0  0  0  0  0  0  0  0  0  0  0
   22.2697   -0.9824  -16.1971 O   0  0  0  0  0  0  0  0  0  0  0  0
   22.2205   -2.2291  -14.3392 O   0  0  0  0  0  0  0  0  0  0  0  0
  2  1  1  0
  2 12  2  0
  3  2  1  0
  4  3  2  0
  4  5  1  0
  5 11  2  0
  6  5  1  0
  7  6  1  0
  7  9  1  0
  7  8  1  1
  9 16  1  0
  9 10  2  0
 11 12  1  0
 13 14  1  0
 15 14  1  1
 15 17  1  0
 16 15  1  0
 17 18  2  0
 19 20  1  0
 20 21  2  0
 20 22  1  0
 23 22  1  1
 23 25  1  0
 24 17  1  0
 24 23  1  0
 25 26  2  0
 25 27  1  0
M  END
$$$$
