YSN.pdb
     RDKit          3D

 27 27  0  0  1  0  0  0  0  0999 V2000
   20.7431  -14.9302  -20.5525 O   0  0  0  0  0  0  0  0  0  0  0  0
   20.3829  -13.8249  -19.8014 C   0  0  0  0  0  0  0  0  0  0  0  0
   21.2488  -12.7995  -19.4950 C   0  0  0  0  0  0  0  0  0  0  0  0
   20.8461  -11.7174  -18.7435 C   0  0  0  0  0  0  0  0  0  0  0  0
   19.5588  -11.6302  -18.2749 C   0  0  0  0  0  0  0  0  0  0  0  0
   19.1480  -10.4680  -17.4733 C   0  0  0  0  0  0  0  0  0  0  0  0
   19.7687  -10.5341  -16.0725 C   0  0  2  0  0  0  0  0  0  0  0  0
   19.1344  -11.6151  -15.3885 N   0  0  0  0  0  0  0  0  0  0  0  0
   19.4467   -9.2098  -15.4375 C   0  0  0  0  0  0  0  0  0  0  0  0
   18.2698   -8.8390  -15.2000 O   0  0  0  0  0  0  0  0  0  0  0  0
   18.6778  -12.6373  -18.5660 C   0  0  0  0  0  0  0  0  0  0  0  0
   19.1008  -13.7110  -19.3191 C   0  0  0  0  0  0  0  0  0  0  0  0
   21.8772   -6.9742  -12.6990 O   0  0  0  0  0  0  0  0  0  0  0  0
   21.4817   -6.3976  -13.8878 C   0  0  0  0  0  0  0  0  0  0  0  0
   20.2314   -7.0138  -14.4648 C   0  0  2  0  0  0  0  0  0  0  0  0
   20.4843   -8.3027  -15.0715 N   0  0  0  0  0  0  0  0  0  0  0  0
   19.5464   -6.0923  -15.4143 C   0  0  0  0  0  0  0  0  0  0  0  0
   19.8491   -6.0390  -16.6480 O   0  0  0  0  0  0  0  0  0  0  0  0
   15.9989   -2.7478  -17.5252 N   0  0  0  0  0  0  0  0  0  0  0  0
   15.5166   -3.8300  -16.7199 C   0  0  0  0  0  0  0  0  0  0  0  0
   14.2854   -4.0407  -16.7664 O   0  0  0  0  0  0  0  0  0  0  0  0
   16.3963   -4.6462  -15.8900 C   0  0  0  0  0  0  0  0  0  0  0  0
   17.8637   -4.3258  -15.9651 C   0  0  2  0  0  0  0  0  0  0  0  0
   18.5117   -5.2174  -14.9942 N   0  0  0  0  0  0  0  0  0  0  0  0
   18.1462   -2.9458  -15.5655 C   0  0  0  0  0  0  0  0  0  0  0  0
   18.8710   -2.7382  -14.5439 O   0  0  0  0  0  0  0  0  0  0  0  0
   17.6896   -1.8235  -16.2102 O   0  0  0  0  0  0  0  0  0  0  0  0
  2  1  1  0
  2 12  2  0
  3  2  1  0
  4  3  2  0
  4  5  1  0
  5 11  2  0
  6  5  1  0
  7  6  1  0
  7  9  1  0
  7  8  1  1
  9 16  1  0
  9 10  2  0
 11 12  1  0
 13 14  1  0
 15 14  1  6
 15 17  1  0
 16 15  1  0
 17 18  2  0
 19 20  1  0
 20 21  2  0
 20 22  1  0
 23 22  1  1
 23 25  1  0
 24 17  1  0
 24 23  1  0
 25 26  2  0
 25 27  1  0
M  END
$$$$
