YSN.pdb
     RDKit          3D

 27 27  0  0  1  0  0  0  0  0999 V2000
   28.8167  -13.4919  -17.0950 O   0  0  0  0  0  0  0  0  0  0  0  0
   28.1863  -14.6367  -16.6393 C   0  0  0  0  0  0  0  0  0  0  0  0
   27.9382  -14.8892  -15.3091 C   0  0  0  0  0  0  0  0  0  0  0  0
   27.3068  -16.0437  -14.9009 C   0  0  0  0  0  0  0  0  0  0  0  0
   26.9038  -16.9830  -15.8171 C   0  0  0  0  0  0  0  0  0  0  0  0
   26.2326  -18.2096  -15.3621 C   0  0  0  0  0  0  0  0  0  0  0  0
   27.2388  -19.1603  -14.7022 C   0  0  2  0  0  0  0  0  0  0  0  0
   28.0544  -19.6913  -15.7470 N   0  0  0  0  0  0  0  0  0  0  0  0
   26.4027  -20.2283  -14.0533 C   0  0  0  0  0  0  0  0  0  0  0  0
   25.8743  -21.1653  -14.7030 O   0  0  0  0  0  0  0  0  0  0  0  0
   27.1389  -16.7556  -17.1469 C   0  0  0  0  0  0  0  0  0  0  0  0
   27.7719  -15.5944  -17.5341 C   0  0  0  0  0  0  0  0  0  0  0  0
   24.8572  -19.8495   -9.9809 O   0  0  0  0  0  0  0  0  0  0  0  0
   25.3366  -21.0393  -10.4875 C   0  0  0  0  0  0  0  0  0  0  0  0
   25.2519  -21.1269  -11.9912 C   0  0  2  0  0  0  0  0  0  0  0  0
   26.1705  -20.2213  -12.6464 N   0  0  0  0  0  0  0  0  0  0  0  0
   23.8579  -20.9334  -12.4802 C   0  0  0  0  0  0  0  0  0  0  0  0
   23.4123  -19.7957  -12.8316 O   0  0  0  0  0  0  0  0  0  0  0  0
   19.3582  -23.4005  -15.3492 N   0  0  0  0  0  0  0  0  0  0  0  0
   19.6907  -23.1798  -13.9732 C   0  0  0  0  0  0  0  0  0  0  0  0
   18.7253  -23.0261  -13.1945 O   0  0  0  0  0  0  0  0  0  0  0  0
   21.0681  -23.1341  -13.4941 C   0  0  0  0  0  0  0  0  0  0  0  0
   21.5856  -21.7803  -13.0927 C   0  0  2  0  0  0  0  0  0  0  0  0
   22.9432  -22.0131  -12.5826 N   0  0  0  0  0  0  0  0  0  0  0  0
   20.7954  -21.1881  -12.0117 C   0  0  0  0  0  0  0  0  0  0  0  0
   19.7116  -20.5921  -12.2983 O   0  0  0  0  0  0  0  0  0  0  0  0
   21.1245  -21.2183  -10.6796 O   0  0  0  0  0  0  0  0  0  0  0  0
  2  1  1  0
  2 12  2  0
  3  2  1  0
  4  3  2  0
  4  5  1  0
  5 11  2  0
  6  5  1  0
  7  6  1  0
  7  9  1  0
  7  8  1  6
  9 16  1  0
  9 10  2  0
 11 12  1  0
 13 14  1  0
 15 14  1  1
 15 17  1  0
 16 15  1  0
 17 18  2  0
 19 20  1  0
 20 21  2  0
 20 22  1  0
 23 22  1  1
 23 25  1  0
 24 17  1  0
 24 23  1  0
 25 26  2  0
 25 27  1  0
M  END
$$$$
