YSN.pdb
     RDKit          3D

 27 27  0  0  1  0  0  0  0  0999 V2000
   18.0598  -25.9387   -6.2098 O   0  0  0  0  0  0  0  0  0  0  0  0
   18.3858  -24.9680   -7.1409 C   0  0  0  0  0  0  0  0  0  0  0  0
   19.0492  -25.2355   -8.3170 C   0  0  0  0  0  0  0  0  0  0  0  0
   19.3532  -24.2365   -9.2156 C   0  0  0  0  0  0  0  0  0  0  0  0
   19.0001  -22.9346   -8.9614 C   0  0  0  0  0  0  0  0  0  0  0  0
   19.3344  -21.8818   -9.9320 C   0  0  0  0  0  0  0  0  0  0  0  0
   20.8525  -21.6761  -10.0010 C   0  0  2  0  0  0  0  0  0  0  0  0
   21.2611  -21.1733   -8.7285 N   0  0  0  0  0  0  0  0  0  0  0  0
   21.0623  -20.6628  -11.0918 C   0  0  0  0  0  0  0  0  0  0  0  0
   20.9115  -19.4285  -10.9101 O   0  0  0  0  0  0  0  0  0  0  0  0
   18.3393  -22.6420   -7.7982 C   0  0  0  0  0  0  0  0  0  0  0  0
   18.0448  -23.6560   -6.9128 C   0  0  0  0  0  0  0  0  0  0  0  0
   23.1949  -21.6291  -14.5572 O   0  0  0  0  0  0  0  0  0  0  0  0
   22.9317  -20.3206  -14.2099 C   0  0  0  0  0  0  0  0  0  0  0  0
   21.6109  -20.1433  -13.5029 C   0  0  2  0  0  0  0  0  0  0  0  0
   21.4484  -21.0691  -12.4030 N   0  0  0  0  0  0  0  0  0  0  0  0
   20.4616  -20.2169  -14.4482 C   0  0  0  0  0  0  0  0  0  0  0  0
   19.6292  -21.1778  -14.4330 O   0  0  0  0  0  0  0  0  0  0  0  0
   15.7654  -20.0634  -16.4087 N   0  0  0  0  0  0  0  0  0  0  0  0
   16.5545  -18.9624  -15.9423 C   0  0  0  0  0  0  0  0  0  0  0  0
   16.0543  -17.8271  -16.0942 O   0  0  0  0  0  0  0  0  0  0  0  0
   17.8649  -19.1389  -15.3255 C   0  0  0  0  0  0  0  0  0  0  0  0
   19.0285  -19.2744  -16.2685 C   0  0  2  0  0  0  0  0  0  0  0  0
   20.2289  -19.2139  -15.4241 N   0  0  0  0  0  0  0  0  0  0  0  0
   19.0947  -18.1659  -17.2228 C   0  0  0  0  0  0  0  0  0  0  0  0
   18.1595  -18.0283  -18.0704 O   0  0  0  0  0  0  0  0  0  0  0  0
   20.1003  -17.2342  -17.2884 O   0  0  0  0  0  0  0  0  0  0  0  0
  2  1  1  0
  2 12  2  0
  3  2  1  0
  4  3  2  0
  4  5  1  0
  5 11  2  0
  6  5  1  0
  7  6  1  0
  7  9  1  0
  7  8  1  1
  9 16  1  0
  9 10  2  0
 11 12  1  0
 13 14  1  0
 15 14  1  6
 15 17  1  0
 16 15  1  0
 17 18  2  0
 19 20  1  0
 20 21  2  0
 20 22  1  0
 23 22  1  1
 23 25  1  0
 24 17  1  0
 24 23  1  0
 25 26  2  0
 25 27  1  0
M  END
$$$$
