YSN.pdb
     RDKit          3D

 27 27  0  0  1  0  0  0  0  0999 V2000
   11.2289   -4.9702   -6.2562 O   0  0  0  0  0  0  0  0  0  0  0  0
   12.1167   -5.8509   -6.8494 C   0  0  0  0  0  0  0  0  0  0  0  0
   11.8543   -7.1906   -7.0260 C   0  0  0  0  0  0  0  0  0  0  0  0
   12.7687   -8.0310   -7.6224 C   0  0  0  0  0  0  0  0  0  0  0  0
   13.9779   -7.5519   -8.0613 C   0  0  0  0  0  0  0  0  0  0  0  0
   14.9415   -8.4645   -8.6942 C   0  0  0  0  0  0  0  0  0  0  0  0
   14.3830   -9.0039  -10.0167 C   0  0  2  0  0  0  0  0  0  0  0  0
   13.7651  -10.2577   -9.7253 N   0  0  0  0  0  0  0  0  0  0  0  0
   15.5807   -9.1694  -10.9104 C   0  0  0  0  0  0  0  0  0  0  0  0
   16.4007  -10.1126  -10.7791 O   0  0  0  0  0  0  0  0  0  0  0  0
   14.2633   -6.2226   -7.8973 C   0  0  0  0  0  0  0  0  0  0  0  0
   13.3349   -5.3992   -7.2983 C   0  0  0  0  0  0  0  0  0  0  0  0
   15.4247   -7.8988  -14.7880 O   0  0  0  0  0  0  0  0  0  0  0  0
   16.3426   -8.8055  -14.3006 C   0  0  0  0  0  0  0  0  0  0  0  0
   16.8879   -8.4343  -12.9438 C   0  0  2  0  0  0  0  0  0  0  0  0
   15.8402   -8.2445  -11.9643 N   0  0  0  0  0  0  0  0  0  0  0  0
   17.7871   -7.2483  -13.0132 C   0  0  0  0  0  0  0  0  0  0  0  0
   17.4233   -6.0953  -12.6201 O   0  0  0  0  0  0  0  0  0  0  0  0
   21.9944   -4.2170  -14.3789 N   0  0  0  0  0  0  0  0  0  0  0  0
   22.3284   -5.4915  -13.8161 C   0  0  0  0  0  0  0  0  0  0  0  0
   23.5378   -5.6771  -13.5605 O   0  0  0  0  0  0  0  0  0  0  0  0
   21.3292   -6.5212  -13.5517 C   0  0  0  0  0  0  0  0  0  0  0  0
   19.8938   -6.1178  -13.7476 C   0  0  2  0  0  0  0  0  0  0  0  0
   19.1076   -7.3382  -13.5240 N   0  0  0  0  0  0  0  0  0  0  0  0
   19.6330   -5.6599  -15.1137 C   0  0  0  0  0  0  0  0  0  0  0  0
   19.8079   -4.4341  -15.3947 O   0  0  0  0  0  0  0  0  0  0  0  0
   19.2064   -6.4536  -16.1489 O   0  0  0  0  0  0  0  0  0  0  0  0
  2  1  1  0
  2 12  2  0
  3  2  1  0
  4  3  2  0
  4  5  1  0
  5 11  2  0
  6  5  1  0
  7  6  1  0
  7  9  1  0
  7  8  1  1
  9 16  1  0
  9 10  2  0
 11 12  1  0
 13 14  1  0
 15 14  1  6
 15 17  1  0
 16 15  1  0
 17 18  2  0
 19 20  1  0
 20 21  2  0
 20 22  1  0
 23 22  1  6
 23 25  1  0
 24 17  1  0
 24 23  1  0
 25 26  2  0
 25 27  1  0
M  END
$$$$
