YSN.pdb
     RDKit          3D

 27 27  0  0  1  0  0  0  0  0999 V2000
   28.7679  -14.9816  -19.6715 O   0  0  0  0  0  0  0  0  0  0  0  0
   27.7176  -15.6919  -19.1166 C   0  0  0  0  0  0  0  0  0  0  0  0
   26.3942  -15.3651  -19.3080 C   0  0  0  0  0  0  0  0  0  0  0  0
   25.3805  -16.1018  -18.7354 C   0  0  0  0  0  0  0  0  0  0  0  0
   25.6640  -17.1920  -17.9511 C   0  0  0  0  0  0  0  0  0  0  0  0
   24.5685  -17.9651  -17.3474 C   0  0  0  0  0  0  0  0  0  0  0  0
   25.0133  -19.4076  -17.0771 C   0  0  2  0  0  0  0  0  0  0  0  0
   25.3403  -19.9846  -18.3417 N   0  0  0  0  0  0  0  0  0  0  0  0
   23.8197  -20.0763  -16.4537 C   0  0  0  0  0  0  0  0  0  0  0  0
   22.9051  -20.6050  -17.1343 O   0  0  0  0  0  0  0  0  0  0  0  0
   26.9728  -17.5381  -17.7451 C   0  0  0  0  0  0  0  0  0  0  0  0
   27.9717  -16.7880  -18.3269 C   0  0  0  0  0  0  0  0  0  0  0  0
   23.1399  -19.9057  -12.2197 O   0  0  0  0  0  0  0  0  0  0  0  0
   22.8408  -21.0569  -12.9178 C   0  0  0  0  0  0  0  0  0  0  0  0
   22.5748  -20.8160  -14.3831 C   0  0  2  0  0  0  0  0  0  0  0  0
   23.6738  -20.1390  -15.0366 N   0  0  0  0  0  0  0  0  0  0  0  0
   21.2879  -20.0979  -14.6023 C   0  0  0  0  0  0  0  0  0  0  0  0
   21.2411  -18.8664  -14.9150 O   0  0  0  0  0  0  0  0  0  0  0  0
   17.2228  -17.7542  -16.6626 N   0  0  0  0  0  0  0  0  0  0  0  0
   17.5312  -19.1524  -16.7123 C   0  0  0  0  0  0  0  0  0  0  0  0
   16.6673  -19.8853  -17.2403 O   0  0  0  0  0  0  0  0  0  0  0  0
   18.7742  -19.7033  -16.1828 C   0  0  0  0  0  0  0  0  0  0  0  0
   18.7908  -20.0052  -14.7096 C   0  0  2  0  0  0  0  0  0  0  0  0
   20.0346  -20.7503  -14.4743 N   0  0  0  0  0  0  0  0  0  0  0  0
   17.6722  -20.8621  -14.3115 C   0  0  0  0  0  0  0  0  0  0  0  0
   16.5241  -20.3420  -14.1586 O   0  0  0  0  0  0  0  0  0  0  0  0
   17.7497  -22.2131  -14.0826 O   0  0  0  0  0  0  0  0  0  0  0  0
  2  1  1  0
  2 12  2  0
  3  2  1  0
  4  3  2  0
  4  5  1  0
  5 11  2  0
  6  5  1  0
  7  6  1  0
  7  9  1  0
  7  8  1  6
  9 16  1  0
  9 10  2  0
 11 12  1  0
 13 14  1  0
 15 14  1  1
 15 17  1  0
 16 15  1  0
 17 18  2  0
 19 20  1  0
 20 21  2  0
 20 22  1  0
 23 22  1  6
 23 25  1  0
 24 17  1  0
 24 23  1  0
 25 26  2  0
 25 27  1  0
M  END
$$$$
