YSN.pdb
     RDKit          3D

 27 27  0  0  1  0  0  0  0  0999 V2000
   23.3127  -23.2094  -22.4489 O   0  0  0  0  0  0  0  0  0  0  0  0
   23.5941  -21.8889  -22.1445 C   0  0  0  0  0  0  0  0  0  0  0  0
   24.7024  -21.2206  -22.6136 C   0  0  0  0  0  0  0  0  0  0  0  0
   24.9425  -19.9045  -22.2843 C   0  0  0  0  0  0  0  0  0  0  0  0
   24.0758  -19.2164  -21.4722 C   0  0  0  0  0  0  0  0  0  0  0  0
   24.3497  -17.8127  -21.1308 C   0  0  0  0  0  0  0  0  0  0  0  0
   25.5369  -17.7157  -20.1649 C   0  0  2  0  0  0  0  0  0  0  0  0
   25.0961  -18.2400  -18.9121 N   0  0  0  0  0  0  0  0  0  0  0  0
   25.8497  -16.2479  -20.0734 C   0  0  0  0  0  0  0  0  0  0  0  0
   25.3102  -15.4900  -19.2286 O   0  0  0  0  0  0  0  0  0  0  0  0
   22.9656  -19.8587  -20.9923 C   0  0  0  0  0  0  0  0  0  0  0  0
   22.7441  -21.1753  -21.3336 C   0  0  0  0  0  0  0  0  0  0  0  0
   28.5973  -12.5476  -21.8041 O   0  0  0  0  0  0  0  0  0  0  0  0
   28.3048  -13.8951  -21.7793 C   0  0  0  0  0  0  0  0  0  0  0  0
   27.0884  -14.2282  -20.9515 C   0  0  2  0  0  0  0  0  0  0  0  0
   26.7900  -15.6439  -20.9591 N   0  0  0  0  0  0  0  0  0  0  0  0
   25.9033  -13.4218  -21.3579 C   0  0  0  0  0  0  0  0  0  0  0  0
   25.1730  -13.7384  -22.3493 O   0  0  0  0  0  0  0  0  0  0  0  0
   20.9296  -11.2323  -20.7774 N   0  0  0  0  0  0  0  0  0  0  0  0
   22.1542  -10.7091  -20.2492 C   0  0  0  0  0  0  0  0  0  0  0  0
   22.1490   -9.4942  -19.9552 O   0  0  0  0  0  0  0  0  0  0  0  0
   23.3445  -11.5314  -20.0601 C   0  0  0  0  0  0  0  0  0  0  0  0
   24.3892  -11.4433  -21.1383 C   0  0  2  0  0  0  0  0  0  0  0  0
   25.5197  -12.2488  -20.6582 N   0  0  0  0  0  0  0  0  0  0  0  0
   24.8651  -10.0722  -21.3319 C   0  0  0  0  0  0  0  0  0  0  0  0
   24.1119   -9.2379  -21.9222 O   0  0  0  0  0  0  0  0  0  0  0  0
   26.0830   -9.5897  -20.9225 O   0  0  0  0  0  0  0  0  0  0  0  0
  2  1  1  0
  2 12  2  0
  3  2  1  0
  4  3  2  0
  4  5  1  0
  5 11  2  0
  6  5  1  0
  7  6  1  0
  7  9  1  0
  7  8  1  1
  9 16  1  0
  9 10  2  0
 11 12  1  0
 13 14  1  0
 15 14  1  6
 15 17  1  0
 16 15  1  0
 17 18  2  0
 19 20  1  0
 20 21  2  0
 20 22  1  0
 23 22  1  1
 23 25  1  0
 24 17  1  0
 24 23  1  0
 25 26  2  0
 25 27  1  0
M  END
$$$$
