YSN.pdb
     RDKit          3D

 27 27  0  0  1  0  0  0  0  0999 V2000
   15.0311  -16.2487  -18.0314 O   0  0  0  0  0  0  0  0  0  0  0  0
   15.4452  -15.2009  -17.2274 C   0  0  0  0  0  0  0  0  0  0  0  0
   15.1273  -13.8841  -17.4718 C   0  0  0  0  0  0  0  0  0  0  0  0
   15.5619  -12.8727  -16.6433 C   0  0  0  0  0  0  0  0  0  0  0  0
   16.3308  -13.1521  -15.5410 C   0  0  0  0  0  0  0  0  0  0  0  0
   16.7863  -12.0591  -14.6693 C   0  0  0  0  0  0  0  0  0  0  0  0
   18.0092  -11.3608  -15.2763 C   0  0  2  0  0  0  0  0  0  0  0  0
   19.1170  -12.2464  -15.1110 N   0  0  0  0  0  0  0  0  0  0  0  0
   18.1808  -10.1011  -14.4735 C   0  0  0  0  0  0  0  0  0  0  0  0
   18.6566  -10.0968  -13.3104 O   0  0  0  0  0  0  0  0  0  0  0  0
   16.6609  -14.4544  -15.2758 C   0  0  0  0  0  0  0  0  0  0  0  0
   16.2161  -15.4509  -16.1172 C   0  0  0  0  0  0  0  0  0  0  0  0
   19.3708   -6.4438  -16.0113 O   0  0  0  0  0  0  0  0  0  0  0  0
   18.1904   -6.4282  -15.2982 C   0  0  0  0  0  0  0  0  0  0  0  0
   18.0584   -7.5812  -14.3343 C   0  0  2  0  0  0  0  0  0  0  0  0
   17.8031   -8.8350  -15.0098 N   0  0  0  0  0  0  0  0  0  0  0  0
   17.0356   -7.3123  -13.2848 C   0  0  0  0  0  0  0  0  0  0  0  0
   15.8430   -7.7446  -13.3710 O   0  0  0  0  0  0  0  0  0  0  0  0
   14.6627   -6.0102   -8.7492 N   0  0  0  0  0  0  0  0  0  0  0  0
   15.7529   -6.9392   -8.7766 C   0  0  0  0  0  0  0  0  0  0  0  0
   15.9671   -7.5635   -7.7152 O   0  0  0  0  0  0  0  0  0  0  0  0
   16.5733   -7.1549   -9.9637 C   0  0  0  0  0  0  0  0  0  0  0  0
   16.2812   -6.2668  -11.1416 C   0  0  2  0  0  0  0  0  0  0  0  0
   17.3352   -6.5550  -12.1232 N   0  0  0  0  0  0  0  0  0  0  0  0
   16.3674   -4.8470  -10.7943 C   0  0  0  0  0  0  0  0  0  0  0  0
   17.3744   -4.1792  -11.1843 O   0  0  0  0  0  0  0  0  0  0  0  0
   15.4352   -4.1497  -10.0674 O   0  0  0  0  0  0  0  0  0  0  0  0
  2  1  1  0
  2 12  2  0
  3  2  1  0
  4  3  2  0
  4  5  1  0
  5 11  2  0
  6  5  1  0
  7  6  1  0
  7  9  1  0
  7  8  1  1
  9 16  1  0
  9 10  2  0
 11 12  1  0
 13 14  1  0
 15 14  1  6
 15 17  1  0
 16 15  1  0
 17 18  2  0
 19 20  1  0
 20 21  2  0
 20 22  1  0
 23 22  1  1
 23 25  1  0
 24 17  1  0
 24 23  1  0
 25 26  2  0
 25 27  1  0
M  END
$$$$
