YSN.pdb
     RDKit          3D

 27 27  0  0  1  0  0  0  0  0999 V2000
   25.9013  -20.8123   -7.0781 O   0  0  0  0  0  0  0  0  0  0  0  0
   25.5817  -20.6049   -8.4086 C   0  0  0  0  0  0  0  0  0  0  0  0
   24.3590  -20.9233   -8.9549 C   0  0  0  0  0  0  0  0  0  0  0  0
   24.0847  -20.6989  -10.2863 C   0  0  0  0  0  0  0  0  0  0  0  0
   25.0312  -20.1466  -11.1129 C   0  0  0  0  0  0  0  0  0  0  0  0
   24.7203  -19.9158  -12.5314 C   0  0  0  0  0  0  0  0  0  0  0  0
   24.4323  -21.2439  -13.2420 C   0  0  2  0  0  0  0  0  0  0  0  0
   25.6920  -21.8807  -13.4573 N   0  0  0  0  0  0  0  0  0  0  0  0
   23.7749  -20.8609  -14.5388 C   0  0  0  0  0  0  0  0  0  0  0  0
   23.6168  -19.6656  -14.8929 O   0  0  0  0  0  0  0  0  0  0  0  0
   26.2558  -19.8208  -10.5938 C   0  0  0  0  0  0  0  0  0  0  0  0
   26.5098  -20.0535   -9.2596 C   0  0  0  0  0  0  0  0  0  0  0  0
   24.4799  -22.4004  -18.0659 O   0  0  0  0  0  0  0  0  0  0  0  0
   23.1272  -22.4757  -17.8075 C   0  0  0  0  0  0  0  0  0  0  0  0
   22.6754  -21.5470  -16.7079 C   0  0  2  0  0  0  0  0  0  0  0  0
   23.2943  -21.8582  -15.4377 N   0  0  0  0  0  0  0  0  0  0  0  0
   21.1906  -21.5056  -16.5922 C   0  0  0  0  0  0  0  0  0  0  0  0
   20.5468  -22.2836  -15.8198 O   0  0  0  0  0  0  0  0  0  0  0  0
   19.5794  -17.3242  -15.6021 N   0  0  0  0  0  0  0  0  0  0  0  0
   18.8495  -18.5494  -15.7382 C   0  0  0  0  0  0  0  0  0  0  0  0
   18.4748  -19.0848  -14.6727 O   0  0  0  0  0  0  0  0  0  0  0  0
   18.5534  -19.1492  -17.0348 C   0  0  0  0  0  0  0  0  0  0  0  0
   18.9437  -20.5919  -17.2024 C   0  0  2  0  0  0  0  0  0  0  0  0
   20.4060  -20.5908  -17.3407 N   0  0  0  0  0  0  0  0  0  0  0  0
   18.3782  -21.1766  -18.4198 C   0  0  0  0  0  0  0  0  0  0  0  0
   17.1306  -21.4070  -18.4685 O   0  0  0  0  0  0  0  0  0  0  0  0
   19.0895  -21.5072  -19.5460 O   0  0  0  0  0  0  0  0  0  0  0  0
  2  1  1  0
  2 12  2  0
  3  2  1  0
  4  3  2  0
  4  5  1  0
  5 11  2  0
  6  5  1  0
  7  6  1  0
  7  9  1  0
  7  8  1  6
  9 16  1  0
  9 10  2  0
 11 12  1  0
 13 14  1  0
 15 14  1  6
 15 17  1  0
 16 15  1  0
 17 18  2  0
 19 20  1  0
 20 21  2  0
 20 22  1  0
 23 22  1  6
 23 25  1  0
 24 17  1  0
 24 23  1  0
 25 26  2  0
 25 27  1  0
M  END
$$$$
