YSN.pdb
     RDKit          3D

 27 27  0  0  1  0  0  0  0  0999 V2000
   31.7003  -22.3328  -10.1772 O   0  0  0  0  0  0  0  0  0  0  0  0
   30.5366  -21.7338  -10.6275 C   0  0  0  0  0  0  0  0  0  0  0  0
   29.2929  -21.9978  -10.0999 C   0  0  0  0  0  0  0  0  0  0  0  0
   28.1605  -21.3771  -10.5801 C   0  0  0  0  0  0  0  0  0  0  0  0
   28.2412  -20.4700  -11.6072 C   0  0  0  0  0  0  0  0  0  0  0  0
   27.0213  -19.8188  -12.1071 C   0  0  0  0  0  0  0  0  0  0  0  0
   26.2050  -20.7923  -12.9658 C   0  0  2  0  0  0  0  0  0  0  0  0
   27.0379  -21.1796  -14.0591 N   0  0  0  0  0  0  0  0  0  0  0  0
   25.0125  -20.0024  -13.4290 C   0  0  0  0  0  0  0  0  0  0  0  0
   24.5738  -19.0051  -12.8028 O   0  0  0  0  0  0  0  0  0  0  0  0
   29.4671  -20.1898  -12.1494 C   0  0  0  0  0  0  0  0  0  0  0  0
   30.5872  -20.8217  -11.6546 C   0  0  0  0  0  0  0  0  0  0  0  0
   24.4125  -19.3309  -17.1831 O   0  0  0  0  0  0  0  0  0  0  0  0
   23.5474  -18.7330  -16.2907 C   0  0  0  0  0  0  0  0  0  0  0  0
   23.1808  -19.6201  -15.1269 C   0  0  2  0  0  0  0  0  0  0  0  0
   24.3168  -20.3598  -14.6214 N   0  0  0  0  0  0  0  0  0  0  0  0
   22.0460  -20.5273  -15.4572 C   0  0  0  0  0  0  0  0  0  0  0  0
   22.2174  -21.7543  -15.7431 O   0  0  0  0  0  0  0  0  0  0  0  0
   19.2988  -21.6988  -13.0417 N   0  0  0  0  0  0  0  0  0  0  0  0
   18.3080  -20.8925  -13.6901 C   0  0  0  0  0  0  0  0  0  0  0  0
   17.3421  -20.5365  -12.9812 O   0  0  0  0  0  0  0  0  0  0  0  0
   18.4056  -20.5021  -15.0926 C   0  0  0  0  0  0  0  0  0  0  0  0
   19.6179  -20.9936  -15.8345 C   0  0  2  0  0  0  0  0  0  0  0  0
   20.7024  -20.0720  -15.4713 N   0  0  0  0  0  0  0  0  0  0  0  0
   19.4388  -20.9261  -17.2861 C   0  0  0  0  0  0  0  0  0  0  0  0
   19.8298  -19.8892  -17.9058 O   0  0  0  0  0  0  0  0  0  0  0  0
   18.8732  -21.9064  -18.0625 O   0  0  0  0  0  0  0  0  0  0  0  0
  2  1  1  0
  2 12  2  0
  3  2  1  0
  4  3  2  0
  4  5  1  0
  5 11  2  0
  6  5  1  0
  7  6  1  0
  7  9  1  0
  7  8  1  6
  9 16  1  0
  9 10  2  0
 11 12  1  0
 13 14  1  0
 15 14  1  6
 15 17  1  0
 16 15  1  0
 17 18  2  0
 19 20  1  0
 20 21  2  0
 20 22  1  0
 23 22  1  1
 23 25  1  0
 24 17  1  0
 24 23  1  0
 25 26  2  0
 25 27  1  0
M  END
$$$$
