GCD.pdb
     RDKit          3D

 19 18  0  0  1  0  0  0  0  0999 V2000
   12.6430  -11.8178  -10.2263 N   0  0  0  0  0  0  0  0  0  0  0  0
   14.0592  -11.5831  -10.1387 C   0  0  0  0  0  0  0  0  0  0  0  0
   14.3304  -10.1477  -10.2847 C   0  0  0  0  0  0  0  0  0  0  0  0
   13.5709   -9.4386  -10.9752 O   0  0  0  0  0  0  0  0  0  0  0  0
   15.4404   -9.4902   -9.6694 N   0  0  0  0  0  0  0  0  0  0  0  0
   15.6953   -8.0862   -9.8298 C   0  0  1  0  0  0  0  0  0  0  0  0
   15.8564   -7.3833   -8.4925 C   0  0  0  0  0  0  0  0  0  0  0  0
   14.3455   -7.4863   -7.5079 S   0  0  0  0  0  0  0  0  0  0  0  0
   16.9081   -7.8353  -10.6620 C   0  0  0  0  0  0  0  0  0  0  0  0
   17.9656   -8.4666  -10.4060 O   0  0  0  0  0  0  0  0  0  0  0  0
   16.8549   -6.8973  -11.7216 N   0  0  0  0  0  0  0  0  0  0  0  0
   18.0262   -6.7686  -12.5843 C   0  0  1  0  0  0  0  0  0  0  0  0
   18.2289   -8.0219  -13.4011 C   0  0  0  0  0  0  0  0  0  0  0  0
   19.3143   -7.7841  -14.3721 C   0  0  0  0  0  0  0  0  0  0  0  0
   20.4765   -7.4464  -14.0944 O   0  0  0  0  0  0  0  0  0  0  0  0
   17.8901   -5.5423  -13.3737 C   0  0  0  0  0  0  0  0  0  0  0  0
   18.9468   -4.9788  -14.0646 O   0  0  0  0  0  0  0  0  0  0  0  0
   19.0188   -7.9511  -15.7327 O   0  0  0  0  0  0  0  0  0  0  0  0
   16.7836   -4.9343  -13.4592 O   0  0  0  0  0  0  0  0  0  0  0  0
  2  1  1  0
  3  2  1  0
  3  4  2  0
  5  3  1  0
  6  5  1  0
  6  7  1  1
  8  7  1  0
  9  6  1  0
 10  9  2  0
 11  9  1  0
 12 11  1  0
 12 13  1  6
 14 13  1  0
 14 15  2  0
 16 12  1  0
 17 16  1  0
 18 14  1  0
 19 16  2  0
M  END
$$$$
