GCD.pdb
     RDKit          3D

 19 18  0  0  1  0  0  0  0  0999 V2000
   22.7559  -15.0452  -18.2715 N   0  0  0  0  0  0  0  0  0  0  0  0
   22.7687  -13.7385  -18.8721 C   0  0  0  0  0  0  0  0  0  0  0  0
   23.2184  -12.7479  -17.8864 C   0  0  0  0  0  0  0  0  0  0  0  0
   22.5381  -12.5367  -16.8622 O   0  0  0  0  0  0  0  0  0  0  0  0
   24.4202  -11.9870  -18.0276 N   0  0  0  0  0  0  0  0  0  0  0  0
   24.8471  -11.0246  -17.0513 C   0  0  1  0  0  0  0  0  0  0  0  0
   26.3512  -10.8126  -17.0847 C   0  0  0  0  0  0  0  0  0  0  0  0
   26.8835   -9.6646  -15.7957 S   0  0  0  0  0  0  0  0  0  0  0  0
   24.1650   -9.7102  -17.2346 C   0  0  0  0  0  0  0  0  0  0  0  0
   24.0323   -9.2480  -18.3970 O   0  0  0  0  0  0  0  0  0  0  0  0
   23.6791   -9.0043  -16.1072 N   0  0  0  0  0  0  0  0  0  0  0  0
   22.9165   -7.7806  -16.3396 C   0  0  1  0  0  0  0  0  0  0  0  0
   21.7791   -7.6642  -15.3538 C   0  0  0  0  0  0  0  0  0  0  0  0
   21.0434   -6.4141  -15.6250 C   0  0  0  0  0  0  0  0  0  0  0  0
   20.4986   -6.1100  -16.6986 O   0  0  0  0  0  0  0  0  0  0  0  0
   23.8439   -6.6468  -16.3365 C   0  0  0  0  0  0  0  0  0  0  0  0
   25.1320   -6.7382  -15.8427 O   0  0  0  0  0  0  0  0  0  0  0  0
   20.9439   -5.4786  -14.5852 O   0  0  0  0  0  0  0  0  0  0  0  0
   23.5024   -5.5164  -16.7912 O   0  0  0  0  0  0  0  0  0  0  0  0
  2  1  1  0
  3  2  1  0
  3  4  2  0
  5  3  1  0
  6  5  1  0
  6  7  1  6
  8  7  1  0
  9  6  1  0
 10  9  2  0
 11  9  1  0
 12 11  1  0
 12 13  1  1
 14 13  1  0
 14 15  2  0
 16 12  1  0
 17 16  1  0
 18 14  1  0
 19 16  2  0
M  END
$$$$
