GCD.pdb
     RDKit          3D

 19 18  0  0  1  0  0  0  0  0999 V2000
   14.8470  -12.9098  -12.8704 N   0  0  0  0  0  0  0  0  0  0  0  0
   15.8260  -12.0026  -12.3347 C   0  0  0  0  0  0  0  0  0  0  0  0
   15.1607  -10.7810  -11.8654 C   0  0  0  0  0  0  0  0  0  0  0  0
   14.2618  -10.2585  -12.5549 O   0  0  0  0  0  0  0  0  0  0  0  0
   15.4850  -10.1321  -10.6339 N   0  0  0  0  0  0  0  0  0  0  0  0
   14.7673   -8.9868  -10.1491 C   0  0  1  0  0  0  0  0  0  0  0  0
   14.1562   -9.2384   -8.7810 C   0  0  0  0  0  0  0  0  0  0  0  0
   12.9660  -10.5962   -8.8308 S   0  0  0  0  0  0  0  0  0  0  0  0
   15.6377   -7.7768  -10.0796 C   0  0  0  0  0  0  0  0  0  0  0  0
   16.7101   -7.8328   -9.4245 O   0  0  0  0  0  0  0  0  0  0  0  0
   15.2495   -6.5893  -10.7464 N   0  0  0  0  0  0  0  0  0  0  0  0
   16.1644   -5.4515  -10.7110 C   0  0  1  0  0  0  0  0  0  0  0  0
   16.2741   -4.8111  -12.0737 C   0  0  0  0  0  0  0  0  0  0  0  0
   17.1312   -3.6147  -11.9671 C   0  0  0  0  0  0  0  0  0  0  0  0
   18.0976   -3.4793  -11.1993 O   0  0  0  0  0  0  0  0  0  0  0  0
   15.7367   -4.5437   -9.6439 C   0  0  0  0  0  0  0  0  0  0  0  0
   16.5969   -3.6465   -9.0386 O   0  0  0  0  0  0  0  0  0  0  0  0
   16.8378   -2.5271  -12.8024 O   0  0  0  0  0  0  0  0  0  0  0  0
   14.5439   -4.5406   -9.2215 O   0  0  0  0  0  0  0  0  0  0  0  0
  2  1  1  0
  3  2  1  0
  3  4  2  0
  5  3  1  0
  6  5  1  0
  6  7  1  1
  8  7  1  0
  9  6  1  0
 10  9  2  0
 11  9  1  0
 12 11  1  0
 12 13  1  6
 14 13  1  0
 14 15  2  0
 16 12  1  0
 17 16  1  0
 18 14  1  0
 19 16  2  0
M  END
$$$$
