GCD.pdb
     RDKit          3D

 19 18  0  0  1  0  0  0  0  0999 V2000
   30.2026  -21.2912  -11.7489 N   0  0  0  0  0  0  0  0  0  0  0  0
   29.2174  -20.4399  -12.3595 C   0  0  0  0  0  0  0  0  0  0  0  0
   27.8728  -20.9367  -12.0423 C   0  0  0  0  0  0  0  0  0  0  0  0
   27.4527  -21.9807  -12.5807 O   0  0  0  0  0  0  0  0  0  0  0  0
   26.9875  -20.2832  -11.1301 N   0  0  0  0  0  0  0  0  0  0  0  0
   25.6841  -20.7958  -10.8139 C   0  0  1  0  0  0  0  0  0  0  0  0
   25.1755  -20.2685   -9.4828 C   0  0  0  0  0  0  0  0  0  0  0  0
   26.2200  -20.8163   -8.1147 S   0  0  0  0  0  0  0  0  0  0  0  0
   24.6893  -20.4737  -11.8784 C   0  0  0  0  0  0  0  0  0  0  0  0
   24.8080  -19.3981  -12.5198 O   0  0  0  0  0  0  0  0  0  0  0  0
   23.6320  -21.3753  -12.1520 N   0  0  0  0  0  0  0  0  0  0  0  0
   22.7357  -21.0656  -13.2626 C   0  0  1  0  0  0  0  0  0  0  0  0
   22.9464  -22.0301  -14.4047 C   0  0  0  0  0  0  0  0  0  0  0  0
   21.9829  -21.7129  -15.4764 C   0  0  0  0  0  0  0  0  0  0  0  0
   21.8318  -20.6031  -16.0124 O   0  0  0  0  0  0  0  0  0  0  0  0
   21.3634  -21.0155  -12.7528 C   0  0  0  0  0  0  0  0  0  0  0  0
   20.3570  -20.3117  -13.3878 O   0  0  0  0  0  0  0  0  0  0  0  0
   21.1591  -22.7492  -15.9390 O   0  0  0  0  0  0  0  0  0  0  0  0
   21.0329  -21.6220  -11.6925 O   0  0  0  0  0  0  0  0  0  0  0  0
  2  1  1  0
  3  2  1  0
  3  4  2  0
  5  3  1  0
  6  5  1  0
  6  7  1  1
  8  7  1  0
  9  6  1  0
 10  9  2  0
 11  9  1  0
 12 11  1  0
 12 13  1  6
 14 13  1  0
 14 15  2  0
 16 12  1  0
 17 16  1  0
 18 14  1  0
 19 16  2  0
M  END
$$$$
