GCD.pdb
     RDKit          3D

 19 18  0  0  1  0  0  0  0  0999 V2000
   21.6585  -14.1827  -17.9892 N   0  0  0  0  0  0  0  0  0  0  0  0
   21.3432  -12.8054  -18.2569 C   0  0  0  0  0  0  0  0  0  0  0  0
   21.8131  -11.9678  -17.1466 C   0  0  0  0  0  0  0  0  0  0  0  0
   21.0347  -11.6734  -16.2172 O   0  0  0  0  0  0  0  0  0  0  0  0
   23.1433  -11.4524  -17.0582 N   0  0  0  0  0  0  0  0  0  0  0  0
   23.5629  -10.5667  -16.0088 C   0  0  1  0  0  0  0  0  0  0  0  0
   25.0759  -10.5196  -15.8782 C   0  0  0  0  0  0  0  0  0  0  0  0
   25.7395  -12.1075  -15.3296 S   0  0  0  0  0  0  0  0  0  0  0  0
   23.0477   -9.1815  -16.2145 C   0  0  0  0  0  0  0  0  0  0  0  0
   23.0655   -8.6889  -17.3718 O   0  0  0  0  0  0  0  0  0  0  0  0
   22.5487   -8.4437  -15.1135 N   0  0  0  0  0  0  0  0  0  0  0  0
   21.9817   -7.1230  -15.3723 C   0  0  1  0  0  0  0  0  0  0  0  0
   20.6071   -7.2420  -15.9849 C   0  0  0  0  0  0  0  0  0  0  0  0
   20.0519   -5.8873  -16.1694 C   0  0  0  0  0  0  0  0  0  0  0  0
   19.0645   -5.4201  -15.5790 O   0  0  0  0  0  0  0  0  0  0  0  0
   22.0308   -6.3445  -14.1324 C   0  0  0  0  0  0  0  0  0  0  0  0
   22.1080   -6.9339  -12.8842 O   0  0  0  0  0  0  0  0  0  0  0  0
   20.6877   -5.0431  -17.0911 O   0  0  0  0  0  0  0  0  0  0  0  0
   22.0035   -5.0795  -14.1484 O   0  0  0  0  0  0  0  0  0  0  0  0
  2  1  1  0
  3  2  1  0
  3  4  2  0
  5  3  1  0
  6  5  1  0
  6  7  1  6
  8  7  1  0
  9  6  1  0
 10  9  2  0
 11  9  1  0
 12 11  1  0
 12 13  1  1
 14 13  1  0
 14 15  2  0
 16 12  1  0
 17 16  1  0
 18 14  1  0
 19 16  2  0
M  END
$$$$
