GCD.pdb
     RDKit          3D

 19 18  0  0  1  0  0  0  0  0999 V2000
   14.3030   -7.9663   -6.7091 N   0  0  0  0  0  0  0  0  0  0  0  0
   14.5399   -7.3063   -7.9647 C   0  0  0  0  0  0  0  0  0  0  0  0
   15.6422   -7.9713   -8.6703 C   0  0  0  0  0  0  0  0  0  0  0  0
   15.7993   -9.2037   -8.5569 O   0  0  0  0  0  0  0  0  0  0  0  0
   16.5747   -7.2787   -9.5033 N   0  0  0  0  0  0  0  0  0  0  0  0
   17.1332   -7.8605  -10.6913 C   0  0  1  0  0  0  0  0  0  0  0  0
   16.0550   -8.3474  -11.6446 C   0  0  0  0  0  0  0  0  0  0  0  0
   16.7708   -9.1817  -13.0780 S   0  0  0  0  0  0  0  0  0  0  0  0
   18.0240   -6.9033  -11.4102 C   0  0  0  0  0  0  0  0  0  0  0  0
   17.5847   -5.7611  -11.7014 O   0  0  0  0  0  0  0  0  0  0  0  0
   19.3428   -7.2888  -11.7535 N   0  0  0  0  0  0  0  0  0  0  0  0
   20.1725   -6.3289  -12.4767 C   0  0  1  0  0  0  0  0  0  0  0  0
   21.6168   -6.7681  -12.4824 C   0  0  0  0  0  0  0  0  0  0  0  0
   22.4274   -5.7220  -13.1352 C   0  0  0  0  0  0  0  0  0  0  0  0
   22.6005   -4.5674  -12.7124 O   0  0  0  0  0  0  0  0  0  0  0  0
   19.5933   -6.1221  -13.8061 C   0  0  0  0  0  0  0  0  0  0  0  0
   19.1096   -7.1615  -14.5789 O   0  0  0  0  0  0  0  0  0  0  0  0
   23.0637   -6.0493  -14.3412 O   0  0  0  0  0  0  0  0  0  0  0  0
   19.5094   -4.9665  -14.3147 O   0  0  0  0  0  0  0  0  0  0  0  0
  2  1  1  0
  3  2  1  0
  3  4  2  0
  5  3  1  0
  6  5  1  0
  6  7  1  6
  8  7  1  0
  9  6  1  0
 10  9  2  0
 11  9  1  0
 12 11  1  0
 12 13  1  6
 14 13  1  0
 14 15  2  0
 16 12  1  0
 17 16  1  0
 18 14  1  0
 19 16  2  0
M  END
$$$$
