GCD.pdb
     RDKit          3D

 19 18  0  0  1  0  0  0  0  0999 V2000
   14.2983  -13.3840  -10.8544 N   0  0  0  0  0  0  0  0  0  0  0  0
   15.6247  -12.8667  -10.6513 C   0  0  0  0  0  0  0  0  0  0  0  0
   15.6720  -11.4579  -11.0614 C   0  0  0  0  0  0  0  0  0  0  0  0
   15.4603  -11.1493  -12.2515 O   0  0  0  0  0  0  0  0  0  0  0  0
   15.9531  -10.3850  -10.1597 N   0  0  0  0  0  0  0  0  0  0  0  0
   16.0265   -9.0153  -10.5842 C   0  0  1  0  0  0  0  0  0  0  0  0
   15.6495   -8.0553   -9.4685 C   0  0  0  0  0  0  0  0  0  0  0  0
   14.0111   -8.4272   -8.8051 S   0  0  0  0  0  0  0  0  0  0  0  0
   17.3856   -8.6649  -11.0907 C   0  0  0  0  0  0  0  0  0  0  0  0
   18.3547   -8.6633  -10.2886 O   0  0  0  0  0  0  0  0  0  0  0  0
   17.5673   -8.3408  -12.4573 N   0  0  0  0  0  0  0  0  0  0  0  0
   18.9147   -8.0061  -12.9104 C   0  0  1  0  0  0  0  0  0  0  0  0
   19.4099   -9.0219  -13.9114 C   0  0  0  0  0  0  0  0  0  0  0  0
   20.7790   -8.6544  -14.3212 C   0  0  0  0  0  0  0  0  0  0  0  0
   21.4871   -7.7832  -13.7907 O   0  0  0  0  0  0  0  0  0  0  0  0
   18.9125   -6.6239  -13.3953 C   0  0  0  0  0  0  0  0  0  0  0  0
   17.8550   -6.0835  -14.1032 O   0  0  0  0  0  0  0  0  0  0  0  0
   21.3412   -9.3437  -15.4053 O   0  0  0  0  0  0  0  0  0  0  0  0
   19.8928   -5.8517  -13.1860 O   0  0  0  0  0  0  0  0  0  0  0  0
  2  1  1  0
  3  2  1  0
  3  4  2  0
  5  3  1  0
  6  5  1  0
  6  7  1  1
  8  7  1  0
  9  6  1  0
 10  9  2  0
 11  9  1  0
 12 11  1  0
 12 13  1  6
 14 13  1  0
 14 15  2  0
 16 12  1  0
 17 16  1  0
 18 14  1  0
 19 16  2  0
M  END
$$$$
