GCD.pdb
     RDKit          3D

 19 18  0  0  1  0  0  0  0  0999 V2000
   24.1623  -15.1908  -19.1926 N   0  0  0  0  0  0  0  0  0  0  0  0
   24.1812  -13.7935  -19.5326 C   0  0  0  0  0  0  0  0  0  0  0  0
   24.2919  -12.9903  -18.3089 C   0  0  0  0  0  0  0  0  0  0  0  0
   23.6043  -13.2817  -17.3095 O   0  0  0  0  0  0  0  0  0  0  0  0
   25.1616  -11.8629  -18.1837 N   0  0  0  0  0  0  0  0  0  0  0  0
   25.1929  -11.0348  -17.0111 C   0  0  1  0  0  0  0  0  0  0  0  0
   26.5951  -10.5347  -16.7079 C   0  0  0  0  0  0  0  0  0  0  0  0
   26.6502   -9.6383  -15.1406 S   0  0  0  0  0  0  0  0  0  0  0  0
   24.2739   -9.8657  -17.1345 C   0  0  0  0  0  0  0  0  0  0  0  0
   24.2446   -9.2235  -18.2157 O   0  0  0  0  0  0  0  0  0  0  0  0
   23.4523   -9.4958  -16.0419 N   0  0  0  0  0  0  0  0  0  0  0  0
   22.4635   -8.4419  -16.2523 C   0  0  1  0  0  0  0  0  0  0  0  0
   21.2351   -8.6854  -15.4093 C   0  0  0  0  0  0  0  0  0  0  0  0
   20.2448   -7.6306  -15.6996 C   0  0  0  0  0  0  0  0  0  0  0  0
   19.9934   -7.1586  -16.8202 O   0  0  0  0  0  0  0  0  0  0  0  0
   23.1094   -7.1465  -16.0279 C   0  0  0  0  0  0  0  0  0  0  0  0
   24.4098   -7.0302  -15.5732 O   0  0  0  0  0  0  0  0  0  0  0  0
   19.5165   -7.1068  -14.6217 O   0  0  0  0  0  0  0  0  0  0  0  0
   22.4970   -6.0601  -16.2424 O   0  0  0  0  0  0  0  0  0  0  0  0
  2  1  1  0
  3  2  1  0
  3  4  2  0
  5  3  1  0
  6  5  1  0
  6  7  1  6
  8  7  1  0
  9  6  1  0
 10  9  2  0
 11  9  1  0
 12 11  1  0
 12 13  1  1
 14 13  1  0
 14 15  2  0
 16 12  1  0
 17 16  1  0
 18 14  1  0
 19 16  2  0
M  END
$$$$
