GCD.pdb
     RDKit          3D

 19 18  0  0  1  0  0  0  0  0999 V2000
   24.3068  -14.2510  -19.2893 N   0  0  0  0  0  0  0  0  0  0  0  0
   23.1296  -13.9942  -18.5041 C   0  0  0  0  0  0  0  0  0  0  0  0
   23.4105  -12.9349  -17.5274 C   0  0  0  0  0  0  0  0  0  0  0  0
   22.7674  -12.8873  -16.4595 O   0  0  0  0  0  0  0  0  0  0  0  0
   24.4019  -11.9246  -17.7260 N   0  0  0  0  0  0  0  0  0  0  0  0
   24.6065  -10.8471  -16.7992 C   0  0  1  0  0  0  0  0  0  0  0  0
   26.0259  -10.3087  -16.8605 C   0  0  0  0  0  0  0  0  0  0  0  0
   26.4913   -9.5003  -15.3136 S   0  0  0  0  0  0  0  0  0  0  0  0
   23.6493   -9.7266  -17.0331 C   0  0  0  0  0  0  0  0  0  0  0  0
   23.4819   -9.3009  -18.2049 O   0  0  0  0  0  0  0  0  0  0  0  0
   22.9462   -9.1600  -15.9421 N   0  0  0  0  0  0  0  0  0  0  0  0
   21.9813   -8.1004  -16.2228 C   0  0  1  0  0  0  0  0  0  0  0  0
   20.5748   -8.5683  -15.9366 C   0  0  0  0  0  0  0  0  0  0  0  0
   19.6401   -7.4636  -16.2254 C   0  0  0  0  0  0  0  0  0  0  0  0
   18.9185   -6.8867  -15.3958 O   0  0  0  0  0  0  0  0  0  0  0  0
   22.3844   -6.8979  -15.4898 C   0  0  0  0  0  0  0  0  0  0  0  0
   21.6523   -5.7255  -15.5199 O   0  0  0  0  0  0  0  0  0  0  0  0
   19.5501   -7.0169  -17.5516 O   0  0  0  0  0  0  0  0  0  0  0  0
   23.4363   -6.8778  -14.7867 O   0  0  0  0  0  0  0  0  0  0  0  0
  2  1  1  0
  3  2  1  0
  3  4  2  0
  5  3  1  0
  6  5  1  0
  6  7  1  6
  8  7  1  0
  9  6  1  0
 10  9  2  0
 11  9  1  0
 12 11  1  0
 12 13  1  1
 14 13  1  0
 14 15  2  0
 16 12  1  0
 17 16  1  0
 18 14  1  0
 19 16  2  0
M  END
$$$$
