GCD.pdb
     RDKit          3D

 19 18  0  0  1  0  0  0  0  0999 V2000
   27.1192  -15.0923  -16.6266 N   0  0  0  0  0  0  0  0  0  0  0  0
   26.5059  -14.6424  -15.4061 C   0  0  0  0  0  0  0  0  0  0  0  0
   25.2136  -14.0143  -15.7068 C   0  0  0  0  0  0  0  0  0  0  0  0
   24.7359  -14.0942  -16.8565 O   0  0  0  0  0  0  0  0  0  0  0  0
   24.4441  -13.2959  -14.7398 N   0  0  0  0  0  0  0  0  0  0  0  0
   23.1185  -12.8135  -15.0078 C   0  0  1  0  0  0  0  0  0  0  0  0
   22.0884  -13.4465  -14.0878 C   0  0  0  0  0  0  0  0  0  0  0  0
   21.6446  -15.1081  -14.6400 S   0  0  0  0  0  0  0  0  0  0  0  0
   23.0346  -11.3287  -14.8858 C   0  0  0  0  0  0  0  0  0  0  0  0
   23.6782  -10.7539  -13.9705 O   0  0  0  0  0  0  0  0  0  0  0  0
   22.2380  -10.5901  -15.7943 N   0  0  0  0  0  0  0  0  0  0  0  0
   22.1963   -9.1377  -15.6474 C   0  0  1  0  0  0  0  0  0  0  0  0
   21.8810   -8.4756  -16.9670 C   0  0  0  0  0  0  0  0  0  0  0  0
   21.8338   -7.0147  -16.7645 C   0  0  0  0  0  0  0  0  0  0  0  0
   22.4412   -6.3831  -15.8848 O   0  0  0  0  0  0  0  0  0  0  0  0
   21.2695   -8.8063  -14.5626 C   0  0  0  0  0  0  0  0  0  0  0  0
   21.3951   -7.6613  -13.7979 O   0  0  0  0  0  0  0  0  0  0  0  0
   21.0351   -6.2619  -17.6374 O   0  0  0  0  0  0  0  0  0  0  0  0
   20.2989   -9.5644  -14.2719 O   0  0  0  0  0  0  0  0  0  0  0  0
  2  1  1  0
  3  2  1  0
  3  4  2  0
  5  3  1  0
  6  5  1  0
  6  7  1  1
  8  7  1  0
  9  6  1  0
 10  9  2  0
 11  9  1  0
 12 11  1  0
 12 13  1  6
 14 13  1  0
 14 15  2  0
 16 12  1  0
 17 16  1  0
 18 14  1  0
 19 16  2  0
M  END
$$$$
