GCD.pdb
     RDKit          3D

 19 18  0  0  1  0  0  0  0  0999 V2000
   13.9598  -11.5601   -8.8186 N   0  0  0  0  0  0  0  0  0  0  0  0
   14.2759  -10.9370  -10.0756 C   0  0  0  0  0  0  0  0  0  0  0  0
   14.2033   -9.4776   -9.9338 C   0  0  0  0  0  0  0  0  0  0  0  0
   13.5483   -8.8050  -10.7552 O   0  0  0  0  0  0  0  0  0  0  0  0
   14.8533   -8.7558   -8.8852 N   0  0  0  0  0  0  0  0  0  0  0  0
   14.6593   -7.3483   -8.6778 C   0  0  1  0  0  0  0  0  0  0  0  0
   14.6082   -6.9950   -7.2010 C   0  0  0  0  0  0  0  0  0  0  0  0
   13.1850   -7.7567   -6.3903 S   0  0  0  0  0  0  0  0  0  0  0  0
   15.7264   -6.5394   -9.3362 C   0  0  0  0  0  0  0  0  0  0  0  0
   16.9271   -6.7372   -9.0172 O   0  0  0  0  0  0  0  0  0  0  0  0
   15.3780   -5.5666  -10.3046 N   0  0  0  0  0  0  0  0  0  0  0  0
   16.4571   -4.8304  -10.9575 C   0  0  1  0  0  0  0  0  0  0  0  0
   16.5516   -5.2030  -12.4174 C   0  0  0  0  0  0  0  0  0  0  0  0
   17.5385   -4.3201  -13.0686 C   0  0  0  0  0  0  0  0  0  0  0  0
   17.2772   -3.3095  -13.7410 O   0  0  0  0  0  0  0  0  0  0  0  0
   16.2640   -3.4005  -10.7048 C   0  0  0  0  0  0  0  0  0  0  0  0
   15.1168   -2.8942  -10.1228 O   0  0  0  0  0  0  0  0  0  0  0  0
   18.8957   -4.6410  -12.9219 O   0  0  0  0  0  0  0  0  0  0  0  0
   17.1510   -2.5523  -11.0134 O   0  0  0  0  0  0  0  0  0  0  0  0
  2  1  1  0
  3  2  1  0
  3  4  2  0
  5  3  1  0
  6  5  1  0
  6  7  1  1
  8  7  1  0
  9  6  1  0
 10  9  2  0
 11  9  1  0
 12 11  1  0
 12 13  1  6
 14 13  1  0
 14 15  2  0
 16 12  1  0
 17 16  1  0
 18 14  1  0
 19 16  2  0
M  END
$$$$
