NAP.pdb
     RDKit          3D

 21 21  0  0  1  0  0  0  0  0999 V2000
   27.2707  -22.9430  -14.5076 N   0  0  0  0  0  0  0  0  0  0  0  0
   26.8772  -21.5951  -14.4736 C   0  0  0  0  0  0  0  0  0  0  0  0
   26.4146  -21.0307  -15.4909 O   0  0  0  0  0  0  0  0  0  0  0  0
   26.9862  -20.7616  -13.2316 C   0  0  0  0  0  0  0  0  0  0  0  0
   26.4217  -21.5200  -12.0800 C   0  0  2  0  0  0  0  0  0  0  0  0
   24.9827  -21.7142  -12.3108 N   0  0  0  0  0  0  0  0  0  0  0  0
   26.5738  -20.7991  -10.8084 C   0  0  0  0  0  0  0  0  0  0  0  0
   27.6930  -20.3337  -10.4533 O   0  0  0  0  0  0  0  0  0  0  0  0
   24.3237  -19.7545   -7.9590 C   0  0  0  0  0  0  0  0  0  0  0  0
   25.7002  -19.9204   -8.6248 C   0  0  2  0  0  0  0  0  0  0  0  0
   25.4935  -20.5636   -9.8827 N   0  0  0  0  0  0  0  0  0  0  0  0
   26.6744  -20.4834   -7.7084 C   0  0  0  0  0  0  0  0  0  0  0  0
   26.8686  -21.7767   -7.7791 O   0  0  0  0  0  0  0  0  0  0  0  0
   27.4708  -19.8664   -6.7252 N   0  0  0  0  0  0  0  0  0  0  0  0
   27.5430  -18.4968   -6.3533 C   0  0  0  0  0  0  0  0  0  0  0  0
   29.0617  -18.2898   -6.2647 C   0  0  0  0  0  0  0  0  0  0  0  0
   29.6058  -19.6122   -5.8298 C   0  0  0  0  0  0  0  0  0  0  0  0
   28.4425  -20.5329   -5.8332 C   0  0  1  0  0  0  0  0  0  0  0  0
   27.8992  -20.7003   -4.4766 C   0  0  0  0  0  0  0  0  0  0  0  0
   28.6015  -21.4047   -3.5077 O   0  0  0  0  0  0  0  0  0  0  0  0
   26.7902  -20.2180   -4.1435 O   0  0  0  0  0  0  0  0  0  0  0  0
  2  3  2  0
  2  1  1  0
  4  2  1  0
  5  4  1  0
  5  6  1  6
  5  7  1  0
  7  8  2  0
 10  9  1  1
 10 12  1  0
 11  7  1  0
 11 10  1  0
 12 14  1  0
 13 12  2  0
 14 15  1  0
 14 18  1  0
 15 16  1  0
 16 17  1  0
 18 17  1  0
 19 20  1  0
 18 19  1  1
 21 19  2  0
M  END
$$$$
