NAP.pdb
     RDKit          3D

 21 21  0  0  1  0  0  0  0  0999 V2000
   19.7090   -9.8604  -13.5887 N   0  0  0  0  0  0  0  0  0  0  0  0
   19.4960   -8.4865  -13.7879 C   0  0  0  0  0  0  0  0  0  0  0  0
   20.3156   -7.7916  -14.4306 O   0  0  0  0  0  0  0  0  0  0  0  0
   18.2887   -7.7783  -13.2493 C   0  0  0  0  0  0  0  0  0  0  0  0
   17.5323   -8.7041  -12.3600 C   0  0  2  0  0  0  0  0  0  0  0  0
   16.8976   -9.7355  -13.1936 N   0  0  0  0  0  0  0  0  0  0  0  0
   16.4672   -8.0174  -11.6159 C   0  0  0  0  0  0  0  0  0  0  0  0
   15.4297   -7.5978  -12.2015 O   0  0  0  0  0  0  0  0  0  0  0  0
   15.7102   -7.2204   -8.0084 C   0  0  0  0  0  0  0  0  0  0  0  0
   15.4689   -7.0628   -9.5192 C   0  0  2  0  0  0  0  0  0  0  0  0
   16.5082   -7.7708  -10.1957 N   0  0  0  0  0  0  0  0  0  0  0  0
   15.2214   -5.6794   -9.8810 C   0  0  0  0  0  0  0  0  0  0  0  0
   16.1623   -5.0725  -10.5604 O   0  0  0  0  0  0  0  0  0  0  0  0
   14.1154   -4.8484   -9.6211 N   0  0  0  0  0  0  0  0  0  0  0  0
   12.9151   -5.1396   -8.9183 C   0  0  0  0  0  0  0  0  0  0  0  0
   11.8630   -4.5323   -9.8572 C   0  0  0  0  0  0  0  0  0  0  0  0
   12.5462   -3.3682  -10.4993 C   0  0  0  0  0  0  0  0  0  0  0  0
   13.9547   -3.4400  -10.0390 C   0  0  1  0  0  0  0  0  0  0  0  0
   14.1903   -2.5170   -8.9182 C   0  0  0  0  0  0  0  0  0  0  0  0
   14.3361   -1.1531   -9.1345 O   0  0  0  0  0  0  0  0  0  0  0  0
   14.2682   -2.9209   -7.7332 O   0  0  0  0  0  0  0  0  0  0  0  0
  2  3  2  0
  2  1  1  0
  4  2  1  0
  5  4  1  0
  5  6  1  6
  5  7  1  0
  7  8  2  0
 10  9  1  1
 10 12  1  0
 11  7  1  0
 11 10  1  0
 12 14  1  0
 13 12  2  0
 14 15  1  0
 14 18  1  0
 15 16  1  0
 16 17  1  0
 18 17  1  0
 19 20  1  0
 18 19  1  1
 21 19  2  0
M  END
$$$$
