NAP.pdb
     RDKit          3D

 21 21  0  0  1  0  0  0  0  0999 V2000
   16.6815  -14.0643  -15.6002 N   0  0  0  0  0  0  0  0  0  0  0  0
   17.4265  -13.5087  -14.5471 C   0  0  0  0  0  0  0  0  0  0  0  0
   17.2052  -13.8315  -13.3578 O   0  0  0  0  0  0  0  0  0  0  0  0
   18.5185  -12.5078  -14.7814 C   0  0  0  0  0  0  0  0  0  0  0  0
   18.5904  -12.1908  -16.2356 C   0  0  2  0  0  0  0  0  0  0  0  0
   19.1848  -13.3401  -16.9338 N   0  0  0  0  0  0  0  0  0  0  0  0
   19.4344  -11.0196  -16.5105 C   0  0  0  0  0  0  0  0  0  0  0  0
   20.6831  -11.0584  -16.3245 O   0  0  0  0  0  0  0  0  0  0  0  0
   18.9520   -7.5645  -17.9492 C   0  0  0  0  0  0  0  0  0  0  0  0
   19.7819   -8.6378  -17.2247 C   0  0  2  0  0  0  0  0  0  0  0  0
   18.9297   -9.7620  -17.0034 N   0  0  0  0  0  0  0  0  0  0  0  0
   20.5076   -8.0835  -16.0969 C   0  0  0  0  0  0  0  0  0  0  0  0
   20.1139   -8.4561  -14.9046 O   0  0  0  0  0  0  0  0  0  0  0  0
   21.5920   -7.1870  -16.0565 N   0  0  0  0  0  0  0  0  0  0  0  0
   22.2575   -6.5292  -17.1261 C   0  0  0  0  0  0  0  0  0  0  0  0
   23.7281   -6.7370  -16.7373 C   0  0  0  0  0  0  0  0  0  0  0  0
   23.7320   -6.7588  -15.2427 C   0  0  0  0  0  0  0  0  0  0  0  0
   22.3024   -6.7179  -14.8484 C   0  0  1  0  0  0  0  0  0  0  0  0
   21.8957   -5.3526  -14.4824 C   0  0  0  0  0  0  0  0  0  0  0  0
   22.1927   -4.8300  -13.2307 O   0  0  0  0  0  0  0  0  0  0  0  0
   21.2701   -4.6123  -15.2787 O   0  0  0  0  0  0  0  0  0  0  0  0
  2  3  2  0
  2  1  1  0
  4  2  1  0
  5  4  1  0
  5  6  1  6
  5  7  1  0
  7  8  2  0
 10  9  1  1
 10 12  1  0
 11  7  1  0
 11 10  1  0
 12 14  1  0
 13 12  2  0
 14 15  1  0
 14 18  1  0
 15 16  1  0
 16 17  1  0
 18 17  1  0
 19 20  1  0
 18 19  1  6
 21 19  2  0
M  END
$$$$
