NAP.pdb
     RDKit          3D

 21 21  0  0  1  0  0  0  0  0999 V2000
   12.1904   -8.9864  -14.0606 N   0  0  0  0  0  0  0  0  0  0  0  0
   13.2674   -8.5766  -14.8637 C   0  0  0  0  0  0  0  0  0  0  0  0
   13.0755   -7.9734  -15.9440 O   0  0  0  0  0  0  0  0  0  0  0  0
   14.6941   -8.8338  -14.4800 C   0  0  0  0  0  0  0  0  0  0  0  0
   15.4095   -9.4496  -15.6329 C   0  0  2  0  0  0  0  0  0  0  0  0
   15.0588  -10.8762  -15.6902 N   0  0  0  0  0  0  0  0  0  0  0  0
   16.8699   -9.3566  -15.4979 C   0  0  0  0  0  0  0  0  0  0  0  0
   17.4537   -9.7528  -14.4503 O   0  0  0  0  0  0  0  0  0  0  0  0
   19.7713   -8.3830  -17.7014 C   0  0  0  0  0  0  0  0  0  0  0  0
   19.1543   -8.7424  -16.3392 C   0  0  2  0  0  0  0  0  0  0  0  0
   17.7399   -8.8240  -16.5171 N   0  0  0  0  0  0  0  0  0  0  0  0
   19.6735   -7.9009  -15.2769 C   0  0  0  0  0  0  0  0  0  0  0  0
   18.8610   -6.9930  -14.7965 O   0  0  0  0  0  0  0  0  0  0  0  0
   20.9355   -7.8864  -14.6537 N   0  0  0  0  0  0  0  0  0  0  0  0
   22.0818   -8.6826  -14.9215 C   0  0  0  0  0  0  0  0  0  0  0  0
   22.5134   -9.0742  -13.5011 C   0  0  0  0  0  0  0  0  0  0  0  0
   22.1125   -7.9171  -12.6441 C   0  0  0  0  0  0  0  0  0  0  0  0
   21.3592   -7.0085  -13.5429 C   0  0  1  0  0  0  0  0  0  0  0  0
   22.2149   -5.9120  -14.0213 C   0  0  0  0  0  0  0  0  0  0  0  0
   22.6851   -5.8907  -15.3277 O   0  0  0  0  0  0  0  0  0  0  0  0
   22.5512   -4.9611  -13.2756 O   0  0  0  0  0  0  0  0  0  0  0  0
  2  3  2  0
  2  1  1  0
  4  2  1  0
  5  4  1  0
  5  6  1  1
  5  7  1  0
  7  8  2  0
 10  9  1  6
 10 12  1  0
 11  7  1  0
 11 10  1  0
 12 14  1  0
 13 12  2  0
 14 15  1  0
 14 18  1  0
 15 16  1  0
 16 17  1  0
 18 17  1  0
 19 20  1  0
 18 19  1  6
 21 19  2  0
M  END
$$$$
