NAP.pdb
     RDKit          3D

 21 21  0  0  1  0  0  0  0  0999 V2000
   30.5412  -23.1431  -18.5305 N   0  0  0  0  0  0  0  0  0  0  0  0
   29.2020  -23.0390  -18.1203 C   0  0  0  0  0  0  0  0  0  0  0  0
   28.2796  -23.5644  -18.7842 O   0  0  0  0  0  0  0  0  0  0  0  0
   28.8015  -22.3012  -16.8775 C   0  0  0  0  0  0  0  0  0  0  0  0
   27.8029  -21.2527  -17.2290 C   0  0  2  0  0  0  0  0  0  0  0  0
   28.4957  -20.1711  -17.9442 N   0  0  0  0  0  0  0  0  0  0  0  0
   27.1695  -20.6644  -16.0406 C   0  0  0  0  0  0  0  0  0  0  0  0
   27.8533  -20.3496  -15.0264 O   0  0  0  0  0  0  0  0  0  0  0  0
   24.0428  -18.9069  -15.1822 C   0  0  0  0  0  0  0  0  0  0  0  0
   25.1793  -19.8471  -14.7464 C   0  0  2  0  0  0  0  0  0  0  0  0
   25.7563  -20.3999  -15.9298 N   0  0  0  0  0  0  0  0  0  0  0  0
   24.7534  -20.7507  -13.6938 C   0  0  0  0  0  0  0  0  0  0  0  0
   24.4573  -21.9746  -14.0542 O   0  0  0  0  0  0  0  0  0  0  0  0
   24.5956  -20.5372  -12.3114 N   0  0  0  0  0  0  0  0  0  0  0  0
   24.7948  -19.3511  -11.5544 C   0  0  0  0  0  0  0  0  0  0  0  0
   25.5801  -19.8918  -10.3510 C   0  0  0  0  0  0  0  0  0  0  0  0
   25.0796  -21.2872  -10.1601 C   0  0  0  0  0  0  0  0  0  0  0  0
   24.1741  -21.5374  -11.3083 C   0  0  1  0  0  0  0  0  0  0  0  0
   22.7677  -21.3495  -10.9208 C   0  0  0  0  0  0  0  0  0  0  0  0
   22.0943  -22.3155  -10.1849 O   0  0  0  0  0  0  0  0  0  0  0  0
   22.1261  -20.3189  -11.2364 O   0  0  0  0  0  0  0  0  0  0  0  0
  2  3  2  0
  2  1  1  0
  4  2  1  0
  5  4  1  0
  5  6  1  1
  5  7  1  0
  7  8  2  0
 10  9  1  6
 10 12  1  0
 11  7  1  0
 11 10  1  0
 12 14  1  0
 13 12  2  0
 14 15  1  0
 14 18  1  0
 15 16  1  0
 16 17  1  0
 18 17  1  0
 19 20  1  0
 18 19  1  1
 21 19  2  0
M  END
$$$$
