NAP.pdb
     RDKit          3D

 21 21  0  0  1  0  0  0  0  0999 V2000
   24.5902  -16.5654  -20.2916 N   0  0  0  0  0  0  0  0  0  0  0  0
   23.7675  -17.5913  -19.7981 C   0  0  0  0  0  0  0  0  0  0  0  0
   22.5380  -17.6041  -20.0339 O   0  0  0  0  0  0  0  0  0  0  0  0
   24.3063  -18.7190  -18.9691 C   0  0  0  0  0  0  0  0  0  0  0  0
   25.7780  -18.5510  -18.8085 C   0  0  2  0  0  0  0  0  0  0  0  0
   26.4555  -19.4881  -19.7165 N   0  0  0  0  0  0  0  0  0  0  0  0
   26.2285  -18.8527  -17.4426 C   0  0  0  0  0  0  0  0  0  0  0  0
   26.6001  -20.0163  -17.1212 O   0  0  0  0  0  0  0  0  0  0  0  0
   26.7393  -16.9452  -14.2250 C   0  0  0  0  0  0  0  0  0  0  0  0
   26.5762  -18.2446  -15.0315 C   0  0  2  0  0  0  0  0  0  0  0  0
   26.2871  -17.8784  -16.3810 N   0  0  0  0  0  0  0  0  0  0  0  0
   25.6950  -19.1836  -14.3624 C   0  0  0  0  0  0  0  0  0  0  0  0
   24.5216  -19.3805  -14.9100 O   0  0  0  0  0  0  0  0  0  0  0  0
   25.8835  -19.9422  -13.1918 N   0  0  0  0  0  0  0  0  0  0  0  0
   26.9692  -19.9294  -12.2750 C   0  0  0  0  0  0  0  0  0  0  0  0
   27.2068  -21.4324  -12.0706 C   0  0  0  0  0  0  0  0  0  0  0  0
   25.8584  -22.0594  -12.2213 C   0  0  0  0  0  0  0  0  0  0  0  0
   24.9599  -20.9560  -12.6411 C   0  0  1  0  0  0  0  0  0  0  0  0
   24.2036  -20.4277  -11.4955 C   0  0  0  0  0  0  0  0  0  0  0  0
   23.0486  -21.0570  -11.0505 O   0  0  0  0  0  0  0  0  0  0  0  0
   24.5682  -19.3972  -10.8802 O   0  0  0  0  0  0  0  0  0  0  0  0
  2  3  2  0
  2  1  1  0
  4  2  1  0
  5  4  1  0
  5  6  1  6
  5  7  1  0
  7  8  2  0
 10  9  1  1
 10 12  1  0
 11  7  1  0
 11 10  1  0
 12 14  1  0
 13 12  2  0
 14 15  1  0
 14 18  1  0
 15 16  1  0
 16 17  1  0
 18 17  1  0
 19 20  1  0
 18 19  1  1
 21 19  2  0
M  END
$$$$
