NAP.pdb
     RDKit          3D

 21 21  0  0  1  0  0  0  0  0999 V2000
   20.5462  -19.3257  -18.3797 N   0  0  0  0  0  0  0  0  0  0  0  0
   20.4849  -20.1125  -17.2178 C   0  0  0  0  0  0  0  0  0  0  0  0
   19.3856  -20.4554  -16.7263 O   0  0  0  0  0  0  0  0  0  0  0  0
   21.7177  -20.5831  -16.5051 C   0  0  0  0  0  0  0  0  0  0  0  0
   22.9218  -20.0509  -17.2029 C   0  0  2  0  0  0  0  0  0  0  0  0
   23.1651  -20.8683  -18.4005 N   0  0  0  0  0  0  0  0  0  0  0  0
   24.1279  -20.1198  -16.3661 C   0  0  0  0  0  0  0  0  0  0  0  0
   24.6294  -21.2311  -16.0363 O   0  0  0  0  0  0  0  0  0  0  0  0
   26.2528  -17.6276  -14.4832 C   0  0  0  0  0  0  0  0  0  0  0  0
   25.8077  -19.0580  -14.8317 C   0  0  2  0  0  0  0  0  0  0  0  0
   24.8262  -18.9622  -15.8643 N   0  0  0  0  0  0  0  0  0  0  0  0
   25.4915  -19.8259  -13.6416 C   0  0  0  0  0  0  0  0  0  0  0  0
   24.2301  -20.1237  -13.4527 O   0  0  0  0  0  0  0  0  0  0  0  0
   26.3262  -20.3208  -12.6220 N   0  0  0  0  0  0  0  0  0  0  0  0
   27.7093  -20.0850  -12.3960 C   0  0  0  0  0  0  0  0  0  0  0  0
   28.2111  -21.5054  -12.0995 C   0  0  0  0  0  0  0  0  0  0  0  0
   27.0568  -22.1925  -11.4439 C   0  0  0  0  0  0  0  0  0  0  0  0
   25.9322  -21.2283  -11.5241 C   0  0  1  0  0  0  0  0  0  0  0  0
   25.7715  -20.4996  -10.2565 C   0  0  0  0  0  0  0  0  0  0  0  0
   25.0942  -21.0688   -9.1863 O   0  0  0  0  0  0  0  0  0  0  0  0
   26.2355  -19.3458  -10.0929 O   0  0  0  0  0  0  0  0  0  0  0  0
  2  3  2  0
  2  1  1  0
  4  2  1  0
  5  4  1  0
  5  6  1  6
  5  7  1  0
  7  8  2  0
 10  9  1  1
 10 12  1  0
 11  7  1  0
 11 10  1  0
 12 14  1  0
 13 12  2  0
 14 15  1  0
 14 18  1  0
 15 16  1  0
 16 17  1  0
 18 17  1  0
 19 20  1  0
 18 19  1  1
 21 19  2  0
M  END
$$$$
