NAP.pdb
     RDKit          3D

 21 21  0  0  1  0  0  0  0  0999 V2000
   14.1007   -9.6300  -19.1650 N   0  0  0  0  0  0  0  0  0  0  0  0
   14.4945  -10.2378  -17.9615 C   0  0  0  0  0  0  0  0  0  0  0  0
   13.8782  -11.2273  -17.5048 O   0  0  0  0  0  0  0  0  0  0  0  0
   15.6628   -9.7437  -17.1613 C   0  0  0  0  0  0  0  0  0  0  0  0
   16.8641  -10.5617  -17.4898 C   0  0  2  0  0  0  0  0  0  0  0  0
   16.7140  -11.8826  -16.8619 N   0  0  0  0  0  0  0  0  0  0  0  0
   18.1041   -9.9640  -16.9751 C   0  0  0  0  0  0  0  0  0  0  0  0
   18.2986   -9.8348  -15.7337 O   0  0  0  0  0  0  0  0  0  0  0  0
   21.3529   -8.6987  -18.4166 C   0  0  0  0  0  0  0  0  0  0  0  0
   20.3350   -8.8516  -17.2738 C   0  0  2  0  0  0  0  0  0  0  0  0
   19.1767   -9.4887  -17.8135 N   0  0  0  0  0  0  0  0  0  0  0  0
   20.1667   -7.6130  -16.5366 C   0  0  0  0  0  0  0  0  0  0  0  0
   19.0312   -6.9812  -16.7010 O   0  0  0  0  0  0  0  0  0  0  0  0
   21.0356   -6.9490  -15.6504 N   0  0  0  0  0  0  0  0  0  0  0  0
   22.3353   -7.3226  -15.2138 C   0  0  0  0  0  0  0  0  0  0  0  0
   22.2326   -7.0573  -13.7050 C   0  0  0  0  0  0  0  0  0  0  0  0
   21.2809   -5.9116  -13.5795 C   0  0  0  0  0  0  0  0  0  0  0  0
   20.7756   -5.6719  -14.9535 C   0  0  1  0  0  0  0  0  0  0  0  0
   21.4920   -4.5567  -15.5912 C   0  0  0  0  0  0  0  0  0  0  0  0
   22.4671   -4.7901  -16.5518 O   0  0  0  0  0  0  0  0  0  0  0  0
   21.2531   -3.3612  -15.2957 O   0  0  0  0  0  0  0  0  0  0  0  0
  2  3  2  0
  2  1  1  0
  4  2  1  0
  5  4  1  0
  5  6  1  1
  5  7  1  0
  7  8  2  0
 10  9  1  6
 10 12  1  0
 11  7  1  0
 11 10  1  0
 12 14  1  0
 13 12  2  0
 14 15  1  0
 14 18  1  0
 15 16  1  0
 16 17  1  0
 18 17  1  0
 19 20  1  0
 18 19  1  6
 21 19  2  0
M  END
$$$$
