NAP.pdb
     RDKit          3D

 21 21  0  0  1  0  0  0  0  0999 V2000
   22.5495  -21.9928  -11.8248 N   0  0  0  0  0  0  0  0  0  0  0  0
   22.9521  -21.0471  -10.8675 C   0  0  0  0  0  0  0  0  0  0  0  0
   22.2628  -20.0280  -10.6356 O   0  0  0  0  0  0  0  0  0  0  0  0
   24.2164  -21.1997  -10.0755 C   0  0  0  0  0  0  0  0  0  0  0  0
   25.2215  -20.2120  -10.5596 C   0  0  2  0  0  0  0  0  0  0  0  0
   25.7592  -20.6859  -11.8432 N   0  0  0  0  0  0  0  0  0  0  0  0
   26.3517  -20.0654   -9.6319 C   0  0  0  0  0  0  0  0  0  0  0  0
   27.2119  -20.9813   -9.5032 O   0  0  0  0  0  0  0  0  0  0  0  0
   27.7898  -17.3377   -7.4684 C   0  0  0  0  0  0  0  0  0  0  0  0
   27.6782  -18.8062   -7.9118 C   0  0  2  0  0  0  0  0  0  0  0  0
   26.5747  -18.8994   -8.8132 N   0  0  0  0  0  0  0  0  0  0  0  0
   27.7292  -19.7131   -6.7800 C   0  0  0  0  0  0  0  0  0  0  0  0
   26.6320  -20.3742   -6.5070 O   0  0  0  0  0  0  0  0  0  0  0  0
   28.7814  -20.0158   -5.8953 N   0  0  0  0  0  0  0  0  0  0  0  0
   30.1221  -19.5444   -5.8950 C   0  0  0  0  0  0  0  0  0  0  0  0
   30.8979  -20.8471   -5.6536 C   0  0  0  0  0  0  0  0  0  0  0  0
   29.9911  -21.6848   -4.8109 C   0  0  0  0  0  0  0  0  0  0  0  0
   28.7196  -20.9246   -4.7316 C   0  0  1  0  0  0  0  0  0  0  0  0
   28.6318  -20.1751   -3.4690 C   0  0  0  0  0  0  0  0  0  0  0  0
   28.3504  -20.8214   -2.2727 O   0  0  0  0  0  0  0  0  0  0  0  0
   28.8061  -18.9338   -3.4226 O   0  0  0  0  0  0  0  0  0  0  0  0
  2  3  2  0
  2  1  1  0
  4  2  1  0
  5  4  1  0
  5  6  1  6
  5  7  1  0
  7  8  2  0
 10  9  1  1
 10 12  1  0
 11  7  1  0
 11 10  1  0
 12 14  1  0
 13 12  2  0
 14 15  1  0
 14 18  1  0
 15 16  1  0
 16 17  1  0
 18 17  1  0
 19 20  1  0
 18 19  1  1
 21 19  2  0
M  END
$$$$
