NAP.pdb
     RDKit          3D

 21 21  0  0  1  0  0  0  0  0999 V2000
   20.6680  -21.3269  -18.3228 N   0  0  0  0  0  0  0  0  0  0  0  0
   21.8212  -21.0541  -19.0769 C   0  0  0  0  0  0  0  0  0  0  0  0
   21.7431  -20.7320  -20.2843 O   0  0  0  0  0  0  0  0  0  0  0  0
   23.1983  -21.1315  -18.4880 C   0  0  0  0  0  0  0  0  0  0  0  0
   23.7857  -19.7633  -18.4313 C   0  0  2  0  0  0  0  0  0  0  0  0
   24.4286  -19.4787  -19.7225 N   0  0  0  0  0  0  0  0  0  0  0  0
   24.8127  -19.6397  -17.3874 C   0  0  0  0  0  0  0  0  0  0  0  0
   25.7680  -20.4626  -17.3127 O   0  0  0  0  0  0  0  0  0  0  0  0
   25.5946  -17.2769  -14.5502 C   0  0  0  0  0  0  0  0  0  0  0  0
   25.7177  -18.6276  -15.2754 C   0  0  2  0  0  0  0  0  0  0  0  0
   24.8232  -18.6001  -16.3881 N   0  0  0  0  0  0  0  0  0  0  0  0
   25.6403  -19.7421  -14.3492 C   0  0  0  0  0  0  0  0  0  0  0  0
   24.6424  -20.5744  -14.5136 O   0  0  0  0  0  0  0  0  0  0  0  0
   26.4728  -20.0967  -13.2710 N   0  0  0  0  0  0  0  0  0  0  0  0
   27.6361  -19.4456  -12.7789 C   0  0  0  0  0  0  0  0  0  0  0  0
   28.5856  -20.6361  -12.5826 C   0  0  0  0  0  0  0  0  0  0  0  0
   27.6957  -21.7846  -12.2315 C   0  0  0  0  0  0  0  0  0  0  0  0
   26.3135  -21.2676  -12.3834 C   0  0  1  0  0  0  0  0  0  0  0  0
   25.7493  -20.8814  -11.0810 C   0  0  0  0  0  0  0  0  0  0  0  0
   25.2422  -21.8370  -10.2105 O   0  0  0  0  0  0  0  0  0  0  0  0
   25.7041  -19.6847  -10.7078 O   0  0  0  0  0  0  0  0  0  0  0  0
  2  3  2  0
  2  1  1  0
  4  2  1  0
  5  4  1  0
  5  6  1  6
  5  7  1  0
  7  8  2  0
 10  9  1  1
 10 12  1  0
 11  7  1  0
 11 10  1  0
 12 14  1  0
 13 12  2  0
 14 15  1  0
 14 18  1  0
 15 16  1  0
 16 17  1  0
 18 17  1  0
 19 20  1  0
 18 19  1  1
 21 19  2  0
M  END
$$$$
