NAP.pdb
     RDKit          3D

 21 21  0  0  1  0  0  0  0  0999 V2000
   13.8553  -11.2483  -17.1554 N   0  0  0  0  0  0  0  0  0  0  0  0
   14.2563  -11.1359  -15.8141 C   0  0  0  0  0  0  0  0  0  0  0  0
   13.5427  -11.5806  -14.8864 O   0  0  0  0  0  0  0  0  0  0  0  0
   15.5475  -10.4843  -15.4176 C   0  0  0  0  0  0  0  0  0  0  0  0
   16.6748  -11.1612  -16.1185 C   0  0  2  0  0  0  0  0  0  0  0  0
   16.8449  -12.5020  -15.5398 N   0  0  0  0  0  0  0  0  0  0  0  0
   17.9461  -10.4425  -15.9546 C   0  0  0  0  0  0  0  0  0  0  0  0
   18.4648  -10.2884  -14.8133 O   0  0  0  0  0  0  0  0  0  0  0  0
   20.5571   -8.9324  -18.2178 C   0  0  0  0  0  0  0  0  0  0  0  0
   19.9134   -9.1577  -16.8392 C   0  0  2  0  0  0  0  0  0  0  0  0
   18.6929   -9.8691  -17.0468 N   0  0  0  0  0  0  0  0  0  0  0  0
   19.8810   -7.9359  -16.0569 C   0  0  0  0  0  0  0  0  0  0  0  0
   18.7097   -7.3722  -15.8960 O   0  0  0  0  0  0  0  0  0  0  0  0
   20.9181   -7.2265  -15.4224 N   0  0  0  0  0  0  0  0  0  0  0  0
   22.3139   -7.4927  -15.4077 C   0  0  0  0  0  0  0  0  0  0  0  0
   22.6415   -7.2937  -13.9209 C   0  0  0  0  0  0  0  0  0  0  0  0
   21.6824   -6.2475  -13.4520 C   0  0  0  0  0  0  0  0  0  0  0  0
   20.7762   -6.0058  -14.6015 C   0  0  1  0  0  0  0  0  0  0  0  0
   21.1820   -4.8058  -15.3490 C   0  0  0  0  0  0  0  0  0  0  0  0
   21.7969   -4.9109  -16.5895 O   0  0  0  0  0  0  0  0  0  0  0  0
   20.9906   -3.6502  -14.9002 O   0  0  0  0  0  0  0  0  0  0  0  0
  2  3  2  0
  2  1  1  0
  4  2  1  0
  5  4  1  0
  5  6  1  1
  5  7  1  0
  7  8  2  0
 10  9  1  6
 10 12  1  0
 11  7  1  0
 11 10  1  0
 12 14  1  0
 13 12  2  0
 14 15  1  0
 14 18  1  0
 15 16  1  0
 16 17  1  0
 18 17  1  0
 19 20  1  0
 18 19  1  6
 21 19  2  0
M  END
$$$$
