NAP.pdb
     RDKit          3D

 21 21  0  0  1  0  0  0  0  0999 V2000
   28.1786  -11.4321  -16.7049 N   0  0  0  0  0  0  0  0  0  0  0  0
   27.0385  -11.2071  -15.9160 C   0  0  0  0  0  0  0  0  0  0  0  0
   26.8265  -11.8774  -14.8800 O   0  0  0  0  0  0  0  0  0  0  0  0
   26.0193  -10.1632  -16.2632 C   0  0  0  0  0  0  0  0  0  0  0  0
   24.6536  -10.7289  -16.0765 C   0  0  2  0  0  0  0  0  0  0  0  0
   24.4332  -11.7611  -17.1000 N   0  0  0  0  0  0  0  0  0  0  0  0
   23.6025   -9.7143  -16.2360 C   0  0  0  0  0  0  0  0  0  0  0  0
   23.6021   -8.9263  -17.2232 O   0  0  0  0  0  0  0  0  0  0  0  0
   20.3431   -8.8508  -14.5647 C   0  0  0  0  0  0  0  0  0  0  0  0
   21.5240   -8.5183  -15.4923 C   0  0  2  0  0  0  0  0  0  0  0  0
   22.5109   -9.5342  -15.3111 N   0  0  0  0  0  0  0  0  0  0  0  0
   21.9263   -7.1293  -15.3709 C   0  0  0  0  0  0  0  0  0  0  0  0
   23.0776   -6.8997  -14.7903 O   0  0  0  0  0  0  0  0  0  0  0  0
   21.2769   -5.9485  -15.7777 N   0  0  0  0  0  0  0  0  0  0  0  0
   20.0229   -5.7878  -16.4266 C   0  0  0  0  0  0  0  0  0  0  0  0
   20.3764   -4.7611  -17.5121 C   0  0  0  0  0  0  0  0  0  0  0  0
   21.4569   -3.9215  -16.9106 C   0  0  0  0  0  0  0  0  0  0  0  0
   21.7766   -4.5674  -15.6138 C   0  0  1  0  0  0  0  0  0  0  0  0
   21.1013   -3.8803  -14.5024 C   0  0  0  0  0  0  0  0  0  0  0  0
   21.6993   -2.8054  -13.8581 O   0  0  0  0  0  0  0  0  0  0  0  0
   19.9687   -4.2343  -14.0956 O   0  0  0  0  0  0  0  0  0  0  0  0
  2  3  2  0
  2  1  1  0
  4  2  1  0
  5  4  1  0
  5  6  1  6
  5  7  1  0
  7  8  2  0
 10  9  1  1
 10 12  1  0
 11  7  1  0
 11 10  1  0
 12 14  1  0
 13 12  2  0
 14 15  1  0
 14 18  1  0
 15 16  1  0
 16 17  1  0
 18 17  1  0
 19 20  1  0
 18 19  1  1
 21 19  2  0
M  END
$$$$
