NAP.pdb
     RDKit          3D

 21 21  0  0  1  0  0  0  0  0999 V2000
   11.1454  -12.5040  -14.8791 N   0  0  0  0  0  0  0  0  0  0  0  0
   10.5024  -11.5744  -14.0453 C   0  0  0  0  0  0  0  0  0  0  0  0
    9.2988  -11.2755  -14.2174 O   0  0  0  0  0  0  0  0  0  0  0  0
   11.2106  -10.8925  -12.9127 C   0  0  0  0  0  0  0  0  0  0  0  0
   12.5194  -11.5642  -12.6764 C   0  0  2  0  0  0  0  0  0  0  0  0
   12.2721  -12.8316  -11.9735 N   0  0  0  0  0  0  0  0  0  0  0  0
   13.4166  -10.7586  -11.8364 C   0  0  0  0  0  0  0  0  0  0  0  0
   13.0589  -10.3674  -10.6899 O   0  0  0  0  0  0  0  0  0  0  0  0
   16.9770   -9.5259  -12.0153 C   0  0  0  0  0  0  0  0  0  0  0  0
   15.5678   -9.5401  -11.3992 C   0  0  2  0  0  0  0  0  0  0  0  0
   14.7440  -10.3570  -12.2315 N   0  0  0  0  0  0  0  0  0  0  0  0
   15.1130   -8.2017  -11.0708 C   0  0  0  0  0  0  0  0  0  0  0  0
   14.1914   -7.6876  -11.8464 O   0  0  0  0  0  0  0  0  0  0  0  0
   15.5006   -7.3308  -10.0351 N   0  0  0  0  0  0  0  0  0  0  0  0
   16.4262   -7.5437   -8.9780 C   0  0  0  0  0  0  0  0  0  0  0  0
   15.6455   -6.9867   -7.7790 C   0  0  0  0  0  0  0  0  0  0  0  0
   14.8039   -5.8883   -8.3443 C   0  0  0  0  0  0  0  0  0  0  0  0
   15.0103   -5.9546   -9.8119 C   0  0  1  0  0  0  0  0  0  0  0  0
   15.9964   -4.9554  -10.2509 C   0  0  0  0  0  0  0  0  0  0  0  0
   15.6667   -3.6083  -10.3188 O   0  0  0  0  0  0  0  0  0  0  0  0
   17.1638   -5.2769  -10.5784 O   0  0  0  0  0  0  0  0  0  0  0  0
  2  3  2  0
  2  1  1  0
  4  2  1  0
  5  4  1  0
  5  6  1  1
  5  7  1  0
  7  8  2  0
 10  9  1  6
 10 12  1  0
 11  7  1  0
 11 10  1  0
 12 14  1  0
 13 12  2  0
 14 15  1  0
 14 18  1  0
 15 16  1  0
 16 17  1  0
 18 17  1  0
 19 20  1  0
 18 19  1  1
 21 19  2  0
M  END
$$$$
