AVL.pdb
     RDKit          3D

 21 20  0  0  1  0  0  0  0  0999 V2000
   25.0960  -11.3476  -15.5564 C   0  0  0  0  0  0  0  0  0  0  0  0
   24.1603  -11.9263  -16.6268 C   0  0  2  0  0  0  0  0  0  0  0  0
   24.9515  -12.0684  -17.8184 N   0  0  0  0  0  0  0  0  0  0  0  0
   23.0165  -11.0114  -16.8615 C   0  0  0  0  0  0  0  0  0  0  0  0
   23.0736  -10.0848  -17.7105 O   0  0  0  0  0  0  0  0  0  0  0  0
   19.5345  -12.1091  -17.5769 C   0  0  0  0  0  0  0  0  0  0  0  0
   19.4414  -11.2611  -16.3247 C   0  0  2  0  0  0  0  0  0  0  0  0
   18.2355  -10.3510  -16.4378 C   0  0  0  0  0  0  0  0  0  0  0  0
   20.6613  -10.3770  -16.2557 C   0  0  2  0  0  0  0  0  0  0  0  0
   21.8292  -11.1889  -16.1075 N   0  0  0  0  0  0  0  0  0  0  0  0
   20.5907   -9.4363  -15.0941 C   0  0  0  0  0  0  0  0  0  0  0  0
   21.1705   -9.7057  -14.0098 O   0  0  0  0  0  0  0  0  0  0  0  0
   21.9558   -4.1660  -15.0549 C   0  0  0  0  0  0  0  0  0  0  0  0
   22.2869   -5.4442  -14.2991 C   0  0  1  0  0  0  0  0  0  0  0  0
   21.7011   -5.3118  -12.8824 C   0  0  0  0  0  0  0  0  0  0  0  0
   21.7436   -6.6598  -14.9800 C   0  0  0  0  0  0  0  0  0  0  0  0
   20.3616   -6.9613  -14.5571 C   0  0  2  0  0  0  0  0  0  0  0  0
   19.8752   -8.2119  -15.1617 N   0  0  0  0  0  0  0  0  0  0  0  0
   19.3738   -5.8878  -14.7398 C   0  0  0  0  0  0  0  0  0  0  0  0
   19.0395   -5.1289  -13.8288 O   0  0  0  0  0  0  0  0  0  0  0  0
   18.7949   -5.7237  -15.9839 O   0  0  0  0  0  0  0  0  0  0  0  0
  2  1  1  1
  3  2  1  0
  4  5  2  0
  4  2  1  0
  7  6  1  6
  7  9  1  0
  8  7  1  0
  9 11  1  0
  9 10  1  1
 10  4  1  0
 11 18  1  0
 12 11  2  0
 14 15  1  1
 14 13  1  0
 16 14  1  0
 17 16  1  6
 18 17  1  0
 19 21  1  0
 19 17  1  0
 20 19  2  0
M  END
$$$$
