AVL.pdb
     RDKit          3D

 21 20  0  0  1  0  0  0  0  0999 V2000
   24.7965  -25.4216  -14.9482 C   0  0  0  0  0  0  0  0  0  0  0  0
   24.9279  -24.0899  -15.7002 C   0  0  2  0  0  0  0  0  0  0  0  0
   25.5841  -24.3928  -16.9427 N   0  0  0  0  0  0  0  0  0  0  0  0
   25.7267  -23.1252  -14.9056 C   0  0  0  0  0  0  0  0  0  0  0  0
   26.9833  -23.1033  -14.9599 O   0  0  0  0  0  0  0  0  0  0  0  0
   25.3679  -19.6366  -15.3519 C   0  0  0  0  0  0  0  0  0  0  0  0
   25.0644  -19.8133  -13.8780 C   0  0  2  0  0  0  0  0  0  0  0  0
   25.7244  -18.6905  -13.1038 C   0  0  0  0  0  0  0  0  0  0  0  0
   25.6921  -21.1033  -13.4130 C   0  0  2  0  0  0  0  0  0  0  0  0
   25.0528  -22.2048  -14.0639 N   0  0  0  0  0  0  0  0  0  0  0  0
   25.5472  -21.2810  -11.9343 C   0  0  0  0  0  0  0  0  0  0  0  0
   24.4986  -21.7753  -11.4437 O   0  0  0  0  0  0  0  0  0  0  0  0
   28.8688  -20.3447   -6.6956 C   0  0  0  0  0  0  0  0  0  0  0  0
   27.5504  -20.6125   -7.4061 C   0  0  1  0  0  0  0  0  0  0  0  0
   26.5951  -19.4553   -7.0655 C   0  0  0  0  0  0  0  0  0  0  0  0
   27.7211  -20.7333   -8.8869 C   0  0  0  0  0  0  0  0  0  0  0  0
   26.4485  -21.0418   -9.5686 C   0  0  2  0  0  0  0  0  0  0  0  0
   26.5736  -20.9046  -11.0286 N   0  0  0  0  0  0  0  0  0  0  0  0
   25.2593  -20.3231   -9.0881 C   0  0  0  0  0  0  0  0  0  0  0  0
   25.0184  -19.1546   -9.3953 O   0  0  0  0  0  0  0  0  0  0  0  0
   24.3754  -20.9845   -8.2566 O   0  0  0  0  0  0  0  0  0  0  0  0
  2  1  1  1
  3  2  1  0
  4  5  2  0
  4  2  1  0
  7  6  1  6
  7  9  1  0
  8  7  1  0
  9 11  1  0
  9 10  1  6
 10  4  1  0
 11 18  1  0
 12 11  2  0
 14 15  1  6
 14 13  1  0
 16 14  1  0
 17 16  1  1
 18 17  1  0
 19 21  1  0
 19 17  1  0
 20 19  2  0
M  END
$$$$
