AVL.pdb
     RDKit          3D

 21 20  0  0  1  0  0  0  0  0999 V2000
   13.6659  -11.8184  -15.0098 C   0  0  0  0  0  0  0  0  0  0  0  0
   15.1711  -11.7374  -15.2995 C   0  0  2  0  0  0  0  0  0  0  0  0
   15.5970  -13.0785  -15.5929 N   0  0  0  0  0  0  0  0  0  0  0  0
   15.8954  -11.2021  -14.1208 C   0  0  0  0  0  0  0  0  0  0  0  0
   16.1463  -11.9178  -13.1171 O   0  0  0  0  0  0  0  0  0  0  0  0
   17.8921   -7.7653  -14.9105 C   0  0  0  0  0  0  0  0  0  0  0  0
   18.3538   -8.6394  -13.7623 C   0  0  2  0  0  0  0  0  0  0  0  0
   19.1963   -9.7705  -14.3156 C   0  0  0  0  0  0  0  0  0  0  0  0
   17.1402   -9.2622  -13.1189 C   0  0  2  0  0  0  0  0  0  0  0  0
   16.3145   -9.8479  -14.1291 N   0  0  0  0  0  0  0  0  0  0  0  0
   16.3299   -8.2448  -12.3791 C   0  0  0  0  0  0  0  0  0  0  0  0
   15.5832   -7.4415  -12.9970 O   0  0  0  0  0  0  0  0  0  0  0  0
   12.9624   -7.3530   -7.5324 C   0  0  0  0  0  0  0  0  0  0  0  0
   14.1154   -6.7154   -8.2931 C   0  0  1  0  0  0  0  0  0  0  0  0
   14.9961   -5.9773   -7.2698 C   0  0  0  0  0  0  0  0  0  0  0  0
   14.9210   -7.7245   -9.0475 C   0  0  0  0  0  0  0  0  0  0  0  0
   15.6065   -7.1290  -10.2116 C   0  0  2  0  0  0  0  0  0  0  0  0
   16.3661   -8.1407  -10.9636 N   0  0  0  0  0  0  0  0  0  0  0  0
   16.4481   -5.9538   -9.9431 C   0  0  0  0  0  0  0  0  0  0  0  0
   16.0117   -4.8021   -9.9713 O   0  0  0  0  0  0  0  0  0  0  0  0
   17.7843   -6.1482   -9.6484 O   0  0  0  0  0  0  0  0  0  0  0  0
  2  1  1  1
  3  2  1  0
  4  5  2  0
  4  2  1  0
  7  6  1  6
  7  9  1  0
  8  7  1  0
  9 11  1  0
  9 10  1  6
 10  4  1  0
 11 18  1  0
 12 11  2  0
 14 15  1  1
 14 13  1  0
 16 14  1  0
 17 16  1  1
 18 17  1  0
 19 21  1  0
 19 17  1  0
 20 19  2  0
M  END
$$$$
