AVL.pdb
     RDKit          3D

 21 20  0  0  1  0  0  0  0  0999 V2000
   22.5346  -19.7592  -17.3851 C   0  0  0  0  0  0  0  0  0  0  0  0
   23.7800  -19.4632  -16.5380 C   0  0  2  0  0  0  0  0  0  0  0  0
   23.9247  -20.5717  -15.6345 N   0  0  0  0  0  0  0  0  0  0  0  0
   23.6054  -18.1946  -15.7895 C   0  0  0  0  0  0  0  0  0  0  0  0
   22.9806  -18.1505  -14.6985 O   0  0  0  0  0  0  0  0  0  0  0  0
   26.2308  -15.2494  -16.7639 C   0  0  0  0  0  0  0  0  0  0  0  0
   25.4865  -15.2067  -15.4448 C   0  0  2  0  0  0  0  0  0  0  0  0
   26.1660  -16.1449  -14.4683 C   0  0  0  0  0  0  0  0  0  0  0  0
   24.0903  -15.7315  -15.6677 C   0  0  2  0  0  0  0  0  0  0  0  0
   24.1585  -17.0022  -16.3204 N   0  0  0  0  0  0  0  0  0  0  0  0
   23.2871  -14.8041  -16.5243 C   0  0  0  0  0  0  0  0  0  0  0  0
   23.5045  -14.7175  -17.7612 O   0  0  0  0  0  0  0  0  0  0  0  0
   18.6377  -12.8109  -18.2816 C   0  0  0  0  0  0  0  0  0  0  0  0
   19.2048  -12.0621  -17.0848 C   0  0  1  0  0  0  0  0  0  0  0  0
   18.0172  -11.5246  -16.2672 C   0  0  0  0  0  0  0  0  0  0  0  0
   20.0757  -12.9318  -16.2353 C   0  0  0  0  0  0  0  0  0  0  0  0
   21.4255  -13.0956  -16.8105 C   0  0  2  0  0  0  0  0  0  0  0  0
   22.2557  -13.9895  -15.9873 N   0  0  0  0  0  0  0  0  0  0  0  0
   22.1582  -11.8591  -17.1197 C   0  0  0  0  0  0  0  0  0  0  0  0
   22.0744  -11.2905  -18.2094 O   0  0  0  0  0  0  0  0  0  0  0  0
   22.9758  -11.3121  -16.1490 O   0  0  0  0  0  0  0  0  0  0  0  0
  2  1  1  6
  3  2  1  0
  4  5  2  0
  4  2  1  0
  7  6  1  6
  7  9  1  0
  8  7  1  0
  9 11  1  0
  9 10  1  6
 10  4  1  0
 11 18  1  0
 12 11  2  0
 14 15  1  1
 14 13  1  0
 16 14  1  0
 17 16  1  1
 18 17  1  0
 19 21  1  0
 19 17  1  0
 20 19  2  0
M  END
$$$$
