AVL.pdb
     RDKit          3D

 21 20  0  0  1  0  0  0  0  0999 V2000
   26.6965  -15.8893  -14.7236 C   0  0  0  0  0  0  0  0  0  0  0  0
   26.2534  -17.2346  -15.3154 C   0  0  2  0  0  0  0  0  0  0  0  0
   25.3697  -16.9229  -16.4054 N   0  0  0  0  0  0  0  0  0  0  0  0
   25.5550  -18.0453  -14.2881 C   0  0  0  0  0  0  0  0  0  0  0  0
   24.4296  -17.7127  -13.8351 O   0  0  0  0  0  0  0  0  0  0  0  0
   24.9569  -22.4875  -12.5052 C   0  0  0  0  0  0  0  0  0  0  0  0
   25.5238  -21.5164  -13.5207 C   0  0  2  0  0  0  0  0  0  0  0  0
   26.9581  -21.9021  -13.8198 C   0  0  0  0  0  0  0  0  0  0  0  0
   25.5526  -20.1415  -12.9016 C   0  0  2  0  0  0  0  0  0  0  0  0
   26.1752  -19.2256  -13.8065 N   0  0  0  0  0  0  0  0  0  0  0  0
   26.3236  -20.1346  -11.6191 C   0  0  0  0  0  0  0  0  0  0  0  0
   27.5823  -20.1189  -11.6233 O   0  0  0  0  0  0  0  0  0  0  0  0
   26.6916  -19.7893   -6.1986 C   0  0  0  0  0  0  0  0  0  0  0  0
   27.4452  -18.9704   -7.2359 C   0  0  1  0  0  0  0  0  0  0  0  0
   28.8256  -19.6222   -7.4298 C   0  0  0  0  0  0  0  0  0  0  0  0
   26.7128  -18.8960   -8.5376 C   0  0  0  0  0  0  0  0  0  0  0  0
   26.4075  -20.2349   -9.0796 C   0  0  2  0  0  0  0  0  0  0  0  0
   25.6780  -20.1452  -10.3547 N   0  0  0  0  0  0  0  0  0  0  0  0
   25.7306  -21.1695   -8.1687 C   0  0  0  0  0  0  0  0  0  0  0  0
   24.5140  -21.1480   -7.9763 O   0  0  0  0  0  0  0  0  0  0  0  0
   26.4899  -22.1103   -7.4991 O   0  0  0  0  0  0  0  0  0  0  0  0
  2  1  1  1
  3  2  1  0
  4  5  2  0
  4  2  1  0
  7  6  1  1
  7  9  1  0
  8  7  1  0
  9 11  1  0
  9 10  1  6
 10  4  1  0
 11 18  1  0
 12 11  2  0
 14 15  1  6
 14 13  1  0
 16 14  1  0
 17 16  1  1
 18 17  1  0
 19 21  1  0
 19 17  1  0
 20 19  2  0
M  END
$$$$
