AVL.pdb
     RDKit          3D

 21 20  0  0  1  0  0  0  0  0999 V2000
   27.0368  -15.9918  -14.6318 C   0  0  0  0  0  0  0  0  0  0  0  0
   26.4250  -17.0213  -15.5920 C   0  0  2  0  0  0  0  0  0  0  0  0
   25.6230  -16.2759  -16.5233 N   0  0  0  0  0  0  0  0  0  0  0  0
   25.5927  -17.9944  -14.8432 C   0  0  0  0  0  0  0  0  0  0  0  0
   24.3924  -17.7537  -14.5534 O   0  0  0  0  0  0  0  0  0  0  0  0
   24.7604  -21.3687  -15.7964 C   0  0  0  0  0  0  0  0  0  0  0  0
   25.5307  -21.5390  -14.5028 C   0  0  2  0  0  0  0  0  0  0  0  0
   24.8476  -22.5980  -13.6617 C   0  0  0  0  0  0  0  0  0  0  0  0
   25.4604  -20.2448  -13.7318 C   0  0  2  0  0  0  0  0  0  0  0  0
   26.1683  -19.2273  -14.4452 N   0  0  0  0  0  0  0  0  0  0  0  0
   26.0741  -20.3822  -12.3740 C   0  0  0  0  0  0  0  0  0  0  0  0
   27.3075  -20.1988  -12.2021 O   0  0  0  0  0  0  0  0  0  0  0  0
   27.2075  -18.2750   -7.4680 C   0  0  0  0  0  0  0  0  0  0  0  0
   27.1940  -19.6321   -8.1555 C   0  0  1  0  0  0  0  0  0  0  0  0
   26.3891  -20.5960   -7.2663 C   0  0  0  0  0  0  0  0  0  0  0  0
   26.6012  -19.5646   -9.5268 C   0  0  0  0  0  0  0  0  0  0  0  0
   25.8645  -20.7960   -9.8738 C   0  0  2  0  0  0  0  0  0  0  0  0
   25.3021  -20.7215  -11.2318 N   0  0  0  0  0  0  0  0  0  0  0  0
   24.8359  -21.2330   -8.9184 C   0  0  0  0  0  0  0  0  0  0  0  0
   23.7381  -20.6819   -8.8239 O   0  0  0  0  0  0  0  0  0  0  0  0
   25.1117  -22.3050   -8.0910 O   0  0  0  0  0  0  0  0  0  0  0  0
  2  1  1  1
  3  2  1  0
  4  5  2  0
  4  2  1  0
  7  6  1  6
  7  9  1  0
  8  7  1  0
  9 11  1  0
  9 10  1  6
 10  4  1  0
 11 18  1  0
 12 11  2  0
 14 15  1  1
 14 13  1  0
 16 14  1  0
 17 16  1  1
 18 17  1  0
 19 21  1  0
 19 17  1  0
 20 19  2  0
M  END
$$$$
