AVL.pdb
     RDKit          3D

 21 20  0  0  1  0  0  0  0  0999 V2000
   23.9374   -9.3981  -20.9553 C   0  0  0  0  0  0  0  0  0  0  0  0
   23.8928  -10.7311  -20.1955 C   0  0  2  0  0  0  0  0  0  0  0  0
   23.5853  -11.7404  -21.1717 N   0  0  0  0  0  0  0  0  0  0  0  0
   22.8528  -10.6882  -19.1387 C   0  0  0  0  0  0  0  0  0  0  0  0
   21.6269  -10.6456  -19.4178 O   0  0  0  0  0  0  0  0  0  0  0  0
   24.1371  -11.7555  -15.3507 C   0  0  0  0  0  0  0  0  0  0  0  0
   22.6923  -11.9010  -15.7830 C   0  0  2  0  0  0  0  0  0  0  0  0
   22.5535  -13.1613  -16.6123 C   0  0  0  0  0  0  0  0  0  0  0  0
   22.3429  -10.7386  -16.6781 C   0  0  2  0  0  0  0  0  0  0  0  0
   23.2546  -10.6956  -17.7792 N   0  0  0  0  0  0  0  0  0  0  0  0
   22.4283   -9.4373  -15.9443 C   0  0  0  0  0  0  0  0  0  0  0  0
   23.4824   -8.7497  -15.9710 O   0  0  0  0  0  0  0  0  0  0  0  0
   22.5683   -4.6606  -14.6539 C   0  0  0  0  0  0  0  0  0  0  0  0
   21.3838   -5.1640  -15.4652 C   0  0  1  0  0  0  0  0  0  0  0  0
   21.2532   -4.2630  -16.7057 C   0  0  0  0  0  0  0  0  0  0  0  0
   21.5437   -6.5946  -15.8703 C   0  0  0  0  0  0  0  0  0  0  0  0
   21.2470   -7.5218  -14.7604 C   0  0  2  0  0  0  0  0  0  0  0  0
   21.3374   -8.9254  -15.1937 N   0  0  0  0  0  0  0  0  0  0  0  0
   19.9891   -7.2912  -14.0351 C   0  0  0  0  0  0  0  0  0  0  0  0
   19.9063   -6.5269  -13.0724 O   0  0  0  0  0  0  0  0  0  0  0  0
   18.8527   -7.9600  -14.4489 O   0  0  0  0  0  0  0  0  0  0  0  0
  2  1  1  6
  3  2  1  0
  4  5  2  0
  4  2  1  0
  7  6  1  6
  7  9  1  0
  8  7  1  0
  9 11  1  0
  9 10  1  6
 10  4  1  0
 11 18  1  0
 12 11  2  0
 14 15  1  6
 14 13  1  0
 16 14  1  0
 17 16  1  6
 18 17  1  0
 19 21  1  0
 19 17  1  0
 20 19  2  0
M  END
$$$$
