AVL.pdb
     RDKit          3D

 21 20  0  0  1  0  0  0  0  0999 V2000
   28.8806  -18.1074  -14.5341 C   0  0  0  0  0  0  0  0  0  0  0  0
   27.6493  -19.0061  -14.7140 C   0  0  2  0  0  0  0  0  0  0  0  0
   27.0290  -18.5968  -15.9444 N   0  0  0  0  0  0  0  0  0  0  0  0
   26.7160  -18.8370  -13.5736 C   0  0  0  0  0  0  0  0  0  0  0  0
   25.9628  -17.8339  -13.4778 O   0  0  0  0  0  0  0  0  0  0  0  0
   25.0804  -22.1397  -12.3889 C   0  0  0  0  0  0  0  0  0  0  0  0
   24.5281  -20.7709  -12.0468 C   0  0  2  0  0  0  0  0  0  0  0  0
   23.9907  -20.1297  -13.3100 C   0  0  0  0  0  0  0  0  0  0  0  0
   25.6634  -19.9070  -11.5576 C   0  0  2  0  0  0  0  0  0  0  0  0
   26.6743  -19.8341  -12.5667 N   0  0  0  0  0  0  0  0  0  0  0  0
   26.2791  -20.4649  -10.3131 C   0  0  0  0  0  0  0  0  0  0  0  0
   27.0744  -21.4392  -10.3677 O   0  0  0  0  0  0  0  0  0  0  0  0
   28.6715  -18.4455   -5.7427 C   0  0  0  0  0  0  0  0  0  0  0  0
   28.2151  -19.4497   -6.7905 C   0  0  1  0  0  0  0  0  0  0  0  0
   29.0037  -20.7511   -6.5621 C   0  0  0  0  0  0  0  0  0  0  0  0
   26.7439  -19.7089   -6.7214 C   0  0  0  0  0  0  0  0  0  0  0  0
   26.2944  -20.6389   -7.7762 C   0  0  2  0  0  0  0  0  0  0  0  0
   25.9975  -19.9271   -9.0298 N   0  0  0  0  0  0  0  0  0  0  0  0
   25.1859  -21.5384   -7.4249 C   0  0  0  0  0  0  0  0  0  0  0  0
   25.3026  -22.4495   -6.6039 O   0  0  0  0  0  0  0  0  0  0  0  0
   23.9626  -21.3560   -8.0416 O   0  0  0  0  0  0  0  0  0  0  0  0
  2  1  1  1
  3  2  1  0
  4  5  2  0
  4  2  1  0
  7  6  1  6
  7  9  1  0
  8  7  1  0
  9 11  1  0
  9 10  1  6
 10  4  1  0
 11 18  1  0
 12 11  2  0
 14 15  1  1
 14 13  1  0
 16 14  1  0
 17 16  1  1
 18 17  1  0
 19 21  1  0
 19 17  1  0
 20 19  2  0
M  END
$$$$
