AVL.pdb
     RDKit          3D

 21 20  0  0  1  0  0  0  0  0999 V2000
   15.7856  -13.6246  -14.3552 C   0  0  0  0  0  0  0  0  0  0  0  0
   14.9584  -12.4622  -14.9213 C   0  0  2  0  0  0  0  0  0  0  0  0
   14.0171  -13.0469  -15.8369 N   0  0  0  0  0  0  0  0  0  0  0  0
   15.8389  -11.4943  -15.6199 C   0  0  0  0  0  0  0  0  0  0  0  0
   16.3976  -11.7760  -16.7113 O   0  0  0  0  0  0  0  0  0  0  0  0
   14.9396   -7.9489  -16.5962 C   0  0  0  0  0  0  0  0  0  0  0  0
   16.0735   -7.8851  -15.5932 C   0  0  2  0  0  0  0  0  0  0  0  0
   17.0332   -6.7885  -16.0078 C   0  0  0  0  0  0  0  0  0  0  0  0
   16.8337   -9.1864  -15.6493 C   0  0  2  0  0  0  0  0  0  0  0  0
   16.0544  -10.2190  -15.0395 N   0  0  0  0  0  0  0  0  0  0  0  0
   18.1387   -9.0899  -14.9235 C   0  0  0  0  0  0  0  0  0  0  0  0
   18.1748   -8.8197  -13.6946 O   0  0  0  0  0  0  0  0  0  0  0  0
   22.9947  -10.6706  -13.4520 C   0  0  0  0  0  0  0  0  0  0  0  0
   23.0102   -9.9564  -14.7953 C   0  0  1  0  0  0  0  0  0  0  0  0
   24.1254  -10.5895  -15.6458 C   0  0  0  0  0  0  0  0  0  0  0  0
   21.6948  -10.0511  -15.5005 C   0  0  0  0  0  0  0  0  0  0  0  0
   20.6806   -9.1591  -14.9045 C   0  0  2  0  0  0  0  0  0  0  0  0
   19.3803   -9.2963  -15.5802 N   0  0  0  0  0  0  0  0  0  0  0  0
   21.0473   -7.7404  -14.7857 C   0  0  0  0  0  0  0  0  0  0  0  0
   20.9760   -6.9531  -15.7306 O   0  0  0  0  0  0  0  0  0  0  0  0
   21.4917   -7.2701  -13.5646 O   0  0  0  0  0  0  0  0  0  0  0  0
  2  1  1  6
  3  2  1  0
  4  5  2  0
  4  2  1  0
  7  6  1  6
  7  9  1  0
  8  7  1  0
  9 11  1  0
  9 10  1  1
 10  4  1  0
 11 18  1  0
 12 11  2  0
 14 15  1  6
 14 13  1  0
 16 14  1  0
 17 16  1  6
 18 17  1  0
 19 21  1  0
 19 17  1  0
 20 19  2  0
M  END
$$$$
