AVL.pdb
     RDKit          3D

 21 20  0  0  1  0  0  0  0  0999 V2000
   18.4358  -11.0699  -18.5747 C   0  0  0  0  0  0  0  0  0  0  0  0
   19.4577  -12.0435  -17.9713 C   0  0  2  0  0  0  0  0  0  0  0  0
   18.7525  -13.2744  -17.7398 N   0  0  0  0  0  0  0  0  0  0  0  0
   19.9994  -11.5014  -16.7013 C   0  0  0  0  0  0  0  0  0  0  0  0
   19.3382  -11.5359  -15.6316 O   0  0  0  0  0  0  0  0  0  0  0  0
   24.1141  -10.9754  -16.5257 C   0  0  0  0  0  0  0  0  0  0  0  0
   23.2367  -11.1738  -15.3065 C   0  0  2  0  0  0  0  0  0  0  0  0
   22.8909  -12.6440  -15.1858 C   0  0  0  0  0  0  0  0  0  0  0  0
   21.9434  -10.4289  -15.5233 C   0  0  2  0  0  0  0  0  0  0  0  0
   21.2969  -10.9302  -16.6964 N   0  0  0  0  0  0  0  0  0  0  0  0
   22.1799   -8.9627  -15.7056 C   0  0  0  0  0  0  0  0  0  0  0  0
   22.3670   -8.4771  -16.8518 O   0  0  0  0  0  0  0  0  0  0  0  0
   22.2820   -4.2482  -16.7693 C   0  0  0  0  0  0  0  0  0  0  0  0
   21.1498   -4.6581  -15.8393 C   0  0  1  0  0  0  0  0  0  0  0  0
   19.8325   -4.1697  -16.4668 C   0  0  0  0  0  0  0  0  0  0  0  0
   21.1087   -6.1364  -15.6170 C   0  0  0  0  0  0  0  0  0  0  0  0
   22.2217   -6.6004  -14.7653 C   0  0  2  0  0  0  0  0  0  0  0  0
   22.2038   -8.0635  -14.6072 N   0  0  0  0  0  0  0  0  0  0  0  0
   22.3580   -5.9469  -13.4554 C   0  0  0  0  0  0  0  0  0  0  0  0
   21.8106   -6.3745  -12.4379 O   0  0  0  0  0  0  0  0  0  0  0  0
   23.1307   -4.8049  -13.3610 O   0  0  0  0  0  0  0  0  0  0  0  0
  2  1  1  1
  3  2  1  0
  4  5  2  0
  4  2  1  0
  7  6  1  6
  7  9  1  0
  8  7  1  0
  9 11  1  0
  9 10  1  6
 10  4  1  0
 11 18  1  0
 12 11  2  0
 14 15  1  6
 14 13  1  0
 16 14  1  0
 17 16  1  1
 18 17  1  0
 19 21  1  0
 19 17  1  0
 20 19  2  0
M  END
$$$$
