AVL.pdb
     RDKit          3D

 21 20  0  0  1  0  0  0  0  0999 V2000
   21.9031  -19.4896  -11.8347 C   0  0  0  0  0  0  0  0  0  0  0  0
   22.9064  -20.3550  -12.6097 C   0  0  2  0  0  0  0  0  0  0  0  0
   22.1370  -21.3857  -13.2515 N   0  0  0  0  0  0  0  0  0  0  0  0
   23.9037  -20.9439  -11.6829 C   0  0  0  0  0  0  0  0  0  0  0  0
   23.6133  -21.8999  -10.9185 O   0  0  0  0  0  0  0  0  0  0  0  0
   27.4037  -21.7939  -12.9345 C   0  0  0  0  0  0  0  0  0  0  0  0
   27.5643  -20.9090  -11.7152 C   0  0  2  0  0  0  0  0  0  0  0  0
   28.6763  -21.4650  -10.8493 C   0  0  0  0  0  0  0  0  0  0  0  0
   26.2937  -20.9771  -10.9057 C   0  0  2  0  0  0  0  0  0  0  0  0
   25.2180  -20.4130  -11.6608 N   0  0  0  0  0  0  0  0  0  0  0  0
   26.4196  -20.2157   -9.6237 C   0  0  0  0  0  0  0  0  0  0  0  0
   26.1223  -18.9938   -9.5673 O   0  0  0  0  0  0  0  0  0  0  0  0
   26.7947  -21.0654   -3.4942 C   0  0  0  0  0  0  0  0  0  0  0  0
   27.1057  -20.2110   -4.7140 C   0  0  1  0  0  0  0  0  0  0  0  0
   28.5932  -19.8237   -4.6437 C   0  0  0  0  0  0  0  0  0  0  0  0
   26.8095  -20.9251   -5.9942 C   0  0  0  0  0  0  0  0  0  0  0  0
   27.0957  -20.0874   -7.1756 C   0  0  2  0  0  0  0  0  0  0  0  0
   26.8748  -20.8296   -8.4272 N   0  0  0  0  0  0  0  0  0  0  0  0
   28.4058  -19.4207   -7.2017 C   0  0  0  0  0  0  0  0  0  0  0  0
   29.4202  -19.9635   -7.6422 O   0  0  0  0  0  0  0  0  0  0  0  0
   28.5044  -18.1326   -6.7108 O   0  0  0  0  0  0  0  0  0  0  0  0
  2  1  1  1
  3  2  1  0
  4  5  2  0
  4  2  1  0
  7  6  1  6
  7  9  1  0
  8  7  1  0
  9 11  1  0
  9 10  1  6
 10  4  1  0
 11 18  1  0
 12 11  2  0
 14 15  1  6
 14 13  1  0
 16 14  1  0
 17 16  1  1
 18 17  1  0
 19 21  1  0
 19 17  1  0
 20 19  2  0
M  END
$$$$
