MNN.pdb
     RDKit          3D

 25 24  0  0  1  0  0  0  0  0999 V2000
   28.0224  -31.5929  -14.9283 C   0  0  0  0  0  0  0  0  0  0  0  0
   29.2147  -31.8612  -16.2567 S   0  0  0  0  0  0  0  0  0  0  0  0
   29.5826  -30.4173  -17.2005 C   0  0  0  0  0  0  0  0  0  0  0  0
   28.9362  -29.1376  -16.8818 C   0  0  0  0  0  0  0  0  0  0  0  0
   27.6244  -28.7899  -17.4601 C   0  0  2  0  0  0  0  0  0  0  0  0
   27.7010  -28.4829  -18.8916 N   0  0  0  0  0  0  0  0  0  0  0  0
   27.1356  -27.5207  -16.7559 C   0  0  0  0  0  0  0  0  0  0  0  0
   27.1577  -27.4744  -15.5193 O   0  0  0  0  0  0  0  0  0  0  0  0
   28.4716  -23.8999  -15.9212 N   0  0  0  0  0  0  0  0  0  0  0  0
   28.1364  -23.7891  -17.2779 C   0  0  0  0  0  0  0  0  0  0  0  0
   29.0324  -23.5573  -18.1239 O   0  0  0  0  0  0  0  0  0  0  0  0
   26.7377  -23.9426  -17.7288 C   0  0  0  0  0  0  0  0  0  0  0  0
   26.1531  -25.1802  -17.0641 C   0  0  2  0  0  0  0  0  0  0  0  0
   26.6695  -26.4243  -17.5129 N   0  0  0  0  0  0  0  0  0  0  0  0
   24.7115  -25.1020  -16.8250 C   0  0  0  0  0  0  0  0  0  0  0  0
   23.9434  -25.5074  -17.7536 O   0  0  0  0  0  0  0  0  0  0  0  0
   20.0513  -24.2956  -14.6983 N   0  0  0  0  0  0  0  0  0  0  0  0
   21.0000  -23.6030  -13.8697 C   0  0  0  0  0  0  0  0  0  0  0  0
   20.6146  -22.9531  -12.8785 O   0  0  0  0  0  0  0  0  0  0  0  0
   22.4201  -23.6948  -14.2369 C   0  0  0  0  0  0  0  0  0  0  0  0
   22.6492  -24.5307  -15.4892 C   0  0  2  0  0  0  0  0  0  0  0  0
   24.0690  -24.6223  -15.6666 N   0  0  0  0  0  0  0  0  0  0  0  0
   21.9379  -23.8885  -16.6006 C   0  0  0  0  0  0  0  0  0  0  0  0
   22.4276  -22.7048  -17.1428 O   0  0  0  0  0  0  0  0  0  0  0  0
   20.8916  -24.3422  -17.1085 O   0  0  0  0  0  0  0  0  0  0  0  0
  1  2  1  0
  2  3  1  0
  3  4  1  0
  5  4  1  0
  5  7  1  0
  5  6  1  6
  7  8  2  0
  9 10  1  0
 10 11  2  0
 12 10  1  0
 13 12  1  6
 14 13  1  0
 14  7  1  0
 15 13  1  0
 15 16  2  0
 17 18  1  0
 18 20  1  0
 19 18  2  0
 21 20  1  1
 21 22  1  0
 21 23  1  0
 22 15  1  0
 23 24  1  0
 25 23  2  0
M  END
$$$$
