MNN.pdb
     RDKit          3D

 25 24  0  0  1  0  0  0  0  0999 V2000
   28.7940  -13.2404  -15.1227 C   0  0  0  0  0  0  0  0  0  0  0  0
   27.4753  -12.0288  -15.3491 S   0  0  0  0  0  0  0  0  0  0  0  0
   26.2924  -12.4693  -16.5810 C   0  0  0  0  0  0  0  0  0  0  0  0
   25.1564  -11.5844  -16.8695 C   0  0  0  0  0  0  0  0  0  0  0  0
   24.1005  -11.9951  -17.8141 C   0  0  2  0  0  0  0  0  0  0  0  0
   24.6209  -12.2812  -19.1545 N   0  0  0  0  0  0  0  0  0  0  0  0
   23.1283  -10.8198  -17.9531 C   0  0  0  0  0  0  0  0  0  0  0  0
   23.3587   -9.9477  -18.8005 O   0  0  0  0  0  0  0  0  0  0  0  0
   18.6906  -10.4715  -19.4873 N   0  0  0  0  0  0  0  0  0  0  0  0
   19.3635  -11.0332  -18.3931 C   0  0  0  0  0  0  0  0  0  0  0  0
   19.8230  -12.1969  -18.4752 O   0  0  0  0  0  0  0  0  0  0  0  0
   19.5411  -10.2716  -17.1395 C   0  0  0  0  0  0  0  0  0  0  0  0
   20.9702   -9.7515  -17.0932 C   0  0  2  0  0  0  0  0  0  0  0  0
   21.9885  -10.7403  -17.1242 N   0  0  0  0  0  0  0  0  0  0  0  0
   21.1628   -8.6221  -16.1828 C   0  0  0  0  0  0  0  0  0  0  0  0
   21.9259   -8.8031  -15.1820 O   0  0  0  0  0  0  0  0  0  0  0  0
   21.6292   -4.1325  -13.8684 N   0  0  0  0  0  0  0  0  0  0  0  0
   22.6807   -4.8112  -14.5754 C   0  0  0  0  0  0  0  0  0  0  0  0
   23.8678   -4.4622  -14.4260 O   0  0  0  0  0  0  0  0  0  0  0  0
   22.2999   -5.9165  -15.4661 C   0  0  0  0  0  0  0  0  0  0  0  0
   20.8178   -6.2559  -15.3789 C   0  0  2  0  0  0  0  0  0  0  0  0
   20.5912   -7.3389  -16.2907 N   0  0  0  0  0  0  0  0  0  0  0  0
   20.0545   -5.0390  -15.6788 C   0  0  0  0  0  0  0  0  0  0  0  0
   19.6179   -4.2232  -14.6401 O   0  0  0  0  0  0  0  0  0  0  0  0
   19.7588   -4.6735  -16.8354 O   0  0  0  0  0  0  0  0  0  0  0  0
  1  2  1  0
  2  3  1  0
  3  4  1  0
  5  4  1  0
  5  7  1  0
  5  6  1  6
  7  8  2  0
  9 10  1  0
 10 11  2  0
 12 10  1  0
 13 12  1  1
 14 13  1  0
 14  7  1  0
 15 13  1  0
 15 16  2  0
 17 18  1  0
 18 20  1  0
 19 18  2  0
 21 20  1  6
 21 22  1  0
 21 23  1  0
 22 15  1  0
 23 24  1  0
 25 23  2  0
M  END
$$$$
