MNN.pdb
     RDKit          3D

 25 24  0  0  1  0  0  0  0  0999 V2000
   26.0878  -33.8842  -11.1385 C   0  0  0  0  0  0  0  0  0  0  0  0
   26.6997  -33.8702   -9.4404 S   0  0  0  0  0  0  0  0  0  0  0  0
   26.0288  -32.5812   -8.4408 C   0  0  0  0  0  0  0  0  0  0  0  0
   26.2543  -32.5735   -6.9896 C   0  0  0  0  0  0  0  0  0  0  0  0
   25.2392  -33.1131   -6.0651 C   0  0  2  0  0  0  0  0  0  0  0  0
   23.9929  -32.3413   -6.0807 N   0  0  0  0  0  0  0  0  0  0  0  0
   25.8108  -33.0114   -4.6479 C   0  0  0  0  0  0  0  0  0  0  0  0
   26.2894  -31.9345   -4.2698 O   0  0  0  0  0  0  0  0  0  0  0  0
   24.6540  -32.3709   -1.6024 N   0  0  0  0  0  0  0  0  0  0  0  0
   24.4833  -33.6427   -1.0377 C   0  0  0  0  0  0  0  0  0  0  0  0
   23.5720  -33.8340   -0.1980 O   0  0  0  0  0  0  0  0  0  0  0  0
   25.3640  -34.7663   -1.4188 C   0  0  0  0  0  0  0  0  0  0  0  0
   26.3301  -34.2767   -2.4874 C   0  0  2  0  0  0  0  0  0  0  0  0
   25.7875  -34.1333   -3.7915 N   0  0  0  0  0  0  0  0  0  0  0  0
   27.6733  -34.8479   -2.3815 C   0  0  0  0  0  0  0  0  0  0  0  0
   28.2530  -35.1797   -3.4634 O   0  0  0  0  0  0  0  0  0  0  0  0
   32.3626  -36.3236   -1.1441 N   0  0  0  0  0  0  0  0  0  0  0  0
   32.0494  -35.1153   -1.8570 C   0  0  0  0  0  0  0  0  0  0  0  0
   32.9473  -34.4767   -2.4395 O   0  0  0  0  0  0  0  0  0  0  0  0
   30.6473  -34.6749   -1.8686 C   0  0  0  0  0  0  0  0  0  0  0  0
   29.7224  -35.6436   -1.1437 C   0  0  2  0  0  0  0  0  0  0  0  0
   28.4075  -35.0747   -1.2006 N   0  0  0  0  0  0  0  0  0  0  0  0
   30.2423  -35.8379    0.2148 C   0  0  0  0  0  0  0  0  0  0  0  0
   31.3065  -36.7074    0.4300 O   0  0  0  0  0  0  0  0  0  0  0  0
   29.7821  -35.2616    1.2221 O   0  0  0  0  0  0  0  0  0  0  0  0
  1  2  1  0
  2  3  1  0
  3  4  1  0
  5  4  1  0
  5  7  1  0
  5  6  1  1
  7  8  2  0
  9 10  1  0
 10 11  2  0
 12 10  1  0
 13 12  1  1
 14 13  1  0
 14  7  1  0
 15 13  1  0
 15 16  2  0
 17 18  1  0
 18 20  1  0
 19 18  2  0
 21 20  1  6
 21 22  1  0
 21 23  1  0
 22 15  1  0
 23 24  1  0
 25 23  2  0
M  END
$$$$
