MNN.pdb
     RDKit          3D

 25 24  0  0  1  0  0  0  0  0999 V2000
   38.4737  -12.2456  -11.8800 C   0  0  0  0  0  0  0  0  0  0  0  0
   38.9736  -11.6112  -13.4943 S   0  0  0  0  0  0  0  0  0  0  0  0
   38.6231   -9.9000  -13.7387 C   0  0  0  0  0  0  0  0  0  0  0  0
   37.2455   -9.4514  -13.9790 C   0  0  0  0  0  0  0  0  0  0  0  0
   36.5211   -9.8579  -15.1981 C   0  0  2  0  0  0  0  0  0  0  0  0
   37.2208   -9.4714  -16.4271 N   0  0  0  0  0  0  0  0  0  0  0  0
   35.1773   -9.1232  -15.1984 C   0  0  0  0  0  0  0  0  0  0  0  0
   34.3896   -9.3130  -14.2629 O   0  0  0  0  0  0  0  0  0  0  0  0
   34.6876   -4.5690  -14.7110 N   0  0  0  0  0  0  0  0  0  0  0  0
   33.7606   -5.5360  -15.1244 C   0  0  0  0  0  0  0  0  0  0  0  0
   32.9306   -5.9941  -14.3037 O   0  0  0  0  0  0  0  0  0  0  0  0
   33.7458   -6.0256  -16.5184 C   0  0  0  0  0  0  0  0  0  0  0  0
   33.6385   -7.5431  -16.4922 C   0  0  2  0  0  0  0  0  0  0  0  0
   34.8499   -8.2438  -16.2529 N   0  0  0  0  0  0  0  0  0  0  0  0
   32.7371   -8.0933  -17.5053 C   0  0  0  0  0  0  0  0  0  0  0  0
   33.2376   -8.3765  -18.6393 O   0  0  0  0  0  0  0  0  0  0  0  0
   29.0232  -10.5176  -20.0178 N   0  0  0  0  0  0  0  0  0  0  0  0
   29.0346  -10.9300  -18.6408 C   0  0  0  0  0  0  0  0  0  0  0  0
   28.3539  -11.9058  -18.2697 O   0  0  0  0  0  0  0  0  0  0  0  0
   29.8711  -10.1633  -17.7068 C   0  0  0  0  0  0  0  0  0  0  0  0
   30.5268   -8.9553  -18.3628 C   0  0  2  0  0  0  0  0  0  0  0  0
   31.3587   -8.3486  -17.3651 N   0  0  0  0  0  0  0  0  0  0  0  0
   29.4635   -8.0854  -18.8788 C   0  0  0  0  0  0  0  0  0  0  0  0
   28.9324   -8.3183  -20.1431 O   0  0  0  0  0  0  0  0  0  0  0  0
   28.9883   -7.1207  -18.2445 O   0  0  0  0  0  0  0  0  0  0  0  0
  1  2  1  0
  2  3  1  0
  3  4  1  0
  5  4  1  0
  5  7  1  0
  5  6  1  6
  7  8  2  0
  9 10  1  0
 10 11  2  0
 12 10  1  0
 13 12  1  6
 14 13  1  0
 14  7  1  0
 15 13  1  0
 15 16  2  0
 17 18  1  0
 18 20  1  0
 19 18  2  0
 21 20  1  1
 21 22  1  0
 21 23  1  0
 22 15  1  0
 23 24  1  0
 25 23  2  0
M  END
$$$$
