MNN.pdb
     RDKit          3D

 25 24  0  0  1  0  0  0  0  0999 V2000
   19.2736  -12.7091  -22.4844 C   0  0  0  0  0  0  0  0  0  0  0  0
   20.8001  -13.3306  -23.2206 S   0  0  0  0  0  0  0  0  0  0  0  0
   22.0102  -13.8485  -22.0467 C   0  0  0  0  0  0  0  0  0  0  0  0
   21.8151  -13.5868  -20.6148 C   0  0  0  0  0  0  0  0  0  0  0  0
   22.9695  -13.4824  -19.7023 C   0  0  2  0  0  0  0  0  0  0  0  0
   23.4343  -14.7890  -19.2268 N   0  0  0  0  0  0  0  0  0  0  0  0
   22.5102  -12.6957  -18.4712 C   0  0  0  0  0  0  0  0  0  0  0  0
   21.3382  -12.3022  -18.4136 O   0  0  0  0  0  0  0  0  0  0  0  0
   25.4751  -14.0942  -14.9387 N   0  0  0  0  0  0  0  0  0  0  0  0
   24.2551  -13.4058  -14.8813 C   0  0  0  0  0  0  0  0  0  0  0  0
   23.1972  -14.0328  -14.6366 O   0  0  0  0  0  0  0  0  0  0  0  0
   24.1964  -11.9465  -15.1049 C   0  0  0  0  0  0  0  0  0  0  0  0
   23.2155  -11.6741  -16.2358 C   0  0  2  0  0  0  0  0  0  0  0  0
   23.4156  -12.4284  -17.4218 N   0  0  0  0  0  0  0  0  0  0  0  0
   22.8662  -10.2617  -16.3929 C   0  0  0  0  0  0  0  0  0  0  0  0
   23.6949   -9.5211  -17.0105 O   0  0  0  0  0  0  0  0  0  0  0  0
   19.6395   -6.3137  -18.1680 N   0  0  0  0  0  0  0  0  0  0  0  0
   19.4629   -6.8128  -16.8317 C   0  0  0  0  0  0  0  0  0  0  0  0
   18.9386   -6.0975  -15.9560 O   0  0  0  0  0  0  0  0  0  0  0  0
   19.9195   -8.1810  -16.5494 C   0  0  0  0  0  0  0  0  0  0  0  0
   21.3841   -8.2367  -16.1353 C   0  0  2  0  0  0  0  0  0  0  0  0
   21.6998   -9.6203  -15.9315 N   0  0  0  0  0  0  0  0  0  0  0  0
   21.5525   -7.3933  -14.9462 C   0  0  0  0  0  0  0  0  0  0  0  0
   21.7805   -6.0290  -15.0931 O   0  0  0  0  0  0  0  0  0  0  0  0
   21.5057   -7.8270  -13.7765 O   0  0  0  0  0  0  0  0  0  0  0  0
  1  2  1  0
  2  3  1  0
  3  4  1  0
  5  4  1  0
  5  7  1  0
  5  6  1  1
  7  8  2  0
  9 10  1  0
 10 11  2  0
 12 10  1  0
 13 12  1  1
 14 13  1  0
 14  7  1  0
 15 13  1  0
 15 16  2  0
 17 18  1  0
 18 20  1  0
 19 18  2  0
 21 20  1  1
 21 22  1  0
 21 23  1  0
 22 15  1  0
 23 24  1  0
 25 23  2  0
M  END
$$$$
