MNN.pdb
     RDKit          3D

 25 24  0  0  1  0  0  0  0  0999 V2000
   28.8226  -10.5182  -16.2327 C   0  0  0  0  0  0  0  0  0  0  0  0
   27.3922  -11.4426  -16.8308 S   0  0  0  0  0  0  0  0  0  0  0  0
   26.2531  -11.9090  -15.5675 C   0  0  0  0  0  0  0  0  0  0  0  0
   25.2278  -10.9639  -15.1067 C   0  0  0  0  0  0  0  0  0  0  0  0
   24.1137  -10.5692  -15.9893 C   0  0  2  0  0  0  0  0  0  0  0  0
   24.5723  -10.0546  -17.2832 N   0  0  0  0  0  0  0  0  0  0  0  0
   23.3617   -9.4296  -15.2955 C   0  0  0  0  0  0  0  0  0  0  0  0
   22.8001   -9.6516  -14.2153 O   0  0  0  0  0  0  0  0  0  0  0  0
   22.3401   -3.5337  -15.0604 N   0  0  0  0  0  0  0  0  0  0  0  0
   22.5133   -4.7917  -14.4665 C   0  0  0  0  0  0  0  0  0  0  0  0
   21.8961   -5.0728  -13.4118 O   0  0  0  0  0  0  0  0  0  0  0  0
   23.4153   -5.7963  -15.0668 C   0  0  0  0  0  0  0  0  0  0  0  0
   22.5830   -7.0011  -15.4805 C   0  0  2  0  0  0  0  0  0  0  0  0
   23.3155   -8.1480  -15.8853 N   0  0  0  0  0  0  0  0  0  0  0  0
   21.3901   -6.6615  -16.2570 C   0  0  0  0  0  0  0  0  0  0  0  0
   21.4666   -6.7703  -17.5215 O   0  0  0  0  0  0  0  0  0  0  0  0
   16.8674   -5.5904  -18.2119 N   0  0  0  0  0  0  0  0  0  0  0  0
   17.1323   -6.9347  -17.7773 C   0  0  0  0  0  0  0  0  0  0  0  0
   16.3963   -7.8717  -18.1428 O   0  0  0  0  0  0  0  0  0  0  0  0
   18.2904   -7.1509  -16.8986 C   0  0  0  0  0  0  0  0  0  0  0  0
   19.0181   -5.8570  -16.5584 C   0  0  2  0  0  0  0  0  0  0  0  0
   20.1489   -6.2218  -15.7559 N   0  0  0  0  0  0  0  0  0  0  0  0
   18.0649   -4.9607  -15.8939 C   0  0  0  0  0  0  0  0  0  0  0  0
   17.4557   -3.9406  -16.6171 O   0  0  0  0  0  0  0  0  0  0  0  0
   17.7537   -5.0507  -14.6882 O   0  0  0  0  0  0  0  0  0  0  0  0
  1  2  1  0
  2  3  1  0
  3  4  1  0
  5  4  1  0
  5  7  1  0
  5  6  1  6
  7  8  2  0
  9 10  1  0
 10 11  2  0
 12 10  1  0
 13 12  1  6
 14 13  1  0
 14  7  1  0
 15 13  1  0
 15 16  2  0
 17 18  1  0
 18 20  1  0
 19 18  2  0
 21 20  1  1
 21 22  1  0
 21 23  1  0
 22 15  1  0
 23 24  1  0
 25 23  2  0
M  END
$$$$
