MNN.pdb
     RDKit          3D

 25 24  0  0  1  0  0  0  0  0999 V2000
   26.6560  -19.0748   -6.7492 C   0  0  0  0  0  0  0  0  0  0  0  0
   27.3205  -20.6867   -7.2167 S   0  0  0  0  0  0  0  0  0  0  0  0
   27.3104  -20.9967   -8.9530 C   0  0  0  0  0  0  0  0  0  0  0  0
   26.1946  -20.5272   -9.7845 C   0  0  0  0  0  0  0  0  0  0  0  0
   25.5528  -21.4248  -10.7635 C   0  0  2  0  0  0  0  0  0  0  0  0
   26.5234  -22.2140  -11.5281 N   0  0  0  0  0  0  0  0  0  0  0  0
   24.8015  -20.5452  -11.7672 C   0  0  0  0  0  0  0  0  0  0  0  0
   23.9446  -19.7559  -11.3495 O   0  0  0  0  0  0  0  0  0  0  0  0
   26.7903  -18.8961  -13.9482 N   0  0  0  0  0  0  0  0  0  0  0  0
   26.4998  -19.3772  -15.2325 C   0  0  0  0  0  0  0  0  0  0  0  0
   27.3699  -19.3133  -16.1331 O   0  0  0  0  0  0  0  0  0  0  0  0
   25.1787  -19.9617  -15.5428 C   0  0  0  0  0  0  0  0  0  0  0  0
   24.3895  -20.0771  -14.2470 C   0  0  2  0  0  0  0  0  0  0  0  0
   25.0885  -20.6384  -13.1461 N   0  0  0  0  0  0  0  0  0  0  0  0
   22.9969  -20.4862  -14.4333 C   0  0  0  0  0  0  0  0  0  0  0  0
   22.3170  -19.8606  -15.3068 O   0  0  0  0  0  0  0  0  0  0  0  0
   18.6099  -24.1096  -12.1159 N   0  0  0  0  0  0  0  0  0  0  0  0
   19.2903  -23.5762  -13.2643 C   0  0  0  0  0  0  0  0  0  0  0  0
   18.7297  -23.5593  -14.3773 O   0  0  0  0  0  0  0  0  0  0  0  0
   20.6526  -23.0600  -13.0702 C   0  0  0  0  0  0  0  0  0  0  0  0
   20.9092  -21.7755  -13.8473 C   0  0  2  0  0  0  0  0  0  0  0  0
   22.3143  -21.5088  -13.7454 N   0  0  0  0  0  0  0  0  0  0  0  0
   20.0492  -20.7264  -13.2876 C   0  0  0  0  0  0  0  0  0  0  0  0
   20.2244  -20.3192  -11.9690 O   0  0  0  0  0  0  0  0  0  0  0  0
   19.1428  -20.1570  -13.9301 O   0  0  0  0  0  0  0  0  0  0  0  0
  1  2  1  0
  2  3  1  0
  3  4  1  0
  5  4  1  0
  5  7  1  0
  5  6  1  6
  7  8  2  0
  9 10  1  0
 10 11  2  0
 12 10  1  0
 13 12  1  6
 14 13  1  0
 14  7  1  0
 15 13  1  0
 15 16  2  0
 17 18  1  0
 18 20  1  0
 19 18  2  0
 21 20  1  1
 21 22  1  0
 21 23  1  0
 22 15  1  0
 23 24  1  0
 25 23  2  0
M  END
$$$$
