MNN.pdb
     RDKit          3D

 25 24  0  0  1  0  0  0  0  0999 V2000
   30.7557  -21.2279   -9.5227 C   0  0  0  0  0  0  0  0  0  0  0  0
   30.8552  -22.2906  -10.9785 S   0  0  0  0  0  0  0  0  0  0  0  0
   30.5547  -21.4572  -12.5037 C   0  0  0  0  0  0  0  0  0  0  0  0
   29.4280  -20.5238  -12.6301 C   0  0  0  0  0  0  0  0  0  0  0  0
   28.0848  -21.0077  -13.0013 C   0  0  2  0  0  0  0  0  0  0  0  0
   28.1164  -21.9736  -14.1038 N   0  0  0  0  0  0  0  0  0  0  0  0
   27.2811  -19.7986  -13.4887 C   0  0  0  0  0  0  0  0  0  0  0  0
   27.8377  -18.6951  -13.5539 O   0  0  0  0  0  0  0  0  0  0  0  0
   24.2350  -17.5989  -17.6220 N   0  0  0  0  0  0  0  0  0  0  0  0
   24.9088  -17.4254  -16.4049 C   0  0  0  0  0  0  0  0  0  0  0  0
   24.7646  -16.3600  -15.7596 O   0  0  0  0  0  0  0  0  0  0  0  0
   25.7896  -18.4832  -15.8679 C   0  0  0  0  0  0  0  0  0  0  0  0
   25.1140  -19.0970  -14.6505 C   0  0  2  0  0  0  0  0  0  0  0  0
   25.9268  -19.9489  -13.8571 N   0  0  0  0  0  0  0  0  0  0  0  0
   23.7334  -19.5205  -14.8868 C   0  0  0  0  0  0  0  0  0  0  0  0
   23.0137  -18.7776  -15.6263 O   0  0  0  0  0  0  0  0  0  0  0  0
   23.0621  -23.2638  -15.4334 N   0  0  0  0  0  0  0  0  0  0  0  0
   22.1727  -23.4649  -14.3223 C   0  0  0  0  0  0  0  0  0  0  0  0
   22.0163  -24.6027  -13.8382 O   0  0  0  0  0  0  0  0  0  0  0  0
   21.4689  -22.2889  -13.7914 C   0  0  0  0  0  0  0  0  0  0  0  0
   21.7317  -21.0303  -14.6075 C   0  0  2  0  0  0  0  0  0  0  0  0
   23.1020  -20.6742  -14.3815 N   0  0  0  0  0  0  0  0  0  0  0  0
   20.7621  -20.0095  -14.1933 C   0  0  0  0  0  0  0  0  0  0  0  0
   19.6284  -19.7791  -14.9657 O   0  0  0  0  0  0  0  0  0  0  0  0
   20.8873  -19.3107  -13.1664 O   0  0  0  0  0  0  0  0  0  0  0  0
  1  2  1  0
  2  3  1  0
  3  4  1  0
  5  4  1  0
  5  7  1  0
  5  6  1  6
  7  8  2  0
  9 10  1  0
 10 11  2  0
 12 10  1  0
 13 12  1  6
 14 13  1  0
 14  7  1  0
 15 13  1  0
 15 16  2  0
 17 18  1  0
 18 20  1  0
 19 18  2  0
 21 20  1  1
 21 22  1  0
 21 23  1  0
 22 15  1  0
 23 24  1  0
 25 23  2  0
M  END
$$$$
