MNN.pdb
     RDKit          3D

 25 24  0  0  1  0  0  0  0  0999 V2000
   21.9496  -16.1446  -19.8351 C   0  0  0  0  0  0  0  0  0  0  0  0
   21.0191  -15.0367  -18.7558 S   0  0  0  0  0  0  0  0  0  0  0  0
   20.8807  -13.3857  -19.3608 C   0  0  0  0  0  0  0  0  0  0  0  0
   20.1230  -12.3795  -18.6057 C   0  0  0  0  0  0  0  0  0  0  0  0
   20.6267  -11.8644  -17.3184 C   0  0  2  0  0  0  0  0  0  0  0  0
   20.3980  -12.7947  -16.2087 N   0  0  0  0  0  0  0  0  0  0  0  0
   19.8450  -10.5866  -16.9993 C   0  0  0  0  0  0  0  0  0  0  0  0
   19.8661   -9.6521  -17.8105 O   0  0  0  0  0  0  0  0  0  0  0  0
   15.6630  -11.8144  -15.4140 N   0  0  0  0  0  0  0  0  0  0  0  0
   16.1656  -10.5314  -15.6724 C   0  0  0  0  0  0  0  0  0  0  0  0
   15.9140   -9.9727  -16.7664 O   0  0  0  0  0  0  0  0  0  0  0  0
   16.9902   -9.8239  -14.6712 C   0  0  0  0  0  0  0  0  0  0  0  0
   18.3004   -9.4180  -15.3299 C   0  0  2  0  0  0  0  0  0  0  0  0
   19.1133  -10.4844  -15.7966 N   0  0  0  0  0  0  0  0  0  0  0  0
   18.9772   -8.3013  -14.6695 C   0  0  0  0  0  0  0  0  0  0  0  0
   19.2924   -8.4510  -13.4468 O   0  0  0  0  0  0  0  0  0  0  0  0
   22.2611   -5.1117  -12.5503 N   0  0  0  0  0  0  0  0  0  0  0  0
   22.3288   -5.3171  -13.9713 C   0  0  0  0  0  0  0  0  0  0  0  0
   23.0826   -4.6164  -14.6741 O   0  0  0  0  0  0  0  0  0  0  0  0
   21.4846   -6.3729  -14.5481 C   0  0  0  0  0  0  0  0  0  0  0  0
   20.0078   -6.0012  -14.5613 C   0  0  2  0  0  0  0  0  0  0  0  0
   19.3244   -7.0618  -15.2423 N   0  0  0  0  0  0  0  0  0  0  0  0
   19.8760   -4.6856  -15.1981 C   0  0  0  0  0  0  0  0  0  0  0  0
   19.7406   -4.5968  -16.5796 O   0  0  0  0  0  0  0  0  0  0  0  0
   19.8783   -3.6075  -14.5686 O   0  0  0  0  0  0  0  0  0  0  0  0
  1  2  1  0
  2  3  1  0
  3  4  1  0
  5  4  1  0
  5  7  1  0
  5  6  1  1
  7  8  2  0
  9 10  1  0
 10 11  2  0
 12 10  1  0
 13 12  1  1
 14 13  1  0
 14  7  1  0
 15 13  1  0
 15 16  2  0
 17 18  1  0
 18 20  1  0
 19 18  2  0
 21 20  1  6
 21 22  1  0
 21 23  1  0
 22 15  1  0
 23 24  1  0
 25 23  2  0
M  END
$$$$
