MNN.pdb
     RDKit          3D

 25 24  0  0  1  0  0  0  0  0999 V2000
   30.3452  -22.2952  -10.6002 C   0  0  0  0  0  0  0  0  0  0  0  0
   30.5174  -20.5840  -11.1484 S   0  0  0  0  0  0  0  0  0  0  0  0
   29.9489  -20.2909  -12.7922 C   0  0  0  0  0  0  0  0  0  0  0  0
   28.5796  -19.8165  -13.0305 C   0  0  0  0  0  0  0  0  0  0  0  0
   27.4768  -20.7719  -13.2477 C   0  0  2  0  0  0  0  0  0  0  0  0
   27.6933  -21.6291  -14.4171 N   0  0  0  0  0  0  0  0  0  0  0  0
   26.2104  -19.9548  -13.5202 C   0  0  0  0  0  0  0  0  0  0  0  0
   26.3122  -18.7363  -13.7114 O   0  0  0  0  0  0  0  0  0  0  0  0
   22.1281  -17.6269  -15.4525 N   0  0  0  0  0  0  0  0  0  0  0  0
   22.5299  -18.9104  -15.8484 C   0  0  0  0  0  0  0  0  0  0  0  0
   21.7553  -19.6229  -16.5300 O   0  0  0  0  0  0  0  0  0  0  0  0
   23.8580  -19.4387  -15.4739 C   0  0  0  0  0  0  0  0  0  0  0  0
   23.7335  -20.1379  -14.1282 C   0  0  2  0  0  0  0  0  0  0  0  0
   24.9500  -20.5895  -13.5521 N   0  0  0  0  0  0  0  0  0  0  0  0
   22.5747  -21.0254  -14.0241 C   0  0  0  0  0  0  0  0  0  0  0  0
   22.6153  -22.1167  -14.6754 O   0  0  0  0  0  0  0  0  0  0  0  0
   18.3892  -22.7924  -10.0304 N   0  0  0  0  0  0  0  0  0  0  0  0
   18.8374  -22.6911  -11.3924 C   0  0  0  0  0  0  0  0  0  0  0  0
   18.3628  -23.4391  -12.2691 O   0  0  0  0  0  0  0  0  0  0  0  0
   19.8618  -21.6831  -11.6996 C   0  0  0  0  0  0  0  0  0  0  0  0
   20.3150  -21.7314  -13.1527 C   0  0  2  0  0  0  0  0  0  0  0  0
   21.4028  -20.8053  -13.2736 N   0  0  0  0  0  0  0  0  0  0  0  0
   19.1573  -21.4232  -14.0003 C   0  0  0  0  0  0  0  0  0  0  0  0
   18.5307  -22.4412  -14.7116 O   0  0  0  0  0  0  0  0  0  0  0  0
   18.6812  -20.2768  -14.1333 O   0  0  0  0  0  0  0  0  0  0  0  0
  1  2  1  0
  2  3  1  0
  3  4  1  0
  5  4  1  0
  5  7  1  0
  5  6  1  6
  7  8  2  0
  9 10  1  0
 10 11  2  0
 12 10  1  0
 13 12  1  6
 14 13  1  0
 14  7  1  0
 15 13  1  0
 15 16  2  0
 17 18  1  0
 18 20  1  0
 19 18  2  0
 21 20  1  1
 21 22  1  0
 21 23  1  0
 22 15  1  0
 23 24  1  0
 25 23  2  0
M  END
$$$$
