MNN.pdb
     RDKit          3D

 25 24  0  0  1  0  0  0  0  0999 V2000
   28.8770  -16.3295  -17.6396 C   0  0  0  0  0  0  0  0  0  0  0  0
   28.3001  -17.5466  -16.4378 S   0  0  0  0  0  0  0  0  0  0  0  0
   26.6317  -18.0656  -16.6786 C   0  0  0  0  0  0  0  0  0  0  0  0
   26.0249  -19.0550  -15.7786 C   0  0  0  0  0  0  0  0  0  0  0  0
   26.8653  -19.9999  -15.0189 C   0  0  2  0  0  0  0  0  0  0  0  0
   27.4805  -21.0213  -15.8718 N   0  0  0  0  0  0  0  0  0  0  0  0
   25.9522  -20.7323  -14.0313 C   0  0  0  0  0  0  0  0  0  0  0  0
   25.4422  -21.8079  -14.3701 O   0  0  0  0  0  0  0  0  0  0  0  0
   26.5380  -22.1604  -10.5876 N   0  0  0  0  0  0  0  0  0  0  0  0
   26.0721  -21.0819   -9.8228 C   0  0  0  0  0  0  0  0  0  0  0  0
   26.5339  -20.8880   -8.6732 O   0  0  0  0  0  0  0  0  0  0  0  0
   25.0412  -20.1654  -10.3526 C   0  0  0  0  0  0  0  0  0  0  0  0
   24.7359  -20.5664  -11.7882 C   0  0  2  0  0  0  0  0  0  0  0  0
   25.7020  -20.1830  -12.7553 N   0  0  0  0  0  0  0  0  0  0  0  0
   23.3271  -20.4250  -12.1584 C   0  0  0  0  0  0  0  0  0  0  0  0
   22.4673  -20.9805  -11.4042 O   0  0  0  0  0  0  0  0  0  0  0  0
   19.7816  -18.0410  -16.6725 N   0  0  0  0  0  0  0  0  0  0  0  0
   19.9746  -18.7436  -15.4334 C   0  0  0  0  0  0  0  0  0  0  0  0
   18.9956  -19.1795  -14.7971 O   0  0  0  0  0  0  0  0  0  0  0  0
   21.3542  -18.9225  -14.9593 C   0  0  0  0  0  0  0  0  0  0  0  0
   21.4314  -19.7322  -13.6718 C   0  0  2  0  0  0  0  0  0  0  0  0
   22.8079  -19.7335  -13.2707 N   0  0  0  0  0  0  0  0  0  0  0  0
   20.8747  -21.0636  -13.9382 C   0  0  0  0  0  0  0  0  0  0  0  0
   21.5242  -21.9207  -14.8204 O   0  0  0  0  0  0  0  0  0  0  0  0
   19.8264  -21.4941  -13.4143 O   0  0  0  0  0  0  0  0  0  0  0  0
  1  2  1  0
  2  3  1  0
  3  4  1  0
  5  4  1  0
  5  7  1  0
  5  6  1  6
  7  8  2  0
  9 10  1  0
 10 11  2  0
 12 10  1  0
 13 12  1  1
 14 13  1  0
 14  7  1  0
 15 13  1  0
 15 16  2  0
 17 18  1  0
 18 20  1  0
 19 18  2  0
 21 20  1  6
 21 22  1  0
 21 23  1  0
 22 15  1  0
 23 24  1  0
 25 23  2  0
M  END
$$$$
