NSY.pdb
     RDKit          3D

 27 27  0  0  1  0  0  0  0  0999 V2000
   27.8342  -24.7821  -16.3483 N   0  0  0  0  0  0  0  0  0  0  0  0
   26.9584  -24.7385  -17.4929 C   0  0  0  0  0  0  0  0  0  0  0  0
   27.5404  -24.7633  -18.5953 O   0  0  0  0  0  0  0  0  0  0  0  0
   25.5089  -24.6695  -17.3502 C   0  0  0  0  0  0  0  0  0  0  0  0
   24.9500  -24.6959  -15.9557 C   0  0  2  0  0  0  0  0  0  0  0  0
   25.3857  -25.9678  -15.3579 N   0  0  0  0  0  0  0  0  0  0  0  0
   23.4819  -24.5700  -15.8673 C   0  0  0  0  0  0  0  0  0  0  0  0
   22.9062  -23.6600  -16.4925 O   0  0  0  0  0  0  0  0  0  0  0  0
   21.3652  -26.7552  -13.2175 O   0  0  0  0  0  0  0  0  0  0  0  0
   20.6490  -26.5022  -14.3842 C   0  0  0  0  0  0  0  0  0  0  0  0
   21.2710  -25.2879  -15.0464 C   0  0  2  0  0  0  0  0  0  0  0  0
   22.6895  -25.4689  -15.0765 N   0  0  0  0  0  0  0  0  0  0  0  0
   20.8691  -24.0596  -14.3169 C   0  0  0  0  0  0  0  0  0  0  0  0
   21.3788  -23.7026  -13.2230 O   0  0  0  0  0  0  0  0  0  0  0  0
   25.6604  -20.5566  -14.8760 O   0  0  0  0  0  0  0  0  0  0  0  0
   24.2707  -20.6249  -14.8577 C   0  0  0  0  0  0  0  0  0  0  0  0
   23.6106  -21.0849  -15.9859 C   0  0  0  0  0  0  0  0  0  0  0  0
   22.2390  -21.1632  -15.9980 C   0  0  0  0  0  0  0  0  0  0  0  0
   21.4807  -20.7850  -14.8838 C   0  0  0  0  0  0  0  0  0  0  0  0
   20.0210  -20.8665  -14.9144 C   0  0  0  0  0  0  0  0  0  0  0  0
   19.4337  -22.0265  -14.1307 C   0  0  2  0  0  0  0  0  0  0  0  0
   19.8644  -23.2359  -14.8659 N   0  0  0  0  0  0  0  0  0  0  0  0
   17.9536  -21.9316  -14.1837 C   0  0  0  0  0  0  0  0  0  0  0  0
   17.2045  -21.0042  -13.4774 O   0  0  0  0  0  0  0  0  0  0  0  0
   22.1615  -20.3359  -13.7886 C   0  0  0  0  0  0  0  0  0  0  0  0
   23.5481  -20.2490  -13.7556 C   0  0  0  0  0  0  0  0  0  0  0  0
   17.3368  -22.7442  -14.9157 O   0  0  0  0  0  0  0  0  0  0  0  0
  2  1  1  0
  2  3  2  0
  4  2  1  0
  5  4  1  0
  5  6  1  6
  7  5  1  0
  7  8  2  0
 10  9  1  0
 11 10  1  1
 11 12  1  0
 12  7  1  0
 13 22  1  0
 13 11  1  0
 14 13  2  0
 16 15  1  0
 16 26  2  0
 17 16  1  0
 18 17  2  0
 18 19  1  0
 19 20  1  0
 19 25  2  0
 21 20  1  6
 21 22  1  0
 21 23  1  0
 23 27  2  0
 23 24  1  0
 25 26  1  0
M  END
$$$$
