NSY.pdb
     RDKit          3D

 27 27  0  0  1  0  0  0  0  0999 V2000
   19.2417  -11.7298  -21.5572 N   0  0  0  0  0  0  0  0  0  0  0  0
   19.2329  -10.3032  -21.3487 C   0  0  0  0  0  0  0  0  0  0  0  0
   19.2785   -9.6238  -22.3933 O   0  0  0  0  0  0  0  0  0  0  0  0
   19.1761   -9.7213  -20.0130 C   0  0  0  0  0  0  0  0  0  0  0  0
   19.1939  -10.6674  -18.8459 C   0  0  2  0  0  0  0  0  0  0  0  0
   17.8189  -11.1698  -18.6979 N   0  0  0  0  0  0  0  0  0  0  0  0
   19.6606  -10.0831  -17.5733 C   0  0  0  0  0  0  0  0  0  0  0  0
   18.8429   -9.5214  -16.8207 O   0  0  0  0  0  0  0  0  0  0  0  0
   22.9678   -9.5892  -14.1949 O   0  0  0  0  0  0  0  0  0  0  0  0
   22.6596  -10.1803  -15.4172 C   0  0  0  0  0  0  0  0  0  0  0  0
   21.4280   -9.4834  -15.9627 C   0  0  2  0  0  0  0  0  0  0  0  0
   21.0379  -10.1402  -17.1719 N   0  0  0  0  0  0  0  0  0  0  0  0
   21.7176   -8.0421  -16.1655 C   0  0  0  0  0  0  0  0  0  0  0  0
   22.3321   -7.5906  -17.1665 O   0  0  0  0  0  0  0  0  0  0  0  0
   18.4782   -5.4007  -20.9094 O   0  0  0  0  0  0  0  0  0  0  0  0
   18.9173   -5.3131  -19.5920 C   0  0  0  0  0  0  0  0  0  0  0  0
   19.9464   -4.4360  -19.2889 C   0  0  0  0  0  0  0  0  0  0  0  0
   20.4018   -4.3277  -17.9973 C   0  0  0  0  0  0  0  0  0  0  0  0
   19.8447   -5.0916  -16.9650 C   0  0  0  0  0  0  0  0  0  0  0  0
   20.3453   -4.9713  -15.5963 C   0  0  0  0  0  0  0  0  0  0  0  0
   21.6570   -5.6893  -15.3350 C   0  0  2  0  0  0  0  0  0  0  0  0
   21.2863   -7.1146  -15.1943 N   0  0  0  0  0  0  0  0  0  0  0  0
   22.2121   -5.2061  -14.0464 C   0  0  0  0  0  0  0  0  0  0  0  0
   22.6691   -3.9163  -13.8273 O   0  0  0  0  0  0  0  0  0  0  0  0
   18.8329   -5.9464  -17.2971 C   0  0  0  0  0  0  0  0  0  0  0  0
   18.3575   -6.0709  -18.5969 C   0  0  0  0  0  0  0  0  0  0  0  0
   22.2731   -6.0171  -13.0898 O   0  0  0  0  0  0  0  0  0  0  0  0
  2  1  1  0
  2  3  2  0
  4  2  1  0
  5  4  1  0
  5  6  1  1
  7  5  1  0
  7  8  2  0
 10  9  1  0
 11 10  1  6
 11 12  1  0
 12  7  1  0
 13 22  1  0
 13 11  1  0
 14 13  2  0
 16 15  1  0
 16 26  2  0
 17 16  1  0
 18 17  2  0
 18 19  1  0
 19 20  1  0
 19 25  2  0
 21 20  1  1
 21 22  1  0
 21 23  1  0
 23 27  2  0
 23 24  1  0
 25 26  1  0
M  END
$$$$
