NSY.pdb
     RDKit          3D

 27 27  0  0  1  0  0  0  0  0999 V2000
   18.7613  -15.2464  -18.3484 N   0  0  0  0  0  0  0  0  0  0  0  0
   18.1138  -13.9769  -18.5673 C   0  0  0  0  0  0  0  0  0  0  0  0
   17.2575  -13.9784  -19.4738 O   0  0  0  0  0  0  0  0  0  0  0  0
   18.4497  -12.7962  -17.7805 C   0  0  0  0  0  0  0  0  0  0  0  0
   19.5309  -12.9393  -16.7471 C   0  0  2  0  0  0  0  0  0  0  0  0
   18.9765  -13.7888  -15.6813 N   0  0  0  0  0  0  0  0  0  0  0  0
   20.0257  -11.6700  -16.1788 C   0  0  0  0  0  0  0  0  0  0  0  0
   19.2337  -10.9146  -15.5852 O   0  0  0  0  0  0  0  0  0  0  0  0
   23.7985  -10.2527  -16.9437 O   0  0  0  0  0  0  0  0  0  0  0  0
   23.3150   -9.9863  -15.6655 C   0  0  0  0  0  0  0  0  0  0  0  0
   21.8004  -10.0173  -15.7357 C   0  0  2  0  0  0  0  0  0  0  0  0
   21.4012  -11.2739  -16.2901 N   0  0  0  0  0  0  0  0  0  0  0  0
   21.3129   -8.8633  -16.5313 C   0  0  0  0  0  0  0  0  0  0  0  0
   20.7962   -8.9749  -17.6734 O   0  0  0  0  0  0  0  0  0  0  0  0
   16.7438   -2.4401  -19.5949 O   0  0  0  0  0  0  0  0  0  0  0  0
   17.4017   -3.4504  -18.9000 C   0  0  0  0  0  0  0  0  0  0  0  0
   18.1774   -4.3524  -19.6104 C   0  0  0  0  0  0  0  0  0  0  0  0
   18.8387   -5.3609  -18.9521 C   0  0  0  0  0  0  0  0  0  0  0  0
   18.7475   -5.5022  -17.5624 C   0  0  0  0  0  0  0  0  0  0  0  0
   19.4507   -6.5854  -16.8766 C   0  0  0  0  0  0  0  0  0  0  0  0
   20.9553   -6.4062  -16.7834 C   0  0  2  0  0  0  0  0  0  0  0  0
   21.4257   -7.5646  -15.9926 N   0  0  0  0  0  0  0  0  0  0  0  0
   21.2372   -5.1603  -16.0278 C   0  0  0  0  0  0  0  0  0  0  0  0
   21.6470   -5.1250  -14.7046 O   0  0  0  0  0  0  0  0  0  0  0  0
   17.9749   -4.5973  -16.8923 C   0  0  0  0  0  0  0  0  0  0  0  0
   17.2981   -3.5701  -17.5388 C   0  0  0  0  0  0  0  0  0  0  0  0
   21.0957   -4.0646  -16.6243 O   0  0  0  0  0  0  0  0  0  0  0  0
  2  1  1  0
  2  3  2  0
  4  2  1  0
  5  4  1  0
  5  6  1  1
  7  5  1  0
  7  8  2  0
 10  9  1  0
 11 10  1  6
 11 12  1  0
 12  7  1  0
 13 22  1  0
 13 11  1  0
 14 13  2  0
 16 15  1  0
 16 26  2  0
 17 16  1  0
 18 17  2  0
 18 19  1  0
 19 20  1  0
 19 25  2  0
 21 20  1  1
 21 22  1  0
 21 23  1  0
 23 27  2  0
 23 24  1  0
 25 26  1  0
M  END
$$$$
