NSY.pdb
     RDKit          3D

 27 27  0  0  1  0  0  0  0  0999 V2000
   17.6114  -14.8740  -16.1191 N   0  0  0  0  0  0  0  0  0  0  0  0
   18.9169  -14.2630  -16.0821 C   0  0  0  0  0  0  0  0  0  0  0  0
   19.8524  -15.0120  -16.4267 O   0  0  0  0  0  0  0  0  0  0  0  0
   19.1064  -12.8774  -15.6696 C   0  0  0  0  0  0  0  0  0  0  0  0
   17.8807  -12.0963  -15.2885 C   0  0  2  0  0  0  0  0  0  0  0  0
   17.2676  -11.6457  -16.5479 N   0  0  0  0  0  0  0  0  0  0  0  0
   18.1247  -10.9421  -14.4013 C   0  0  0  0  0  0  0  0  0  0  0  0
   18.5709  -11.1342  -13.2548 O   0  0  0  0  0  0  0  0  0  0  0  0
   19.7166   -7.2443  -14.8280 O   0  0  0  0  0  0  0  0  0  0  0  0
   18.3406   -7.2620  -14.6167 C   0  0  0  0  0  0  0  0  0  0  0  0
   18.0111   -8.5382  -13.8667 C   0  0  2  0  0  0  0  0  0  0  0  0
   17.8612   -9.5942  -14.8197 N   0  0  0  0  0  0  0  0  0  0  0  0
   16.7918   -8.3351  -13.0455 C   0  0  0  0  0  0  0  0  0  0  0  0
   15.6327   -8.6293  -13.4374 O   0  0  0  0  0  0  0  0  0  0  0  0
   11.8236   -7.0422   -5.8654 O   0  0  0  0  0  0  0  0  0  0  0  0
   12.8618   -7.2361   -6.7715 C   0  0  0  0  0  0  0  0  0  0  0  0
   12.8308   -8.3520   -7.5924 C   0  0  0  0  0  0  0  0  0  0  0  0
   13.8417   -8.5707   -8.4966 C   0  0  0  0  0  0  0  0  0  0  0  0
   14.9173   -7.6822   -8.6116 C   0  0  0  0  0  0  0  0  0  0  0  0
   15.9900   -7.9324   -9.5733 C   0  0  0  0  0  0  0  0  0  0  0  0
   15.7053   -7.4450  -10.9825 C   0  0  2  0  0  0  0  0  0  0  0  0
   16.9215   -7.7851  -11.7532 N   0  0  0  0  0  0  0  0  0  0  0  0
   15.5518   -5.9693  -10.9505 C   0  0  0  0  0  0  0  0  0  0  0  0
   14.3356   -5.3122  -10.8544 O   0  0  0  0  0  0  0  0  0  0  0  0
   14.9179   -6.5929   -7.7881 C   0  0  0  0  0  0  0  0  0  0  0  0
   13.9054   -6.3531   -6.8668 C   0  0  0  0  0  0  0  0  0  0  0  0
   16.5909   -5.2672  -11.0148 O   0  0  0  0  0  0  0  0  0  0  0  0
  2  1  1  0
  2  3  2  0
  4  2  1  0
  5  4  1  0
  5  6  1  6
  7  5  1  0
  7  8  2  0
 10  9  1  0
 11 10  1  6
 11 12  1  0
 12  7  1  0
 13 22  1  0
 13 11  1  0
 14 13  2  0
 16 15  1  0
 16 26  2  0
 17 16  1  0
 18 17  2  0
 18 19  1  0
 19 20  1  0
 19 25  2  0
 21 20  1  1
 21 22  1  0
 21 23  1  0
 23 27  2  0
 23 24  1  0
 25 26  1  0
M  END
$$$$
