NSY.pdb
     RDKit          3D

 27 27  0  0  1  0  0  0  0  0999 V2000
   17.1963  -13.9296  -16.7078 N   0  0  0  0  0  0  0  0  0  0  0  0
   17.5721  -13.2426  -15.4971 C   0  0  0  0  0  0  0  0  0  0  0  0
   17.0310  -13.6783  -14.4617 O   0  0  0  0  0  0  0  0  0  0  0  0
   18.5116  -12.1277  -15.5053 C   0  0  0  0  0  0  0  0  0  0  0  0
   19.0104  -11.6543  -16.8413 C   0  0  2  0  0  0  0  0  0  0  0  0
   19.9610  -12.6731  -17.3141 N   0  0  0  0  0  0  0  0  0  0  0  0
   19.6524  -10.3252  -16.8347 C   0  0  0  0  0  0  0  0  0  0  0  0
   20.8778  -10.2377  -16.6321 O   0  0  0  0  0  0  0  0  0  0  0  0
   17.5629   -6.7609  -16.8358 O   0  0  0  0  0  0  0  0  0  0  0  0
   18.6706   -6.8244  -17.6768 C   0  0  0  0  0  0  0  0  0  0  0  0
   19.6083   -7.8765  -17.1166 C   0  0  2  0  0  0  0  0  0  0  0  0
   18.9040   -9.1198  -17.0548 N   0  0  0  0  0  0  0  0  0  0  0  0
   20.1131   -7.4414  -15.7906 C   0  0  0  0  0  0  0  0  0  0  0  0
   19.6868   -7.9012  -14.6995 O   0  0  0  0  0  0  0  0  0  0  0  0
   26.5169   -5.5429  -18.5692 O   0  0  0  0  0  0  0  0  0  0  0  0
   25.6560   -5.7882  -17.5039 C   0  0  0  0  0  0  0  0  0  0  0  0
   25.1023   -7.0515  -17.3711 C   0  0  0  0  0  0  0  0  0  0  0  0
   24.2484   -7.3238  -16.3298 C   0  0  0  0  0  0  0  0  0  0  0  0
   23.9190   -6.3438  -15.3861 C   0  0  0  0  0  0  0  0  0  0  0  0
   23.0025   -6.6462  -14.2876 C   0  0  0  0  0  0  0  0  0  0  0  0
   21.6286   -6.0132  -14.4151 C   0  0  2  0  0  0  0  0  0  0  0  0
   21.1263   -6.4620  -15.7323 N   0  0  0  0  0  0  0  0  0  0  0  0
   21.7878   -4.5379  -14.4370 C   0  0  0  0  0  0  0  0  0  0  0  0
   22.2057   -3.7811  -13.3540 O   0  0  0  0  0  0  0  0  0  0  0  0
   24.4811   -5.1095  -15.5458 C   0  0  0  0  0  0  0  0  0  0  0  0
   25.3471   -4.8134  -16.5916 C   0  0  0  0  0  0  0  0  0  0  0  0
   21.5272   -3.9328  -15.5059 O   0  0  0  0  0  0  0  0  0  0  0  0
  2  1  1  0
  2  3  2  0
  4  2  1  0
  5  4  1  0
  5  6  1  1
  7  5  1  0
  7  8  2  0
 10  9  1  0
 11 10  1  1
 11 12  1  0
 12  7  1  0
 13 22  1  0
 13 11  1  0
 14 13  2  0
 16 15  1  0
 16 26  2  0
 17 16  1  0
 18 17  2  0
 18 19  1  0
 19 20  1  0
 19 25  2  0
 21 20  1  6
 21 22  1  0
 21 23  1  0
 23 27  2  0
 23 24  1  0
 25 26  1  0
M  END
$$$$
