NSY.pdb
     RDKit          3D

 27 27  0  0  1  0  0  0  0  0999 V2000
   29.6871  -24.1943  -17.9124 N   0  0  0  0  0  0  0  0  0  0  0  0
   29.9778  -23.6077  -16.6277 C   0  0  0  0  0  0  0  0  0  0  0  0
   30.9674  -24.0936  -16.0451 O   0  0  0  0  0  0  0  0  0  0  0  0
   29.1649  -22.5327  -16.0712 C   0  0  0  0  0  0  0  0  0  0  0  0
   27.9415  -22.1223  -16.8411 C   0  0  2  0  0  0  0  0  0  0  0  0
   28.4231  -21.4415  -18.0533 N   0  0  0  0  0  0  0  0  0  0  0  0
   27.0038  -21.2498  -16.1075 C   0  0  0  0  0  0  0  0  0  0  0  0
   27.0314  -21.2300  -14.8628 O   0  0  0  0  0  0  0  0  0  0  0  0
   24.5136  -18.6620  -18.0549 O   0  0  0  0  0  0  0  0  0  0  0  0
   24.9203  -18.3126  -16.7700 C   0  0  0  0  0  0  0  0  0  0  0  0
   25.1761  -19.5984  -16.0077 C   0  0  2  0  0  0  0  0  0  0  0  0
   26.0519  -20.4173  -16.7875 N   0  0  0  0  0  0  0  0  0  0  0  0
   23.8857  -20.2681  -15.7095 C   0  0  0  0  0  0  0  0  0  0  0  0
   23.4489  -21.2551  -16.3565 O   0  0  0  0  0  0  0  0  0  0  0  0
   16.6462  -22.2581  -10.9811 O   0  0  0  0  0  0  0  0  0  0  0  0
   17.8747  -21.7988  -11.4459 C   0  0  0  0  0  0  0  0  0  0  0  0
   18.0223  -20.4480  -11.7175 C   0  0  0  0  0  0  0  0  0  0  0  0
   19.2231  -19.9648  -12.1780 C   0  0  0  0  0  0  0  0  0  0  0  0
   20.3167  -20.8143  -12.3827 C   0  0  0  0  0  0  0  0  0  0  0  0
   21.5862  -20.2867  -12.8809 C   0  0  0  0  0  0  0  0  0  0  0  0
   21.7763  -20.4034  -14.3825 C   0  0  2  0  0  0  0  0  0  0  0  0
   23.0948  -19.7861  -14.6458 N   0  0  0  0  0  0  0  0  0  0  0  0
   20.7252  -19.6009  -15.0560 C   0  0  0  0  0  0  0  0  0  0  0  0
   19.5219  -20.1150  -15.5118 O   0  0  0  0  0  0  0  0  0  0  0  0
   20.1381  -22.1395  -12.1061 C   0  0  0  0  0  0  0  0  0  0  0  0
   18.9321  -22.6487  -11.6394 C   0  0  0  0  0  0  0  0  0  0  0  0
   20.9376  -18.3750  -15.2254 O   0  0  0  0  0  0  0  0  0  0  0  0
  2  1  1  0
  2  3  2  0
  4  2  1  0
  5  4  1  0
  5  6  1  6
  7  5  1  0
  7  8  2  0
 10  9  1  0
 11 10  1  6
 11 12  1  0
 12  7  1  0
 13 22  1  0
 13 11  1  0
 14 13  2  0
 16 15  1  0
 16 26  2  0
 17 16  1  0
 18 17  2  0
 18 19  1  0
 19 20  1  0
 19 25  2  0
 21 20  1  1
 21 22  1  0
 21 23  1  0
 23 27  2  0
 23 24  1  0
 25 26  1  0
M  END
$$$$
