NSY.pdb
     RDKit          3D

 27 27  0  0  1  0  0  0  0  0999 V2000
   22.3763  -32.6610  -11.3354 N   0  0  0  0  0  0  0  0  0  0  0  0
   22.3955  -33.0731   -9.9538 C   0  0  0  0  0  0  0  0  0  0  0  0
   21.3041  -32.9604   -9.3614 O   0  0  0  0  0  0  0  0  0  0  0  0
   23.6070  -33.5777   -9.3183 C   0  0  0  0  0  0  0  0  0  0  0  0
   24.1285  -32.8232   -8.1282 C   0  0  2  0  0  0  0  0  0  0  0  0
   24.8166  -31.6357   -8.6587 N   0  0  0  0  0  0  0  0  0  0  0  0
   25.0376  -33.5874   -7.2517 C   0  0  0  0  0  0  0  0  0  0  0  0
   24.5613  -34.3192   -6.3641 O   0  0  0  0  0  0  0  0  0  0  0  0
   29.4409  -35.2300   -6.3701 O   0  0  0  0  0  0  0  0  0  0  0  0
   28.7098  -34.2558   -7.0444 C   0  0  0  0  0  0  0  0  0  0  0  0
   27.2789  -34.3351   -6.5482 C   0  0  2  0  0  0  0  0  0  0  0  0
   26.4648  -33.5131   -7.3892 N   0  0  0  0  0  0  0  0  0  0  0  0
   27.2203  -33.9257   -5.1230 C   0  0  0  0  0  0  0  0  0  0  0  0
   27.1065  -32.7301   -4.7472 O   0  0  0  0  0  0  0  0  0  0  0  0
   22.1622  -38.1876   -1.0990 O   0  0  0  0  0  0  0  0  0  0  0  0
   23.0757  -37.1946   -1.4390 C   0  0  0  0  0  0  0  0  0  0  0  0
   22.6107  -35.9082   -1.6604 C   0  0  0  0  0  0  0  0  0  0  0  0
   23.4884  -34.9066   -1.9980 C   0  0  0  0  0  0  0  0  0  0  0  0
   24.8599  -35.1561   -2.1257 C   0  0  0  0  0  0  0  0  0  0  0  0
   25.7810  -34.0816   -2.4935 C   0  0  0  0  0  0  0  0  0  0  0  0
   27.2192  -34.5215   -2.6994 C   0  0  2  0  0  0  0  0  0  0  0  0
   27.2933  -34.9176   -4.1229 N   0  0  0  0  0  0  0  0  0  0  0  0
   27.4748  -35.7137   -1.8534 C   0  0  0  0  0  0  0  0  0  0  0  0
   27.6920  -36.9901   -2.3472 O   0  0  0  0  0  0  0  0  0  0  0  0
   25.2854  -36.4342   -1.9014 C   0  0  0  0  0  0  0  0  0  0  0  0
   24.4145  -37.4615   -1.5589 C   0  0  0  0  0  0  0  0  0  0  0  0
   27.4961  -35.5587   -0.6075 O   0  0  0  0  0  0  0  0  0  0  0  0
  2  1  1  0
  2  3  2  0
  4  2  1  0
  5  4  1  0
  5  6  1  6
  7  5  1  0
  7  8  2  0
 10  9  1  0
 11 10  1  6
 11 12  1  0
 12  7  1  0
 13 22  1  0
 13 11  1  0
 14 13  2  0
 16 15  1  0
 16 26  2  0
 17 16  1  0
 18 17  2  0
 18 19  1  0
 19 20  1  0
 19 25  2  0
 21 20  1  1
 21 22  1  0
 21 23  1  0
 23 27  2  0
 23 24  1  0
 25 26  1  0
M  END
$$$$
