NSY.pdb
     RDKit          3D

 27 27  0  0  1  0  0  0  0  0999 V2000
   28.7553  -18.8037  -17.0084 N   0  0  0  0  0  0  0  0  0  0  0  0
   27.4598  -18.2897  -16.6390 C   0  0  0  0  0  0  0  0  0  0  0  0
   27.2388  -17.1197  -17.0091 O   0  0  0  0  0  0  0  0  0  0  0  0
   26.4992  -19.0912  -15.8902 C   0  0  0  0  0  0  0  0  0  0  0  0
   26.9235  -20.4728  -15.4793 C   0  0  2  0  0  0  0  0  0  0  0  0
   27.0582  -21.2518  -16.7203 N   0  0  0  0  0  0  0  0  0  0  0  0
   26.0070  -21.1579  -14.5469 C   0  0  0  0  0  0  0  0  0  0  0  0
   25.0221  -21.7727  -14.9967 O   0  0  0  0  0  0  0  0  0  0  0  0
   26.1051  -20.5407  -10.4126 O   0  0  0  0  0  0  0  0  0  0  0  0
   25.7455  -21.8020  -10.8795 C   0  0  0  0  0  0  0  0  0  0  0  0
   25.1756  -21.6264  -12.2739 C   0  0  2  0  0  0  0  0  0  0  0  0
   26.2147  -21.1374  -13.1264 N   0  0  0  0  0  0  0  0  0  0  0  0
   24.0041  -20.7166  -12.2244 C   0  0  0  0  0  0  0  0  0  0  0  0
   24.0983  -19.4685  -12.0936 O   0  0  0  0  0  0  0  0  0  0  0  0
   21.0687  -22.2908  -18.3776 O   0  0  0  0  0  0  0  0  0  0  0  0
   21.2352  -21.6030  -17.1794 C   0  0  0  0  0  0  0  0  0  0  0  0
   20.1233  -21.3631  -16.3881 C   0  0  0  0  0  0  0  0  0  0  0  0
   20.2561  -20.6863  -15.1999 C   0  0  0  0  0  0  0  0  0  0  0  0
   21.5037  -20.2266  -14.7621 C   0  0  0  0  0  0  0  0  0  0  0  0
   21.6282  -19.5007  -13.4988 C   0  0  0  0  0  0  0  0  0  0  0  0
   21.5331  -20.3681  -12.2566 C   0  0  2  0  0  0  0  0  0  0  0  0
   22.7084  -21.2636  -12.3299 N   0  0  0  0  0  0  0  0  0  0  0  0
   20.2977  -21.1857  -12.3442 C   0  0  0  0  0  0  0  0  0  0  0  0
   20.2811  -22.5575  -12.5396 O   0  0  0  0  0  0  0  0  0  0  0  0
   22.5789  -20.4789  -15.5652 C   0  0  0  0  0  0  0  0  0  0  0  0
   22.4664  -21.1617  -16.7703 C   0  0  0  0  0  0  0  0  0  0  0  0
   19.1933  -20.5985  -12.2347 O   0  0  0  0  0  0  0  0  0  0  0  0
  2  1  1  0
  2  3  2  0
  4  2  1  0
  5  4  1  0
  5  6  1  6
  7  5  1  0
  7  8  2  0
 10  9  1  0
 11 10  1  1
 11 12  1  0
 12  7  1  0
 13 22  1  0
 13 11  1  0
 14 13  2  0
 16 15  1  0
 16 26  2  0
 17 16  1  0
 18 17  2  0
 18 19  1  0
 19 20  1  0
 19 25  2  0
 21 20  1  6
 21 22  1  0
 21 23  1  0
 23 27  2  0
 23 24  1  0
 25 26  1  0
M  END
$$$$
