NSY.pdb
     RDKit          3D

 27 27  0  0  1  0  0  0  0  0999 V2000
   17.0320  -13.5606  -19.0137 N   0  0  0  0  0  0  0  0  0  0  0  0
   18.2680  -12.8250  -18.9134 C   0  0  0  0  0  0  0  0  0  0  0  0
   19.0042  -12.9040  -19.9167 O   0  0  0  0  0  0  0  0  0  0  0  0
   18.6114  -12.0567  -17.7226 C   0  0  0  0  0  0  0  0  0  0  0  0
   20.0221  -12.1614  -17.2159 C   0  0  2  0  0  0  0  0  0  0  0  0
   20.1852  -13.5384  -16.7239 N   0  0  0  0  0  0  0  0  0  0  0  0
   20.3797  -11.1980  -16.1563 C   0  0  0  0  0  0  0  0  0  0  0  0
   19.6444  -11.0843  -15.1580 O   0  0  0  0  0  0  0  0  0  0  0  0
   24.0558  -10.1047  -15.2823 O   0  0  0  0  0  0  0  0  0  0  0  0
   23.0007   -9.9137  -14.3942 C   0  0  0  0  0  0  0  0  0  0  0  0
   21.8091   -9.4321  -15.1992 C   0  0  2  0  0  0  0  0  0  0  0  0
   21.5566  -10.3799  -16.2402 N   0  0  0  0  0  0  0  0  0  0  0  0
   22.0768   -8.0694  -15.7225 C   0  0  0  0  0  0  0  0  0  0  0  0
   22.3997   -7.8340  -16.9158 O   0  0  0  0  0  0  0  0  0  0  0  0
   20.9529   -0.2244  -18.6794 O   0  0  0  0  0  0  0  0  0  0  0  0
   20.9597   -1.4839  -18.0878 C   0  0  0  0  0  0  0  0  0  0  0  0
   21.8558   -2.4337  -18.5516 C   0  0  0  0  0  0  0  0  0  0  0  0
   21.8858   -3.6862  -17.9877 C   0  0  0  0  0  0  0  0  0  0  0  0
   21.0222   -4.0320  -16.9418 C   0  0  0  0  0  0  0  0  0  0  0  0
   21.0604   -5.3717  -16.3569 C   0  0  0  0  0  0  0  0  0  0  0  0
   22.1911   -5.6013  -15.3703 C   0  0  2  0  0  0  0  0  0  0  0  0
   21.9664   -6.9675  -14.8490 N   0  0  0  0  0  0  0  0  0  0  0  0
   22.0507   -4.6310  -14.2561 C   0  0  0  0  0  0  0  0  0  0  0  0
   22.7475   -3.4365  -14.1680 O   0  0  0  0  0  0  0  0  0  0  0  0
   20.1513   -3.0736  -16.5085 C   0  0  0  0  0  0  0  0  0  0  0  0
   20.1047   -1.8010  -17.0649 C   0  0  0  0  0  0  0  0  0  0  0  0
   21.2486   -4.9083  -13.3308 O   0  0  0  0  0  0  0  0  0  0  0  0
  2  1  1  0
  2  3  2  0
  4  2  1  0
  5  4  1  0
  5  6  1  1
  7  5  1  0
  7  8  2  0
 10  9  1  0
 11 10  1  6
 11 12  1  0
 12  7  1  0
 13 22  1  0
 13 11  1  0
 14 13  2  0
 16 15  1  0
 16 26  2  0
 17 16  1  0
 18 17  2  0
 18 19  1  0
 19 20  1  0
 19 25  2  0
 21 20  1  6
 21 22  1  0
 21 23  1  0
 23 27  2  0
 23 24  1  0
 25 26  1  0
M  END
$$$$
