NSY.pdb
     RDKit          3D

 27 27  0  0  1  0  0  0  0  0999 V2000
   18.3074  -13.0190  -19.5978 N   0  0  0  0  0  0  0  0  0  0  0  0
   17.7795  -12.2746  -18.4815 C   0  0  0  0  0  0  0  0  0  0  0  0
   16.5481  -12.3837  -18.3183 O   0  0  0  0  0  0  0  0  0  0  0  0
   18.6354  -11.4631  -17.6243 C   0  0  0  0  0  0  0  0  0  0  0  0
   20.1151  -11.5118  -17.8805 C   0  0  2  0  0  0  0  0  0  0  0  0
   20.5807  -12.8137  -17.3773 N   0  0  0  0  0  0  0  0  0  0  0  0
   20.8937  -10.4207  -17.2625 C   0  0  0  0  0  0  0  0  0  0  0  0
   21.1382  -10.4576  -16.0421 O   0  0  0  0  0  0  0  0  0  0  0  0
   21.5456   -6.7237  -19.0283 O   0  0  0  0  0  0  0  0  0  0  0  0
   22.6371   -7.3079  -18.3914 C   0  0  0  0  0  0  0  0  0  0  0  0
   22.0963   -8.2705  -17.3517 C   0  0  2  0  0  0  0  0  0  0  0  0
   21.3814   -9.3083  -18.0281 N   0  0  0  0  0  0  0  0  0  0  0  0
   21.2484   -7.5341  -16.3815 C   0  0  0  0  0  0  0  0  0  0  0  0
   20.0152   -7.7407  -16.2390 O   0  0  0  0  0  0  0  0  0  0  0  0
   17.6540   -4.8440   -9.1918 O   0  0  0  0  0  0  0  0  0  0  0  0
   18.4138   -5.3526  -10.2408 C   0  0  0  0  0  0  0  0  0  0  0  0
   18.0898   -4.9869  -11.5375 C   0  0  0  0  0  0  0  0  0  0  0  0
   18.8212   -5.4730  -12.5939 C   0  0  0  0  0  0  0  0  0  0  0  0
   19.9009   -6.3405  -12.3909 C   0  0  0  0  0  0  0  0  0  0  0  0
   20.6653   -6.8561  -13.5258 C   0  0  0  0  0  0  0  0  0  0  0  0
   21.0086   -5.8213  -14.5822 C   0  0  2  0  0  0  0  0  0  0  0  0
   21.8411   -6.5475  -15.5662 N   0  0  0  0  0  0  0  0  0  0  0  0
   21.8267   -4.7556  -13.9518 C   0  0  0  0  0  0  0  0  0  0  0  0
   21.3219   -3.5453  -13.5038 O   0  0  0  0  0  0  0  0  0  0  0  0
   20.1937   -6.6815  -11.1014 C   0  0  0  0  0  0  0  0  0  0  0  0
   19.4668   -6.2010  -10.0188 C   0  0  0  0  0  0  0  0  0  0  0  0
   23.0577   -4.9612  -13.8142 O   0  0  0  0  0  0  0  0  0  0  0  0
  2  1  1  0
  2  3  2  0
  4  2  1  0
  5  4  1  0
  5  6  1  1
  7  5  1  0
  7  8  2  0
 10  9  1  0
 11 10  1  6
 11 12  1  0
 12  7  1  0
 13 22  1  0
 13 11  1  0
 14 13  2  0
 16 15  1  0
 16 26  2  0
 17 16  1  0
 18 17  2  0
 18 19  1  0
 19 20  1  0
 19 25  2  0
 21 20  1  1
 21 22  1  0
 21 23  1  0
 23 27  2  0
 23 24  1  0
 25 26  1  0
M  END
$$$$
