NSY.pdb
     RDKit          3D

 27 27  0  0  1  0  0  0  0  0999 V2000
   22.3232  -17.0838  -20.4908 N   0  0  0  0  0  0  0  0  0  0  0  0
   22.8237  -17.0225  -19.1399 C   0  0  0  0  0  0  0  0  0  0  0  0
   22.8340  -15.8804  -18.6396 O   0  0  0  0  0  0  0  0  0  0  0  0
   23.2785  -18.2141  -18.4333 C   0  0  0  0  0  0  0  0  0  0  0  0
   24.6211  -18.1489  -17.7620 C   0  0  2  0  0  0  0  0  0  0  0  0
   25.6146  -17.9892  -18.8355 N   0  0  0  0  0  0  0  0  0  0  0  0
   24.9604  -19.3171  -16.9260 C   0  0  0  0  0  0  0  0  0  0  0  0
   24.1125  -19.7719  -16.1356 O   0  0  0  0  0  0  0  0  0  0  0  0
   28.7102  -21.1255  -16.9527 O   0  0  0  0  0  0  0  0  0  0  0  0
   27.5827  -21.9179  -16.7553 C   0  0  0  0  0  0  0  0  0  0  0  0
   26.5194  -21.0462  -16.1153 C   0  0  2  0  0  0  0  0  0  0  0  0
   26.2470  -19.9508  -16.9937 N   0  0  0  0  0  0  0  0  0  0  0  0
   26.9773  -20.6014  -14.7755 C   0  0  0  0  0  0  0  0  0  0  0  0
   27.6845  -19.5777  -14.5870 O   0  0  0  0  0  0  0  0  0  0  0  0
   20.6674  -20.2682  -11.7563 O   0  0  0  0  0  0  0  0  0  0  0  0
   22.0465  -20.1106  -11.8542 C   0  0  0  0  0  0  0  0  0  0  0  0
   22.8118  -20.2036  -10.7027 C   0  0  0  0  0  0  0  0  0  0  0  0
   24.1757  -20.0520  -10.7676 C   0  0  0  0  0  0  0  0  0  0  0  0
   24.8211  -19.8027  -11.9844 C   0  0  0  0  0  0  0  0  0  0  0  0
   26.2729  -19.6358  -12.0366 C   0  0  0  0  0  0  0  0  0  0  0  0
   27.0494  -20.9133  -12.3004 C   0  0  2  0  0  0  0  0  0  0  0  0
   26.6074  -21.3542  -13.6416 N   0  0  0  0  0  0  0  0  0  0  0  0
   26.6408  -21.9301  -11.2997 C   0  0  0  0  0  0  0  0  0  0  0  0
   26.9524  -21.8679   -9.9509 O   0  0  0  0  0  0  0  0  0  0  0  0
   24.0383  -19.7164  -13.1000 C   0  0  0  0  0  0  0  0  0  0  0  0
   22.6575  -19.8667  -13.0563 C   0  0  0  0  0  0  0  0  0  0  0  0
   25.9687  -22.9128  -11.6986 O   0  0  0  0  0  0  0  0  0  0  0  0
  2  1  1  0
  2  3  2  0
  4  2  1  0
  5  4  1  0
  5  6  1  6
  7  5  1  0
  7  8  2  0
 10  9  1  0
 11 10  1  6
 11 12  1  0
 12  7  1  0
 13 22  1  0
 13 11  1  0
 14 13  2  0
 16 15  1  0
 16 26  2  0
 17 16  1  0
 18 17  2  0
 18 19  1  0
 19 20  1  0
 19 25  2  0
 21 20  1  1
 21 22  1  0
 21 23  1  0
 23 27  2  0
 23 24  1  0
 25 26  1  0
M  END
$$$$
