NSY.pdb
     RDKit          3D

 27 27  0  0  1  0  0  0  0  0999 V2000
   23.7523  -12.2111  -22.6861 N   0  0  0  0  0  0  0  0  0  0  0  0
   23.1677  -11.1881  -21.8550 C   0  0  0  0  0  0  0  0  0  0  0  0
   22.4735  -10.3529  -22.4677 O   0  0  0  0  0  0  0  0  0  0  0  0
   23.3850  -11.1506  -20.4137 C   0  0  0  0  0  0  0  0  0  0  0  0
   24.2769  -12.2051  -19.8219 C   0  0  2  0  0  0  0  0  0  0  0  0
   23.5176  -13.4646  -19.8682 N   0  0  0  0  0  0  0  0  0  0  0  0
   24.7332  -11.9377  -18.4438 C   0  0  0  0  0  0  0  0  0  0  0  0
   24.0998  -12.4169  -17.4849 O   0  0  0  0  0  0  0  0  0  0  0  0
   28.1067  -10.3179  -15.4642 O   0  0  0  0  0  0  0  0  0  0  0  0
   27.7185  -10.4388  -16.7958 C   0  0  0  0  0  0  0  0  0  0  0  0
   26.2888  -10.9446  -16.8095 C   0  0  2  0  0  0  0  0  0  0  0  0
   25.8921  -11.1356  -18.1703 N   0  0  0  0  0  0  0  0  0  0  0  0
   25.4126   -9.9870  -16.0899 C   0  0  0  0  0  0  0  0  0  0  0  0
   25.5202   -9.7340  -14.8619 O   0  0  0  0  0  0  0  0  0  0  0  0
   21.1047   -2.4734  -15.1090 O   0  0  0  0  0  0  0  0  0  0  0  0
   21.8905   -3.5956  -15.3530 C   0  0  0  0  0  0  0  0  0  0  0  0
   22.1113   -3.9826  -16.6651 C   0  0  0  0  0  0  0  0  0  0  0  0
   22.8824   -5.0865  -16.9376 C   0  0  0  0  0  0  0  0  0  0  0  0
   23.4589   -5.8408  -15.9090 C   0  0  0  0  0  0  0  0  0  0  0  0
   24.2708   -7.0180  -16.2142 C   0  0  0  0  0  0  0  0  0  0  0  0
   23.5360   -8.3418  -16.1032 C   0  0  2  0  0  0  0  0  0  0  0  0
   24.4009   -9.3144  -16.8065 N   0  0  0  0  0  0  0  0  0  0  0  0
   22.2469   -8.2294  -16.8298 C   0  0  0  0  0  0  0  0  0  0  0  0
   21.0579   -7.8145  -16.2517 O   0  0  0  0  0  0  0  0  0  0  0  0
   23.2217   -5.4331  -14.6275 C   0  0  0  0  0  0  0  0  0  0  0  0
   22.4450   -4.3197  -14.3302 C   0  0  0  0  0  0  0  0  0  0  0  0
   22.2294   -8.5296  -18.0489 O   0  0  0  0  0  0  0  0  0  0  0  0
  2  1  1  0
  2  3  2  0
  4  2  1  0
  5  4  1  0
  5  6  1  1
  7  5  1  0
  7  8  2  0
 10  9  1  0
 11 10  1  6
 11 12  1  0
 12  7  1  0
 13 22  1  0
 13 11  1  0
 14 13  2  0
 16 15  1  0
 16 26  2  0
 17 16  1  0
 18 17  2  0
 18 19  1  0
 19 20  1  0
 19 25  2  0
 21 20  1  6
 21 22  1  0
 21 23  1  0
 23 27  2  0
 23 24  1  0
 25 26  1  0
M  END
$$$$
