NSY.pdb
     RDKit          3D

 27 27  0  0  1  0  0  0  0  0999 V2000
   20.0132  -13.8731  -19.6739 N   0  0  0  0  0  0  0  0  0  0  0  0
   18.9926  -12.8702  -19.4966 C   0  0  0  0  0  0  0  0  0  0  0  0
   18.1314  -12.8385  -20.3978 O   0  0  0  0  0  0  0  0  0  0  0  0
   18.9874  -11.9727  -18.3475 C   0  0  0  0  0  0  0  0  0  0  0  0
   20.0967  -12.1265  -17.3458 C   0  0  2  0  0  0  0  0  0  0  0  0
   19.8270  -13.3756  -16.6164 N   0  0  0  0  0  0  0  0  0  0  0  0
   20.2427  -11.0057  -16.3964 C   0  0  0  0  0  0  0  0  0  0  0  0
   19.3152  -10.7467  -15.6070 O   0  0  0  0  0  0  0  0  0  0  0  0
   22.5600   -8.3570  -13.4843 O   0  0  0  0  0  0  0  0  0  0  0  0
   22.5305   -9.4224  -14.3801 C   0  0  0  0  0  0  0  0  0  0  0  0
   21.4821   -9.1067  -15.4294 C   0  0  2  0  0  0  0  0  0  0  0  0
   21.4281  -10.1968  -16.3538 N   0  0  0  0  0  0  0  0  0  0  0  0
   21.8063   -7.8170  -16.0881 C   0  0  0  0  0  0  0  0  0  0  0  0
   22.6574   -7.7009  -17.0078 O   0  0  0  0  0  0  0  0  0  0  0  0
   20.9108    0.3782  -19.0974 O   0  0  0  0  0  0  0  0  0  0  0  0
   20.7777   -0.9070  -18.5809 C   0  0  0  0  0  0  0  0  0  0  0  0
   20.0206   -1.0901  -17.4349 C   0  0  0  0  0  0  0  0  0  0  0  0
   19.8713   -2.3472  -16.9011 C   0  0  0  0  0  0  0  0  0  0  0  0
   20.4729   -3.4635  -17.4939 C   0  0  0  0  0  0  0  0  0  0  0  0
   20.3115   -4.7942  -16.9097 C   0  0  0  0  0  0  0  0  0  0  0  0
   21.5488   -5.3381  -16.2184 C   0  0  2  0  0  0  0  0  0  0  0  0
   21.1324   -6.6492  -15.6742 N   0  0  0  0  0  0  0  0  0  0  0  0
   21.8957   -4.4366  -15.0917 C   0  0  0  0  0  0  0  0  0  0  0  0
   22.8018   -3.3918  -15.1777 O   0  0  0  0  0  0  0  0  0  0  0  0
   21.2125   -3.2488  -18.6216 C   0  0  0  0  0  0  0  0  0  0  0  0
   21.3760   -1.9858  -19.1777 C   0  0  0  0  0  0  0  0  0  0  0  0
   21.3327   -4.6313  -13.9864 O   0  0  0  0  0  0  0  0  0  0  0  0
  2  1  1  0
  2  3  2  0
  4  2  1  0
  5  4  1  0
  5  6  1  1
  7  5  1  0
  7  8  2  0
 10  9  1  0
 11 10  1  1
 11 12  1  0
 12  7  1  0
 13 22  1  0
 13 11  1  0
 14 13  2  0
 16 15  1  0
 16 26  2  0
 17 16  1  0
 18 17  2  0
 18 19  1  0
 19 20  1  0
 19 25  2  0
 21 20  1  1
 21 22  1  0
 21 23  1  0
 23 27  2  0
 23 24  1  0
 25 26  1  0
M  END
$$$$
