NSY.pdb
     RDKit          3D

 27 27  0  0  1  0  0  0  0  0999 V2000
   32.4436  -26.9535  -18.4760 N   0  0  0  0  0  0  0  0  0  0  0  0
   31.0043  -27.0133  -18.4140 C   0  0  0  0  0  0  0  0  0  0  0  0
   30.5036  -28.0398  -18.9145 O   0  0  0  0  0  0  0  0  0  0  0  0
   30.2153  -25.9460  -17.8105 C   0  0  0  0  0  0  0  0  0  0  0  0
   30.9634  -24.8220  -17.1512 C   0  0  2  0  0  0  0  0  0  0  0  0
   31.6851  -25.4146  -16.0141 N   0  0  0  0  0  0  0  0  0  0  0  0
   30.1253  -23.6977  -16.6903 C   0  0  0  0  0  0  0  0  0  0  0  0
   29.7868  -23.6363  -15.4936 O   0  0  0  0  0  0  0  0  0  0  0  0
   28.2212  -21.1096  -19.2558 O   0  0  0  0  0  0  0  0  0  0  0  0
   28.7740  -20.5211  -18.1216 C   0  0  0  0  0  0  0  0  0  0  0  0
   28.8882  -21.5976  -17.0594 C   0  0  2  0  0  0  0  0  0  0  0  0
   29.6828  -22.6648  -17.5840 N   0  0  0  0  0  0  0  0  0  0  0  0
   27.5327  -22.0440  -16.6520 C   0  0  0  0  0  0  0  0  0  0  0  0
   27.2083  -23.2531  -16.5237 O   0  0  0  0  0  0  0  0  0  0  0  0
   20.0088  -23.3103  -12.7240 O   0  0  0  0  0  0  0  0  0  0  0  0
   21.2642  -22.9542  -13.2071 C   0  0  0  0  0  0  0  0  0  0  0  0
   22.0452  -23.9247  -13.8140 C   0  0  0  0  0  0  0  0  0  0  0  0
   23.2893  -23.6035  -14.3005 C   0  0  0  0  0  0  0  0  0  0  0  0
   23.7951  -22.3024  -14.1973 C   0  0  0  0  0  0  0  0  0  0  0  0
   25.1243  -21.9774  -14.7126 C   0  0  0  0  0  0  0  0  0  0  0  0
   25.1474  -21.5038  -16.1548 C   0  0  2  0  0  0  0  0  0  0  0  0
   26.5434  -21.0737  -16.3891 N   0  0  0  0  0  0  0  0  0  0  0  0
   24.2527  -20.3265  -16.2802 C   0  0  0  0  0  0  0  0  0  0  0  0
   22.9343  -20.3888  -16.7023 O   0  0  0  0  0  0  0  0  0  0  0  0
   23.0008  -21.3700  -13.5936 C   0  0  0  0  0  0  0  0  0  0  0  0
   21.7397  -21.6739  -13.0950 C   0  0  0  0  0  0  0  0  0  0  0  0
   24.7183  -19.1983  -15.9853 O   0  0  0  0  0  0  0  0  0  0  0  0
  2  1  1  0
  2  3  2  0
  4  2  1  0
  5  4  1  0
  5  6  1  1
  7  5  1  0
  7  8  2  0
 10  9  1  0
 11 10  1  6
 11 12  1  0
 12  7  1  0
 13 22  1  0
 13 11  1  0
 14 13  2  0
 16 15  1  0
 16 26  2  0
 17 16  1  0
 18 17  2  0
 18 19  1  0
 19 20  1  0
 19 25  2  0
 21 20  1  1
 21 22  1  0
 21 23  1  0
 23 27  2  0
 23 24  1  0
 25 26  1  0
M  END
$$$$
