RTR.pdb
     RDKit          3D

 30 29  0  0  1  0  0  0  0  0999 V2000
   26.2856  -25.6193  -15.7535 N   0  0  0  0  0  0  0  0  0  0  0  0
   25.1335  -25.0694  -16.3859 C   0  0  0  0  0  0  0  0  0  0  0  0
   23.9761  -25.3256  -15.8884 N   0  0  0  0  0  0  0  0  0  0  0  0
   25.2720  -24.2417  -17.5617 N   0  0  0  0  0  0  0  0  0  0  0  0
   26.6009  -23.8232  -17.9061 C   0  0  0  0  0  0  0  0  0  0  0  0
   26.9374  -22.4395  -17.4947 C   0  0  0  0  0  0  0  0  0  0  0  0
   27.0347  -21.4003  -18.5336 C   0  0  0  0  0  0  0  0  0  0  0  0
   27.5233  -20.0424  -18.0878 C   0  0  2  0  0  0  0  0  0  0  0  0
   28.9332  -19.9494  -18.0203 N   0  0  0  0  0  0  0  0  0  0  0  0
   26.7795  -19.6708  -16.8592 C   0  0  0  0  0  0  0  0  0  0  0  0
   27.2568  -19.9785  -15.7045 O   0  0  0  0  0  0  0  0  0  0  0  0
   23.1407  -24.8969  -16.3297 C   0  0  0  0  0  0  0  0  0  0  0  0
   26.1131  -16.5893  -15.0149 C   0  0  2  0  0  0  0  0  0  0  0  0
   24.7655  -17.2176  -15.2811 O   0  0  0  0  0  0  0  0  0  0  0  0
   24.2633  -16.6265  -16.4393 C   0  0  2  0  0  0  0  0  0  0  0  0
   24.8676  -18.7020  -15.5567 N   0  0  0  0  0  0  0  0  0  0  0  0
   25.5419  -18.9829  -16.8148 C   0  0  0  0  0  0  0  0  0  0  0  0
   23.4790  -19.2831  -15.5677 O   0  0  0  0  0  0  0  0  0  0  0  0
   22.8895  -19.4362  -16.6657 N   0  0  0  0  0  0  0  0  0  0  0  0
   18.8148  -24.0488   -9.5641 C   0  0  0  0  0  0  0  0  0  0  0  0
   18.0152  -23.9741  -10.7336 N   0  0  0  0  0  0  0  0  0  0  0  0
   16.9440  -24.6692  -10.7997 N   0  0  0  0  0  0  0  0  0  0  0  0
   18.3924  -23.1421  -11.8183 C   0  0  0  0  0  0  0  0  0  0  0  0
   19.6237  -22.4107  -11.7869 C   0  0  0  0  0  0  0  0  0  0  0  0
   19.8351  -21.5903  -13.0420 C   0  0  0  0  0  0  0  0  0  0  0  0
   21.1807  -20.9254  -13.0898 C   0  0  2  0  0  0  0  0  0  0  0  0
   21.4401  -20.1700  -14.3560 N   0  0  0  0  0  0  0  0  0  0  0  0
   22.8188  -19.6606  -14.3856 C   0  0  0  0  0  0  0  0  0  0  0  0
   20.5517  -19.0034  -14.5562 O   0  0  0  0  0  0  0  0  0  0  0  0
   19.4675  -19.0814  -15.4195 O   0  0  0  0  0  0  0  0  0  0  0  0
  2  3  2  0
  2  1  1  0
  4  2  1  0
  5  4  1  0
  6  7  1  0
  6  5  1  0
  8 10  1  0
  8  7  1  0
  8  9  1  1
 10 11  2  0
 13 12  1  1
 13 14  1  0
 15 13  1  0
 16 10  1  0
 15 16  1  1
 17 15  1  0
 18 17  2  0
 19 20  1  0
 20 22  1  0
 21 20  2  0
 22 23  1  0
 23 24  1  0
 24 25  1  0
 26 25  1  6
 26 28  1  0
 26 27  1  0
 27 17  1  0
 28 29  1  0
 30 28  2  0
M  END
$$$$
