RTR.pdb
     RDKit          3D

 30 29  0  0  1  0  0  0  0  0999 V2000
   15.0787  -19.2773    4.8173 N   0  0  0  0  0  0  0  0  0  0  0  0
   15.1904  -20.6953    4.8959 C   0  0  0  0  0  0  0  0  0  0  0  0
   14.7109  -21.2950    5.9271 N   0  0  0  0  0  0  0  0  0  0  0  0
   15.8309  -21.4366    3.8342 N   0  0  0  0  0  0  0  0  0  0  0  0
   15.9450  -20.7795    2.5634 C   0  0  0  0  0  0  0  0  0  0  0  0
   14.7454  -20.8942    1.7003 C   0  0  0  0  0  0  0  0  0  0  0  0
   14.8838  -21.5429    0.3855 C   0  0  0  0  0  0  0  0  0  0  0  0
   13.7344  -21.3679   -0.5789 C   0  0  2  0  0  0  0  0  0  0  0  0
   12.5031  -21.0952    0.0616 N   0  0  0  0  0  0  0  0  0  0  0  0
   13.7480  -22.5164   -1.5177 C   0  0  0  0  0  0  0  0  0  0  0  0
   13.3591  -23.6756   -1.1164 O   0  0  0  0  0  0  0  0  0  0  0  0
   14.7974  -22.3273    5.9851 C   0  0  0  0  0  0  0  0  0  0  0  0
   12.6482  -22.9730   -5.4340 C   0  0  2  0  0  0  0  0  0  0  0  0
   14.0593  -23.4262   -5.1428 O   0  0  0  0  0  0  0  0  0  0  0  0
   14.9050  -22.3781   -5.5024 C   0  0  2  0  0  0  0  0  0  0  0  0
   14.2873  -23.6863   -3.6696 N   0  0  0  0  0  0  0  0  0  0  0  0
   14.1628  -22.4763   -2.8717 C   0  0  0  0  0  0  0  0  0  0  0  0
   15.6566  -24.2873   -3.4964 O   0  0  0  0  0  0  0  0  0  0  0  0
   16.5798  -23.5783   -3.0256 N   0  0  0  0  0  0  0  0  0  0  0  0
   18.2606  -32.8293   -2.9680 C   0  0  0  0  0  0  0  0  0  0  0  0
   19.4645  -32.0790   -2.9929 N   0  0  0  0  0  0  0  0  0  0  0  0
   20.5831  -32.6979   -2.9703 N   0  0  0  0  0  0  0  0  0  0  0  0
   19.4353  -30.6622   -3.0423 C   0  0  0  0  0  0  0  0  0  0  0  0
   18.1895  -29.9551   -3.0591 C   0  0  0  0  0  0  0  0  0  0  0  0
   18.3796  -28.4631   -3.2344 C   0  0  0  0  0  0  0  0  0  0  0  0
   17.0824  -27.7120   -3.3250 C   0  0  1  0  0  0  0  0  0  0  0  0
   17.2442  -26.2554   -3.6303 N   0  0  0  0  0  0  0  0  0  0  0  0
   15.9362  -25.6198   -3.8456 C   0  0  0  0  0  0  0  0  0  0  0  0
   18.0553  -25.9776   -4.8366 O   0  0  0  0  0  0  0  0  0  0  0  0
   19.3863  -25.6007   -4.7212 O   0  0  0  0  0  0  0  0  0  0  0  0
  2  3  2  0
  2  1  1  0
  4  2  1  0
  5  4  1  0
  6  7  1  0
  6  5  1  0
  8 10  1  0
  8  7  1  0
  8  9  1  1
 10 11  2  0
 13 12  1  6
 13 14  1  0
 15 13  1  0
 16 10  1  0
 15 16  1  1
 17 15  1  0
 18 17  2  0
 19 20  1  0
 20 22  1  0
 21 20  2  0
 22 23  1  0
 23 24  1  0
 24 25  1  0
 26 25  1  1
 26 28  1  0
 26 27  1  0
 27 17  1  0
 28 29  1  0
 30 28  2  0
M  END
$$$$
