RTR.pdb
     RDKit          3D

 30 29  0  0  1  0  0  0  0  0999 V2000
   31.9561  -20.6904  -10.9295 N   0  0  0  0  0  0  0  0  0  0  0  0
   31.6081  -22.0295  -10.5900 C   0  0  0  0  0  0  0  0  0  0  0  0
   32.3814  -22.6859   -9.8002 N   0  0  0  0  0  0  0  0  0  0  0  0
   30.4088  -22.6300  -11.1269 N   0  0  0  0  0  0  0  0  0  0  0  0
   29.7613  -21.9334  -12.2017 C   0  0  0  0  0  0  0  0  0  0  0  0
   28.9652  -20.7556  -11.7819 C   0  0  0  0  0  0  0  0  0  0  0  0
   27.5125  -20.9161  -11.6013 C   0  0  0  0  0  0  0  0  0  0  0  0
   26.7107  -21.2508  -12.8369 C   0  0  2  0  0  0  0  0  0  0  0  0
   27.3466  -20.8618  -14.0391 N   0  0  0  0  0  0  0  0  0  0  0  0
   25.3284  -20.7527  -12.6323 C   0  0  0  0  0  0  0  0  0  0  0  0
   25.1178  -19.4919  -12.4847 O   0  0  0  0  0  0  0  0  0  0  0  0
   32.1506  -23.6752   -9.5892 C   0  0  0  0  0  0  0  0  0  0  0  0
   23.4516  -18.8572  -13.7182 C   0  0  2  0  0  0  0  0  0  0  0  0
   22.5306  -20.0532  -13.6633 O   0  0  0  0  0  0  0  0  0  0  0  0
   22.7641  -20.7991  -14.8174 C   0  0  2  0  0  0  0  0  0  0  0  0
   22.8329  -20.9583  -12.4888 N   0  0  0  0  0  0  0  0  0  0  0  0
   24.1588  -21.5502  -12.5776 C   0  0  0  0  0  0  0  0  0  0  0  0
   21.7830  -22.0356  -12.4326 O   0  0  0  0  0  0  0  0  0  0  0  0
   21.9669  -23.1016  -13.0700 N   0  0  0  0  0  0  0  0  0  0  0  0
   18.3095  -26.3457   -6.7861 C   0  0  0  0  0  0  0  0  0  0  0  0
   17.5190  -25.2136   -7.1118 N   0  0  0  0  0  0  0  0  0  0  0  0
   17.2561  -24.3561   -6.2004 N   0  0  0  0  0  0  0  0  0  0  0  0
   17.0240  -25.0288   -8.4277 C   0  0  0  0  0  0  0  0  0  0  0  0
   17.9135  -24.7280   -9.5096 C   0  0  0  0  0  0  0  0  0  0  0  0
   18.5651  -23.3699   -9.3551 C   0  0  0  0  0  0  0  0  0  0  0  0
   18.5112  -22.5460  -10.6095 C   0  0  2  0  0  0  0  0  0  0  0  0
   19.5503  -22.9134  -11.6225 N   0  0  0  0  0  0  0  0  0  0  0  0
   20.6002  -21.8866  -11.6879 C   0  0  0  0  0  0  0  0  0  0  0  0
   19.0247  -23.0718  -12.9969 O   0  0  0  0  0  0  0  0  0  0  0  0
   18.6478  -24.3216  -13.4691 O   0  0  0  0  0  0  0  0  0  0  0  0
  2  3  2  0
  2  1  1  0
  4  2  1  0
  5  4  1  0
  6  7  1  0
  6  5  1  0
  8 10  1  0
  8  7  1  0
  8  9  1  6
 10 11  2  0
 13 12  1  6
 13 14  1  0
 15 13  1  0
 16 10  1  0
 15 16  1  1
 17 15  1  0
 18 17  2  0
 19 20  1  0
 20 22  1  0
 21 20  2  0
 22 23  1  0
 23 24  1  0
 24 25  1  0
 26 25  1  1
 26 28  1  0
 26 27  1  0
 27 17  1  0
 28 29  1  0
 30 28  2  0
M  END
$$$$
