RTR.pdb
     RDKit          3D

 30 29  0  0  1  0  0  0  0  0999 V2000
   29.5036  -21.1810  -18.0121 N   0  0  0  0  0  0  0  0  0  0  0  0
   30.0768  -22.4284  -17.6315 C   0  0  0  0  0  0  0  0  0  0  0  0
   31.1144  -22.8483  -18.2640 N   0  0  0  0  0  0  0  0  0  0  0  0
   29.4978  -23.1994  -16.5558 N   0  0  0  0  0  0  0  0  0  0  0  0
   28.2629  -22.7176  -16.0057 C   0  0  0  0  0  0  0  0  0  0  0  0
   27.0538  -23.4221  -16.4945 C   0  0  0  0  0  0  0  0  0  0  0  0
   26.0431  -22.6520  -17.2388 C   0  0  0  0  0  0  0  0  0  0  0  0
   24.6863  -22.5127  -16.5896 C   0  0  2  0  0  0  0  0  0  0  0  0
   23.8791  -23.6661  -16.7271 N   0  0  0  0  0  0  0  0  0  0  0  0
   24.0906  -21.2338  -17.0480 C   0  0  0  0  0  0  0  0  0  0  0  0
   24.7119  -20.1267  -16.8376 O   0  0  0  0  0  0  0  0  0  0  0  0
   31.4707  -23.8001  -18.0553 C   0  0  0  0  0  0  0  0  0  0  0  0
   22.8237  -20.3287  -20.6109 C   0  0  2  0  0  0  0  0  0  0  0  0
   21.8070  -19.8714  -19.5917 O   0  0  0  0  0  0  0  0  0  0  0  0
   20.8021  -20.8368  -19.5590 C   0  0  2  0  0  0  0  0  0  0  0  0
   22.3862  -19.7956  -18.1957 N   0  0  0  0  0  0  0  0  0  0  0  0
   22.8535  -21.0897  -17.7230 C   0  0  0  0  0  0  0  0  0  0  0  0
   21.3320  -19.2510  -17.2694 O   0  0  0  0  0  0  0  0  0  0  0  0
   20.8613  -19.9957  -16.3747 N   0  0  0  0  0  0  0  0  0  0  0  0
   20.3566  -19.8516  -12.2087 C   0  0  0  0  0  0  0  0  0  0  0  0
   19.2520  -19.1665  -11.6402 N   0  0  0  0  0  0  0  0  0  0  0  0
   18.3673  -19.8346  -11.0030 N   0  0  0  0  0  0  0  0  0  0  0  0
   19.1242  -17.7605  -11.7725 C   0  0  0  0  0  0  0  0  0  0  0  0
   20.0495  -17.0126  -12.5704 C   0  0  0  0  0  0  0  0  0  0  0  0
   19.5514  -16.8085  -13.9858 C   0  0  0  0  0  0  0  0  0  0  0  0
   20.4256  -17.4630  -15.0166 C   0  0  1  0  0  0  0  0  0  0  0  0
   19.9133  -17.3344  -16.4173 N   0  0  0  0  0  0  0  0  0  0  0  0
   20.8559  -17.9326  -17.3737 C   0  0  0  0  0  0  0  0  0  0  0  0
   19.6936  -15.9377  -16.8543 O   0  0  0  0  0  0  0  0  0  0  0  0
   20.6838  -15.2486  -17.5410 O   0  0  0  0  0  0  0  0  0  0  0  0
  2  3  2  0
  2  1  1  0
  4  2  1  0
  5  4  1  0
  6  7  1  0
  6  5  1  0
  8 10  1  0
  8  7  1  0
  8  9  1  6
 10 11  2  0
 13 12  1  6
 13 14  1  0
 15 13  1  0
 16 10  1  0
 15 16  1  1
 17 15  1  0
 18 17  2  0
 19 20  1  0
 20 22  1  0
 21 20  2  0
 22 23  1  0
 23 24  1  0
 24 25  1  0
 26 25  1  1
 26 28  1  0
 26 27  1  0
 27 17  1  0
 28 29  1  0
 30 28  2  0
M  END
$$$$
