RTR.pdb
     RDKit          3D

 30 29  0  0  1  0  0  0  0  0999 V2000
   19.3566  -20.7599  -18.5333 N   0  0  0  0  0  0  0  0  0  0  0  0
   20.5966  -21.4366  -18.7170 C   0  0  0  0  0  0  0  0  0  0  0  0
   20.6055  -22.5373  -19.3812 N   0  0  0  0  0  0  0  0  0  0  0  0
   21.8147  -20.8902  -18.1649 N   0  0  0  0  0  0  0  0  0  0  0  0
   22.1445  -21.2716  -16.8212 C   0  0  0  0  0  0  0  0  0  0  0  0
   21.1678  -20.8296  -15.7976 C   0  0  0  0  0  0  0  0  0  0  0  0
   21.3819  -21.2362  -14.3985 C   0  0  0  0  0  0  0  0  0  0  0  0
   20.3523  -20.7733  -13.3948 C   0  0  2  0  0  0  0  0  0  0  0  0
   20.1402  -19.3749  -13.4153 N   0  0  0  0  0  0  0  0  0  0  0  0
   20.6976  -21.3676  -12.0802 C   0  0  0  0  0  0  0  0  0  0  0  0
   21.9175  -21.3508  -11.6709 O   0  0  0  0  0  0  0  0  0  0  0  0
   21.5082  -23.0328  -19.5077 C   0  0  0  0  0  0  0  0  0  0  0  0
   21.7781  -20.4843   -9.5369 C   0  0  2  0  0  0  0  0  0  0  0  0
   20.6008  -21.2466   -8.9761 O   0  0  0  0  0  0  0  0  0  0  0  0
   19.5202  -20.3665   -8.9539 C   0  0  2  0  0  0  0  0  0  0  0  0
   20.1985  -22.4111   -9.8548 N   0  0  0  0  0  0  0  0  0  0  0  0
   19.7894  -21.9821  -11.1833 C   0  0  0  0  0  0  0  0  0  0  0  0
   19.0785  -23.1558   -9.1787 O   0  0  0  0  0  0  0  0  0  0  0  0
   17.8982  -22.7571   -9.3348 N   0  0  0  0  0  0  0  0  0  0  0  0
   18.7621  -31.3771   -5.5501 C   0  0  0  0  0  0  0  0  0  0  0  0
   17.4167  -30.9529   -5.7011 N   0  0  0  0  0  0  0  0  0  0  0  0
   16.4727  -31.7562   -5.3871 N   0  0  0  0  0  0  0  0  0  0  0  0
   17.1155  -29.6574   -6.1928 C   0  0  0  0  0  0  0  0  0  0  0  0
   18.1596  -28.7752   -6.6213 C   0  0  0  0  0  0  0  0  0  0  0  0
   17.6348  -27.4049   -6.9954 C   0  0  0  0  0  0  0  0  0  0  0  0
   18.6972  -26.4999   -7.5497 C   0  0  2  0  0  0  0  0  0  0  0  0
   18.2356  -25.0956   -7.7865 N   0  0  0  0  0  0  0  0  0  0  0  0
   19.3116  -24.2860   -8.3762 C   0  0  0  0  0  0  0  0  0  0  0  0
   17.7951  -24.3901   -6.5624 O   0  0  0  0  0  0  0  0  0  0  0  0
   18.7021  -23.6693   -5.7977 O   0  0  0  0  0  0  0  0  0  0  0  0
  2  3  2  0
  2  1  1  0
  4  2  1  0
  5  4  1  0
  6  7  1  0
  6  5  1  0
  8 10  1  0
  8  7  1  0
  8  9  1  1
 10 11  2  0
 13 12  1  1
 13 14  1  0
 15 13  1  0
 16 10  1  0
 15 16  1  1
 17 15  1  0
 18 17  2  0
 19 20  1  0
 20 22  1  0
 21 20  2  0
 22 23  1  0
 23 24  1  0
 24 25  1  0
 26 25  1  6
 26 28  1  0
 26 27  1  0
 27 17  1  0
 28 29  1  0
 30 28  2  0
M  END
$$$$
