RTR.pdb
     RDKit          3D

 30 29  0  0  1  0  0  0  0  0999 V2000
   17.6032   -7.7970   10.1316 N   0  0  0  0  0  0  0  0  0  0  0  0
   16.3802   -8.1381    9.4854 C   0  0  0  0  0  0  0  0  0  0  0  0
   15.7069   -7.2066    8.9096 N   0  0  0  0  0  0  0  0  0  0  0  0
   15.9135   -9.5053    9.4820 N   0  0  0  0  0  0  0  0  0  0  0  0
   16.8417  -10.5073    9.9227 C   0  0  0  0  0  0  0  0  0  0  0  0
   18.0724  -10.6107    9.1031 C   0  0  0  0  0  0  0  0  0  0  0  0
   19.0297  -11.6886    9.4038 C   0  0  0  0  0  0  0  0  0  0  0  0
   20.2724  -11.7474    8.5470 C   0  0  2  0  0  0  0  0  0  0  0  0
   20.3448  -10.7047    7.5939 N   0  0  0  0  0  0  0  0  0  0  0  0
   20.3994  -13.1291    8.0221 C   0  0  0  0  0  0  0  0  0  0  0  0
   20.3751  -13.3360    6.7523 O   0  0  0  0  0  0  0  0  0  0  0  0
   14.7894   -7.4458    8.4883 C   0  0  0  0  0  0  0  0  0  0  0  0
   22.9163  -16.0812    9.4012 C   0  0  2  0  0  0  0  0  0  0  0  0
   21.5107  -16.5504    9.1088 O   0  0  0  0  0  0  0  0  0  0  0  0
   20.8239  -16.5568   10.3217 C   0  0  2  0  0  0  0  0  0  0  0  0
   20.7679  -15.6042    8.1906 N   0  0  0  0  0  0  0  0  0  0  0  0
   20.5503  -14.3021    8.8019 C   0  0  0  0  0  0  0  0  0  0  0  0
   19.4517  -16.2330    7.8191 O   0  0  0  0  0  0  0  0  0  0  0  0
   18.4137  -15.8867    8.4350 N   0  0  0  0  0  0  0  0  0  0  0  0
   16.2725  -21.3861    2.1923 C   0  0  0  0  0  0  0  0  0  0  0  0
   15.1782  -20.4839    2.1579 N   0  0  0  0  0  0  0  0  0  0  0  0
   14.0171  -20.9263    1.8557 N   0  0  0  0  0  0  0  0  0  0  0  0
   15.3619  -19.1092    2.4534 C   0  0  0  0  0  0  0  0  0  0  0  0
   16.6287  -18.6209    2.9103 C   0  0  0  0  0  0  0  0  0  0  0  0
   16.6808  -18.4849    4.4175 C   0  0  0  0  0  0  0  0  0  0  0  0
   17.9595  -17.8691    4.9082 C   0  0  2  0  0  0  0  0  0  0  0  0
   18.0735  -17.8137    6.3998 N   0  0  0  0  0  0  0  0  0  0  0  0
   19.3463  -17.1981    6.8025 C   0  0  0  0  0  0  0  0  0  0  0  0
   18.0140  -19.1370    7.0598 O   0  0  0  0  0  0  0  0  0  0  0  0
   16.7915  -19.7204    7.3633 O   0  0  0  0  0  0  0  0  0  0  0  0
  2  3  2  0
  2  1  1  0
  4  2  1  0
  5  4  1  0
  6  7  1  0
  6  5  1  0
  8 10  1  0
  8  7  1  0
  8  9  1  6
 10 11  2  0
 13 12  1  1
 13 14  1  0
 15 13  1  0
 16 10  1  0
 15 16  1  6
 17 15  1  0
 18 17  2  0
 19 20  1  0
 20 22  1  0
 21 20  2  0
 22 23  1  0
 23 24  1  0
 24 25  1  0
 26 25  1  6
 26 28  1  0
 26 27  1  0
 27 17  1  0
 28 29  1  0
 30 28  2  0
M  END
$$$$
