RTR.pdb
     RDKit          3D

 30 29  0  0  1  0  0  0  0  0999 V2000
   30.7472  -19.0832  -19.7177 N   0  0  0  0  0  0  0  0  0  0  0  0
   29.3946  -19.0210  -20.1607 C   0  0  0  0  0  0  0  0  0  0  0  0
   29.1015  -19.5049  -21.3151 N   0  0  0  0  0  0  0  0  0  0  0  0
   28.3795  -18.4247  -19.3235 N   0  0  0  0  0  0  0  0  0  0  0  0
   28.1198  -19.0647  -18.0654 C   0  0  0  0  0  0  0  0  0  0  0  0
   27.5022  -20.4078  -18.1729 C   0  0  0  0  0  0  0  0  0  0  0  0
   26.5773  -20.8440  -17.1132 C   0  0  0  0  0  0  0  0  0  0  0  0
   27.2038  -21.3476  -15.8343 C   0  0  2  0  0  0  0  0  0  0  0  0
   28.2485  -22.2763  -16.0509 N   0  0  0  0  0  0  0  0  0  0  0  0
   26.1104  -21.7853  -14.9323 C   0  0  0  0  0  0  0  0  0  0  0  0
   25.4543  -22.8603  -15.1968 O   0  0  0  0  0  0  0  0  0  0  0  0
   28.1215  -19.4333  -21.6484 C   0  0  0  0  0  0  0  0  0  0  0  0
   25.9675  -21.3992  -10.8251 C   0  0  2  0  0  0  0  0  0  0  0  0
   24.6609  -21.0896  -11.5168 O   0  0  0  0  0  0  0  0  0  0  0  0
   24.5755  -19.7022  -11.6214 C   0  0  2  0  0  0  0  0  0  0  0  0
   24.6123  -21.6383  -12.9262 N   0  0  0  0  0  0  0  0  0  0  0  0
   25.6876  -21.1179  -13.7565 C   0  0  0  0  0  0  0  0  0  0  0  0
   23.2756  -21.2947  -13.5273 O   0  0  0  0  0  0  0  0  0  0  0  0
   23.2048  -20.3652  -14.3684 N   0  0  0  0  0  0  0  0  0  0  0  0
   19.7498  -27.9445  -14.3734 C   0  0  0  0  0  0  0  0  0  0  0  0
   18.5879  -27.3119  -13.8609 N   0  0  0  0  0  0  0  0  0  0  0  0
   17.6429  -28.0340  -13.3913 N   0  0  0  0  0  0  0  0  0  0  0  0
   18.4693  -25.8989  -13.8661 C   0  0  0  0  0  0  0  0  0  0  0  0
   19.5466  -25.0748  -14.3270 C   0  0  0  0  0  0  0  0  0  0  0  0
   19.2403  -23.5987  -14.1853 C   0  0  0  0  0  0  0  0  0  0  0  0
   20.3414  -22.7177  -14.7016 C   0  0  1  0  0  0  0  0  0  0  0  0
   20.7788  -21.6624  -13.7342 N   0  0  0  0  0  0  0  0  0  0  0  0
   22.1009  -21.9824  -13.1767 C   0  0  0  0  0  0  0  0  0  0  0  0
   19.8653  -21.4812  -12.5840 O   0  0  0  0  0  0  0  0  0  0  0  0
   18.6465  -20.8367  -12.7450 O   0  0  0  0  0  0  0  0  0  0  0  0
  2  3  2  0
  2  1  1  0
  4  2  1  0
  5  4  1  0
  6  7  1  0
  6  5  1  0
  8 10  1  0
  8  7  1  0
  8  9  1  6
 10 11  2  0
 13 12  1  1
 13 14  1  0
 15 13  1  0
 16 10  1  0
 15 16  1  1
 17 15  1  0
 18 17  2  0
 19 20  1  0
 20 22  1  0
 21 20  2  0
 22 23  1  0
 23 24  1  0
 24 25  1  0
 26 25  1  6
 26 28  1  0
 26 27  1  0
 27 17  1  0
 28 29  1  0
 30 28  2  0
M  END
$$$$
