RTR.pdb
     RDKit          3D

 30 29  0  0  1  0  0  0  0  0999 V2000
   26.1083  -25.8877  -15.5309 N   0  0  0  0  0  0  0  0  0  0  0  0
   25.9823  -25.2533  -16.8002 C   0  0  0  0  0  0  0  0  0  0  0  0
   25.4219  -25.9003  -17.7595 N   0  0  0  0  0  0  0  0  0  0  0  0
   26.4767  -23.9103  -16.9968 N   0  0  0  0  0  0  0  0  0  0  0  0
   26.5994  -23.0878  -15.8271 C   0  0  0  0  0  0  0  0  0  0  0  0
   25.5964  -22.0007  -15.7300 C   0  0  0  0  0  0  0  0  0  0  0  0
   24.6765  -21.9926  -14.5800 C   0  0  0  0  0  0  0  0  0  0  0  0
   23.2443  -22.3846  -14.8573 C   0  0  2  0  0  0  0  0  0  0  0  0
   22.7540  -21.8810  -16.0848 N   0  0  0  0  0  0  0  0  0  0  0  0
   22.4432  -22.0692  -13.6493 C   0  0  0  0  0  0  0  0  0  0  0  0
   22.8298  -22.4913  -12.4968 O   0  0  0  0  0  0  0  0  0  0  0  0
   25.4037  -25.4701  -18.7035 C   0  0  0  0  0  0  0  0  0  0  0  0
   18.9978  -19.4679  -11.1694 C   0  0  2  0  0  0  0  0  0  0  0  0
   19.7285  -19.7626  -12.4581 O   0  0  0  0  0  0  0  0  0  0  0  0
   20.6290  -18.7184  -12.6625 C   0  0  1  0  0  0  0  0  0  0  0  0
   20.5444  -21.0345  -12.3786 N   0  0  0  0  0  0  0  0  0  0  0  0
   21.2412  -21.3198  -13.6234 C   0  0  0  0  0  0  0  0  0  0  0  0
   19.6243  -22.1716  -12.0230 O   0  0  0  0  0  0  0  0  0  0  0  0
   19.0976  -22.8423  -12.9445 N   0  0  0  0  0  0  0  0  0  0  0  0
   17.8853  -26.0963   -4.2212 C   0  0  0  0  0  0  0  0  0  0  0  0
   18.1334  -26.9137   -5.3539 N   0  0  0  0  0  0  0  0  0  0  0  0
   18.4702  -28.1346   -5.1776 N   0  0  0  0  0  0  0  0  0  0  0  0
   18.0116  -26.3909   -6.6664 C   0  0  0  0  0  0  0  0  0  0  0  0
   17.4749  -25.0811   -6.8864 C   0  0  0  0  0  0  0  0  0  0  0  0
   17.3457  -24.7547   -8.3594 C   0  0  0  0  0  0  0  0  0  0  0  0
   18.4370  -23.8523   -8.8594 C   0  0  1  0  0  0  0  0  0  0  0  0
   18.3108  -23.4910  -10.3066 N   0  0  0  0  0  0  0  0  0  0  0  0
   19.3345  -22.5078  -10.6892 C   0  0  0  0  0  0  0  0  0  0  0  0
   17.0016  -22.9050  -10.6709 O   0  0  0  0  0  0  0  0  0  0  0  0
   16.0266  -23.6805  -11.2832 O   0  0  0  0  0  0  0  0  0  0  0  0
  2  3  2  0
  2  1  1  0
  4  2  1  0
  5  4  1  0
  6  7  1  0
  6  5  1  0
  8 10  1  0
  8  7  1  0
  8  9  1  6
 10 11  2  0
 13 12  1  6
 13 14  1  0
 15 13  1  0
 16 10  1  0
 15 16  1  6
 17 15  1  0
 18 17  2  0
 19 20  1  0
 20 22  1  0
 21 20  2  0
 22 23  1  0
 23 24  1  0
 24 25  1  0
 26 25  1  6
 26 28  1  0
 26 27  1  0
 27 17  1  0
 28 29  1  0
 30 28  2  0
M  END
$$$$
