RTR.pdb
     RDKit          3D

 30 29  0  0  1  0  0  0  0  0999 V2000
   19.7000  -21.8303  -10.5757 N   0  0  0  0  0  0  0  0  0  0  0  0
   19.2153  -22.8580  -11.4350 C   0  0  0  0  0  0  0  0  0  0  0  0
   19.5461  -22.8297  -12.6770 N   0  0  0  0  0  0  0  0  0  0  0  0
   18.3699  -23.9068  -10.9132 N   0  0  0  0  0  0  0  0  0  0  0  0
   17.6573  -23.6209   -9.7007 C   0  0  0  0  0  0  0  0  0  0  0  0
   18.4521  -23.7981   -8.4622 C   0  0  0  0  0  0  0  0  0  0  0  0
   17.8137  -24.4435   -7.3026 C   0  0  0  0  0  0  0  0  0  0  0  0
   17.9980  -25.9372   -7.1741 C   0  0  2  0  0  0  0  0  0  0  0  0
   17.5949  -26.6519   -8.3262 N   0  0  0  0  0  0  0  0  0  0  0  0
   17.3906  -26.3627   -5.8893 C   0  0  0  0  0  0  0  0  0  0  0  0
   16.1124  -26.4767   -5.7925 O   0  0  0  0  0  0  0  0  0  0  0  0
   19.1532  -23.5506  -13.3113 C   0  0  0  0  0  0  0  0  0  0  0  0
   18.9045  -28.7000   -2.6759 C   0  0  2  0  0  0  0  0  0  0  0  0
   18.3348  -27.3417   -2.3412 O   0  0  0  0  0  0  0  0  0  0  0  0
   19.4097  -26.4573   -2.2673 C   0  0  2  0  0  0  0  0  0  0  0  0
   17.4142  -26.8217   -3.4237 N   0  0  0  0  0  0  0  0  0  0  0  0
   18.0958  -26.6710   -4.7000 C   0  0  0  0  0  0  0  0  0  0  0  0
   16.8471  -25.5012   -2.9756 O   0  0  0  0  0  0  0  0  0  0  0  0
   17.0956  -24.4701   -3.6476 N   0  0  0  0  0  0  0  0  0  0  0  0
   11.0703  -20.3926   -4.8036 C   0  0  0  0  0  0  0  0  0  0  0  0
   11.3563  -19.8787   -3.5126 N   0  0  0  0  0  0  0  0  0  0  0  0
   10.8093  -18.7831   -3.1445 N   0  0  0  0  0  0  0  0  0  0  0  0
   12.2356  -20.5651   -2.6370 C   0  0  0  0  0  0  0  0  0  0  0  0
   12.9694  -21.7107   -3.0854 C   0  0  0  0  0  0  0  0  0  0  0  0
   13.8120  -22.3188   -1.9840 C   0  0  0  0  0  0  0  0  0  0  0  0
   14.5892  -23.5221   -2.4348 C   0  0  1  0  0  0  0  0  0  0  0  0
   15.4621  -24.1141   -1.3726 N   0  0  0  0  0  0  0  0  0  0  0  0
   16.0462  -25.3845   -1.8264 C   0  0  0  0  0  0  0  0  0  0  0  0
   14.7586  -24.3997   -0.1022 O   0  0  0  0  0  0  0  0  0  0  0  0
   14.2601  -25.6686    0.1591 O   0  0  0  0  0  0  0  0  0  0  0  0
  2  3  2  0
  2  1  1  0
  4  2  1  0
  5  4  1  0
  6  7  1  0
  6  5  1  0
  8 10  1  0
  8  7  1  0
  8  9  1  6
 10 11  2  0
 13 12  1  1
 13 14  1  0
 15 13  1  0
 16 10  1  0
 15 16  1  1
 17 15  1  0
 18 17  2  0
 19 20  1  0
 20 22  1  0
 21 20  2  0
 22 23  1  0
 23 24  1  0
 24 25  1  0
 26 25  1  6
 26 28  1  0
 26 27  1  0
 27 17  1  0
 28 29  1  0
 30 28  2  0
M  END
$$$$
