RTR.pdb
     RDKit          3D

 30 29  0  0  1  0  0  0  0  0999 V2000
   30.4488  -21.1015   -7.0499 N   0  0  0  0  0  0  0  0  0  0  0  0
   31.5564  -21.9321   -7.3856 C   0  0  0  0  0  0  0  0  0  0  0  0
   32.4912  -22.0931   -6.5179 N   0  0  0  0  0  0  0  0  0  0  0  0
   31.6200  -22.5766   -8.6770 N   0  0  0  0  0  0  0  0  0  0  0  0
   30.6153  -22.2097   -9.6339 C   0  0  0  0  0  0  0  0  0  0  0  0
   31.0453  -21.1879  -10.6179 C   0  0  0  0  0  0  0  0  0  0  0  0
   30.0891  -20.7623  -11.6539 C   0  0  0  0  0  0  0  0  0  0  0  0
   29.7456  -21.7801  -12.7158 C   0  0  2  0  0  0  0  0  0  0  0  0
   30.8824  -22.3981  -13.2872 N   0  0  0  0  0  0  0  0  0  0  0  0
   28.7943  -21.1481  -13.6625 C   0  0  0  0  0  0  0  0  0  0  0  0
   29.1947  -20.1994  -14.4343 O   0  0  0  0  0  0  0  0  0  0  0  0
   33.3458  -22.6095   -6.7997 C   0  0  0  0  0  0  0  0  0  0  0  0
   27.5341  -21.9950  -16.7578 C   0  0  2  0  0  0  0  0  0  0  0  0
   26.2805  -21.6433  -15.9922 O   0  0  0  0  0  0  0  0  0  0  0  0
   25.7343  -22.8414  -15.5348 C   0  0  2  0  0  0  0  0  0  0  0  0
   26.5708  -20.8001  -14.7696 N   0  0  0  0  0  0  0  0  0  0  0  0
   27.4280  -21.4890  -13.8172 C   0  0  0  0  0  0  0  0  0  0  0  0
   25.2631  -20.4299  -14.1224 O   0  0  0  0  0  0  0  0  0  0  0  0
   24.9868  -20.8998  -12.9912 N   0  0  0  0  0  0  0  0  0  0  0  0
   17.6925  -15.5176  -16.5266 C   0  0  0  0  0  0  0  0  0  0  0  0
   18.1013  -16.8563  -16.7575 N   0  0  0  0  0  0  0  0  0  0  0  0
   17.6925  -17.4585  -17.8088 N   0  0  0  0  0  0  0  0  0  0  0  0
   18.9515  -17.5237  -15.8396 C   0  0  0  0  0  0  0  0  0  0  0  0
   20.1974  -16.9416  -15.4384 C   0  0  0  0  0  0  0  0  0  0  0  0
   20.9680  -17.8347  -14.4890 C   0  0  0  0  0  0  0  0  0  0  0  0
   22.3069  -18.2492  -15.0284 C   0  0  2  0  0  0  0  0  0  0  0  0
   23.0362  -19.2251  -14.1586 N   0  0  0  0  0  0  0  0  0  0  0  0
   24.3387  -19.5732  -14.7446 C   0  0  0  0  0  0  0  0  0  0  0  0
   22.3139  -20.4985  -13.9420 O   0  0  0  0  0  0  0  0  0  0  0  0
   21.5916  -20.7111  -12.7758 O   0  0  0  0  0  0  0  0  0  0  0  0
  2  3  2  0
  2  1  1  0
  4  2  1  0
  5  4  1  0
  6  7  1  0
  6  5  1  0
  8 10  1  0
  8  7  1  0
  8  9  1  6
 10 11  2  0
 13 12  1  6
 13 14  1  0
 15 13  1  0
 16 10  1  0
 15 16  1  6
 17 15  1  0
 18 17  2  0
 19 20  1  0
 20 22  1  0
 21 20  2  0
 22 23  1  0
 23 24  1  0
 24 25  1  0
 26 25  1  1
 26 28  1  0
 26 27  1  0
 27 17  1  0
 28 29  1  0
 30 28  2  0
M  END
$$$$
