RTR.pdb
     RDKit          3D

 30 29  0  0  1  0  0  0  0  0999 V2000
   19.7411  -16.7379  -20.7821 N   0  0  0  0  0  0  0  0  0  0  0  0
   21.0339  -17.2327  -21.1188 C   0  0  0  0  0  0  0  0  0  0  0  0
   21.1504  -18.0107  -22.1356 N   0  0  0  0  0  0  0  0  0  0  0  0
   22.1852  -16.8630  -20.3283 N   0  0  0  0  0  0  0  0  0  0  0  0
   21.9690  -15.9124  -19.2749 C   0  0  0  0  0  0  0  0  0  0  0  0
   22.2968  -14.5116  -19.6319 C   0  0  0  0  0  0  0  0  0  0  0  0
   21.9922  -13.4479  -18.6601 C   0  0  0  0  0  0  0  0  0  0  0  0
   23.0662  -13.1306  -17.6464 C   0  0  2  0  0  0  0  0  0  0  0  0
   23.6797  -14.2830  -17.1020 N   0  0  0  0  0  0  0  0  0  0  0  0
   22.5032  -12.1626  -16.6734 C   0  0  0  0  0  0  0  0  0  0  0  0
   21.8023  -12.5869  -15.6811 O   0  0  0  0  0  0  0  0  0  0  0  0
   22.0903  -18.3816  -22.3711 C   0  0  0  0  0  0  0  0  0  0  0  0
   23.7819  -10.3803  -13.9636 C   0  0  2  0  0  0  0  0  0  0  0  0
   23.0816   -9.3109  -14.7682 O   0  0  0  0  0  0  0  0  0  0  0  0
   24.0534   -8.6898  -15.5511 C   0  0  2  0  0  0  0  0  0  0  0  0
   22.0555   -9.8865  -15.7198 N   0  0  0  0  0  0  0  0  0  0  0  0
   22.6583  -10.7553  -16.7190 C   0  0  0  0  0  0  0  0  0  0  0  0
   21.3303   -8.7485  -16.3868 O   0  0  0  0  0  0  0  0  0  0  0  0
   21.7680   -8.2989  -17.4744 N   0  0  0  0  0  0  0  0  0  0  0  0
   13.9647   -4.9046  -13.6071 C   0  0  0  0  0  0  0  0  0  0  0  0
   14.8934   -3.9124  -14.0141 N   0  0  0  0  0  0  0  0  0  0  0  0
   14.6814   -2.6932  -13.6921 N   0  0  0  0  0  0  0  0  0  0  0  0
   16.0431   -4.2604  -14.7676 C   0  0  0  0  0  0  0  0  0  0  0  0
   16.0523   -5.4327  -15.5910 C   0  0  0  0  0  0  0  0  0  0  0  0
   17.3822   -5.6341  -16.2866 C   0  0  0  0  0  0  0  0  0  0  0  0
   18.1779   -6.7723  -15.7152 C   0  0  1  0  0  0  0  0  0  0  0  0
   19.4525   -7.0508  -16.4491 N   0  0  0  0  0  0  0  0  0  0  0  0
   20.1760   -8.1709  -15.8302 C   0  0  0  0  0  0  0  0  0  0  0  0
   20.3910   -5.9071  -16.4854 O   0  0  0  0  0  0  0  0  0  0  0  0
   21.3391   -5.7396  -15.4855 O   0  0  0  0  0  0  0  0  0  0  0  0
  2  3  2  0
  2  1  1  0
  4  2  1  0
  5  4  1  0
  6  7  1  0
  6  5  1  0
  8 10  1  0
  8  7  1  0
  8  9  1  1
 10 11  2  0
 13 12  1  1
 13 14  1  0
 15 13  1  0
 16 10  1  0
 15 16  1  1
 17 15  1  0
 18 17  2  0
 19 20  1  0
 20 22  1  0
 21 20  2  0
 22 23  1  0
 23 24  1  0
 24 25  1  0
 26 25  1  6
 26 28  1  0
 26 27  1  0
 27 17  1  0
 28 29  1  0
 30 28  2  0
M  END
$$$$
