RTR.pdb
     RDKit          3D

 30 29  0  0  1  0  0  0  0  0999 V2000
   14.2451  -14.6115  -13.6782 N   0  0  0  0  0  0  0  0  0  0  0  0
   13.9008  -15.4672  -14.7638 C   0  0  0  0  0  0  0  0  0  0  0  0
   13.2864  -16.5676  -14.5101 N   0  0  0  0  0  0  0  0  0  0  0  0
   14.2389  -15.0985  -16.1190 N   0  0  0  0  0  0  0  0  0  0  0  0
   15.3139  -14.1624  -16.2863 C   0  0  0  0  0  0  0  0  0  0  0  0
   14.9127  -12.7389  -16.1877 C   0  0  0  0  0  0  0  0  0  0  0  0
   15.9458  -11.7032  -16.3570 C   0  0  0  0  0  0  0  0  0  0  0  0
   15.8697  -10.8719  -17.6159 C   0  0  2  0  0  0  0  0  0  0  0  0
   15.8436  -11.6480  -18.7982 N   0  0  0  0  0  0  0  0  0  0  0  0
   16.9203   -9.8276  -17.5370 C   0  0  0  0  0  0  0  0  0  0  0  0
   17.9738   -9.9231  -18.2699 O   0  0  0  0  0  0  0  0  0  0  0  0
   13.0493  -17.1967  -15.3003 C   0  0  0  0  0  0  0  0  0  0  0  0
   18.4132   -5.1952  -16.6457 C   0  0  2  0  0  0  0  0  0  0  0  0
   17.3461   -6.2633  -16.6017 O   0  0  0  0  0  0  0  0  0  0  0  0
   16.4967   -6.0338  -17.6828 C   0  0  1  0  0  0  0  0  0  0  0  0
   17.9163   -7.6535  -16.7809 N   0  0  0  0  0  0  0  0  0  0  0  0
   16.8911   -8.6828  -16.7031 C   0  0  0  0  0  0  0  0  0  0  0  0
   18.9648   -7.8802  -15.7248 O   0  0  0  0  0  0  0  0  0  0  0  0
   18.6053   -8.0526  -14.5342 N   0  0  0  0  0  0  0  0  0  0  0  0
   26.6598  -11.7170  -16.7052 C   0  0  0  0  0  0  0  0  0  0  0  0
   25.2947  -11.6350  -17.0827 N   0  0  0  0  0  0  0  0  0  0  0  0
   24.9061  -12.2336  -18.1436 N   0  0  0  0  0  0  0  0  0  0  0  0
   24.3682  -10.9012  -16.2990 C   0  0  0  0  0  0  0  0  0  0  0  0
   24.8194   -9.9137  -15.3645 C   0  0  0  0  0  0  0  0  0  0  0  0
   23.6700   -9.1733  -14.7135 C   0  0  0  0  0  0  0  0  0  0  0  0
   22.5449   -8.8817  -15.6644 C   0  0  1  0  0  0  0  0  0  0  0  0
   21.3817   -8.1826  -15.0326 N   0  0  0  0  0  0  0  0  0  0  0  0
   20.3369   -7.9052  -16.0289 C   0  0  0  0  0  0  0  0  0  0  0  0
   21.7241   -6.8874  -14.4040 O   0  0  0  0  0  0  0  0  0  0  0  0
   21.7232   -5.7176  -15.1513 O   0  0  0  0  0  0  0  0  0  0  0  0
  2  3  2  0
  2  1  1  0
  4  2  1  0
  5  4  1  0
  6  7  1  0
  6  5  1  0
  8 10  1  0
  8  7  1  0
  8  9  1  6
 10 11  2  0
 13 12  1  1
 13 14  1  0
 15 13  1  0
 16 10  1  0
 15 16  1  1
 17 15  1  0
 18 17  2  0
 19 20  1  0
 20 22  1  0
 21 20  2  0
 22 23  1  0
 23 24  1  0
 24 25  1  0
 26 25  1  1
 26 28  1  0
 26 27  1  0
 27 17  1  0
 28 29  1  0
 30 28  2  0
M  END
$$$$
