SLW.pdb
     RDKit          3D

 29 30  0  0  1  0  0  0  0  0999 V2000
   22.4246  -18.9592  -20.0889 O   0  0  0  0  0  0  0  0  0  0  0  0
   23.2280  -20.0241  -19.6999 C   0  0  0  0  0  0  0  0  0  0  0  0
   24.6602  -19.7158  -20.0850 C   0  0  2  0  0  0  0  0  0  0  0  0
   24.8327  -20.1219  -21.4661 N   0  0  0  0  0  0  0  0  0  0  0  0
   25.6392  -20.4200  -19.2425 C   0  0  0  0  0  0  0  0  0  0  0  0
   25.8671  -21.6381  -19.4536 O   0  0  0  0  0  0  0  0  0  0  0  0
   29.6020  -19.6131  -18.9598 C   0  0  0  0  0  0  0  0  0  0  0  0
   28.9527  -18.6764  -17.9916 C   0  0  2  0  0  0  0  0  0  0  0  0
   29.9866  -17.7378  -17.4003 C   0  0  0  0  0  0  0  0  0  0  0  0
   28.2996  -19.3981  -16.8636 C   0  0  0  0  0  0  0  0  0  0  0  0
   27.2633  -20.4175  -17.2898 C   0  0  2  0  0  0  0  0  0  0  0  0
   26.3286  -19.7607  -18.2033 N   0  0  0  0  0  0  0  0  0  0  0  0
   26.5745  -20.8507  -16.0622 C   0  0  0  0  0  0  0  0  0  0  0  0
   27.2232  -21.3676  -15.1412 O   0  0  0  0  0  0  0  0  0  0  0  0
   25.1861  -20.6728  -15.9476 N   0  0  0  0  0  0  0  0  0  0  0  0
   24.3980  -21.0691  -14.7744 C   0  0  1  0  0  0  0  0  0  0  0  0
   24.5868  -20.1096  -13.6614 C   0  0  0  0  0  0  0  0  0  0  0  0
   24.1115  -18.7618  -13.9809 C   0  0  0  0  0  0  0  0  0  0  0  0
   22.7439  -18.4655  -14.0754 C   0  0  0  0  0  0  0  0  0  0  0  0
   22.6528  -17.1785  -14.4111 N   0  0  0  0  0  0  0  0  0  0  0  0
   23.8729  -16.6430  -14.5340 C   0  0  0  0  0  0  0  0  0  0  0  0
   24.2342  -15.3414  -14.8519 C   0  0  0  0  0  0  0  0  0  0  0  0
   25.5722  -15.0371  -14.8961 C   0  0  0  0  0  0  0  0  0  0  0  0
   26.5184  -16.0248  -14.6256 C   0  0  0  0  0  0  0  0  0  0  0  0
   26.1454  -17.3189  -14.3106 C   0  0  0  0  0  0  0  0  0  0  0  0
   24.8112  -17.6171  -14.2685 C   0  0  0  0  0  0  0  0  0  0  0  0
   23.0579  -21.4073  -15.1925 C   0  0  0  0  0  0  0  0  0  0  0  0
   22.0635  -22.0161  -14.4391 O   0  0  0  0  0  0  0  0  0  0  0  0
   22.7028  -21.1360  -16.3938 O   0  0  0  0  0  0  0  0  0  0  0  0
  1  2  1  0
  2  3  1  0
  3  5  1  0
  3  4  1  6
  5  6  2  0
  8 10  1  0
  8  7  1  6
  9  8  1  0
 11 10  1  1
 11 13  1  0
 12  5  1  0
 12 11  1  0
 13 14  2  0
 15 13  1  0
 15 16  1  0
 16 27  1  0
 16 17  1  1
 18 19  2  0
 18 17  1  0
 20 19  1  0
 21 26  2  0
 21 20  1  0
 22 21  1  0
 23 24  1  0
 23 22  2  0
 24 25  2  0
 25 26  1  0
 26 18  1  0
 27 28  1  0
 29 27  2  0
M  END
$$$$
