SLW.pdb
     RDKit          3D

 29 30  0  0  1  0  0  0  0  0999 V2000
   22.0222  -19.4354  -12.4614 O   0  0  0  0  0  0  0  0  0  0  0  0
   22.4952  -18.4959  -13.3695 C   0  0  0  0  0  0  0  0  0  0  0  0
   23.1283  -19.2262  -14.5358 C   0  0  2  0  0  0  0  0  0  0  0  0
   22.0714  -19.9465  -15.2189 N   0  0  0  0  0  0  0  0  0  0  0  0
   24.1719  -20.1734  -14.1142 C   0  0  0  0  0  0  0  0  0  0  0  0
   23.8970  -21.3981  -14.0431 O   0  0  0  0  0  0  0  0  0  0  0  0
   30.2871  -19.7282  -12.9531 C   0  0  0  0  0  0  0  0  0  0  0  0
   29.0708  -20.5941  -13.0393 C   0  0  2  0  0  0  0  0  0  0  0  0
   29.2630  -21.6597  -14.1009 C   0  0  0  0  0  0  0  0  0  0  0  0
   27.8513  -19.8157  -13.3954 C   0  0  0  0  0  0  0  0  0  0  0  0
   26.5796  -20.6369  -13.4519 C   0  0  2  0  0  0  0  0  0  0  0  0
   25.4740  -19.7401  -13.7877 N   0  0  0  0  0  0  0  0  0  0  0  0
   26.3944  -21.2122  -12.1089 C   0  0  0  0  0  0  0  0  0  0  0  0
   27.1020  -22.1613  -11.7418 O   0  0  0  0  0  0  0  0  0  0  0  0
   25.4152  -20.6778  -11.2555 N   0  0  0  0  0  0  0  0  0  0  0  0
   25.3367  -20.9530   -9.8159 C   0  0  1  0  0  0  0  0  0  0  0  0
   26.5852  -20.5454   -9.1304 C   0  0  0  0  0  0  0  0  0  0  0  0
   26.5038  -20.6666   -7.6732 C   0  0  0  0  0  0  0  0  0  0  0  0
   25.4809  -21.3963   -7.0501 C   0  0  0  0  0  0  0  0  0  0  0  0
   25.6724  -21.2795   -5.7360 N   0  0  0  0  0  0  0  0  0  0  0  0
   26.7493  -20.5247   -5.4888 C   0  0  0  0  0  0  0  0  0  0  0  0
   27.3105  -20.1647   -4.2717 C   0  0  0  0  0  0  0  0  0  0  0  0
   28.4423  -19.3879   -4.2892 C   0  0  0  0  0  0  0  0  0  0  0  0
   28.9906  -18.9865   -5.5067 C   0  0  0  0  0  0  0  0  0  0  0  0
   28.4212  -19.3515   -6.7133 C   0  0  0  0  0  0  0  0  0  0  0  0
   27.2934  -20.1249   -6.6904 C   0  0  0  0  0  0  0  0  0  0  0  0
   24.0693  -20.4821   -9.3089 C   0  0  0  0  0  0  0  0  0  0  0  0
   23.2684  -21.0778   -8.3443 O   0  0  0  0  0  0  0  0  0  0  0  0
   23.5866  -19.3922   -9.7800 O   0  0  0  0  0  0  0  0  0  0  0  0
  1  2  1  0
  2  3  1  0
  3  5  1  0
  3  4  1  1
  5  6  2  0
  8 10  1  0
  8  7  1  6
  9  8  1  0
 11 10  1  1
 11 13  1  0
 12  5  1  0
 12 11  1  0
 13 14  2  0
 15 13  1  0
 15 16  1  0
 16 27  1  0
 16 17  1  1
 18 19  2  0
 18 17  1  0
 20 19  1  0
 21 26  2  0
 21 20  1  0
 22 21  1  0
 23 24  1  0
 23 22  2  0
 24 25  2  0
 25 26  1  0
 26 18  1  0
 27 28  1  0
 29 27  2  0
M  END
$$$$
