SLW.pdb
     RDKit          3D

 29 30  0  0  1  0  0  0  0  0999 V2000
   21.7494  -20.5988  -15.7474 O   0  0  0  0  0  0  0  0  0  0  0  0
   21.8969  -19.3694  -16.3781 C   0  0  0  0  0  0  0  0  0  0  0  0
   22.8251  -19.5415  -17.5627 C   0  0  2  0  0  0  0  0  0  0  0  0
   22.1501  -20.3970  -18.5191 N   0  0  0  0  0  0  0  0  0  0  0  0
   24.1142  -20.1453  -17.1914 C   0  0  0  0  0  0  0  0  0  0  0  0
   24.4009  -21.2920  -17.6193 O   0  0  0  0  0  0  0  0  0  0  0  0
   29.1344  -19.7517  -14.7924 C   0  0  0  0  0  0  0  0  0  0  0  0
   28.7683  -19.0553  -16.0641 C   0  0  2  0  0  0  0  0  0  0  0  0
   29.5419  -17.7572  -16.1897 C   0  0  0  0  0  0  0  0  0  0  0  0
   27.3169  -18.7245  -16.1257 C   0  0  0  0  0  0  0  0  0  0  0  0
   26.3993  -19.9296  -16.1040 C   0  0  2  0  0  0  0  0  0  0  0  0
   25.0364  -19.4679  -16.3664 N   0  0  0  0  0  0  0  0  0  0  0  0
   26.5024  -20.5082  -14.7536 C   0  0  0  0  0  0  0  0  0  0  0  0
   27.5667  -21.0248  -14.3839 O   0  0  0  0  0  0  0  0  0  0  0  0
   25.3906  -20.4684  -13.8963 N   0  0  0  0  0  0  0  0  0  0  0  0
   25.4174  -20.8910  -12.4909 C   0  0  1  0  0  0  0  0  0  0  0  0
   26.5827  -20.3083  -11.7853 C   0  0  0  0  0  0  0  0  0  0  0  0
   26.4696  -20.3922  -10.3276 C   0  0  0  0  0  0  0  0  0  0  0  0
   25.2280  -20.3212   -9.6792 C   0  0  0  0  0  0  0  0  0  0  0  0
   25.4743  -20.3913   -8.3708 N   0  0  0  0  0  0  0  0  0  0  0  0
   26.7895  -20.5026   -8.1510 C   0  0  0  0  0  0  0  0  0  0  0  0
   27.4738  -20.6178   -6.9492 C   0  0  0  0  0  0  0  0  0  0  0  0
   28.8405  -20.7392   -6.9955 C   0  0  0  0  0  0  0  0  0  0  0  0
   29.4961  -20.7437   -8.2260 C   0  0  0  0  0  0  0  0  0  0  0  0
   28.8027  -20.6274   -9.4171 C   0  0  0  0  0  0  0  0  0  0  0  0
   27.4413  -20.5061   -9.3655 C   0  0  0  0  0  0  0  0  0  0  0  0
   24.0998  -20.7355  -11.9211 C   0  0  0  0  0  0  0  0  0  0  0  0
   23.5914  -21.3461  -10.7829 O   0  0  0  0  0  0  0  0  0  0  0  0
   23.2669  -19.9554  -12.5046 O   0  0  0  0  0  0  0  0  0  0  0  0
  1  2  1  0
  2  3  1  0
  3  5  1  0
  3  4  1  6
  5  6  2  0
  8 10  1  0
  8  7  1  1
  9  8  1  0
 11 10  1  1
 11 13  1  0
 12  5  1  0
 12 11  1  0
 13 14  2  0
 15 13  1  0
 15 16  1  0
 16 27  1  0
 16 17  1  1
 18 19  2  0
 18 17  1  0
 20 19  1  0
 21 26  2  0
 21 20  1  0
 22 21  1  0
 23 24  1  0
 23 22  2  0
 24 25  2  0
 25 26  1  0
 26 18  1  0
 27 28  1  0
 29 27  2  0
M  END
$$$$
