SLW.pdb
     RDKit          3D

 29 30  0  0  1  0  0  0  0  0999 V2000
   29.4352  -23.2318  -16.9093 O   0  0  0  0  0  0  0  0  0  0  0  0
   29.2225  -22.3776  -15.8340 C   0  0  0  0  0  0  0  0  0  0  0  0
   28.0907  -21.4331  -16.1828 C   0  0  2  0  0  0  0  0  0  0  0  0
   28.6360  -20.4088  -17.0521 N   0  0  0  0  0  0  0  0  0  0  0  0
   27.4929  -20.8004  -14.9969 C   0  0  0  0  0  0  0  0  0  0  0  0
   27.9960  -19.7395  -14.5478 O   0  0  0  0  0  0  0  0  0  0  0  0
   23.8090  -18.6042  -14.2588 C   0  0  0  0  0  0  0  0  0  0  0  0
   23.6187  -20.0651  -14.5155 C   0  0  2  0  0  0  0  0  0  0  0  0
   22.1409  -20.3882  -14.6210 C   0  0  0  0  0  0  0  0  0  0  0  0
   24.1886  -20.9059  -13.4255 C   0  0  0  0  0  0  0  0  0  0  0  0
   25.6798  -20.7364  -13.2195 C   0  0  2  0  0  0  0  0  0  0  0  0
   26.3683  -21.3559  -14.3516 N   0  0  0  0  0  0  0  0  0  0  0  0
   26.0096  -21.4329  -11.9645 C   0  0  0  0  0  0  0  0  0  0  0  0
   26.4574  -22.5881  -12.0001 O   0  0  0  0  0  0  0  0  0  0  0  0
   25.8128  -20.7792  -10.7372 N   0  0  0  0  0  0  0  0  0  0  0  0
   26.1724  -21.3481   -9.4328 C   0  0  1  0  0  0  0  0  0  0  0  0
   27.5600  -20.9851   -9.0616 C   0  0  0  0  0  0  0  0  0  0  0  0
   27.6274  -20.0932   -7.9019 C   0  0  0  0  0  0  0  0  0  0  0  0
   26.7248  -19.0330   -7.7338 C   0  0  0  0  0  0  0  0  0  0  0  0
   27.0773  -18.4035   -6.6127 N   0  0  0  0  0  0  0  0  0  0  0  0
   28.1426  -18.9971   -6.0620 C   0  0  0  0  0  0  0  0  0  0  0  0
   28.8200  -18.6797   -4.8932 C   0  0  0  0  0  0  0  0  0  0  0  0
   29.8850  -19.4672   -4.5320 C   0  0  0  0  0  0  0  0  0  0  0  0
   30.2536  -20.5470   -5.3333 C   0  0  0  0  0  0  0  0  0  0  0  0
   29.5705  -20.8527   -6.4966 C   0  0  0  0  0  0  0  0  0  0  0  0
   28.5107  -20.0647   -6.8523 C   0  0  0  0  0  0  0  0  0  0  0  0
   25.1044  -21.0992   -8.4934 C   0  0  0  0  0  0  0  0  0  0  0  0
   24.9063  -21.6990   -7.2573 O   0  0  0  0  0  0  0  0  0  0  0  0
   24.2088  -20.2341   -8.7973 O   0  0  0  0  0  0  0  0  0  0  0  0
  1  2  1  0
  2  3  1  0
  3  5  1  0
  3  4  1  6
  5  6  2  0
  8 10  1  0
  8  7  1  1
  9  8  1  0
 11 10  1  6
 11 13  1  0
 12  5  1  0
 12 11  1  0
 13 14  2  0
 15 13  1  0
 15 16  1  0
 16 27  1  0
 16 17  1  1
 18 19  2  0
 18 17  1  0
 20 19  1  0
 21 26  2  0
 21 20  1  0
 22 21  1  0
 23 24  1  0
 23 22  2  0
 24 25  2  0
 25 26  1  0
 26 18  1  0
 27 28  1  0
 29 27  2  0
M  END
$$$$
