SLW.pdb
     RDKit          3D

 29 30  0  0  1  0  0  0  0  0999 V2000
   27.0852  -23.7652  -17.8248 O   0  0  0  0  0  0  0  0  0  0  0  0
   27.6308  -22.7782  -18.6368 C   0  0  0  0  0  0  0  0  0  0  0  0
   28.7881  -22.1328  -17.9029 C   0  0  2  0  0  0  0  0  0  0  0  0
   29.8063  -23.1494  -17.7240 N   0  0  0  0  0  0  0  0  0  0  0  0
   28.3991  -21.5943  -16.5904 C   0  0  0  0  0  0  0  0  0  0  0  0
   28.8581  -22.1263  -15.5480 O   0  0  0  0  0  0  0  0  0  0  0  0
   25.5094  -16.3879  -14.7676 C   0  0  0  0  0  0  0  0  0  0  0  0
   26.3143  -17.5909  -14.3919 C   0  0  2  0  0  0  0  0  0  0  0  0
   27.6280  -17.1651  -13.7654 C   0  0  0  0  0  0  0  0  0  0  0  0
   26.6315  -18.4452  -15.5707 C   0  0  0  0  0  0  0  0  0  0  0  0
   27.2655  -19.7770  -15.2255 C   0  0  2  0  0  0  0  0  0  0  0  0
   27.5232  -20.4947  -16.4737 N   0  0  0  0  0  0  0  0  0  0  0  0
   26.2864  -20.5035  -14.3994 C   0  0  0  0  0  0  0  0  0  0  0  0
   25.2566  -20.9566  -14.9194 O   0  0  0  0  0  0  0  0  0  0  0  0
   26.5306  -20.6760  -13.0271 N   0  0  0  0  0  0  0  0  0  0  0  0
   25.7419  -21.5526  -12.1530 C   0  0  1  0  0  0  0  0  0  0  0  0
   26.5532  -22.0259  -11.0072 C   0  0  0  0  0  0  0  0  0  0  0  0
   26.5130  -21.1140   -9.8620 C   0  0  0  0  0  0  0  0  0  0  0  0
   25.3406  -20.4332   -9.5024 C   0  0  0  0  0  0  0  0  0  0  0  0
   25.6476  -19.6679   -8.4549 N   0  0  0  0  0  0  0  0  0  0  0  0
   26.9364  -19.8214   -8.1293 C   0  0  0  0  0  0  0  0  0  0  0  0
   27.6608  -19.2310   -7.1034 C   0  0  0  0  0  0  0  0  0  0  0  0
   28.9830  -19.5748   -6.9681 C   0  0  0  0  0  0  0  0  0  0  0  0
   29.5558  -20.4919   -7.8483 C   0  0  0  0  0  0  0  0  0  0  0  0
   28.8231  -21.0731   -8.8675 C   0  0  0  0  0  0  0  0  0  0  0  0
   27.5065  -20.7267   -8.9984 C   0  0  0  0  0  0  0  0  0  0  0  0
   24.4568  -20.9440  -11.9017 C   0  0  0  0  0  0  0  0  0  0  0  0
   23.2726  -21.5784  -11.5524 O   0  0  0  0  0  0  0  0  0  0  0  0
   24.3494  -19.6711  -12.0068 O   0  0  0  0  0  0  0  0  0  0  0  0
  1  2  1  0
  2  3  1  0
  3  5  1  0
  3  4  1  1
  5  6  2  0
  8 10  1  0
  8  7  1  6
  9  8  1  0
 11 10  1  6
 11 13  1  0
 12  5  1  0
 12 11  1  0
 13 14  2  0
 15 13  1  0
 15 16  1  0
 16 27  1  0
 16 17  1  1
 18 19  2  0
 18 17  1  0
 20 19  1  0
 21 26  2  0
 21 20  1  0
 22 21  1  0
 23 24  1  0
 23 22  2  0
 24 25  2  0
 25 26  1  0
 26 18  1  0
 27 28  1  0
 29 27  2  0
M  END
$$$$
