SLW.pdb
     RDKit          3D

 29 30  0  0  1  0  0  0  0  0999 V2000
   25.9051  -17.5711  -15.3852 O   0  0  0  0  0  0  0  0  0  0  0  0
   27.1079  -17.6603  -14.6950 C   0  0  0  0  0  0  0  0  0  0  0  0
   27.4857  -19.1216  -14.5677 C   0  0  2  0  0  0  0  0  0  0  0  0
   27.9511  -19.5618  -15.8685 N   0  0  0  0  0  0  0  0  0  0  0  0
   26.3583  -19.9648  -14.1409 C   0  0  0  0  0  0  0  0  0  0  0  0
   25.8541  -20.7757  -14.9586 O   0  0  0  0  0  0  0  0  0  0  0  0
   27.0948  -22.0648  -10.8110 C   0  0  0  0  0  0  0  0  0  0  0  0
   26.3539  -20.8576  -10.3311 C   0  0  2  0  0  0  0  0  0  0  0  0
   26.3288  -20.8292   -8.8152 C   0  0  0  0  0  0  0  0  0  0  0  0
   24.9422  -20.8388  -10.8072 C   0  0  0  0  0  0  0  0  0  0  0  0
   24.7909  -20.7726  -12.3130 C   0  0  2  0  0  0  0  0  0  0  0  0
   25.8295  -19.8852  -12.8356 N   0  0  0  0  0  0  0  0  0  0  0  0
   23.4519  -20.2175  -12.5738 C   0  0  0  0  0  0  0  0  0  0  0  0
   23.2479  -19.0041  -12.4250 O   0  0  0  0  0  0  0  0  0  0  0  0
   22.4171  -21.0714  -12.9895 N   0  0  0  0  0  0  0  0  0  0  0  0
   21.0611  -20.6211  -13.3252 C   0  0  1  0  0  0  0  0  0  0  0  0
   21.0966  -19.5591  -14.3577 C   0  0  0  0  0  0  0  0  0  0  0  0
   21.5865  -20.0361  -15.6527 C   0  0  0  0  0  0  0  0  0  0  0  0
   21.1664  -21.2596  -16.1947 C   0  0  0  0  0  0  0  0  0  0  0  0
   21.8175  -21.4117  -17.3480 N   0  0  0  0  0  0  0  0  0  0  0  0
   22.6202  -20.3645  -17.5699 C   0  0  0  0  0  0  0  0  0  0  0  0
   23.4573  -20.1106  -18.6473 C   0  0  0  0  0  0  0  0  0  0  0  0
   24.1718  -18.9382  -18.6453 C   0  0  0  0  0  0  0  0  0  0  0  0
   24.0416  -18.0473  -17.5808 C   0  0  0  0  0  0  0  0  0  0  0  0
   23.2042  -18.3123  -16.5122 C   0  0  0  0  0  0  0  0  0  0  0  0
   22.4952  -19.4819  -16.5186 C   0  0  0  0  0  0  0  0  0  0  0  0
   20.2131  -21.7720  -13.5283 C   0  0  0  0  0  0  0  0  0  0  0  0
   18.8285  -21.7982  -13.6237 O   0  0  0  0  0  0  0  0  0  0  0  0
   20.7600  -22.9264  -13.6334 O   0  0  0  0  0  0  0  0  0  0  0  0
  1  2  1  0
  2  3  1  0
  3  5  1  0
  3  4  1  6
  5  6  2  0
  8 10  1  0
  8  7  1  1
  9  8  1  0
 11 10  1  1
 11 13  1  0
 12  5  1  0
 12 11  1  0
 13 14  2  0
 15 13  1  0
 15 16  1  0
 16 27  1  0
 16 17  1  6
 18 19  2  0
 18 17  1  0
 20 19  1  0
 21 26  2  0
 21 20  1  0
 22 21  1  0
 23 24  1  0
 23 22  2  0
 24 25  2  0
 25 26  1  0
 26 18  1  0
 27 28  1  0
 29 27  2  0
M  END
$$$$
