SLW.pdb
     RDKit          3D

 29 30  0  0  1  0  0  0  0  0999 V2000
   25.6712  -17.0082  -15.4963 O   0  0  0  0  0  0  0  0  0  0  0  0
   25.8329  -18.2549  -16.0884 C   0  0  0  0  0  0  0  0  0  0  0  0
   26.5938  -19.1498  -15.1321 C   0  0  2  0  0  0  0  0  0  0  0  0
   27.5360  -19.9207  -15.9196 N   0  0  0  0  0  0  0  0  0  0  0  0
   25.7141  -20.0652  -14.3888 C   0  0  0  0  0  0  0  0  0  0  0  0
   25.2779  -21.0965  -14.9601 O   0  0  0  0  0  0  0  0  0  0  0  0
   26.6272  -22.0976  -10.7921 C   0  0  0  0  0  0  0  0  0  0  0  0
   26.1842  -20.7030  -10.4832 C   0  0  2  0  0  0  0  0  0  0  0  0
   26.3660  -20.4128   -9.0059 C   0  0  0  0  0  0  0  0  0  0  0  0
   24.7480  -20.4836  -10.8136 C   0  0  0  0  0  0  0  0  0  0  0  0
   24.4140  -20.6368  -12.2832 C   0  0  2  0  0  0  0  0  0  0  0  0
   25.3483  -19.8131  -13.0500 N   0  0  0  0  0  0  0  0  0  0  0  0
   23.0335  -20.1515  -12.4501 C   0  0  0  0  0  0  0  0  0  0  0  0
   22.5090  -19.4669  -11.5599 O   0  0  0  0  0  0  0  0  0  0  0  0
   22.3240  -20.4701  -13.6196 N   0  0  0  0  0  0  0  0  0  0  0  0
   20.9389  -20.0607  -13.8811 C   0  0  1  0  0  0  0  0  0  0  0  0
   20.8404  -19.3111  -15.1553 C   0  0  0  0  0  0  0  0  0  0  0  0
   21.0885  -20.1471  -16.3318 C   0  0  0  0  0  0  0  0  0  0  0  0
   20.3445  -21.3098  -16.5801 C   0  0  0  0  0  0  0  0  0  0  0  0
   20.8379  -21.8500  -17.6946 N   0  0  0  0  0  0  0  0  0  0  0  0
   21.8438  -21.1042  -18.1663 C   0  0  0  0  0  0  0  0  0  0  0  0
   22.6202  -21.2911  -19.3013 C   0  0  0  0  0  0  0  0  0  0  0  0
   23.5898  -20.3597  -19.5787 C   0  0  0  0  0  0  0  0  0  0  0  0
   23.7680  -19.2684  -18.7294 C   0  0  0  0  0  0  0  0  0  0  0  0
   22.9880  -19.0937  -17.6005 C   0  0  0  0  0  0  0  0  0  0  0  0
   22.0238  -20.0249  -17.3282 C   0  0  0  0  0  0  0  0  0  0  0  0
   20.0592  -21.1833  -13.6552 C   0  0  0  0  0  0  0  0  0  0  0  0
   20.4082  -22.5204  -13.5248 O   0  0  0  0  0  0  0  0  0  0  0  0
   18.7993  -20.9668  -13.5622 O   0  0  0  0  0  0  0  0  0  0  0  0
  1  2  1  0
  2  3  1  0
  3  5  1  0
  3  4  1  6
  5  6  2  0
  8 10  1  0
  8  7  1  1
  9  8  1  0
 11 10  1  1
 11 13  1  0
 12  5  1  0
 12 11  1  0
 13 14  2  0
 15 13  1  0
 15 16  1  0
 16 27  1  0
 16 17  1  6
 18 19  2  0
 18 17  1  0
 20 19  1  0
 21 26  2  0
 21 20  1  0
 22 21  1  0
 23 24  1  0
 23 22  2  0
 24 25  2  0
 25 26  1  0
 26 18  1  0
 27 28  1  0
 29 27  2  0
M  END
$$$$
