SLW.pdb
     RDKit          3D

 29 30  0  0  1  0  0  0  0  0999 V2000
   28.0993  -22.8852  -15.4029 O   0  0  0  0  0  0  0  0  0  0  0  0
   27.1105  -22.6988  -16.3614 C   0  0  0  0  0  0  0  0  0  0  0  0
   26.7703  -21.2241  -16.4253 C   0  0  2  0  0  0  0  0  0  0  0  0
   27.9741  -20.5203  -16.8223 N   0  0  0  0  0  0  0  0  0  0  0  0
   26.2965  -20.6941  -15.1374 C   0  0  0  0  0  0  0  0  0  0  0  0
   27.0040  -19.8584  -14.5198 O   0  0  0  0  0  0  0  0  0  0  0  0
   21.0672  -21.2802  -11.7867 C   0  0  0  0  0  0  0  0  0  0  0  0
   22.3991  -20.6213  -11.9559 C   0  0  2  0  0  0  0  0  0  0  0  0
   22.2310  -19.1161  -12.0298 C   0  0  0  0  0  0  0  0  0  0  0  0
   23.0891  -21.0609  -13.2011 C   0  0  0  0  0  0  0  0  0  0  0  0
   24.5217  -20.5840  -13.3239 C   0  0  2  0  0  0  0  0  0  0  0  0
   25.0669  -21.1014  -14.5787 N   0  0  0  0  0  0  0  0  0  0  0  0
   25.2477  -21.1426  -12.1708 C   0  0  0  0  0  0  0  0  0  0  0  0
   25.6038  -22.3298  -12.1828 O   0  0  0  0  0  0  0  0  0  0  0  0
   25.5300  -20.3221  -11.0665 N   0  0  0  0  0  0  0  0  0  0  0  0
   26.2759  -20.7620   -9.8814 C   0  0  1  0  0  0  0  0  0  0  0  0
   27.4467  -19.8873   -9.6382 C   0  0  0  0  0  0  0  0  0  0  0  0
   28.2372  -20.2990   -8.4762 C   0  0  0  0  0  0  0  0  0  0  0  0
   29.3862  -21.0921   -8.6096 C   0  0  0  0  0  0  0  0  0  0  0  0
   29.8435  -21.3149   -7.3773 N   0  0  0  0  0  0  0  0  0  0  0  0
   29.0590  -20.7140   -6.4751 C   0  0  0  0  0  0  0  0  0  0  0  0
   29.1773  -20.6763   -5.0929 C   0  0  0  0  0  0  0  0  0  0  0  0
   28.2399  -19.9652   -4.3855 C   0  0  0  0  0  0  0  0  0  0  0  0
   27.2106  -19.3101   -5.0602 C   0  0  0  0  0  0  0  0  0  0  0  0
   27.1032  -19.3559   -6.4385 C   0  0  0  0  0  0  0  0  0  0  0  0
   28.0392  -20.0662   -7.1385 C   0  0  0  0  0  0  0  0  0  0  0  0
   25.3504  -21.0153   -8.8024 C   0  0  0  0  0  0  0  0  0  0  0  0
   25.4715  -21.9511   -7.7843 O   0  0  0  0  0  0  0  0  0  0  0  0
   24.2747  -20.3213   -8.7408 O   0  0  0  0  0  0  0  0  0  0  0  0
  1  2  1  0
  2  3  1  0
  3  5  1  0
  3  4  1  1
  5  6  2  0
  8 10  1  0
  8  7  1  6
  9  8  1  0
 11 10  1  1
 11 13  1  0
 12  5  1  0
 12 11  1  0
 13 14  2  0
 15 13  1  0
 15 16  1  0
 16 27  1  0
 16 17  1  1
 18 19  2  0
 18 17  1  0
 20 19  1  0
 21 26  2  0
 21 20  1  0
 22 21  1  0
 23 24  1  0
 23 22  2  0
 24 25  2  0
 25 26  1  0
 26 18  1  0
 27 28  1  0
 29 27  2  0
M  END
$$$$
