SLW.pdb
     RDKit          3D

 29 30  0  0  1  0  0  0  0  0999 V2000
   22.0718  -20.3004  -12.7571 O   0  0  0  0  0  0  0  0  0  0  0  0
   22.3407  -19.2257  -13.5961 C   0  0  0  0  0  0  0  0  0  0  0  0
   23.0890  -19.7353  -14.8105 C   0  0  2  0  0  0  0  0  0  0  0  0
   22.1833  -20.5965  -15.5455 N   0  0  0  0  0  0  0  0  0  0  0  0
   24.3010  -20.4898  -14.4557 C   0  0  0  0  0  0  0  0  0  0  0  0
   24.3131  -21.7379  -14.6058 O   0  0  0  0  0  0  0  0  0  0  0  0
   28.1386  -20.0230  -16.2362 C   0  0  0  0  0  0  0  0  0  0  0  0
   27.9374  -18.9658  -15.1978 C   0  0  2  0  0  0  0  0  0  0  0  0
   29.1025  -17.9953  -15.2084 C   0  0  0  0  0  0  0  0  0  0  0  0
   27.8378  -19.5378  -13.8256 C   0  0  0  0  0  0  0  0  0  0  0  0
   26.7065  -20.5283  -13.6415 C   0  0  2  0  0  0  0  0  0  0  0  0
   25.4503  -19.8460  -13.9511 N   0  0  0  0  0  0  0  0  0  0  0  0
   26.7401  -20.9422  -12.2286 C   0  0  0  0  0  0  0  0  0  0  0  0
   27.7397  -21.5216  -11.7797 O   0  0  0  0  0  0  0  0  0  0  0  0
   25.6363  -20.6753  -11.4022 N   0  0  0  0  0  0  0  0  0  0  0  0
   25.6039  -20.9393   -9.9587 C   0  0  1  0  0  0  0  0  0  0  0  0
   26.8152  -20.4029   -9.2954 C   0  0  0  0  0  0  0  0  0  0  0  0
   26.7233  -20.4221   -7.8339 C   0  0  0  0  0  0  0  0  0  0  0  0
   25.6244  -20.9888   -7.1717 C   0  0  0  0  0  0  0  0  0  0  0  0
   25.8308  -20.8124   -5.8664 N   0  0  0  0  0  0  0  0  0  0  0  0
   26.9878  -20.1724   -5.6614 C   0  0  0  0  0  0  0  0  0  0  0  0
   27.5891  -19.8035   -4.4663 C   0  0  0  0  0  0  0  0  0  0  0  0
   28.8027  -19.1644   -4.5265 C   0  0  0  0  0  0  0  0  0  0  0  0
   29.3910  -18.9060   -5.7639 C   0  0  0  0  0  0  0  0  0  0  0  0
   28.7811  -19.2782   -6.9482 C   0  0  0  0  0  0  0  0  0  0  0  0
   27.5718  -19.9141   -6.8828 C   0  0  0  0  0  0  0  0  0  0  0  0
   24.3031  -20.5887   -9.4391 C   0  0  0  0  0  0  0  0  0  0  0  0
   23.5989  -21.2187   -8.4222 O   0  0  0  0  0  0  0  0  0  0  0  0
   23.6873  -19.5876   -9.9504 O   0  0  0  0  0  0  0  0  0  0  0  0
  1  2  1  0
  2  3  1  0
  3  5  1  0
  3  4  1  1
  5  6  2  0
  8 10  1  0
  8  7  1  6
  9  8  1  0
 11 10  1  1
 11 13  1  0
 12  5  1  0
 12 11  1  0
 13 14  2  0
 15 13  1  0
 15 16  1  0
 16 27  1  0
 16 17  1  1
 18 19  2  0
 18 17  1  0
 20 19  1  0
 21 26  2  0
 21 20  1  0
 22 21  1  0
 23 24  1  0
 23 22  2  0
 24 25  2  0
 25 26  1  0
 26 18  1  0
 27 28  1  0
 29 27  2  0
M  END
$$$$
