SLW.pdb
     RDKit          3D

 29 30  0  0  1  0  0  0  0  0999 V2000
   22.4886  -19.5072  -13.3435 O   0  0  0  0  0  0  0  0  0  0  0  0
   22.8579  -18.2994  -13.9230 C   0  0  0  0  0  0  0  0  0  0  0  0
   23.7159  -18.5878  -15.1376 C   0  0  2  0  0  0  0  0  0  0  0  0
   22.8355  -19.0737  -16.1823 N   0  0  0  0  0  0  0  0  0  0  0  0
   24.7586  -19.5908  -14.8715 C   0  0  0  0  0  0  0  0  0  0  0  0
   24.5793  -20.7772  -15.2465 O   0  0  0  0  0  0  0  0  0  0  0  0
   28.4137  -19.6946  -16.6511 C   0  0  0  0  0  0  0  0  0  0  0  0
   28.4737  -18.7310  -15.5091 C   0  0  2  0  0  0  0  0  0  0  0  0
   29.7920  -17.9819  -15.5271 C   0  0  0  0  0  0  0  0  0  0  0  0
   28.3604  -19.4151  -14.1903 C   0  0  0  0  0  0  0  0  0  0  0  0
   27.0672  -20.1785  -13.9908 C   0  0  2  0  0  0  0  0  0  0  0  0
   25.9553  -19.2528  -14.2054 N   0  0  0  0  0  0  0  0  0  0  0  0
   27.0797  -20.6645  -12.6007 C   0  0  0  0  0  0  0  0  0  0  0  0
   28.1127  -21.1634  -12.1314 O   0  0  0  0  0  0  0  0  0  0  0  0
   25.9179  -20.5571  -11.8189 N   0  0  0  0  0  0  0  0  0  0  0  0
   25.8433  -20.9191  -10.3984 C   0  0  1  0  0  0  0  0  0  0  0  0
   26.9941  -20.3625   -9.6494 C   0  0  0  0  0  0  0  0  0  0  0  0
   26.7880  -20.3643   -8.1995 C   0  0  0  0  0  0  0  0  0  0  0  0
   25.5130  -20.5204   -7.6362 C   0  0  0  0  0  0  0  0  0  0  0  0
   25.6656  -20.4408   -6.3142 N   0  0  0  0  0  0  0  0  0  0  0  0
   26.9530  -20.2455   -6.0062 C   0  0  0  0  0  0  0  0  0  0  0  0
   27.5502  -20.1217   -4.7596 C   0  0  0  0  0  0  0  0  0  0  0  0
   28.9106  -19.9440   -4.7120 C   0  0  0  0  0  0  0  0  0  0  0  0
   29.6462  -19.8932   -5.8954 C   0  0  0  0  0  0  0  0  0  0  0  0
   29.0391  -20.0172   -7.1320 C   0  0  0  0  0  0  0  0  0  0  0  0
   27.6834  -20.1934   -7.1739 C   0  0  0  0  0  0  0  0  0  0  0  0
   24.5047  -20.6766   -9.9143 C   0  0  0  0  0  0  0  0  0  0  0  0
   23.7904  -19.4872   -9.9579 O   0  0  0  0  0  0  0  0  0  0  0  0
   23.8649  -21.6437   -9.3683 O   0  0  0  0  0  0  0  0  0  0  0  0
  1  2  1  0
  2  3  1  0
  3  5  1  0
  3  4  1  6
  5  6  2  0
  8 10  1  0
  8  7  1  6
  9  8  1  0
 11 10  1  1
 11 13  1  0
 12  5  1  0
 12 11  1  0
 13 14  2  0
 15 13  1  0
 15 16  1  0
 16 27  1  0
 16 17  1  1
 18 19  2  0
 18 17  1  0
 20 19  1  0
 21 26  2  0
 21 20  1  0
 22 21  1  0
 23 24  1  0
 23 22  2  0
 24 25  2  0
 25 26  1  0
 26 18  1  0
 27 28  1  0
 29 27  2  0
M  END
$$$$
