CDF.pdb
     RDKit          3D

 26 26  0  0  1  0  0  0  0  0999 V2000
   13.8817  -11.1983  -13.1638 N   0  0  0  0  0  0  0  0  0  0  0  0
   15.2372  -10.7483  -12.9200 C   0  0  1  0  0  0  0  0  0  0  0  0
   16.0610  -10.9398  -14.1774 C   0  0  0  0  0  0  0  0  0  0  0  0
   17.1335  -12.3805  -14.0926 S   0  0  0  0  0  0  0  0  0  0  0  0
   15.2690   -9.3407  -12.4439 C   0  0  0  0  0  0  0  0  0  0  0  0
   14.4522   -8.5019  -12.9019 O   0  0  0  0  0  0  0  0  0  0  0  0
   16.2369   -8.9770  -11.4691 N   0  0  0  0  0  0  0  0  0  0  0  0
   16.2832   -7.6161  -10.9584 C   0  0  1  0  0  0  0  0  0  0  0  0
   16.5170   -7.5889   -9.4682 C   0  0  0  0  0  0  0  0  0  0  0  0
   16.5829   -6.2051   -8.9373 C   0  0  0  0  0  0  0  0  0  0  0  0
   15.7824   -5.3696   -9.4251 O   0  0  0  0  0  0  0  0  0  0  0  0
   17.4416   -6.9424  -11.5974 C   0  0  0  0  0  0  0  0  0  0  0  0
   17.5923   -5.7046  -11.5287 O   0  0  0  0  0  0  0  0  0  0  0  0
   17.4458   -5.7824   -7.9643 O   0  0  0  0  0  0  0  0  0  0  0  0
   18.4209   -7.6719  -12.3091 N   0  0  0  0  0  0  0  0  0  0  0  0
   19.4583   -7.0623  -13.1336 C   0  0  1  0  0  0  0  0  0  0  0  0
   20.8276   -7.4429  -12.6329 C   0  0  0  0  0  0  0  0  0  0  0  0
   21.8859   -6.9326  -13.5163 C   0  0  0  0  0  0  0  0  0  0  0  0
   22.5582   -7.7919  -14.3891 C   0  0  0  0  0  0  0  0  0  0  0  0
   23.5321   -7.3219  -15.2398 C   0  0  0  0  0  0  0  0  0  0  0  0
   23.8828   -5.9891  -15.2655 C   0  0  0  0  0  0  0  0  0  0  0  0
   23.2247   -5.1309  -14.4070 C   0  0  0  0  0  0  0  0  0  0  0  0
   22.2383   -5.6136  -13.5471 C   0  0  0  0  0  0  0  0  0  0  0  0
   19.3136   -7.4011  -14.5443 C   0  0  0  0  0  0  0  0  0  0  0  0
   18.9640   -8.5212  -14.9346 O   0  0  0  0  0  0  0  0  0  0  0  0
   19.5783   -6.4268  -15.5120 O   0  0  0  0  0  0  0  0  0  0  0  0
  2  1  1  6
  3  4  1  0
  3  2  1  0
  5  2  1  0
  5  6  2  0
  7  5  1  0
  8  7  1  0
  8 12  1  0
  8  9  1  1
 10 11  2  0
 10  9  1  0
 12 15  1  0
 13 12  2  0
 14 10  1  0
 15 16  1  0
 16 24  1  0
 17 18  1  0
 16 17  1  1
 18 23  2  0
 19 18  1  0
 19 20  2  0
 20 21  1  0
 21 22  2  0
 23 22  1  0
 24 25  2  0
 24 26  1  0
M  END
$$$$
