CDF.pdb
     RDKit          3D

 26 26  0  0  1  0  0  0  0  0999 V2000
   16.8046  -13.8014  -16.1944 N   0  0  0  0  0  0  0  0  0  0  0  0
   16.3520  -12.4712  -15.8407 C   0  0  1  0  0  0  0  0  0  0  0  0
   15.7767  -12.4954  -14.4389 C   0  0  0  0  0  0  0  0  0  0  0  0
   14.0933  -13.1254  -14.3896 S   0  0  0  0  0  0  0  0  0  0  0  0
   17.4406  -11.4686  -15.9772 C   0  0  0  0  0  0  0  0  0  0  0  0
   18.6390  -11.8141  -15.8192 O   0  0  0  0  0  0  0  0  0  0  0  0
   17.0907  -10.1267  -16.2875 N   0  0  0  0  0  0  0  0  0  0  0  0
   18.1298   -9.1393  -16.5333 C   0  0  1  0  0  0  0  0  0  0  0  0
   17.8101   -8.2823  -17.7330 C   0  0  0  0  0  0  0  0  0  0  0  0
   18.8728   -7.2840  -18.0067 C   0  0  0  0  0  0  0  0  0  0  0  0
   18.5175   -6.0824  -18.0887 O   0  0  0  0  0  0  0  0  0  0  0  0
   18.1763   -8.2417  -15.3517 C   0  0  0  0  0  0  0  0  0  0  0  0
   17.1391   -7.9356  -14.7270 O   0  0  0  0  0  0  0  0  0  0  0  0
   20.1974   -7.5796  -18.1739 O   0  0  0  0  0  0  0  0  0  0  0  0
   19.3938   -7.6965  -14.8848 N   0  0  0  0  0  0  0  0  0  0  0  0
   19.4981   -6.7559  -13.7748 C   0  0  1  0  0  0  0  0  0  0  0  0
   20.8205   -6.9103  -13.0692 C   0  0  0  0  0  0  0  0  0  0  0  0
   21.9489   -6.6585  -13.9770 C   0  0  0  0  0  0  0  0  0  0  0  0
   22.6179   -7.7209  -14.5901 C   0  0  0  0  0  0  0  0  0  0  0  0
   23.6582   -7.4974  -15.4624 C   0  0  0  0  0  0  0  0  0  0  0  0
   24.0811   -6.2209  -15.7658 C   0  0  0  0  0  0  0  0  0  0  0  0
   23.4267   -5.1636  -15.1655 C   0  0  0  0  0  0  0  0  0  0  0  0
   22.3729   -5.3967  -14.2822 C   0  0  0  0  0  0  0  0  0  0  0  0
   19.2995   -5.3753  -14.1995 C   0  0  0  0  0  0  0  0  0  0  0  0
   19.2725   -5.0345  -15.3879 O   0  0  0  0  0  0  0  0  0  0  0  0
   19.1304   -4.3799  -13.2319 O   0  0  0  0  0  0  0  0  0  0  0  0
  2  1  1  1
  3  4  1  0
  3  2  1  0
  5  2  1  0
  5  6  2  0
  7  5  1  0
  8  7  1  0
  8 12  1  0
  8  9  1  6
 10 11  2  0
 10  9  1  0
 12 15  1  0
 13 12  2  0
 14 10  1  0
 15 16  1  0
 16 24  1  0
 17 18  1  0
 16 17  1  6
 18 23  2  0
 19 18  1  0
 19 20  2  0
 20 21  1  0
 21 22  2  0
 23 22  1  0
 24 25  2  0
 24 26  1  0
M  END
$$$$
