CDF.pdb
     RDKit          3D

 26 26  0  0  1  0  0  0  0  0999 V2000
   16.2616  -12.8766  -19.1004 N   0  0  0  0  0  0  0  0  0  0  0  0
   15.5318  -11.8135  -18.4398 C   0  0  1  0  0  0  0  0  0  0  0  0
   15.0490  -12.3032  -17.0894 C   0  0  0  0  0  0  0  0  0  0  0  0
   16.3885  -12.5219  -15.9100 S   0  0  0  0  0  0  0  0  0  0  0  0
   16.3506  -10.5787  -18.3227 C   0  0  0  0  0  0  0  0  0  0  0  0
   17.4877  -10.5235  -18.8561 O   0  0  0  0  0  0  0  0  0  0  0  0
   15.8167   -9.4779  -17.5998 N   0  0  0  0  0  0  0  0  0  0  0  0
   16.5310   -8.2115  -17.5652 C   0  0  1  0  0  0  0  0  0  0  0  0
   15.5942   -7.0504  -17.3413 C   0  0  0  0  0  0  0  0  0  0  0  0
   16.2920   -5.7440  -17.4262 C   0  0  0  0  0  0  0  0  0  0  0  0
   17.5340   -5.7729  -17.6091 O   0  0  0  0  0  0  0  0  0  0  0  0
   17.4585   -8.2576  -16.4069 C   0  0  0  0  0  0  0  0  0  0  0  0
   17.1319   -8.8079  -15.3345 O   0  0  0  0  0  0  0  0  0  0  0  0
   15.6821   -4.5246  -17.3202 O   0  0  0  0  0  0  0  0  0  0  0  0
   18.7479   -7.6819  -16.4688 N   0  0  0  0  0  0  0  0  0  0  0  0
   19.8062   -7.9362  -15.4976 C   0  0  1  0  0  0  0  0  0  0  0  0
   20.3066   -9.3526  -15.6150 C   0  0  0  0  0  0  0  0  0  0  0  0
   21.4294   -9.6054  -14.7005 C   0  0  0  0  0  0  0  0  0  0  0  0
   22.7349   -9.7026  -15.1887 C   0  0  0  0  0  0  0  0  0  0  0  0
   23.7974   -9.9124  -14.3401 C   0  0  0  0  0  0  0  0  0  0  0  0
   23.6178  -10.0349  -12.9789 C   0  0  0  0  0  0  0  0  0  0  0  0
   22.3315   -9.9404  -12.4857 C   0  0  0  0  0  0  0  0  0  0  0  0
   21.2587   -9.7275  -13.3511 C   0  0  0  0  0  0  0  0  0  0  0  0
   20.9081   -6.9892  -15.6200 C   0  0  0  0  0  0  0  0  0  0  0  0
   21.5935   -6.6268  -14.6567 O   0  0  0  0  0  0  0  0  0  0  0  0
   21.2164   -6.4577  -16.8763 O   0  0  0  0  0  0  0  0  0  0  0  0
  2  1  1  1
  3  4  1  0
  3  2  1  0
  5  2  1  0
  5  6  2  0
  7  5  1  0
  8  7  1  0
  8 12  1  0
  8  9  1  1
 10 11  2  0
 10  9  1  0
 12 15  1  0
 13 12  2  0
 14 10  1  0
 15 16  1  0
 16 24  1  0
 17 18  1  0
 16 17  1  6
 18 23  2  0
 19 18  1  0
 19 20  2  0
 20 21  1  0
 21 22  2  0
 23 22  1  0
 24 25  2  0
 24 26  1  0
M  END
$$$$
