CDF.pdb
     RDKit          3D

 26 26  0  0  1  0  0  0  0  0999 V2000
   24.6034  -25.6636  -16.8237 N   0  0  0  0  0  0  0  0  0  0  0  0
   23.7723  -24.6999  -16.1311 C   0  0  1  0  0  0  0  0  0  0  0  0
   22.8813  -25.4266  -15.1440 C   0  0  0  0  0  0  0  0  0  0  0  0
   23.7683  -25.9715  -13.6778 S   0  0  0  0  0  0  0  0  0  0  0  0
   24.5887  -23.6471  -15.4721 C   0  0  0  0  0  0  0  0  0  0  0  0
   25.8438  -23.7115  -15.5026 O   0  0  0  0  0  0  0  0  0  0  0  0
   23.9168  -22.5806  -14.8158 N   0  0  0  0  0  0  0  0  0  0  0  0
   24.6598  -21.4103  -14.3760 C   0  0  1  0  0  0  0  0  0  0  0  0
   23.8916  -20.1366  -14.6283 C   0  0  0  0  0  0  0  0  0  0  0  0
   24.0695  -19.6412  -16.0153 C   0  0  0  0  0  0  0  0  0  0  0  0
   25.1663  -19.8919  -16.5729 O   0  0  0  0  0  0  0  0  0  0  0  0
   24.8444  -21.5288  -12.9077 C   0  0  0  0  0  0  0  0  0  0  0  0
   23.9695  -22.0468  -12.1826 O   0  0  0  0  0  0  0  0  0  0  0  0
   23.1316  -18.9383  -16.7197 O   0  0  0  0  0  0  0  0  0  0  0  0
   26.0157  -21.0613  -12.2697 N   0  0  0  0  0  0  0  0  0  0  0  0
   26.2059  -21.0342  -10.8237 C   0  0  1  0  0  0  0  0  0  0  0  0
   27.4728  -20.3003  -10.4675 C   0  0  0  0  0  0  0  0  0  0  0  0
   27.6294  -20.1698   -9.0118 C   0  0  0  0  0  0  0  0  0  0  0  0
   28.5067  -21.0042   -8.3143 C   0  0  0  0  0  0  0  0  0  0  0  0
   28.6822  -20.8746   -6.9558 C   0  0  0  0  0  0  0  0  0  0  0  0
   28.0023  -19.9197   -6.2304 C   0  0  0  0  0  0  0  0  0  0  0  0
   27.1328  -19.0897   -6.9098 C   0  0  0  0  0  0  0  0  0  0  0  0
   26.9593  -19.2262   -8.2870 C   0  0  0  0  0  0  0  0  0  0  0  0
   25.0630  -20.4564  -10.1265 C   0  0  0  0  0  0  0  0  0  0  0  0
   24.5051  -19.4167  -10.4963 O   0  0  0  0  0  0  0  0  0  0  0  0
   24.5635  -21.0946   -8.9868 O   0  0  0  0  0  0  0  0  0  0  0  0
  2  1  1  1
  3  4  1  0
  3  2  1  0
  5  2  1  0
  5  6  2  0
  7  5  1  0
  8  7  1  0
  8 12  1  0
  8  9  1  1
 10 11  2  0
 10  9  1  0
 12 15  1  0
 13 12  2  0
 14 10  1  0
 15 16  1  0
 16 24  1  0
 17 18  1  0
 16 17  1  6
 18 23  2  0
 19 18  1  0
 19 20  2  0
 20 21  1  0
 21 22  2  0
 23 22  1  0
 24 25  2  0
 24 26  1  0
M  END
$$$$
