CDF.pdb
     RDKit          3D

 26 26  0  0  1  0  0  0  0  0999 V2000
   26.5179  -24.5960  -19.5662 N   0  0  0  0  0  0  0  0  0  0  0  0
   25.5515  -24.1463  -18.5849 C   0  0  1  0  0  0  0  0  0  0  0  0
   25.3625  -25.2261  -17.5385 C   0  0  0  0  0  0  0  0  0  0  0  0
   26.6630  -25.2254  -16.2968 S   0  0  0  0  0  0  0  0  0  0  0  0
   25.9502  -22.8491  -17.9789 C   0  0  0  0  0  0  0  0  0  0  0  0
   26.4674  -21.9526  -18.6926 O   0  0  0  0  0  0  0  0  0  0  0  0
   25.7321  -22.6557  -16.5881 N   0  0  0  0  0  0  0  0  0  0  0  0
   25.5376  -21.3150  -16.0590 C   0  0  1  0  0  0  0  0  0  0  0  0
   24.2736  -20.6855  -16.5901 C   0  0  0  0  0  0  0  0  0  0  0  0
   24.0282  -19.3441  -16.0057 C   0  0  0  0  0  0  0  0  0  0  0  0
   25.0131  -18.5694  -15.9256 O   0  0  0  0  0  0  0  0  0  0  0  0
   25.3828  -21.4377  -14.5876 C   0  0  0  0  0  0  0  0  0  0  0  0
   24.5828  -22.2538  -14.0842 O   0  0  0  0  0  0  0  0  0  0  0  0
   22.8168  -18.8991  -15.5536 O   0  0  0  0  0  0  0  0  0  0  0  0
   26.1328  -20.6375  -13.6960 N   0  0  0  0  0  0  0  0  0  0  0  0
   26.0977  -20.7750  -12.2442 C   0  0  1  0  0  0  0  0  0  0  0  0
   27.1977  -19.9664  -11.6066 C   0  0  0  0  0  0  0  0  0  0  0  0
   27.1872  -20.1011  -10.1429 C   0  0  0  0  0  0  0  0  0  0  0  0
   26.4543  -19.2115   -9.3531 C   0  0  0  0  0  0  0  0  0  0  0  0
   26.4148  -19.3429   -7.9841 C   0  0  0  0  0  0  0  0  0  0  0  0
   27.0941  -20.3538   -7.3385 C   0  0  0  0  0  0  0  0  0  0  0  0
   27.8215  -21.2387   -8.1095 C   0  0  0  0  0  0  0  0  0  0  0  0
   27.8576  -21.1001   -9.4968 C   0  0  0  0  0  0  0  0  0  0  0  0
   24.8011  -20.4106  -11.6855 C   0  0  0  0  0  0  0  0  0  0  0  0
   24.1566  -19.4270  -12.0677 O   0  0  0  0  0  0  0  0  0  0  0  0
   24.2479  -21.1987  -10.6713 O   0  0  0  0  0  0  0  0  0  0  0  0
  2  1  1  6
  3  4  1  0
  3  2  1  0
  5  2  1  0
  5  6  2  0
  7  5  1  0
  8  7  1  0
  8 12  1  0
  8  9  1  6
 10 11  2  0
 10  9  1  0
 12 15  1  0
 13 12  2  0
 14 10  1  0
 15 16  1  0
 16 24  1  0
 17 18  1  0
 16 17  1  1
 18 23  2  0
 19 18  1  0
 19 20  2  0
 20 21  1  0
 21 22  2  0
 23 22  1  0
 24 25  2  0
 24 26  1  0
M  END
$$$$
