CDF.pdb
     RDKit          3D

 26 26  0  0  1  0  0  0  0  0999 V2000
   21.3913  -15.5149  -19.1968 N   0  0  0  0  0  0  0  0  0  0  0  0
   20.8028  -14.3574  -18.5542 C   0  0  1  0  0  0  0  0  0  0  0  0
   20.6469  -14.6339  -17.0724 C   0  0  0  0  0  0  0  0  0  0  0  0
   19.2535  -15.7108  -16.7094 S   0  0  0  0  0  0  0  0  0  0  0  0
   21.5970  -13.1272  -18.8093 C   0  0  0  0  0  0  0  0  0  0  0  0
   22.8499  -13.1915  -18.8906 O   0  0  0  0  0  0  0  0  0  0  0  0
   20.9068  -11.8938  -18.9565 N   0  0  0  0  0  0  0  0  0  0  0  0
   21.6466  -10.6705  -19.2237 C   0  0  1  0  0  0  0  0  0  0  0  0
   21.1802  -10.0047  -20.4946 C   0  0  0  0  0  0  0  0  0  0  0  0
   21.5381  -10.7897  -21.7014 C   0  0  0  0  0  0  0  0  0  0  0  0
   22.7447  -10.7809  -22.0490 O   0  0  0  0  0  0  0  0  0  0  0  0
   21.3680   -9.7317  -18.1078 C   0  0  0  0  0  0  0  0  0  0  0  0
   20.2685   -9.7342  -17.5157 O   0  0  0  0  0  0  0  0  0  0  0  0
   20.6539  -11.5139  -22.4524 O   0  0  0  0  0  0  0  0  0  0  0  0
   22.3335   -8.7972  -17.6693 N   0  0  0  0  0  0  0  0  0  0  0  0
   22.0996   -7.8067  -16.6243 C   0  0  1  0  0  0  0  0  0  0  0  0
   23.4051   -7.2556  -16.1121 C   0  0  0  0  0  0  0  0  0  0  0  0
   23.1898   -6.1624  -15.1532 C   0  0  0  0  0  0  0  0  0  0  0  0
   23.2902   -4.8298  -15.5611 C   0  0  0  0  0  0  0  0  0  0  0  0
   23.0649   -3.7977  -14.6797 C   0  0  0  0  0  0  0  0  0  0  0  0
   22.7322   -4.0354  -13.3633 C   0  0  0  0  0  0  0  0  0  0  0  0
   22.6302   -5.3487  -12.9495 C   0  0  0  0  0  0  0  0  0  0  0  0
   22.8598   -6.3906  -13.8479 C   0  0  0  0  0  0  0  0  0  0  0  0
   21.2253   -6.7284  -17.0703 C   0  0  0  0  0  0  0  0  0  0  0  0
   21.3287   -6.1945  -18.1808 O   0  0  0  0  0  0  0  0  0  0  0  0
   20.2197   -6.2659  -16.2155 O   0  0  0  0  0  0  0  0  0  0  0  0
  2  1  1  6
  3  4  1  0
  3  2  1  0
  5  2  1  0
  5  6  2  0
  7  5  1  0
  8  7  1  0
  8 12  1  0
  8  9  1  6
 10 11  2  0
 10  9  1  0
 12 15  1  0
 13 12  2  0
 14 10  1  0
 15 16  1  0
 16 24  1  0
 17 18  1  0
 16 17  1  6
 18 23  2  0
 19 18  1  0
 19 20  2  0
 20 21  1  0
 21 22  2  0
 23 22  1  0
 24 25  2  0
 24 26  1  0
M  END
$$$$
