CDF.pdb
     RDKit          3D

 26 26  0  0  1  0  0  0  0  0999 V2000
   18.4934  -12.6593  -16.8637 N   0  0  0  0  0  0  0  0  0  0  0  0
   17.9381  -11.4945  -16.2049 C   0  0  1  0  0  0  0  0  0  0  0  0
   17.8250  -11.7674  -14.7186 C   0  0  0  0  0  0  0  0  0  0  0  0
   16.6292  -13.0551  -14.3377 S   0  0  0  0  0  0  0  0  0  0  0  0
   18.7378  -10.2737  -16.4864 C   0  0  0  0  0  0  0  0  0  0  0  0
   19.9882  -10.2961  -16.3585 O   0  0  0  0  0  0  0  0  0  0  0  0
   18.0556   -9.0972  -16.8986 N   0  0  0  0  0  0  0  0  0  0  0  0
   18.8055   -7.8936  -17.2216 C   0  0  1  0  0  0  0  0  0  0  0  0
   18.0444   -7.0022  -18.1714 C   0  0  0  0  0  0  0  0  0  0  0  0
   18.8089   -5.7816  -18.5273 C   0  0  0  0  0  0  0  0  0  0  0  0
   18.1546   -4.7178  -18.6569 O   0  0  0  0  0  0  0  0  0  0  0  0
   18.9900   -7.1346  -15.9590 C   0  0  0  0  0  0  0  0  0  0  0  0
   18.0469   -6.9672  -15.1577 O   0  0  0  0  0  0  0  0  0  0  0  0
   20.1618   -5.7367  -18.7215 O   0  0  0  0  0  0  0  0  0  0  0  0
   20.2384   -6.5705  -15.6112 N   0  0  0  0  0  0  0  0  0  0  0  0
   20.4780   -5.7955  -14.3990 C   0  0  1  0  0  0  0  0  0  0  0  0
   21.5856   -6.4116  -13.5840 C   0  0  0  0  0  0  0  0  0  0  0  0
   22.7464   -6.7498  -14.4200 C   0  0  0  0  0  0  0  0  0  0  0  0
   23.0681   -8.0839  -14.6826 C   0  0  0  0  0  0  0  0  0  0  0  0
   24.1360   -8.4130  -15.4852 C   0  0  0  0  0  0  0  0  0  0  0  0
   24.9291   -7.4435  -16.0607 C   0  0  0  0  0  0  0  0  0  0  0  0
   24.6201   -6.1217  -15.8079 C   0  0  0  0  0  0  0  0  0  0  0  0
   23.5362   -5.7946  -14.9934 C   0  0  0  0  0  0  0  0  0  0  0  0
   20.7678   -4.3956  -14.6859 C   0  0  0  0  0  0  0  0  0  0  0  0
   20.9474   -3.5509  -13.8009 O   0  0  0  0  0  0  0  0  0  0  0  0
   20.8497   -3.9733  -16.0166 O   0  0  0  0  0  0  0  0  0  0  0  0
  2  1  1  6
  3  4  1  0
  3  2  1  0
  5  2  1  0
  5  6  2  0
  7  5  1  0
  8  7  1  0
  8 12  1  0
  8  9  1  6
 10 11  2  0
 10  9  1  0
 12 15  1  0
 13 12  2  0
 14 10  1  0
 15 16  1  0
 16 24  1  0
 17 18  1  0
 16 17  1  6
 18 23  2  0
 19 18  1  0
 19 20  2  0
 20 21  1  0
 21 22  2  0
 23 22  1  0
 24 25  2  0
 24 26  1  0
M  END
$$$$
