CDF.pdb
     RDKit          3D

 26 26  0  0  1  0  0  0  0  0999 V2000
   22.7806  -16.2396  -17.1483 N   0  0  0  0  0  0  0  0  0  0  0  0
   21.8744  -15.4331  -16.3563 C   0  0  1  0  0  0  0  0  0  0  0  0
   22.1871  -15.6278  -14.8863 C   0  0  0  0  0  0  0  0  0  0  0  0
   21.9251  -17.3202  -14.3386 S   0  0  0  0  0  0  0  0  0  0  0  0
   21.9291  -14.0012  -16.7510 C   0  0  0  0  0  0  0  0  0  0  0  0
   23.0083  -13.5004  -17.1575 O   0  0  0  0  0  0  0  0  0  0  0  0
   20.7415  -13.2266  -16.6564 N   0  0  0  0  0  0  0  0  0  0  0  0
   20.7479  -11.8285  -17.0568 C   0  0  1  0  0  0  0  0  0  0  0  0
   19.4638  -11.4421  -17.7482 C   0  0  0  0  0  0  0  0  0  0  0  0
   19.3851  -11.9852  -19.1265 C   0  0  0  0  0  0  0  0  0  0  0  0
   20.4270  -11.9197  -19.8245 O   0  0  0  0  0  0  0  0  0  0  0  0
   20.8431  -11.0138  -15.8194 C   0  0  0  0  0  0  0  0  0  0  0  0
   20.1172  -11.2471  -14.8303 O   0  0  0  0  0  0  0  0  0  0  0  0
   18.2685  -12.5457  -19.6823 O   0  0  0  0  0  0  0  0  0  0  0  0
   21.7576   -9.9417  -15.7085 N   0  0  0  0  0  0  0  0  0  0  0  0
   21.8747   -9.0827  -14.5355 C   0  0  1  0  0  0  0  0  0  0  0  0
   22.9276   -9.6082  -13.5944 C   0  0  0  0  0  0  0  0  0  0  0  0
   24.1698   -9.9408  -14.3064 C   0  0  0  0  0  0  0  0  0  0  0  0
   24.6721  -11.2445  -14.2873 C   0  0  0  0  0  0  0  0  0  0  0  0
   25.8192  -11.5746  -14.9715 C   0  0  0  0  0  0  0  0  0  0  0  0
   26.5170  -10.6359  -15.7011 C   0  0  0  0  0  0  0  0  0  0  0  0
   26.0294   -9.3444  -15.7268 C   0  0  0  0  0  0  0  0  0  0  0  0
   24.8660   -9.0161  -15.0311 C   0  0  0  0  0  0  0  0  0  0  0  0
   22.1484   -7.6954  -14.8912 C   0  0  0  0  0  0  0  0  0  0  0  0
   22.4569   -7.3429  -16.0356 O   0  0  0  0  0  0  0  0  0  0  0  0
   22.0626   -6.7072  -13.9054 O   0  0  0  0  0  0  0  0  0  0  0  0
  2  1  1  6
  3  4  1  0
  3  2  1  0
  5  2  1  0
  5  6  2  0
  7  5  1  0
  8  7  1  0
  8 12  1  0
  8  9  1  1
 10 11  2  0
 10  9  1  0
 12 15  1  0
 13 12  2  0
 14 10  1  0
 15 16  1  0
 16 24  1  0
 17 18  1  0
 16 17  1  1
 18 23  2  0
 19 18  1  0
 19 20  2  0
 20 21  1  0
 21 22  2  0
 23 22  1  0
 24 25  2  0
 24 26  1  0
M  END
$$$$
