CDF.pdb
     RDKit          3D

 26 26  0  0  1  0  0  0  0  0999 V2000
   29.1449  -34.5508   -0.1597 N   0  0  0  0  0  0  0  0  0  0  0  0
   28.8587  -35.2036    1.1017 C   0  0  1  0  0  0  0  0  0  0  0  0
   30.0946  -35.1617    1.9777 C   0  0  0  0  0  0  0  0  0  0  0  0
   30.6697  -33.4866    2.2880 S   0  0  0  0  0  0  0  0  0  0  0  0
   27.6795  -34.5995    1.7751 C   0  0  0  0  0  0  0  0  0  0  0  0
   27.1537  -33.5567    1.3098 O   0  0  0  0  0  0  0  0  0  0  0  0
   27.1719  -35.2276    2.9444 N   0  0  0  0  0  0  0  0  0  0  0  0
   25.9944  -34.6914    3.6086 C   0  0  1  0  0  0  0  0  0  0  0  0
   25.2986  -35.7405    4.4400 C   0  0  0  0  0  0  0  0  0  0  0  0
   23.9610  -35.2933    4.9002 C   0  0  0  0  0  0  0  0  0  0  0  0
   23.3773  -36.0183    5.7431 O   0  0  0  0  0  0  0  0  0  0  0  0
   26.4551  -33.6288    4.5374 C   0  0  0  0  0  0  0  0  0  0  0  0
   27.4955  -33.7642    5.2149 O   0  0  0  0  0  0  0  0  0  0  0  0
   23.3277  -34.1586    4.4742 O   0  0  0  0  0  0  0  0  0  0  0  0
   25.7372  -32.4213    4.6940 N   0  0  0  0  0  0  0  0  0  0  0  0
   26.1244  -31.3503    5.6053 C   0  0  1  0  0  0  0  0  0  0  0  0
   25.8663  -30.0027    4.9826 C   0  0  0  0  0  0  0  0  0  0  0  0
   26.1755  -28.9094    5.9151 C   0  0  0  0  0  0  0  0  0  0  0  0
   27.4576  -28.3556    5.9602 C   0  0  0  0  0  0  0  0  0  0  0  0
   27.7527  -27.3142    6.8095 C   0  0  0  0  0  0  0  0  0  0  0  0
   26.7991  -26.7768    7.6475 C   0  0  0  0  0  0  0  0  0  0  0  0
   25.5287  -27.3166    7.6110 C   0  0  0  0  0  0  0  0  0  0  0  0
   25.2358  -28.3721    6.7478 C   0  0  0  0  0  0  0  0  0  0  0  0
   25.4579  -31.4561    6.8978 C   0  0  0  0  0  0  0  0  0  0  0  0
   24.2756  -31.7974    7.0189 O   0  0  0  0  0  0  0  0  0  0  0  0
   26.1741  -31.1619    8.0624 O   0  0  0  0  0  0  0  0  0  0  0  0
  2  1  1  6
  3  4  1  0
  3  2  1  0
  5  2  1  0
  5  6  2  0
  7  5  1  0
  8  7  1  0
  8 12  1  0
  8  9  1  1
 10 11  2  0
 10  9  1  0
 12 15  1  0
 13 12  2  0
 14 10  1  0
 15 16  1  0
 16 24  1  0
 17 18  1  0
 16 17  1  6
 18 23  2  0
 19 18  1  0
 19 20  2  0
 20 21  1  0
 21 22  2  0
 23 22  1  0
 24 25  2  0
 24 26  1  0
M  END
$$$$
