CDF.pdb
     RDKit          3D

 26 26  0  0  1  0  0  0  0  0999 V2000
   15.6520  -10.9068  -19.2642 N   0  0  0  0  0  0  0  0  0  0  0  0
   16.2584  -10.4514  -18.0297 C   0  0  1  0  0  0  0  0  0  0  0  0
   16.2003  -11.5652  -17.0038 C   0  0  0  0  0  0  0  0  0  0  0  0
   16.9018  -11.0870  -15.4188 S   0  0  0  0  0  0  0  0  0  0  0  0
   17.6471   -9.9688  -18.2479 C   0  0  0  0  0  0  0  0  0  0  0  0
   18.3538  -10.4727  -19.1573 O   0  0  0  0  0  0  0  0  0  0  0  0
   18.1446   -8.9351  -17.4092 N   0  0  0  0  0  0  0  0  0  0  0  0
   19.4780   -8.3968  -17.6265 C   0  0  1  0  0  0  0  0  0  0  0  0
   19.6293   -7.8298  -19.0164 C   0  0  0  0  0  0  0  0  0  0  0  0
   20.9902   -7.2897  -19.2554 C   0  0  0  0  0  0  0  0  0  0  0  0
   21.0836   -6.0555  -19.4668 O   0  0  0  0  0  0  0  0  0  0  0  0
   19.6640   -7.2752  -16.6717 C   0  0  0  0  0  0  0  0  0  0  0  0
   18.7621   -6.4343  -16.4736 O   0  0  0  0  0  0  0  0  0  0  0  0
   22.1364   -8.0355  -19.2610 O   0  0  0  0  0  0  0  0  0  0  0  0
   20.8670   -7.1120  -15.9481 N   0  0  0  0  0  0  0  0  0  0  0  0
   21.0420   -6.1653  -14.8522 C   0  0  1  0  0  0  0  0  0  0  0  0
   21.1935   -6.8917  -13.5408 C   0  0  0  0  0  0  0  0  0  0  0  0
   21.9490   -8.1424  -13.7012 C   0  0  0  0  0  0  0  0  0  0  0  0
   23.2480   -8.1265  -14.2158 C   0  0  0  0  0  0  0  0  0  0  0  0
   23.9754   -9.2870  -14.3459 C   0  0  0  0  0  0  0  0  0  0  0  0
   23.4542  -10.5082  -13.9753 C   0  0  0  0  0  0  0  0  0  0  0  0
   22.1713  -10.5354  -13.4654 C   0  0  0  0  0  0  0  0  0  0  0  0
   21.4391   -9.3554  -13.3360 C   0  0  0  0  0  0  0  0  0  0  0  0
   22.1665   -5.2641  -15.0743 C   0  0  0  0  0  0  0  0  0  0  0  0
   22.4620   -4.3522  -14.2932 O   0  0  0  0  0  0  0  0  0  0  0  0
   22.9562   -5.4252  -16.2171 O   0  0  0  0  0  0  0  0  0  0  0  0
  2  1  1  6
  3  4  1  0
  3  2  1  0
  5  2  1  0
  5  6  2  0
  7  5  1  0
  8  7  1  0
  8 12  1  0
  8  9  1  6
 10 11  2  0
 10  9  1  0
 12 15  1  0
 13 12  2  0
 14 10  1  0
 15 16  1  0
 16 24  1  0
 17 18  1  0
 16 17  1  1
 18 23  2  0
 19 18  1  0
 19 20  2  0
 20 21  1  0
 21 22  2  0
 23 22  1  0
 24 25  2  0
 24 26  1  0
M  END
$$$$
