CDF.pdb
     RDKit          3D

 26 26  0  0  1  0  0  0  0  0999 V2000
   17.1970  -10.5007  -17.1429 N   0  0  0  0  0  0  0  0  0  0  0  0
   18.1381   -9.8014  -17.9940 C   0  0  1  0  0  0  0  0  0  0  0  0
   17.7351   -9.9872  -19.4430 C   0  0  0  0  0  0  0  0  0  0  0  0
   17.8523  -11.6983  -19.9828 S   0  0  0  0  0  0  0  0  0  0  0  0
   18.2452   -8.3651  -17.6269 C   0  0  0  0  0  0  0  0  0  0  0  0
   19.0536   -7.6180  -18.2342 O   0  0  0  0  0  0  0  0  0  0  0  0
   17.4178   -7.8692  -16.5834 N   0  0  0  0  0  0  0  0  0  0  0  0
   17.5558   -6.4931  -16.1337 C   0  0  1  0  0  0  0  0  0  0  0  0
   16.2286   -5.9079  -15.7185 C   0  0  0  0  0  0  0  0  0  0  0  0
   15.3031   -5.7494  -16.8671 C   0  0  0  0  0  0  0  0  0  0  0  0
   14.1463   -6.2196  -16.7349 O   0  0  0  0  0  0  0  0  0  0  0  0
   18.4262   -6.5052  -14.9311 C   0  0  0  0  0  0  0  0  0  0  0  0
   18.2405   -7.3197  -14.0028 O   0  0  0  0  0  0  0  0  0  0  0  0
   15.6201   -5.1334  -18.0461 O   0  0  0  0  0  0  0  0  0  0  0  0
   19.4999   -5.5974  -14.7863 N   0  0  0  0  0  0  0  0  0  0  0  0
   20.7608   -5.9183  -14.1271 C   0  0  1  0  0  0  0  0  0  0  0  0
   21.3575   -7.1760  -14.7037 C   0  0  0  0  0  0  0  0  0  0  0  0
   21.8586   -8.0683  -13.6484 C   0  0  0  0  0  0  0  0  0  0  0  0
   21.1390   -8.2407  -12.4632 C   0  0  0  0  0  0  0  0  0  0  0  0
   21.5836   -9.0933  -11.4792 C   0  0  0  0  0  0  0  0  0  0  0  0
   22.7528   -9.8095  -11.6221 C   0  0  0  0  0  0  0  0  0  0  0  0
   23.4718   -9.6467  -12.7896 C   0  0  0  0  0  0  0  0  0  0  0  0
   23.0157   -8.7809  -13.7834 C   0  0  0  0  0  0  0  0  0  0  0  0
   21.7154   -4.8182  -14.1941 C   0  0  0  0  0  0  0  0  0  0  0  0
   21.9855   -4.2252  -15.2451 O   0  0  0  0  0  0  0  0  0  0  0  0
   22.3630   -4.4028  -13.0263 O   0  0  0  0  0  0  0  0  0  0  0  0
  2  1  1  1
  3  4  1  0
  3  2  1  0
  5  2  1  0
  5  6  2  0
  7  5  1  0
  8  7  1  0
  8 12  1  0
  8  9  1  1
 10 11  2  0
 10  9  1  0
 12 15  1  0
 13 12  2  0
 14 10  1  0
 15 16  1  0
 16 24  1  0
 17 18  1  0
 16 17  1  6
 18 23  2  0
 19 18  1  0
 19 20  2  0
 20 21  1  0
 21 22  2  0
 23 22  1  0
 24 25  2  0
 24 26  1  0
M  END
$$$$
