CDF.pdb
     RDKit          3D

 26 26  0  0  1  0  0  0  0  0999 V2000
   13.5423  -22.9299   -1.1527 N   0  0  0  0  0  0  0  0  0  0  0  0
   14.6641  -23.0505   -0.2439 C   0  0  1  0  0  0  0  0  0  0  0  0
   15.9530  -22.8242   -1.0082 C   0  0  0  0  0  0  0  0  0  0  0  0
   16.2207  -24.0494   -2.2968 S   0  0  0  0  0  0  0  0  0  0  0  0
   14.5338  -22.1251    0.9119 C   0  0  0  0  0  0  0  0  0  0  0  0
   13.6691  -21.2128    0.8943 O   0  0  0  0  0  0  0  0  0  0  0  0
   15.4040  -22.3006    2.0216 N   0  0  0  0  0  0  0  0  0  0  0  0
   15.2330  -21.4924    3.2185 C   0  0  1  0  0  0  0  0  0  0  0  0
   15.3484  -22.3238    4.4722 C   0  0  0  0  0  0  0  0  0  0  0  0
   15.2029  -21.5058    5.7013 C   0  0  0  0  0  0  0  0  0  0  0  0
   14.6150  -20.4025    5.5845 O   0  0  0  0  0  0  0  0  0  0  0  0
   16.3378  -20.5011    3.2452 C   0  0  0  0  0  0  0  0  0  0  0  0
   17.5336  -20.8611    3.2578 O   0  0  0  0  0  0  0  0  0  0  0  0
   15.6600  -21.8673    6.9384 O   0  0  0  0  0  0  0  0  0  0  0  0
   16.0836  -19.1108    3.2575 N   0  0  0  0  0  0  0  0  0  0  0  0
   17.1184  -18.0897    3.3769 C   0  0  1  0  0  0  0  0  0  0  0  0
   17.0118  -17.0906    2.2541 C   0  0  0  0  0  0  0  0  0  0  0  0
   18.1159  -16.1207    2.2885 C   0  0  0  0  0  0  0  0  0  0  0  0
   19.3723  -16.4565    1.7777 C   0  0  0  0  0  0  0  0  0  0  0  0
   20.4063  -15.5488    1.7797 C   0  0  0  0  0  0  0  0  0  0  0  0
   20.2453  -14.2759    2.2838 C   0  0  0  0  0  0  0  0  0  0  0  0
   19.0075  -13.9335    2.7911 C   0  0  0  0  0  0  0  0  0  0  0  0
   17.9634  -14.8582    2.7862 C   0  0  0  0  0  0  0  0  0  0  0  0
   17.0844  -17.4165    4.6698 C   0  0  0  0  0  0  0  0  0  0  0  0
   16.0347  -17.0417    5.2054 O   0  0  0  0  0  0  0  0  0  0  0  0
   18.2839  -17.1766    5.3474 O   0  0  0  0  0  0  0  0  0  0  0  0
  2  1  1  6
  3  4  1  0
  3  2  1  0
  5  2  1  0
  5  6  2  0
  7  5  1  0
  8  7  1  0
  8 12  1  0
  8  9  1  1
 10 11  2  0
 10  9  1  0
 12 15  1  0
 13 12  2  0
 14 10  1  0
 15 16  1  0
 16 24  1  0
 17 18  1  0
 16 17  1  6
 18 23  2  0
 19 18  1  0
 19 20  2  0
 20 21  1  0
 21 22  2  0
 23 22  1  0
 24 25  2  0
 24 26  1  0
M  END
$$$$
