CDF.pdb
     RDKit          3D

 26 26  0  0  1  0  0  0  0  0999 V2000
   15.8078  -10.6059  -15.5010 N   0  0  0  0  0  0  0  0  0  0  0  0
   16.7979  -10.1167  -16.4387 C   0  0  1  0  0  0  0  0  0  0  0  0
   16.3388   -8.7867  -17.0017 C   0  0  0  0  0  0  0  0  0  0  0  0
   16.3110   -7.4814  -15.7654 S   0  0  0  0  0  0  0  0  0  0  0  0
   18.1430  -10.0208  -15.8137 C   0  0  0  0  0  0  0  0  0  0  0  0
   18.2512   -9.8896  -14.5681 O   0  0  0  0  0  0  0  0  0  0  0  0
   19.2867  -10.0811  -16.6550 N   0  0  0  0  0  0  0  0  0  0  0  0
   20.6131   -9.8601  -16.1010 C   0  0  1  0  0  0  0  0  0  0  0  0
   21.6766  -10.5653  -16.9058 C   0  0  0  0  0  0  0  0  0  0  0  0
   21.5567  -12.0415  -16.8196 C   0  0  0  0  0  0  0  0  0  0  0  0
   21.7229  -12.5610  -15.6885 O   0  0  0  0  0  0  0  0  0  0  0  0
   20.8913   -8.4042  -16.1850 C   0  0  0  0  0  0  0  0  0  0  0  0
   20.7511   -7.7767  -17.2556 O   0  0  0  0  0  0  0  0  0  0  0  0
   21.2808  -12.8654  -17.8755 O   0  0  0  0  0  0  0  0  0  0  0  0
   21.3258   -7.6683  -15.0593 N   0  0  0  0  0  0  0  0  0  0  0  0
   21.5872   -6.2333  -15.0696 C   0  0  1  0  0  0  0  0  0  0  0  0
   20.3218   -5.4642  -15.3484 C   0  0  0  0  0  0  0  0  0  0  0  0
   20.5740   -4.0177  -15.4177 C   0  0  0  0  0  0  0  0  0  0  0  0
   21.1149   -3.4456  -16.5719 C   0  0  0  0  0  0  0  0  0  0  0  0
   21.3308   -2.0895  -16.6592 C   0  0  0  0  0  0  0  0  0  0  0  0
   21.0234   -1.2434  -15.6152 C   0  0  0  0  0  0  0  0  0  0  0  0
   20.4883   -1.7984  -14.4697 C   0  0  0  0  0  0  0  0  0  0  0  0
   20.2717   -3.1737  -14.3875 C   0  0  0  0  0  0  0  0  0  0  0  0
   22.2057   -5.7750  -13.8313 C   0  0  0  0  0  0  0  0  0  0  0  0
   21.8819   -6.2057  -12.7183 O   0  0  0  0  0  0  0  0  0  0  0  0
   23.2118   -4.8054  -13.8877 O   0  0  0  0  0  0  0  0  0  0  0  0
  2  1  1  1
  3  4  1  0
  3  2  1  0
  5  2  1  0
  5  6  2  0
  7  5  1  0
  8  7  1  0
  8 12  1  0
  8  9  1  6
 10 11  2  0
 10  9  1  0
 12 15  1  0
 13 12  2  0
 14 10  1  0
 15 16  1  0
 16 24  1  0
 17 18  1  0
 16 17  1  1
 18 23  2  0
 19 18  1  0
 19 20  2  0
 20 21  1  0
 21 22  2  0
 23 22  1  0
 24 25  2  0
 24 26  1  0
M  END
$$$$
