CDF.pdb
     RDKit          3D

 26 26  0  0  1  0  0  0  0  0999 V2000
   14.5193  -14.5606  -15.3118 N   0  0  0  0  0  0  0  0  0  0  0  0
   14.7788  -13.1421  -15.1717 C   0  0  1  0  0  0  0  0  0  0  0  0
   14.5560  -12.7334  -13.7295 C   0  0  0  0  0  0  0  0  0  0  0  0
   12.8472  -12.9334  -13.2068 S   0  0  0  0  0  0  0  0  0  0  0  0
   16.1415  -12.7858  -15.6460 C   0  0  0  0  0  0  0  0  0  0  0  0
   17.0891  -13.6007  -15.5104 O   0  0  0  0  0  0  0  0  0  0  0  0
   16.3379  -11.5140  -16.2488 N   0  0  0  0  0  0  0  0  0  0  0  0
   17.6488  -11.1414  -16.7568 C   0  0  1  0  0  0  0  0  0  0  0  0
   17.6158  -10.8796  -18.2423 C   0  0  0  0  0  0  0  0  0  0  0  0
   18.9564  -10.5428  -18.7810 C   0  0  0  0  0  0  0  0  0  0  0  0
   19.0237   -9.5710  -19.5734 O   0  0  0  0  0  0  0  0  0  0  0  0
   18.0353   -9.8699  -16.0949 C   0  0  0  0  0  0  0  0  0  0  0  0
   17.1825   -9.0088  -15.7937 O   0  0  0  0  0  0  0  0  0  0  0  0
   20.1104  -11.2105  -18.4769 O   0  0  0  0  0  0  0  0  0  0  0  0
   19.3821   -9.5809  -15.7783 N   0  0  0  0  0  0  0  0  0  0  0  0
   19.8447   -8.2986  -15.2591 C   0  0  1  0  0  0  0  0  0  0  0  0
   21.2859   -8.3878  -14.8286 C   0  0  0  0  0  0  0  0  0  0  0  0
   21.8336   -7.0639  -14.4999 C   0  0  0  0  0  0  0  0  0  0  0  0
   21.5422   -6.4591  -13.2745 C   0  0  0  0  0  0  0  0  0  0  0  0
   22.0701   -5.2322  -12.9439 C   0  0  0  0  0  0  0  0  0  0  0  0
   22.9048   -4.5525  -13.8050 C   0  0  0  0  0  0  0  0  0  0  0  0
   23.1993   -5.1412  -15.0188 C   0  0  0  0  0  0  0  0  0  0  0  0
   22.6611   -6.3851  -15.3480 C   0  0  0  0  0  0  0  0  0  0  0  0
   19.6599   -7.2151  -16.2172 C   0  0  0  0  0  0  0  0  0  0  0  0
   19.2418   -6.0968  -15.8952 O   0  0  0  0  0  0  0  0  0  0  0  0
   19.9646   -7.4343  -17.5643 O   0  0  0  0  0  0  0  0  0  0  0  0
  2  1  1  1
  3  4  1  0
  3  2  1  0
  5  2  1  0
  5  6  2  0
  7  5  1  0
  8  7  1  0
  8 12  1  0
  8  9  1  6
 10 11  2  0
 10  9  1  0
 12 15  1  0
 13 12  2  0
 14 10  1  0
 15 16  1  0
 16 24  1  0
 17 18  1  0
 16 17  1  6
 18 23  2  0
 19 18  1  0
 19 20  2  0
 20 21  1  0
 21 22  2  0
 23 22  1  0
 24 25  2  0
 24 26  1  0
M  END
$$$$
