CDF.pdb
     RDKit          3D

 26 26  0  0  1  0  0  0  0  0999 V2000
   27.1003  -21.5712  -16.3377 N   0  0  0  0  0  0  0  0  0  0  0  0
   26.5115  -20.5569  -15.4871 C   0  0  1  0  0  0  0  0  0  0  0  0
   26.7837  -19.1887  -16.0790 C   0  0  0  0  0  0  0  0  0  0  0  0
   28.5368  -18.7931  -16.1368 S   0  0  0  0  0  0  0  0  0  0  0  0
   25.0589  -20.7932  -15.2790 C   0  0  0  0  0  0  0  0  0  0  0  0
   24.3724  -21.3333  -16.1831 O   0  0  0  0  0  0  0  0  0  0  0  0
   24.4780  -20.3957  -14.0445 N   0  0  0  0  0  0  0  0  0  0  0  0
   23.0691  -20.6475  -13.7859 C   0  0  1  0  0  0  0  0  0  0  0  0
   22.7771  -20.7073  -12.3070 C   0  0  0  0  0  0  0  0  0  0  0  0
   21.3427  -20.9655  -12.0298 C   0  0  0  0  0  0  0  0  0  0  0  0
   20.5852  -21.0938  -13.0231 O   0  0  0  0  0  0  0  0  0  0  0  0
   22.3055  -19.5006  -14.3386 C   0  0  0  0  0  0  0  0  0  0  0  0
   22.6467  -18.3214  -14.1087 O   0  0  0  0  0  0  0  0  0  0  0  0
   20.7956  -21.0721  -10.7811 O   0  0  0  0  0  0  0  0  0  0  0  0
   21.1622  -19.6942  -15.1469 N   0  0  0  0  0  0  0  0  0  0  0  0
   20.4138  -18.6140  -15.7798 C   0  0  1  0  0  0  0  0  0  0  0  0
   21.1468  -18.0975  -16.9908 C   0  0  0  0  0  0  0  0  0  0  0  0
   21.3252  -19.1489  -18.0024 C   0  0  0  0  0  0  0  0  0  0  0  0
   20.2715  -19.5081  -18.8468 C   0  0  0  0  0  0  0  0  0  0  0  0
   20.4335  -20.4718  -19.8153 C   0  0  0  0  0  0  0  0  0  0  0  0
   21.6374  -21.1197  -19.9914 C   0  0  0  0  0  0  0  0  0  0  0  0
   22.6855  -20.7724  -19.1623 C   0  0  0  0  0  0  0  0  0  0  0  0
   22.5150  -19.7946  -18.1824 C   0  0  0  0  0  0  0  0  0  0  0  0
   19.0565  -19.0139  -16.1316 C   0  0  0  0  0  0  0  0  0  0  0  0
   18.6191  -20.1538  -15.9356 O   0  0  0  0  0  0  0  0  0  0  0  0
   18.1984  -18.0782  -16.7178 O   0  0  0  0  0  0  0  0  0  0  0  0
  2  1  1  6
  3  4  1  0
  3  2  1  0
  5  2  1  0
  5  6  2  0
  7  5  1  0
  8  7  1  0
  8 12  1  0
  8  9  1  1
 10 11  2  0
 10  9  1  0
 12 15  1  0
 13 12  2  0
 14 10  1  0
 15 16  1  0
 16 24  1  0
 17 18  1  0
 16 17  1  6
 18 23  2  0
 19 18  1  0
 19 20  2  0
 20 21  1  0
 21 22  2  0
 23 22  1  0
 24 25  2  0
 24 26  1  0
M  END
$$$$
