CDF.pdb
     RDKit          3D

 26 26  0  0  1  0  0  0  0  0999 V2000
   34.9283  -10.3772  -17.0144 N   0  0  0  0  0  0  0  0  0  0  0  0
   34.5842   -9.4117  -15.9905 C   0  0  1  0  0  0  0  0  0  0  0  0
   35.6548   -9.4176  -14.9180 C   0  0  0  0  0  0  0  0  0  0  0  0
   35.8472  -11.0259  -14.1374 S   0  0  0  0  0  0  0  0  0  0  0  0
   34.3796   -8.0558  -16.5638 C   0  0  0  0  0  0  0  0  0  0  0  0
   34.6693   -7.8296  -17.7661 O   0  0  0  0  0  0  0  0  0  0  0  0
   33.8541   -7.0373  -15.7236 N   0  0  0  0  0  0  0  0  0  0  0  0
   33.5488   -5.7248  -16.2706 C   0  0  1  0  0  0  0  0  0  0  0  0
   32.4592   -5.7957  -17.3117 C   0  0  0  0  0  0  0  0  0  0  0  0
   32.1460   -4.4639  -17.8854 C   0  0  0  0  0  0  0  0  0  0  0  0
   30.9649   -4.2718  -18.2662 O   0  0  0  0  0  0  0  0  0  0  0  0
   33.0377   -4.8882  -15.1558 C   0  0  0  0  0  0  0  0  0  0  0  0
   32.0723   -5.2583  -14.4553 O   0  0  0  0  0  0  0  0  0  0  0  0
   33.0451   -3.4433  -18.0263 O   0  0  0  0  0  0  0  0  0  0  0  0
   33.6209   -3.6399  -14.8405 N   0  0  0  0  0  0  0  0  0  0  0  0
   33.1400   -2.7537  -13.7864 C   0  0  1  0  0  0  0  0  0  0  0  0
   34.2353   -2.4664  -12.7923 C   0  0  0  0  0  0  0  0  0  0  0  0
   33.7718   -1.5703  -11.7232 C   0  0  0  0  0  0  0  0  0  0  0  0
   33.2091   -2.0904  -10.5548 C   0  0  0  0  0  0  0  0  0  0  0  0
   32.7959   -1.2636   -9.5356 C   0  0  0  0  0  0  0  0  0  0  0  0
   32.9200    0.1064   -9.6254 C   0  0  0  0  0  0  0  0  0  0  0  0
   33.4749    0.6310  -10.7758 C   0  0  0  0  0  0  0  0  0  0  0  0
   33.8918   -0.2125  -11.8054 C   0  0  0  0  0  0  0  0  0  0  0  0
   32.5876   -1.5129  -14.3165 C   0  0  0  0  0  0  0  0  0  0  0  0
   33.0212   -0.9656  -15.3371 O   0  0  0  0  0  0  0  0  0  0  0  0
   31.5192   -0.9016  -13.6527 O   0  0  0  0  0  0  0  0  0  0  0  0
  2  1  1  6
  3  4  1  0
  3  2  1  0
  5  2  1  0
  5  6  2  0
  7  5  1  0
  8  7  1  0
  8 12  1  0
  8  9  1  6
 10 11  2  0
 10  9  1  0
 12 15  1  0
 13 12  2  0
 14 10  1  0
 15 16  1  0
 16 24  1  0
 17 18  1  0
 16 17  1  1
 18 23  2  0
 19 18  1  0
 19 20  2  0
 20 21  1  0
 21 22  2  0
 23 22  1  0
 24 25  2  0
 24 26  1  0
M  END
$$$$
