QLP.pdb
     RDKit          3D

 25 25  0  0  1  0  0  0  0  0999 V2000
   25.1162  -22.0566  -14.2972 N   0  0  0  0  0  0  0  0  0  0  0  0
   24.0478  -21.1223  -14.4344 C   0  0  0  0  0  0  0  0  0  0  0  0
   23.8052  -20.6423  -15.5830 O   0  0  0  0  0  0  0  0  0  0  0  0
   23.2501  -20.7384  -13.2287 C   0  0  0  0  0  0  0  0  0  0  0  0
   23.7369  -21.5671  -12.0861 C   0  0  0  0  0  0  0  0  0  0  0  0
   23.9735  -20.7884  -10.8265 C   0  0  2  0  0  0  0  0  0  0  0  0
   24.0270  -19.3866  -11.0991 N   0  0  0  0  0  0  0  0  0  0  0  0
   25.1496  -21.2413  -10.0716 C   0  0  0  0  0  0  0  0  0  0  0  0
   25.3215  -22.4149   -9.6635 O   0  0  0  0  0  0  0  0  0  0  0  0
   29.7192  -20.5967  -11.9098 C   0  0  0  0  0  0  0  0  0  0  0  0
   28.6127  -21.0233  -11.0044 C   0  0  1  0  0  0  0  0  0  0  0  0
   28.7335  -22.5345  -10.7891 C   0  0  0  0  0  0  0  0  0  0  0  0
   28.5204  -20.3108   -9.6948 C   0  0  0  0  0  0  0  0  0  0  0  0
   27.2920  -20.6183   -8.8804 C   0  0  2  0  0  0  0  0  0  0  0  0
   26.1669  -20.3027   -9.7765 N   0  0  0  0  0  0  0  0  0  0  0  0
   27.1792  -19.9390   -7.6006 C   0  0  0  0  0  0  0  0  0  0  0  0
   26.2101  -19.0928   -7.5031 O   0  0  0  0  0  0  0  0  0  0  0  0
   28.0060  -20.1051   -6.4618 N   0  0  0  0  0  0  0  0  0  0  0  0
   29.1975  -20.9585   -6.4158 C   0  0  0  0  0  0  0  0  0  0  0  0
   29.1326  -21.5366   -5.0351 C   0  0  0  0  0  0  0  0  0  0  0  0
   28.1276  -20.7273   -4.2503 C   0  0  0  0  0  0  0  0  0  0  0  0
   27.9211  -19.5091   -5.1579 C   0  0  1  0  0  0  0  0  0  0  0  0
   29.0128  -18.5140   -4.9201 C   0  0  0  0  0  0  0  0  0  0  0  0
   29.8787  -18.2727   -5.7877 O   0  0  0  0  0  0  0  0  0  0  0  0
   29.0626  -17.8508   -3.7160 O   0  0  0  0  0  0  0  0  0  0  0  0
  2  4  1  0
  2  1  1  0
  3  2  2  0
  5  4  1  0
  6  5  1  0
  6  7  1  6
  8  6  1  0
  9  8  2  0
 11 10  1  1
 11 12  1  0
 14 13  1  6
 13 11  1  0
 14 15  1  0
 15  8  1  0
 16 14  1  0
 17 16  2  0
 18 19  1  0
 18 16  1  0
 20 19  1  0
 21 20  1  0
 21 22  1  0
 22 18  1  0
 23 25  1  0
 22 23  1  6
 24 23  2  0
M  END
$$$$
