QLP.pdb
     RDKit          3D

 25 25  0  0  1  0  0  0  0  0999 V2000
   21.2417  -21.6205  -13.4732 N   0  0  0  0  0  0  0  0  0  0  0  0
   21.7461  -20.6982  -14.4365 C   0  0  0  0  0  0  0  0  0  0  0  0
   20.9264  -20.1308  -15.2207 O   0  0  0  0  0  0  0  0  0  0  0  0
   23.2163  -20.4285  -14.4939 C   0  0  0  0  0  0  0  0  0  0  0  0
   23.8388  -21.0807  -13.3038 C   0  0  0  0  0  0  0  0  0  0  0  0
   24.2653  -20.1185  -12.2356 C   0  0  2  0  0  0  0  0  0  0  0  0
   25.2875  -19.2444  -12.7187 N   0  0  0  0  0  0  0  0  0  0  0  0
   24.6582  -20.7743  -10.9811 C   0  0  0  0  0  0  0  0  0  0  0  0
   24.3997  -21.9677  -10.6937 O   0  0  0  0  0  0  0  0  0  0  0  0
   28.1480  -20.8242   -6.3330 C   0  0  0  0  0  0  0  0  0  0  0  0
   27.0629  -19.8637   -6.6880 C   0  0  1  0  0  0  0  0  0  0  0  0
   27.4087  -18.5081   -6.0655 C   0  0  0  0  0  0  0  0  0  0  0  0
   26.7652  -19.7138   -8.1440 C   0  0  0  0  0  0  0  0  0  0  0  0
   25.5814  -20.4990   -8.6426 C   0  0  2  0  0  0  0  0  0  0  0  0
   25.3774  -20.0233  -10.0212 N   0  0  0  0  0  0  0  0  0  0  0  0
   24.3675  -20.4109   -7.8483 C   0  0  0  0  0  0  0  0  0  0  0  0
   23.6093  -19.3979   -8.1009 O   0  0  0  0  0  0  0  0  0  0  0  0
   23.9306  -21.3070   -6.8412 N   0  0  0  0  0  0  0  0  0  0  0  0
   24.6784  -22.4871   -6.3958 C   0  0  0  0  0  0  0  0  0  0  0  0
   23.5926  -23.4914   -6.1572 C   0  0  0  0  0  0  0  0  0  0  0  0
   22.2800  -22.7448   -6.1334 C   0  0  0  0  0  0  0  0  0  0  0  0
   22.7444  -21.2872   -6.0318 C   0  0  1  0  0  0  0  0  0  0  0  0
   23.0411  -20.9523   -4.6040 C   0  0  0  0  0  0  0  0  0  0  0  0
   24.2133  -20.8883   -4.1769 O   0  0  0  0  0  0  0  0  0  0  0  0
   21.9961  -20.7104   -3.7428 O   0  0  0  0  0  0  0  0  0  0  0  0
  2  4  1  0
  2  1  1  0
  3  2  2  0
  5  4  1  0
  6  5  1  0
  6  7  1  6
  8  6  1  0
  9  8  2  0
 11 10  1  6
 11 12  1  0
 14 13  1  1
 13 11  1  0
 14 15  1  0
 15  8  1  0
 16 14  1  0
 17 16  2  0
 18 19  1  0
 18 16  1  0
 20 19  1  0
 21 20  1  0
 21 22  1  0
 22 18  1  0
 23 25  1  0
 22 23  1  1
 24 23  2  0
M  END
$$$$
