QLP.pdb
     RDKit          3D

 25 25  0  0  1  0  0  0  0  0999 V2000
   28.8499  -23.4254  -17.7943 N   0  0  0  0  0  0  0  0  0  0  0  0
   29.7084  -22.9656  -16.7529 C   0  0  0  0  0  0  0  0  0  0  0  0
   30.5145  -23.7889  -16.2229 O   0  0  0  0  0  0  0  0  0  0  0  0
   29.6338  -21.5360  -16.3188 C   0  0  0  0  0  0  0  0  0  0  0  0
   28.6139  -20.8599  -17.1742 C   0  0  0  0  0  0  0  0  0  0  0  0
   27.6418  -20.0129  -16.4085 C   0  0  2  0  0  0  0  0  0  0  0  0
   28.3213  -18.9713  -15.7043 N   0  0  0  0  0  0  0  0  0  0  0  0
   26.7646  -20.7876  -15.5205 C   0  0  0  0  0  0  0  0  0  0  0  0
   26.1888  -21.8534  -15.8461 O   0  0  0  0  0  0  0  0  0  0  0  0
   26.0324  -21.2420   -9.4359 C   0  0  0  0  0  0  0  0  0  0  0  0
   25.4115  -21.3446  -10.7887 C   0  0  1  0  0  0  0  0  0  0  0  0
   24.0269  -20.6939  -10.7244 C   0  0  0  0  0  0  0  0  0  0  0  0
   26.2050  -20.7831  -11.9228 C   0  0  0  0  0  0  0  0  0  0  0  0
   25.5916  -20.9594  -13.2864 C   0  0  2  0  0  0  0  0  0  0  0  0
   26.5436  -20.3136  -14.2054 N   0  0  0  0  0  0  0  0  0  0  0  0
   24.2393  -20.4546  -13.4561 C   0  0  0  0  0  0  0  0  0  0  0  0
   24.1141  -19.1714  -13.4078 O   0  0  0  0  0  0  0  0  0  0  0  0
   23.0589  -21.2093  -13.6686 N   0  0  0  0  0  0  0  0  0  0  0  0
   22.9807  -22.6714  -13.5909 C   0  0  0  0  0  0  0  0  0  0  0  0
   22.0263  -23.0070  -14.6961 C   0  0  0  0  0  0  0  0  0  0  0  0
   21.3427  -21.7259  -15.1109 C   0  0  0  0  0  0  0  0  0  0  0  0
   21.7222  -20.7775  -13.9676 C   0  0  1  0  0  0  0  0  0  0  0  0
   20.7916  -20.9828  -12.8141 C   0  0  0  0  0  0  0  0  0  0  0  0
   19.6358  -20.5087  -12.8135 O   0  0  0  0  0  0  0  0  0  0  0  0
   21.2218  -21.7107  -11.7291 O   0  0  0  0  0  0  0  0  0  0  0  0
  2  4  1  0
  2  1  1  0
  3  2  2  0
  5  4  1  0
  6  5  1  0
  6  7  1  1
  8  6  1  0
  9  8  2  0
 11 10  1  1
 11 12  1  0
 14 13  1  1
 13 11  1  0
 14 15  1  0
 15  8  1  0
 16 14  1  0
 17 16  2  0
 18 19  1  0
 18 16  1  0
 20 19  1  0
 21 20  1  0
 21 22  1  0
 22 18  1  0
 23 25  1  0
 22 23  1  1
 24 23  2  0
M  END
$$$$
