QLP.pdb
     RDKit          3D

 25 25  0  0  1  0  0  0  0  0999 V2000
   17.2924  -13.7471  -18.8777 N   0  0  0  0  0  0  0  0  0  0  0  0
   17.4908  -13.1868  -20.1737 C   0  0  0  0  0  0  0  0  0  0  0  0
   16.7937  -13.6259  -21.1379 O   0  0  0  0  0  0  0  0  0  0  0  0
   18.5079  -12.1054  -20.3571 C   0  0  0  0  0  0  0  0  0  0  0  0
   18.9924  -11.7104  -19.0012 C   0  0  0  0  0  0  0  0  0  0  0  0
   20.3493  -12.2491  -18.6586 C   0  0  2  0  0  0  0  0  0  0  0  0
   20.3043  -13.6675  -18.4896 N   0  0  0  0  0  0  0  0  0  0  0  0
   20.9684  -11.5830  -17.5048 C   0  0  0  0  0  0  0  0  0  0  0  0
   20.6479  -11.7909  -16.3100 O   0  0  0  0  0  0  0  0  0  0  0  0
   24.7547  -10.0666  -14.2457 C   0  0  0  0  0  0  0  0  0  0  0  0
   24.9752   -9.6989  -15.6748 C   0  0  1  0  0  0  0  0  0  0  0  0
   26.4440   -9.9702  -16.0119 C   0  0  0  0  0  0  0  0  0  0  0  0
   24.0765  -10.3556  -16.6709 C   0  0  0  0  0  0  0  0  0  0  0  0
   22.6438   -9.8935  -16.6474 C   0  0  2  0  0  0  0  0  0  0  0  0
   21.9974  -10.6402  -17.7396 N   0  0  0  0  0  0  0  0  0  0  0  0
   22.4256   -8.4610  -16.7601 C   0  0  0  0  0  0  0  0  0  0  0  0
   22.6146   -7.9599  -17.9340 O   0  0  0  0  0  0  0  0  0  0  0  0
   22.0303   -7.5670  -15.7343 N   0  0  0  0  0  0  0  0  0  0  0  0
   21.7439   -7.9613  -14.3513 C   0  0  0  0  0  0  0  0  0  0  0  0
   20.5878   -7.0786  -13.9923 C   0  0  0  0  0  0  0  0  0  0  0  0
   20.5009   -5.9946  -15.0403 C   0  0  0  0  0  0  0  0  0  0  0  0
   21.8441   -6.1432  -15.7644 C   0  0  1  0  0  0  0  0  0  0  0  0
   22.9088   -5.4186  -15.0028 C   0  0  0  0  0  0  0  0  0  0  0  0
   23.7283   -6.0280  -14.2834 O   0  0  0  0  0  0  0  0  0  0  0  0
   22.9842   -4.0484  -15.0982 O   0  0  0  0  0  0  0  0  0  0  0  0
  2  4  1  0
  2  1  1  0
  3  2  2  0
  5  4  1  0
  6  5  1  0
  6  7  1  1
  8  6  1  0
  9  8  2  0
 11 10  1  1
 11 12  1  0
 14 13  1  6
 13 11  1  0
 14 15  1  0
 15  8  1  0
 16 14  1  0
 17 16  2  0
 18 19  1  0
 18 16  1  0
 20 19  1  0
 21 20  1  0
 21 22  1  0
 22 18  1  0
 23 25  1  0
 22 23  1  1
 24 23  2  0
M  END
$$$$
