QLP.pdb
     RDKit          3D

 25 25  0  0  1  0  0  0  0  0999 V2000
   17.9910  -16.4079  -16.5505 N   0  0  0  0  0  0  0  0  0  0  0  0
   18.0298  -15.4348  -17.5919 C   0  0  0  0  0  0  0  0  0  0  0  0
   17.3711  -15.6550  -18.6532 O   0  0  0  0  0  0  0  0  0  0  0  0
   18.8403  -14.1916  -17.4040 C   0  0  0  0  0  0  0  0  0  0  0  0
   17.8869  -13.0510  -17.2654 C   0  0  0  0  0  0  0  0  0  0  0  0
   18.4721  -11.7201  -17.6330 C   0  0  2  0  0  0  0  0  0  0  0  0
   19.7986  -11.8724  -18.1425 N   0  0  0  0  0  0  0  0  0  0  0  0
   18.4172  -10.7365  -16.5432 C   0  0  0  0  0  0  0  0  0  0  0  0
   17.3890  -10.4776  -15.8728 O   0  0  0  0  0  0  0  0  0  0  0  0
   22.7149   -8.7234  -15.3719 C   0  0  0  0  0  0  0  0  0  0  0  0
   21.9381   -9.8014  -14.6934 C   0  0  1  0  0  0  0  0  0  0  0  0
   22.8080  -10.3779  -13.5729 C   0  0  0  0  0  0  0  0  0  0  0  0
   20.5931   -9.4158  -14.1703 C   0  0  0  0  0  0  0  0  0  0  0  0
   19.6087   -8.9485  -15.2091 C   0  0  2  0  0  0  0  0  0  0  0  0
   19.5951  -10.0241  -16.2146 N   0  0  0  0  0  0  0  0  0  0  0  0
   19.8662   -7.6474  -15.8034 C   0  0  0  0  0  0  0  0  0  0  0  0
   20.5304   -7.6623  -16.9094 O   0  0  0  0  0  0  0  0  0  0  0  0
   19.4697   -6.3806  -15.3073 N   0  0  0  0  0  0  0  0  0  0  0  0
   18.6300   -6.1763  -14.1227 C   0  0  0  0  0  0  0  0  0  0  0  0
   17.7768   -5.0119  -14.5236 C   0  0  0  0  0  0  0  0  0  0  0  0
   18.4009   -4.3923  -15.7513 C   0  0  0  0  0  0  0  0  0  0  0  0
   19.7807   -5.0601  -15.7788 C   0  0  1  0  0  0  0  0  0  0  0  0
   20.7086   -4.3353  -14.8555 C   0  0  0  0  0  0  0  0  0  0  0  0
   21.0078   -4.7965  -13.7337 O   0  0  0  0  0  0  0  0  0  0  0  0
   21.2430   -3.1319  -15.2536 O   0  0  0  0  0  0  0  0  0  0  0  0
  2  4  1  0
  2  1  1  0
  3  2  2  0
  5  4  1  0
  6  5  1  0
  6  7  1  1
  8  6  1  0
  9  8  2  0
 11 10  1  1
 11 12  1  0
 14 13  1  1
 13 11  1  0
 14 15  1  0
 15  8  1  0
 16 14  1  0
 17 16  2  0
 18 19  1  0
 18 16  1  0
 20 19  1  0
 21 20  1  0
 21 22  1  0
 22 18  1  0
 23 25  1  0
 22 23  1  1
 24 23  2  0
M  END
$$$$
