QLP.pdb
     RDKit          3D

 25 25  0  0  1  0  0  0  0  0999 V2000
   23.0928  -19.2539  -10.9887 N   0  0  0  0  0  0  0  0  0  0  0  0
   23.0165  -20.1795  -12.0706 C   0  0  0  0  0  0  0  0  0  0  0  0
   21.8738  -20.4848  -12.5287 O   0  0  0  0  0  0  0  0  0  0  0  0
   24.2769  -20.7594  -12.6297 C   0  0  0  0  0  0  0  0  0  0  0  0
   25.4171  -20.1851  -11.8554 C   0  0  0  0  0  0  0  0  0  0  0  0
   25.9019  -21.0654  -10.7424 C   0  0  2  0  0  0  0  0  0  0  0  0
   24.8202  -21.4489   -9.8908 N   0  0  0  0  0  0  0  0  0  0  0  0
   27.0150  -20.4839   -9.9800 C   0  0  0  0  0  0  0  0  0  0  0  0
   28.0898  -20.0838  -10.4880 O   0  0  0  0  0  0  0  0  0  0  0  0
   28.8417  -17.3478   -5.3669 C   0  0  0  0  0  0  0  0  0  0  0  0
   28.2986  -18.7254   -5.5489 C   0  0  1  0  0  0  0  0  0  0  0  0
   27.4873  -19.0829   -4.3004 C   0  0  0  0  0  0  0  0  0  0  0  0
   27.4929  -18.9587   -6.7849 C   0  0  0  0  0  0  0  0  0  0  0  0
   28.0213  -20.0267   -7.7051 C   0  0  2  0  0  0  0  0  0  0  0  0
   26.8820  -20.3596   -8.5765 N   0  0  0  0  0  0  0  0  0  0  0  0
   28.5863  -21.2052   -7.0692 C   0  0  0  0  0  0  0  0  0  0  0  0
   27.7618  -22.1764   -6.8645 O   0  0  0  0  0  0  0  0  0  0  0  0
   29.9277  -21.4016   -6.6572 N   0  0  0  0  0  0  0  0  0  0  0  0
   30.9919  -20.4006   -6.7825 C   0  0  0  0  0  0  0  0  0  0  0  0
   32.1839  -21.2338   -7.1422 C   0  0  0  0  0  0  0  0  0  0  0  0
   31.8328  -22.6753   -6.8600 C   0  0  0  0  0  0  0  0  0  0  0  0
   30.5504  -22.5345   -6.0316 C   0  0  1  0  0  0  0  0  0  0  0  0
   30.9021  -22.2673   -4.6020 C   0  0  0  0  0  0  0  0  0  0  0  0
   30.7983  -21.1258   -4.1051 O   0  0  0  0  0  0  0  0  0  0  0  0
   31.3510  -23.3049   -3.8185 O   0  0  0  0  0  0  0  0  0  0  0  0
  2  4  1  0
  2  1  1  0
  3  2  2  0
  5  4  1  0
  6  5  1  0
  6  7  1  1
  8  6  1  0
  9  8  2  0
 11 10  1  1
 11 12  1  0
 14 13  1  1
 13 11  1  0
 14 15  1  0
 15  8  1  0
 16 14  1  0
 17 16  2  0
 18 19  1  0
 18 16  1  0
 20 19  1  0
 21 20  1  0
 21 22  1  0
 22 18  1  0
 23 25  1  0
 22 23  1  1
 24 23  2  0
M  END
$$$$
