QLP.pdb
     RDKit          3D

 25 25  0  0  1  0  0  0  0  0999 V2000
   13.0487  -14.6829    7.4603 N   0  0  0  0  0  0  0  0  0  0  0  0
   11.7760  -14.9241    6.8643 C   0  0  0  0  0  0  0  0  0  0  0  0
   10.8188  -14.1385    7.1385 O   0  0  0  0  0  0  0  0  0  0  0  0
   11.6080  -16.0881    5.9399 C   0  0  0  0  0  0  0  0  0  0  0  0
   12.9287  -16.7776    5.8421 C   0  0  0  0  0  0  0  0  0  0  0  0
   13.5779  -16.6615    4.4952 C   0  0  2  0  0  0  0  0  0  0  0  0
   12.8616  -17.4213    3.5195 N   0  0  0  0  0  0  0  0  0  0  0  0
   15.0079  -16.9982    4.5047 C   0  0  0  0  0  0  0  0  0  0  0  0
   15.4934  -18.0439    4.0104 O   0  0  0  0  0  0  0  0  0  0  0  0
   18.4951  -12.8544    4.1591 C   0  0  0  0  0  0  0  0  0  0  0  0
   17.9629  -14.2457    4.0739 C   0  0  1  0  0  0  0  0  0  0  0  0
   18.7038  -14.9673    2.9447 C   0  0  0  0  0  0  0  0  0  0  0  0
   18.0113  -15.0485    5.3326 C   0  0  0  0  0  0  0  0  0  0  0  0
   17.3450  -16.3967    5.2616 C   0  0  2  0  0  0  0  0  0  0  0  0
   15.9124  -16.0925    5.1083 N   0  0  0  0  0  0  0  0  0  0  0  0
   17.5965  -17.3004    6.3716 C   0  0  0  0  0  0  0  0  0  0  0  0
   16.6789  -17.3378    7.2779 O   0  0  0  0  0  0  0  0  0  0  0  0
   18.7248  -18.1362    6.5627 N   0  0  0  0  0  0  0  0  0  0  0  0
   19.8622  -18.2225    5.6414 C   0  0  0  0  0  0  0  0  0  0  0  0
   20.2066  -19.6800    5.6826 C   0  0  0  0  0  0  0  0  0  0  0  0
   19.4961  -20.2815    6.8717 C   0  0  0  0  0  0  0  0  0  0  0  0
   19.0445  -19.0328    7.6381 C   0  0  1  0  0  0  0  0  0  0  0  0
   20.1719  -18.5246    8.4804 C   0  0  0  0  0  0  0  0  0  0  0  0
   20.4622  -19.0544    9.5739 O   0  0  0  0  0  0  0  0  0  0  0  0
   20.9043  -17.4475    8.0381 O   0  0  0  0  0  0  0  0  0  0  0  0
  2  4  1  0
  2  1  1  0
  3  2  2  0
  5  4  1  0
  6  5  1  0
  6  7  1  6
  8  6  1  0
  9  8  2  0
 11 10  1  1
 11 12  1  0
 14 13  1  1
 13 11  1  0
 14 15  1  0
 15  8  1  0
 16 14  1  0
 17 16  2  0
 18 19  1  0
 18 16  1  0
 20 19  1  0
 21 20  1  0
 21 22  1  0
 22 18  1  0
 23 25  1  0
 22 23  1  1
 24 23  2  0
M  END
$$$$
