QLP.pdb
     RDKit          3D

 25 25  0  0  1  0  0  0  0  0999 V2000
   21.5785  -23.4708  -15.5004 N   0  0  0  0  0  0  0  0  0  0  0  0
   20.1789  -23.2023  -15.5432 C   0  0  0  0  0  0  0  0  0  0  0  0
   19.3799  -24.1721  -15.7155 O   0  0  0  0  0  0  0  0  0  0  0  0
   19.6971  -21.7950  -15.3847 C   0  0  0  0  0  0  0  0  0  0  0  0
   20.8993  -20.9249  -15.2208 C   0  0  0  0  0  0  0  0  0  0  0  0
   21.4122  -20.8540  -13.8134 C   0  0  2  0  0  0  0  0  0  0  0  0
   20.4280  -20.2926  -12.9423 N   0  0  0  0  0  0  0  0  0  0  0  0
   22.7020  -20.1607  -13.6956 C   0  0  0  0  0  0  0  0  0  0  0  0
   22.8637  -18.9292  -13.8711 O   0  0  0  0  0  0  0  0  0  0  0  0
   26.2314  -21.7738  -10.0136 C   0  0  0  0  0  0  0  0  0  0  0  0
   25.4739  -21.0275  -11.0602 C   0  0  1  0  0  0  0  0  0  0  0  0
   25.3627  -19.5673  -10.6130 C   0  0  0  0  0  0  0  0  0  0  0  0
   26.0124  -21.1127  -12.4509 C   0  0  0  0  0  0  0  0  0  0  0  0
   25.2137  -20.3800  -13.4959 C   0  0  2  0  0  0  0  0  0  0  0  0
   23.8498  -20.9187  -13.3624 N   0  0  0  0  0  0  0  0  0  0  0  0
   25.7046  -20.4657  -14.8612 C   0  0  0  0  0  0  0  0  0  0  0  0
   25.0092  -21.2057  -15.6572 O   0  0  0  0  0  0  0  0  0  0  0  0
   26.8479  -19.8306  -15.4065 N   0  0  0  0  0  0  0  0  0  0  0  0
   27.8057  -19.0339  -14.6332 C   0  0  0  0  0  0  0  0  0  0  0  0
   28.1504  -17.9262  -15.5812 C   0  0  0  0  0  0  0  0  0  0  0  0
   27.6592  -18.3308  -16.9508 C   0  0  0  0  0  0  0  0  0  0  0  0
   27.3506  -19.8193  -16.7518 C   0  0  1  0  0  0  0  0  0  0  0  0
   28.6091  -20.6166  -16.8907 C   0  0  0  0  0  0  0  0  0  0  0  0
   29.2026  -20.7170  -17.9853 O   0  0  0  0  0  0  0  0  0  0  0  0
   29.1222  -21.2542  -15.7851 O   0  0  0  0  0  0  0  0  0  0  0  0
  2  4  1  0
  2  1  1  0
  3  2  2  0
  5  4  1  0
  6  5  1  0
  6  7  1  1
  8  6  1  0
  9  8  2  0
 11 10  1  1
 11 12  1  0
 14 13  1  1
 13 11  1  0
 14 15  1  0
 15  8  1  0
 16 14  1  0
 17 16  2  0
 18 19  1  0
 18 16  1  0
 20 19  1  0
 21 20  1  0
 21 22  1  0
 22 18  1  0
 23 25  1  0
 22 23  1  1
 24 23  2  0
M  END
$$$$
