QLP.pdb
     RDKit          3D

 25 25  0  0  1  0  0  0  0  0999 V2000
   19.2440  -24.1354  -14.3400 N   0  0  0  0  0  0  0  0  0  0  0  0
   19.9007  -23.3036  -15.2939 C   0  0  0  0  0  0  0  0  0  0  0  0
   20.8646  -23.7887  -15.9604 O   0  0  0  0  0  0  0  0  0  0  0  0
   19.4371  -21.8935  -15.4795 C   0  0  0  0  0  0  0  0  0  0  0  0
   20.6316  -21.0075  -15.3474 C   0  0  0  0  0  0  0  0  0  0  0  0
   21.1530  -20.8932  -13.9460 C   0  0  2  0  0  0  0  0  0  0  0  0
   20.1857  -20.2769  -13.0934 N   0  0  0  0  0  0  0  0  0  0  0  0
   22.4582  -20.2244  -13.8608 C   0  0  0  0  0  0  0  0  0  0  0  0
   22.6392  -18.9967  -14.0444 O   0  0  0  0  0  0  0  0  0  0  0  0
   25.9165  -21.7820  -10.0681 C   0  0  0  0  0  0  0  0  0  0  0  0
   25.2072  -21.0179  -11.1355 C   0  0  1  0  0  0  0  0  0  0  0  0
   25.2323  -19.5356  -10.7523 C   0  0  0  0  0  0  0  0  0  0  0  0
   25.7099  -21.2100  -12.5289 C   0  0  0  0  0  0  0  0  0  0  0  0
   24.9630  -20.4502  -13.5926 C   0  0  2  0  0  0  0  0  0  0  0  0
   23.5988  -21.0030  -13.5515 N   0  0  0  0  0  0  0  0  0  0  0  0
   25.5286  -20.4884  -14.9308 C   0  0  0  0  0  0  0  0  0  0  0  0
   24.8785  -21.1985  -15.7898 O   0  0  0  0  0  0  0  0  0  0  0  0
   26.7004  -19.8366  -15.3892 N   0  0  0  0  0  0  0  0  0  0  0  0
   27.6045  -19.0550  -14.5395 C   0  0  0  0  0  0  0  0  0  0  0  0
   28.0017  -17.9240  -15.4381 C   0  0  0  0  0  0  0  0  0  0  0  0
   27.5982  -18.2977  -16.8447 C   0  0  0  0  0  0  0  0  0  0  0  0
   27.2853  -19.7916  -16.7001 C   0  0  1  0  0  0  0  0  0  0  0  0
   28.5539  -20.5810  -16.7794 C   0  0  0  0  0  0  0  0  0  0  0  0
   29.0131  -21.1830  -15.7858 O   0  0  0  0  0  0  0  0  0  0  0  0
   29.2292  -20.6430  -17.9762 O   0  0  0  0  0  0  0  0  0  0  0  0
  2  4  1  0
  2  1  1  0
  3  2  2  0
  5  4  1  0
  6  5  1  0
  6  7  1  1
  8  6  1  0
  9  8  2  0
 11 10  1  1
 11 12  1  0
 14 13  1  1
 13 11  1  0
 14 15  1  0
 15  8  1  0
 16 14  1  0
 17 16  2  0
 18 19  1  0
 18 16  1  0
 20 19  1  0
 21 20  1  0
 21 22  1  0
 22 18  1  0
 23 25  1  0
 22 23  1  1
 24 23  2  0
M  END
$$$$
