QLP.pdb
     RDKit          3D

 25 25  0  0  1  0  0  0  0  0999 V2000
   12.6995  -23.2499    5.1714 N   0  0  0  0  0  0  0  0  0  0  0  0
   12.9608  -21.8813    5.4741 C   0  0  0  0  0  0  0  0  0  0  0  0
   12.5241  -21.4072    6.5663 O   0  0  0  0  0  0  0  0  0  0  0  0
   13.7368  -21.0506    4.5017 C   0  0  0  0  0  0  0  0  0  0  0  0
   14.0440  -21.9115    3.3212 C   0  0  0  0  0  0  0  0  0  0  0  0
   14.8019  -21.2077    2.2352 C   0  0  2  0  0  0  0  0  0  0  0  0
   14.9714  -22.0600    1.1006 N   0  0  0  0  0  0  0  0  0  0  0  0
   16.0803  -20.6421    2.6868 C   0  0  0  0  0  0  0  0  0  0  0  0
   17.0924  -21.3225    2.9806 O   0  0  0  0  0  0  0  0  0  0  0  0
   19.8097  -16.5120    2.4360 C   0  0  0  0  0  0  0  0  0  0  0  0
   18.5198  -16.3235    3.1617 C   0  0  1  0  0  0  0  0  0  0  0  0
   18.1208  -14.8499    3.0424 C   0  0  0  0  0  0  0  0  0  0  0  0
   17.3923  -17.2096    2.7436 C   0  0  0  0  0  0  0  0  0  0  0  0
   17.3993  -18.5882    3.3488 C   0  0  2  0  0  0  0  0  0  0  0  0
   16.1947  -19.2364    2.8038 N   0  0  0  0  0  0  0  0  0  0  0  0
   17.4480  -18.6560    4.7998 C   0  0  0  0  0  0  0  0  0  0  0  0
   16.3063  -18.7678    5.3903 O   0  0  0  0  0  0  0  0  0  0  0  0
   18.5990  -18.6158    5.6254 N   0  0  0  0  0  0  0  0  0  0  0  0
   19.9741  -18.4943    5.1310 C   0  0  0  0  0  0  0  0  0  0  0  0
   20.7373  -19.3822    6.0658 C   0  0  0  0  0  0  0  0  0  0  0  0
   19.8404  -19.6800    7.2438 C   0  0  0  0  0  0  0  0  0  0  0  0
   18.7169  -18.6538    7.0562 C   0  0  1  0  0  0  0  0  0  0  0  0
   19.1405  -17.3353    7.6227 C   0  0  0  0  0  0  0  0  0  0  0  0
   19.5120  -16.3962    6.8874 O   0  0  0  0  0  0  0  0  0  0  0  0
   19.1202  -17.1558    8.9864 O   0  0  0  0  0  0  0  0  0  0  0  0
  2  4  1  0
  2  1  1  0
  3  2  2  0
  5  4  1  0
  6  5  1  0
  6  7  1  6
  8  6  1  0
  9  8  2  0
 11 10  1  6
 11 12  1  0
 14 13  1  1
 13 11  1  0
 14 15  1  0
 15  8  1  0
 16 14  1  0
 17 16  2  0
 18 19  1  0
 18 16  1  0
 20 19  1  0
 21 20  1  0
 21 22  1  0
 22 18  1  0
 23 25  1  0
 22 23  1  6
 24 23  2  0
M  END
$$$$
