QLP.pdb
     RDKit          3D

 25 25  0  0  1  0  0  0  0  0999 V2000
   19.4740  -24.4232  -14.1340 N   0  0  0  0  0  0  0  0  0  0  0  0
   20.1730  -23.7173  -15.1568 C   0  0  0  0  0  0  0  0  0  0  0  0
   21.1888  -24.2629  -15.6852 O   0  0  0  0  0  0  0  0  0  0  0  0
   19.6916  -22.3638  -15.5738 C   0  0  0  0  0  0  0  0  0  0  0  0
   20.8323  -21.4135  -15.4159 C   0  0  0  0  0  0  0  0  0  0  0  0
   21.1672  -21.0960  -13.9890 C   0  0  2  0  0  0  0  0  0  0  0  0
   20.0924  -20.3953  -13.3595 N   0  0  0  0  0  0  0  0  0  0  0  0
   22.4445  -20.3874  -13.8322 C   0  0  0  0  0  0  0  0  0  0  0  0
   22.6031  -19.1591  -14.0311 O   0  0  0  0  0  0  0  0  0  0  0  0
   25.5471  -21.4331   -9.6883 C   0  0  0  0  0  0  0  0  0  0  0  0
   24.9022  -20.8678  -10.9092 C   0  0  1  0  0  0  0  0  0  0  0  0
   24.7231  -19.3622  -10.6956 C   0  0  0  0  0  0  0  0  0  0  0  0
   25.5943  -21.1370  -12.2053 C   0  0  0  0  0  0  0  0  0  0  0  0
   24.9353  -20.5431  -13.4217 C   0  0  2  0  0  0  0  0  0  0  0  0
   23.5830  -21.1257  -13.4301 N   0  0  0  0  0  0  0  0  0  0  0  0
   25.6224  -20.7370  -14.6876 C   0  0  0  0  0  0  0  0  0  0  0  0
   25.0736  -21.5805  -15.4952 O   0  0  0  0  0  0  0  0  0  0  0  0
   26.8130  -20.1063  -15.1265 N   0  0  0  0  0  0  0  0  0  0  0  0
   27.6607  -19.2531  -14.2878 C   0  0  0  0  0  0  0  0  0  0  0  0
   28.0992  -18.1866  -15.2443 C   0  0  0  0  0  0  0  0  0  0  0  0
   27.7796  -18.6680  -16.6396 C   0  0  0  0  0  0  0  0  0  0  0  0
   27.4713  -20.1509  -16.4022 C   0  0  1  0  0  0  0  0  0  0  0  0
   28.7487  -20.9282  -16.3512 C   0  0  0  0  0  0  0  0  0  0  0  0
   29.2165  -21.3479  -15.2715 O   0  0  0  0  0  0  0  0  0  0  0  0
   29.4227  -21.1848  -17.5225 O   0  0  0  0  0  0  0  0  0  0  0  0
  2  4  1  0
  2  1  1  0
  3  2  2  0
  5  4  1  0
  6  5  1  0
  6  7  1  6
  8  6  1  0
  9  8  2  0
 11 10  1  1
 11 12  1  0
 14 13  1  1
 13 11  1  0
 14 15  1  0
 15  8  1  0
 16 14  1  0
 17 16  2  0
 18 19  1  0
 18 16  1  0
 20 19  1  0
 21 20  1  0
 21 22  1  0
 22 18  1  0
 23 25  1  0
 22 23  1  1
 24 23  2  0
M  END
$$$$
