QLP.pdb
     RDKit          3D

 25 25  0  0  1  0  0  0  0  0999 V2000
   14.2520  -26.4330    0.7997 N   0  0  0  0  0  0  0  0  0  0  0  0
   13.2887  -25.9484   -0.1332 C   0  0  0  0  0  0  0  0  0  0  0  0
   12.3635  -25.1902    0.2884 O   0  0  0  0  0  0  0  0  0  0  0  0
   13.3965  -26.3455   -1.5714 C   0  0  0  0  0  0  0  0  0  0  0  0
   14.6380  -27.1616   -1.7197 C   0  0  0  0  0  0  0  0  0  0  0  0
   15.8858  -26.3468   -1.8873 C   0  0  2  0  0  0  0  0  0  0  0  0
   15.9121  -25.7171   -3.1700 N   0  0  0  0  0  0  0  0  0  0  0  0
   17.1176  -27.1041   -1.6275 C   0  0  0  0  0  0  0  0  0  0  0  0
   17.6869  -27.8416   -2.4674 O   0  0  0  0  0  0  0  0  0  0  0  0
   20.7613  -24.9600    1.9143 C   0  0  0  0  0  0  0  0  0  0  0  0
   20.1645  -25.7468    0.7959 C   0  0  1  0  0  0  0  0  0  0  0  0
   21.2545  -25.9777   -0.2545 C   0  0  0  0  0  0  0  0  0  0  0  0
   19.5136  -27.0377    1.1716 C   0  0  0  0  0  0  0  0  0  0  0  0
   18.8946  -27.8017    0.0315 C   0  0  2  0  0  0  0  0  0  0  0  0
   17.7153  -27.0060   -0.3485 N   0  0  0  0  0  0  0  0  0  0  0  0
   18.5561  -29.1906    0.2934 C   0  0  0  0  0  0  0  0  0  0  0  0
   17.3684  -29.3967    0.7535 O   0  0  0  0  0  0  0  0  0  0  0  0
   19.3777  -30.3285    0.0984 N   0  0  0  0  0  0  0  0  0  0  0  0
   20.7534  -30.2850   -0.4069 C   0  0  0  0  0  0  0  0  0  0  0  0
   20.8225  -31.5055   -1.2730 C   0  0  0  0  0  0  0  0  0  0  0  0
   19.6241  -32.3640   -0.9451 C   0  0  0  0  0  0  0  0  0  0  0  0
   19.1138  -31.7180    0.3483 C   0  0  1  0  0  0  0  0  0  0  0  0
   19.8944  -32.2400    1.5131 C   0  0  0  0  0  0  0  0  0  0  0  0
   20.7434  -31.5363    2.1000 O   0  0  0  0  0  0  0  0  0  0  0  0
   19.6704  -33.5265    1.9456 O   0  0  0  0  0  0  0  0  0  0  0  0
  2  4  1  0
  2  1  1  0
  3  2  2  0
  5  4  1  0
  6  5  1  0
  6  7  1  6
  8  6  1  0
  9  8  2  0
 11 10  1  1
 11 12  1  0
 14 13  1  1
 13 11  1  0
 14 15  1  0
 15  8  1  0
 16 14  1  0
 17 16  2  0
 18 19  1  0
 18 16  1  0
 20 19  1  0
 21 20  1  0
 21 22  1  0
 22 18  1  0
 23 25  1  0
 22 23  1  1
 24 23  2  0
M  END
$$$$
