QLP.pdb
     RDKit          3D

 25 25  0  0  1  0  0  0  0  0999 V2000
   19.6020  -18.4013  -14.3281 N   0  0  0  0  0  0  0  0  0  0  0  0
   19.9699  -18.9106  -15.6081 C   0  0  0  0  0  0  0  0  0  0  0  0
   19.4583  -20.0044  -15.9960 O   0  0  0  0  0  0  0  0  0  0  0  0
   20.9412  -18.1456  -16.4501 C   0  0  0  0  0  0  0  0  0  0  0  0
   21.3607  -16.9431  -15.6708 C   0  0  0  0  0  0  0  0  0  0  0  0
   21.5730  -15.7179  -16.5091 C   0  0  2  0  0  0  0  0  0  0  0  0
   22.3085  -16.0342  -17.6928 N   0  0  0  0  0  0  0  0  0  0  0  0
   22.1825  -14.6033  -15.7712 C   0  0  0  0  0  0  0  0  0  0  0  0
   21.7299  -14.1293  -14.7016 O   0  0  0  0  0  0  0  0  0  0  0  0
   27.7643  -12.3763  -15.0709 C   0  0  0  0  0  0  0  0  0  0  0  0
   26.3429  -11.9817  -15.2942 C   0  0  1  0  0  0  0  0  0  0  0  0
   26.3339  -10.6972  -16.1278 C   0  0  0  0  0  0  0  0  0  0  0  0
   25.4605  -13.0164  -15.9122 C   0  0  0  0  0  0  0  0  0  0  0  0
   23.9862  -12.8334  -15.6680 C   0  0  2  0  0  0  0  0  0  0  0  0
   23.3604  -14.0132  -16.2882 N   0  0  0  0  0  0  0  0  0  0  0  0
   23.4023  -11.5906  -16.1444 C   0  0  0  0  0  0  0  0  0  0  0  0
   23.1870  -11.5279  -17.4150 O   0  0  0  0  0  0  0  0  0  0  0  0
   23.0462  -10.4558  -15.3741 N   0  0  0  0  0  0  0  0  0  0  0  0
   23.2912  -10.3164  -13.9351 C   0  0  0  0  0  0  0  0  0  0  0  0
   22.0633   -9.6001  -13.4621 C   0  0  0  0  0  0  0  0  0  0  0  0
   21.3555   -9.0579  -14.6811 C   0  0  0  0  0  0  0  0  0  0  0  0
   22.4226   -9.2239  -15.7693 C   0  0  1  0  0  0  0  0  0  0  0  0
   23.3733   -8.0695  -15.7215 C   0  0  0  0  0  0  0  0  0  0  0  0
   24.5411   -8.2007  -15.2978 O   0  0  0  0  0  0  0  0  0  0  0  0
   22.9483   -6.8348  -16.1543 O   0  0  0  0  0  0  0  0  0  0  0  0
  2  4  1  0
  2  1  1  0
  3  2  2  0
  5  4  1  0
  6  5  1  0
  6  7  1  6
  8  6  1  0
  9  8  2  0
 11 10  1  6
 11 12  1  0
 14 13  1  6
 13 11  1  0
 14 15  1  0
 15  8  1  0
 16 14  1  0
 17 16  2  0
 18 19  1  0
 18 16  1  0
 20 19  1  0
 21 20  1  0
 21 22  1  0
 22 18  1  0
 23 25  1  0
 22 23  1  1
 24 23  2  0
M  END
$$$$
