LKR.pdb
     RDKit          3D

 29 28  0  0  1  0  0  0  0  0999 V2000
    7.4206  -19.7128   28.5645 C   0  0  0  0  0  0  0  0  0  0  0  0
    6.6428  -19.6048   27.2873 C   0  0  1  0  0  0  0  0  0  0  0  0
    5.6956  -18.4333   27.2960 C   0  0  0  0  0  0  0  0  0  0  0  0
    7.5120  -19.6257   26.0547 C   0  0  0  0  0  0  0  0  0  0  0  0
    6.7498  -19.3679   24.7962 C   0  0  2  0  0  0  0  0  0  0  0  0
    6.2761  -20.5902   24.2163 N   0  0  0  0  0  0  0  0  0  0  0  0
    7.5971  -18.5821   23.8624 C   0  0  0  0  0  0  0  0  0  0  0  0
    8.4071  -19.2250   23.1477 O   0  0  0  0  0  0  0  0  0  0  0  0
    7.5300  -17.1664   23.7478 N   0  0  0  0  0  0  0  0  0  0  0  0
    8.3691  -16.3941   22.8655 C   0  0  1  0  0  0  0  0  0  0  0  0
    7.8531  -14.9994   22.6275 C   0  0  0  0  0  0  0  0  0  0  0  0
    8.7812  -14.1843   21.7543 C   0  0  0  0  0  0  0  0  0  0  0  0
    8.0443  -13.8383   20.4742 C   0  0  0  0  0  0  0  0  0  0  0  0
    8.9468  -13.0641   19.5353 C   0  0  0  0  0  0  0  0  0  0  0  0
    8.2586  -12.7753   18.3080 N   0  0  0  0  0  0  0  0  0  0  0  0
    9.7540  -16.3417   23.4053 C   0  0  0  0  0  0  0  0  0  0  0  0
    9.9840  -16.2571   24.6423 O   0  0  0  0  0  0  0  0  0  0  0  0
   18.1294  -16.9659   19.3187 N   0  0  0  0  0  0  0  0  0  0  0  0
   17.6532  -16.8123   20.6437 C   0  0  0  0  0  0  0  0  0  0  0  0
   18.1651  -15.8938   21.4220 N   0  0  0  0  0  0  0  0  0  0  0  0
   16.6208  -17.6625   21.1118 N   0  0  0  0  0  0  0  0  0  0  0  0
   15.2324  -17.3593   20.7238 C   0  0  0  0  0  0  0  0  0  0  0  0
   14.4961  -17.0179   21.9544 C   0  0  0  0  0  0  0  0  0  0  0  0
   13.0616  -16.8400   21.9086 C   0  0  0  0  0  0  0  0  0  0  0  0
   12.2047  -16.6113   23.0727 C   0  0  2  0  0  0  0  0  0  0  0  0
   10.8272  -16.3887   22.4949 N   0  0  0  0  0  0  0  0  0  0  0  0
   12.4244  -15.4294   23.8992 C   0  0  0  0  0  0  0  0  0  0  0  0
   11.6339  -14.3065   23.9714 O   0  0  0  0  0  0  0  0  0  0  0  0
   13.4653  -15.3708   24.6603 O   0  0  0  0  0  0  0  0  0  0  0  0
  2  1  1  1
  2  4  1  0
  2  3  1  0
  5  4  1  0
  5  7  1  0
  5  6  1  6
  7  8  2  0
  9 10  1  0
  9  7  1  0
 10 16  1  0
 10 11  1  1
 12 11  1  0
 12 13  1  0
 14 15  1  0
 14 13  1  0
 16 17  2  0
 18 19  1  0
 19 21  1  0
 20 19  2  0
 21 22  1  0
 23 24  1  0
 23 22  1  0
 25 24  1  6
 25 27  1  0
 26 16  1  0
 26 25  1  0
 27 29  2  0
 27 28  1  0
M  END
$$$$
