LKR.pdb
     RDKit          3D

 29 28  0  0  1  0  0  0  0  0999 V2000
    4.9523  -11.4227   26.9783 C   0  0  0  0  0  0  0  0  0  0  0  0
    6.1368  -12.0646   26.3205 C   0  0  1  0  0  0  0  0  0  0  0  0
    7.3990  -11.8856   27.1233 C   0  0  0  0  0  0  0  0  0  0  0  0
    5.9019  -13.5057   25.9419 C   0  0  0  0  0  0  0  0  0  0  0  0
    7.1524  -14.2168   25.5398 C   0  0  2  0  0  0  0  0  0  0  0  0
    8.3122  -13.4156   25.8002 N   0  0  0  0  0  0  0  0  0  0  0  0
    7.0473  -14.6255   24.1152 C   0  0  0  0  0  0  0  0  0  0  0  0
    6.2859  -15.5907   23.8527 O   0  0  0  0  0  0  0  0  0  0  0  0
    7.7562  -13.9840   23.0627 N   0  0  0  0  0  0  0  0  0  0  0  0
    8.1670  -14.6505   21.8519 C   0  0  1  0  0  0  0  0  0  0  0  0
    8.2476  -13.7265   20.6654 C   0  0  0  0  0  0  0  0  0  0  0  0
    8.2246  -14.4752   19.3511 C   0  0  0  0  0  0  0  0  0  0  0  0
    8.3538  -13.4638   18.2279 C   0  0  0  0  0  0  0  0  0  0  0  0
    8.3401  -14.1604   16.8826 C   0  0  0  0  0  0  0  0  0  0  0  0
    8.3491  -13.1933   15.8206 N   0  0  0  0  0  0  0  0  0  0  0  0
    9.4762  -15.3228   22.0663 C   0  0  0  0  0  0  0  0  0  0  0  0
   10.4733  -14.7063   22.5313 O   0  0  0  0  0  0  0  0  0  0  0  0
   12.4081  -21.9004   25.3314 N   0  0  0  0  0  0  0  0  0  0  0  0
   12.2340  -21.1351   26.5105 C   0  0  0  0  0  0  0  0  0  0  0  0
   12.5459  -21.6443   27.6744 N   0  0  0  0  0  0  0  0  0  0  0  0
   11.7203  -19.8183   26.4122 N   0  0  0  0  0  0  0  0  0  0  0  0
   10.6537  -19.5529   25.4312 C   0  0  0  0  0  0  0  0  0  0  0  0
   11.2287  -18.6987   24.3763 C   0  0  0  0  0  0  0  0  0  0  0  0
   10.4068  -18.2791   23.2628 C   0  0  0  0  0  0  0  0  0  0  0  0
   10.8443  -17.3976   22.1796 C   0  0  2  0  0  0  0  0  0  0  0  0
    9.5881  -16.6867   21.7350 N   0  0  0  0  0  0  0  0  0  0  0  0
   11.3605  -17.9834   20.9473 C   0  0  0  0  0  0  0  0  0  0  0  0
   12.6563  -18.3618   20.6856 O   0  0  0  0  0  0  0  0  0  0  0  0
   10.5599  -18.1829   19.9545 O   0  0  0  0  0  0  0  0  0  0  0  0
  2  1  1  1
  2  4  1  0
  2  3  1  0
  5  4  1  0
  5  7  1  0
  5  6  1  6
  7  8  2  0
  9 10  1  0
  9  7  1  0
 10 16  1  0
 10 11  1  6
 12 11  1  0
 12 13  1  0
 14 15  1  0
 14 13  1  0
 16 17  2  0
 18 19  1  0
 19 21  1  0
 20 19  2  0
 21 22  1  0
 23 24  1  0
 23 22  1  0
 25 24  1  1
 25 27  1  0
 26 16  1  0
 26 25  1  0
 27 29  2  0
 27 28  1  0
M  END
$$$$
