LKR.pdb
     RDKit          3D

 29 28  0  0  1  0  0  0  0  0999 V2000
    7.2340  -21.0925   21.9083 C   0  0  0  0  0  0  0  0  0  0  0  0
    7.1900  -19.7157   21.3166 C   0  0  1  0  0  0  0  0  0  0  0  0
    5.7882  -19.2956   20.9583 C   0  0  0  0  0  0  0  0  0  0  0  0
    7.8976  -18.6815   22.1562 C   0  0  0  0  0  0  0  0  0  0  0  0
    7.7530  -17.2943   21.6216 C   0  0  2  0  0  0  0  0  0  0  0  0
    8.4664  -17.1360   20.3884 N   0  0  0  0  0  0  0  0  0  0  0  0
    8.1819  -16.3219   22.6598 C   0  0  0  0  0  0  0  0  0  0  0  0
    9.4180  -16.2050   22.8570 O   0  0  0  0  0  0  0  0  0  0  0  0
    7.2723  -15.5373   23.4206 N   0  0  0  0  0  0  0  0  0  0  0  0
    7.6801  -14.5996   24.4371 C   0  0  1  0  0  0  0  0  0  0  0  0
    6.5821  -13.6527   24.8443 C   0  0  0  0  0  0  0  0  0  0  0  0
    7.0373  -12.6610   25.8920 C   0  0  0  0  0  0  0  0  0  0  0  0
    5.8732  -11.7423   26.2116 C   0  0  0  0  0  0  0  0  0  0  0  0
    6.2804  -10.7087   27.2417 C   0  0  0  0  0  0  0  0  0  0  0  0
    5.1352   -9.9558   27.6717 N   0  0  0  0  0  0  0  0  0  0  0  0
    8.1882  -15.3347   25.6260 C   0  0  0  0  0  0  0  0  0  0  0  0
    7.4846  -16.1876   26.2326 O   0  0  0  0  0  0  0  0  0  0  0  0
   11.4810  -20.6909   26.4911 N   0  0  0  0  0  0  0  0  0  0  0  0
   12.5733  -20.6552   27.3920 C   0  0  0  0  0  0  0  0  0  0  0  0
   12.8099  -21.6752   28.1760 N   0  0  0  0  0  0  0  0  0  0  0  0
   13.4011  -19.5058   27.4320 N   0  0  0  0  0  0  0  0  0  0  0  0
   13.0129  -18.3334   26.6289 C   0  0  0  0  0  0  0  0  0  0  0  0
   11.8535  -17.7100   27.2924 C   0  0  0  0  0  0  0  0  0  0  0  0
   11.1690  -16.6058   26.6570 C   0  0  0  0  0  0  0  0  0  0  0  0
   10.0175  -15.8962   27.2159 C   0  0  2  0  0  0  0  0  0  0  0  0
    9.4942  -15.0581   26.0736 N   0  0  0  0  0  0  0  0  0  0  0  0
   10.2274  -14.9256   28.2845 C   0  0  0  0  0  0  0  0  0  0  0  0
   10.2078  -15.1627   29.6389 O   0  0  0  0  0  0  0  0  0  0  0  0
   10.4510  -13.6899   27.9856 O   0  0  0  0  0  0  0  0  0  0  0  0
  2  1  1  1
  2  4  1  0
  2  3  1  0
  5  4  1  0
  5  7  1  0
  5  6  1  6
  7  8  2  0
  9 10  1  0
  9  7  1  0
 10 16  1  0
 10 11  1  1
 12 11  1  0
 12 13  1  0
 14 15  1  0
 14 13  1  0
 16 17  2  0
 18 19  1  0
 19 21  1  0
 20 19  2  0
 21 22  1  0
 23 24  1  0
 23 22  1  0
 25 24  1  6
 25 27  1  0
 26 16  1  0
 26 25  1  0
 27 29  2  0
 27 28  1  0
M  END
$$$$
