LKR.pdb
     RDKit          3D

 29 28  0  0  1  0  0  0  0  0999 V2000
    7.1958  -12.3415   27.5256 C   0  0  0  0  0  0  0  0  0  0  0  0
    6.3976  -13.0708   26.4871 C   0  0  1  0  0  0  0  0  0  0  0  0
    6.1738  -12.2365   25.2527 C   0  0  0  0  0  0  0  0  0  0  0  0
    6.9487  -14.4362   26.1597 C   0  0  0  0  0  0  0  0  0  0  0  0
    6.2210  -15.1089   25.0420 C   0  0  2  0  0  0  0  0  0  0  0  0
    5.4760  -16.2392   25.5132 N   0  0  0  0  0  0  0  0  0  0  0  0
    7.1884  -15.4665   23.9726 C   0  0  0  0  0  0  0  0  0  0  0  0
    7.7670  -16.5779   24.0742 O   0  0  0  0  0  0  0  0  0  0  0  0
    7.4789  -14.6224   22.8658 N   0  0  0  0  0  0  0  0  0  0  0  0
    8.4816  -14.9203   21.8734 C   0  0  1  0  0  0  0  0  0  0  0  0
    8.6304  -13.8369   20.8379 C   0  0  0  0  0  0  0  0  0  0  0  0
    8.1777  -14.2865   19.4664 C   0  0  0  0  0  0  0  0  0  0  0  0
    8.5308  -13.1977   18.4709 C   0  0  0  0  0  0  0  0  0  0  0  0
    8.0045  -13.5469   17.0938 C   0  0  0  0  0  0  0  0  0  0  0  0
    8.4195  -12.5595   16.1367 N   0  0  0  0  0  0  0  0  0  0  0  0
    9.7876  -15.1755   22.5377 C   0  0  0  0  0  0  0  0  0  0  0  0
   10.2271  -14.4269   23.4525 O   0  0  0  0  0  0  0  0  0  0  0  0
   10.6739  -20.9403   27.9840 N   0  0  0  0  0  0  0  0  0  0  0  0
   11.9674  -20.3643   28.0154 C   0  0  0  0  0  0  0  0  0  0  0  0
   12.7871  -20.6466   28.9951 N   0  0  0  0  0  0  0  0  0  0  0  0
   12.3588  -19.4830   26.9772 N   0  0  0  0  0  0  0  0  0  0  0  0
   11.3098  -18.8758   26.1398 C   0  0  0  0  0  0  0  0  0  0  0  0
   11.9842  -18.1185   25.0699 C   0  0  0  0  0  0  0  0  0  0  0  0
   11.1978  -17.4152   24.0808 C   0  0  0  0  0  0  0  0  0  0  0  0
   11.7451  -16.6520   22.9584 C   0  0  2  0  0  0  0  0  0  0  0  0
   10.5419  -16.2889   22.1208 N   0  0  0  0  0  0  0  0  0  0  0  0
   12.6344  -17.3150   22.0108 C   0  0  0  0  0  0  0  0  0  0  0  0
   13.9951  -17.4790   22.1223 O   0  0  0  0  0  0  0  0  0  0  0  0
   12.1473  -17.8136   20.9243 O   0  0  0  0  0  0  0  0  0  0  0  0
  2  1  1  1
  2  4  1  0
  2  3  1  0
  5  4  1  0
  5  7  1  0
  5  6  1  1
  7  8  2  0
  9 10  1  0
  9  7  1  0
 10 16  1  0
 10 11  1  6
 12 11  1  0
 12 13  1  0
 14 15  1  0
 14 13  1  0
 16 17  2  0
 18 19  1  0
 19 21  1  0
 20 19  2  0
 21 22  1  0
 23 24  1  0
 23 22  1  0
 25 24  1  1
 25 27  1  0
 26 16  1  0
 26 25  1  0
 27 29  2  0
 27 28  1  0
M  END
$$$$
