LKR.pdb
     RDKit          3D

 29 28  0  0  1  0  0  0  0  0999 V2000
    9.1873  -20.3835   16.4603 C   0  0  0  0  0  0  0  0  0  0  0  0
   10.4373  -19.9962   17.1918 C   0  0  1  0  0  0  0  0  0  0  0  0
   11.6803  -20.3238   16.4061 C   0  0  0  0  0  0  0  0  0  0  0  0
   10.4287  -18.5672   17.6748 C   0  0  0  0  0  0  0  0  0  0  0  0
    9.2001  -18.2182   18.4494 C   0  0  2  0  0  0  0  0  0  0  0  0
    8.1668  -17.7223   17.5885 N   0  0  0  0  0  0  0  0  0  0  0  0
    9.5562  -17.2596   19.5272 C   0  0  0  0  0  0  0  0  0  0  0  0
   10.7797  -17.0986   19.7671 O   0  0  0  0  0  0  0  0  0  0  0  0
    8.5919  -16.5349   20.2799 N   0  0  0  0  0  0  0  0  0  0  0  0
    8.9284  -15.6215   21.3436 C   0  0  1  0  0  0  0  0  0  0  0  0
    7.8331  -14.6324   21.6437 C   0  0  0  0  0  0  0  0  0  0  0  0
    7.3051  -13.9627   20.3943 C   0  0  0  0  0  0  0  0  0  0  0  0
    8.4818  -13.3725   19.6403 C   0  0  0  0  0  0  0  0  0  0  0  0
    8.0107  -12.6891   18.3729 C   0  0  0  0  0  0  0  0  0  0  0  0
    9.1318  -12.1667   17.6424 N   0  0  0  0  0  0  0  0  0  0  0  0
    9.2782  -16.3849   22.5712 C   0  0  0  0  0  0  0  0  0  0  0  0
    8.5222  -17.2804   23.0368 O   0  0  0  0  0  0  0  0  0  0  0  0
   15.0286  -20.2192   23.7066 N   0  0  0  0  0  0  0  0  0  0  0  0
   15.5458  -19.6098   22.5373 C   0  0  0  0  0  0  0  0  0  0  0  0
   16.6005  -20.1117   21.9483 N   0  0  0  0  0  0  0  0  0  0  0  0
   14.9087  -18.4558   22.0176 N   0  0  0  0  0  0  0  0  0  0  0  0
   14.4320  -17.4318   22.9634 C   0  0  0  0  0  0  0  0  0  0  0  0
   13.1322  -17.8884   23.4881 C   0  0  0  0  0  0  0  0  0  0  0  0
   12.3488  -17.0123   24.3308 C   0  0  0  0  0  0  0  0  0  0  0  0
   10.8864  -16.9745   24.3755 C   0  0  2  0  0  0  0  0  0  0  0  0
   10.4920  -16.0862   23.2194 N   0  0  0  0  0  0  0  0  0  0  0  0
   10.2232  -16.3607   25.5207 C   0  0  0  0  0  0  0  0  0  0  0  0
    9.4973  -15.1929   25.5337 O   0  0  0  0  0  0  0  0  0  0  0  0
   10.3004  -16.9268   26.6782 O   0  0  0  0  0  0  0  0  0  0  0  0
  2  1  1  6
  2  4  1  0
  2  3  1  0
  5  4  1  0
  5  7  1  0
  5  6  1  6
  7  8  2  0
  9 10  1  0
  9  7  1  0
 10 16  1  0
 10 11  1  1
 12 11  1  0
 12 13  1  0
 14 15  1  0
 14 13  1  0
 16 17  2  0
 18 19  1  0
 19 21  1  0
 20 19  2  0
 21 22  1  0
 23 24  1  0
 23 22  1  0
 25 24  1  1
 25 27  1  0
 26 16  1  0
 26 25  1  0
 27 29  2  0
 27 28  1  0
M  END
$$$$
