LKR.pdb
     RDKit          3D

 29 28  0  0  1  0  0  0  0  0999 V2000
    7.5317  -12.0184   20.3961 C   0  0  0  0  0  0  0  0  0  0  0  0
    7.3716  -13.3350   19.6969 C   0  0  1  0  0  0  0  0  0  0  0  0
    7.5148  -13.2061   18.2027 C   0  0  0  0  0  0  0  0  0  0  0  0
    8.2510  -14.4225   20.2619 C   0  0  0  0  0  0  0  0  0  0  0  0
    8.0323  -15.7494   19.6117 C   0  0  2  0  0  0  0  0  0  0  0  0
    6.6971  -16.2220   19.8321 N   0  0  0  0  0  0  0  0  0  0  0  0
    9.0641  -16.7054   20.0900 C   0  0  0  0  0  0  0  0  0  0  0  0
    8.8266  -17.3112   21.1656 O   0  0  0  0  0  0  0  0  0  0  0  0
   10.2798  -16.9564   19.3965 N   0  0  0  0  0  0  0  0  0  0  0  0
   11.2967  -17.8642   19.8666 C   0  0  1  0  0  0  0  0  0  0  0  0
   12.2093  -18.3498   18.7714 C   0  0  0  0  0  0  0  0  0  0  0  0
   13.2127  -19.3670   19.2680 C   0  0  0  0  0  0  0  0  0  0  0  0
   14.1243  -19.7356   18.1129 C   0  0  0  0  0  0  0  0  0  0  0  0
   15.1553  -20.7539   18.5548 C   0  0  0  0  0  0  0  0  0  0  0  0
   16.0692  -21.0350   17.4829 N   0  0  0  0  0  0  0  0  0  0  0  0
   12.0910  -17.2165   20.9443 C   0  0  0  0  0  0  0  0  0  0  0  0
   12.6290  -16.0866   20.7880 O   0  0  0  0  0  0  0  0  0  0  0  0
    7.1692  -15.2792   24.0163 N   0  0  0  0  0  0  0  0  0  0  0  0
    7.7256  -16.3599   24.7433 C   0  0  0  0  0  0  0  0  0  0  0  0
    7.3445  -17.5855   24.4901 N   0  0  0  0  0  0  0  0  0  0  0  0
    8.6949  -16.0967   25.7428 N   0  0  0  0  0  0  0  0  0  0  0  0
    9.8868  -16.9599   25.8087 C   0  0  0  0  0  0  0  0  0  0  0  0
   10.6956  -16.6859   24.6071 C   0  0  0  0  0  0  0  0  0  0  0  0
   11.9764  -17.3361   24.4384 C   0  0  0  0  0  0  0  0  0  0  0  0
   12.8780  -17.1365   23.3030 C   0  0  2  0  0  0  0  0  0  0  0  0
   12.2365  -17.8983   22.1676 N   0  0  0  0  0  0  0  0  0  0  0  0
   14.2297  -17.6821   23.3608 C   0  0  0  0  0  0  0  0  0  0  0  0
   14.6455  -18.9210   22.9329 O   0  0  0  0  0  0  0  0  0  0  0  0
   15.1804  -16.9718   23.8688 O   0  0  0  0  0  0  0  0  0  0  0  0
  2  1  1  1
  2  4  1  0
  2  3  1  0
  5  4  1  0
  5  7  1  0
  5  6  1  1
  7  8  2  0
  9 10  1  0
  9  7  1  0
 10 16  1  0
 10 11  1  6
 12 11  1  0
 12 13  1  0
 14 15  1  0
 14 13  1  0
 16 17  2  0
 18 19  1  0
 19 21  1  0
 20 19  2  0
 21 22  1  0
 23 24  1  0
 23 22  1  0
 25 24  1  1
 25 27  1  0
 26 16  1  0
 26 25  1  0
 27 29  2  0
 27 28  1  0
M  END
$$$$
