LKR.pdb
     RDKit          3D

 29 28  0  0  1  0  0  0  0  0999 V2000
    6.1418  -12.3784   27.3302 C   0  0  0  0  0  0  0  0  0  0  0  0
    6.4234  -12.6170   25.8771 C   0  0  1  0  0  0  0  0  0  0  0  0
    7.3274  -11.5629   25.2928 C   0  0  0  0  0  0  0  0  0  0  0  0
    6.9133  -14.0134   25.5848 C   0  0  0  0  0  0  0  0  0  0  0  0
    7.9241  -14.0614   24.4861 C   0  0  2  0  0  0  0  0  0  0  0  0
    7.3579  -13.6342   23.2404 N   0  0  0  0  0  0  0  0  0  0  0  0
    8.5035  -15.4275   24.4127 C   0  0  0  0  0  0  0  0  0  0  0  0
    8.4405  -16.1313   25.4524 O   0  0  0  0  0  0  0  0  0  0  0  0
    9.1118  -15.9577   23.2419 N   0  0  0  0  0  0  0  0  0  0  0  0
    9.6487  -17.2929   23.1534 C   0  0  1  0  0  0  0  0  0  0  0  0
    9.8789  -17.7461   21.7358 C   0  0  0  0  0  0  0  0  0  0  0  0
   10.2550  -19.2090   21.6537 C   0  0  0  0  0  0  0  0  0  0  0  0
   10.4407  -19.5686   20.1917 C   0  0  0  0  0  0  0  0  0  0  0  0
   10.7049  -21.0527   20.0399 C   0  0  0  0  0  0  0  0  0  0  0  0
   11.0094  -21.3672   18.6718 N   0  0  0  0  0  0  0  0  0  0  0  0
   10.9145  -17.3794   23.9297 C   0  0  0  0  0  0  0  0  0  0  0  0
   11.7488  -16.4339   23.9507 O   0  0  0  0  0  0  0  0  0  0  0  0
   13.1294  -20.2600   32.4746 N   0  0  0  0  0  0  0  0  0  0  0  0
   12.7817  -20.8528   31.2362 C   0  0  0  0  0  0  0  0  0  0  0  0
   12.1854  -22.0168   31.2111 N   0  0  0  0  0  0  0  0  0  0  0  0
   13.0873  -20.1715   30.0319 N   0  0  0  0  0  0  0  0  0  0  0  0
   12.5361  -20.6956   28.7702 C   0  0  0  0  0  0  0  0  0  0  0  0
   13.0043  -19.8139   27.6856 C   0  0  0  0  0  0  0  0  0  0  0  0
   12.0724  -19.3529   26.6804 C   0  0  0  0  0  0  0  0  0  0  0  0
   12.4333  -18.5863   25.4871 C   0  0  2  0  0  0  0  0  0  0  0  0
   11.1726  -18.5577   24.6559 N   0  0  0  0  0  0  0  0  0  0  0  0
   13.4351  -19.1210   24.5714 C   0  0  0  0  0  0  0  0  0  0  0  0
   14.7887  -18.8792   24.5862 O   0  0  0  0  0  0  0  0  0  0  0  0
   13.0671  -19.9062   23.6151 O   0  0  0  0  0  0  0  0  0  0  0  0
  2  1  1  1
  2  4  1  0
  2  3  1  0
  5  4  1  0
  5  7  1  0
  5  6  1  6
  7  8  2  0
  9 10  1  0
  9  7  1  0
 10 16  1  0
 10 11  1  6
 12 11  1  0
 12 13  1  0
 14 15  1  0
 14 13  1  0
 16 17  2  0
 18 19  1  0
 19 21  1  0
 20 19  2  0
 21 22  1  0
 23 24  1  0
 23 22  1  0
 25 24  1  1
 25 27  1  0
 26 16  1  0
 26 25  1  0
 27 29  2  0
 27 28  1  0
M  END
$$$$
