LKR.pdb
     RDKit          3D

 29 28  0  0  1  0  0  0  0  0999 V2000
    7.6489  -12.9524   18.1181 C   0  0  0  0  0  0  0  0  0  0  0  0
    8.2523  -12.7306   19.4725 C   0  0  1  0  0  0  0  0  0  0  0  0
    7.5262  -11.6641   20.2505 C   0  0  0  0  0  0  0  0  0  0  0  0
    8.4198  -14.0014   20.2676 C   0  0  0  0  0  0  0  0  0  0  0  0
    9.5150  -14.8757   19.7506 C   0  0  2  0  0  0  0  0  0  0  0  0
    9.3812  -15.0969   18.3407 N   0  0  0  0  0  0  0  0  0  0  0  0
    9.5403  -16.1412   20.5286 C   0  0  0  0  0  0  0  0  0  0  0  0
    9.1990  -16.0759   21.7367 O   0  0  0  0  0  0  0  0  0  0  0  0
    9.9259  -17.3927   19.9747 N   0  0  0  0  0  0  0  0  0  0  0  0
    9.9389  -18.6276   20.7190 C   0  0  1  0  0  0  0  0  0  0  0  0
   10.3753  -19.8108   19.8959 C   0  0  0  0  0  0  0  0  0  0  0  0
   10.4064  -21.0911   20.7009 C   0  0  0  0  0  0  0  0  0  0  0  0
   10.8647  -22.2130   19.7885 C   0  0  0  0  0  0  0  0  0  0  0  0
   12.1598  -21.8388   19.0970 C   0  0  0  0  0  0  0  0  0  0  0  0
   12.6588  -22.9515   18.3379 N   0  0  0  0  0  0  0  0  0  0  0  0
   10.8127  -18.4861   21.9142 C   0  0  0  0  0  0  0  0  0  0  0  0
   12.0372  -18.2012   21.8142 O   0  0  0  0  0  0  0  0  0  0  0  0
    9.1550  -13.5713   28.5660 N   0  0  0  0  0  0  0  0  0  0  0  0
   10.1048  -14.4505   29.1414 C   0  0  0  0  0  0  0  0  0  0  0  0
   10.5031  -14.2694   30.3742 N   0  0  0  0  0  0  0  0  0  0  0  0
   10.6145  -15.5224   28.3675 N   0  0  0  0  0  0  0  0  0  0  0  0
   10.1415  -15.6732   26.9805 C   0  0  0  0  0  0  0  0  0  0  0  0
   10.8405  -16.8345   26.4009 C   0  0  0  0  0  0  0  0  0  0  0  0
   10.4837  -17.3034   25.0802 C   0  0  0  0  0  0  0  0  0  0  0  0
   11.1255  -18.4177   24.3814 C   0  0  2  0  0  0  0  0  0  0  0  0
   10.2401  -18.6792   23.1860 N   0  0  0  0  0  0  0  0  0  0  0  0
   11.2085  -19.7182   25.0369 C   0  0  0  0  0  0  0  0  0  0  0  0
   12.1405  -20.1248   25.9626 O   0  0  0  0  0  0  0  0  0  0  0  0
   10.3435  -20.6318   24.7481 O   0  0  0  0  0  0  0  0  0  0  0  0
  2  1  1  6
  2  4  1  0
  2  3  1  0
  5  4  1  0
  5  7  1  0
  5  6  1  6
  7  8  2  0
  9 10  1  0
  9  7  1  0
 10 16  1  0
 10 11  1  6
 12 11  1  0
 12 13  1  0
 14 15  1  0
 14 13  1  0
 16 17  2  0
 18 19  1  0
 19 21  1  0
 20 19  2  0
 21 22  1  0
 23 24  1  0
 23 22  1  0
 25 24  1  1
 25 27  1  0
 26 16  1  0
 26 25  1  0
 27 29  2  0
 27 28  1  0
M  END
$$$$
