NTT.pdb
     RDKit          3D

 23 22  0  0  1  0  0  0  0  0999 V2000
   19.8886  -14.1549  -16.5101 N   0  0  0  0  0  0  0  0  0  0  0  0
   20.5888  -13.2536  -17.3575 C   0  0  0  0  0  0  0  0  0  0  0  0
   21.5266  -13.7423  -18.0529 O   0  0  0  0  0  0  0  0  0  0  0  0
   20.2317  -11.8123  -17.4181 C   0  0  0  0  0  0  0  0  0  0  0  0
   19.1380  -11.5525  -16.4310 C   0  0  2  0  0  0  0  0  0  0  0  0
   17.8989  -12.0780  -17.0037 N   0  0  0  0  0  0  0  0  0  0  0  0
   19.0028  -10.1292  -16.0715 C   0  0  0  0  0  0  0  0  0  0  0  0
   18.3430   -9.3872  -16.8201 O   0  0  0  0  0  0  0  0  0  0  0  0
   17.0614   -8.4630  -13.7218 C   0  0  0  0  0  0  0  0  0  0  0  0
   18.4475   -8.0085  -13.3792 C   0  0  1  0  0  0  0  0  0  0  0  0
   18.8744   -8.7095  -12.2512 O   0  0  0  0  0  0  0  0  0  0  0  0
   19.4304   -8.2025  -14.5079 C   0  0  2  0  0  0  0  0  0  0  0  0
   19.5967   -9.5573  -14.8975 N   0  0  0  0  0  0  0  0  0  0  0  0
   20.7165   -7.5412  -14.1203 C   0  0  0  0  0  0  0  0  0  0  0  0
   21.7983   -8.1405  -14.0448 O   0  0  0  0  0  0  0  0  0  0  0  0
   23.0938   -6.8268  -15.4913 C   0  0  0  0  0  0  0  0  0  0  0  0
   22.6985   -5.4314  -15.0675 C   0  0  1  0  0  0  0  0  0  0  0  0
   21.8270   -4.9392  -16.0387 O   0  0  0  0  0  0  0  0  0  0  0  0
   21.9609   -5.4253  -13.7544 C   0  0  2  0  0  0  0  0  0  0  0  0
   20.7089   -6.1510  -13.8203 N   0  0  0  0  0  0  0  0  0  0  0  0
   21.6926   -4.0133  -13.3828 C   0  0  0  0  0  0  0  0  0  0  0  0
   22.6987   -3.2073  -12.8718 O   0  0  0  0  0  0  0  0  0  0  0  0
   20.5545   -3.4984  -13.5154 O   0  0  0  0  0  0  0  0  0  0  0  0
  2  4  1  0
  2  1  1  0
  3  2  2  0
  5  4  1  0
  5  6  1  6
  7  5  1  0
  7  8  2  0
 10  9  1  6
 10 12  1  0
 11 10  1  0
 12 13  1  1
 12 14  1  0
 13  7  1  0
 14 20  1  0
 14 15  2  0
 17 16  1  6
 18 17  1  0
 19 17  1  0
 19 20  1  6
 21 22  1  0
 21 19  1  0
 23 21  2  0
M  END
$$$$
