NTT.pdb
     RDKit          3D

 23 22  0  0  1  0  0  0  0  0999 V2000
   20.0612  -15.4697  -17.8389 N   0  0  0  0  0  0  0  0  0  0  0  0
   19.2101  -14.5801  -17.1284 C   0  0  0  0  0  0  0  0  0  0  0  0
   18.5590  -15.0710  -16.1604 O   0  0  0  0  0  0  0  0  0  0  0  0
   19.0964  -13.1482  -17.5089 C   0  0  0  0  0  0  0  0  0  0  0  0
   19.9880  -12.3470  -16.6139 C   0  0  2  0  0  0  0  0  0  0  0  0
   19.6457  -12.6918  -15.2342 N   0  0  0  0  0  0  0  0  0  0  0  0
   19.8925  -10.8941  -16.8444 C   0  0  0  0  0  0  0  0  0  0  0  0
   20.2171  -10.4465  -17.9583 O   0  0  0  0  0  0  0  0  0  0  0  0
   16.9861   -8.5970  -16.9298 C   0  0  0  0  0  0  0  0  0  0  0  0
   17.9325   -8.0354  -15.9128 C   0  0  1  0  0  0  0  0  0  0  0  0
   17.4371   -8.3276  -14.6418 O   0  0  0  0  0  0  0  0  0  0  0  0
   19.3372   -8.5692  -16.0526 C   0  0  2  0  0  0  0  0  0  0  0  0
   19.4423   -9.9695  -15.8441 N   0  0  0  0  0  0  0  0  0  0  0  0
   20.2268   -7.7730  -15.1492 C   0  0  0  0  0  0  0  0  0  0  0  0
   21.1124   -8.2763  -14.4439 O   0  0  0  0  0  0  0  0  0  0  0  0
   23.4169   -4.6227  -15.2570 C   0  0  0  0  0  0  0  0  0  0  0  0
   22.3624   -5.6620  -15.5587 C   0  0  1  0  0  0  0  0  0  0  0  0
   22.9316   -6.9096  -15.3049 O   0  0  0  0  0  0  0  0  0  0  0  0
   21.1587   -5.5245  -14.6641 C   0  0  2  0  0  0  0  0  0  0  0  0
   20.0559   -6.3624  -15.0887 N   0  0  0  0  0  0  0  0  0  0  0  0
   20.7317   -4.1028  -14.6808 C   0  0  0  0  0  0  0  0  0  0  0  0
   20.9636   -3.2762  -13.5918 O   0  0  0  0  0  0  0  0  0  0  0  0
   20.1492   -3.5979  -15.6726 O   0  0  0  0  0  0  0  0  0  0  0  0
  2  4  1  0
  2  1  1  0
  3  2  2  0
  5  4  1  0
  5  6  1  1
  7  5  1  0
  7  8  2  0
 10  9  1  6
 10 12  1  0
 11 10  1  0
 12 13  1  1
 12 14  1  0
 13  7  1  0
 14 20  1  0
 14 15  2  0
 17 16  1  1
 18 17  1  0
 19 17  1  0
 19 20  1  6
 21 22  1  0
 21 19  1  0
 23 21  2  0
M  END
$$$$
