NTT.pdb
     RDKit          3D

 23 22  0  0  1  0  0  0  0  0999 V2000
   22.7011   -5.6292  -13.0803 N   0  0  0  0  0  0  0  0  0  0  0  0
   21.7837   -4.9644  -13.9387 C   0  0  0  0  0  0  0  0  0  0  0  0
   21.4823   -3.7738  -13.6328 O   0  0  0  0  0  0  0  0  0  0  0  0
   21.2120   -5.6398  -15.1326 C   0  0  0  0  0  0  0  0  0  0  0  0
   21.7950   -7.0145  -15.2248 C   0  0  2  0  0  0  0  0  0  0  0  0
   23.1257   -6.8856  -15.8181 N   0  0  0  0  0  0  0  0  0  0  0  0
   20.9546   -7.9545  -15.9885 C   0  0  0  0  0  0  0  0  0  0  0  0
   21.2832   -8.2323  -17.1553 O   0  0  0  0  0  0  0  0  0  0  0  0
   21.1857  -10.5854  -17.0277 C   0  0  0  0  0  0  0  0  0  0  0  0
   19.8980  -10.8603  -16.3126 C   0  0  1  0  0  0  0  0  0  0  0  0
   20.1937  -11.4623  -15.0893 O   0  0  0  0  0  0  0  0  0  0  0  0
   19.0685   -9.6196  -16.0880 C   0  0  2  0  0  0  0  0  0  0  0  0
   19.7737   -8.5656  -15.4501 N   0  0  0  0  0  0  0  0  0  0  0  0
   17.8250  -10.0205  -15.3571 C   0  0  0  0  0  0  0  0  0  0  0  0
   17.7612  -10.1305  -14.1246 O   0  0  0  0  0  0  0  0  0  0  0  0
   14.2121   -8.4473  -16.3535 C   0  0  0  0  0  0  0  0  0  0  0  0
   14.2179   -9.9536  -16.2342 C   0  0  1  0  0  0  0  0  0  0  0  0
   14.3591  -10.4666  -17.5233 O   0  0  0  0  0  0  0  0  0  0  0  0
   15.3820  -10.4533  -15.4196 C   0  0  2  0  0  0  0  0  0  0  0  0
   16.6471  -10.2921  -16.1066 N   0  0  0  0  0  0  0  0  0  0  0  0
   15.1586  -11.8922  -15.1305 C   0  0  0  0  0  0  0  0  0  0  0  0
   15.9448  -12.8686  -15.7233 O   0  0  0  0  0  0  0  0  0  0  0  0
   14.2572  -12.2777  -14.3451 O   0  0  0  0  0  0  0  0  0  0  0  0
  2  4  1  0
  2  1  1  0
  3  2  2  0
  5  4  1  0
  5  6  1  6
  7  5  1  0
  7  8  2  0
 10  9  1  1
 10 12  1  0
 11 10  1  0
 12 13  1  1
 12 14  1  0
 13  7  1  0
 14 20  1  0
 14 15  2  0
 17 16  1  6
 18 17  1  0
 19 17  1  0
 19 20  1  6
 21 22  1  0
 21 19  1  0
 23 21  2  0
M  END
$$$$
