NTT.pdb
     RDKit          3D

 23 22  0  0  1  0  0  0  0  0999 V2000
   17.1293  -12.5764  -18.4671 N   0  0  0  0  0  0  0  0  0  0  0  0
   16.6511  -12.0361  -17.2423 C   0  0  0  0  0  0  0  0  0  0  0  0
   15.3950  -11.9979  -17.0921 O   0  0  0  0  0  0  0  0  0  0  0  0
   17.5850  -11.5434  -16.1966 C   0  0  0  0  0  0  0  0  0  0  0  0
   18.9850  -11.6911  -16.7029 C   0  0  2  0  0  0  0  0  0  0  0  0
   19.3130  -13.1162  -16.6705 N   0  0  0  0  0  0  0  0  0  0  0  0
   19.9668  -10.8961  -15.9433 C   0  0  0  0  0  0  0  0  0  0  0  0
   20.2860  -11.2773  -14.8034 O   0  0  0  0  0  0  0  0  0  0  0  0
   23.5028  -10.3859  -16.1958 C   0  0  0  0  0  0  0  0  0  0  0  0
   22.9212   -9.0076  -16.2814 C   0  0  1  0  0  0  0  0  0  0  0  0
   22.9380   -8.6050  -17.6170 O   0  0  0  0  0  0  0  0  0  0  0  0
   21.5166   -8.9224  -15.7360 C   0  0  2  0  0  0  0  0  0  0  0  0
   20.5733   -9.7014  -16.4560 N   0  0  0  0  0  0  0  0  0  0  0  0
   21.1403   -7.4759  -15.6508 C   0  0  0  0  0  0  0  0  0  0  0  0
   20.5796   -6.8597  -16.5680 O   0  0  0  0  0  0  0  0  0  0  0  0
   18.5947   -5.8354  -14.3445 C   0  0  0  0  0  0  0  0  0  0  0  0
   19.7485   -5.1887  -13.6141 C   0  0  1  0  0  0  0  0  0  0  0  0
   19.8671   -5.8325  -12.3828 O   0  0  0  0  0  0  0  0  0  0  0  0
   21.0535   -5.3675  -14.3445 C   0  0  2  0  0  0  0  0  0  0  0  0
   21.4369   -6.7598  -14.4584 N   0  0  0  0  0  0  0  0  0  0  0  0
   22.1034   -4.6269  -13.6007 C   0  0  0  0  0  0  0  0  0  0  0  0
   22.0915   -3.2416  -13.5407 O   0  0  0  0  0  0  0  0  0  0  0  0
   23.0347   -5.2207  -13.0024 O   0  0  0  0  0  0  0  0  0  0  0  0
  2  4  1  0
  2  1  1  0
  3  2  2  0
  5  4  1  0
  5  6  1  1
  7  5  1  0
  7  8  2  0
 10  9  1  6
 10 12  1  0
 11 10  1  0
 12 13  1  6
 12 14  1  0
 13  7  1  0
 14 20  1  0
 14 15  2  0
 17 16  1  6
 18 17  1  0
 19 17  1  0
 19 20  1  1
 21 22  1  0
 21 19  1  0
 23 21  2  0
M  END
$$$$
