NTT.pdb
     RDKit          3D

 23 22  0  0  1  0  0  0  0  0999 V2000
   42.7954  -21.0254   -9.8578 N   0  0  0  0  0  0  0  0  0  0  0  0
   43.0338  -19.7236  -10.3766 C   0  0  0  0  0  0  0  0  0  0  0  0
   43.4491  -19.6568  -11.5704 O   0  0  0  0  0  0  0  0  0  0  0  0
   42.8047  -18.5081   -9.5530 C   0  0  0  0  0  0  0  0  0  0  0  0
   43.7382  -17.4360  -10.0192 C   0  0  2  0  0  0  0  0  0  0  0  0
   45.1015  -17.9245   -9.8141 N   0  0  0  0  0  0  0  0  0  0  0  0
   43.5235  -16.1424   -9.3458 C   0  0  0  0  0  0  0  0  0  0  0  0
   42.3563  -15.7691   -9.1340 O   0  0  0  0  0  0  0  0  0  0  0  0
   45.2373  -12.3268   -6.6744 C   0  0  0  0  0  0  0  0  0  0  0  0
   45.5474  -13.5675   -7.4553 C   0  0  1  0  0  0  0  0  0  0  0  0
   45.8727  -14.5836   -6.5564 O   0  0  0  0  0  0  0  0  0  0  0  0
   44.4085  -14.0098   -8.3414 C   0  0  2  0  0  0  0  0  0  0  0  0
   44.5978  -15.2912   -8.9222 N   0  0  0  0  0  0  0  0  0  0  0  0
   44.1674  -12.9355   -9.3558 C   0  0  0  0  0  0  0  0  0  0  0  0
   44.7650  -12.8709  -10.4392 O   0  0  0  0  0  0  0  0  0  0  0  0
   41.6933   -9.4233   -8.4562 C   0  0  0  0  0  0  0  0  0  0  0  0
   41.6500  -10.1609   -9.7742 C   0  0  1  0  0  0  0  0  0  0  0  0
   41.4922   -9.2030  -10.7754 O   0  0  0  0  0  0  0  0  0  0  0  0
   42.9332  -10.8984  -10.0534 C   0  0  2  0  0  0  0  0  0  0  0  0
   43.2028  -11.9295   -9.0722 N   0  0  0  0  0  0  0  0  0  0  0  0
   44.0425   -9.9119  -10.0484 C   0  0  0  0  0  0  0  0  0  0  0  0
   44.4019   -9.2377  -11.2057 O   0  0  0  0  0  0  0  0  0  0  0  0
   44.6928   -9.6518   -9.0056 O   0  0  0  0  0  0  0  0  0  0  0  0
  2  4  1  0
  2  1  1  0
  3  2  2  0
  5  4  1  0
  5  6  1  1
  7  5  1  0
  7  8  2  0
 10  9  1  1
 10 12  1  0
 11 10  1  0
 12 13  1  6
 12 14  1  0
 13  7  1  0
 14 20  1  0
 14 15  2  0
 17 16  1  1
 18 17  1  0
 19 17  1  0
 19 20  1  1
 21 22  1  0
 21 19  1  0
 23 21  2  0
M  END
$$$$
