NTT.pdb
     RDKit          3D

 23 22  0  0  1  0  0  0  0  0999 V2000
   29.5156  -27.6652  -17.0870 N   0  0  0  0  0  0  0  0  0  0  0  0
   28.1928  -27.1954  -16.8630 C   0  0  0  0  0  0  0  0  0  0  0  0
   27.3160  -28.0717  -16.6075 O   0  0  0  0  0  0  0  0  0  0  0  0
   27.8643  -25.7476  -16.9273 C   0  0  0  0  0  0  0  0  0  0  0  0
   29.1118  -24.9922  -17.2606 C   0  0  2  0  0  0  0  0  0  0  0  0
   30.1211  -25.3553  -16.2662 N   0  0  0  0  0  0  0  0  0  0  0  0
   28.9126  -23.5326  -17.3163 C   0  0  0  0  0  0  0  0  0  0  0  0
   29.9078  -22.7929  -17.2213 O   0  0  0  0  0  0  0  0  0  0  0  0
   27.9497  -21.5625  -20.1439 C   0  0  0  0  0  0  0  0  0  0  0  0
   28.2675  -20.9643  -18.8074 C   0  0  1  0  0  0  0  0  0  0  0  0
   28.0806  -19.5841  -18.8873 O   0  0  0  0  0  0  0  0  0  0  0  0
   27.4285  -21.5330  -17.6892 C   0  0  2  0  0  0  0  0  0  0  0  0
   27.6239  -22.9227  -17.4750 N   0  0  0  0  0  0  0  0  0  0  0  0
   25.9992  -21.1756  -17.9554 C   0  0  0  0  0  0  0  0  0  0  0  0
   25.2410  -21.8623  -18.6544 O   0  0  0  0  0  0  0  0  0  0  0  0
   24.1103  -18.5315  -15.1307 C   0  0  0  0  0  0  0  0  0  0  0  0
   23.5672  -19.7449  -15.8488 C   0  0  1  0  0  0  0  0  0  0  0  0
   22.1783  -19.6208  -15.8711 O   0  0  0  0  0  0  0  0  0  0  0  0
   24.0370  -19.8152  -17.2780 C   0  0  2  0  0  0  0  0  0  0  0  0
   25.4718  -19.9864  -17.3803 N   0  0  0  0  0  0  0  0  0  0  0  0
   23.6420  -18.5549  -17.9558 C   0  0  0  0  0  0  0  0  0  0  0  0
   22.3095  -18.2738  -18.2175 O   0  0  0  0  0  0  0  0  0  0  0  0
   24.4913  -17.7020  -18.3153 O   0  0  0  0  0  0  0  0  0  0  0  0
  2  4  1  0
  2  1  1  0
  3  2  2  0
  5  4  1  0
  5  6  1  1
  7  5  1  0
  7  8  2  0
 10  9  1  6
 10 12  1  0
 11 10  1  0
 12 13  1  6
 12 14  1  0
 13  7  1  0
 14 20  1  0
 14 15  2  0
 17 16  1  6
 18 17  1  0
 19 17  1  0
 19 20  1  1
 21 22  1  0
 21 19  1  0
 23 21  2  0
M  END
$$$$
