NTT.pdb
     RDKit          3D

 23 22  0  0  1  0  0  0  0  0999 V2000
   13.9865  -13.4869  -16.1761 N   0  0  0  0  0  0  0  0  0  0  0  0
   15.3567  -13.1184  -16.0916 C   0  0  0  0  0  0  0  0  0  0  0  0
   16.1605  -14.0123  -15.6957 O   0  0  0  0  0  0  0  0  0  0  0  0
   15.8141  -11.7510  -16.4515 C   0  0  0  0  0  0  0  0  0  0  0  0
   16.7313  -11.2592  -15.3768 C   0  0  2  0  0  0  0  0  0  0  0  0
   15.9436  -11.1430  -14.1498 N   0  0  0  0  0  0  0  0  0  0  0  0
   17.3938   -9.9859  -15.7130 C   0  0  0  0  0  0  0  0  0  0  0  0
   17.9590   -9.8832  -16.8160 O   0  0  0  0  0  0  0  0  0  0  0  0
   16.0556   -6.5916  -16.3302 C   0  0  0  0  0  0  0  0  0  0  0  0
   17.0472   -6.4619  -15.2144 C   0  0  1  0  0  0  0  0  0  0  0  0
   16.3466   -6.3645  -14.0120 O   0  0  0  0  0  0  0  0  0  0  0  0
   18.0210   -7.6131  -15.1505 C   0  0  2  0  0  0  0  0  0  0  0  0
   17.4183   -8.8572  -14.8279 N   0  0  0  0  0  0  0  0  0  0  0  0
   19.1242   -7.2345  -14.2119 C   0  0  0  0  0  0  0  0  0  0  0  0
   19.1145   -7.5009  -13.0019 O   0  0  0  0  0  0  0  0  0  0  0  0
   22.4460   -8.4882  -14.0049 C   0  0  0  0  0  0  0  0  0  0  0  0
   22.6075   -7.0025  -14.2279 C   0  0  1  0  0  0  0  0  0  0  0  0
   22.8193   -6.8133  -15.5932 O   0  0  0  0  0  0  0  0  0  0  0  0
   21.3672   -6.2349  -13.8528 C   0  0  2  0  0  0  0  0  0  0  0  0
   20.2490   -6.5312  -14.7247 N   0  0  0  0  0  0  0  0  0  0  0  0
   21.6810   -4.7858  -13.9295 C   0  0  0  0  0  0  0  0  0  0  0  0
   22.5617   -4.1989  -13.0336 O   0  0  0  0  0  0  0  0  0  0  0  0
   21.1657   -4.0420  -14.8008 O   0  0  0  0  0  0  0  0  0  0  0  0
  2  4  1  0
  2  1  1  0
  3  2  2  0
  5  4  1  0
  5  6  1  1
  7  5  1  0
  7  8  2  0
 10  9  1  6
 10 12  1  0
 11 10  1  0
 12 13  1  1
 12 14  1  0
 13  7  1  0
 14 20  1  0
 14 15  2  0
 17 16  1  6
 18 17  1  0
 19 17  1  0
 19 20  1  6
 21 22  1  0
 21 19  1  0
 23 21  2  0
M  END
$$$$
