NTT.pdb
     RDKit          3D

 23 22  0  0  1  0  0  0  0  0999 V2000
   20.8486  -12.8149  -19.7017 N   0  0  0  0  0  0  0  0  0  0  0  0
   20.0785  -13.2310  -18.5817 C   0  0  0  0  0  0  0  0  0  0  0  0
   19.6305  -14.4144  -18.6103 O   0  0  0  0  0  0  0  0  0  0  0  0
   19.8172  -12.3171  -17.4394 C   0  0  0  0  0  0  0  0  0  0  0  0
   20.4971  -11.0124  -17.7104 C   0  0  2  0  0  0  0  0  0  0  0  0
   21.9378  -11.2391  -17.5989 N   0  0  0  0  0  0  0  0  0  0  0  0
   20.0530   -9.9268  -16.8173 C   0  0  0  0  0  0  0  0  0  0  0  0
   18.8478   -9.6204  -16.8080 O   0  0  0  0  0  0  0  0  0  0  0  0
   22.0625   -8.9283  -13.1908 C   0  0  0  0  0  0  0  0  0  0  0  0
   20.6521   -8.6190  -13.5914 C   0  0  1  0  0  0  0  0  0  0  0  0
   20.1725   -7.6029  -12.7644 O   0  0  0  0  0  0  0  0  0  0  0  0
   20.5236   -8.2085  -15.0380 C   0  0  2  0  0  0  0  0  0  0  0  0
   20.9455   -9.2050  -15.9568 N   0  0  0  0  0  0  0  0  0  0  0  0
   21.2403   -6.9061  -15.2148 C   0  0  0  0  0  0  0  0  0  0  0  0
   22.4083   -6.8172  -15.6185 O   0  0  0  0  0  0  0  0  0  0  0  0
   20.9119   -1.9980  -15.6666 C   0  0  0  0  0  0  0  0  0  0  0  0
   20.2231   -3.3144  -15.3917 C   0  0  1  0  0  0  0  0  0  0  0  0
   19.5052   -3.6493  -16.5395 O   0  0  0  0  0  0  0  0  0  0  0  0
   21.2063   -4.4258  -15.1340 C   0  0  2  0  0  0  0  0  0  0  0  0
   20.5541   -5.6991  -14.9063 N   0  0  0  0  0  0  0  0  0  0  0  0
   22.0093   -4.0632  -13.9391 C   0  0  0  0  0  0  0  0  0  0  0  0
   23.2616   -3.4825  -14.0715 O   0  0  0  0  0  0  0  0  0  0  0  0
   21.5896   -4.2663  -12.7727 O   0  0  0  0  0  0  0  0  0  0  0  0
  2  4  1  0
  2  1  1  0
  3  2  2  0
  5  4  1  0
  5  6  1  1
  7  5  1  0
  7  8  2  0
 10  9  1  1
 10 12  1  0
 11 10  1  0
 12 13  1  6
 12 14  1  0
 13  7  1  0
 14 20  1  0
 14 15  2  0
 17 16  1  6
 18 17  1  0
 19 17  1  0
 19 20  1  1
 21 22  1  0
 21 19  1  0
 23 21  2  0
M  END
$$$$
