NTT.pdb
     RDKit          3D

 23 22  0  0  1  0  0  0  0  0999 V2000
   15.3114  -13.4433  -14.8895 N   0  0  0  0  0  0  0  0  0  0  0  0
   16.4879  -13.0750  -14.1817 C   0  0  0  0  0  0  0  0  0  0  0  0
   16.6205  -13.5512  -13.0166 O   0  0  0  0  0  0  0  0  0  0  0  0
   17.5053  -12.1762  -14.7861 C   0  0  0  0  0  0  0  0  0  0  0  0
   16.9911  -11.6974  -16.1068 C   0  0  2  0  0  0  0  0  0  0  0  0
   17.2561  -12.7507  -17.0865 N   0  0  0  0  0  0  0  0  0  0  0  0
   17.5752  -10.4114  -16.5287 C   0  0  0  0  0  0  0  0  0  0  0  0
   18.5221  -10.4247  -17.3348 O   0  0  0  0  0  0  0  0  0  0  0  0
   17.1846   -5.5583  -17.2542 C   0  0  0  0  0  0  0  0  0  0  0  0
   16.5996   -6.8481  -16.7652 C   0  0  1  0  0  0  0  0  0  0  0  0
   15.7144   -7.3246  -17.7325 O   0  0  0  0  0  0  0  0  0  0  0  0
   17.6436   -7.8952  -16.4629 C   0  0  2  0  0  0  0  0  0  0  0  0
   17.1036   -9.1426  -16.0536 N   0  0  0  0  0  0  0  0  0  0  0  0
   18.6044   -7.3177  -15.4706 C   0  0  0  0  0  0  0  0  0  0  0  0
   18.4214   -7.3447  -14.2455 O   0  0  0  0  0  0  0  0  0  0  0  0
   23.1740   -5.7396  -14.5135 C   0  0  0  0  0  0  0  0  0  0  0  0
   22.1779   -6.3367  -15.4801 C   0  0  1  0  0  0  0  0  0  0  0  0
   22.4445   -7.7037  -15.5517 O   0  0  0  0  0  0  0  0  0  0  0  0
   20.7587   -6.1780  -15.0018 C   0  0  2  0  0  0  0  0  0  0  0  0
   19.7948   -6.7025  -15.9475 N   0  0  0  0  0  0  0  0  0  0  0  0
   20.5028   -4.7311  -14.7893 C   0  0  0  0  0  0  0  0  0  0  0  0
   20.2528   -3.8867  -15.8605 O   0  0  0  0  0  0  0  0  0  0  0  0
   20.5027   -4.2202  -13.6417 O   0  0  0  0  0  0  0  0  0  0  0  0
  2  4  1  0
  2  1  1  0
  3  2  2  0
  5  4  1  0
  5  6  1  6
  7  5  1  0
  7  8  2  0
 10  9  1  6
 10 12  1  0
 11 10  1  0
 12 13  1  1
 12 14  1  0
 13  7  1  0
 14 20  1  0
 14 15  2  0
 17 16  1  1
 18 17  1  0
 19 17  1  0
 19 20  1  6
 21 22  1  0
 21 19  1  0
 23 21  2  0
M  END
$$$$
