NTT.pdb
     RDKit          3D

 23 22  0  0  1  0  0  0  0  0999 V2000
   15.9911  -12.6297  -16.4309 N   0  0  0  0  0  0  0  0  0  0  0  0
   16.4251  -12.3717  -15.1021 C   0  0  0  0  0  0  0  0  0  0  0  0
   15.5817  -12.5764  -14.1808 O   0  0  0  0  0  0  0  0  0  0  0  0
   17.8006  -11.8866  -14.8176 C   0  0  0  0  0  0  0  0  0  0  0  0
   18.5223  -11.7167  -16.1169 C   0  0  2  0  0  0  0  0  0  0  0  0
   19.0145  -13.0342  -16.5186 N   0  0  0  0  0  0  0  0  0  0  0  0
   19.6163  -10.7309  -16.0519 C   0  0  0  0  0  0  0  0  0  0  0  0
   20.6937  -11.0721  -15.5330 O   0  0  0  0  0  0  0  0  0  0  0  0
   21.3703   -9.0543  -18.8643 C   0  0  0  0  0  0  0  0  0  0  0  0
   20.9303   -7.9583  -17.9422 C   0  0  1  0  0  0  0  0  0  0  0  0
   19.8398   -7.3079  -18.5203 O   0  0  0  0  0  0  0  0  0  0  0  0
   20.5625   -8.4546  -16.5653 C   0  0  2  0  0  0  0  0  0  0  0  0
   19.4984   -9.3942  -16.5593 N   0  0  0  0  0  0  0  0  0  0  0  0
   20.2976   -7.2625  -15.6992 C   0  0  0  0  0  0  0  0  0  0  0  0
   19.1604   -6.8840  -15.3853 O   0  0  0  0  0  0  0  0  0  0  0  0
   20.7903   -6.6152  -12.2584 C   0  0  0  0  0  0  0  0  0  0  0  0
   21.6027   -5.5488  -12.9555 C   0  0  1  0  0  0  0  0  0  0  0  0
   22.9249   -5.9916  -12.9811 O   0  0  0  0  0  0  0  0  0  0  0  0
   21.1667   -5.3464  -14.3828 C   0  0  2  0  0  0  0  0  0  0  0  0
   21.4025   -6.5164  -15.2039 N   0  0  0  0  0  0  0  0  0  0  0  0
   21.9229   -4.1953  -14.9371 C   0  0  0  0  0  0  0  0  0  0  0  0
   21.6751   -2.9029  -14.5000 O   0  0  0  0  0  0  0  0  0  0  0  0
   22.8082   -4.3458  -15.8154 O   0  0  0  0  0  0  0  0  0  0  0  0
  2  4  1  0
  2  1  1  0
  3  2  2  0
  5  4  1  0
  5  6  1  1
  7  5  1  0
  7  8  2  0
 10  9  1  6
 10 12  1  0
 11 10  1  0
 12 13  1  6
 12 14  1  0
 13  7  1  0
 14 20  1  0
 14 15  2  0
 17 16  1  6
 18 17  1  0
 19 17  1  0
 19 20  1  6
 21 22  1  0
 21 19  1  0
 23 21  2  0
M  END
$$$$
