NTT.pdb
     RDKit          3D

 23 22  0  0  1  0  0  0  0  0999 V2000
   28.1087  -16.8541  -14.7738 N   0  0  0  0  0  0  0  0  0  0  0  0
   27.0099  -16.8100  -15.6745 C   0  0  0  0  0  0  0  0  0  0  0  0
   26.6511  -15.6642  -16.0748 O   0  0  0  0  0  0  0  0  0  0  0  0
   26.3229  -18.0506  -16.1188 C   0  0  0  0  0  0  0  0  0  0  0  0
   26.9969  -19.2220  -15.4774 C   0  0  2  0  0  0  0  0  0  0  0  0
   27.9593  -19.7541  -16.4418 N   0  0  0  0  0  0  0  0  0  0  0  0
   26.0547  -20.2628  -15.0278 C   0  0  0  0  0  0  0  0  0  0  0  0
   26.1536  -21.4036  -15.5130 O   0  0  0  0  0  0  0  0  0  0  0  0
   25.6829  -21.7053  -11.7151 C   0  0  0  0  0  0  0  0  0  0  0  0
   24.2894  -21.3139  -12.1028 C   0  0  1  0  0  0  0  0  0  0  0  0
   23.9251  -20.1904  -11.3603 O   0  0  0  0  0  0  0  0  0  0  0  0
   24.1435  -21.0258  -13.5770 C   0  0  2  0  0  0  0  0  0  0  0  0
   25.0272  -20.0234  -14.0559 N   0  0  0  0  0  0  0  0  0  0  0  0
   22.7038  -20.7171  -13.8478 C   0  0  0  0  0  0  0  0  0  0  0  0
   22.2797  -19.5750  -14.0738 O   0  0  0  0  0  0  0  0  0  0  0  0
   18.3553  -22.2397  -15.4566 C   0  0  0  0  0  0  0  0  0  0  0  0
   19.8085  -22.5123  -15.1453 C   0  0  1  0  0  0  0  0  0  0  0  0
   20.5161  -22.3777  -16.3395 O   0  0  0  0  0  0  0  0  0  0  0  0
   20.3759  -21.5151  -14.1696 C   0  0  2  0  0  0  0  0  0  0  0  0
   21.7628  -21.7835  -13.8485 N   0  0  0  0  0  0  0  0  0  0  0  0
   19.5635  -21.5710  -12.9283 C   0  0  0  0  0  0  0  0  0  0  0  0
   20.0492  -22.1890  -11.7859 O   0  0  0  0  0  0  0  0  0  0  0  0
   18.4153  -21.0655  -12.8650 O   0  0  0  0  0  0  0  0  0  0  0  0
  2  4  1  0
  2  1  1  0
  3  2  2  0
  5  4  1  0
  5  6  1  6
  7  5  1  0
  7  8  2  0
 10  9  1  6
 10 12  1  0
 11 10  1  0
 12 13  1  1
 12 14  1  0
 13  7  1  0
 14 20  1  0
 14 15  2  0
 17 16  1  6
 18 17  1  0
 19 17  1  0
 19 20  1  1
 21 22  1  0
 21 19  1  0
 23 21  2  0
M  END
$$$$
