NTT.pdb
     RDKit          3D

 23 22  0  0  1  0  0  0  0  0999 V2000
   14.5870  -11.0330  -17.2601 N   0  0  0  0  0  0  0  0  0  0  0  0
   15.9714  -10.7539  -17.4222 C   0  0  0  0  0  0  0  0  0  0  0  0
   16.4669  -10.9890  -18.5628 O   0  0  0  0  0  0  0  0  0  0  0  0
   16.7882  -10.2137  -16.3045 C   0  0  0  0  0  0  0  0  0  0  0  0
   18.1445  -10.8424  -16.3609 C   0  0  2  0  0  0  0  0  0  0  0  0
   17.9894  -12.2494  -15.9928 N   0  0  0  0  0  0  0  0  0  0  0  0
   19.1360  -10.1683  -15.5030 C   0  0  0  0  0  0  0  0  0  0  0  0
   19.0517  -10.3130  -14.2708 O   0  0  0  0  0  0  0  0  0  0  0  0
   22.6183  -10.6114  -14.7079 C   0  0  0  0  0  0  0  0  0  0  0  0
   22.5252   -9.2216  -15.2602 C   0  0  1  0  0  0  0  0  0  0  0  0
   22.9815   -9.2404  -16.5784 O   0  0  0  0  0  0  0  0  0  0  0  0
   21.1271   -8.6557  -15.2078 C   0  0  2  0  0  0  0  0  0  0  0  0
   20.1955   -9.3520  -16.0216 N   0  0  0  0  0  0  0  0  0  0  0  0
   21.2071   -7.1949  -15.5254 C   0  0  0  0  0  0  0  0  0  0  0  0
   21.3003   -6.7494  -16.6778 O   0  0  0  0  0  0  0  0  0  0  0  0
   18.8801   -4.5193  -15.4505 C   0  0  0  0  0  0  0  0  0  0  0  0
   19.9622   -4.1229  -14.4733 C   0  0  1  0  0  0  0  0  0  0  0  0
   19.5282   -4.5039  -13.2039 O   0  0  0  0  0  0  0  0  0  0  0  0
   21.2588   -4.8407  -14.7414 C   0  0  2  0  0  0  0  0  0  0  0  0
   21.1751   -6.2583  -14.4555 N   0  0  0  0  0  0  0  0  0  0  0  0
   22.3096   -4.2280  -13.8903 C   0  0  0  0  0  0  0  0  0  0  0  0
   22.7681   -2.9430  -14.1383 O   0  0  0  0  0  0  0  0  0  0  0  0
   22.8195   -4.8438  -12.9214 O   0  0  0  0  0  0  0  0  0  0  0  0
  2  4  1  0
  2  1  1  0
  3  2  2  0
  5  4  1  0
  5  6  1  1
  7  5  1  0
  7  8  2  0
 10  9  1  6
 10 12  1  0
 11 10  1  0
 12 13  1  6
 12 14  1  0
 13  7  1  0
 14 20  1  0
 14 15  2  0
 17 16  1  6
 18 17  1  0
 19 17  1  0
 19 20  1  1
 21 22  1  0
 21 19  1  0
 23 21  2  0
M  END
$$$$
