NTT.pdb
     RDKit          3D

 23 22  0  0  1  0  0  0  0  0999 V2000
   14.8276  -13.6445  -15.1192 N   0  0  0  0  0  0  0  0  0  0  0  0
   15.4624  -12.9616  -14.0462 C   0  0  0  0  0  0  0  0  0  0  0  0
   14.9050  -13.0449  -12.9129 O   0  0  0  0  0  0  0  0  0  0  0  0
   16.7164  -12.1915  -14.2528 C   0  0  0  0  0  0  0  0  0  0  0  0
   17.0624  -12.2293  -15.7077 C   0  0  2  0  0  0  0  0  0  0  0  0
   17.4264  -13.6077  -16.0345 N   0  0  0  0  0  0  0  0  0  0  0  0
   18.1351  -11.2880  -16.0768 C   0  0  0  0  0  0  0  0  0  0  0  0
   19.2746  -11.7390  -16.2888 O   0  0  0  0  0  0  0  0  0  0  0  0
   18.7270   -9.1662  -19.0297 C   0  0  0  0  0  0  0  0  0  0  0  0
   18.7296   -8.2407  -17.8513 C   0  0  1  0  0  0  0  0  0  0  0  0
   17.5108   -7.5626  -17.8216 O   0  0  0  0  0  0  0  0  0  0  0  0
   18.9544   -8.9525  -16.5396 C   0  0  2  0  0  0  0  0  0  0  0  0
   17.9283   -9.8741  -16.2037 N   0  0  0  0  0  0  0  0  0  0  0  0
   19.1809   -7.9158  -15.4835 C   0  0  0  0  0  0  0  0  0  0  0  0
   18.3516   -7.6420  -14.6046 O   0  0  0  0  0  0  0  0  0  0  0  0
   22.3937   -5.2594  -12.8907 C   0  0  0  0  0  0  0  0  0  0  0  0
   22.0965   -6.3200  -13.9250 C   0  0  1  0  0  0  0  0  0  0  0  0
   22.2539   -7.5572  -13.3008 O   0  0  0  0  0  0  0  0  0  0  0  0
   20.6775   -6.2434  -14.4239 C   0  0  2  0  0  0  0  0  0  0  0  0
   20.4100   -7.2001  -15.4782 N   0  0  0  0  0  0  0  0  0  0  0  0
   20.4418   -4.8694  -14.9345 C   0  0  0  0  0  0  0  0  0  0  0  0
   19.8538   -3.9025  -14.1331 O   0  0  0  0  0  0  0  0  0  0  0  0
   20.7628   -4.5324  -16.1012 O   0  0  0  0  0  0  0  0  0  0  0  0
  2  4  1  0
  2  1  1  0
  3  2  2  0
  5  4  1  0
  5  6  1  1
  7  5  1  0
  7  8  2  0
 10  9  1  6
 10 12  1  0
 11 10  1  0
 12 13  1  1
 12 14  1  0
 13  7  1  0
 14 20  1  0
 14 15  2  0
 17 16  1  1
 18 17  1  0
 19 17  1  0
 19 20  1  6
 21 22  1  0
 21 19  1  0
 23 21  2  0
M  END
$$$$
