NTT.pdb
     RDKit          3D

 23 22  0  0  1  0  0  0  0  0999 V2000
   16.2132  -13.0706  -16.0254 N   0  0  0  0  0  0  0  0  0  0  0  0
   17.4005  -13.7816  -16.3499 C   0  0  0  0  0  0  0  0  0  0  0  0
   17.2792  -15.0253  -16.5509 O   0  0  0  0  0  0  0  0  0  0  0  0
   18.7136  -13.0924  -16.4461 C   0  0  0  0  0  0  0  0  0  0  0  0
   18.5071  -11.6369  -16.1688 C   0  0  2  0  0  0  0  0  0  0  0  0
   17.7643  -11.0782  -17.2981 N   0  0  0  0  0  0  0  0  0  0  0  0
   19.7644  -10.9032  -15.9365 C   0  0  0  0  0  0  0  0  0  0  0  0
   20.5395  -11.3162  -15.0560 O   0  0  0  0  0  0  0  0  0  0  0  0
   22.9794  -10.3985  -17.6152 C   0  0  0  0  0  0  0  0  0  0  0  0
   22.3457   -9.0454  -17.5019 C   0  0  1  0  0  0  0  0  0  0  0  0
   21.7718   -8.7238  -18.7321 O   0  0  0  0  0  0  0  0  0  0  0  0
   21.3040   -8.9686  -16.4125 C   0  0  2  0  0  0  0  0  0  0  0  0
   20.1383   -9.7337  -16.6784 N   0  0  0  0  0  0  0  0  0  0  0  0
   21.0111   -7.5234  -16.1536 C   0  0  0  0  0  0  0  0  0  0  0  0
   20.0967   -6.9002  -16.7109 O   0  0  0  0  0  0  0  0  0  0  0  0
   20.9917   -3.6300  -13.3321 C   0  0  0  0  0  0  0  0  0  0  0  0
   21.2393   -5.1032  -13.5590 C   0  0  1  0  0  0  0  0  0  0  0  0
   20.0494   -5.7690  -13.2662 O   0  0  0  0  0  0  0  0  0  0  0  0
   21.5845   -5.4057  -14.9935 C   0  0  2  0  0  0  0  0  0  0  0  0
   21.8187   -6.8172  -15.2198 N   0  0  0  0  0  0  0  0  0  0  0  0
   22.8079   -4.6412  -15.3443 C   0  0  0  0  0  0  0  0  0  0  0  0
   22.7212   -3.3834  -15.9216 O   0  0  0  0  0  0  0  0  0  0  0  0
   23.9583   -5.0996  -15.1340 O   0  0  0  0  0  0  0  0  0  0  0  0
  2  4  1  0
  2  1  1  0
  3  2  2  0
  5  4  1  0
  5  6  1  6
  7  5  1  0
  7  8  2  0
 10  9  1  6
 10 12  1  0
 11 10  1  0
 12 13  1  6
 12 14  1  0
 13  7  1  0
 14 20  1  0
 14 15  2  0
 17 16  1  6
 18 17  1  0
 19 17  1  0
 19 20  1  1
 21 22  1  0
 21 19  1  0
 23 21  2  0
M  END
$$$$
