HHP.pdb
     RDKit          3D

 28 30  0  0  1  0  0  0  0  0999 V2000
   14.1355  -17.1834  -14.4149 N   0  0  0  0  0  0  0  0  0  0  0  0
   14.4260  -16.1296  -15.3296 C   0  0  1  0  0  0  0  0  0  0  0  0
   13.3278  -15.0932  -15.3533 C   0  0  0  0  0  0  0  0  0  0  0  0
   12.0330  -15.6958  -15.7987 C   0  0  0  0  0  0  0  0  0  0  0  0
   11.5181  -15.6976  -17.0585 C   0  0  0  0  0  0  0  0  0  0  0  0
   10.3376  -16.3397  -17.0384 N   0  0  0  0  0  0  0  0  0  0  0  0
   10.1054  -16.7418  -15.7772 C   0  0  0  0  0  0  0  0  0  0  0  0
   11.1515  -16.3424  -15.0219 N   0  0  0  0  0  0  0  0  0  0  0  0
   15.7138  -15.4595  -15.0803 C   0  0  0  0  0  0  0  0  0  0  0  0
   16.1332  -15.1492  -13.9388 O   0  0  0  0  0  0  0  0  0  0  0  0
   16.5292  -15.1463  -16.1992 N   0  0  0  0  0  0  0  0  0  0  0  0
   17.8587  -14.5545  -16.0703 C   0  0  1  0  0  0  0  0  0  0  0  0
   18.8617  -15.4812  -16.7871 C   0  0  0  0  0  0  0  0  0  0  0  0
   19.4538  -16.4372  -15.8191 C   0  0  0  0  0  0  0  0  0  0  0  0
   20.7699  -16.4518  -15.4086 C   0  0  0  0  0  0  0  0  0  0  0  0
   20.9336  -17.4705  -14.5192 N   0  0  0  0  0  0  0  0  0  0  0  0
   19.7332  -18.0863  -14.3749 C   0  0  0  0  0  0  0  0  0  0  0  0
   18.8589  -17.4510  -15.1634 N   0  0  0  0  0  0  0  0  0  0  0  0
   17.9207  -13.1968  -16.5858 C   0  0  0  0  0  0  0  0  0  0  0  0
   17.1292  -12.8727  -17.5075 O   0  0  0  0  0  0  0  0  0  0  0  0
   18.8307  -12.2498  -16.0843 N   0  0  0  0  0  0  0  0  0  0  0  0
   19.8195  -12.5594  -15.0336 C   0  0  0  0  0  0  0  0  0  0  0  0
   20.1615  -11.2714  -14.3620 C   0  0  0  0  0  0  0  0  0  0  0  0
   19.1183  -10.3071  -14.9432 C   0  0  0  0  0  0  0  0  0  0  0  0
   19.0541  -10.8667  -16.3715 C   0  0  1  0  0  0  0  0  0  0  0  0
   20.4114  -10.6262  -16.9547 C   0  0  0  0  0  0  0  0  0  0  0  0
   21.2095  -11.5987  -16.9103 O   0  0  0  0  0  0  0  0  0  0  0  0
   20.8051   -9.4347  -17.5135 O   0  0  0  0  0  0  0  0  0  0  0  0
  2  3  1  0
  2  1  1  1
  3  4  1  0
  4  5  2  0
  4  8  1  0
  5  6  1  0
  6  7  1  0
  8  7  2  0
  9 11  1  0
  9  2  1  0
 10  9  2  0
 12 19  1  0
 12 11  1  0
 12 13  1  6
 14 13  1  0
 15 14  2  0
 16 17  1  0
 16 15  1  0
 17 18  2  0
 18 14  1  0
 19 21  1  0
 20 19  2  0
 21 25  1  0
 21 22  1  0
 22 23  1  0
 24 23  1  0
 25 24  1  0
 25 26  1  1
 26 27  2  0
 26 28  1  0
M  END
$$$$
