HHP.pdb
     RDKit          3D

 28 30  0  0  1  0  0  0  0  0999 V2000
   20.1585  -15.4045  -16.7082 N   0  0  0  0  0  0  0  0  0  0  0  0
   19.6081  -14.4545  -15.7992 C   0  0  1  0  0  0  0  0  0  0  0  0
   20.0515  -14.7191  -14.3800 C   0  0  0  0  0  0  0  0  0  0  0  0
   19.6215  -16.0794  -13.9298 C   0  0  0  0  0  0  0  0  0  0  0  0
   20.3925  -17.1975  -13.8424 C   0  0  0  0  0  0  0  0  0  0  0  0
   19.6299  -18.2105  -13.3969 N   0  0  0  0  0  0  0  0  0  0  0  0
   18.3861  -17.7395  -13.2034 C   0  0  0  0  0  0  0  0  0  0  0  0
   18.3894  -16.4297  -13.5330 N   0  0  0  0  0  0  0  0  0  0  0  0
   19.9084  -13.0542  -16.1434 C   0  0  0  0  0  0  0  0  0  0  0  0
   21.0639  -12.6208  -16.3725 O   0  0  0  0  0  0  0  0  0  0  0  0
   18.8250  -12.1403  -16.2205 N   0  0  0  0  0  0  0  0  0  0  0  0
   19.0023  -10.7261  -16.5412 C   0  0  1  0  0  0  0  0  0  0  0  0
   17.7281  -10.2399  -17.2615 C   0  0  0  0  0  0  0  0  0  0  0  0
   17.5994  -10.9116  -18.5783 C   0  0  0  0  0  0  0  0  0  0  0  0
   16.9530  -12.1073  -18.8093 C   0  0  0  0  0  0  0  0  0  0  0  0
   17.0465  -12.3994  -20.1364 N   0  0  0  0  0  0  0  0  0  0  0  0
   17.7438  -11.3976  -20.7291 C   0  0  0  0  0  0  0  0  0  0  0  0
   18.0661  -10.5151  -19.7768 N   0  0  0  0  0  0  0  0  0  0  0  0
   19.2969   -9.9178  -15.3695 C   0  0  0  0  0  0  0  0  0  0  0  0
   18.8801  -10.3149  -14.2516 O   0  0  0  0  0  0  0  0  0  0  0  0
   20.0280   -8.7201  -15.4547 N   0  0  0  0  0  0  0  0  0  0  0  0
   20.5078   -8.1574  -16.7317 C   0  0  0  0  0  0  0  0  0  0  0  0
   21.6813   -7.2917  -16.4144 C   0  0  0  0  0  0  0  0  0  0  0  0
   21.9499   -7.6244  -14.9403 C   0  0  0  0  0  0  0  0  0  0  0  0
   20.4977   -7.7938  -14.4714 C   0  0  1  0  0  0  0  0  0  0  0  0
   19.8696   -6.4441  -14.6256 C   0  0  0  0  0  0  0  0  0  0  0  0
   19.2658   -6.2390  -15.7110 O   0  0  0  0  0  0  0  0  0  0  0  0
   19.9236   -5.4600  -13.6688 O   0  0  0  0  0  0  0  0  0  0  0  0
  2  3  1  0
  2  1  1  6
  3  4  1  0
  4  5  2  0
  4  8  1  0
  5  6  1  0
  6  7  1  0
  8  7  2  0
  9 11  1  0
  9  2  1  0
 10  9  2  0
 12 19  1  0
 12 11  1  0
 12 13  1  1
 14 13  1  0
 15 14  2  0
 16 17  1  0
 16 15  1  0
 17 18  2  0
 18 14  1  0
 19 21  1  0
 20 19  2  0
 21 25  1  0
 21 22  1  0
 22 23  1  0
 24 23  1  0
 25 24  1  0
 25 26  1  6
 26 27  2  0
 26 28  1  0
M  END
$$$$
