HHP.pdb
     RDKit          3D

 28 30  0  0  1  0  0  0  0  0999 V2000
   32.6946  -26.4178  -17.6280 N   0  0  0  0  0  0  0  0  0  0  0  0
   31.8406  -27.0740  -18.5616 C   0  0  1  0  0  0  0  0  0  0  0  0
   32.6262  -27.9092  -19.5445 C   0  0  0  0  0  0  0  0  0  0  0  0
   33.3939  -27.0411  -20.4905 C   0  0  0  0  0  0  0  0  0  0  0  0
   34.6212  -26.4892  -20.2870 C   0  0  0  0  0  0  0  0  0  0  0  0
   34.9580  -25.7786  -21.3769 N   0  0  0  0  0  0  0  0  0  0  0  0
   33.9535  -25.8788  -22.2642 C   0  0  0  0  0  0  0  0  0  0  0  0
   32.9967  -26.6559  -21.7121 N   0  0  0  0  0  0  0  0  0  0  0  0
   30.8053  -27.9147  -17.9363 C   0  0  0  0  0  0  0  0  0  0  0  0
   31.0110  -28.6624  -16.9494 O   0  0  0  0  0  0  0  0  0  0  0  0
   29.4961  -27.8762  -18.4834 N   0  0  0  0  0  0  0  0  0  0  0  0
   28.3971  -28.6888  -17.9673 C   0  0  1  0  0  0  0  0  0  0  0  0
   27.0735  -28.0146  -18.3819 C   0  0  0  0  0  0  0  0  0  0  0  0
   26.9259  -26.7116  -17.6876 C   0  0  0  0  0  0  0  0  0  0  0  0
   27.7374  -26.2455  -16.6751 C   0  0  0  0  0  0  0  0  0  0  0  0
   27.2891  -25.0173  -16.2932 N   0  0  0  0  0  0  0  0  0  0  0  0
   26.2091  -24.7183  -17.0582 C   0  0  0  0  0  0  0  0  0  0  0  0
   26.0079  -25.7480  -17.8882 N   0  0  0  0  0  0  0  0  0  0  0  0
   28.4599  -30.0691  -18.4190 C   0  0  0  0  0  0  0  0  0  0  0  0
   29.0797  -30.3198  -19.4839 O   0  0  0  0  0  0  0  0  0  0  0  0
   27.8541  -31.1162  -17.7027 N   0  0  0  0  0  0  0  0  0  0  0  0
   27.0594  -30.9012  -16.4781 C   0  0  0  0  0  0  0  0  0  0  0  0
   27.0959  -32.1766  -15.7039 C   0  0  0  0  0  0  0  0  0  0  0  0
   28.1548  -32.9922  -16.4583 C   0  0  0  0  0  0  0  0  0  0  0  0
   27.8276  -32.5342  -17.8868 C   0  0  1  0  0  0  0  0  0  0  0  0
   26.4456  -33.0395  -18.1602 C   0  0  0  0  0  0  0  0  0  0  0  0
   25.5082  -32.2334  -17.9232 O   0  0  0  0  0  0  0  0  0  0  0  0
   26.1704  -34.2969  -18.6398 O   0  0  0  0  0  0  0  0  0  0  0  0
  2  3  1  0
  2  1  1  1
  3  4  1  0
  4  5  2  0
  4  8  1  0
  5  6  1  0
  6  7  1  0
  8  7  2  0
  9 11  1  0
  9  2  1  0
 10  9  2  0
 12 19  1  0
 12 11  1  0
 12 13  1  6
 14 13  1  0
 15 14  2  0
 16 17  1  0
 16 15  1  0
 17 18  2  0
 18 14  1  0
 19 21  1  0
 20 19  2  0
 21 25  1  0
 21 22  1  0
 22 23  1  0
 24 23  1  0
 25 24  1  0
 25 26  1  1
 26 27  2  0
 26 28  1  0
M  END
$$$$
