HHP.pdb
     RDKit          3D

 28 30  0  0  1  0  0  0  0  0999 V2000
   25.9890  -16.8355  -18.5167 N   0  0  0  0  0  0  0  0  0  0  0  0
   25.7838  -16.7173  -17.1111 C   0  0  1  0  0  0  0  0  0  0  0  0
   24.7155  -15.7002  -16.7871 C   0  0  0  0  0  0  0  0  0  0  0  0
   25.3085  -14.3374  -16.6166 C   0  0  0  0  0  0  0  0  0  0  0  0
   25.8756  -13.8232  -15.4912 C   0  0  0  0  0  0  0  0  0  0  0  0
   26.2850  -12.5699  -15.7515 N   0  0  0  0  0  0  0  0  0  0  0  0
   25.9804  -12.2911  -17.0305 C   0  0  0  0  0  0  0  0  0  0  0  0
   25.3808  -13.3819  -17.5548 N   0  0  0  0  0  0  0  0  0  0  0  0
   25.4538  -17.9895  -16.4461 C   0  0  0  0  0  0  0  0  0  0  0  0
   24.5627  -18.7785  -16.8448 O   0  0  0  0  0  0  0  0  0  0  0  0
   26.1882  -18.3438  -15.2843 N   0  0  0  0  0  0  0  0  0  0  0  0
   25.6990  -19.3063  -14.3001 C   0  0  1  0  0  0  0  0  0  0  0  0
   26.5574  -19.1607  -13.0271 C   0  0  0  0  0  0  0  0  0  0  0  0
   26.1017  -20.1218  -11.9926 C   0  0  0  0  0  0  0  0  0  0  0  0
   26.5791  -21.4040  -11.8226 C   0  0  0  0  0  0  0  0  0  0  0  0
   25.9203  -21.9749  -10.7759 N   0  0  0  0  0  0  0  0  0  0  0  0
   25.0405  -21.0599  -10.2964 C   0  0  0  0  0  0  0  0  0  0  0  0
   25.1653  -19.9551  -11.0403 N   0  0  0  0  0  0  0  0  0  0  0  0
   24.2832  -19.1446  -14.0131 C   0  0  0  0  0  0  0  0  0  0  0  0
   23.8556  -17.9906  -13.7554 O   0  0  0  0  0  0  0  0  0  0  0  0
   23.3925  -20.2323  -14.0183 N   0  0  0  0  0  0  0  0  0  0  0  0
   23.8163  -21.6202  -14.2858 C   0  0  0  0  0  0  0  0  0  0  0  0
   22.6180  -22.3538  -14.7890 C   0  0  0  0  0  0  0  0  0  0  0  0
   21.6052  -21.2221  -15.0107 C   0  0  0  0  0  0  0  0  0  0  0  0
   21.9807  -20.3358  -13.8144 C   0  0  1  0  0  0  0  0  0  0  0  0
   21.6462  -21.1439  -12.5999 C   0  0  0  0  0  0  0  0  0  0  0  0
   20.8138  -22.0729  -12.7692 O   0  0  0  0  0  0  0  0  0  0  0  0
   22.1893  -20.9212  -11.3579 O   0  0  0  0  0  0  0  0  0  0  0  0
  2  3  1  0
  2  1  1  6
  3  4  1  0
  4  5  2  0
  4  8  1  0
  5  6  1  0
  6  7  1  0
  8  7  2  0
  9 11  1  0
  9  2  1  0
 10  9  2  0
 12 19  1  0
 12 11  1  0
 12 13  1  1
 14 13  1  0
 15 14  2  0
 16 17  1  0
 16 15  1  0
 17 18  2  0
 18 14  1  0
 19 21  1  0
 20 19  2  0
 21 25  1  0
 21 22  1  0
 22 23  1  0
 24 23  1  0
 25 24  1  0
 25 26  1  1
 26 27  2  0
 26 28  1  0
M  END
$$$$
