HHP.pdb
     RDKit          3D

 28 30  0  0  1  0  0  0  0  0999 V2000
   19.1745  -13.4210  -17.0579 N   0  0  0  0  0  0  0  0  0  0  0  0
   18.9393  -12.0186  -17.1562 C   0  0  1  0  0  0  0  0  0  0  0  0
   17.5132  -11.6665  -16.8052 C   0  0  0  0  0  0  0  0  0  0  0  0
   16.5544  -12.3005  -17.7626 C   0  0  0  0  0  0  0  0  0  0  0  0
   16.1720  -11.8239  -18.9788 C   0  0  0  0  0  0  0  0  0  0  0  0
   15.2979  -12.6880  -19.5225 N   0  0  0  0  0  0  0  0  0  0  0  0
   15.1272  -13.7038  -18.6593 C   0  0  0  0  0  0  0  0  0  0  0  0
   15.9024  -13.4582  -17.5809 N   0  0  0  0  0  0  0  0  0  0  0  0
   19.8515  -11.2007  -16.3387 C   0  0  0  0  0  0  0  0  0  0  0  0
   19.9336  -11.2791  -15.0887 O   0  0  0  0  0  0  0  0  0  0  0  0
   20.6879  -10.2677  -17.0056 N   0  0  0  0  0  0  0  0  0  0  0  0
   21.5908   -9.3643  -16.2963 C   0  0  1  0  0  0  0  0  0  0  0  0
   22.9572   -9.4024  -17.0106 C   0  0  0  0  0  0  0  0  0  0  0  0
   23.6012  -10.7237  -16.8086 C   0  0  0  0  0  0  0  0  0  0  0  0
   23.6372  -11.7482  -17.7306 C   0  0  0  0  0  0  0  0  0  0  0  0
   24.3135  -12.7970  -17.1846 N   0  0  0  0  0  0  0  0  0  0  0  0
   24.6964  -12.4327  -15.9349 C   0  0  0  0  0  0  0  0  0  0  0  0
   24.2591  -11.1853  -15.7289 N   0  0  0  0  0  0  0  0  0  0  0  0
   21.0715   -8.0097  -16.2050 C   0  0  0  0  0  0  0  0  0  0  0  0
   20.3279   -7.5932  -17.1295 O   0  0  0  0  0  0  0  0  0  0  0  0
   21.3750   -7.1663  -15.1220 N   0  0  0  0  0  0  0  0  0  0  0  0
   22.2155   -7.5862  -13.9840 C   0  0  0  0  0  0  0  0  0  0  0  0
   21.8396   -6.7273  -12.8229 C   0  0  0  0  0  0  0  0  0  0  0  0
   20.5862   -6.0054  -13.3363 C   0  0  0  0  0  0  0  0  0  0  0  0
   21.0067   -5.8221  -14.8015 C   0  0  1  0  0  0  0  0  0  0  0  0
   22.1918   -4.9086  -14.7642 C   0  0  0  0  0  0  0  0  0  0  0  0
   23.3159   -5.4689  -14.6797 O   0  0  0  0  0  0  0  0  0  0  0  0
   22.1052   -3.5387  -14.8162 O   0  0  0  0  0  0  0  0  0  0  0  0
  2  3  1  0
  2  1  1  1
  3  4  1  0
  4  5  2  0
  4  8  1  0
  5  6  1  0
  6  7  1  0
  8  7  2  0
  9 11  1  0
  9  2  1  0
 10  9  2  0
 12 19  1  0
 12 11  1  0
 12 13  1  6
 14 13  1  0
 15 14  2  0
 16 17  1  0
 16 15  1  0
 17 18  2  0
 18 14  1  0
 19 21  1  0
 20 19  2  0
 21 25  1  0
 21 22  1  0
 22 23  1  0
 24 23  1  0
 25 24  1  0
 25 26  1  1
 26 27  2  0
 26 28  1  0
M  END
$$$$
