HHP.pdb
     RDKit          3D

 28 30  0  0  1  0  0  0  0  0999 V2000
   20.2989  -12.2757  -17.6681 N   0  0  0  0  0  0  0  0  0  0  0  0
   20.4827  -11.1929  -16.7595 C   0  0  1  0  0  0  0  0  0  0  0  0
   21.8040  -10.4962  -16.9822 C   0  0  0  0  0  0  0  0  0  0  0  0
   22.9395  -11.4675  -16.9119 C   0  0  0  0  0  0  0  0  0  0  0  0
   23.4394  -12.0677  -15.7973 C   0  0  0  0  0  0  0  0  0  0  0  0
   24.4559  -12.8683  -16.1605 N   0  0  0  0  0  0  0  0  0  0  0  0
   24.6000  -12.7771  -17.4936 C   0  0  0  0  0  0  0  0  0  0  0  0
   23.6648  -11.9147  -17.9475 N   0  0  0  0  0  0  0  0  0  0  0  0
   19.4008  -10.1940  -16.7933 C   0  0  0  0  0  0  0  0  0  0  0  0
   18.9637   -9.6693  -17.8465 O   0  0  0  0  0  0  0  0  0  0  0  0
   18.8180   -9.8014  -15.5600 N   0  0  0  0  0  0  0  0  0  0  0  0
   17.7791   -8.7787  -15.4642 C   0  0  1  0  0  0  0  0  0  0  0  0
   16.8514   -9.1537  -14.2906 C   0  0  0  0  0  0  0  0  0  0  0  0
   15.9659  -10.2787  -14.6803 C   0  0  0  0  0  0  0  0  0  0  0  0
   15.8769  -10.8304  -15.9407 C   0  0  0  0  0  0  0  0  0  0  0  0
   14.9603  -11.8374  -15.9076 N   0  0  0  0  0  0  0  0  0  0  0  0
   14.4812  -11.9148  -14.6406 C   0  0  0  0  0  0  0  0  0  0  0  0
   15.0974  -10.9710  -13.9201 N   0  0  0  0  0  0  0  0  0  0  0  0
   18.3229   -7.4394  -15.3106 C   0  0  0  0  0  0  0  0  0  0  0  0
   19.4522   -7.3130  -14.7723 O   0  0  0  0  0  0  0  0  0  0  0  0
   17.6269   -6.2978  -15.7451 N   0  0  0  0  0  0  0  0  0  0  0  0
   16.3085   -6.3599  -16.4051 C   0  0  0  0  0  0  0  0  0  0  0  0
   16.1703   -5.1193  -17.2229 C   0  0  0  0  0  0  0  0  0  0  0  0
   17.5823   -4.5212  -17.1595 C   0  0  0  0  0  0  0  0  0  0  0  0
   17.9313   -4.9008  -15.7133 C   0  0  1  0  0  0  0  0  0  0  0  0
   16.9704   -4.1358  -14.8580 C   0  0  0  0  0  0  0  0  0  0  0  0
   17.2573   -2.9272  -14.6538 O   0  0  0  0  0  0  0  0  0  0  0  0
   15.8340   -4.6780  -14.3089 O   0  0  0  0  0  0  0  0  0  0  0  0
  2  3  1  0
  2  1  1  6
  3  4  1  0
  4  5  2  0
  4  8  1  0
  5  6  1  0
  6  7  1  0
  8  7  2  0
  9 11  1  0
  9  2  1  0
 10  9  2  0
 12 19  1  0
 12 11  1  0
 12 13  1  1
 14 13  1  0
 15 14  2  0
 16 17  1  0
 16 15  1  0
 17 18  2  0
 18 14  1  0
 19 21  1  0
 20 19  2  0
 21 25  1  0
 21 22  1  0
 22 23  1  0
 24 23  1  0
 25 24  1  0
 25 26  1  1
 26 27  2  0
 26 28  1  0
M  END
$$$$
