HHP.pdb
     RDKit          3D

 28 30  0  0  1  0  0  0  0  0999 V2000
   18.8157  -10.9137  -17.4424 N   0  0  0  0  0  0  0  0  0  0  0  0
   19.3691   -9.7166  -17.9832 C   0  0  1  0  0  0  0  0  0  0  0  0
   18.6497   -9.2878  -19.2399 C   0  0  0  0  0  0  0  0  0  0  0  0
   18.7570  -10.3360  -20.3019 C   0  0  0  0  0  0  0  0  0  0  0  0
   19.7783  -11.2163  -20.4870 C   0  0  0  0  0  0  0  0  0  0  0  0
   19.4915  -11.9889  -21.5487 N   0  0  0  0  0  0  0  0  0  0  0  0
   18.2989  -11.6024  -22.0330 C   0  0  0  0  0  0  0  0  0  0  0  0
   17.8544  -10.5867  -21.2616 N   0  0  0  0  0  0  0  0  0  0  0  0
   19.3953   -8.5890  -17.0359 C   0  0  0  0  0  0  0  0  0  0  0  0
   18.4263   -8.2618  -16.3083 O   0  0  0  0  0  0  0  0  0  0  0  0
   20.5889   -7.8267  -16.9408 N   0  0  0  0  0  0  0  0  0  0  0  0
   20.7171   -6.6599  -16.0710 C   0  0  1  0  0  0  0  0  0  0  0  0
   22.0772   -6.7531  -15.3500 C   0  0  0  0  0  0  0  0  0  0  0  0
   22.1534   -8.0106  -14.5662 C   0  0  0  0  0  0  0  0  0  0  0  0
   21.5210   -8.2464  -13.3639 C   0  0  0  0  0  0  0  0  0  0  0  0
   21.8289   -9.5084  -12.9542 N   0  0  0  0  0  0  0  0  0  0  0  0
   22.6449  -10.0561  -13.8897 C   0  0  0  0  0  0  0  0  0  0  0  0
   22.8271   -9.1411  -14.8484 N   0  0  0  0  0  0  0  0  0  0  0  0
   20.5774   -5.4051  -16.7915 C   0  0  0  0  0  0  0  0  0  0  0  0
   20.9146   -5.3726  -18.0023 O   0  0  0  0  0  0  0  0  0  0  0  0
   20.0795   -4.2434  -16.1759 N   0  0  0  0  0  0  0  0  0  0  0  0
   19.5782   -4.2179  -14.7882 C   0  0  0  0  0  0  0  0  0  0  0  0
   18.6298   -3.0700  -14.6872 C   0  0  0  0  0  0  0  0  0  0  0  0
   18.4651   -2.6459  -16.1530 C   0  0  0  0  0  0  0  0  0  0  0  0
   19.9017   -2.8995  -16.6317 C   0  0  1  0  0  0  0  0  0  0  0  0
   20.7518   -1.9310  -15.8705 C   0  0  0  0  0  0  0  0  0  0  0  0
   20.8115   -0.7644  -16.3397 O   0  0  0  0  0  0  0  0  0  0  0  0
   21.4417   -2.2514  -14.7267 O   0  0  0  0  0  0  0  0  0  0  0  0
  2  3  1  0
  2  1  1  1
  3  4  1  0
  4  5  2  0
  4  8  1  0
  5  6  1  0
  6  7  1  0
  8  7  2  0
  9 11  1  0
  9  2  1  0
 10  9  2  0
 12 19  1  0
 12 11  1  0
 12 13  1  6
 14 13  1  0
 15 14  2  0
 16 17  1  0
 16 15  1  0
 17 18  2  0
 18 14  1  0
 19 21  1  0
 20 19  2  0
 21 25  1  0
 21 22  1  0
 22 23  1  0
 24 23  1  0
 25 24  1  0
 25 26  1  1
 26 27  2  0
 26 28  1  0
M  END
$$$$
