HHP.pdb
     RDKit          3D

 28 30  0  0  1  0  0  0  0  0999 V2000
   26.0906  -20.3841  -13.8410 N   0  0  0  0  0  0  0  0  0  0  0  0
   27.1203  -19.8267  -13.0280 C   0  0  1  0  0  0  0  0  0  0  0  0
   27.6511  -18.5368  -13.6070 C   0  0  0  0  0  0  0  0  0  0  0  0
   28.0064  -18.7046  -15.0505 C   0  0  0  0  0  0  0  0  0  0  0  0
   28.8388  -19.6373  -15.5885 C   0  0  0  0  0  0  0  0  0  0  0  0
   28.8915  -19.4491  -16.9182 N   0  0  0  0  0  0  0  0  0  0  0  0
   28.0997  -18.4063  -17.2213 C   0  0  0  0  0  0  0  0  0  0  0  0
   27.5597  -17.9547  -16.0686 N   0  0  0  0  0  0  0  0  0  0  0  0
   26.7192  -19.5967  -11.6296 C   0  0  0  0  0  0  0  0  0  0  0  0
   26.3042  -18.4962  -11.1912 O   0  0  0  0  0  0  0  0  0  0  0  0
   26.8076  -20.6858  -10.7236 N   0  0  0  0  0  0  0  0  0  0  0  0
   26.4504  -20.5732   -9.3115 C   0  0  1  0  0  0  0  0  0  0  0  0
   25.2997  -21.5615   -9.0331 C   0  0  0  0  0  0  0  0  0  0  0  0
   24.0347  -21.0474   -9.6136 C   0  0  0  0  0  0  0  0  0  0  0  0
   23.8954  -19.8712  -10.3194 C   0  0  0  0  0  0  0  0  0  0  0  0
   22.5907  -19.7408  -10.6884 N   0  0  0  0  0  0  0  0  0  0  0  0
   21.9212  -20.8235  -10.2187 C   0  0  0  0  0  0  0  0  0  0  0  0
   22.8058  -21.5950   -9.5768 N   0  0  0  0  0  0  0  0  0  0  0  0
   27.5807  -20.8038   -8.4268 C   0  0  0  0  0  0  0  0  0  0  0  0
   28.4773  -21.6017   -8.8016 O   0  0  0  0  0  0  0  0  0  0  0  0
   27.6946  -20.1637   -7.1804 N   0  0  0  0  0  0  0  0  0  0  0  0
   26.7195  -19.1694   -6.6925 C   0  0  0  0  0  0  0  0  0  0  0  0
   27.4300  -18.3111   -5.6998 C   0  0  0  0  0  0  0  0  0  0  0  0
   28.8924  -18.7430   -5.8745 C   0  0  0  0  0  0  0  0  0  0  0  0
   28.6643  -20.2394   -6.1319 C   0  0  1  0  0  0  0  0  0  0  0  0
   28.0793  -20.7768   -4.8634 C   0  0  0  0  0  0  0  0  0  0  0  0
   26.8310  -20.9394   -4.8588 O   0  0  0  0  0  0  0  0  0  0  0  0
   28.8201  -21.0870   -3.7490 O   0  0  0  0  0  0  0  0  0  0  0  0
  2  3  1  0
  2  1  1  6
  3  4  1  0
  4  5  2  0
  4  8  1  0
  5  6  1  0
  6  7  1  0
  8  7  2  0
  9 11  1  0
  9  2  1  0
 10  9  2  0
 12 19  1  0
 12 11  1  0
 12 13  1  1
 14 13  1  0
 15 14  2  0
 16 17  1  0
 16 15  1  0
 17 18  2  0
 18 14  1  0
 19 21  1  0
 20 19  2  0
 21 25  1  0
 21 22  1  0
 22 23  1  0
 24 23  1  0
 25 24  1  0
 25 26  1  1
 26 27  2  0
 26 28  1  0
M  END
$$$$
