HHP.pdb
     RDKit          3D

 28 30  0  0  1  0  0  0  0  0999 V2000
   22.3377  -20.2246  -19.5549 N   0  0  0  0  0  0  0  0  0  0  0  0
   22.8892  -21.1187  -18.5916 C   0  0  1  0  0  0  0  0  0  0  0  0
   23.6013  -22.2768  -19.2492 C   0  0  0  0  0  0  0  0  0  0  0  0
   22.6219  -23.2419  -19.8387 C   0  0  0  0  0  0  0  0  0  0  0  0
   21.2687  -23.1079  -19.8944 C   0  0  0  0  0  0  0  0  0  0  0  0
   20.7551  -24.1915  -20.5013 N   0  0  0  0  0  0  0  0  0  0  0  0
   21.7732  -25.0058  -20.8279 C   0  0  0  0  0  0  0  0  0  0  0  0
   22.9165  -24.4152  -20.4175 N   0  0  0  0  0  0  0  0  0  0  0  0
   23.8030  -20.4747  -17.6325 C   0  0  0  0  0  0  0  0  0  0  0  0
   24.8168  -19.8137  -17.9654 O   0  0  0  0  0  0  0  0  0  0  0  0
   23.5193  -20.6104  -16.2483 N   0  0  0  0  0  0  0  0  0  0  0  0
   24.3823  -20.0620  -15.2049 C   0  0  1  0  0  0  0  0  0  0  0  0
   23.6007  -18.9471  -14.4804 C   0  0  0  0  0  0  0  0  0  0  0  0
   22.5765  -19.5413  -13.5863 C   0  0  0  0  0  0  0  0  0  0  0  0
   21.5410  -20.3597  -13.9848 C   0  0  0  0  0  0  0  0  0  0  0  0
   20.8142  -20.7030  -12.8852 N   0  0  0  0  0  0  0  0  0  0  0  0
   21.3885  -20.1059  -11.8106 C   0  0  0  0  0  0  0  0  0  0  0  0
   22.4443  -19.4137  -12.2530 N   0  0  0  0  0  0  0  0  0  0  0  0
   24.8537  -21.0762  -14.2763 C   0  0  0  0  0  0  0  0  0  0  0  0
   24.3909  -22.2407  -14.3807 O   0  0  0  0  0  0  0  0  0  0  0  0
   25.8028  -20.7908  -13.2792 N   0  0  0  0  0  0  0  0  0  0  0  0
   26.3552  -19.4410  -13.0547 C   0  0  0  0  0  0  0  0  0  0  0  0
   27.6819  -19.6161  -12.3940 C   0  0  0  0  0  0  0  0  0  0  0  0
   27.9125  -21.1292  -12.5090 C   0  0  0  0  0  0  0  0  0  0  0  0
   26.4658  -21.6014  -12.3052 C   0  0  1  0  0  0  0  0  0  0  0  0
   26.1103  -21.2033  -10.9069 C   0  0  0  0  0  0  0  0  0  0  0  0
   25.5304  -20.0930  -10.7816 O   0  0  0  0  0  0  0  0  0  0  0  0
   26.3807  -21.9700   -9.7997 O   0  0  0  0  0  0  0  0  0  0  0  0
  2  3  1  0
  2  1  1  6
  3  4  1  0
  4  5  2  0
  4  8  1  0
  5  6  1  0
  6  7  1  0
  8  7  2  0
  9 11  1  0
  9  2  1  0
 10  9  2  0
 12 19  1  0
 12 11  1  0
 12 13  1  1
 14 13  1  0
 15 14  2  0
 16 17  1  0
 16 15  1  0
 17 18  2  0
 18 14  1  0
 19 21  1  0
 20 19  2  0
 21 25  1  0
 21 22  1  0
 22 23  1  0
 24 23  1  0
 25 24  1  0
 25 26  1  1
 26 27  2  0
 26 28  1  0
M  END
$$$$
