HHP.pdb
     RDKit          3D

 28 30  0  0  1  0  0  0  0  0999 V2000
   20.6799  -12.9949  -17.3708 N   0  0  0  0  0  0  0  0  0  0  0  0
   21.1081  -11.7889  -17.9983 C   0  0  1  0  0  0  0  0  0  0  0  0
   20.0355  -11.2146  -18.8930 C   0  0  0  0  0  0  0  0  0  0  0  0
   19.6616  -12.1835  -19.9698 C   0  0  0  0  0  0  0  0  0  0  0  0
   20.4896  -12.7477  -20.8909 C   0  0  0  0  0  0  0  0  0  0  0  0
   19.7645  -13.5598  -21.6789 N   0  0  0  0  0  0  0  0  0  0  0  0
   18.4878  -13.5115  -21.2617 C   0  0  0  0  0  0  0  0  0  0  0  0
   18.4331  -12.6639  -20.2115 N   0  0  0  0  0  0  0  0  0  0  0  0
   21.5541  -10.7496  -17.0546 C   0  0  0  0  0  0  0  0  0  0  0  0
   20.9230  -10.4252  -16.0193 O   0  0  0  0  0  0  0  0  0  0  0  0
   22.7713  -10.0747  -17.3336 N   0  0  0  0  0  0  0  0  0  0  0  0
   23.2715   -8.9720  -16.5163 C   0  0  1  0  0  0  0  0  0  0  0  0
   24.7877   -8.8446  -16.7685 C   0  0  0  0  0  0  0  0  0  0  0  0
   25.4904  -10.0528  -16.2706 C   0  0  0  0  0  0  0  0  0  0  0  0
   24.9070  -11.0916  -15.5767 C   0  0  0  0  0  0  0  0  0  0  0  0
   25.8679  -12.0138  -15.2913 N   0  0  0  0  0  0  0  0  0  0  0  0
   27.0396  -11.5570  -15.8009 C   0  0  0  0  0  0  0  0  0  0  0  0
   26.7912  -10.3791  -16.3844 N   0  0  0  0  0  0  0  0  0  0  0  0
   22.5780   -7.7212  -16.7767 C   0  0  0  0  0  0  0  0  0  0  0  0
   22.0464   -7.5584  -17.9045 O   0  0  0  0  0  0  0  0  0  0  0  0
   22.4872   -6.7040  -15.8106 N   0  0  0  0  0  0  0  0  0  0  0  0
   23.0748   -6.8182  -14.4618 C   0  0  0  0  0  0  0  0  0  0  0  0
   22.3108   -5.8948  -13.5726 C   0  0  0  0  0  0  0  0  0  0  0  0
   21.1323   -5.4768  -14.4626 C   0  0  0  0  0  0  0  0  0  0  0  0
   21.8677   -5.4149  -15.8090 C   0  0  1  0  0  0  0  0  0  0  0  0
   22.8682   -4.3110  -15.6658 C   0  0  0  0  0  0  0  0  0  0  0  0
   23.9870   -4.6405  -15.1921 O   0  0  0  0  0  0  0  0  0  0  0  0
   22.6241   -3.0055  -16.0163 O   0  0  0  0  0  0  0  0  0  0  0  0
  2  3  1  0
  2  1  1  1
  3  4  1  0
  4  5  2  0
  4  8  1  0
  5  6  1  0
  6  7  1  0
  8  7  2  0
  9 11  1  0
  9  2  1  0
 10  9  2  0
 12 19  1  0
 12 11  1  0
 12 13  1  6
 14 13  1  0
 15 14  2  0
 16 17  1  0
 16 15  1  0
 17 18  2  0
 18 14  1  0
 19 21  1  0
 20 19  2  0
 21 25  1  0
 21 22  1  0
 22 23  1  0
 24 23  1  0
 25 24  1  0
 25 26  1  1
 26 27  2  0
 26 28  1  0
M  END
$$$$
