KMI.pdb
     RDKit          3D

 26 25  0  0  1  0  0  0  0  0999 V2000
    8.1014  -17.9827   20.7507 N   0  0  0  0  0  0  0  0  0  0  0  0
    9.4500  -17.5152   20.8238 C   0  0  1  0  0  0  0  0  0  0  0  0
    9.9135  -16.8230   19.5735 C   0  0  0  0  0  0  0  0  0  0  0  0
    9.7787  -17.7819   18.4192 C   0  0  0  0  0  0  0  0  0  0  0  0
   10.2833  -17.2276   17.1252 C   0  0  0  0  0  0  0  0  0  0  0  0
   10.0333  -18.1123   15.9457 C   0  0  0  0  0  0  0  0  0  0  0  0
   10.4207  -17.5310   14.6931 N   0  0  0  0  0  0  0  0  0  0  0  0
    9.5651  -16.6191   22.0167 C   0  0  0  0  0  0  0  0  0  0  0  0
   10.6730  -16.0417   22.1890 O   0  0  0  0  0  0  0  0  0  0  0  0
    5.6001  -11.8207   24.8154 C   0  0  0  0  0  0  0  0  0  0  0  0
    5.6910  -13.3518   25.7764 S   0  0  0  0  0  0  0  0  0  0  0  0
    7.3836  -14.0888   25.6299 C   0  0  0  0  0  0  0  0  0  0  0  0
    7.3594  -14.9089   24.4007 C   0  0  0  0  0  0  0  0  0  0  0  0
    8.6987  -15.4770   24.0252 C   0  0  2  0  0  0  0  0  0  0  0  0
    8.5069  -16.4122   22.9179 N   0  0  0  0  0  0  0  0  0  0  0  0
    9.3118  -16.1724   25.1822 C   0  0  0  0  0  0  0  0  0  0  0  0
    9.2674  -17.4571   25.2612 O   0  0  0  0  0  0  0  0  0  0  0  0
   11.2148  -12.9971   29.1193 C   0  0  0  0  0  0  0  0  0  0  0  0
   11.2022  -14.0164   27.9901 C   0  0  0  0  0  0  0  0  0  0  0  0
   10.8077  -15.3716   28.4600 C   0  0  2  0  0  0  0  0  0  0  0  0
   11.7163  -15.9664   29.4997 C   0  0  0  0  0  0  0  0  0  0  0  0
   10.6186  -16.3312   27.3287 C   0  0  2  0  0  0  0  0  0  0  0  0
    9.9788  -15.5324   26.2561 N   0  0  0  0  0  0  0  0  0  0  0  0
    9.7700  -17.4626   27.7159 C   0  0  0  0  0  0  0  0  0  0  0  0
   10.3567  -18.6632   28.0699 O   0  0  0  0  0  0  0  0  0  0  0  0
    8.5275  -17.3823   27.7377 O   0  0  0  0  0  0  0  0  0  0  0  0
  2  1  1  6
  3  2  1  0
  4  3  1  0
  5  4  1  0
  5  6  1  0
  7  6  1  0
  8  9  2  0
  8  2  1  0
 11 10  1  0
 11 12  1  0
 12 13  1  0
 14 13  1  1
 14 15  1  0
 15  8  1  0
 16 14  1  0
 17 16  2  0
 19 18  1  0
 19 20  1  0
 20 21  1  1
 20 22  1  0
 22 24  1  0
 22 23  1  6
 23 16  1  0
 24 25  1  0
 26 24  2  0
M  END
$$$$
