KMI.pdb
     RDKit          3D

 26 25  0  0  1  0  0  0  0  0999 V2000
    8.8439  -18.3671   20.7553 N   0  0  0  0  0  0  0  0  0  0  0  0
   10.0509  -17.6029   20.7151 C   0  0  1  0  0  0  0  0  0  0  0  0
   10.2515  -16.8662   19.4211 C   0  0  0  0  0  0  0  0  0  0  0  0
   10.8021  -17.8309   18.4031 C   0  0  0  0  0  0  0  0  0  0  0  0
   12.2943  -17.9266   18.4228 C   0  0  0  0  0  0  0  0  0  0  0  0
   12.8591  -18.8384   17.3806 C   0  0  0  0  0  0  0  0  0  0  0  0
   14.2925  -18.8876   17.3693 N   0  0  0  0  0  0  0  0  0  0  0  0
   10.0434  -16.6642   21.8804 C   0  0  0  0  0  0  0  0  0  0  0  0
   11.1299  -16.0828   22.1489 O   0  0  0  0  0  0  0  0  0  0  0  0
    5.6114  -12.3845   26.7780 C   0  0  0  0  0  0  0  0  0  0  0  0
    5.7858  -13.5905   25.4398 S   0  0  0  0  0  0  0  0  0  0  0  0
    7.5613  -14.0880   25.2666 C   0  0  0  0  0  0  0  0  0  0  0  0
    7.6086  -15.0131   24.1150 C   0  0  0  0  0  0  0  0  0  0  0  0
    8.9917  -15.4972   23.7834 C   0  0  2  0  0  0  0  0  0  0  0  0
    8.8964  -16.4227   22.6556 N   0  0  0  0  0  0  0  0  0  0  0  0
    9.5997  -16.1761   24.9528 C   0  0  0  0  0  0  0  0  0  0  0  0
    9.6287  -17.4625   25.0097 O   0  0  0  0  0  0  0  0  0  0  0  0
   11.0291  -13.0593   29.1854 C   0  0  0  0  0  0  0  0  0  0  0  0
   11.1532  -13.9895   27.9880 C   0  0  0  0  0  0  0  0  0  0  0  0
   10.8194  -15.3976   28.3326 C   0  0  2  0  0  0  0  0  0  0  0  0
   11.6439  -15.9861   29.4436 C   0  0  0  0  0  0  0  0  0  0  0  0
   10.8468  -16.2956   27.1371 C   0  0  2  0  0  0  0  0  0  0  0  0
   10.1850  -15.5176   26.0625 N   0  0  0  0  0  0  0  0  0  0  0  0
   10.1340  -17.5521   27.3886 C   0  0  0  0  0  0  0  0  0  0  0  0
    8.7569  -17.5879   27.2729 O   0  0  0  0  0  0  0  0  0  0  0  0
   10.7283  -18.5992   27.7063 O   0  0  0  0  0  0  0  0  0  0  0  0
  2  1  1  6
  3  2  1  0
  4  3  1  0
  5  4  1  0
  5  6  1  0
  7  6  1  0
  8  9  2  0
  8  2  1  0
 11 10  1  0
 11 12  1  0
 12 13  1  0
 14 13  1  1
 14 15  1  0
 15  8  1  0
 16 14  1  0
 17 16  2  0
 19 18  1  0
 19 20  1  0
 20 21  1  1
 20 22  1  0
 22 24  1  0
 22 23  1  6
 23 16  1  0
 24 25  1  0
 26 24  2  0
M  END
$$$$
