KMI.pdb
     RDKit          3D

 26 25  0  0  1  0  0  0  0  0999 V2000
    6.0238  -20.0784   24.6767 N   0  0  0  0  0  0  0  0  0  0  0  0
    5.3785  -19.5071   23.5366 C   0  0  1  0  0  0  0  0  0  0  0  0
    3.9047  -19.7928   23.4759 C   0  0  0  0  0  0  0  0  0  0  0  0
    3.6911  -21.0211   22.6299 C   0  0  0  0  0  0  0  0  0  0  0  0
    3.5323  -22.2735   23.4316 C   0  0  0  0  0  0  0  0  0  0  0  0
    3.3122  -23.5006   22.6057 C   0  0  0  0  0  0  0  0  0  0  0  0
    3.2506  -24.7113   23.3722 N   0  0  0  0  0  0  0  0  0  0  0  0
    5.6479  -18.0353   23.5415 C   0  0  0  0  0  0  0  0  0  0  0  0
    5.1691  -17.3666   22.5853 O   0  0  0  0  0  0  0  0  0  0  0  0
    8.4345  -13.2154   27.3966 C   0  0  0  0  0  0  0  0  0  0  0  0
    6.7042  -13.1088   26.8764 S   0  0  0  0  0  0  0  0  0  0  0  0
    6.0823  -14.7887   26.4068 C   0  0  0  0  0  0  0  0  0  0  0  0
    7.1956  -15.4425   25.6874 C   0  0  0  0  0  0  0  0  0  0  0  0
    6.8035  -16.0117   24.3535 C   0  0  2  0  0  0  0  0  0  0  0  0
    6.3947  -17.4017   24.5493 N   0  0  0  0  0  0  0  0  0  0  0  0
    7.9395  -15.9412   23.4034 C   0  0  0  0  0  0  0  0  0  0  0  0
    8.7711  -16.9209   23.3173 O   0  0  0  0  0  0  0  0  0  0  0  0
    7.4043  -12.1390   19.5745 C   0  0  0  0  0  0  0  0  0  0  0  0
    7.5743  -13.4468   20.3328 C   0  0  0  0  0  0  0  0  0  0  0  0
    9.0036  -13.7595   20.6017 C   0  0  2  0  0  0  0  0  0  0  0  0
    9.8756  -13.8198   19.3785 C   0  0  0  0  0  0  0  0  0  0  0  0
    9.1684  -15.0030   21.4160 C   0  0  2  0  0  0  0  0  0  0  0  0
    8.2086  -14.8537   22.5359 N   0  0  0  0  0  0  0  0  0  0  0  0
   10.5395  -15.1432   21.9167 C   0  0  0  0  0  0  0  0  0  0  0  0
   11.5252  -15.6243   21.0753 O   0  0  0  0  0  0  0  0  0  0  0  0
   10.8529  -14.8426   23.0838 O   0  0  0  0  0  0  0  0  0  0  0  0
  2  1  1  1
  3  2  1  0
  4  3  1  0
  5  4  1  0
  5  6  1  0
  7  6  1  0
  8  9  2  0
  8  2  1  0
 11 10  1  0
 11 12  1  0
 12 13  1  0
 14 13  1  1
 14 15  1  0
 15  8  1  0
 16 14  1  0
 17 16  2  0
 19 18  1  0
 19 20  1  0
 20 21  1  6
 20 22  1  0
 22 24  1  0
 22 23  1  1
 23 16  1  0
 24 25  1  0
 26 24  2  0
M  END
$$$$
