KMI.pdb
     RDKit          3D

 26 25  0  0  1  0  0  0  0  0999 V2000
    9.6327  -15.6879   19.8286 N   0  0  0  0  0  0  0  0  0  0  0  0
    9.1062  -16.5635   20.8280 C   0  0  1  0  0  0  0  0  0  0  0  0
    9.8110  -17.8887   20.8960 C   0  0  0  0  0  0  0  0  0  0  0  0
    9.0469  -18.8793   20.0564 C   0  0  0  0  0  0  0  0  0  0  0  0
    8.4195  -19.9759   20.8564 C   0  0  0  0  0  0  0  0  0  0  0  0
    7.5588  -20.8985   20.0536 C   0  0  0  0  0  0  0  0  0  0  0  0
    6.8740  -21.8830   20.8403 N   0  0  0  0  0  0  0  0  0  0  0  0
    9.1594  -15.8506   22.1425 C   0  0  0  0  0  0  0  0  0  0  0  0
   10.1971  -15.1747   22.3809 O   0  0  0  0  0  0  0  0  0  0  0  0
    6.6876  -11.4520   26.0581 C   0  0  0  0  0  0  0  0  0  0  0  0
    5.4970  -12.7289   25.5805 S   0  0  0  0  0  0  0  0  0  0  0  0
    6.1966  -13.7637   24.2133 C   0  0  0  0  0  0  0  0  0  0  0  0
    6.8817  -14.8937   24.8752 C   0  0  0  0  0  0  0  0  0  0  0  0
    8.2566  -15.1686   24.3354 C   0  0  2  0  0  0  0  0  0  0  0  0
    8.1187  -15.9131   23.0848 N   0  0  0  0  0  0  0  0  0  0  0  0
    9.0521  -15.9508   25.3119 C   0  0  0  0  0  0  0  0  0  0  0  0
    9.2026  -17.2200   25.1531 O   0  0  0  0  0  0  0  0  0  0  0  0
   10.5066  -13.2228   29.6000 C   0  0  0  0  0  0  0  0  0  0  0  0
   10.8526  -14.0574   28.3760 C   0  0  0  0  0  0  0  0  0  0  0  0
   10.6474  -15.5120   28.6108 C   0  0  2  0  0  0  0  0  0  0  0  0
   11.6727  -16.1565   29.5016 C   0  0  0  0  0  0  0  0  0  0  0  0
   10.5164  -16.2794   27.3339 C   0  0  2  0  0  0  0  0  0  0  0  0
    9.6987  -15.4125   26.4520 N   0  0  0  0  0  0  0  0  0  0  0  0
    9.8628  -17.5747   27.5465 C   0  0  0  0  0  0  0  0  0  0  0  0
    8.5151  -17.6148   27.8516 O   0  0  0  0  0  0  0  0  0  0  0  0
   10.4825  -18.6516   27.4624 O   0  0  0  0  0  0  0  0  0  0  0  0
  2  1  1  6
  3  2  1  0
  4  3  1  0
  5  4  1  0
  5  6  1  0
  7  6  1  0
  8  9  2  0
  8  2  1  0
 11 10  1  0
 11 12  1  0
 12 13  1  0
 14 13  1  1
 14 15  1  0
 15  8  1  0
 16 14  1  0
 17 16  2  0
 19 18  1  0
 19 20  1  0
 20 21  1  6
 20 22  1  0
 22 24  1  0
 22 23  1  6
 23 16  1  0
 24 25  1  0
 26 24  2  0
M  END
$$$$
