KMI.pdb
     RDKit          3D

 26 25  0  0  1  0  0  0  0  0999 V2000
    9.8674  -17.3410   19.4612 N   0  0  0  0  0  0  0  0  0  0  0  0
    8.9877  -17.5494   20.5682 C   0  0  1  0  0  0  0  0  0  0  0  0
    9.1093  -18.9153   21.1821 C   0  0  0  0  0  0  0  0  0  0  0  0
    8.2863  -19.8795   20.3678 C   0  0  0  0  0  0  0  0  0  0  0  0
    8.2678  -21.2654   20.9293 C   0  0  0  0  0  0  0  0  0  0  0  0
    7.5083  -22.2488   20.0972 C   0  0  0  0  0  0  0  0  0  0  0  0
    7.3817  -23.5433   20.7017 N   0  0  0  0  0  0  0  0  0  0  0  0
    9.2492  -16.4745   21.5758 C   0  0  0  0  0  0  0  0  0  0  0  0
   10.4261  -16.0253   21.6352 O   0  0  0  0  0  0  0  0  0  0  0  0
    5.1912  -12.3205   26.0602 C   0  0  0  0  0  0  0  0  0  0  0  0
    6.7897  -13.1684   26.1018 S   0  0  0  0  0  0  0  0  0  0  0  0
    7.6837  -12.9076   24.5011 C   0  0  0  0  0  0  0  0  0  0  0  0
    7.4023  -14.1066   23.6840 C   0  0  0  0  0  0  0  0  0  0  0  0
    8.6144  -14.9512   23.4104 C   0  0  2  0  0  0  0  0  0  0  0  0
    8.2514  -15.9709   22.4276 N   0  0  0  0  0  0  0  0  0  0  0  0
    9.0951  -15.5911   24.6584 C   0  0  0  0  0  0  0  0  0  0  0  0
    8.5220  -16.6566   25.1001 O   0  0  0  0  0  0  0  0  0  0  0  0
   10.2553  -14.2914   30.2143 C   0  0  0  0  0  0  0  0  0  0  0  0
   10.7592  -15.2196   29.1195 C   0  0  0  0  0  0  0  0  0  0  0  0
   10.4116  -14.7263   27.7597 C   0  0  2  0  0  0  0  0  0  0  0  0
    9.0760  -14.0431   27.6604 C   0  0  0  0  0  0  0  0  0  0  0  0
   10.5227  -15.7978   26.7224 C   0  0  2  0  0  0  0  0  0  0  0  0
   10.1782  -15.1275   25.4457 N   0  0  0  0  0  0  0  0  0  0  0  0
    9.6062  -16.9098   26.9938 C   0  0  0  0  0  0  0  0  0  0  0  0
   10.0676  -18.0210   27.6743 O   0  0  0  0  0  0  0  0  0  0  0  0
    8.4153  -16.8911   26.6303 O   0  0  0  0  0  0  0  0  0  0  0  0
  2  1  1  6
  3  2  1  0
  4  3  1  0
  5  4  1  0
  5  6  1  0
  7  6  1  0
  8  9  2  0
  8  2  1  0
 11 10  1  0
 11 12  1  0
 12 13  1  0
 14 13  1  1
 14 15  1  0
 15  8  1  0
 16 14  1  0
 17 16  2  0
 19 18  1  0
 19 20  1  0
 20 21  1  1
 20 22  1  0
 22 24  1  0
 22 23  1  6
 23 16  1  0
 24 25  1  0
 26 24  2  0
M  END
$$$$
