KMI.pdb
     RDKit          3D

 26 25  0  0  1  0  0  0  0  0999 V2000
   10.5121  -17.0492   19.8719 N   0  0  0  0  0  0  0  0  0  0  0  0
    9.4381  -17.3827   20.7538 C   0  0  1  0  0  0  0  0  0  0  0  0
    9.4321  -18.8256   21.1728 C   0  0  0  0  0  0  0  0  0  0  0  0
    8.8762  -19.6491   20.0402 C   0  0  0  0  0  0  0  0  0  0  0  0
    7.5912  -20.3345   20.3798 C   0  0  0  0  0  0  0  0  0  0  0  0
    7.0245  -21.1523   19.2633 C   0  0  0  0  0  0  0  0  0  0  0  0
    7.0961  -22.5671   19.4875 N   0  0  0  0  0  0  0  0  0  0  0  0
    9.5126  -16.4721   21.9389 C   0  0  0  0  0  0  0  0  0  0  0  0
   10.6612  -16.0836   22.2858 O   0  0  0  0  0  0  0  0  0  0  0  0
    5.5695  -11.5181   26.5871 C   0  0  0  0  0  0  0  0  0  0  0  0
    5.5913  -12.8080   25.3175 S   0  0  0  0  0  0  0  0  0  0  0  0
    7.2554  -13.6192   25.2712 C   0  0  0  0  0  0  0  0  0  0  0  0
    7.2169  -14.5493   24.1232 C   0  0  0  0  0  0  0  0  0  0  0  0
    8.5494  -15.1601   23.7937 C   0  0  2  0  0  0  0  0  0  0  0  0
    8.3749  -16.0537   22.6497 N   0  0  0  0  0  0  0  0  0  0  0  0
    9.0780  -15.9138   24.9559 C   0  0  0  0  0  0  0  0  0  0  0  0
    8.8027  -17.1643   25.0942 O   0  0  0  0  0  0  0  0  0  0  0  0
   10.2003  -13.7463   29.9657 C   0  0  0  0  0  0  0  0  0  0  0  0
    9.7421  -14.7189   28.8894 C   0  0  0  0  0  0  0  0  0  0  0  0
   10.8825  -15.2818   28.1175 C   0  0  2  0  0  0  0  0  0  0  0  0
   11.8166  -14.2566   27.5371 C   0  0  0  0  0  0  0  0  0  0  0  0
   10.4331  -16.2325   27.0542 C   0  0  2  0  0  0  0  0  0  0  0  0
    9.9003  -15.3690   25.9732 N   0  0  0  0  0  0  0  0  0  0  0  0
    9.4006  -17.1484   27.5495 C   0  0  0  0  0  0  0  0  0  0  0  0
    8.0750  -16.9126   27.2363 O   0  0  0  0  0  0  0  0  0  0  0  0
    9.6755  -18.1409   28.2496 O   0  0  0  0  0  0  0  0  0  0  0  0
  2  1  1  6
  3  2  1  0
  4  3  1  0
  5  4  1  0
  5  6  1  0
  7  6  1  0
  8  9  2  0
  8  2  1  0
 11 10  1  0
 11 12  1  0
 12 13  1  0
 14 13  1  1
 14 15  1  0
 15  8  1  0
 16 14  1  0
 17 16  2  0
 19 18  1  0
 19 20  1  0
 20 21  1  6
 20 22  1  0
 22 24  1  0
 22 23  1  6
 23 16  1  0
 24 25  1  0
 26 24  2  0
M  END
$$$$
