KMI.pdb
     RDKit          3D

 26 25  0  0  1  0  0  0  0  0999 V2000
    9.6818  -16.7491   19.6837 N   0  0  0  0  0  0  0  0  0  0  0  0
    8.9809  -17.2963   20.8026 C   0  0  1  0  0  0  0  0  0  0  0  0
    9.4075  -18.6938   21.1525 C   0  0  0  0  0  0  0  0  0  0  0  0
    9.0735  -19.5986   19.9950 C   0  0  0  0  0  0  0  0  0  0  0  0
   10.2801  -20.1676   19.3191 C   0  0  0  0  0  0  0  0  0  0  0  0
    9.9639  -21.0994   18.1930 C   0  0  0  0  0  0  0  0  0  0  0  0
   11.1227  -21.5956   17.5090 N   0  0  0  0  0  0  0  0  0  0  0  0
    9.1604  -16.3663   21.9609 C   0  0  0  0  0  0  0  0  0  0  0  0
   10.2745  -15.7827   22.0539 O   0  0  0  0  0  0  0  0  0  0  0  0
    5.5096  -11.3502   24.8687 C   0  0  0  0  0  0  0  0  0  0  0  0
    5.5272  -12.9152   25.7777 S   0  0  0  0  0  0  0  0  0  0  0  0
    7.1850  -13.7233   25.6099 C   0  0  0  0  0  0  0  0  0  0  0  0
    7.0904  -14.5901   24.4166 C   0  0  0  0  0  0  0  0  0  0  0  0
    8.4067  -15.1709   23.9839 C   0  0  2  0  0  0  0  0  0  0  0  0
    8.1541  -16.1349   22.9141 N   0  0  0  0  0  0  0  0  0  0  0  0
    9.0817  -15.8365   25.1239 C   0  0  0  0  0  0  0  0  0  0  0  0
    9.0187  -17.1163   25.2539 O   0  0  0  0  0  0  0  0  0  0  0  0
   11.2443  -14.3918   30.6116 C   0  0  0  0  0  0  0  0  0  0  0  0
   11.0204  -15.4747   29.5670 C   0  0  0  0  0  0  0  0  0  0  0  0
   10.9523  -14.9207   28.1881 C   0  0  2  0  0  0  0  0  0  0  0  0
   10.1194  -13.6766   28.0501 C   0  0  0  0  0  0  0  0  0  0  0  0
   10.5222  -15.9445   27.1864 C   0  0  2  0  0  0  0  0  0  0  0  0
    9.8296  -15.1720   26.1273 N   0  0  0  0  0  0  0  0  0  0  0  0
    9.6237  -16.9388   27.7816 C   0  0  0  0  0  0  0  0  0  0  0  0
   10.1571  -18.0577   28.3935 O   0  0  0  0  0  0  0  0  0  0  0  0
    8.3851  -16.8125   27.7561 O   0  0  0  0  0  0  0  0  0  0  0  0
  2  1  1  6
  3  2  1  0
  4  3  1  0
  5  4  1  0
  5  6  1  0
  7  6  1  0
  8  9  2  0
  8  2  1  0
 11 10  1  0
 11 12  1  0
 12 13  1  0
 14 13  1  1
 14 15  1  0
 15  8  1  0
 16 14  1  0
 17 16  2  0
 19 18  1  0
 19 20  1  0
 20 21  1  1
 20 22  1  0
 22 24  1  0
 22 23  1  6
 23 16  1  0
 24 25  1  0
 26 24  2  0
M  END
$$$$
