KMI.pdb
     RDKit          3D

 26 25  0  0  1  0  0  0  0  0999 V2000
    9.8933  -16.1171   19.7795 N   0  0  0  0  0  0  0  0  0  0  0  0
    9.2799  -16.8839   20.8180 C   0  0  1  0  0  0  0  0  0  0  0  0
    9.8236  -18.2798   20.9338 C   0  0  0  0  0  0  0  0  0  0  0  0
    9.1041  -19.1560   19.9416 C   0  0  0  0  0  0  0  0  0  0  0  0
    8.2679  -20.2167   20.5836 C   0  0  0  0  0  0  0  0  0  0  0  0
    7.6033  -21.1387   19.6116 C   0  0  0  0  0  0  0  0  0  0  0  0
    6.8065  -22.1574   20.2316 N   0  0  0  0  0  0  0  0  0  0  0  0
    9.4345  -16.1313   22.1020 C   0  0  0  0  0  0  0  0  0  0  0  0
   10.5577  -15.5998   22.3176 O   0  0  0  0  0  0  0  0  0  0  0  0
    6.0046  -12.3427   26.5975 C   0  0  0  0  0  0  0  0  0  0  0  0
    5.4125  -12.7793   24.9438 S   0  0  0  0  0  0  0  0  0  0  0  0
    6.8023  -13.4819   23.9416 C   0  0  0  0  0  0  0  0  0  0  0  0
    7.2819  -14.6616   24.6915 C   0  0  0  0  0  0  0  0  0  0  0  0
    8.6138  -15.1761   24.2241 C   0  0  2  0  0  0  0  0  0  0  0  0
    8.3960  -16.0061   23.0404 N   0  0  0  0  0  0  0  0  0  0  0  0
    9.2692  -15.9689   25.2918 C   0  0  0  0  0  0  0  0  0  0  0  0
    9.2630  -17.2557   25.2369 O   0  0  0  0  0  0  0  0  0  0  0  0
   10.7613  -13.9176   30.3329 C   0  0  0  0  0  0  0  0  0  0  0  0
   10.2182  -14.5957   29.0841 C   0  0  0  0  0  0  0  0  0  0  0  0
   11.2629  -15.3765   28.3685 C   0  0  2  0  0  0  0  0  0  0  0  0
   12.3555  -14.5483   27.7516 C   0  0  0  0  0  0  0  0  0  0  0  0
   10.6797  -16.3040   27.3506 C   0  0  2  0  0  0  0  0  0  0  0  0
    9.9387  -15.4241   26.4154 N   0  0  0  0  0  0  0  0  0  0  0  0
    9.7828  -17.2871   27.9663 C   0  0  0  0  0  0  0  0  0  0  0  0
   10.3172  -18.3316   28.6973 O   0  0  0  0  0  0  0  0  0  0  0  0
    8.5446  -17.2163   27.8542 O   0  0  0  0  0  0  0  0  0  0  0  0
  2  1  1  6
  3  2  1  0
  4  3  1  0
  5  4  1  0
  5  6  1  0
  7  6  1  0
  8  9  2  0
  8  2  1  0
 11 10  1  0
 11 12  1  0
 12 13  1  0
 14 13  1  1
 14 15  1  0
 15  8  1  0
 16 14  1  0
 17 16  2  0
 19 18  1  0
 19 20  1  0
 20 21  1  6
 20 22  1  0
 22 24  1  0
 22 23  1  6
 23 16  1  0
 24 25  1  0
 26 24  2  0
M  END
$$$$
