KMI.pdb
     RDKit          3D

 26 25  0  0  1  0  0  0  0  0999 V2000
    7.8427  -16.6037   20.4328 N   0  0  0  0  0  0  0  0  0  0  0  0
    9.0641  -15.8660   20.5160 C   0  0  1  0  0  0  0  0  0  0  0  0
    9.1442  -14.7267   19.5398 C   0  0  0  0  0  0  0  0  0  0  0  0
    8.1542  -14.9769   18.4320 C   0  0  0  0  0  0  0  0  0  0  0  0
    8.3640  -14.0996   17.2393 C   0  0  0  0  0  0  0  0  0  0  0  0
    7.3599  -14.3034   16.1500 C   0  0  0  0  0  0  0  0  0  0  0  0
    7.6505  -13.5732   14.9502 N   0  0  0  0  0  0  0  0  0  0  0  0
    9.2207  -15.3876   21.9251 C   0  0  0  0  0  0  0  0  0  0  0  0
   10.3057  -14.8128   22.2129 O   0  0  0  0  0  0  0  0  0  0  0  0
    5.4482  -11.6758   26.2781 C   0  0  0  0  0  0  0  0  0  0  0  0
    5.4816  -13.4608   26.5755 S   0  0  0  0  0  0  0  0  0  0  0  0
    7.1672  -14.1309   26.2021 C   0  0  0  0  0  0  0  0  0  0  0  0
    7.0972  -14.6461   24.8187 C   0  0  0  0  0  0  0  0  0  0  0  0
    8.4372  -14.9858   24.2303 C   0  0  2  0  0  0  0  0  0  0  0  0
    8.2240  -15.5566   22.9013 N   0  0  0  0  0  0  0  0  0  0  0  0
    9.1544  -15.9540   25.0942 C   0  0  0  0  0  0  0  0  0  0  0  0
    9.0619  -17.2177   24.8633 O   0  0  0  0  0  0  0  0  0  0  0  0
   11.6139  -14.3435   29.8997 C   0  0  0  0  0  0  0  0  0  0  0  0
   10.7213  -15.1086   28.9342 C   0  0  0  0  0  0  0  0  0  0  0  0
   11.5061  -15.9202   27.9655 C   0  0  2  0  0  0  0  0  0  0  0  0
   12.5648  -15.1580   27.2182 C   0  0  0  0  0  0  0  0  0  0  0  0
   10.6302  -16.6628   27.0074 C   0  0  2  0  0  0  0  0  0  0  0  0
    9.9752  -15.6087   26.1964 N   0  0  0  0  0  0  0  0  0  0  0  0
    9.6338  -17.4793   27.7078 C   0  0  0  0  0  0  0  0  0  0  0  0
   10.0267  -18.6539   28.3217 O   0  0  0  0  0  0  0  0  0  0  0  0
    8.4340  -17.1516   27.7708 O   0  0  0  0  0  0  0  0  0  0  0  0
  2  1  1  1
  3  2  1  0
  4  3  1  0
  5  4  1  0
  5  6  1  0
  7  6  1  0
  8  9  2  0
  8  2  1  0
 11 10  1  0
 11 12  1  0
 12 13  1  0
 14 13  1  1
 14 15  1  0
 15  8  1  0
 16 14  1  0
 17 16  2  0
 19 18  1  0
 19 20  1  0
 20 21  1  6
 20 22  1  0
 22 24  1  0
 22 23  1  6
 23 16  1  0
 24 25  1  0
 26 24  2  0
M  END
$$$$
