KMI.pdb
     RDKit          3D

 26 25  0  0  1  0  0  0  0  0999 V2000
    8.1785  -17.5980   20.4664 N   0  0  0  0  0  0  0  0  0  0  0  0
    9.4810  -17.0152   20.5477 C   0  0  1  0  0  0  0  0  0  0  0  0
    9.8523  -16.2054   19.3378 C   0  0  0  0  0  0  0  0  0  0  0  0
    8.9221  -16.5758   18.2119 C   0  0  0  0  0  0  0  0  0  0  0  0
    9.2724  -15.9219   16.9134 C   0  0  0  0  0  0  0  0  0  0  0  0
    8.2521  -16.1197   15.8380 C   0  0  0  0  0  0  0  0  0  0  0  0
    8.4493  -15.2814   14.6911 N   0  0  0  0  0  0  0  0  0  0  0  0
    9.5418  -16.1902   21.7945 C   0  0  0  0  0  0  0  0  0  0  0  0
   10.5853  -15.5047   21.9721 O   0  0  0  0  0  0  0  0  0  0  0  0
    5.4123  -11.7542   25.1503 C   0  0  0  0  0  0  0  0  0  0  0  0
    5.5455  -13.4412   25.7922 S   0  0  0  0  0  0  0  0  0  0  0  0
    7.2797  -14.0582   25.5888 C   0  0  0  0  0  0  0  0  0  0  0  0
    7.2866  -14.8283   24.3273 C   0  0  0  0  0  0  0  0  0  0  0  0
    8.6492  -15.3142   23.9218 C   0  0  2  0  0  0  0  0  0  0  0  0
    8.5018  -16.1611   22.7392 N   0  0  0  0  0  0  0  0  0  0  0  0
    9.2781  -16.0800   25.0246 C   0  0  0  0  0  0  0  0  0  0  0  0
    9.2045  -17.3657   25.0422 O   0  0  0  0  0  0  0  0  0  0  0  0
   10.8615  -13.7464   29.9149 C   0  0  0  0  0  0  0  0  0  0  0  0
   10.2290  -14.7145   28.9266 C   0  0  0  0  0  0  0  0  0  0  0  0
   11.2461  -15.4243   28.1051 C   0  0  2  0  0  0  0  0  0  0  0  0
   12.2260  -14.5262   27.4025 C   0  0  0  0  0  0  0  0  0  0  0  0
   10.6256  -16.3746   27.1313 C   0  0  2  0  0  0  0  0  0  0  0  0
    9.9911  -15.5095   26.1081 N   0  0  0  0  0  0  0  0  0  0  0  0
    9.6313  -17.2374   27.7770 C   0  0  0  0  0  0  0  0  0  0  0  0
   10.0508  -18.3528   28.4776 O   0  0  0  0  0  0  0  0  0  0  0  0
    8.4100  -17.0013   27.7172 O   0  0  0  0  0  0  0  0  0  0  0  0
  2  1  1  6
  3  2  1  0
  4  3  1  0
  5  4  1  0
  5  6  1  0
  7  6  1  0
  8  9  2  0
  8  2  1  0
 11 10  1  0
 11 12  1  0
 12 13  1  0
 14 13  1  1
 14 15  1  0
 15  8  1  0
 16 14  1  0
 17 16  2  0
 19 18  1  0
 19 20  1  0
 20 21  1  6
 20 22  1  0
 22 24  1  0
 22 23  1  6
 23 16  1  0
 24 25  1  0
 26 24  2  0
M  END
$$$$
