KMI.pdb
     RDKit          3D

 26 25  0  0  1  0  0  0  0  0999 V2000
    7.4952  -17.7724   20.8766 N   0  0  0  0  0  0  0  0  0  0  0  0
    8.7756  -17.2055   20.5905 C   0  0  1  0  0  0  0  0  0  0  0  0
    8.8150  -16.4323   19.3029 C   0  0  0  0  0  0  0  0  0  0  0  0
    9.3813  -17.3235   18.2282 C   0  0  0  0  0  0  0  0  0  0  0  0
   10.6818  -16.8339   17.6756 C   0  0  0  0  0  0  0  0  0  0  0  0
   11.2266  -17.6755   16.5659 C   0  0  0  0  0  0  0  0  0  0  0  0
   10.2553  -18.0166   15.5672 N   0  0  0  0  0  0  0  0  0  0  0  0
    9.1727  -16.3496   21.7518 C   0  0  0  0  0  0  0  0  0  0  0  0
   10.3910  -16.0343   21.8352 O   0  0  0  0  0  0  0  0  0  0  0  0
    4.9199  -13.5325   25.7985 C   0  0  0  0  0  0  0  0  0  0  0  0
    6.3172  -12.3826   25.7621 S   0  0  0  0  0  0  0  0  0  0  0  0
    7.8811  -13.3021   25.3904 C   0  0  0  0  0  0  0  0  0  0  0  0
    7.5397  -14.2569   24.3152 C   0  0  0  0  0  0  0  0  0  0  0  0
    8.7233  -15.0067   23.7727 C   0  0  2  0  0  0  0  0  0  0  0  0
    8.2545  -15.9039   22.7178 N   0  0  0  0  0  0  0  0  0  0  0  0
    9.3850  -15.7832   24.8485 C   0  0  0  0  0  0  0  0  0  0  0  0
    9.4998  -17.0618   24.7452 O   0  0  0  0  0  0  0  0  0  0  0  0
   10.8791  -12.9968   29.2203 C   0  0  0  0  0  0  0  0  0  0  0  0
   11.1839  -13.8870   28.0249 C   0  0  0  0  0  0  0  0  0  0  0  0
   10.7500  -15.2928   28.2453 C   0  0  2  0  0  0  0  0  0  0  0  0
   11.5363  -16.0381   29.2877 C   0  0  0  0  0  0  0  0  0  0  0  0
   10.7038  -16.0778   26.9733 C   0  0  2  0  0  0  0  0  0  0  0  0
    9.9350  -15.2296   26.0312 N   0  0  0  0  0  0  0  0  0  0  0  0
   10.0487  -17.3760   27.1630 C   0  0  0  0  0  0  0  0  0  0  0  0
    8.6694  -17.4551   27.1171 O   0  0  0  0  0  0  0  0  0  0  0  0
   10.6947  -18.4210   27.3665 O   0  0  0  0  0  0  0  0  0  0  0  0
  2  1  1  1
  3  2  1  0
  4  3  1  0
  5  4  1  0
  5  6  1  0
  7  6  1  0
  8  9  2  0
  8  2  1  0
 11 10  1  0
 11 12  1  0
 12 13  1  0
 14 13  1  1
 14 15  1  0
 15  8  1  0
 16 14  1  0
 17 16  2  0
 19 18  1  0
 19 20  1  0
 20 21  1  1
 20 22  1  0
 22 24  1  0
 22 23  1  6
 23 16  1  0
 24 25  1  0
 26 24  2  0
M  END
$$$$
