KMI.pdb
     RDKit          3D

 26 25  0  0  1  0  0  0  0  0999 V2000
    5.0821  -19.9537   21.1334 N   0  0  0  0  0  0  0  0  0  0  0  0
    6.1757  -19.0480   21.2959 C   0  0  1  0  0  0  0  0  0  0  0  0
    6.2446  -17.9933   20.2280 C   0  0  0  0  0  0  0  0  0  0  0  0
    7.1370  -18.4924   19.1214 C   0  0  0  0  0  0  0  0  0  0  0  0
    7.3341  -17.4965   18.0234 C   0  0  0  0  0  0  0  0  0  0  0  0
    8.1261  -18.0159   16.8660 C   0  0  0  0  0  0  0  0  0  0  0  0
    8.5059  -17.0039   15.9233 N   0  0  0  0  0  0  0  0  0  0  0  0
    6.0724  -18.4374   22.6581 C   0  0  0  0  0  0  0  0  0  0  0  0
    5.0004  -17.8310   22.9293 O   0  0  0  0  0  0  0  0  0  0  0  0
    9.4046  -20.1385   27.8202 C   0  0  0  0  0  0  0  0  0  0  0  0
    7.8501  -19.5081   28.4999 S   0  0  0  0  0  0  0  0  0  0  0  0
    7.1194  -18.2563   27.3472 C   0  0  0  0  0  0  0  0  0  0  0  0
    7.3343  -18.7903   25.9859 C   0  0  0  0  0  0  0  0  0  0  0  0
    6.9327  -17.8411   24.8927 C   0  0  2  0  0  0  0  0  0  0  0  0
    7.1036  -18.5201   23.6092 N   0  0  0  0  0  0  0  0  0  0  0  0
    7.7640  -16.6143   24.9375 C   0  0  0  0  0  0  0  0  0  0  0  0
    8.9503  -16.6192   24.4360 O   0  0  0  0  0  0  0  0  0  0  0  0
    6.1540  -11.6542   27.2540 C   0  0  0  0  0  0  0  0  0  0  0  0
    6.4667  -13.0478   26.7302 C   0  0  0  0  0  0  0  0  0  0  0  0
    7.4527  -13.0221   25.6166 C   0  0  2  0  0  0  0  0  0  0  0  0
    6.8601  -12.7759   24.2569 C   0  0  0  0  0  0  0  0  0  0  0  0
    8.3124  -14.2455   25.5921 C   0  0  2  0  0  0  0  0  0  0  0  0
    7.3596  -15.3774   25.4981 N   0  0  0  0  0  0  0  0  0  0  0  0
    9.1347  -14.3523   26.8014 C   0  0  0  0  0  0  0  0  0  0  0  0
   10.2120  -13.5024   26.9689 O   0  0  0  0  0  0  0  0  0  0  0  0
    8.8973  -15.1890   27.6927 O   0  0  0  0  0  0  0  0  0  0  0  0
  2  1  1  6
  3  2  1  0
  4  3  1  0
  5  4  1  0
  5  6  1  0
  7  6  1  0
  8  9  2  0
  8  2  1  0
 11 10  1  0
 11 12  1  0
 12 13  1  0
 14 13  1  1
 14 15  1  0
 15  8  1  0
 16 14  1  0
 17 16  2  0
 19 18  1  0
 19 20  1  0
 20 21  1  6
 20 22  1  0
 22 24  1  0
 22 23  1  1
 23 16  1  0
 24 25  1  0
 26 24  2  0
M  END
$$$$
