KMI.pdb
     RDKit          3D

 26 25  0  0  1  0  0  0  0  0999 V2000
    8.1739  -18.0208   20.4992 N   0  0  0  0  0  0  0  0  0  0  0  0
    9.5153  -17.5348   20.4149 C   0  0  1  0  0  0  0  0  0  0  0  0
    9.8399  -16.8961   19.0943 C   0  0  0  0  0  0  0  0  0  0  0  0
    9.6322  -17.9176   18.0064 C   0  0  0  0  0  0  0  0  0  0  0  0
    9.9585  -17.4042   16.6402 C   0  0  0  0  0  0  0  0  0  0  0  0
    9.7029  -18.3883   15.5436 C   0  0  0  0  0  0  0  0  0  0  0  0
   10.2150  -17.9797   14.2677 N   0  0  0  0  0  0  0  0  0  0  0  0
    9.7347  -16.5829   21.5484 C   0  0  0  0  0  0  0  0  0  0  0  0
   10.8793  -16.0612   21.6391 O   0  0  0  0  0  0  0  0  0  0  0  0
    5.4828  -13.4833   26.5976 C   0  0  0  0  0  0  0  0  0  0  0  0
    6.3119  -12.7504   25.1653 S   0  0  0  0  0  0  0  0  0  0  0  0
    7.9736  -13.5331   24.9298 C   0  0  0  0  0  0  0  0  0  0  0  0
    7.7796  -14.5900   23.9150 C   0  0  0  0  0  0  0  0  0  0  0  0
    9.0414  -15.3200   23.5519 C   0  0  2  0  0  0  0  0  0  0  0  0
    8.7326  -16.2668   22.4815 N   0  0  0  0  0  0  0  0  0  0  0  0
    9.5844  -16.0383   24.7298 C   0  0  0  0  0  0  0  0  0  0  0  0
    9.3731  -17.3010   24.8701 O   0  0  0  0  0  0  0  0  0  0  0  0
   10.0628  -13.9227   29.7822 C   0  0  0  0  0  0  0  0  0  0  0  0
    9.8375  -14.8233   28.5770 C   0  0  0  0  0  0  0  0  0  0  0  0
   11.1158  -15.3085   27.9906 C   0  0  2  0  0  0  0  0  0  0  0  0
   12.0655  -14.2230   27.5662 C   0  0  0  0  0  0  0  0  0  0  0  0
   10.8950  -16.2707   26.8673 C   0  0  2  0  0  0  0  0  0  0  0  0
   10.3544  -15.4452   25.7608 N   0  0  0  0  0  0  0  0  0  0  0  0
    9.9513  -17.3293   27.2401 C   0  0  0  0  0  0  0  0  0  0  0  0
    8.6591  -17.2921   26.7505 O   0  0  0  0  0  0  0  0  0  0  0  0
   10.2731  -18.2704   27.9895 O   0  0  0  0  0  0  0  0  0  0  0  0
  2  1  1  6
  3  2  1  0
  4  3  1  0
  5  4  1  0
  5  6  1  0
  7  6  1  0
  8  9  2  0
  8  2  1  0
 11 10  1  0
 11 12  1  0
 12 13  1  0
 14 13  1  1
 14 15  1  0
 15  8  1  0
 16 14  1  0
 17 16  2  0
 19 18  1  0
 19 20  1  0
 20 21  1  6
 20 22  1  0
 22 24  1  0
 22 23  1  6
 23 16  1  0
 24 25  1  0
 26 24  2  0
M  END
$$$$
