FLQ.pdb
     RDKit          3D

 29 29  0  0  1  0  0  0  0  0999 V2000
    7.4129  -16.8179   20.9936 N   0  0  0  0  0  0  0  0  0  0  0  0
    6.7109  -16.4959   22.1973 C   0  0  1  0  0  0  0  0  0  0  0  0
    6.2495  -17.7836   22.8607 C   0  0  0  0  0  0  0  0  0  0  0  0
    4.9607  -18.1671   22.2411 C   0  0  0  0  0  0  0  0  0  0  0  0
    4.0966  -19.0376   22.8569 C   0  0  0  0  0  0  0  0  0  0  0  0
    2.8889  -19.3992   22.2802 C   0  0  0  0  0  0  0  0  0  0  0  0
    2.5426  -18.8709   21.0527 C   0  0  0  0  0  0  0  0  0  0  0  0
    3.3904  -17.9971   20.4154 C   0  0  0  0  0  0  0  0  0  0  0  0
    4.5851  -17.6499   21.0034 C   0  0  0  0  0  0  0  0  0  0  0  0
    7.6147  -15.8212   23.1631 C   0  0  0  0  0  0  0  0  0  0  0  0
    8.8638  -15.9425   23.0244 O   0  0  0  0  0  0  0  0  0  0  0  0
    5.9412  -11.6310   26.6648 C   0  0  0  0  0  0  0  0  0  0  0  0
    6.5349  -12.4205   25.4800 C   0  0  1  0  0  0  0  0  0  0  0  0
    7.2250  -11.3734   24.6336 C   0  0  0  0  0  0  0  0  0  0  0  0
    7.4390  -13.4224   26.0935 C   0  0  0  0  0  0  0  0  0  0  0  0
    7.9753  -14.5012   25.2333 C   0  0  2  0  0  0  0  0  0  0  0  0
    7.1185  -15.0417   24.2407 N   0  0  0  0  0  0  0  0  0  0  0  0
    8.5449  -15.5708   26.1319 C   0  0  0  0  0  0  0  0  0  0  0  0
    7.8769  -15.9732   27.1175 O   0  0  0  0  0  0  0  0  0  0  0  0
    7.9381  -20.7502   25.1028 N   0  0  0  0  0  0  0  0  0  0  0  0
    9.1125  -20.4100   24.3682 C   0  0  0  0  0  0  0  0  0  0  0  0
    9.4655  -21.0953   23.3937 O   0  0  0  0  0  0  0  0  0  0  0  0
    9.8832  -19.2295   24.8040 C   0  0  0  0  0  0  0  0  0  0  0  0
    9.3596  -18.5374   26.0145 C   0  0  0  0  0  0  0  0  0  0  0  0
   10.2154  -17.4153   26.5278 C   0  0  2  0  0  0  0  0  0  0  0  0
    9.8157  -16.1406   25.9004 N   0  0  0  0  0  0  0  0  0  0  0  0
   11.6497  -17.6107   26.2393 C   0  0  0  0  0  0  0  0  0  0  0  0
   12.3195  -18.5435   26.7449 O   0  0  0  0  0  0  0  0  0  0  0  0
   12.2994  -16.7451   25.3827 O   0  0  0  0  0  0  0  0  0  0  0  0
  2  1  1  6
  3  4  1  0
  3  2  1  0
  4  5  2  0
  5  6  1  0
  7  6  2  0
  8  7  1  0
  9  4  1  0
  9  8  2  0
 10  2  1  0
 10 17  1  0
 11 10  2  0
 13 12  1  1
 14 13  1  0
 15 13  1  0
 16 15  1  1
 16 17  1  0
 18 16  1  0
 19 18  2  0
 20 21  1  0
 21 22  2  0
 21 23  1  0
 23 24  1  0
 25 24  1  6
 25 26  1  0
 25 27  1  0
 26 18  1  0
 27 29  1  0
 28 27  2  0
M  END
$$$$
