FLQ.pdb
     RDKit          3D

 29 29  0  0  1  0  0  0  0  0999 V2000
    9.4803  -16.2304   25.2882 N   0  0  0  0  0  0  0  0  0  0  0  0
    8.0927  -16.5761   25.3145 C   0  0  1  0  0  0  0  0  0  0  0  0
    7.3831  -15.6975   26.3322 C   0  0  0  0  0  0  0  0  0  0  0  0
    8.4238  -15.0094   27.1294 C   0  0  0  0  0  0  0  0  0  0  0  0
    9.2269  -15.6928   28.0078 C   0  0  0  0  0  0  0  0  0  0  0  0
   10.2026  -15.0525   28.7561 C   0  0  0  0  0  0  0  0  0  0  0  0
   10.3738  -13.6897   28.6162 C   0  0  0  0  0  0  0  0  0  0  0  0
    9.5824  -12.9825   27.7433 C   0  0  0  0  0  0  0  0  0  0  0  0
    8.6191  -13.6354   27.0090 C   0  0  0  0  0  0  0  0  0  0  0  0
    7.4613  -16.2975   23.9998 C   0  0  0  0  0  0  0  0  0  0  0  0
    6.3120  -16.7615   23.7587 O   0  0  0  0  0  0  0  0  0  0  0  0
    8.1408  -12.5650   19.6334 C   0  0  0  0  0  0  0  0  0  0  0  0
    8.5206  -13.4473   20.8404 C   0  0  1  0  0  0  0  0  0  0  0  0
    8.2207  -12.5875   22.0487 C   0  0  0  0  0  0  0  0  0  0  0  0
    7.6803  -14.6621   20.7147 C   0  0  0  0  0  0  0  0  0  0  0  0
    7.9563  -15.8010   21.6192 C   0  0  2  0  0  0  0  0  0  0  0  0
    8.1100  -15.5240   23.0017 N   0  0  0  0  0  0  0  0  0  0  0  0
    9.1333  -16.5619   21.0609 C   0  0  0  0  0  0  0  0  0  0  0  0
    9.1250  -16.9205   19.8564 O   0  0  0  0  0  0  0  0  0  0  0  0
   12.6966  -13.7414   18.7649 N   0  0  0  0  0  0  0  0  0  0  0  0
   13.7655  -14.4941   19.3354 C   0  0  0  0  0  0  0  0  0  0  0  0
   14.9444  -14.1392   19.1677 O   0  0  0  0  0  0  0  0  0  0  0  0
   13.4232  -15.6954   20.1211 C   0  0  0  0  0  0  0  0  0  0  0  0
   12.0653  -15.6917   20.7329 C   0  0  0  0  0  0  0  0  0  0  0  0
   11.6031  -17.0166   21.2676 C   0  0  2  0  0  0  0  0  0  0  0  0
   10.2549  -16.8880   21.8540 N   0  0  0  0  0  0  0  0  0  0  0  0
   12.4873  -17.5482   22.3233 C   0  0  0  0  0  0  0  0  0  0  0  0
   13.6980  -17.8090   22.1224 O   0  0  0  0  0  0  0  0  0  0  0  0
   11.9830  -17.7748   23.5881 O   0  0  0  0  0  0  0  0  0  0  0  0
  2  1  1  6
  3  4  1  0
  3  2  1  0
  4  5  2  0
  5  6  1  0
  7  6  2  0
  8  7  1  0
  9  4  1  0
  9  8  2  0
 10  2  1  0
 10 17  1  0
 11 10  2  0
 13 12  1  6
 14 13  1  0
 15 13  1  0
 16 15  1  6
 16 17  1  0
 18 16  1  0
 19 18  2  0
 20 21  1  0
 21 22  2  0
 21 23  1  0
 23 24  1  0
 25 24  1  1
 25 26  1  0
 25 27  1  0
 26 18  1  0
 27 29  1  0
 28 27  2  0
M  END
$$$$
