FLQ.pdb
     RDKit          3D

 29 29  0  0  1  0  0  0  0  0999 V2000
    5.6154  -18.2993   25.3534 N   0  0  0  0  0  0  0  0  0  0  0  0
    6.0764  -16.9556   25.1873 C   0  0  1  0  0  0  0  0  0  0  0  0
    6.6230  -16.4524   26.5137 C   0  0  0  0  0  0  0  0  0  0  0  0
    6.9419  -15.0161   26.3480 C   0  0  0  0  0  0  0  0  0  0  0  0
    5.9712  -14.0929   26.0495 C   0  0  0  0  0  0  0  0  0  0  0  0
    6.2654  -12.7472   25.8937 C   0  0  0  0  0  0  0  0  0  0  0  0
    7.5699  -12.3204   26.0422 C   0  0  0  0  0  0  0  0  0  0  0  0
    8.5603  -13.2249   26.3411 C   0  0  0  0  0  0  0  0  0  0  0  0
    8.2491  -14.5568   26.4920 C   0  0  0  0  0  0  0  0  0  0  0  0
    7.2010  -16.9065   24.2189 C   0  0  0  0  0  0  0  0  0  0  0  0
    8.1442  -17.7387   24.3289 O   0  0  0  0  0  0  0  0  0  0  0  0
    8.0665  -12.8893   19.9526 C   0  0  0  0  0  0  0  0  0  0  0  0
    8.1966  -13.5680   21.3317 C   0  0  1  0  0  0  0  0  0  0  0  0
    7.0233  -13.0394   22.1274 C   0  0  0  0  0  0  0  0  0  0  0  0
    8.1579  -15.0238   21.0548 C   0  0  0  0  0  0  0  0  0  0  0  0
    8.2822  -15.9573   22.1969 C   0  0  2  0  0  0  0  0  0  0  0  0
    7.2503  -15.9513   23.1699 N   0  0  0  0  0  0  0  0  0  0  0  0
    9.6433  -15.7550   22.8151 C   0  0  0  0  0  0  0  0  0  0  0  0
    9.8200  -14.8168   23.6324 O   0  0  0  0  0  0  0  0  0  0  0  0
   11.3834  -19.7802   26.2229 N   0  0  0  0  0  0  0  0  0  0  0  0
   12.4043  -19.5718   25.2488 C   0  0  0  0  0  0  0  0  0  0  0  0
   13.5196  -20.1028   25.3830 O   0  0  0  0  0  0  0  0  0  0  0  0
   12.0906  -18.7121   24.0913 C   0  0  0  0  0  0  0  0  0  0  0  0
   12.2173  -17.2477   24.3316 C   0  0  0  0  0  0  0  0  0  0  0  0
   12.0649  -16.3856   23.1114 C   0  0  2  0  0  0  0  0  0  0  0  0
   10.7363  -16.5926   22.5032 N   0  0  0  0  0  0  0  0  0  0  0  0
   13.0698  -16.6819   22.0717 C   0  0  0  0  0  0  0  0  0  0  0  0
   12.7559  -17.0551   20.9156 O   0  0  0  0  0  0  0  0  0  0  0  0
   14.4130  -16.5495   22.3610 O   0  0  0  0  0  0  0  0  0  0  0  0
  2  1  1  1
  3  4  1  0
  3  2  1  0
  4  5  2  0
  5  6  1  0
  7  6  2  0
  8  7  1  0
  9  4  1  0
  9  8  2  0
 10  2  1  0
 10 17  1  0
 11 10  2  0
 13 12  1  6
 14 13  1  0
 15 13  1  0
 16 15  1  6
 16 17  1  0
 18 16  1  0
 19 18  2  0
 20 21  1  0
 21 22  2  0
 21 23  1  0
 23 24  1  0
 25 24  1  1
 25 26  1  0
 25 27  1  0
 26 18  1  0
 27 29  1  0
 28 27  2  0
M  END
$$$$
