FLQ.pdb
     RDKit          3D

 29 29  0  0  1  0  0  0  0  0999 V2000
    7.0164  -17.7725   21.6693 N   0  0  0  0  0  0  0  0  0  0  0  0
    7.3682  -16.3960   21.5048 C   0  0  1  0  0  0  0  0  0  0  0  0
    6.3289  -15.7215   20.6237 C   0  0  0  0  0  0  0  0  0  0  0  0
    6.8975  -14.4313   20.1721 C   0  0  0  0  0  0  0  0  0  0  0  0
    6.6862  -13.2680   20.8692 C   0  0  0  0  0  0  0  0  0  0  0  0
    7.2167  -12.0579   20.4499 C   0  0  0  0  0  0  0  0  0  0  0  0
    7.9792  -12.0180   19.2997 C   0  0  0  0  0  0  0  0  0  0  0  0
    8.2055  -13.1688   18.5836 C   0  0  0  0  0  0  0  0  0  0  0  0
    7.6706  -14.3609   19.0154 C   0  0  0  0  0  0  0  0  0  0  0  0
    7.3388  -15.6909   22.8113 C   0  0  0  0  0  0  0  0  0  0  0  0
    6.4344  -14.8374   23.0294 O   0  0  0  0  0  0  0  0  0  0  0  0
    8.2538  -13.0713   27.2601 C   0  0  0  0  0  0  0  0  0  0  0  0
    7.4730  -13.8810   26.2044 C   0  0  1  0  0  0  0  0  0  0  0  0
    6.0982  -13.2497   26.1821 C   0  0  0  0  0  0  0  0  0  0  0  0
    8.2479  -13.7340   24.9492 C   0  0  0  0  0  0  0  0  0  0  0  0
    9.0166  -14.9007   24.4602 C   0  0  2  0  0  0  0  0  0  0  0  0
    8.2978  -15.9463   23.8264 N   0  0  0  0  0  0  0  0  0  0  0  0
    9.8648  -15.4080   25.6001 C   0  0  0  0  0  0  0  0  0  0  0  0
   10.5618  -14.5986   26.2624 O   0  0  0  0  0  0  0  0  0  0  0  0
    9.3397  -20.4008   29.0763 N   0  0  0  0  0  0  0  0  0  0  0  0
    9.7913  -19.1465   29.5837 C   0  0  0  0  0  0  0  0  0  0  0  0
    9.9198  -18.9723   30.8072 O   0  0  0  0  0  0  0  0  0  0  0  0
   10.0952  -18.0770   28.6135 C   0  0  0  0  0  0  0  0  0  0  0  0
   10.8319  -18.5123   27.3944 C   0  0  0  0  0  0  0  0  0  0  0  0
   11.1468  -17.4184   26.4150 C   0  0  2  0  0  0  0  0  0  0  0  0
    9.9022  -16.7749   25.9512 N   0  0  0  0  0  0  0  0  0  0  0  0
   11.8551  -17.9090   25.2165 C   0  0  0  0  0  0  0  0  0  0  0  0
   13.0481  -18.2964   25.2482 O   0  0  0  0  0  0  0  0  0  0  0  0
   11.1983  -17.9517   24.0032 O   0  0  0  0  0  0  0  0  0  0  0  0
  2  1  1  1
  3  4  1  0
  3  2  1  0
  4  5  2  0
  5  6  1  0
  7  6  2  0
  8  7  1  0
  9  4  1  0
  9  8  2  0
 10  2  1  0
 10 17  1  0
 11 10  2  0
 13 12  1  1
 14 13  1  0
 15 13  1  0
 16 15  1  1
 16 17  1  0
 18 16  1  0
 19 18  2  0
 20 21  1  0
 21 22  2  0
 21 23  1  0
 23 24  1  0
 25 24  1  1
 25 26  1  0
 25 27  1  0
 26 18  1  0
 27 29  1  0
 28 27  2  0
M  END
$$$$
