FLQ.pdb
     RDKit          3D

 29 29  0  0  1  0  0  0  0  0999 V2000
    6.0362  -17.8802   25.3773 N   0  0  0  0  0  0  0  0  0  0  0  0
    6.4954  -16.5352   25.2169 C   0  0  1  0  0  0  0  0  0  0  0  0
    7.3803  -16.1702   26.3980 C   0  0  0  0  0  0  0  0  0  0  0  0
    7.4803  -14.6936   26.4401 C   0  0  0  0  0  0  0  0  0  0  0  0
    6.3639  -13.8979   26.5039 C   0  0  0  0  0  0  0  0  0  0  0  0
    6.4531  -12.5150   26.5436 C   0  0  0  0  0  0  0  0  0  0  0  0
    7.6979  -11.9185   26.5184 C   0  0  0  0  0  0  0  0  0  0  0  0
    8.8313  -12.6929   26.4547 C   0  0  0  0  0  0  0  0  0  0  0  0
    8.7228  -14.0642   26.4160 C   0  0  0  0  0  0  0  0  0  0  0  0
    7.3393  -16.4143   24.0011 C   0  0  0  0  0  0  0  0  0  0  0  0
    7.9733  -17.4256   23.5894 O   0  0  0  0  0  0  0  0  0  0  0  0
    7.0427  -12.8088   19.1351 C   0  0  0  0  0  0  0  0  0  0  0  0
    8.0001  -13.8541   19.7434 C   0  0  1  0  0  0  0  0  0  0  0  0
    9.3839  -13.3423   19.4080 C   0  0  0  0  0  0  0  0  0  0  0  0
    7.6785  -13.8817   21.1902 C   0  0  0  0  0  0  0  0  0  0  0  0
    7.8398  -15.1600   21.9191 C   0  0  2  0  0  0  0  0  0  0  0  0
    7.4567  -15.1946   23.2842 N   0  0  0  0  0  0  0  0  0  0  0  0
    9.2583  -15.6327   21.7179 C   0  0  0  0  0  0  0  0  0  0  0  0
    9.6196  -16.0464   20.5875 O   0  0  0  0  0  0  0  0  0  0  0  0
   14.6618  -14.2724   20.9258 N   0  0  0  0  0  0  0  0  0  0  0  0
   13.3418  -13.8579   20.5788 C   0  0  0  0  0  0  0  0  0  0  0  0
   13.1648  -12.9606   19.7378 O   0  0  0  0  0  0  0  0  0  0  0  0
   12.2088  -14.5253   21.2486 C   0  0  0  0  0  0  0  0  0  0  0  0
   12.5797  -15.6046   22.2056 C   0  0  0  0  0  0  0  0  0  0  0  0
   11.4335  -16.4378   22.7026 C   0  0  2  0  0  0  0  0  0  0  0  0
   10.2028  -15.6259   22.7672 N   0  0  0  0  0  0  0  0  0  0  0  0
   11.6658  -16.9834   24.0543 C   0  0  0  0  0  0  0  0  0  0  0  0
   10.9113  -16.7294   25.0241 O   0  0  0  0  0  0  0  0  0  0  0  0
   12.7494  -17.8073   24.2826 O   0  0  0  0  0  0  0  0  0  0  0  0
  2  1  1  1
  3  4  1  0
  3  2  1  0
  4  5  2  0
  5  6  1  0
  7  6  2  0
  8  7  1  0
  9  4  1  0
  9  8  2  0
 10  2  1  0
 10 17  1  0
 11 10  2  0
 13 12  1  6
 14 13  1  0
 15 13  1  0
 16 15  1  1
 16 17  1  0
 18 16  1  0
 19 18  2  0
 20 21  1  0
 21 22  2  0
 21 23  1  0
 23 24  1  0
 25 24  1  1
 25 26  1  0
 25 27  1  0
 26 18  1  0
 27 29  1  0
 28 27  2  0
M  END
$$$$
