FLQ.pdb
     RDKit          3D

 29 29  0  0  1  0  0  0  0  0999 V2000
    8.0052  -15.7976   21.7982 N   0  0  0  0  0  0  0  0  0  0  0  0
    9.0219  -14.8731   22.1948 C   0  0  1  0  0  0  0  0  0  0  0  0
    8.5966  -13.4690   21.7963 C   0  0  0  0  0  0  0  0  0  0  0  0
    8.2240  -13.5059   20.3639 C   0  0  0  0  0  0  0  0  0  0  0  0
    6.9342  -13.7467   19.9615 C   0  0  0  0  0  0  0  0  0  0  0  0
    6.5810  -13.7821   18.6214 C   0  0  0  0  0  0  0  0  0  0  0  0
    7.5512  -13.5697   17.6624 C   0  0  0  0  0  0  0  0  0  0  0  0
    8.8501  -13.3265   18.0393 C   0  0  0  0  0  0  0  0  0  0  0  0
    9.1817  -13.2952   19.3745 C   0  0  0  0  0  0  0  0  0  0  0  0
    9.1735  -14.8675   23.6719 C   0  0  0  0  0  0  0  0  0  0  0  0
   10.3156  -15.0626   24.1737 O   0  0  0  0  0  0  0  0  0  0  0  0
    5.4241  -12.1727   26.9623 C   0  0  0  0  0  0  0  0  0  0  0  0
    6.7181  -12.4803   26.1810 C   0  0  1  0  0  0  0  0  0  0  0  0
    7.6352  -11.3178   26.4922 C   0  0  0  0  0  0  0  0  0  0  0  0
    7.1791  -13.7933   26.6921 C   0  0  0  0  0  0  0  0  0  0  0  0
    8.2394  -14.5035   25.9420 C   0  0  2  0  0  0  0  0  0  0  0  0
    8.0725  -14.6491   24.5410 N   0  0  0  0  0  0  0  0  0  0  0  0
    8.4815  -15.8277   26.6231 C   0  0  0  0  0  0  0  0  0  0  0  0
    8.6303  -15.8654   27.8704 O   0  0  0  0  0  0  0  0  0  0  0  0
    5.7101  -21.1688   25.4470 N   0  0  0  0  0  0  0  0  0  0  0  0
    6.5231  -20.6368   24.4026 C   0  0  0  0  0  0  0  0  0  0  0  0
    6.3954  -21.0452   23.2360 O   0  0  0  0  0  0  0  0  0  0  0  0
    7.5094  -19.5974   24.7552 C   0  0  0  0  0  0  0  0  0  0  0  0
    7.5971  -19.2671   26.2049 C   0  0  0  0  0  0  0  0  0  0  0  0
    8.7141  -18.3364   26.5804 C   0  0  2  0  0  0  0  0  0  0  0  0
    8.5474  -17.0380   25.8990 N   0  0  0  0  0  0  0  0  0  0  0  0
   10.0436  -18.8565   26.2053 C   0  0  0  0  0  0  0  0  0  0  0  0
   10.5507  -19.8683   26.7470 O   0  0  0  0  0  0  0  0  0  0  0  0
   10.7747  -18.2202   25.2225 O   0  0  0  0  0  0  0  0  0  0  0  0
  2  1  1  1
  3  4  1  0
  3  2  1  0
  4  5  2  0
  5  6  1  0
  7  6  2  0
  8  7  1  0
  9  4  1  0
  9  8  2  0
 10  2  1  0
 10 17  1  0
 11 10  2  0
 13 12  1  1
 14 13  1  0
 15 13  1  0
 16 15  1  1
 16 17  1  0
 18 16  1  0
 19 18  2  0
 20 21  1  0
 21 22  2  0
 21 23  1  0
 23 24  1  0
 25 24  1  6
 25 26  1  0
 25 27  1  0
 26 18  1  0
 27 29  1  0
 28 27  2  0
M  END
$$$$
