FLQ.pdb
     RDKit          3D

 29 29  0  0  1  0  0  0  0  0999 V2000
    5.7471  -17.7937   25.1322 N   0  0  0  0  0  0  0  0  0  0  0  0
    6.3997  -16.5297   24.9834 C   0  0  1  0  0  0  0  0  0  0  0  0
    7.1474  -16.2048   26.2665 C   0  0  0  0  0  0  0  0  0  0  0  0
    7.1851  -14.7307   26.3991 C   0  0  0  0  0  0  0  0  0  0  0  0
    8.2567  -14.0858   26.9643 C   0  0  0  0  0  0  0  0  0  0  0  0
    8.2961  -12.7058   27.0902 C   0  0  0  0  0  0  0  0  0  0  0  0
    7.2296  -11.9563   26.6356 C   0  0  0  0  0  0  0  0  0  0  0  0
    6.1446  -12.5779   26.0658 C   0  0  0  0  0  0  0  0  0  0  0  0
    6.1234  -13.9490   25.9493 C   0  0  0  0  0  0  0  0  0  0  0  0
    7.4172  -16.5927   23.9037 C   0  0  0  0  0  0  0  0  0  0  0  0
    7.9494  -17.7029   23.6240 O   0  0  0  0  0  0  0  0  0  0  0  0
    8.0086  -12.5005   19.9501 C   0  0  0  0  0  0  0  0  0  0  0  0
    7.5901  -13.6814   20.8501 C   0  0  1  0  0  0  0  0  0  0  0  0
    6.6224  -14.4794   20.0040 C   0  0  0  0  0  0  0  0  0  0  0  0
    8.8524  -14.3830   21.1844 C   0  0  0  0  0  0  0  0  0  0  0  0
    8.7970  -15.4999   22.1543 C   0  0  2  0  0  0  0  0  0  0  0  0
    7.8122  -15.4412   23.1733 N   0  0  0  0  0  0  0  0  0  0  0  0
   10.1829  -15.6936   22.7180 C   0  0  0  0  0  0  0  0  0  0  0  0
   11.1575  -15.8271   21.9358 O   0  0  0  0  0  0  0  0  0  0  0  0
    9.7995  -15.9922   28.9220 N   0  0  0  0  0  0  0  0  0  0  0  0
   11.1153  -16.2244   28.4224 C   0  0  0  0  0  0  0  0  0  0  0  0
   12.1001  -16.1237   29.1732 O   0  0  0  0  0  0  0  0  0  0  0  0
   11.2610  -16.5831   26.9984 C   0  0  0  0  0  0  0  0  0  0  0  0
   11.7912  -15.5036   26.1199 C   0  0  0  0  0  0  0  0  0  0  0  0
   11.7935  -15.8196   24.6519 C   0  0  2  0  0  0  0  0  0  0  0  0
   10.4242  -15.7304   24.1086 N   0  0  0  0  0  0  0  0  0  0  0  0
   12.2896  -17.1786   24.3592 C   0  0  0  0  0  0  0  0  0  0  0  0
   11.5407  -18.0968   23.9466 O   0  0  0  0  0  0  0  0  0  0  0  0
   13.6261  -17.4725   24.5395 O   0  0  0  0  0  0  0  0  0  0  0  0
  2  1  1  1
  3  4  1  0
  3  2  1  0
  4  5  2  0
  5  6  1  0
  7  6  2  0
  8  7  1  0
  9  4  1  0
  9  8  2  0
 10  2  1  0
 10 17  1  0
 11 10  2  0
 13 12  1  6
 14 13  1  0
 15 13  1  0
 16 15  1  1
 16 17  1  0
 18 16  1  0
 19 18  2  0
 20 21  1  0
 21 22  2  0
 21 23  1  0
 23 24  1  0
 25 24  1  1
 25 26  1  0
 25 27  1  0
 26 18  1  0
 27 29  1  0
 28 27  2  0
M  END
$$$$
