FLQ.pdb
     RDKit          3D

 29 29  0  0  1  0  0  0  0  0999 V2000
    8.9209  -15.4587   25.7639 N   0  0  0  0  0  0  0  0  0  0  0  0
    7.8108  -16.2321   25.2999 C   0  0  1  0  0  0  0  0  0  0  0  0
    6.5315  -15.6704   25.8991 C   0  0  0  0  0  0  0  0  0  0  0  0
    6.8020  -14.2693   26.2935 C   0  0  0  0  0  0  0  0  0  0  0  0
    5.9420  -13.2506   25.9672 C   0  0  0  0  0  0  0  0  0  0  0  0
    6.1914  -11.9374   26.3346 C   0  0  0  0  0  0  0  0  0  0  0  0
    7.3356  -11.6425   27.0486 C   0  0  0  0  0  0  0  0  0  0  0  0
    8.2128  -12.6444   27.3878 C   0  0  0  0  0  0  0  0  0  0  0  0
    7.9483  -13.9421   27.0142 C   0  0  0  0  0  0  0  0  0  0  0  0
    7.6753  -16.1167   23.8257 C   0  0  0  0  0  0  0  0  0  0  0  0
    6.7847  -16.7894   23.2354 O   0  0  0  0  0  0  0  0  0  0  0  0
    8.3177  -12.1029   20.1212 C   0  0  0  0  0  0  0  0  0  0  0  0
    7.8607  -13.2466   21.0500 C   0  0  1  0  0  0  0  0  0  0  0  0
    6.4140  -13.4843   20.6764 C   0  0  0  0  0  0  0  0  0  0  0  0
    8.7750  -14.3759   20.7563 C   0  0  0  0  0  0  0  0  0  0  0  0
    8.7877  -15.5268   21.6873 C   0  0  2  0  0  0  0  0  0  0  0  0
    8.5174  -15.2718   23.0560 N   0  0  0  0  0  0  0  0  0  0  0  0
   10.0902  -16.2635   21.4960 C   0  0  0  0  0  0  0  0  0  0  0  0
   10.3459  -16.7930   20.3852 O   0  0  0  0  0  0  0  0  0  0  0  0
   15.6879  -14.5475   20.9576 N   0  0  0  0  0  0  0  0  0  0  0  0
   14.6402  -14.7934   20.0214 C   0  0  0  0  0  0  0  0  0  0  0  0
   14.6441  -14.2346   18.9117 O   0  0  0  0  0  0  0  0  0  0  0  0
   13.5647  -15.7237   20.4157 C   0  0  0  0  0  0  0  0  0  0  0  0
   13.3342  -15.8473   21.8820 C   0  0  0  0  0  0  0  0  0  0  0  0
   12.3852  -16.9377   22.2887 C   0  0  2  0  0  0  0  0  0  0  0  0
   11.0411  -16.3794   22.5331 N   0  0  0  0  0  0  0  0  0  0  0  0
   12.8010  -17.6272   23.5257 C   0  0  0  0  0  0  0  0  0  0  0  0
   12.0975  -17.6336   24.5647 O   0  0  0  0  0  0  0  0  0  0  0  0
   14.0072  -18.2972   23.5630 O   0  0  0  0  0  0  0  0  0  0  0  0
  2  1  1  1
  3  4  1  0
  3  2  1  0
  4  5  2  0
  5  6  1  0
  7  6  2  0
  8  7  1  0
  9  4  1  0
  9  8  2  0
 10  2  1  0
 10 17  1  0
 11 10  2  0
 13 12  1  6
 14 13  1  0
 15 13  1  0
 16 15  1  6
 16 17  1  0
 18 16  1  0
 19 18  2  0
 20 21  1  0
 21 22  2  0
 21 23  1  0
 23 24  1  0
 25 24  1  1
 25 26  1  0
 25 27  1  0
 26 18  1  0
 27 29  1  0
 28 27  2  0
M  END
$$$$
