FLQ.pdb
     RDKit          3D

 29 29  0  0  1  0  0  0  0  0999 V2000
    8.2596  -18.9073   27.1428 N   0  0  0  0  0  0  0  0  0  0  0  0
    8.4643  -17.4935   27.0729 C   0  0  1  0  0  0  0  0  0  0  0  0
    9.9065  -17.2214   26.6762 C   0  0  0  0  0  0  0  0  0  0  0  0
   10.3941  -16.1000   27.5109 C   0  0  0  0  0  0  0  0  0  0  0  0
   10.2866  -14.7955   27.0981 C   0  0  0  0  0  0  0  0  0  0  0  0
   10.7418  -13.7425   27.8766 C   0  0  0  0  0  0  0  0  0  0  0  0
   11.3197  -14.0100   29.1015 C   0  0  0  0  0  0  0  0  0  0  0  0
   11.4391  -15.3076   29.5378 C   0  0  0  0  0  0  0  0  0  0  0  0
   10.9814  -16.3398   28.7511 C   0  0  0  0  0  0  0  0  0  0  0  0
    7.6127  -16.8955   26.0137 C   0  0  0  0  0  0  0  0  0  0  0  0
    7.0594  -17.6530   25.1686 O   0  0  0  0  0  0  0  0  0  0  0  0
    6.8824  -11.2431   25.7306 C   0  0  0  0  0  0  0  0  0  0  0  0
    6.5974  -12.7093   26.1164 C   0  0  1  0  0  0  0  0  0  0  0  0
    5.2987  -12.6528   26.8905 C   0  0  0  0  0  0  0  0  0  0  0  0
    6.5264  -13.4437   24.8306 C   0  0  0  0  0  0  0  0  0  0  0  0
    6.6574  -14.9179   24.8582 C   0  0  2  0  0  0  0  0  0  0  0  0
    7.3997  -15.4950   25.9201 N   0  0  0  0  0  0  0  0  0  0  0  0
    7.1618  -15.3639   23.5082 C   0  0  0  0  0  0  0  0  0  0  0  0
    6.3402  -15.6096   22.5894 O   0  0  0  0  0  0  0  0  0  0  0  0
    7.8739  -12.4097   19.3473 N   0  0  0  0  0  0  0  0  0  0  0  0
    8.8362  -13.3189   18.8165 C   0  0  0  0  0  0  0  0  0  0  0  0
    9.2531  -13.1857   17.6536 O   0  0  0  0  0  0  0  0  0  0  0  0
    9.3111  -14.4104   19.6886 C   0  0  0  0  0  0  0  0  0  0  0  0
    8.6947  -14.4581   21.0437 C   0  0  0  0  0  0  0  0  0  0  0  0
    9.0444  -15.6682   21.8611 C   0  0  2  0  0  0  0  0  0  0  0  0
    8.5395  -15.5162   23.2395 N   0  0  0  0  0  0  0  0  0  0  0  0
   10.4999  -15.8957   21.9541 C   0  0  0  0  0  0  0  0  0  0  0  0
   11.1398  -15.7482   23.0232 O   0  0  0  0  0  0  0  0  0  0  0  0
   11.2041  -16.2864   20.8331 O   0  0  0  0  0  0  0  0  0  0  0  0
  2  1  1  6
  3  4  1  0
  3  2  1  0
  4  5  2  0
  5  6  1  0
  7  6  2  0
  8  7  1  0
  9  4  1  0
  9  8  2  0
 10  2  1  0
 10 17  1  0
 11 10  2  0
 13 12  1  6
 14 13  1  0
 15 13  1  0
 16 15  1  6
 16 17  1  0
 18 16  1  0
 19 18  2  0
 20 21  1  0
 21 22  2  0
 21 23  1  0
 23 24  1  0
 25 24  1  6
 25 26  1  0
 25 27  1  0
 26 18  1  0
 27 29  1  0
 28 27  2  0
M  END
$$$$
