FLQ.pdb
     RDKit          3D

 29 29  0  0  1  0  0  0  0  0999 V2000
    8.8388  -15.1597   25.1804 N   0  0  0  0  0  0  0  0  0  0  0  0
    7.7777  -16.0740   24.8911 C   0  0  1  0  0  0  0  0  0  0  0  0
    6.4591  -15.4558   25.3275 C   0  0  0  0  0  0  0  0  0  0  0  0
    6.7673  -14.1624   25.9786 C   0  0  0  0  0  0  0  0  0  0  0  0
    7.9276  -13.9711   26.6863 C   0  0  0  0  0  0  0  0  0  0  0  0
    8.2201  -12.7616   27.2974 C   0  0  0  0  0  0  0  0  0  0  0  0
    7.3216  -11.7186   27.1934 C   0  0  0  0  0  0  0  0  0  0  0  0
    6.1526  -11.8846   26.4904 C   0  0  0  0  0  0  0  0  0  0  0  0
    5.8795  -13.0926   25.8904 C   0  0  0  0  0  0  0  0  0  0  0  0
    7.6741  -16.3058   23.4281 C   0  0  0  0  0  0  0  0  0  0  0  0
    6.9591  -17.2567   23.0051 O   0  0  0  0  0  0  0  0  0  0  0  0
    8.6972  -12.7463   21.4815 C   0  0  0  0  0  0  0  0  0  0  0  0
    7.6276  -13.4310   20.6058 C   0  0  1  0  0  0  0  0  0  0  0  0
    7.3296  -12.4259   19.5149 C   0  0  0  0  0  0  0  0  0  0  0  0
    8.2541  -14.6910   20.1394 C   0  0  0  0  0  0  0  0  0  0  0  0
    8.3864  -15.8061   21.1040 C   0  0  2  0  0  0  0  0  0  0  0  0
    8.3551  -15.4905   22.4864 N   0  0  0  0  0  0  0  0  0  0  0  0
    9.6160  -16.5973   20.7325 C   0  0  0  0  0  0  0  0  0  0  0  0
    9.7507  -17.0178   19.5558 O   0  0  0  0  0  0  0  0  0  0  0  0
   13.4695  -14.8144   18.2460 N   0  0  0  0  0  0  0  0  0  0  0  0
   13.9844  -14.8474   19.5759 C   0  0  0  0  0  0  0  0  0  0  0  0
   15.0733  -14.3117   19.8424 O   0  0  0  0  0  0  0  0  0  0  0  0
   13.1860  -15.5340   20.6097 C   0  0  0  0  0  0  0  0  0  0  0  0
   12.5701  -16.8230   20.1884 C   0  0  0  0  0  0  0  0  0  0  0  0
   11.8702  -17.5819   21.2789 C   0  0  2  0  0  0  0  0  0  0  0  0
   10.6305  -16.8839   21.6715 N   0  0  0  0  0  0  0  0  0  0  0  0
   12.6927  -17.7248   22.4962 C   0  0  0  0  0  0  0  0  0  0  0  0
   13.8058  -18.3039   22.4953 O   0  0  0  0  0  0  0  0  0  0  0  0
   12.2386  -17.2085   23.6931 O   0  0  0  0  0  0  0  0  0  0  0  0
  2  1  1  6
  3  4  1  0
  3  2  1  0
  4  5  2  0
  5  6  1  0
  7  6  2  0
  8  7  1  0
  9  4  1  0
  9  8  2  0
 10  2  1  0
 10 17  1  0
 11 10  2  0
 13 12  1  1
 14 13  1  0
 15 13  1  0
 16 15  1  6
 16 17  1  0
 18 16  1  0
 19 18  2  0
 20 21  1  0
 21 22  2  0
 21 23  1  0
 23 24  1  0
 25 24  1  6
 25 26  1  0
 25 27  1  0
 26 18  1  0
 27 29  1  0
 28 27  2  0
M  END
$$$$
