FLQ.pdb
     RDKit          3D

 29 29  0  0  1  0  0  0  0  0999 V2000
    8.1747  -19.6023   27.5425 N   0  0  0  0  0  0  0  0  0  0  0  0
    8.5268  -18.2161   27.5365 C   0  0  1  0  0  0  0  0  0  0  0  0
   10.0412  -18.0900   27.5796 C   0  0  0  0  0  0  0  0  0  0  0  0
   10.3618  -16.6828   27.9099 C   0  0  0  0  0  0  0  0  0  0  0  0
   10.5066  -15.7292   26.9335 C   0  0  0  0  0  0  0  0  0  0  0  0
   10.8067  -14.4105   27.2383 C   0  0  0  0  0  0  0  0  0  0  0  0
   10.9649  -14.0429   28.5596 C   0  0  0  0  0  0  0  0  0  0  0  0
   10.8250  -14.9788   29.5560 C   0  0  0  0  0  0  0  0  0  0  0  0
   10.5270  -16.2831   29.2340 C   0  0  0  0  0  0  0  0  0  0  0  0
    8.0830  -17.5713   26.2747 C   0  0  0  0  0  0  0  0  0  0  0  0
    7.7863  -18.2966   25.2846 O   0  0  0  0  0  0  0  0  0  0  0  0
    5.8110  -12.1328   24.4619 C   0  0  0  0  0  0  0  0  0  0  0  0
    6.3745  -13.4738   23.9484 C   0  0  1  0  0  0  0  0  0  0  0  0
    7.3989  -13.0812   22.9064 C   0  0  0  0  0  0  0  0  0  0  0  0
    6.9295  -14.1476   25.1465 C   0  0  0  0  0  0  0  0  0  0  0  0
    7.3754  -15.5531   25.0159 C   0  0  2  0  0  0  0  0  0  0  0  0
    7.9812  -16.1613   26.1449 N   0  0  0  0  0  0  0  0  0  0  0  0
    8.2443  -15.6516   23.7865 C   0  0  0  0  0  0  0  0  0  0  0  0
    7.8182  -15.2114   22.6891 O   0  0  0  0  0  0  0  0  0  0  0  0
   10.1786  -13.4071   19.5336 N   0  0  0  0  0  0  0  0  0  0  0  0
   11.4071  -13.4251   20.2582 C   0  0  0  0  0  0  0  0  0  0  0  0
   12.2265  -12.4998   20.1304 O   0  0  0  0  0  0  0  0  0  0  0  0
   11.6656  -14.5697   21.1529 C   0  0  0  0  0  0  0  0  0  0  0  0
   10.6806  -14.7528   22.2550 C   0  0  0  0  0  0  0  0  0  0  0  0
   10.4376  -16.1774   22.6630 C   0  0  2  0  0  0  0  0  0  0  0  0
    9.5327  -16.2274   23.8278 N   0  0  0  0  0  0  0  0  0  0  0  0
   11.6765  -16.8833   23.0445 C   0  0  0  0  0  0  0  0  0  0  0  0
   12.3677  -17.5286   22.2198 O   0  0  0  0  0  0  0  0  0  0  0  0
   12.1099  -16.8450   24.3545 O   0  0  0  0  0  0  0  0  0  0  0  0
  2  1  1  6
  3  4  1  0
  3  2  1  0
  4  5  2  0
  5  6  1  0
  7  6  2  0
  8  7  1  0
  9  4  1  0
  9  8  2  0
 10  2  1  0
 10 17  1  0
 11 10  2  0
 13 12  1  1
 14 13  1  0
 15 13  1  0
 16 15  1  1
 16 17  1  0
 18 16  1  0
 19 18  2  0
 20 21  1  0
 21 22  2  0
 21 23  1  0
 23 24  1  0
 25 24  1  1
 25 26  1  0
 25 27  1  0
 26 18  1  0
 27 29  1  0
 28 27  2  0
M  END
$$$$
