DKK.pdb
     RDKit          3D

 27 26  0  0  1  0  0  0  0  0999 V2000
   11.5178  -17.5826   19.0386 N   0  0  0  0  0  0  0  0  0  0  0  0
   10.2637  -17.9266   19.7335 C   0  0  1  0  0  0  0  0  0  0  0  0
   10.5598  -19.1569   20.5174 C   0  0  0  0  0  0  0  0  0  0  0  0
   10.4244  -20.4295   19.8153 C   0  0  0  0  0  0  0  0  0  0  0  0
   10.2001  -20.5842   18.6045 O   0  0  0  0  0  0  0  0  0  0  0  0
    9.9436  -16.7725   20.6170 C   0  0  0  0  0  0  0  0  0  0  0  0
   10.8958  -16.2026   21.2490 O   0  0  0  0  0  0  0  0  0  0  0  0
   10.5650  -21.5884   20.6056 O   0  0  0  0  0  0  0  0  0  0  0  0
    8.6206  -16.2877   20.7787 N   0  0  0  0  0  0  0  0  0  0  0  0
    8.3875  -15.2420   21.7672 C   0  0  1  0  0  0  0  0  0  0  0  0
    7.0865  -14.5647   21.4189 C   0  0  0  0  0  0  0  0  0  0  0  0
    7.2205  -13.3710   20.5407 C   0  0  0  0  0  0  0  0  0  0  0  0
    7.7390  -13.7234   19.1554 C   0  0  0  0  0  0  0  0  0  0  0  0
    7.8892  -12.5290   18.2644 C   0  0  0  0  0  0  0  0  0  0  0  0
    8.3283  -12.9695   16.9349 N   0  0  0  0  0  0  0  0  0  0  0  0
    8.3081  -15.8098   23.1286 C   0  0  0  0  0  0  0  0  0  0  0  0
    7.7400  -16.8867   23.4184 O   0  0  0  0  0  0  0  0  0  0  0  0
    8.9023  -15.1371   24.2611 N   0  0  0  0  0  0  0  0  0  0  0  0
    8.7761  -15.6006   25.6151 C   0  0  1  0  0  0  0  0  0  0  0  0
    9.4049  -14.6581   26.6143 C   0  0  0  0  0  0  0  0  0  0  0  0
    9.2990  -15.1714   28.0334 C   0  0  0  0  0  0  0  0  0  0  0  0
   10.4251  -14.6405   28.8507 C   0  0  0  0  0  0  0  0  0  0  0  0
   10.3737  -15.0604   30.2960 C   0  0  0  0  0  0  0  0  0  0  0  0
   11.4170  -14.5069   31.0926 N   0  0  0  0  0  0  0  0  0  0  0  0
    7.3316  -15.7868   25.9031 C   0  0  0  0  0  0  0  0  0  0  0  0
    6.4537  -14.9814   25.4549 O   0  0  0  0  0  0  0  0  0  0  0  0
    6.8725  -16.8407   26.6694 O   0  0  0  0  0  0  0  0  0  0  0  0
  2  1  1  1
  3  2  1  0
  4  8  1  0
  4  3  1  0
  5  4  2  0
  6  2  1  0
  7  6  2  0
  9  6  1  0
 10 11  1  6
 10  9  1  0
 11 12  1  0
 13 12  1  0
 13 14  1  0
 14 15  1  0
 16 10  1  0
 17 16  2  0
 18 16  1  0
 19 25  1  0
 19 18  1  0
 19 20  1  1
 21 20  1  0
 22 21  1  0
 23 24  1  0
 23 22  1  0
 25 27  1  0
 26 25  2  0
M  END
$$$$
