DKK.pdb
     RDKit          3D

 27 26  0  0  1  0  0  0  0  0999 V2000
   10.1856  -18.5603   20.8141 N   0  0  0  0  0  0  0  0  0  0  0  0
   10.9333  -18.5141   22.0840 C   0  0  1  0  0  0  0  0  0  0  0  0
   12.3616  -18.7234   21.7205 C   0  0  0  0  0  0  0  0  0  0  0  0
   12.8698  -17.9519   20.5903 C   0  0  0  0  0  0  0  0  0  0  0  0
   14.0534  -17.8680   20.2265 O   0  0  0  0  0  0  0  0  0  0  0  0
   10.7022  -17.1604   22.6578 C   0  0  0  0  0  0  0  0  0  0  0  0
   11.6413  -16.6098   23.3255 O   0  0  0  0  0  0  0  0  0  0  0  0
   11.9076  -17.2369   19.8486 O   0  0  0  0  0  0  0  0  0  0  0  0
    9.4776  -16.4656   22.4874 N   0  0  0  0  0  0  0  0  0  0  0  0
    9.2879  -15.2175   23.2164 C   0  0  1  0  0  0  0  0  0  0  0  0
    8.2025  -14.4395   22.5172 C   0  0  0  0  0  0  0  0  0  0  0  0
    8.5230  -14.0395   21.1203 C   0  0  0  0  0  0  0  0  0  0  0  0
    7.4202  -13.2064   20.4863 C   0  0  0  0  0  0  0  0  0  0  0  0
    7.7713  -12.7150   19.1157 C   0  0  0  0  0  0  0  0  0  0  0  0
    6.6815  -11.8714   18.6106 N   0  0  0  0  0  0  0  0  0  0  0  0
    8.8956  -15.4776   24.6166 C   0  0  0  0  0  0  0  0  0  0  0  0
    7.9478  -16.2173   24.9643 O   0  0  0  0  0  0  0  0  0  0  0  0
    9.6045  -14.8744   25.7218 N   0  0  0  0  0  0  0  0  0  0  0  0
    9.4258  -15.2719   27.0908 C   0  0  1  0  0  0  0  0  0  0  0  0
   10.4027  -16.3416   27.5191 C   0  0  0  0  0  0  0  0  0  0  0  0
   10.1947  -16.7674   28.9557 C   0  0  0  0  0  0  0  0  0  0  0  0
   11.2116  -17.7871   29.3353 C   0  0  0  0  0  0  0  0  0  0  0  0
   11.1192  -18.2273   30.7726 C   0  0  0  0  0  0  0  0  0  0  0  0
   12.0848  -19.2096   31.1358 N   0  0  0  0  0  0  0  0  0  0  0  0
    9.5627  -14.0623   27.9409 C   0  0  0  0  0  0  0  0  0  0  0  0
    9.3132  -14.0934   29.1887 O   0  0  0  0  0  0  0  0  0  0  0  0
    9.9664  -12.8484   27.4194 O   0  0  0  0  0  0  0  0  0  0  0  0
  2  1  1  6
  3  2  1  0
  4  8  1  0
  4  3  1  0
  5  4  2  0
  6  2  1  0
  7  6  2  0
  9  6  1  0
 10 11  1  6
 10  9  1  0
 11 12  1  0
 13 12  1  0
 13 14  1  0
 14 15  1  0
 16 10  1  0
 17 16  2  0
 18 16  1  0
 19 25  1  0
 19 18  1  0
 19 20  1  1
 21 20  1  0
 22 21  1  0
 23 24  1  0
 23 22  1  0
 25 27  1  0
 26 25  2  0
M  END
$$$$
