DKK.pdb
     RDKit          3D

 27 26  0  0  1  0  0  0  0  0999 V2000
   12.9028  -17.1628   20.3166 N   0  0  0  0  0  0  0  0  0  0  0  0
   12.3957  -15.7820   20.4165 C   0  0  1  0  0  0  0  0  0  0  0  0
   12.4934  -15.2147   19.0436 C   0  0  0  0  0  0  0  0  0  0  0  0
   13.8359  -14.9283   18.5472 C   0  0  0  0  0  0  0  0  0  0  0  0
   14.2182  -15.0014   17.3687 O   0  0  0  0  0  0  0  0  0  0  0  0
   10.9825  -15.8860   20.8717 C   0  0  0  0  0  0  0  0  0  0  0  0
   10.2712  -14.8260   20.9077 O   0  0  0  0  0  0  0  0  0  0  0  0
   14.7800  -14.5303   19.5154 O   0  0  0  0  0  0  0  0  0  0  0  0
   10.4034  -17.1194   21.2650 N   0  0  0  0  0  0  0  0  0  0  0  0
    9.0872  -17.0924   21.8912 C   0  0  1  0  0  0  0  0  0  0  0  0
    8.6400  -18.5197   22.0783 C   0  0  0  0  0  0  0  0  0  0  0  0
    7.3163  -18.6768   22.7397 C   0  0  0  0  0  0  0  0  0  0  0  0
    6.9332  -20.1353   22.9351 C   0  0  0  0  0  0  0  0  0  0  0  0
    5.5403  -20.3106   23.4567 C   0  0  0  0  0  0  0  0  0  0  0  0
    5.2087  -21.7402   23.4794 N   0  0  0  0  0  0  0  0  0  0  0  0
    9.1382  -16.4076   23.1992 C   0  0  0  0  0  0  0  0  0  0  0  0
   10.0348  -16.5760   24.0560 O   0  0  0  0  0  0  0  0  0  0  0  0
    8.1198  -15.4616   23.5942 N   0  0  0  0  0  0  0  0  0  0  0  0
    8.1522  -14.7310   24.8308 C   0  0  1  0  0  0  0  0  0  0  0  0
    7.0489  -13.7039   24.9296 C   0  0  0  0  0  0  0  0  0  0  0  0
    7.0959  -12.9338   26.2309 C   0  0  0  0  0  0  0  0  0  0  0  0
    5.9972  -11.9291   26.2663 C   0  0  0  0  0  0  0  0  0  0  0  0
    5.9593  -11.1190   27.5352 C   0  0  0  0  0  0  0  0  0  0  0  0
    5.0016  -10.0646   27.5153 N   0  0  0  0  0  0  0  0  0  0  0  0
    8.0625  -15.7095   25.9438 C   0  0  0  0  0  0  0  0  0  0  0  0
    7.2292  -16.6714   25.9196 O   0  0  0  0  0  0  0  0  0  0  0  0
    8.8773  -15.6228   27.0562 O   0  0  0  0  0  0  0  0  0  0  0  0
  2  1  1  6
  3  2  1  0
  4  8  1  0
  4  3  1  0
  5  4  2  0
  6  2  1  0
  7  6  2  0
  9  6  1  0
 10 11  1  1
 10  9  1  0
 11 12  1  0
 13 12  1  0
 13 14  1  0
 14 15  1  0
 16 10  1  0
 17 16  2  0
 18 16  1  0
 19 25  1  0
 19 18  1  0
 19 20  1  6
 21 20  1  0
 22 21  1  0
 23 24  1  0
 23 22  1  0
 25 27  1  0
 26 25  2  0
M  END
$$$$
