DKK.pdb
     RDKit          3D

 27 26  0  0  1  0  0  0  0  0999 V2000
   11.4333  -16.7748   18.4560 N   0  0  0  0  0  0  0  0  0  0  0  0
   11.2214  -17.6004   19.6591 C   0  0  1  0  0  0  0  0  0  0  0  0
   12.5786  -18.0111   20.1123 C   0  0  0  0  0  0  0  0  0  0  0  0
   13.2950  -18.9566   19.2617 C   0  0  0  0  0  0  0  0  0  0  0  0
   12.8618  -19.4987   18.2326 O   0  0  0  0  0  0  0  0  0  0  0  0
   10.5481  -16.7240   20.6559 C   0  0  0  0  0  0  0  0  0  0  0  0
   11.1420  -16.4845   21.7608 O   0  0  0  0  0  0  0  0  0  0  0  0
   14.6084  -19.2752   19.6629 O   0  0  0  0  0  0  0  0  0  0  0  0
    9.2735  -16.1490   20.4188 N   0  0  0  0  0  0  0  0  0  0  0  0
    8.7319  -15.2401   21.4217 C   0  0  1  0  0  0  0  0  0  0  0  0
    7.6589  -14.4143   20.7591 C   0  0  0  0  0  0  0  0  0  0  0  0
    8.1601  -13.4016   19.7909 C   0  0  0  0  0  0  0  0  0  0  0  0
    7.8013  -13.7437   18.3534 C   0  0  0  0  0  0  0  0  0  0  0  0
    8.4271  -12.8174   17.3568 C   0  0  0  0  0  0  0  0  0  0  0  0
    7.9375  -13.1499   16.0136 N   0  0  0  0  0  0  0  0  0  0  0  0
    8.1578  -15.9888   22.5584 C   0  0  0  0  0  0  0  0  0  0  0  0
    7.4343  -17.0042   22.4490 O   0  0  0  0  0  0  0  0  0  0  0  0
    8.4006  -15.5863   23.9248 N   0  0  0  0  0  0  0  0  0  0  0  0
    7.8704  -16.2836   25.0635 C   0  0  1  0  0  0  0  0  0  0  0  0
    8.9029  -16.5045   26.1439 C   0  0  0  0  0  0  0  0  0  0  0  0
    9.6261  -17.8238   25.9861 C   0  0  0  0  0  0  0  0  0  0  0  0
   10.7124  -17.9317   26.9991 C   0  0  0  0  0  0  0  0  0  0  0  0
   11.4975  -19.2137   26.9096 C   0  0  0  0  0  0  0  0  0  0  0  0
   12.5586  -19.3048   27.8557 N   0  0  0  0  0  0  0  0  0  0  0  0
    6.7209  -15.5020   25.5852 C   0  0  0  0  0  0  0  0  0  0  0  0
    6.5811  -14.2650   25.3197 O   0  0  0  0  0  0  0  0  0  0  0  0
    5.7505  -16.0788   26.3816 O   0  0  0  0  0  0  0  0  0  0  0  0
  2  1  1  6
  3  2  1  0
  4  8  1  0
  4  3  1  0
  5  4  2  0
  6  2  1  0
  7  6  2  0
  9  6  1  0
 10 11  1  6
 10  9  1  0
 11 12  1  0
 13 12  1  0
 13 14  1  0
 14 15  1  0
 16 10  1  0
 17 16  2  0
 18 16  1  0
 19 25  1  0
 19 18  1  0
 19 20  1  1
 21 20  1  0
 22 21  1  0
 23 24  1  0
 23 22  1  0
 25 27  1  0
 26 25  2  0
M  END
$$$$
