DKK.pdb
     RDKit          3D

 27 26  0  0  1  0  0  0  0  0999 V2000
   12.2096  -14.1385   17.8876 N   0  0  0  0  0  0  0  0  0  0  0  0
   12.6318  -15.2528   18.7559 C   0  0  1  0  0  0  0  0  0  0  0  0
   13.9663  -14.8662   19.2903 C   0  0  0  0  0  0  0  0  0  0  0  0
   15.0901  -14.9389   18.3616 C   0  0  0  0  0  0  0  0  0  0  0  0
   15.1298  -15.5805   17.2999 O   0  0  0  0  0  0  0  0  0  0  0  0
   11.6124  -15.3527   19.8356 C   0  0  0  0  0  0  0  0  0  0  0  0
   11.1633  -14.2761   20.3554 O   0  0  0  0  0  0  0  0  0  0  0  0
   16.2364  -14.2014   18.7209 O   0  0  0  0  0  0  0  0  0  0  0  0
   11.1259  -16.6000   20.3035 N   0  0  0  0  0  0  0  0  0  0  0  0
   10.1071  -16.5933   21.3463 C   0  0  1  0  0  0  0  0  0  0  0  0
    9.1612  -17.7339   21.0693 C   0  0  0  0  0  0  0  0  0  0  0  0
    8.3951  -17.6143   19.7993 C   0  0  0  0  0  0  0  0  0  0  0  0
    7.4843  -18.8070   19.5549 C   0  0  0  0  0  0  0  0  0  0  0  0
    6.7029  -18.6966   18.2820 C   0  0  0  0  0  0  0  0  0  0  0  0
    5.8651  -19.8914   18.1237 N   0  0  0  0  0  0  0  0  0  0  0  0
   10.7165  -16.7606   22.6815 C   0  0  0  0  0  0  0  0  0  0  0  0
   11.6930  -17.5029   22.9301 O   0  0  0  0  0  0  0  0  0  0  0  0
   10.2092  -16.0532   23.8349 N   0  0  0  0  0  0  0  0  0  0  0  0
   10.6721  -16.2852   25.1750 C   0  0  1  0  0  0  0  0  0  0  0  0
   10.2264  -15.2112   26.1394 C   0  0  0  0  0  0  0  0  0  0  0  0
   10.6306  -15.5158   27.5650 C   0  0  0  0  0  0  0  0  0  0  0  0
   10.2044  -14.4058   28.4618 C   0  0  0  0  0  0  0  0  0  0  0  0
   10.6063  -14.6019   29.8998 C   0  0  0  0  0  0  0  0  0  0  0  0
   10.2814  -13.5003   30.7425 N   0  0  0  0  0  0  0  0  0  0  0  0
   10.1792  -17.6178   25.6059 C   0  0  0  0  0  0  0  0  0  0  0  0
    9.0279  -18.0432   25.2687 O   0  0  0  0  0  0  0  0  0  0  0  0
   10.9449  -18.4577   26.3914 O   0  0  0  0  0  0  0  0  0  0  0  0
  2  1  1  6
  3  2  1  0
  4  8  1  0
  4  3  1  0
  5  4  2  0
  6  2  1  0
  7  6  2  0
  9  6  1  0
 10 11  1  6
 10  9  1  0
 11 12  1  0
 13 12  1  0
 13 14  1  0
 14 15  1  0
 16 10  1  0
 17 16  2  0
 18 16  1  0
 19 25  1  0
 19 18  1  0
 19 20  1  1
 21 20  1  0
 22 21  1  0
 23 24  1  0
 23 22  1  0
 25 27  1  0
 26 25  2  0
M  END
$$$$
