DKK.pdb
     RDKit          3D

 27 26  0  0  1  0  0  0  0  0999 V2000
   11.4089  -19.5250   20.6269 N   0  0  0  0  0  0  0  0  0  0  0  0
   12.2046  -18.9129   21.7066 C   0  0  1  0  0  0  0  0  0  0  0  0
   13.6053  -18.8727   21.2041 C   0  0  0  0  0  0  0  0  0  0  0  0
   14.6441  -18.5684   22.1835 C   0  0  0  0  0  0  0  0  0  0  0  0
   14.4936  -18.4644   23.4110 O   0  0  0  0  0  0  0  0  0  0  0  0
   11.6521  -17.5463   21.9118 C   0  0  0  0  0  0  0  0  0  0  0  0
   12.4071  -16.5407   21.6892 O   0  0  0  0  0  0  0  0  0  0  0  0
   15.9418  -18.3764   21.6672 O   0  0  0  0  0  0  0  0  0  0  0  0
   10.3196  -17.3263   22.3449 N   0  0  0  0  0  0  0  0  0  0  0  0
    9.8629  -15.9497   22.4921 C   0  0  1  0  0  0  0  0  0  0  0  0
    8.9776  -15.6327   21.3140 C   0  0  0  0  0  0  0  0  0  0  0  0
    8.5270  -14.2167   21.2357 C   0  0  0  0  0  0  0  0  0  0  0  0
    7.6644  -13.9476   20.0127 C   0  0  0  0  0  0  0  0  0  0  0  0
    7.1956  -12.5278   19.9271 C   0  0  0  0  0  0  0  0  0  0  0  0
    6.3943  -12.3558   18.7094 N   0  0  0  0  0  0  0  0  0  0  0  0
    9.1063  -15.7754   23.7488 C   0  0  0  0  0  0  0  0  0  0  0  0
    8.1026  -16.4486   24.0743 O   0  0  0  0  0  0  0  0  0  0  0  0
    9.4863  -14.7799   24.7249 N   0  0  0  0  0  0  0  0  0  0  0  0
    8.7425  -14.5226   25.9268 C   0  0  1  0  0  0  0  0  0  0  0  0
    9.4822  -13.6221   26.8880 C   0  0  0  0  0  0  0  0  0  0  0  0
    9.2379  -13.9997   28.3324 C   0  0  0  0  0  0  0  0  0  0  0  0
   10.2652  -14.9799   28.7816 C   0  0  0  0  0  0  0  0  0  0  0  0
   10.1034  -15.4111   30.2154 C   0  0  0  0  0  0  0  0  0  0  0  0
   11.0145  -16.4306   30.6150 N   0  0  0  0  0  0  0  0  0  0  0  0
    7.4397  -13.9242   25.5405 C   0  0  0  0  0  0  0  0  0  0  0  0
    6.4625  -13.8735   26.3545 O   0  0  0  0  0  0  0  0  0  0  0  0
    7.2267  -13.3953   24.2821 O   0  0  0  0  0  0  0  0  0  0  0  0
  2  1  1  6
  3  2  1  0
  4  8  1  0
  4  3  1  0
  5  4  2  0
  6  2  1  0
  7  6  2  0
  9  6  1  0
 10 11  1  6
 10  9  1  0
 11 12  1  0
 13 12  1  0
 13 14  1  0
 14 15  1  0
 16 10  1  0
 17 16  2  0
 18 16  1  0
 19 25  1  0
 19 18  1  0
 19 20  1  1
 21 20  1  0
 22 21  1  0
 23 24  1  0
 23 22  1  0
 25 27  1  0
 26 25  2  0
M  END
$$$$
