DKK.pdb
     RDKit          3D

 27 26  0  0  1  0  0  0  0  0999 V2000
   11.2310  -20.2374   18.5581 N   0  0  0  0  0  0  0  0  0  0  0  0
   11.6637  -18.9418   18.0033 C   0  0  1  0  0  0  0  0  0  0  0  0
   10.7570  -18.6706   16.8542 C   0  0  0  0  0  0  0  0  0  0  0  0
   11.0636  -17.4983   16.0402 C   0  0  0  0  0  0  0  0  0  0  0  0
   10.2433  -16.7441   15.4938 O   0  0  0  0  0  0  0  0  0  0  0  0
   11.4909  -17.9409   19.0911 C   0  0  0  0  0  0  0  0  0  0  0  0
   12.5144  -17.2930   19.4954 O   0  0  0  0  0  0  0  0  0  0  0  0
   12.4322  -17.2078   15.8674 O   0  0  0  0  0  0  0  0  0  0  0  0
   10.2312  -17.6850   19.6904 N   0  0  0  0  0  0  0  0  0  0  0  0
   10.1662  -16.6944   20.7580 C   0  0  1  0  0  0  0  0  0  0  0  0
    8.9185  -15.8752   20.5469 C   0  0  0  0  0  0  0  0  0  0  0  0
    9.0367  -14.8151   19.5095 C   0  0  0  0  0  0  0  0  0  0  0  0
    7.7279  -14.0752   19.2822 C   0  0  0  0  0  0  0  0  0  0  0  0
    7.8524  -12.9524   18.2989 C   0  0  0  0  0  0  0  0  0  0  0  0
    6.5454  -12.3046   18.1365 N   0  0  0  0  0  0  0  0  0  0  0  0
   10.1191  -17.3471   22.0824 C   0  0  0  0  0  0  0  0  0  0  0  0
    9.1869  -18.0807   22.4814 O   0  0  0  0  0  0  0  0  0  0  0  0
   11.1846  -17.1778   23.0438 N   0  0  0  0  0  0  0  0  0  0  0  0
   11.2274  -17.8576   24.3087 C   0  0  1  0  0  0  0  0  0  0  0  0
   12.5244  -18.6007   24.5270 C   0  0  0  0  0  0  0  0  0  0  0  0
   12.5077  -19.4249   25.7954 C   0  0  0  0  0  0  0  0  0  0  0  0
   13.8048  -20.1392   25.9540 C   0  0  0  0  0  0  0  0  0  0  0  0
   13.8735  -21.0015   27.1867 C   0  0  0  0  0  0  0  0  0  0  0  0
   15.1337  -21.6395   27.3721 N   0  0  0  0  0  0  0  0  0  0  0  0
   11.0107  -16.8505   25.3779 C   0  0  0  0  0  0  0  0  0  0  0  0
   11.2154  -15.6105   25.1764 O   0  0  0  0  0  0  0  0  0  0  0  0
   10.5775  -17.2104   26.6394 O   0  0  0  0  0  0  0  0  0  0  0  0
  2  1  1  1
  3  2  1  0
  4  8  1  0
  4  3  1  0
  5  4  2  0
  6  2  1  0
  7  6  2  0
  9  6  1  0
 10 11  1  6
 10  9  1  0
 11 12  1  0
 13 12  1  0
 13 14  1  0
 14 15  1  0
 16 10  1  0
 17 16  2  0
 18 16  1  0
 19 25  1  0
 19 18  1  0
 19 20  1  1
 21 20  1  0
 22 21  1  0
 23 24  1  0
 23 22  1  0
 25 27  1  0
 26 25  2  0
M  END
$$$$
