DKK.pdb
     RDKit          3D

 27 26  0  0  1  0  0  0  0  0999 V2000
   11.2609  -18.1241   19.1900 N   0  0  0  0  0  0  0  0  0  0  0  0
   12.2620  -17.5264   20.0924 C   0  0  1  0  0  0  0  0  0  0  0  0
   13.2699  -16.8803   19.2075 C   0  0  0  0  0  0  0  0  0  0  0  0
   14.2491  -17.7609   18.5778 C   0  0  0  0  0  0  0  0  0  0  0  0
   14.7990  -18.7446   19.0976 O   0  0  0  0  0  0  0  0  0  0  0  0
   11.5352  -16.5278   20.9227 C   0  0  0  0  0  0  0  0  0  0  0  0
   12.1905  -15.8626   21.7940 O   0  0  0  0  0  0  0  0  0  0  0  0
   14.5935  -17.4491   17.2469 O   0  0  0  0  0  0  0  0  0  0  0  0
   10.1442  -16.2923   20.7777 N   0  0  0  0  0  0  0  0  0  0  0  0
    9.5134  -15.3276   21.6702 C   0  0  1  0  0  0  0  0  0  0  0  0
    8.2374  -14.8640   21.0148 C   0  0  0  0  0  0  0  0  0  0  0  0
    8.4241  -14.1466   19.7245 C   0  0  0  0  0  0  0  0  0  0  0  0
    7.1037  -13.8135   19.0480 C   0  0  0  0  0  0  0  0  0  0  0  0
    7.2769  -13.0770   17.7555 C   0  0  0  0  0  0  0  0  0  0  0  0
    5.9577  -12.8159   17.1672 N   0  0  0  0  0  0  0  0  0  0  0  0
    9.2103  -15.9391   22.9803 C   0  0  0  0  0  0  0  0  0  0  0  0
    8.7771  -17.1024   23.1394 O   0  0  0  0  0  0  0  0  0  0  0  0
    9.4000  -15.2102   24.2135 N   0  0  0  0  0  0  0  0  0  0  0  0
    9.1920  -15.7837   25.5142 C   0  0  1  0  0  0  0  0  0  0  0  0
    9.7997  -14.9539   26.6207 C   0  0  0  0  0  0  0  0  0  0  0  0
    9.6595  -15.6121   27.9755 C   0  0  0  0  0  0  0  0  0  0  0  0
   10.2897  -14.7600   29.0217 C   0  0  0  0  0  0  0  0  0  0  0  0
   10.2373  -15.3593   30.4023 C   0  0  0  0  0  0  0  0  0  0  0  0
   10.7413  -14.5005   31.4209 N   0  0  0  0  0  0  0  0  0  0  0  0
    7.7297  -15.9421   25.7168 C   0  0  0  0  0  0  0  0  0  0  0  0
    7.2561  -16.8551   26.4668 O   0  0  0  0  0  0  0  0  0  0  0  0
    6.8155  -15.1082   25.1024 O   0  0  0  0  0  0  0  0  0  0  0  0
  2  1  1  6
  3  2  1  0
  4  8  1  0
  4  3  1  0
  5  4  2  0
  6  2  1  0
  7  6  2  0
  9  6  1  0
 10 11  1  6
 10  9  1  0
 11 12  1  0
 13 12  1  0
 13 14  1  0
 14 15  1  0
 16 10  1  0
 17 16  2  0
 18 16  1  0
 19 25  1  0
 19 18  1  0
 19 20  1  1
 21 20  1  0
 22 21  1  0
 23 24  1  0
 23 22  1  0
 25 27  1  0
 26 25  2  0
M  END
$$$$
