DKK.pdb
     RDKit          3D

 27 26  0  0  1  0  0  0  0  0999 V2000
   11.3421  -18.4466   18.7487 N   0  0  0  0  0  0  0  0  0  0  0  0
   12.5440  -17.8979   19.4031 C   0  0  1  0  0  0  0  0  0  0  0  0
   13.2072  -17.0434   18.3804 C   0  0  0  0  0  0  0  0  0  0  0  0
   13.7629  -17.7267   17.2163 C   0  0  0  0  0  0  0  0  0  0  0  0
   13.4172  -17.5712   16.0345 O   0  0  0  0  0  0  0  0  0  0  0  0
   12.0622  -17.0984   20.5624 C   0  0  0  0  0  0  0  0  0  0  0  0
   12.9230  -16.5183   21.3062 O   0  0  0  0  0  0  0  0  0  0  0  0
   14.7938  -18.6520   17.4777 O   0  0  0  0  0  0  0  0  0  0  0  0
   10.6836  -16.9610   20.8659 N   0  0  0  0  0  0  0  0  0  0  0  0
   10.3128  -16.1870   22.0442 C   0  0  1  0  0  0  0  0  0  0  0  0
    8.9971  -15.5115   21.7527 C   0  0  0  0  0  0  0  0  0  0  0  0
    9.0428  -14.5026   20.6600 C   0  0  0  0  0  0  0  0  0  0  0  0
    7.6702  -13.9347   20.3349 C   0  0  0  0  0  0  0  0  0  0  0  0
    7.7058  -12.8975   19.2551 C   0  0  0  0  0  0  0  0  0  0  0  0
    6.3385  -12.4422   18.9767 N   0  0  0  0  0  0  0  0  0  0  0  0
   10.1766  -17.0597   23.2284 C   0  0  0  0  0  0  0  0  0  0  0  0
    9.3703  -18.0125   23.3212 O   0  0  0  0  0  0  0  0  0  0  0  0
   10.9943  -16.8669   24.4040 N   0  0  0  0  0  0  0  0  0  0  0  0
   10.8725  -17.6619   25.5944 C   0  0  1  0  0  0  0  0  0  0  0  0
   12.0010  -18.6541   25.7503 C   0  0  0  0  0  0  0  0  0  0  0  0
   12.1140  -19.5864   24.5643 C   0  0  0  0  0  0  0  0  0  0  0  0
   13.2455  -20.5329   24.7686 C   0  0  0  0  0  0  0  0  0  0  0  0
   13.4642  -21.4724   23.6121 C   0  0  0  0  0  0  0  0  0  0  0  0
   14.6109  -22.3051   23.7573 N   0  0  0  0  0  0  0  0  0  0  0  0
   10.8165  -16.7406   26.7573 C   0  0  0  0  0  0  0  0  0  0  0  0
   10.9937  -15.4872   26.6233 O   0  0  0  0  0  0  0  0  0  0  0  0
   10.5701  -17.1986   28.0372 O   0  0  0  0  0  0  0  0  0  0  0  0
  2  1  1  6
  3  2  1  0
  4  8  1  0
  4  3  1  0
  5  4  2  0
  6  2  1  0
  7  6  2  0
  9  6  1  0
 10 11  1  6
 10  9  1  0
 11 12  1  0
 13 12  1  0
 13 14  1  0
 14 15  1  0
 16 10  1  0
 17 16  2  0
 18 16  1  0
 19 25  1  0
 19 18  1  0
 19 20  1  1
 21 20  1  0
 22 21  1  0
 23 24  1  0
 23 22  1  0
 25 27  1  0
 26 25  2  0
M  END
$$$$
