DKK.pdb
     RDKit          3D

 27 26  0  0  1  0  0  0  0  0999 V2000
   11.7231  -17.4190   18.2446 N   0  0  0  0  0  0  0  0  0  0  0  0
   12.1409  -17.4528   19.6581 C   0  0  1  0  0  0  0  0  0  0  0  0
   13.1188  -16.3418   19.8177 C   0  0  0  0  0  0  0  0  0  0  0  0
   14.5252  -16.6717   19.6075 C   0  0  0  0  0  0  0  0  0  0  0  0
   14.9854  -17.7846   19.3076 O   0  0  0  0  0  0  0  0  0  0  0  0
   10.9109  -17.2258   20.4646 C   0  0  0  0  0  0  0  0  0  0  0  0
   10.1050  -16.3025   20.1058 O   0  0  0  0  0  0  0  0  0  0  0  0
   15.4384  -15.6094   19.7646 O   0  0  0  0  0  0  0  0  0  0  0  0
   10.6068  -17.9990   21.6141 N   0  0  0  0  0  0  0  0  0  0  0  0
    9.3146  -17.7953   22.2576 C   0  0  1  0  0  0  0  0  0  0  0  0
    8.8089  -19.1429   22.7055 C   0  0  0  0  0  0  0  0  0  0  0  0
    7.5082  -19.1124   23.4274 C   0  0  0  0  0  0  0  0  0  0  0  0
    7.0527  -20.4958   23.8641 C   0  0  0  0  0  0  0  0  0  0  0  0
    5.7043  -20.4903   24.5159 C   0  0  0  0  0  0  0  0  0  0  0  0
    5.4130  -21.8317   25.0357 N   0  0  0  0  0  0  0  0  0  0  0  0
    9.4401  -16.8948   23.4219 C   0  0  0  0  0  0  0  0  0  0  0  0
   10.3492  -16.9630   24.2794 O   0  0  0  0  0  0  0  0  0  0  0  0
    8.4877  -15.8345   23.6599 N   0  0  0  0  0  0  0  0  0  0  0  0
    8.5687  -14.9305   24.7737 C   0  0  1  0  0  0  0  0  0  0  0  0
    7.3551  -14.0383   24.8891 C   0  0  0  0  0  0  0  0  0  0  0  0
    7.4031  -13.1597   26.1196 C   0  0  0  0  0  0  0  0  0  0  0  0
    6.2030  -12.2789   26.1618 C   0  0  0  0  0  0  0  0  0  0  0  0
    6.2133  -11.2971   27.3036 C   0  0  0  0  0  0  0  0  0  0  0  0
    5.0769  -10.4386   27.3334 N   0  0  0  0  0  0  0  0  0  0  0  0
    8.7485  -15.7375   26.0069 C   0  0  0  0  0  0  0  0  0  0  0  0
    9.6039  -15.4175   26.8935 O   0  0  0  0  0  0  0  0  0  0  0  0
    7.9979  -16.8716   26.2502 O   0  0  0  0  0  0  0  0  0  0  0  0
  2  1  1  6
  3  2  1  0
  4  8  1  0
  4  3  1  0
  5  4  2  0
  6  2  1  0
  7  6  2  0
  9  6  1  0
 10 11  1  1
 10  9  1  0
 11 12  1  0
 13 12  1  0
 13 14  1  0
 14 15  1  0
 16 10  1  0
 17 16  2  0
 18 16  1  0
 19 25  1  0
 19 18  1  0
 19 20  1  1
 21 20  1  0
 22 21  1  0
 23 24  1  0
 23 22  1  0
 25 27  1  0
 26 25  2  0
M  END
$$$$
