DKK.pdb
     RDKit          3D

 27 26  0  0  1  0  0  0  0  0999 V2000
    8.7698  -12.8028   18.3684 N   0  0  0  0  0  0  0  0  0  0  0  0
    9.4005  -14.0919   18.7064 C   0  0  1  0  0  0  0  0  0  0  0  0
   10.8484  -13.7985   18.8895 C   0  0  0  0  0  0  0  0  0  0  0  0
   11.6716  -13.7852   17.6842 C   0  0  0  0  0  0  0  0  0  0  0  0
   12.9005  -13.6194   17.6315 O   0  0  0  0  0  0  0  0  0  0  0  0
    8.7657  -14.5504   19.9720 C   0  0  0  0  0  0  0  0  0  0  0  0
    8.5308  -13.6900   20.8860 O   0  0  0  0  0  0  0  0  0  0  0  0
   10.9876  -13.9818   16.4674 O   0  0  0  0  0  0  0  0  0  0  0  0
    8.4148  -15.9065   20.1943 N   0  0  0  0  0  0  0  0  0  0  0  0
    7.7278  -16.2446   21.4348 C   0  0  1  0  0  0  0  0  0  0  0  0
    7.0202  -17.5587   21.2227 C   0  0  0  0  0  0  0  0  0  0  0  0
    6.4533  -18.1679   22.4562 C   0  0  0  0  0  0  0  0  0  0  0  0
    5.6829  -19.4476   22.1717 C   0  0  0  0  0  0  0  0  0  0  0  0
    4.9872  -19.9938   23.3803 C   0  0  0  0  0  0  0  0  0  0  0  0
    4.1865  -21.1608   22.9911 N   0  0  0  0  0  0  0  0  0  0  0  0
    8.6853  -16.3657   22.5532 C   0  0  0  0  0  0  0  0  0  0  0  0
    9.7879  -16.9539   22.4853 O   0  0  0  0  0  0  0  0  0  0  0  0
    8.4051  -15.7928   23.8498 N   0  0  0  0  0  0  0  0  0  0  0  0
    9.2866  -15.9135   24.9779 C   0  0  1  0  0  0  0  0  0  0  0  0
    8.8267  -15.1017   26.1660 C   0  0  0  0  0  0  0  0  0  0  0  0
    9.6761  -15.3480   27.3934 C   0  0  0  0  0  0  0  0  0  0  0  0
    9.1591  -14.5473   28.5376 C   0  0  0  0  0  0  0  0  0  0  0  0
    9.9056  -14.7799   29.8247 C   0  0  0  0  0  0  0  0  0  0  0  0
    9.4945  -13.9275   30.8895 N   0  0  0  0  0  0  0  0  0  0  0  0
    9.3865  -17.3524   25.3297 C   0  0  0  0  0  0  0  0  0  0  0  0
    8.3716  -18.1197   25.2907 O   0  0  0  0  0  0  0  0  0  0  0  0
   10.5828  -17.9258   25.7153 O   0  0  0  0  0  0  0  0  0  0  0  0
  2  1  1  1
  3  2  1  0
  4  8  1  0
  4  3  1  0
  5  4  2  0
  6  2  1  0
  7  6  2  0
  9  6  1  0
 10 11  1  6
 10  9  1  0
 11 12  1  0
 13 12  1  0
 13 14  1  0
 14 15  1  0
 16 10  1  0
 17 16  2  0
 18 16  1  0
 19 25  1  0
 19 18  1  0
 19 20  1  1
 21 20  1  0
 22 21  1  0
 23 24  1  0
 23 22  1  0
 25 27  1  0
 26 25  2  0
M  END
$$$$
