DKK.pdb
     RDKit          3D

 27 26  0  0  1  0  0  0  0  0999 V2000
    8.7373  -19.3968   19.8813 N   0  0  0  0  0  0  0  0  0  0  0  0
    8.8218  -20.8577   20.0614 C   0  0  1  0  0  0  0  0  0  0  0  0
    8.6991  -21.4414   18.6974 C   0  0  0  0  0  0  0  0  0  0  0  0
    7.5698  -20.9891   17.8905 C   0  0  0  0  0  0  0  0  0  0  0  0
    6.7778  -20.0769   18.1750 O   0  0  0  0  0  0  0  0  0  0  0  0
   10.1567  -21.1299   20.6604 C   0  0  0  0  0  0  0  0  0  0  0  0
   10.2649  -22.0768   21.5104 O   0  0  0  0  0  0  0  0  0  0  0  0
    7.3732  -21.6662   16.6698 O   0  0  0  0  0  0  0  0  0  0  0  0
   11.3075  -20.3745   20.3187 N   0  0  0  0  0  0  0  0  0  0  0  0
   12.5850  -20.7661   20.9015 C   0  0  1  0  0  0  0  0  0  0  0  0
   13.6768  -20.2533   19.9974 C   0  0  0  0  0  0  0  0  0  0  0  0
   13.9522  -21.1037   18.8078 C   0  0  0  0  0  0  0  0  0  0  0  0
   15.0771  -20.5519   17.9463 C   0  0  0  0  0  0  0  0  0  0  0  0
   15.3404  -21.3792   16.7259 C   0  0  0  0  0  0  0  0  0  0  0  0
   16.4184  -20.7601   15.9454 N   0  0  0  0  0  0  0  0  0  0  0  0
   12.7457  -20.1958   22.2547 C   0  0  0  0  0  0  0  0  0  0  0  0
   12.5177  -19.0026   22.5556 O   0  0  0  0  0  0  0  0  0  0  0  0
   13.1932  -21.0053   23.3649 N   0  0  0  0  0  0  0  0  0  0  0  0
   13.2612  -20.5281   24.7182 C   0  0  1  0  0  0  0  0  0  0  0  0
   12.4043  -21.3358   25.6645 C   0  0  0  0  0  0  0  0  0  0  0  0
   12.5675  -20.8977   27.1032 C   0  0  0  0  0  0  0  0  0  0  0  0
   11.7594  -21.7743   27.9957 C   0  0  0  0  0  0  0  0  0  0  0  0
   11.9406  -21.4770   29.4608 C   0  0  0  0  0  0  0  0  0  0  0  0
   11.1442  -22.2924   30.3153 N   0  0  0  0  0  0  0  0  0  0  0  0
   14.6837  -20.5545   25.1427 C   0  0  0  0  0  0  0  0  0  0  0  0
   15.4995  -21.4178   24.6850 O   0  0  0  0  0  0  0  0  0  0  0  0
   15.1885  -19.6455   26.0524 O   0  0  0  0  0  0  0  0  0  0  0  0
  2  1  1  6
  3  2  1  0
  4  8  1  0
  4  3  1  0
  5  4  2  0
  6  2  1  0
  7  6  2  0
  9  6  1  0
 10 11  1  6
 10  9  1  0
 11 12  1  0
 13 12  1  0
 13 14  1  0
 14 15  1  0
 16 10  1  0
 17 16  2  0
 18 16  1  0
 19 25  1  0
 19 18  1  0
 19 20  1  1
 21 20  1  0
 22 21  1  0
 23 24  1  0
 23 22  1  0
 25 27  1  0
 26 25  2  0
M  END
$$$$
