DKK.pdb
     RDKit          3D

 27 26  0  0  1  0  0  0  0  0999 V2000
   11.8314  -19.9481   18.9464 N   0  0  0  0  0  0  0  0  0  0  0  0
   11.6436  -18.4928   19.0898 C   0  0  1  0  0  0  0  0  0  0  0  0
   11.3227  -17.9898   17.7259 C   0  0  0  0  0  0  0  0  0  0  0  0
   12.3859  -18.0751   16.7294 C   0  0  0  0  0  0  0  0  0  0  0  0
   13.5086  -18.5794   16.8891 O   0  0  0  0  0  0  0  0  0  0  0  0
   10.5040  -18.3074   20.0289 C   0  0  0  0  0  0  0  0  0  0  0  0
   10.0915  -17.1221   20.2650 O   0  0  0  0  0  0  0  0  0  0  0  0
   12.0921  -17.5253   15.4649 O   0  0  0  0  0  0  0  0  0  0  0  0
    9.8643  -19.4006   20.6672 N   0  0  0  0  0  0  0  0  0  0  0  0
    8.8406  -19.1116   21.6641 C   0  0  1  0  0  0  0  0  0  0  0  0
    8.1451  -20.4075   21.9947 C   0  0  0  0  0  0  0  0  0  0  0  0
    7.0681  -20.2945   23.0152 C   0  0  0  0  0  0  0  0  0  0  0  0
    6.4292  -21.6361   23.3377 C   0  0  0  0  0  0  0  0  0  0  0  0
    5.3478  -21.5375   24.3692 C   0  0  0  0  0  0  0  0  0  0  0  0
    4.7694  -22.8679   24.5921 N   0  0  0  0  0  0  0  0  0  0  0  0
    9.4402  -18.5386   22.8865 C   0  0  0  0  0  0  0  0  0  0  0  0
   10.5073  -18.9331   23.4080 O   0  0  0  0  0  0  0  0  0  0  0  0
    8.8135  -17.4431   23.5904 N   0  0  0  0  0  0  0  0  0  0  0  0
    9.3931  -16.8024   24.7383 C   0  0  1  0  0  0  0  0  0  0  0  0
    8.6399  -15.5609   25.1547 C   0  0  0  0  0  0  0  0  0  0  0  0
    9.2838  -14.8671   26.3347 C   0  0  0  0  0  0  0  0  0  0  0  0
    8.5102  -13.6450   26.6893 C   0  0  0  0  0  0  0  0  0  0  0  0
    9.1449  -12.8227   27.7797 C   0  0  0  0  0  0  0  0  0  0  0  0
    8.4232  -11.6367   28.0989 N   0  0  0  0  0  0  0  0  0  0  0  0
    9.4313  -17.7916   25.8448 C   0  0  0  0  0  0  0  0  0  0  0  0
   10.4143  -17.8515   26.6512 O   0  0  0  0  0  0  0  0  0  0  0  0
    8.4041  -18.6921   26.0515 O   0  0  0  0  0  0  0  0  0  0  0  0
  2  1  1  6
  3  2  1  0
  4  8  1  0
  4  3  1  0
  5  4  2  0
  6  2  1  0
  7  6  2  0
  9  6  1  0
 10 11  1  1
 10  9  1  0
 11 12  1  0
 13 12  1  0
 13 14  1  0
 14 15  1  0
 16 10  1  0
 17 16  2  0
 18 16  1  0
 19 25  1  0
 19 18  1  0
 19 20  1  1
 21 20  1  0
 22 21  1  0
 23 24  1  0
 23 22  1  0
 25 27  1  0
 26 25  2  0
M  END
$$$$
