DKK.pdb
     RDKit          3D

 27 26  0  0  1  0  0  0  0  0999 V2000
   10.9844  -16.6089   17.6059 N   0  0  0  0  0  0  0  0  0  0  0  0
   11.3345  -17.6891   18.5464 C   0  0  1  0  0  0  0  0  0  0  0  0
   12.7943  -17.5470   18.8007 C   0  0  0  0  0  0  0  0  0  0  0  0
   13.6911  -18.0127   17.7472 C   0  0  0  0  0  0  0  0  0  0  0  0
   13.3928  -18.2138   16.5594 O   0  0  0  0  0  0  0  0  0  0  0  0
   10.5336  -17.4490   19.7777 C   0  0  0  0  0  0  0  0  0  0  0  0
   10.3883  -16.2489   20.1894 O   0  0  0  0  0  0  0  0  0  0  0  0
   15.0252  -18.2533   18.1341 O   0  0  0  0  0  0  0  0  0  0  0  0
    9.9294  -18.5060   20.5051 N   0  0  0  0  0  0  0  0  0  0  0  0
    9.0865  -18.1630   21.6440 C   0  0  1  0  0  0  0  0  0  0  0  0
    8.1726  -19.3330   21.9057 C   0  0  0  0  0  0  0  0  0  0  0  0
    7.1443  -19.5680   20.8562 C   0  0  0  0  0  0  0  0  0  0  0  0
    6.2565  -20.7622   21.1689 C   0  0  0  0  0  0  0  0  0  0  0  0
    5.3381  -21.1208   20.0415 C   0  0  0  0  0  0  0  0  0  0  0  0
    4.5038  -22.2604   20.4413 N   0  0  0  0  0  0  0  0  0  0  0  0
    9.9043  -17.8879   22.8430 C   0  0  0  0  0  0  0  0  0  0  0  0
   11.0178  -18.4081   23.0795 O   0  0  0  0  0  0  0  0  0  0  0  0
    9.4595  -16.9656   23.8626 N   0  0  0  0  0  0  0  0  0  0  0  0
   10.2266  -16.6490   25.0354 C   0  0  1  0  0  0  0  0  0  0  0  0
    9.6303  -15.5124   25.8321 C   0  0  0  0  0  0  0  0  0  0  0  0
   10.4494  -15.1799   27.0597 C   0  0  0  0  0  0  0  0  0  0  0  0
    9.8670  -13.9979   27.7538 C   0  0  0  0  0  0  0  0  0  0  0  0
   10.6087  -13.6048   29.0041 C   0  0  0  0  0  0  0  0  0  0  0  0
   10.0487  -12.4795   29.6745 N   0  0  0  0  0  0  0  0  0  0  0  0
   10.3263  -17.8774   25.8633 C   0  0  0  0  0  0  0  0  0  0  0  0
    9.3446  -18.6779   25.9885 O   0  0  0  0  0  0  0  0  0  0  0  0
   11.4867  -18.2094   26.5357 O   0  0  0  0  0  0  0  0  0  0  0  0
  2  1  1  6
  3  2  1  0
  4  8  1  0
  4  3  1  0
  5  4  2  0
  6  2  1  0
  7  6  2  0
  9  6  1  0
 10 11  1  1
 10  9  1  0
 11 12  1  0
 13 12  1  0
 13 14  1  0
 14 15  1  0
 16 10  1  0
 17 16  2  0
 18 16  1  0
 19 25  1  0
 19 18  1  0
 19 20  1  1
 21 20  1  0
 22 21  1  0
 23 24  1  0
 23 22  1  0
 25 27  1  0
 26 25  2  0
M  END
$$$$
