GHE.pdb
     RDKit          3D

 24 24  0  0  1  0  0  0  0  0999 V2000
   11.1948  -20.0295   15.8169 N   0  0  0  0  0  0  0  0  0  0  0  0
   10.1159  -19.5603   16.6344 C   0  0  0  0  0  0  0  0  0  0  0  0
   10.4086  -18.2381   17.2417 C   0  0  0  0  0  0  0  0  0  0  0  0
   11.5696  -17.7660   17.1065 O   0  0  0  0  0  0  0  0  0  0  0  0
    9.3920  -17.5641   17.9396 N   0  0  0  0  0  0  0  0  0  0  0  0
    9.6565  -16.1880   18.5049 C   0  0  1  0  0  0  0  0  0  0  0  0
    8.3119  -15.5692   18.7001 C   0  0  0  0  0  0  0  0  0  0  0  0
    8.2725  -14.2255   19.2844 C   0  0  0  0  0  0  0  0  0  0  0  0
    9.4279  -13.4651   19.6061 C   0  0  0  0  0  0  0  0  0  0  0  0
    9.0564  -12.2898   20.1193 N   0  0  0  0  0  0  0  0  0  0  0  0
    7.7131  -12.2552   20.1443 C   0  0  0  0  0  0  0  0  0  0  0  0
    7.2726  -13.4123   19.6450 N   0  0  0  0  0  0  0  0  0  0  0  0
   10.4064  -16.4861   19.7387 C   0  0  0  0  0  0  0  0  0  0  0  0
   10.0191  -17.4958   20.4454 O   0  0  0  0  0  0  0  0  0  0  0  0
   11.5220  -15.8071   20.2668 N   0  0  0  0  0  0  0  0  0  0  0  0
   12.1821  -16.2439   21.5033 C   0  0  1  0  0  0  0  0  0  0  0  0
   13.5616  -15.6363   21.4685 C   0  0  0  0  0  0  0  0  0  0  0  0
   14.4328  -15.9744   22.6264 C   0  0  0  0  0  0  0  0  0  0  0  0
   15.7616  -15.3693   22.4232 C   0  0  0  0  0  0  0  0  0  0  0  0
   16.7871  -15.9544   22.8143 O   0  0  0  0  0  0  0  0  0  0  0  0
   11.4180  -15.8626   22.6879 C   0  0  0  0  0  0  0  0  0  0  0  0
   10.4926  -14.8262   22.7205 O   0  0  0  0  0  0  0  0  0  0  0  0
   15.8717  -14.1486   21.7969 O   0  0  0  0  0  0  0  0  0  0  0  0
   11.5890  -16.4944   23.7560 O   0  0  0  0  0  0  0  0  0  0  0  0
  2  1  1  0
  3  2  1  0
  3  5  1  0
  4  3  2  0
  6  5  1  0
  6 13  1  0
  6  7  1  1
  8  7  1  0
  8 12  1  0
  9 10  1  0
  9  8  2  0
 10 11  1  0
 11 12  2  0
 13 14  2  0
 13 15  1  0
 15 16  1  0
 16 17  1  1
 16 21  1  0
 17 18  1  0
 18 19  1  0
 19 20  2  0
 21 22  1  0
 23 19  1  0
 24 21  2  0
M  END
$$$$
