GHE.pdb
     RDKit          3D

 24 24  0  0  1  0  0  0  0  0999 V2000
    6.3416  -20.1512   19.2621 N   0  0  0  0  0  0  0  0  0  0  0  0
    6.0142  -19.1940   20.2766 C   0  0  0  0  0  0  0  0  0  0  0  0
    7.1529  -18.2929   20.5834 C   0  0  0  0  0  0  0  0  0  0  0  0
    8.2789  -18.5683   20.0879 O   0  0  0  0  0  0  0  0  0  0  0  0
    6.9395  -17.1746   21.4073 N   0  0  0  0  0  0  0  0  0  0  0  0
    8.0856  -16.2381   21.7113 C   0  0  1  0  0  0  0  0  0  0  0  0
    7.4672  -14.8906   21.8859 C   0  0  0  0  0  0  0  0  0  0  0  0
    7.7025  -13.9043   20.8274 C   0  0  0  0  0  0  0  0  0  0  0  0
    8.4635  -14.1623   19.6566 C   0  0  0  0  0  0  0  0  0  0  0  0
    8.4893  -13.0664   18.8942 N   0  0  0  0  0  0  0  0  0  0  0  0
    7.7795  -12.1111   19.5187 C   0  0  0  0  0  0  0  0  0  0  0  0
    7.3242  -12.6315   20.6606 N   0  0  0  0  0  0  0  0  0  0  0  0
    8.6727  -16.8325   22.9260 C   0  0  0  0  0  0  0  0  0  0  0  0
    7.8610  -17.2680   23.8317 O   0  0  0  0  0  0  0  0  0  0  0  0
   10.0347  -17.0017   23.2435 N   0  0  0  0  0  0  0  0  0  0  0  0
   10.4672  -17.7296   24.4428 C   0  0  1  0  0  0  0  0  0  0  0  0
   11.8565  -18.2309   24.1397 C   0  0  0  0  0  0  0  0  0  0  0  0
   12.4921  -19.0309   25.2215 C   0  0  0  0  0  0  0  0  0  0  0  0
   13.8751  -19.3584   24.8302 C   0  0  0  0  0  0  0  0  0  0  0  0
   14.5972  -18.5015   24.2906 O   0  0  0  0  0  0  0  0  0  0  0  0
   10.4090  -16.8893   25.6357 C   0  0  0  0  0  0  0  0  0  0  0  0
   10.3349  -17.3797   26.9340 O   0  0  0  0  0  0  0  0  0  0  0  0
   14.3738  -20.6201   25.0622 O   0  0  0  0  0  0  0  0  0  0  0  0
   10.4254  -15.6433   25.5079 O   0  0  0  0  0  0  0  0  0  0  0  0
  2  1  1  0
  3  2  1  0
  3  5  1  0
  4  3  2  0
  6  5  1  0
  6 13  1  0
  6  7  1  1
  8  7  1  0
  8 12  1  0
  9 10  1  0
  9  8  2  0
 10 11  1  0
 11 12  2  0
 13 14  2  0
 13 15  1  0
 15 16  1  0
 16 17  1  6
 16 21  1  0
 17 18  1  0
 18 19  1  0
 19 20  2  0
 21 22  1  0
 23 19  1  0
 24 21  2  0
M  END
$$$$
