GHE.pdb
     RDKit          3D

 24 24  0  0  1  0  0  0  0  0999 V2000
    9.3378  -18.2154   17.5882 N   0  0  0  0  0  0  0  0  0  0  0  0
   10.1182  -18.7603   18.6590 C   0  0  0  0  0  0  0  0  0  0  0  0
   10.4928  -17.7293   19.6587 C   0  0  0  0  0  0  0  0  0  0  0  0
   11.6664  -17.2702   19.6277 O   0  0  0  0  0  0  0  0  0  0  0  0
    9.5363  -17.3043   20.5965 N   0  0  0  0  0  0  0  0  0  0  0  0
    9.8811  -16.2032   21.5721 C   0  0  1  0  0  0  0  0  0  0  0  0
    8.5868  -15.5322   21.8937 C   0  0  0  0  0  0  0  0  0  0  0  0
    8.0384  -14.6191   20.8868 C   0  0  0  0  0  0  0  0  0  0  0  0
    8.7202  -14.2451   19.6986 C   0  0  0  0  0  0  0  0  0  0  0  0
    7.9566  -13.4060   18.9947 N   0  0  0  0  0  0  0  0  0  0  0  0
    6.8116  -13.2200   19.6735 C   0  0  0  0  0  0  0  0  0  0  0  0
    6.8843  -13.9486   20.7898 N   0  0  0  0  0  0  0  0  0  0  0  0
   10.5091  -16.9426   22.6822 C   0  0  0  0  0  0  0  0  0  0  0  0
    9.9950  -18.0817   23.0093 O   0  0  0  0  0  0  0  0  0  0  0  0
   11.6273  -16.5719   23.4548 N   0  0  0  0  0  0  0  0  0  0  0  0
   12.2204  -17.4783   24.4459 C   0  0  1  0  0  0  0  0  0  0  0  0
   13.7081  -17.4323   24.2051 C   0  0  0  0  0  0  0  0  0  0  0  0
   14.3582  -16.1268   24.5005 C   0  0  0  0  0  0  0  0  0  0  0  0
   15.7323  -16.1405   23.9669 C   0  0  0  0  0  0  0  0  0  0  0  0
   16.0327  -15.4434   22.9816 O   0  0  0  0  0  0  0  0  0  0  0  0
   11.8489  -17.1071   25.8085 C   0  0  0  0  0  0  0  0  0  0  0  0
   12.1297  -17.8760   26.9317 O   0  0  0  0  0  0  0  0  0  0  0  0
   16.6916  -16.9289   24.5605 O   0  0  0  0  0  0  0  0  0  0  0  0
   11.2373  -16.0317   26.0048 O   0  0  0  0  0  0  0  0  0  0  0  0
  2  1  1  0
  3  2  1  0
  3  5  1  0
  4  3  2  0
  6  5  1  0
  6 13  1  0
  6  7  1  1
  8  7  1  0
  8 12  1  0
  9 10  1  0
  9  8  2  0
 10 11  1  0
 11 12  2  0
 13 14  2  0
 13 15  1  0
 15 16  1  0
 16 17  1  1
 16 21  1  0
 17 18  1  0
 18 19  1  0
 19 20  2  0
 21 22  1  0
 23 19  1  0
 24 21  2  0
M  END
$$$$
