GHE.pdb
     RDKit          3D

 24 24  0  0  1  0  0  0  0  0999 V2000
    8.5035  -19.9178   17.8231 N   0  0  0  0  0  0  0  0  0  0  0  0
    7.8768  -19.1430   18.8524 C   0  0  0  0  0  0  0  0  0  0  0  0
    8.6101  -17.8825   19.1283 C   0  0  0  0  0  0  0  0  0  0  0  0
    9.6811  -17.6681   18.4989 O   0  0  0  0  0  0  0  0  0  0  0  0
    8.0911  -16.9799   20.0722 N   0  0  0  0  0  0  0  0  0  0  0  0
    8.8498  -15.7136   20.3942 C   0  0  1  0  0  0  0  0  0  0  0  0
    7.8542  -14.6076   20.2735 C   0  0  0  0  0  0  0  0  0  0  0  0
    7.5411  -14.1340   18.9221 C   0  0  0  0  0  0  0  0  0  0  0  0
    7.9485  -12.8748   18.4076 C   0  0  0  0  0  0  0  0  0  0  0  0
    7.5077  -12.7444   17.1540 N   0  0  0  0  0  0  0  0  0  0  0  0
    6.8336  -13.8623   16.8340 C   0  0  0  0  0  0  0  0  0  0  0  0
    6.8675  -14.6693   17.8969 N   0  0  0  0  0  0  0  0  0  0  0  0
    9.3495  -15.9758   21.7562 C   0  0  0  0  0  0  0  0  0  0  0  0
    8.4867  -15.9917   22.7176 O   0  0  0  0  0  0  0  0  0  0  0  0
   10.6740  -16.2241   22.1665 N   0  0  0  0  0  0  0  0  0  0  0  0
   11.0252  -16.4185   23.5788 C   0  0  1  0  0  0  0  0  0  0  0  0
   10.6172  -17.8312   23.9121 C   0  0  0  0  0  0  0  0  0  0  0  0
   11.0520  -18.8644   22.9335 C   0  0  0  0  0  0  0  0  0  0  0  0
   10.6534  -20.1948   23.4276 C   0  0  0  0  0  0  0  0  0  0  0  0
   10.6952  -21.1849   22.6758 O   0  0  0  0  0  0  0  0  0  0  0  0
   12.4408  -16.1580   23.8247 C   0  0  0  0  0  0  0  0  0  0  0  0
   13.0259  -16.1475   25.0853 O   0  0  0  0  0  0  0  0  0  0  0  0
   10.2316  -20.3460   24.7290 O   0  0  0  0  0  0  0  0  0  0  0  0
   13.1981  -15.9262   22.8541 O   0  0  0  0  0  0  0  0  0  0  0  0
  2  1  1  0
  3  2  1  0
  3  5  1  0
  4  3  2  0
  6  5  1  0
  6 13  1  0
  6  7  1  1
  8  7  1  0
  8 12  1  0
  9 10  1  0
  9  8  2  0
 10 11  1  0
 11 12  2  0
 13 14  2  0
 13 15  1  0
 15 16  1  0
 16 17  1  6
 16 21  1  0
 17 18  1  0
 18 19  1  0
 19 20  2  0
 21 22  1  0
 23 19  1  0
 24 21  2  0
M  END
$$$$
