GHE.pdb
     RDKit          3D

 24 24  0  0  1  0  0  0  0  0999 V2000
    5.8266  -19.3023   19.4569 N   0  0  0  0  0  0  0  0  0  0  0  0
    5.9029  -18.3011   20.4788 C   0  0  0  0  0  0  0  0  0  0  0  0
    7.2443  -17.6690   20.5432 C   0  0  0  0  0  0  0  0  0  0  0  0
    8.1404  -18.0963   19.7664 O   0  0  0  0  0  0  0  0  0  0  0  0
    7.4676  -16.6264   21.4586 N   0  0  0  0  0  0  0  0  0  0  0  0
    8.8016  -15.9172   21.4758 C   0  0  1  0  0  0  0  0  0  0  0  0
    8.4809  -14.4608   21.5483 C   0  0  0  0  0  0  0  0  0  0  0  0
    8.1024  -13.7962   20.2979 C   0  0  0  0  0  0  0  0  0  0  0  0
    8.1297  -14.4246   19.0247 C   0  0  0  0  0  0  0  0  0  0  0  0
    7.7292  -13.5560   18.0930 N   0  0  0  0  0  0  0  0  0  0  0  0
    7.4439  -12.3943   18.7056 C   0  0  0  0  0  0  0  0  0  0  0  0
    7.6728  -12.5619   20.0101 N   0  0  0  0  0  0  0  0  0  0  0  0
    9.4531  -16.4868   22.6694 C   0  0  0  0  0  0  0  0  0  0  0  0
    8.8434  -16.3612   23.8014 O   0  0  0  0  0  0  0  0  0  0  0  0
   10.6805  -17.1735   22.7490 N   0  0  0  0  0  0  0  0  0  0  0  0
   11.2231  -17.6468   24.0285 C   0  0  1  0  0  0  0  0  0  0  0  0
   11.4984  -19.1170   23.8385 C   0  0  0  0  0  0  0  0  0  0  0  0
   11.7720  -19.5348   22.4368 C   0  0  0  0  0  0  0  0  0  0  0  0
   12.1564  -20.9579   22.4240 C   0  0  0  0  0  0  0  0  0  0  0  0
   12.3216  -21.5758   23.4908 O   0  0  0  0  0  0  0  0  0  0  0  0
   12.4061  -16.8893   24.4274 C   0  0  0  0  0  0  0  0  0  0  0  0
   13.0674  -17.0537   25.6387 O   0  0  0  0  0  0  0  0  0  0  0  0
   12.3345  -21.6103   21.2252 O   0  0  0  0  0  0  0  0  0  0  0  0
   12.8750  -16.0300   23.6457 O   0  0  0  0  0  0  0  0  0  0  0  0
  2  1  1  0
  3  2  1  0
  3  5  1  0
  4  3  2  0
  6  5  1  0
  6 13  1  0
  6  7  1  1
  8  7  1  0
  8 12  1  0
  9 10  1  0
  9  8  2  0
 10 11  1  0
 11 12  2  0
 13 14  2  0
 13 15  1  0
 15 16  1  0
 16 17  1  6
 16 21  1  0
 17 18  1  0
 18 19  1  0
 19 20  2  0
 21 22  1  0
 23 19  1  0
 24 21  2  0
M  END
$$$$
