GHE.pdb
     RDKit          3D

 24 24  0  0  1  0  0  0  0  0999 V2000
    9.6404  -18.1837   16.9023 N   0  0  0  0  0  0  0  0  0  0  0  0
    9.6336  -18.5202   18.2948 C   0  0  0  0  0  0  0  0  0  0  0  0
   10.1994  -17.4354   19.1349 C   0  0  0  0  0  0  0  0  0  0  0  0
   11.2189  -16.8265   18.7118 O   0  0  0  0  0  0  0  0  0  0  0  0
    9.5859  -17.1269   20.3610 N   0  0  0  0  0  0  0  0  0  0  0  0
   10.0977  -15.9680   21.1845 C   0  0  1  0  0  0  0  0  0  0  0  0
    8.8826  -15.3098   21.7496 C   0  0  0  0  0  0  0  0  0  0  0  0
    8.1374  -14.4091   20.8653 C   0  0  0  0  0  0  0  0  0  0  0  0
    6.7658  -14.5741   20.5366 C   0  0  0  0  0  0  0  0  0  0  0  0
    6.3858  -13.5930   19.7145 N   0  0  0  0  0  0  0  0  0  0  0  0
    7.4493  -12.8007   19.4964 C   0  0  0  0  0  0  0  0  0  0  0  0
    8.4737  -13.3046   20.1884 N   0  0  0  0  0  0  0  0  0  0  0  0
   10.9764  -16.6329   22.1638 C   0  0  0  0  0  0  0  0  0  0  0  0
   10.6135  -17.7923   22.6033 O   0  0  0  0  0  0  0  0  0  0  0  0
   12.1945  -16.1694   22.6986 N   0  0  0  0  0  0  0  0  0  0  0  0
   13.0348  -17.0118   23.5586 C   0  0  1  0  0  0  0  0  0  0  0  0
   14.4465  -16.5210   23.3601 C   0  0  0  0  0  0  0  0  0  0  0  0
   15.4830  -17.2324   24.1563 C   0  0  0  0  0  0  0  0  0  0  0  0
   16.7913  -16.5936   23.9253 C   0  0  0  0  0  0  0  0  0  0  0  0
   16.8570  -15.4401   23.4649 O   0  0  0  0  0  0  0  0  0  0  0  0
   12.6019  -16.9628   24.9524 C   0  0  0  0  0  0  0  0  0  0  0  0
   12.8832  -17.9467   25.8929 O   0  0  0  0  0  0  0  0  0  0  0  0
   17.9500  -17.2756   24.2201 O   0  0  0  0  0  0  0  0  0  0  0  0
   11.9329  -15.9818   25.3514 O   0  0  0  0  0  0  0  0  0  0  0  0
  2  1  1  0
  3  2  1  0
  3  5  1  0
  4  3  2  0
  6  5  1  0
  6 13  1  0
  6  7  1  1
  8  7  1  0
  8 12  1  0
  9 10  1  0
  9  8  2  0
 10 11  1  0
 11 12  2  0
 13 14  2  0
 13 15  1  0
 15 16  1  0
 16 17  1  1
 16 21  1  0
 17 18  1  0
 18 19  1  0
 19 20  2  0
 21 22  1  0
 23 19  1  0
 24 21  2  0
M  END
$$$$
