GHE.pdb
     RDKit          3D

 24 24  0  0  1  0  0  0  0  0999 V2000
   11.7157  -16.0588   14.9193 N   0  0  0  0  0  0  0  0  0  0  0  0
   11.3116  -16.6253   16.1715 C   0  0  0  0  0  0  0  0  0  0  0  0
   11.7059  -15.7757   17.3228 C   0  0  0  0  0  0  0  0  0  0  0  0
   12.7547  -15.0840   17.2192 O   0  0  0  0  0  0  0  0  0  0  0  0
   10.9050  -15.7711   18.4776 N   0  0  0  0  0  0  0  0  0  0  0  0
   11.2101  -14.8035   19.5973 C   0  0  1  0  0  0  0  0  0  0  0  0
    9.9280  -14.6368   20.3439 C   0  0  0  0  0  0  0  0  0  0  0  0
    8.8111  -14.0168   19.6251 C   0  0  0  0  0  0  0  0  0  0  0  0
    8.8169  -12.6782   19.1512 C   0  0  0  0  0  0  0  0  0  0  0  0
    7.6577  -12.4188   18.5414 N   0  0  0  0  0  0  0  0  0  0  0  0
    6.9022  -13.5288   18.5992 C   0  0  0  0  0  0  0  0  0  0  0  0
    7.6069  -14.4605   19.2454 N   0  0  0  0  0  0  0  0  0  0  0  0
   12.2899  -15.4897   20.3297 C   0  0  0  0  0  0  0  0  0  0  0  0
   12.2643  -16.7809   20.3626 O   0  0  0  0  0  0  0  0  0  0  0  0
   13.3803  -14.9174   21.0139 N   0  0  0  0  0  0  0  0  0  0  0  0
   14.4617  -15.7374   21.5738 C   0  0  1  0  0  0  0  0  0  0  0  0
   15.7377  -14.9898   21.2796 C   0  0  0  0  0  0  0  0  0  0  0  0
   16.9760  -15.6107   21.8229 C   0  0  0  0  0  0  0  0  0  0  0  0
   18.1254  -14.7385   21.5211 C   0  0  0  0  0  0  0  0  0  0  0  0
   17.9696  -13.5106   21.3981 O   0  0  0  0  0  0  0  0  0  0  0  0
   14.2637  -15.9944   22.9975 C   0  0  0  0  0  0  0  0  0  0  0  0
   14.9366  -16.9761   23.7153 O   0  0  0  0  0  0  0  0  0  0  0  0
   19.3808  -15.2832   21.3739 O   0  0  0  0  0  0  0  0  0  0  0  0
   13.4401  -15.2994   23.6362 O   0  0  0  0  0  0  0  0  0  0  0  0
  2  1  1  0
  3  2  1  0
  3  5  1  0
  4  3  2  0
  6  5  1  0
  6 13  1  0
  6  7  1  1
  8  7  1  0
  8 12  1  0
  9 10  1  0
  9  8  2  0
 10 11  1  0
 11 12  2  0
 13 14  2  0
 13 15  1  0
 15 16  1  0
 16 17  1  1
 16 21  1  0
 17 18  1  0
 18 19  1  0
 19 20  2  0
 21 22  1  0
 23 19  1  0
 24 21  2  0
M  END
$$$$
