GHE.pdb
     RDKit          3D

 24 24  0  0  1  0  0  0  0  0999 V2000
   13.3143  -15.6309   15.7012 N   0  0  0  0  0  0  0  0  0  0  0  0
   12.2894  -16.0837   16.5940 C   0  0  0  0  0  0  0  0  0  0  0  0
   12.3777  -15.4306   17.9238 C   0  0  0  0  0  0  0  0  0  0  0  0
   13.3905  -14.7224   18.1719 O   0  0  0  0  0  0  0  0  0  0  0  0
   11.3398  -15.6219   18.8517 N   0  0  0  0  0  0  0  0  0  0  0  0
   11.3413  -14.8459   20.1482 C   0  0  1  0  0  0  0  0  0  0  0  0
    9.9156  -14.7981   20.5889 C   0  0  0  0  0  0  0  0  0  0  0  0
    8.9890  -14.0096   19.7715 C   0  0  0  0  0  0  0  0  0  0  0  0
    9.3346  -12.7892   19.1329 C   0  0  0  0  0  0  0  0  0  0  0  0
    8.2754  -12.3213   18.4681 N   0  0  0  0  0  0  0  0  0  0  0  0
    7.2602  -13.1836   18.6476 C   0  0  0  0  0  0  0  0  0  0  0  0
    7.7076  -14.1743   19.4225 N   0  0  0  0  0  0  0  0  0  0  0  0
   12.2451  -15.6423   20.9983 C   0  0  0  0  0  0  0  0  0  0  0  0
   12.0811  -16.9236   21.0104 O   0  0  0  0  0  0  0  0  0  0  0  0
   13.2963  -15.1881   21.8188 N   0  0  0  0  0  0  0  0  0  0  0  0
   14.1776  -16.1177   22.5361 C   0  0  1  0  0  0  0  0  0  0  0  0
   15.5344  -15.4604   22.5602 C   0  0  0  0  0  0  0  0  0  0  0  0
   16.6087  -16.2479   23.2235 C   0  0  0  0  0  0  0  0  0  0  0  0
   17.8623  -15.4728   23.1954 C   0  0  0  0  0  0  0  0  0  0  0  0
   17.9183  -14.3863   22.5924 O   0  0  0  0  0  0  0  0  0  0  0  0
   13.6672  -16.4270   23.8689 C   0  0  0  0  0  0  0  0  0  0  0  0
   14.0153  -17.5595   24.5954 O   0  0  0  0  0  0  0  0  0  0  0  0
   18.9803  -15.9516   23.8398 O   0  0  0  0  0  0  0  0  0  0  0  0
   12.8626  -15.6370   24.4147 O   0  0  0  0  0  0  0  0  0  0  0  0
  2  1  1  0
  3  2  1  0
  3  5  1  0
  4  3  2  0
  6  5  1  0
  6 13  1  0
  6  7  1  1
  8  7  1  0
  8 12  1  0
  9 10  1  0
  9  8  2  0
 10 11  1  0
 11 12  2  0
 13 14  2  0
 13 15  1  0
 15 16  1  0
 16 17  1  1
 16 21  1  0
 17 18  1  0
 18 19  1  0
 19 20  2  0
 21 22  1  0
 23 19  1  0
 24 21  2  0
M  END
$$$$
