GHE.pdb
     RDKit          3D

 24 24  0  0  1  0  0  0  0  0999 V2000
   12.4908  -14.9285   15.8891 N   0  0  0  0  0  0  0  0  0  0  0  0
   12.9611  -15.6932   17.0056 C   0  0  0  0  0  0  0  0  0  0  0  0
   12.6160  -15.0594   18.3025 C   0  0  0  0  0  0  0  0  0  0  0  0
   13.3414  -14.1138   18.7135 O   0  0  0  0  0  0  0  0  0  0  0  0
   11.5037  -15.5299   19.0210 N   0  0  0  0  0  0  0  0  0  0  0  0
   11.2032  -14.9665   20.3904 C   0  0  1  0  0  0  0  0  0  0  0  0
    9.7187  -15.0337   20.5350 C   0  0  0  0  0  0  0  0  0  0  0  0
    8.9305  -14.0285   19.8162 C   0  0  0  0  0  0  0  0  0  0  0  0
    9.4948  -13.0010   19.0147 C   0  0  0  0  0  0  0  0  0  0  0  0
    8.5163  -12.2534   18.4986 N   0  0  0  0  0  0  0  0  0  0  0  0
    7.3444  -12.7504   18.9299 C   0  0  0  0  0  0  0  0  0  0  0  0
    7.6161  -13.8006   19.7081 N   0  0  0  0  0  0  0  0  0  0  0  0
   11.9714  -15.8565   21.2798 C   0  0  0  0  0  0  0  0  0  0  0  0
   11.9004  -17.1278   21.0611 O   0  0  0  0  0  0  0  0  0  0  0  0
   12.8003  -15.5036   22.3628 N   0  0  0  0  0  0  0  0  0  0  0  0
   13.5502  -16.5091   23.1257 C   0  0  1  0  0  0  0  0  0  0  0  0
   14.9646  -16.4464   22.6071 C   0  0  0  0  0  0  0  0  0  0  0  0
   15.7052  -15.1979   22.9342 C   0  0  0  0  0  0  0  0  0  0  0  0
   17.1429  -15.4114   22.6884 C   0  0  0  0  0  0  0  0  0  0  0  0
   17.8961  -15.7581   23.6155 O   0  0  0  0  0  0  0  0  0  0  0  0
   13.4568  -16.2767   24.5643 C   0  0  0  0  0  0  0  0  0  0  0  0
   12.8282  -15.1785   25.1392 O   0  0  0  0  0  0  0  0  0  0  0  0
   17.6584  -15.2267   21.4257 O   0  0  0  0  0  0  0  0  0  0  0  0
   13.9678  -17.1054   25.3526 O   0  0  0  0  0  0  0  0  0  0  0  0
  2  1  1  0
  3  2  1  0
  3  5  1  0
  4  3  2  0
  6  5  1  0
  6 13  1  0
  6  7  1  1
  8  7  1  0
  8 12  1  0
  9 10  1  0
  9  8  2  0
 10 11  1  0
 11 12  2  0
 13 14  2  0
 13 15  1  0
 15 16  1  0
 16 17  1  6
 16 21  1  0
 17 18  1  0
 18 19  1  0
 19 20  2  0
 21 22  1  0
 23 19  1  0
 24 21  2  0
M  END
$$$$
