GHE.pdb
     RDKit          3D

 24 24  0  0  1  0  0  0  0  0999 V2000
    7.4605  -17.7270   18.3802 N   0  0  0  0  0  0  0  0  0  0  0  0
    8.0855  -16.6358   19.0665 C   0  0  0  0  0  0  0  0  0  0  0  0
    9.5615  -16.7814   19.1210 C   0  0  0  0  0  0  0  0  0  0  0  0
   10.0682  -17.8583   18.7053 O   0  0  0  0  0  0  0  0  0  0  0  0
   10.3364  -15.7248   19.6291 N   0  0  0  0  0  0  0  0  0  0  0  0
   11.8441  -15.8185   19.5972 C   0  0  1  0  0  0  0  0  0  0  0  0
   12.3300  -14.4155   19.4406 C   0  0  0  0  0  0  0  0  0  0  0  0
   13.7579  -14.2288   19.1672 C   0  0  0  0  0  0  0  0  0  0  0  0
   14.2913  -13.9597   17.8790 C   0  0  0  0  0  0  0  0  0  0  0  0
   15.6187  -13.8427   17.9643 N   0  0  0  0  0  0  0  0  0  0  0  0
   15.9683  -14.0240   19.2493 C   0  0  0  0  0  0  0  0  0  0  0  0
   14.8494  -14.2509   19.9413 N   0  0  0  0  0  0  0  0  0  0  0  0
   12.1536  -16.4601   20.8879 C   0  0  0  0  0  0  0  0  0  0  0  0
   11.4759  -16.0835   21.9213 O   0  0  0  0  0  0  0  0  0  0  0  0
   13.1091  -17.4592   21.1584 N   0  0  0  0  0  0  0  0  0  0  0  0
   13.2758  -18.0304   22.5005 C   0  0  1  0  0  0  0  0  0  0  0  0
   13.4347  -19.5159   22.2973 C   0  0  0  0  0  0  0  0  0  0  0  0
   13.6348  -20.3082   23.5408 C   0  0  0  0  0  0  0  0  0  0  0  0
   13.8131  -21.7276   23.1850 C   0  0  0  0  0  0  0  0  0  0  0  0
   14.1819  -22.0492   22.0414 O   0  0  0  0  0  0  0  0  0  0  0  0
   14.4001  -17.4258   23.2096 C   0  0  0  0  0  0  0  0  0  0  0  0
   14.5463  -17.4313   24.5917 O   0  0  0  0  0  0  0  0  0  0  0  0
   13.5708  -22.7061   24.1221 O   0  0  0  0  0  0  0  0  0  0  0  0
   15.3044  -16.8594   22.5532 O   0  0  0  0  0  0  0  0  0  0  0  0
  2  1  1  0
  3  2  1  0
  3  5  1  0
  4  3  2  0
  6  5  1  0
  6 13  1  0
  6  7  1  1
  8  7  1  0
  8 12  1  0
  9 10  1  0
  9  8  2  0
 10 11  1  0
 11 12  2  0
 13 14  2  0
 13 15  1  0
 15 16  1  0
 16 17  1  6
 16 21  1  0
 17 18  1  0
 18 19  1  0
 19 20  2  0
 21 22  1  0
 23 19  1  0
 24 21  2  0
M  END
$$$$
