GHE.pdb
     RDKit          3D

 24 24  0  0  1  0  0  0  0  0999 V2000
    8.5290  -18.9033   17.1000 N   0  0  0  0  0  0  0  0  0  0  0  0
    7.9491  -18.7759   18.4039 C   0  0  0  0  0  0  0  0  0  0  0  0
    8.7427  -17.8824   19.2840 C   0  0  0  0  0  0  0  0  0  0  0  0
    9.9305  -17.6227   18.9512 O   0  0  0  0  0  0  0  0  0  0  0  0
    8.1493  -17.3617   20.4465 N   0  0  0  0  0  0  0  0  0  0  0  0
    8.9293  -16.4112   21.3247 C   0  0  1  0  0  0  0  0  0  0  0  0
    7.9595  -15.3502   21.7282 C   0  0  0  0  0  0  0  0  0  0  0  0
    7.7631  -14.2347   20.7978 C   0  0  0  0  0  0  0  0  0  0  0  0
    8.4900  -14.0716   19.5888 C   0  0  0  0  0  0  0  0  0  0  0  0
    8.0782  -12.9623   18.9702 N   0  0  0  0  0  0  0  0  0  0  0  0
    7.1178  -12.4003   19.7240 C   0  0  0  0  0  0  0  0  0  0  0  0
    6.9495  -13.1721   20.8002 N   0  0  0  0  0  0  0  0  0  0  0  0
    9.4007  -17.2903   22.4103 C   0  0  0  0  0  0  0  0  0  0  0  0
    8.5395  -18.0858   22.9529 O   0  0  0  0  0  0  0  0  0  0  0  0
   10.6979  -17.3906   22.9503 N   0  0  0  0  0  0  0  0  0  0  0  0
   11.0144  -18.3208   24.0411 C   0  0  1  0  0  0  0  0  0  0  0  0
   12.4295  -18.7781   23.7925 C   0  0  0  0  0  0  0  0  0  0  0  0
   12.7567  -19.0849   22.3737 C   0  0  0  0  0  0  0  0  0  0  0  0
   13.3977  -20.4105   22.3023 C   0  0  0  0  0  0  0  0  0  0  0  0
   14.1800  -20.7812   23.1954 O   0  0  0  0  0  0  0  0  0  0  0  0
   10.8348  -17.6998   25.3505 C   0  0  0  0  0  0  0  0  0  0  0  0
   10.8706  -18.3921   26.5551 O   0  0  0  0  0  0  0  0  0  0  0  0
   13.1310  -21.2459   21.2415 O   0  0  0  0  0  0  0  0  0  0  0  0
   10.6341  -16.4653   25.4200 O   0  0  0  0  0  0  0  0  0  0  0  0
  2  1  1  0
  3  2  1  0
  3  5  1  0
  4  3  2  0
  6  5  1  0
  6 13  1  0
  6  7  1  1
  8  7  1  0
  8 12  1  0
  9 10  1  0
  9  8  2  0
 10 11  1  0
 11 12  2  0
 13 14  2  0
 13 15  1  0
 15 16  1  0
 16 17  1  6
 16 21  1  0
 17 18  1  0
 18 19  1  0
 19 20  2  0
 21 22  1  0
 23 19  1  0
 24 21  2  0
M  END
$$$$
