GHE.pdb
     RDKit          3D

 24 24  0  0  1  0  0  0  0  0999 V2000
   10.8361  -18.7622   17.4227 N   0  0  0  0  0  0  0  0  0  0  0  0
   10.2846  -18.9037   18.7373 C   0  0  0  0  0  0  0  0  0  0  0  0
   10.5691  -17.7248   19.5929 C   0  0  0  0  0  0  0  0  0  0  0  0
   11.6847  -17.1523   19.4638 O   0  0  0  0  0  0  0  0  0  0  0  0
    9.5953  -17.2913   20.5086 N   0  0  0  0  0  0  0  0  0  0  0  0
    9.8746  -16.0962   21.3899 C   0  0  1  0  0  0  0  0  0  0  0  0
    8.5393  -15.5027   21.6962 C   0  0  0  0  0  0  0  0  0  0  0  0
    7.9519  -14.6196   20.6846 C   0  0  0  0  0  0  0  0  0  0  0  0
    8.5785  -14.2967   19.4518 C   0  0  0  0  0  0  0  0  0  0  0  0
    7.7901  -13.4741   18.7558 N   0  0  0  0  0  0  0  0  0  0  0  0
    6.6818  -13.2500   19.4822 C   0  0  0  0  0  0  0  0  0  0  0  0
    6.8014  -13.9390   20.6194 N   0  0  0  0  0  0  0  0  0  0  0  0
   10.5821  -16.6991   22.5342 C   0  0  0  0  0  0  0  0  0  0  0  0
   10.1888  -17.8623   22.9357 O   0  0  0  0  0  0  0  0  0  0  0  0
   11.6618  -16.1708   23.2687 N   0  0  0  0  0  0  0  0  0  0  0  0
   12.3329  -16.9403   24.3237 C   0  0  1  0  0  0  0  0  0  0  0  0
   13.7679  -16.4774   24.3193 C   0  0  0  0  0  0  0  0  0  0  0  0
   14.7762  -17.5405   24.0599 C   0  0  0  0  0  0  0  0  0  0  0  0
   16.0798  -16.9112   23.7810 C   0  0  0  0  0  0  0  0  0  0  0  0
   16.5370  -16.0432   24.5456 O   0  0  0  0  0  0  0  0  0  0  0  0
   11.6792  -16.7674   25.6180 C   0  0  0  0  0  0  0  0  0  0  0  0
   11.9189  -17.5690   26.7277 O   0  0  0  0  0  0  0  0  0  0  0  0
   16.7983  -17.2843   22.6680 O   0  0  0  0  0  0  0  0  0  0  0  0
   10.8446  -15.8446   25.7637 O   0  0  0  0  0  0  0  0  0  0  0  0
  2  1  1  0
  3  2  1  0
  3  5  1  0
  4  3  2  0
  6  5  1  0
  6 13  1  0
  6  7  1  1
  8  7  1  0
  8 12  1  0
  9 10  1  0
  9  8  2  0
 10 11  1  0
 11 12  2  0
 13 14  2  0
 13 15  1  0
 15 16  1  0
 16 17  1  1
 16 21  1  0
 17 18  1  0
 18 19  1  0
 19 20  2  0
 21 22  1  0
 23 19  1  0
 24 21  2  0
M  END
$$$$
