GHE.pdb
     RDKit          3D

 24 24  0  0  1  0  0  0  0  0999 V2000
   10.2883  -19.0632   21.3993 N   0  0  0  0  0  0  0  0  0  0  0  0
   10.5591  -17.6595   21.3043 C   0  0  0  0  0  0  0  0  0  0  0  0
   11.9105  -17.3867   20.7548 C   0  0  0  0  0  0  0  0  0  0  0  0
   12.6647  -18.3685   20.5171 O   0  0  0  0  0  0  0  0  0  0  0  0
   12.2996  -16.0569   20.5204 N   0  0  0  0  0  0  0  0  0  0  0  0
   13.7006  -15.7598   20.0387 C   0  0  1  0  0  0  0  0  0  0  0  0
   13.6007  -14.4780   19.2798 C   0  0  0  0  0  0  0  0  0  0  0  0
   14.8252  -13.9769   18.6490 C   0  0  0  0  0  0  0  0  0  0  0  0
   16.0936  -14.6044   18.7674 C   0  0  0  0  0  0  0  0  0  0  0  0
   16.9998  -13.9058   18.0793 N   0  0  0  0  0  0  0  0  0  0  0  0
   16.3753  -12.8547   17.5211 C   0  0  0  0  0  0  0  0  0  0  0  0
   15.0892  -12.9190   17.8730 N   0  0  0  0  0  0  0  0  0  0  0  0
   14.4666  -15.6979   21.2969 C   0  0  0  0  0  0  0  0  0  0  0  0
   13.9673  -15.0080   22.2683 O   0  0  0  0  0  0  0  0  0  0  0  0
   15.7001  -16.3081   21.5979 N   0  0  0  0  0  0  0  0  0  0  0  0
   16.3940  -16.0690   22.8694 C   0  0  1  0  0  0  0  0  0  0  0  0
   15.9490  -17.1740   23.7937 C   0  0  0  0  0  0  0  0  0  0  0  0
   16.2241  -18.5542   23.3105 C   0  0  0  0  0  0  0  0  0  0  0  0
   15.6041  -19.5213   24.2343 C   0  0  0  0  0  0  0  0  0  0  0  0
   15.4364  -20.7044   23.8890 O   0  0  0  0  0  0  0  0  0  0  0  0
   17.8428  -16.0182   22.6934 C   0  0  0  0  0  0  0  0  0  0  0  0
   18.7421  -15.7015   23.7047 O   0  0  0  0  0  0  0  0  0  0  0  0
   15.2070  -19.1156   25.4881 O   0  0  0  0  0  0  0  0  0  0  0  0
   18.3319  -16.2721   21.5685 O   0  0  0  0  0  0  0  0  0  0  0  0
  2  1  1  0
  3  2  1  0
  3  5  1  0
  4  3  2  0
  6  5  1  0
  6 13  1  0
  6  7  1  1
  8  7  1  0
  8 12  1  0
  9 10  1  0
  9  8  2  0
 10 11  1  0
 11 12  2  0
 13 14  2  0
 13 15  1  0
 15 16  1  0
 16 17  1  1
 16 21  1  0
 17 18  1  0
 18 19  1  0
 19 20  2  0
 21 22  1  0
 23 19  1  0
 24 21  2  0
M  END
$$$$
