HAA.pdb
     RDKit          3D

 21 21  0  0  1  0  0  0  0  0999 V2000
    9.7842  -16.1797   15.3484 N   0  0  0  0  0  0  0  0  0  0  0  0
    9.3131  -16.2285   16.6986 C   0  0  1  0  0  0  0  0  0  0  0  0
    9.9270  -17.4299   17.4047 C   0  0  0  0  0  0  0  0  0  0  0  0
    9.4572  -18.6496   16.6961 C   0  0  0  0  0  0  0  0  0  0  0  0
    8.1755  -18.8436   16.2481 C   0  0  0  0  0  0  0  0  0  0  0  0
    8.1459  -20.0560   15.6652 N   0  0  0  0  0  0  0  0  0  0  0  0
    9.3776  -20.5791   15.7594 C   0  0  0  0  0  0  0  0  0  0  0  0
   10.1936  -19.7288   16.3891 N   0  0  0  0  0  0  0  0  0  0  0  0
    9.5506  -14.9689   17.4428 C   0  0  0  0  0  0  0  0  0  0  0  0
   10.7292  -14.5323   17.4960 O   0  0  0  0  0  0  0  0  0  0  0  0
    7.5628  -12.3100   19.2679 C   0  0  0  0  0  0  0  0  0  0  0  0
    8.8283  -13.0468   18.8887 C   0  0  2  0  0  0  0  0  0  0  0  0
    8.5478  -14.2262   18.0949 N   0  0  0  0  0  0  0  0  0  0  0  0
    9.6276  -13.4129   20.0899 C   0  0  0  0  0  0  0  0  0  0  0  0
   10.1144  -12.5027   20.8279 O   0  0  0  0  0  0  0  0  0  0  0  0
   10.0897  -16.4406   22.1297 C   0  0  0  0  0  0  0  0  0  0  0  0
   10.6482  -15.1542   21.5602 C   0  0  2  0  0  0  0  0  0  0  0  0
    9.8584  -14.7545   20.4297 N   0  0  0  0  0  0  0  0  0  0  0  0
   12.0470  -15.4486   21.1333 C   0  0  0  0  0  0  0  0  0  0  0  0
   13.0458  -15.7854   22.0214 O   0  0  0  0  0  0  0  0  0  0  0  0
   12.3438  -15.3911   19.9121 O   0  0  0  0  0  0  0  0  0  0  0  0
  2  1  1  6
  2  3  1  0
  3  4  1  0
  4  8  1  0
  5  4  2  0
  5  6  1  0
  6  7  1  0
  8  7  2  0
  9 13  1  0
  9  2  1  0
 10  9  2  0
 12 13  1  0
 12 11  1  1
 14 12  1  0
 14 18  1  0
 15 14  2  0
 17 18  1  0
 17 16  1  6
 19 17  1  0
 20 19  1  0
 21 19  2  0
M  END
$$$$
