HAA.pdb
     RDKit          3D

 21 21  0  0  1  0  0  0  0  0999 V2000
    9.1709  -15.0128   14.7516 N   0  0  0  0  0  0  0  0  0  0  0  0
    8.3068  -15.4471   15.8062 C   0  0  1  0  0  0  0  0  0  0  0  0
    8.1648  -16.9622   15.7514 C   0  0  0  0  0  0  0  0  0  0  0  0
    7.3444  -17.2885   14.5552 C   0  0  0  0  0  0  0  0  0  0  0  0
    5.9743  -17.2393   14.5148 C   0  0  0  0  0  0  0  0  0  0  0  0
    5.6081  -17.6003   13.2715 N   0  0  0  0  0  0  0  0  0  0  0  0
    6.7281  -17.8604   12.5803 C   0  0  0  0  0  0  0  0  0  0  0  0
    7.8017  -17.6738   13.3536 N   0  0  0  0  0  0  0  0  0  0  0  0
    8.7429  -14.9806   17.1438 C   0  0  0  0  0  0  0  0  0  0  0  0
    9.8742  -15.3481   17.5532 O   0  0  0  0  0  0  0  0  0  0  0  0
    7.4626  -12.7544   19.9367 C   0  0  0  0  0  0  0  0  0  0  0  0
    8.4408  -13.7085   19.2880 C   0  0  2  0  0  0  0  0  0  0  0  0
    7.9782  -14.1540   17.9891 N   0  0  0  0  0  0  0  0  0  0  0  0
    8.7235  -14.8790   20.1630 C   0  0  0  0  0  0  0  0  0  0  0  0
    7.9759  -15.9030   20.1116 O   0  0  0  0  0  0  0  0  0  0  0  0
   11.6776  -16.0680   21.9882 C   0  0  0  0  0  0  0  0  0  0  0  0
   10.1712  -16.0147   21.8512 C   0  0  2  0  0  0  0  0  0  0  0  0
    9.8082  -14.8777   21.0529 N   0  0  0  0  0  0  0  0  0  0  0  0
    9.6222  -15.8718   23.2310 C   0  0  0  0  0  0  0  0  0  0  0  0
    9.7051  -16.8708   24.1770 O   0  0  0  0  0  0  0  0  0  0  0  0
    9.0556  -14.7981   23.5609 O   0  0  0  0  0  0  0  0  0  0  0  0
  2  1  1  6
  2  3  1  0
  3  4  1  0
  4  8  1  0
  5  4  2  0
  5  6  1  0
  6  7  1  0
  8  7  2  0
  9 13  1  0
  9  2  1  0
 10  9  2  0
 12 13  1  0
 12 11  1  1
 14 12  1  0
 14 18  1  0
 15 14  2  0
 17 18  1  0
 17 16  1  1
 19 17  1  0
 20 19  1  0
 21 19  2  0
M  END
$$$$
