HAA.pdb
     RDKit          3D

 21 21  0  0  1  0  0  0  0  0999 V2000
    7.7624  -17.4021   15.9165 N   0  0  0  0  0  0  0  0  0  0  0  0
    8.4819  -16.5273   16.7909 C   0  0  1  0  0  0  0  0  0  0  0  0
    7.7594  -15.1895   16.8736 C   0  0  0  0  0  0  0  0  0  0  0  0
    7.9510  -14.4997   15.5706 C   0  0  0  0  0  0  0  0  0  0  0  0
    8.6567  -15.0159   14.5138 C   0  0  0  0  0  0  0  0  0  0  0  0
    8.6025  -14.1035   13.5264 N   0  0  0  0  0  0  0  0  0  0  0  0
    7.8830  -13.0644   13.9762 C   0  0  0  0  0  0  0  0  0  0  0  0
    7.4762  -13.2919   15.2285 N   0  0  0  0  0  0  0  0  0  0  0  0
    8.7182  -17.1120   18.1323 C   0  0  0  0  0  0  0  0  0  0  0  0
    7.7195  -17.5238   18.7769 O   0  0  0  0  0  0  0  0  0  0  0  0
   11.2312  -18.9451   19.9810 C   0  0  0  0  0  0  0  0  0  0  0  0
   10.1831  -17.8556   20.0317 C   0  0  2  0  0  0  0  0  0  0  0  0
    9.9840  -17.2388   18.7358 N   0  0  0  0  0  0  0  0  0  0  0  0
   10.5194  -16.8214   21.0480 C   0  0  0  0  0  0  0  0  0  0  0  0
   11.3454  -15.9007   20.7648 O   0  0  0  0  0  0  0  0  0  0  0  0
    9.2118  -15.8733   24.4044 C   0  0  0  0  0  0  0  0  0  0  0  0
   10.3188  -15.9356   23.3741 C   0  0  2  0  0  0  0  0  0  0  0  0
    9.9392  -16.8398   22.3253 N   0  0  0  0  0  0  0  0  0  0  0  0
   11.5304  -16.4448   24.0800 C   0  0  0  0  0  0  0  0  0  0  0  0
   12.3172  -15.6499   24.8855 O   0  0  0  0  0  0  0  0  0  0  0  0
   11.8616  -17.6509   23.9441 O   0  0  0  0  0  0  0  0  0  0  0  0
  2  1  1  6
  2  3  1  0
  3  4  1  0
  4  8  1  0
  5  4  2  0
  5  6  1  0
  6  7  1  0
  8  7  2  0
  9 13  1  0
  9  2  1  0
 10  9  2  0
 12 13  1  0
 12 11  1  6
 14 12  1  0
 14 18  1  0
 15 14  2  0
 17 18  1  0
 17 16  1  1
 19 17  1  0
 20 19  1  0
 21 19  2  0
M  END
$$$$
