HAA.pdb
     RDKit          3D

 21 21  0  0  1  0  0  0  0  0999 V2000
    6.5705  -16.5316   19.8147 N   0  0  0  0  0  0  0  0  0  0  0  0
    7.4840  -15.7141   20.5527 C   0  0  1  0  0  0  0  0  0  0  0  0
    7.3786  -14.2745   20.0678 C   0  0  0  0  0  0  0  0  0  0  0  0
    7.9533  -14.2240   18.6975 C   0  0  0  0  0  0  0  0  0  0  0  0
    8.5329  -15.2897   18.0576 C   0  0  0  0  0  0  0  0  0  0  0  0
    8.9273  -14.8505   16.8485 N   0  0  0  0  0  0  0  0  0  0  0  0
    8.5941  -13.5539   16.7617 C   0  0  0  0  0  0  0  0  0  0  0  0
    7.9958  -13.1545   17.8878 N   0  0  0  0  0  0  0  0  0  0  0  0
    7.3018  -15.8180   22.0200 C   0  0  0  0  0  0  0  0  0  0  0  0
    6.1874  -15.4831   22.4979 O   0  0  0  0  0  0  0  0  0  0  0  0
    8.5624  -17.7454   24.8549 C   0  0  0  0  0  0  0  0  0  0  0  0
    8.0569  -16.4162   24.3392 C   0  0  2  0  0  0  0  0  0  0  0  0
    8.2903  -16.2661   22.9170 N   0  0  0  0  0  0  0  0  0  0  0  0
    8.6603  -15.2768   25.0830 C   0  0  0  0  0  0  0  0  0  0  0  0
    9.8452  -14.9062   24.8208 O   0  0  0  0  0  0  0  0  0  0  0  0
    7.3416  -12.6521   27.3617 C   0  0  0  0  0  0  0  0  0  0  0  0
    8.4801  -13.4844   26.8122 C   0  0  2  0  0  0  0  0  0  0  0  0
    7.9432  -14.5953   26.0778 N   0  0  0  0  0  0  0  0  0  0  0  0
    9.2583  -13.9718   27.9880 C   0  0  0  0  0  0  0  0  0  0  0  0
   10.1056  -13.1618   28.7131 O   0  0  0  0  0  0  0  0  0  0  0  0
    9.1471  -15.1727   28.3459 O   0  0  0  0  0  0  0  0  0  0  0  0
  2  1  1  6
  2  3  1  0
  3  4  1  0
  4  8  1  0
  5  4  2  0
  5  6  1  0
  6  7  1  0
  8  7  2  0
  9 13  1  0
  9  2  1  0
 10  9  2  0
 12 13  1  0
 12 11  1  1
 14 12  1  0
 14 18  1  0
 15 14  2  0
 17 18  1  0
 17 16  1  1
 19 17  1  0
 20 19  1  0
 21 19  2  0
M  END
$$$$
