HAA.pdb
     RDKit          3D

 21 21  0  0  1  0  0  0  0  0999 V2000
    8.4713  -17.2137   21.3949 N   0  0  0  0  0  0  0  0  0  0  0  0
    9.0612  -16.2229   22.2422 C   0  0  1  0  0  0  0  0  0  0  0  0
    8.0124  -15.1810   22.6070 C   0  0  0  0  0  0  0  0  0  0  0  0
    7.8454  -14.2877   21.4303 C   0  0  0  0  0  0  0  0  0  0  0  0
    8.5530  -14.4017   20.2608 C   0  0  0  0  0  0  0  0  0  0  0  0
    8.1210  -13.4211   19.4471 N   0  0  0  0  0  0  0  0  0  0  0  0
    7.1777  -12.7339   20.1087 C   0  0  0  0  0  0  0  0  0  0  0  0
    6.9970  -13.2530   21.3266 N   0  0  0  0  0  0  0  0  0  0  0  0
    9.7105  -16.7982   23.4440 C   0  0  0  0  0  0  0  0  0  0  0  0
    9.1164  -17.7324   24.0414 O   0  0  0  0  0  0  0  0  0  0  0  0
   13.1213  -17.3052   24.6120 C   0  0  0  0  0  0  0  0  0  0  0  0
   11.6695  -17.1027   24.9856 C   0  0  2  0  0  0  0  0  0  0  0  0
   10.9474  -16.3713   23.9642 N   0  0  0  0  0  0  0  0  0  0  0  0
   11.5345  -16.4190   26.3009 C   0  0  0  0  0  0  0  0  0  0  0  0
   12.3017  -16.7358   27.2607 O   0  0  0  0  0  0  0  0  0  0  0  0
    9.3980  -13.6013   27.5560 C   0  0  0  0  0  0  0  0  0  0  0  0
   10.5254  -14.6028   27.6859 C   0  0  2  0  0  0  0  0  0  0  0  0
   10.5692  -15.4221   26.5076 N   0  0  0  0  0  0  0  0  0  0  0  0
   10.2181  -15.4380   28.8832 C   0  0  0  0  0  0  0  0  0  0  0  0
   10.4856  -15.0273   30.1714 O   0  0  0  0  0  0  0  0  0  0  0  0
    9.6913  -16.5697   28.7265 O   0  0  0  0  0  0  0  0  0  0  0  0
  2  1  1  1
  2  3  1  0
  3  4  1  0
  4  8  1  0
  5  4  2  0
  5  6  1  0
  6  7  1  0
  8  7  2  0
  9 13  1  0
  9  2  1  0
 10  9  2  0
 12 13  1  0
 12 11  1  6
 14 12  1  0
 14 18  1  0
 15 14  2  0
 17 18  1  0
 17 16  1  6
 19 17  1  0
 20 19  1  0
 21 19  2  0
M  END
$$$$
