HAA.pdb
     RDKit          3D

 21 21  0  0  1  0  0  0  0  0999 V2000
    6.4177  -18.1819   20.0916 N   0  0  0  0  0  0  0  0  0  0  0  0
    7.3294  -17.2853   20.7339 C   0  0  1  0  0  0  0  0  0  0  0  0
    7.6466  -16.1292   19.7950 C   0  0  0  0  0  0  0  0  0  0  0  0
    8.6912  -16.5999   18.8475 C   0  0  0  0  0  0  0  0  0  0  0  0
    9.4648  -17.7168   19.0351 C   0  0  0  0  0  0  0  0  0  0  0  0
   10.2830  -17.8072   17.9708 N   0  0  0  0  0  0  0  0  0  0  0  0
   10.0097  -16.7718   17.1627 C   0  0  0  0  0  0  0  0  0  0  0  0
    9.0356  -16.0218   17.6863 N   0  0  0  0  0  0  0  0  0  0  0  0
    6.8458  -16.8105   22.0520 C   0  0  0  0  0  0  0  0  0  0  0  0
    5.7846  -16.1356   22.0792 O   0  0  0  0  0  0  0  0  0  0  0  0
    6.8462  -17.7922   25.5285 C   0  0  0  0  0  0  0  0  0  0  0  0
    6.9561  -16.6395   24.5551 C   0  0  2  0  0  0  0  0  0  0  0  0
    7.4923  -17.0626   23.2772 N   0  0  0  0  0  0  0  0  0  0  0  0
    7.7741  -15.5288   25.1144 C   0  0  0  0  0  0  0  0  0  0  0  0
    9.0350  -15.5377   24.9728 O   0  0  0  0  0  0  0  0  0  0  0  0
    6.9741  -12.3413   26.9214 C   0  0  0  0  0  0  0  0  0  0  0  0
    7.9300  -13.3868   26.3884 C   0  0  2  0  0  0  0  0  0  0  0  0
    7.1785  -14.4605   25.8019 N   0  0  0  0  0  0  0  0  0  0  0  0
    8.7130  -13.8840   27.5569 C   0  0  0  0  0  0  0  0  0  0  0  0
    8.5706  -15.1566   28.0669 O   0  0  0  0  0  0  0  0  0  0  0  0
    9.5439  -13.1199   28.1123 O   0  0  0  0  0  0  0  0  0  0  0  0
  2  1  1  6
  2  3  1  0
  3  4  1  0
  4  8  1  0
  5  4  2  0
  5  6  1  0
  6  7  1  0
  8  7  2  0
  9 13  1  0
  9  2  1  0
 10  9  2  0
 12 13  1  0
 12 11  1  1
 14 12  1  0
 14 18  1  0
 15 14  2  0
 17 18  1  0
 17 16  1  1
 19 17  1  0
 20 19  1  0
 21 19  2  0
M  END
$$$$
