HAA.pdb
     RDKit          3D

 21 21  0  0  1  0  0  0  0  0999 V2000
    8.5466  -15.7833   20.4822 N   0  0  0  0  0  0  0  0  0  0  0  0
    8.9882  -14.6552   21.2436 C   0  0  1  0  0  0  0  0  0  0  0  0
    8.7736  -13.3838   20.4334 C   0  0  0  0  0  0  0  0  0  0  0  0
    8.2991  -13.7912   19.0846 C   0  0  0  0  0  0  0  0  0  0  0  0
    7.3241  -13.1393   18.3735 C   0  0  0  0  0  0  0  0  0  0  0  0
    7.1784  -13.8039   17.2128 N   0  0  0  0  0  0  0  0  0  0  0  0
    8.0430  -14.8296   17.2237 C   0  0  0  0  0  0  0  0  0  0  0  0
    8.7379  -14.8357   18.3651 N   0  0  0  0  0  0  0  0  0  0  0  0
    8.3540  -14.5725   22.5807 C   0  0  0  0  0  0  0  0  0  0  0  0
    8.5021  -13.5085   23.2354 O   0  0  0  0  0  0  0  0  0  0  0  0
    8.7725  -17.6662   23.7849 C   0  0  0  0  0  0  0  0  0  0  0  0
    8.0827  -16.4105   24.2703 C   0  0  2  0  0  0  0  0  0  0  0  0
    7.5967  -15.6030   23.1697 N   0  0  0  0  0  0  0  0  0  0  0  0
    8.9736  -15.6026   25.1475 C   0  0  0  0  0  0  0  0  0  0  0  0
   10.2020  -15.4749   24.8565 O   0  0  0  0  0  0  0  0  0  0  0  0
    8.4055  -13.0555   27.7524 C   0  0  0  0  0  0  0  0  0  0  0  0
    9.2851  -14.1198   27.1324 C   0  0  2  0  0  0  0  0  0  0  0  0
    8.4828  -14.9720   26.3007 N   0  0  0  0  0  0  0  0  0  0  0  0
    9.8681  -14.9020   28.2610 C   0  0  0  0  0  0  0  0  0  0  0  0
   10.7714  -14.3678   29.1545 O   0  0  0  0  0  0  0  0  0  0  0  0
    9.5302  -16.1037   28.4174 O   0  0  0  0  0  0  0  0  0  0  0  0
  2  1  1  6
  2  3  1  0
  3  4  1  0
  4  8  1  0
  5  4  2  0
  5  6  1  0
  6  7  1  0
  8  7  2  0
  9 13  1  0
  9  2  1  0
 10  9  2  0
 12 13  1  0
 12 11  1  6
 14 12  1  0
 14 18  1  0
 15 14  2  0
 17 18  1  0
 17 16  1  1
 19 17  1  0
 20 19  1  0
 21 19  2  0
M  END
$$$$
