HAA.pdb
     RDKit          3D

 21 21  0  0  1  0  0  0  0  0999 V2000
    7.4871  -15.6121   15.9414 N   0  0  0  0  0  0  0  0  0  0  0  0
    8.7241  -16.1871   15.5092 C   0  0  1  0  0  0  0  0  0  0  0  0
    9.7470  -15.0802   15.2921 C   0  0  0  0  0  0  0  0  0  0  0  0
    9.1695  -14.1287   14.3064 C   0  0  0  0  0  0  0  0  0  0  0  0
    9.2829  -14.2546   12.9454 C   0  0  0  0  0  0  0  0  0  0  0  0
    8.6345  -13.2083   12.4021 N   0  0  0  0  0  0  0  0  0  0  0  0
    8.1431  -12.4708   13.4093 C   0  0  0  0  0  0  0  0  0  0  0  0
    8.4626  -13.0220   14.5838 N   0  0  0  0  0  0  0  0  0  0  0  0
    9.2298  -17.2351   16.4273 C   0  0  0  0  0  0  0  0  0  0  0  0
    9.5465  -16.8893   17.5946 O   0  0  0  0  0  0  0  0  0  0  0  0
    9.3476  -20.9795   16.6467 C   0  0  0  0  0  0  0  0  0  0  0  0
    9.8385  -19.5983   17.0201 C   0  0  2  0  0  0  0  0  0  0  0  0
    9.3805  -18.5922   16.0834 N   0  0  0  0  0  0  0  0  0  0  0  0
   11.3222  -19.5585   17.1337 C   0  0  0  0  0  0  0  0  0  0  0  0
   11.9140  -20.3143   17.9635 O   0  0  0  0  0  0  0  0  0  0  0  0
   14.0109  -17.5097   15.5061 C   0  0  0  0  0  0  0  0  0  0  0  0
   13.5182  -18.5887   16.4463 C   0  0  2  0  0  0  0  0  0  0  0  0
   12.0905  -18.6964   16.3370 N   0  0  0  0  0  0  0  0  0  0  0  0
   13.8987  -18.1605   17.8238 C   0  0  0  0  0  0  0  0  0  0  0  0
   13.1787  -17.2327   18.5452 O   0  0  0  0  0  0  0  0  0  0  0  0
   14.9193  -18.6593   18.3645 O   0  0  0  0  0  0  0  0  0  0  0  0
  2  1  1  1
  2  3  1  0
  3  4  1  0
  4  8  1  0
  5  4  2  0
  5  6  1  0
  6  7  1  0
  8  7  2  0
  9 13  1  0
  9  2  1  0
 10  9  2  0
 12 13  1  0
 12 11  1  6
 14 12  1  0
 14 18  1  0
 15 14  2  0
 17 18  1  0
 17 16  1  6
 19 17  1  0
 20 19  1  0
 21 19  2  0
M  END
$$$$
