HAA.pdb
     RDKit          3D

 21 21  0  0  1  0  0  0  0  0999 V2000
    7.9357  -17.3813   20.1847 N   0  0  0  0  0  0  0  0  0  0  0  0
    8.9387  -17.0353   21.1449 C   0  0  1  0  0  0  0  0  0  0  0  0
    9.8790  -16.0002   20.5425 C   0  0  0  0  0  0  0  0  0  0  0  0
   10.6439  -16.6719   19.4590 C   0  0  0  0  0  0  0  0  0  0  0  0
   11.5755  -17.6581   19.6610 C   0  0  0  0  0  0  0  0  0  0  0  0
   12.0423  -18.0072   18.4483 N   0  0  0  0  0  0  0  0  0  0  0  0
   11.4087  -17.2512   17.5390 C   0  0  0  0  0  0  0  0  0  0  0  0
   10.5476  -16.4270   18.1429 N   0  0  0  0  0  0  0  0  0  0  0  0
    8.3733  -16.5827   22.4382 C   0  0  0  0  0  0  0  0  0  0  0  0
    7.8468  -15.4410   22.4808 O   0  0  0  0  0  0  0  0  0  0  0  0
    7.2552  -17.9841   25.7045 C   0  0  0  0  0  0  0  0  0  0  0  0
    7.8378  -16.8607   24.8759 C   0  0  2  0  0  0  0  0  0  0  0  0
    8.3846  -17.3426   23.6235 N   0  0  0  0  0  0  0  0  0  0  0  0
    8.8729  -16.1045   25.6325 C   0  0  0  0  0  0  0  0  0  0  0  0
   10.0988  -16.4042   25.5004 O   0  0  0  0  0  0  0  0  0  0  0  0
    8.7941  -13.0554   27.8037 C   0  0  0  0  0  0  0  0  0  0  0  0
    9.4895  -14.2497   27.1866 C   0  0  2  0  0  0  0  0  0  0  0  0
    8.5224  -15.0569   26.4975 N   0  0  0  0  0  0  0  0  0  0  0  0
   10.0948  -15.0194   28.3121 C   0  0  0  0  0  0  0  0  0  0  0  0
   11.2256  -14.6030   28.9812 O   0  0  0  0  0  0  0  0  0  0  0  0
    9.5611  -16.0981   28.6785 O   0  0  0  0  0  0  0  0  0  0  0  0
  2  1  1  6
  2  3  1  0
  3  4  1  0
  4  8  1  0
  5  4  2  0
  5  6  1  0
  6  7  1  0
  8  7  2  0
  9 13  1  0
  9  2  1  0
 10  9  2  0
 12 13  1  0
 12 11  1  1
 14 12  1  0
 14 18  1  0
 15 14  2  0
 17 18  1  0
 17 16  1  1
 19 17  1  0
 20 19  1  0
 21 19  2  0
M  END
$$$$
