HAA.pdb
     RDKit          3D

 21 21  0  0  1  0  0  0  0  0999 V2000
   11.9173  -16.9706   14.0899 N   0  0  0  0  0  0  0  0  0  0  0  0
   11.8490  -17.0460   15.5172 C   0  0  1  0  0  0  0  0  0  0  0  0
   13.1431  -16.5092   16.1138 C   0  0  0  0  0  0  0  0  0  0  0  0
   14.1607  -17.5882   16.0115 C   0  0  0  0  0  0  0  0  0  0  0  0
   14.1037  -18.7779   16.6917 C   0  0  0  0  0  0  0  0  0  0  0  0
   15.1946  -19.4816   16.3377 N   0  0  0  0  0  0  0  0  0  0  0  0
   15.8910  -18.7356   15.4669 C   0  0  0  0  0  0  0  0  0  0  0  0
   15.2701  -17.5712   15.2564 N   0  0  0  0  0  0  0  0  0  0  0  0
   10.6575  -16.3663   16.0786 C   0  0  0  0  0  0  0  0  0  0  0  0
   10.4890  -15.1514   15.7988 O   0  0  0  0  0  0  0  0  0  0  0  0
    7.4778  -17.2778   17.9011 C   0  0  0  0  0  0  0  0  0  0  0  0
    8.5187  -16.3048   17.3932 C   0  0  2  0  0  0  0  0  0  0  0  0
    9.7001  -16.9863   16.9041 N   0  0  0  0  0  0  0  0  0  0  0  0
    8.8924  -15.3112   18.4367 C   0  0  0  0  0  0  0  0  0  0  0  0
    9.9043  -15.5177   19.1739 O   0  0  0  0  0  0  0  0  0  0  0  0
    7.3965  -12.0802   19.6202 C   0  0  0  0  0  0  0  0  0  0  0  0
    8.4359  -13.1799   19.6550 C   0  0  2  0  0  0  0  0  0  0  0  0
    8.1450  -14.1393   18.6271 N   0  0  0  0  0  0  0  0  0  0  0  0
    8.3360  -13.8187   20.9994 C   0  0  0  0  0  0  0  0  0  0  0  0
    7.7990  -15.0730   21.1944 O   0  0  0  0  0  0  0  0  0  0  0  0
    8.7563  -13.1978   22.0097 O   0  0  0  0  0  0  0  0  0  0  0  0
  2  1  1  6
  2  3  1  0
  3  4  1  0
  4  8  1  0
  5  4  2  0
  5  6  1  0
  6  7  1  0
  8  7  2  0
  9 13  1  0
  9  2  1  0
 10  9  2  0
 12 13  1  0
 12 11  1  1
 14 12  1  0
 14 18  1  0
 15 14  2  0
 17 18  1  0
 17 16  1  1
 19 17  1  0
 20 19  1  0
 21 19  2  0
M  END
$$$$
