HAA.pdb
     RDKit          3D

 21 21  0  0  1  0  0  0  0  0999 V2000
   11.5998  -16.9560   20.8429 N   0  0  0  0  0  0  0  0  0  0  0  0
   10.6818  -17.1059   21.9303 C   0  0  1  0  0  0  0  0  0  0  0  0
   11.4322  -17.5974   23.1607 C   0  0  0  0  0  0  0  0  0  0  0  0
   11.4864  -19.0812   23.0848 C   0  0  0  0  0  0  0  0  0  0  0  0
   10.8510  -19.8349   22.1311 C   0  0  0  0  0  0  0  0  0  0  0  0
   11.1383  -21.1222   22.3968 N   0  0  0  0  0  0  0  0  0  0  0  0
   11.9262  -21.1441   23.4824 C   0  0  0  0  0  0  0  0  0  0  0  0
   12.1491  -19.9001   23.9164 N   0  0  0  0  0  0  0  0  0  0  0  0
    9.9070  -15.8738   22.2106 C   0  0  0  0  0  0  0  0  0  0  0  0
   10.5490  -14.8163   22.4387 O   0  0  0  0  0  0  0  0  0  0  0  0
    6.3602  -14.6526   21.9114 C   0  0  0  0  0  0  0  0  0  0  0  0
    7.7748  -14.5669   22.4400 C   0  0  2  0  0  0  0  0  0  0  0  0
    8.5010  -15.8047   22.2393 N   0  0  0  0  0  0  0  0  0  0  0  0
    7.7980  -14.1839   23.8782 C   0  0  0  0  0  0  0  0  0  0  0  0
    8.0664  -15.0548   24.7610 O   0  0  0  0  0  0  0  0  0  0  0  0
    7.0889  -11.0143   25.7536 C   0  0  0  0  0  0  0  0  0  0  0  0
    7.5624  -12.4487   25.6584 C   0  0  2  0  0  0  0  0  0  0  0  0
    7.5272  -12.8690   24.2859 N   0  0  0  0  0  0  0  0  0  0  0  0
    6.6152  -13.2654   26.4718 C   0  0  0  0  0  0  0  0  0  0  0  0
    5.6616  -14.0868   25.9100 O   0  0  0  0  0  0  0  0  0  0  0  0
    6.6771  -13.2128   27.7273 O   0  0  0  0  0  0  0  0  0  0  0  0
  2  1  1  6
  2  3  1  0
  3  4  1  0
  4  8  1  0
  5  4  2  0
  5  6  1  0
  6  7  1  0
  8  7  2  0
  9 13  1  0
  9  2  1  0
 10  9  2  0
 12 13  1  0
 12 11  1  1
 14 12  1  0
 14 18  1  0
 15 14  2  0
 17 18  1  0
 17 16  1  6
 19 17  1  0
 20 19  1  0
 21 19  2  0
M  END
$$$$
