HAA.pdb
     RDKit          3D

 21 21  0  0  1  0  0  0  0  0999 V2000
    9.7998  -15.3932   14.9865 N   0  0  0  0  0  0  0  0  0  0  0  0
    8.9402  -15.8790   16.0221 C   0  0  1  0  0  0  0  0  0  0  0  0
    9.0650  -17.3938   16.1130 C   0  0  0  0  0  0  0  0  0  0  0  0
    8.5520  -17.9593   14.8373 C   0  0  0  0  0  0  0  0  0  0  0  0
    7.2512  -17.8656   14.4126 C   0  0  0  0  0  0  0  0  0  0  0  0
    7.1830  -18.4941   13.2249 N   0  0  0  0  0  0  0  0  0  0  0  0
    8.4106  -18.9547   12.9409 C   0  0  0  0  0  0  0  0  0  0  0  0
    9.2617  -18.6348   13.9201 N   0  0  0  0  0  0  0  0  0  0  0  0
    9.1796  -15.2249   17.3305 C   0  0  0  0  0  0  0  0  0  0  0  0
   10.3189  -15.3497   17.8489 O   0  0  0  0  0  0  0  0  0  0  0  0
    7.3640  -12.9407   19.7483 C   0  0  0  0  0  0  0  0  0  0  0  0
    8.4792  -13.8716   19.3267 C   0  0  2  0  0  0  0  0  0  0  0  0
    8.2195  -14.4729   18.0342 N   0  0  0  0  0  0  0  0  0  0  0  0
    8.7232  -14.9282   20.3463 C   0  0  0  0  0  0  0  0  0  0  0  0
    8.1147  -16.0387   20.2653 O   0  0  0  0  0  0  0  0  0  0  0  0
   10.9226  -15.1780   23.3766 C   0  0  0  0  0  0  0  0  0  0  0  0
    9.9009  -15.7208   22.4007 C   0  0  2  0  0  0  0  0  0  0  0  0
    9.6194  -14.7240   21.4064 N   0  0  0  0  0  0  0  0  0  0  0  0
    8.6723  -16.0205   23.1921 C   0  0  0  0  0  0  0  0  0  0  0  0
    8.5217  -17.1725   23.9337 O   0  0  0  0  0  0  0  0  0  0  0  0
    7.7229  -15.1951   23.1928 O   0  0  0  0  0  0  0  0  0  0  0  0
  2  1  1  6
  2  3  1  0
  3  4  1  0
  4  8  1  0
  5  4  2  0
  5  6  1  0
  6  7  1  0
  8  7  2  0
  9 13  1  0
  9  2  1  0
 10  9  2  0
 12 13  1  0
 12 11  1  1
 14 12  1  0
 14 18  1  0
 15 14  2  0
 17 18  1  0
 17 16  1  1
 19 17  1  0
 20 19  1  0
 21 19  2  0
M  END
$$$$
