HAA.pdb
     RDKit          3D

 21 21  0  0  1  0  0  0  0  0999 V2000
    9.9904  -16.2325   15.6091 N   0  0  0  0  0  0  0  0  0  0  0  0
    8.9007  -16.1432   16.5322 C   0  0  1  0  0  0  0  0  0  0  0  0
    8.5656  -17.5340   17.0540 C   0  0  0  0  0  0  0  0  0  0  0  0
    7.9684  -18.2991   15.9278 C   0  0  0  0  0  0  0  0  0  0  0  0
    6.9929  -17.8184   15.0919 C   0  0  0  0  0  0  0  0  0  0  0  0
    6.7184  -18.7972   14.2104 N   0  0  0  0  0  0  0  0  0  0  0  0
    7.5076  -19.8406   14.5072 C   0  0  0  0  0  0  0  0  0  0  0  0
    8.2803  -19.5510   15.5581 N   0  0  0  0  0  0  0  0  0  0  0  0
    9.1502  -15.1843   17.6346 C   0  0  0  0  0  0  0  0  0  0  0  0
   10.2664  -15.2326   18.2128 O   0  0  0  0  0  0  0  0  0  0  0  0
    7.4283  -12.2677   19.3312 C   0  0  0  0  0  0  0  0  0  0  0  0
    8.4620  -13.3669   19.2253 C   0  0  2  0  0  0  0  0  0  0  0  0
    8.2238  -14.2220   18.0800 N   0  0  0  0  0  0  0  0  0  0  0  0
    8.5240  -14.1799   20.4707 C   0  0  0  0  0  0  0  0  0  0  0  0
    8.8342  -13.6295   21.5712 O   0  0  0  0  0  0  0  0  0  0  0  0
    7.5288  -17.6547   21.3868 C   0  0  0  0  0  0  0  0  0  0  0  0
    8.3104  -16.3815   21.6295 C   0  0  2  0  0  0  0  0  0  0  0  0
    8.2447  -15.5548   20.4574 N   0  0  0  0  0  0  0  0  0  0  0  0
    9.7207  -16.7905   21.8932 C   0  0  0  0  0  0  0  0  0  0  0  0
   10.7750  -16.4008   21.0955 O   0  0  0  0  0  0  0  0  0  0  0  0
    9.9750  -17.5233   22.8836 O   0  0  0  0  0  0  0  0  0  0  0  0
  2  1  1  6
  2  3  1  0
  3  4  1  0
  4  8  1  0
  5  4  2  0
  5  6  1  0
  6  7  1  0
  8  7  2  0
  9 13  1  0
  9  2  1  0
 10  9  2  0
 12 13  1  0
 12 11  1  1
 14 12  1  0
 14 18  1  0
 15 14  2  0
 17 18  1  0
 17 16  1  6
 19 17  1  0
 20 19  1  0
 21 19  2  0
M  END
$$$$
