HAA.pdb
     RDKit          3D

 21 21  0  0  1  0  0  0  0  0999 V2000
    8.8195  -17.2922   19.8981 N   0  0  0  0  0  0  0  0  0  0  0  0
    9.6099  -17.1293   21.0798 C   0  0  1  0  0  0  0  0  0  0  0  0
   10.8381  -16.2902   20.7542 C   0  0  0  0  0  0  0  0  0  0  0  0
   11.8394  -17.1928   20.1271 C   0  0  0  0  0  0  0  0  0  0  0  0
   12.0752  -18.4854   20.5203 C   0  0  0  0  0  0  0  0  0  0  0  0
   13.0427  -18.9662   19.7183 N   0  0  0  0  0  0  0  0  0  0  0  0
   13.3813  -17.9889   18.8639 C   0  0  0  0  0  0  0  0  0  0  0  0
   12.6523  -16.8946   19.1016 N   0  0  0  0  0  0  0  0  0  0  0  0
    8.8439  -16.5698   22.2186 C   0  0  0  0  0  0  0  0  0  0  0  0
    8.2793  -15.4575   22.0558 O   0  0  0  0  0  0  0  0  0  0  0  0
    7.2362  -17.6835   25.3758 C   0  0  0  0  0  0  0  0  0  0  0  0
    7.9434  -16.6222   24.5624 C   0  0  2  0  0  0  0  0  0  0  0  0
    8.7041  -17.1973   23.4713 N   0  0  0  0  0  0  0  0  0  0  0  0
    8.8241  -15.7776   25.4149 C   0  0  0  0  0  0  0  0  0  0  0  0
   10.0557  -16.0611   25.5288 O   0  0  0  0  0  0  0  0  0  0  0  0
    8.3205  -12.5969   27.3339 C   0  0  0  0  0  0  0  0  0  0  0  0
    9.1427  -13.7871   26.8886 C   0  0  2  0  0  0  0  0  0  0  0  0
    8.3203  -14.6636   26.1031 N   0  0  0  0  0  0  0  0  0  0  0  0
    9.5963  -14.4803   28.1292 C   0  0  0  0  0  0  0  0  0  0  0  0
   10.6138  -14.0006   28.9257 O   0  0  0  0  0  0  0  0  0  0  0  0
    9.0352  -15.5512   28.4772 O   0  0  0  0  0  0  0  0  0  0  0  0
  2  1  1  6
  2  3  1  0
  3  4  1  0
  4  8  1  0
  5  4  2  0
  5  6  1  0
  6  7  1  0
  8  7  2  0
  9 13  1  0
  9  2  1  0
 10  9  2  0
 12 13  1  0
 12 11  1  1
 14 12  1  0
 14 18  1  0
 15 14  2  0
 17 18  1  0
 17 16  1  1
 19 17  1  0
 20 19  1  0
 21 19  2  0
M  END
$$$$
