EMC.pdb
     RDKit          3D

 24 23  0  0  1  0  0  0  0  0999 V2000
   18.8964  -10.2426  -18.8203 N   0  0  0  0  0  0  0  0  0  0  0  0
   19.7368   -9.0979  -18.6750 C   0  0  1  0  0  0  0  0  0  0  0  0
   19.6264   -8.1053  -19.7591 C   0  0  0  0  0  0  0  0  0  0  0  0
   20.8773   -7.9564  -20.5473 C   0  0  0  0  0  0  0  0  0  0  0  0
   21.9646   -7.1807  -19.9929 C   0  0  0  0  0  0  0  0  0  0  0  0
   21.8753   -6.0429  -19.5233 O   0  0  0  0  0  0  0  0  0  0  0  0
   19.5128   -8.5038  -17.3161 C   0  0  0  0  0  0  0  0  0  0  0  0
   18.4115   -8.6513  -16.7198 O   0  0  0  0  0  0  0  0  0  0  0  0
   23.2371   -7.7714  -19.9864 O   0  0  0  0  0  0  0  0  0  0  0  0
   22.1864   -9.9184  -12.2660 C   0  0  0  0  0  0  0  0  0  0  0  0
   22.1748   -8.1801  -11.7450 S   0  0  0  0  0  0  0  0  0  0  0  0
   21.1469   -7.1929  -12.9166 C   0  0  0  0  0  0  0  0  0  0  0  0
   21.1962   -7.8743  -14.2597 C   0  0  0  0  0  0  0  0  0  0  0  0
   20.4069   -7.1753  -15.3294 C   0  0  2  0  0  0  0  0  0  0  0  0
   20.4877   -7.7593  -16.6293 N   0  0  0  0  0  0  0  0  0  0  0  0
   20.8463   -5.7763  -15.4549 C   0  0  0  0  0  0  0  0  0  0  0  0
   21.8472   -5.5308  -16.1560 O   0  0  0  0  0  0  0  0  0  0  0  0
   20.1646   -4.7160  -14.8048 N   0  0  0  0  0  0  0  0  0  0  0  0
   20.6273   -3.3657  -14.9102 C   0  0  1  0  0  0  0  0  0  0  0  0
   19.4455   -2.4537  -15.0944 C   0  0  0  0  0  0  0  0  0  0  0  0
   19.8656   -0.7030  -14.9479 S   0  0  0  0  0  0  0  0  0  0  0  0
   21.5018   -2.9537  -13.7738 C   0  0  0  0  0  0  0  0  0  0  0  0
   21.7361   -3.7052  -12.6487 O   0  0  0  0  0  0  0  0  0  0  0  0
   22.0687   -1.8321  -13.8525 O   0  0  0  0  0  0  0  0  0  0  0  0
  2  1  1  6
  2  7  1  0
  3  4  1  0
  3  2  1  0
  4  5  1  0
  5  6  2  0
  7  8  2  0
  9  5  1  0
 10 11  1  0
 11 12  1  0
 12 13  1  0
 14 13  1  1
 14 16  1  0
 15  7  1  0
 15 14  1  0
 16 18  1  0
 16 17  2  0
 18 19  1  0
 19 22  1  0
 19 20  1  1
 21 20  1  0
 22 24  2  0
 22 23  1  0
M  END
$$$$
