EMC.pdb
     RDKit          3D

 24 23  0  0  1  0  0  0  0  0999 V2000
   27.8444  -22.0564  -15.9474 N   0  0  0  0  0  0  0  0  0  0  0  0
   27.4448  -20.8583  -15.2820 C   0  0  1  0  0  0  0  0  0  0  0  0
   26.8228  -19.8434  -16.1514 C   0  0  0  0  0  0  0  0  0  0  0  0
   27.7977  -19.1489  -17.0319 C   0  0  0  0  0  0  0  0  0  0  0  0
   27.3460  -18.0298  -17.8288 C   0  0  0  0  0  0  0  0  0  0  0  0
   26.7909  -17.0142  -17.4005 O   0  0  0  0  0  0  0  0  0  0  0  0
   26.5880  -21.2220  -14.1058 C   0  0  0  0  0  0  0  0  0  0  0  0
   25.6974  -22.1093  -14.2047 O   0  0  0  0  0  0  0  0  0  0  0  0
   27.5560  -18.1015  -19.2142 O   0  0  0  0  0  0  0  0  0  0  0  0
   25.7477  -20.4559   -6.1759 C   0  0  0  0  0  0  0  0  0  0  0  0
   26.7549  -20.2520   -7.6717 S   0  0  0  0  0  0  0  0  0  0  0  0
   25.7624  -20.7287   -9.1520 C   0  0  0  0  0  0  0  0  0  0  0  0
   26.6063  -20.4740  -10.3741 C   0  0  0  0  0  0  0  0  0  0  0  0
   25.9384  -20.8465  -11.6669 C   0  0  2  0  0  0  0  0  0  0  0  0
   26.7123  -20.6152  -12.8438 N   0  0  0  0  0  0  0  0  0  0  0  0
   24.6791  -20.1010  -11.8231 C   0  0  0  0  0  0  0  0  0  0  0  0
   24.7393  -18.8966  -12.1383 O   0  0  0  0  0  0  0  0  0  0  0  0
   23.4159  -20.7151  -11.6260 N   0  0  0  0  0  0  0  0  0  0  0  0
   22.2171  -20.1169  -12.1295 C   0  0  1  0  0  0  0  0  0  0  0  0
   22.3699  -19.8769  -13.6065 C   0  0  0  0  0  0  0  0  0  0  0  0
   20.8788  -19.2118  -14.3793 S   0  0  0  0  0  0  0  0  0  0  0  0
   20.9877  -20.8937  -11.7960 C   0  0  0  0  0  0  0  0  0  0  0  0
   19.7702  -20.3425  -11.4807 O   0  0  0  0  0  0  0  0  0  0  0  0
   21.0726  -22.1500  -11.8052 O   0  0  0  0  0  0  0  0  0  0  0  0
  2  1  1  6
  2  7  1  0
  3  4  1  0
  3  2  1  0
  4  5  1  0
  5  6  2  0
  7  8  2  0
  9  5  1  0
 10 11  1  0
 11 12  1  0
 12 13  1  0
 14 13  1  1
 14 16  1  0
 15  7  1  0
 15 14  1  0
 16 18  1  0
 16 17  2  0
 18 19  1  0
 19 22  1  0
 19 20  1  6
 21 20  1  0
 22 24  2  0
 22 23  1  0
M  END
$$$$
