EMC.pdb
     RDKit          3D

 24 23  0  0  1  0  0  0  0  0999 V2000
   20.9152  -12.5701  -18.0837 N   0  0  0  0  0  0  0  0  0  0  0  0
   19.9632  -12.1339  -17.1135 C   0  0  1  0  0  0  0  0  0  0  0  0
   19.4306  -13.1987  -16.2444 C   0  0  0  0  0  0  0  0  0  0  0  0
   18.8538  -14.3397  -17.0016 C   0  0  0  0  0  0  0  0  0  0  0  0
   19.4203  -15.6577  -16.8189 C   0  0  0  0  0  0  0  0  0  0  0  0
   19.0787  -16.6812  -17.4178 O   0  0  0  0  0  0  0  0  0  0  0  0
   20.5506  -10.9905  -16.3407 C   0  0  0  0  0  0  0  0  0  0  0  0
   19.9783  -10.5462  -15.3085 O   0  0  0  0  0  0  0  0  0  0  0  0
   20.4517  -15.7885  -15.8767 O   0  0  0  0  0  0  0  0  0  0  0  0
   27.2037  -10.7336  -14.4753 C   0  0  0  0  0  0  0  0  0  0  0  0
   26.4155  -10.2917  -16.0491 S   0  0  0  0  0  0  0  0  0  0  0  0
   24.5949  -10.5624  -15.9234 C   0  0  0  0  0  0  0  0  0  0  0  0
   23.9128   -9.2508  -16.2149 C   0  0  0  0  0  0  0  0  0  0  0  0
   22.4221   -9.2833  -16.0338 C   0  0  2  0  0  0  0  0  0  0  0  0
   21.7480  -10.3489  -16.7027 N   0  0  0  0  0  0  0  0  0  0  0  0
   21.8235   -8.0257  -16.5094 C   0  0  0  0  0  0  0  0  0  0  0  0
   21.8016   -7.8074  -17.7364 O   0  0  0  0  0  0  0  0  0  0  0  0
   21.2780   -7.0704  -15.6142 N   0  0  0  0  0  0  0  0  0  0  0  0
   20.8841   -5.7719  -16.0696 C   0  0  1  0  0  0  0  0  0  0  0  0
   19.3822   -5.6896  -16.0816 C   0  0  0  0  0  0  0  0  0  0  0  0
   18.6386   -5.9825  -14.4617 S   0  0  0  0  0  0  0  0  0  0  0  0
   21.5160   -4.6619  -15.2985 C   0  0  0  0  0  0  0  0  0  0  0  0
   22.3026   -4.8257  -14.1850 O   0  0  0  0  0  0  0  0  0  0  0  0
   21.3135   -3.4856  -15.6997 O   0  0  0  0  0  0  0  0  0  0  0  0
  2  1  1  6
  2  7  1  0
  3  4  1  0
  3  2  1  0
  4  5  1  0
  5  6  2  0
  7  8  2  0
  9  5  1  0
 10 11  1  0
 11 12  1  0
 12 13  1  0
 14 13  1  6
 14 16  1  0
 15  7  1  0
 15 14  1  0
 16 18  1  0
 16 17  2  0
 18 19  1  0
 19 22  1  0
 19 20  1  1
 21 20  1  0
 22 24  2  0
 22 23  1  0
M  END
$$$$
