EMC.pdb
     RDKit          3D

 24 23  0  0  1  0  0  0  0  0999 V2000
   13.2513  -10.8635   -9.7608 N   0  0  0  0  0  0  0  0  0  0  0  0
   14.5518  -10.3433   -9.4851 C   0  0  1  0  0  0  0  0  0  0  0  0
   15.6629  -11.0935  -10.0979 C   0  0  0  0  0  0  0  0  0  0  0  0
   15.5905  -11.1410  -11.5813 C   0  0  0  0  0  0  0  0  0  0  0  0
   16.5609  -11.9337  -12.3034 C   0  0  0  0  0  0  0  0  0  0  0  0
   17.4406  -12.6365  -11.7982 O   0  0  0  0  0  0  0  0  0  0  0  0
   14.5721   -8.8845   -9.8329 C   0  0  0  0  0  0  0  0  0  0  0  0
   13.9033   -8.4427  -10.8065 O   0  0  0  0  0  0  0  0  0  0  0  0
   16.4998  -11.9038  -13.7047 O   0  0  0  0  0  0  0  0  0  0  0  0
   12.8011   -4.1969   -6.2818 C   0  0  0  0  0  0  0  0  0  0  0  0
   14.3457   -3.4043   -6.8102 S   0  0  0  0  0  0  0  0  0  0  0  0
   14.9593   -4.2159   -8.3491 C   0  0  0  0  0  0  0  0  0  0  0  0
   15.0420   -5.6976   -8.0870 C   0  0  0  0  0  0  0  0  0  0  0  0
   15.3634   -6.5168   -9.3043 C   0  0  2  0  0  0  0  0  0  0  0  0
   15.3189   -7.9313   -9.1185 N   0  0  0  0  0  0  0  0  0  0  0  0
   16.7095   -6.1870   -9.7995 C   0  0  0  0  0  0  0  0  0  0  0  0
   17.6897   -6.7363   -9.2601 O   0  0  0  0  0  0  0  0  0  0  0  0
   16.9126   -5.2710  -10.8631 N   0  0  0  0  0  0  0  0  0  0  0  0
   18.1916   -5.1412  -11.4922 C   0  0  1  0  0  0  0  0  0  0  0  0
   18.6311   -6.4887  -11.9957 C   0  0  0  0  0  0  0  0  0  0  0  0
   20.2029   -6.4404  -12.8845 S   0  0  0  0  0  0  0  0  0  0  0  0
   18.2214   -4.0920  -12.5525 C   0  0  0  0  0  0  0  0  0  0  0  0
   19.3109   -3.3148  -12.8599 O   0  0  0  0  0  0  0  0  0  0  0  0
   17.1678   -3.9054  -13.2164 O   0  0  0  0  0  0  0  0  0  0  0  0
  2  1  1  6
  2  7  1  0
  3  4  1  0
  3  2  1  0
  4  5  1  0
  5  6  2  0
  7  8  2  0
  9  5  1  0
 10 11  1  0
 11 12  1  0
 12 13  1  0
 14 13  1  1
 14 16  1  0
 15  7  1  0
 15 14  1  0
 16 18  1  0
 16 17  2  0
 18 19  1  0
 19 22  1  0
 19 20  1  6
 21 20  1  0
 22 24  2  0
 22 23  1  0
M  END
$$$$
