EMC.pdb
     RDKit          3D

 24 23  0  0  1  0  0  0  0  0999 V2000
   13.8092  -20.3553    2.8128 N   0  0  0  0  0  0  0  0  0  0  0  0
   15.1877  -19.9860    2.8469 C   0  0  1  0  0  0  0  0  0  0  0  0
   15.4425  -18.5668    3.1529 C   0  0  0  0  0  0  0  0  0  0  0  0
   14.8209  -18.1209    4.4268 C   0  0  0  0  0  0  0  0  0  0  0  0
   15.1308  -16.8016    4.9315 C   0  0  0  0  0  0  0  0  0  0  0  0
   15.8444  -15.9631    4.3739 O   0  0  0  0  0  0  0  0  0  0  0  0
   15.9153  -20.9202    3.7675 C   0  0  0  0  0  0  0  0  0  0  0  0
   15.2941  -21.5709    4.6512 O   0  0  0  0  0  0  0  0  0  0  0  0
   14.5715  -16.4384    6.1658 O   0  0  0  0  0  0  0  0  0  0  0  0
   20.5956  -25.3228    2.0272 C   0  0  0  0  0  0  0  0  0  0  0  0
   21.3051  -24.4171    3.4306 S   0  0  0  0  0  0  0  0  0  0  0  0
   19.9455  -23.7670    4.4947 C   0  0  0  0  0  0  0  0  0  0  0  0
   19.1887  -22.7365    3.6971 C   0  0  0  0  0  0  0  0  0  0  0  0
   18.0929  -22.0534    4.4642 C   0  0  2  0  0  0  0  0  0  0  0  0
   17.3042  -21.1307    3.7132 N   0  0  0  0  0  0  0  0  0  0  0  0
   18.6547  -21.3140    5.6060 C   0  0  0  0  0  0  0  0  0  0  0  0
   18.9128  -20.1036    5.4582 O   0  0  0  0  0  0  0  0  0  0  0  0
   18.9046  -21.9401    6.8538 N   0  0  0  0  0  0  0  0  0  0  0  0
   19.2834  -21.1741    8.0020 C   0  0  1  0  0  0  0  0  0  0  0  0
   18.2244  -20.1416    8.2757 C   0  0  0  0  0  0  0  0  0  0  0  0
   18.5180  -19.2026    9.7905 S   0  0  0  0  0  0  0  0  0  0  0  0
   19.5897  -22.0158    9.1952 C   0  0  0  0  0  0  0  0  0  0  0  0
   20.2210  -21.5711   10.3306 O   0  0  0  0  0  0  0  0  0  0  0  0
   19.2422  -23.2256    9.1588 O   0  0  0  0  0  0  0  0  0  0  0  0
  2  1  1  1
  2  7  1  0
  3  4  1  0
  3  2  1  0
  4  5  1  0
  5  6  2  0
  7  8  2  0
  9  5  1  0
 10 11  1  0
 11 12  1  0
 12 13  1  0
 14 13  1  6
 14 16  1  0
 15  7  1  0
 15 14  1  0
 16 18  1  0
 16 17  2  0
 18 19  1  0
 19 22  1  0
 19 20  1  1
 21 20  1  0
 22 24  2  0
 22 23  1  0
M  END
$$$$
