EMC.pdb
     RDKit          3D

 24 23  0  0  1  0  0  0  0  0999 V2000
   25.4691  -19.5407  -13.4061 N   0  0  0  0  0  0  0  0  0  0  0  0
   25.9466  -20.8845  -13.3424 C   0  0  1  0  0  0  0  0  0  0  0  0
   27.2031  -21.1318  -14.0723 C   0  0  0  0  0  0  0  0  0  0  0  0
   27.0888  -20.8917  -15.5342 C   0  0  0  0  0  0  0  0  0  0  0  0
   27.7860  -19.7651  -16.1141 C   0  0  0  0  0  0  0  0  0  0  0  0
   28.9397  -19.7762  -16.5522 O   0  0  0  0  0  0  0  0  0  0  0  0
   26.0158  -21.3047  -11.9042 C   0  0  0  0  0  0  0  0  0  0  0  0
   26.2779  -22.4979  -11.5914 O   0  0  0  0  0  0  0  0  0  0  0  0
   27.0916  -18.5482  -16.1870 O   0  0  0  0  0  0  0  0  0  0  0  0
   27.7174  -19.4109   -4.4836 C   0  0  0  0  0  0  0  0  0  0  0  0
   27.4194  -18.8414   -6.1807 S   0  0  0  0  0  0  0  0  0  0  0  0
   26.4156  -20.0980   -7.0845 C   0  0  0  0  0  0  0  0  0  0  0  0
   26.3670  -19.6924   -8.5350 C   0  0  0  0  0  0  0  0  0  0  0  0
   25.7410  -20.7181   -9.4361 C   0  0  2  0  0  0  0  0  0  0  0  0
   25.7982  -20.4226  -10.8314 N   0  0  0  0  0  0  0  0  0  0  0  0
   24.3224  -20.9024   -9.0901 C   0  0  0  0  0  0  0  0  0  0  0  0
   23.4608  -20.3959   -9.8348 O   0  0  0  0  0  0  0  0  0  0  0  0
   23.9200  -21.6344   -7.9438 N   0  0  0  0  0  0  0  0  0  0  0  0
   22.5356  -21.8609   -7.6604 C   0  0  1  0  0  0  0  0  0  0  0  0
   22.4008  -22.3927   -6.2598 C   0  0  0  0  0  0  0  0  0  0  0  0
   22.8435  -21.1845   -4.9922 S   0  0  0  0  0  0  0  0  0  0  0  0
   21.6815  -20.6627   -7.9066 C   0  0  0  0  0  0  0  0  0  0  0  0
   20.3222  -20.6915   -8.0995 O   0  0  0  0  0  0  0  0  0  0  0  0
   22.2498  -19.5395   -7.9392 O   0  0  0  0  0  0  0  0  0  0  0  0
  2  1  1  1
  2  7  1  0
  3  4  1  0
  3  2  1  0
  4  5  1  0
  5  6  2  0
  7  8  2  0
  9  5  1  0
 10 11  1  0
 11 12  1  0
 12 13  1  0
 14 13  1  1
 14 16  1  0
 15  7  1  0
 15 14  1  0
 16 18  1  0
 16 17  2  0
 18 19  1  0
 19 22  1  0
 19 20  1  1
 21 20  1  0
 22 24  2  0
 22 23  1  0
M  END
$$$$
