EMC.pdb
     RDKit          3D

 24 23  0  0  1  0  0  0  0  0999 V2000
   28.4155  -21.0079  -15.1074 N   0  0  0  0  0  0  0  0  0  0  0  0
   27.8213  -20.0819  -14.1979 C   0  0  1  0  0  0  0  0  0  0  0  0
   27.5133  -18.7594  -14.7715 C   0  0  0  0  0  0  0  0  0  0  0  0
   28.0701  -18.5681  -16.1358 C   0  0  0  0  0  0  0  0  0  0  0  0
   27.3138  -17.7973  -17.0977 C   0  0  0  0  0  0  0  0  0  0  0  0
   27.6886  -17.4883  -18.2322 O   0  0  0  0  0  0  0  0  0  0  0  0
   26.6305  -20.7308  -13.5573 C   0  0  0  0  0  0  0  0  0  0  0  0
   26.0291  -21.6824  -14.1257 O   0  0  0  0  0  0  0  0  0  0  0  0
   26.0384  -17.3597  -16.7100 O   0  0  0  0  0  0  0  0  0  0  0  0
   26.3360  -19.1387   -7.5156 C   0  0  0  0  0  0  0  0  0  0  0  0
   26.1842  -20.9455   -7.5902 S   0  0  0  0  0  0  0  0  0  0  0  0
   26.1681  -21.4898   -9.3529 C   0  0  0  0  0  0  0  0  0  0  0  0
   25.1154  -20.6877  -10.0733 C   0  0  0  0  0  0  0  0  0  0  0  0
   25.0637  -20.9363  -11.5537 C   0  0  2  0  0  0  0  0  0  0  0  0
   26.1128  -20.3345  -12.3117 N   0  0  0  0  0  0  0  0  0  0  0  0
   23.7919  -20.4458  -12.1086 C   0  0  0  0  0  0  0  0  0  0  0  0
   23.6844  -19.2291  -12.3568 O   0  0  0  0  0  0  0  0  0  0  0  0
   22.7013  -21.3158  -12.3643 N   0  0  0  0  0  0  0  0  0  0  0  0
   21.4908  -20.8296  -12.9531 C   0  0  1  0  0  0  0  0  0  0  0  0
   21.3059  -21.4733  -14.3000 C   0  0  0  0  0  0  0  0  0  0  0  0
   21.0266  -23.2554  -14.2068 S   0  0  0  0  0  0  0  0  0  0  0  0
   20.3004  -20.9917  -12.0685 C   0  0  0  0  0  0  0  0  0  0  0  0
   19.0455  -20.5052  -12.3410 O   0  0  0  0  0  0  0  0  0  0  0  0
   20.4579  -21.6234  -10.9906 O   0  0  0  0  0  0  0  0  0  0  0  0
  2  1  1  6
  2  7  1  0
  3  4  1  0
  3  2  1  0
  4  5  1  0
  5  6  2  0
  7  8  2  0
  9  5  1  0
 10 11  1  0
 11 12  1  0
 12 13  1  0
 14 13  1  1
 14 16  1  0
 15  7  1  0
 15 14  1  0
 16 18  1  0
 16 17  2  0
 18 19  1  0
 19 22  1  0
 19 20  1  6
 21 20  1  0
 22 24  2  0
 22 23  1  0
M  END
$$$$
