EMC.pdb
     RDKit          3D

 24 23  0  0  1  0  0  0  0  0999 V2000
   26.3342  -23.3906  -15.5334 N   0  0  0  0  0  0  0  0  0  0  0  0
   26.3148  -22.0760  -14.9773 C   0  0  1  0  0  0  0  0  0  0  0  0
   25.9199  -21.0106  -15.9164 C   0  0  0  0  0  0  0  0  0  0  0  0
   26.8756  -20.8365  -17.0408 C   0  0  0  0  0  0  0  0  0  0  0  0
   27.8371  -19.7580  -16.9801 C   0  0  0  0  0  0  0  0  0  0  0  0
   29.0599  -19.8716  -17.1022 O   0  0  0  0  0  0  0  0  0  0  0  0
   25.4817  -22.0916  -13.7301 C   0  0  0  0  0  0  0  0  0  0  0  0
   24.5060  -22.8822  -13.6144 O   0  0  0  0  0  0  0  0  0  0  0  0
   27.3388  -18.4645  -16.7632 O   0  0  0  0  0  0  0  0  0  0  0  0
   26.4461  -18.9074   -7.9038 C   0  0  0  0  0  0  0  0  0  0  0  0
   27.4720  -20.3570   -8.2774 S   0  0  0  0  0  0  0  0  0  0  0  0
   26.7076  -21.3132   -9.6575 C   0  0  0  0  0  0  0  0  0  0  0  0
   25.6516  -20.4443  -10.2906 C   0  0  0  0  0  0  0  0  0  0  0  0
   24.9417  -21.0889  -11.4466 C   0  0  2  0  0  0  0  0  0  0  0  0
   25.7216  -21.2480  -12.6314 N   0  0  0  0  0  0  0  0  0  0  0  0
   23.7508  -20.3061  -11.8138 C   0  0  0  0  0  0  0  0  0  0  0  0
   23.9149  -19.2183  -12.3997 O   0  0  0  0  0  0  0  0  0  0  0  0
   22.4384  -20.7567  -11.5200 N   0  0  0  0  0  0  0  0  0  0  0  0
   21.2967  -20.1684  -12.1515 C   0  0  1  0  0  0  0  0  0  0  0  0
   21.4909  -20.1956  -13.6428 C   0  0  0  0  0  0  0  0  0  0  0  0
   21.1312  -21.8050  -14.3800 S   0  0  0  0  0  0  0  0  0  0  0  0
   20.0067  -20.7863  -11.7269 C   0  0  0  0  0  0  0  0  0  0  0  0
   19.8918  -21.8989  -10.9305 O   0  0  0  0  0  0  0  0  0  0  0  0
   18.9425  -20.2460  -12.1286 O   0  0  0  0  0  0  0  0  0  0  0  0
  2  1  1  6
  2  7  1  0
  3  4  1  0
  3  2  1  0
  4  5  1  0
  5  6  2  0
  7  8  2  0
  9  5  1  0
 10 11  1  0
 11 12  1  0
 12 13  1  0
 14 13  1  1
 14 16  1  0
 15  7  1  0
 15 14  1  0
 16 18  1  0
 16 17  2  0
 18 19  1  0
 19 22  1  0
 19 20  1  6
 21 20  1  0
 22 24  2  0
 22 23  1  0
M  END
$$$$
