EMC.pdb
     RDKit          3D

 24 23  0  0  1  0  0  0  0  0999 V2000
   22.6431  -13.2089  -18.2633 N   0  0  0  0  0  0  0  0  0  0  0  0
   22.5379  -11.9638  -18.9536 C   0  0  1  0  0  0  0  0  0  0  0  0
   21.1756  -11.6103  -19.3917 C   0  0  0  0  0  0  0  0  0  0  0  0
   20.6037  -12.5763  -20.3652 C   0  0  0  0  0  0  0  0  0  0  0  0
   19.2614  -12.3601  -20.8580 C   0  0  0  0  0  0  0  0  0  0  0  0
   18.5021  -11.4505  -20.5130 O   0  0  0  0  0  0  0  0  0  0  0  0
   23.1779  -10.8938  -18.1197 C   0  0  0  0  0  0  0  0  0  0  0  0
   22.8433  -10.7262  -16.9154 O   0  0  0  0  0  0  0  0  0  0  0  0
   18.7751  -13.2636  -21.8148 O   0  0  0  0  0  0  0  0  0  0  0  0
   29.3711   -5.8264  -17.7581 C   0  0  0  0  0  0  0  0  0  0  0  0
   28.4791   -7.1433  -18.6320 S   0  0  0  0  0  0  0  0  0  0  0  0
   26.9238   -7.5415  -17.7232 C   0  0  0  0  0  0  0  0  0  0  0  0
   26.1724   -8.5723  -18.5254 C   0  0  0  0  0  0  0  0  0  0  0  0
   24.8683   -8.9937  -17.9110 C   0  0  2  0  0  0  0  0  0  0  0  0
   24.1685  -10.0241  -18.6082 N   0  0  0  0  0  0  0  0  0  0  0  0
   23.9568   -7.8426  -17.8104 C   0  0  0  0  0  0  0  0  0  0  0  0
   23.3733   -7.4576  -18.8423 O   0  0  0  0  0  0  0  0  0  0  0  0
   23.7307   -7.1715  -16.5816 N   0  0  0  0  0  0  0  0  0  0  0  0
   22.8980   -6.0092  -16.5169 C   0  0  1  0  0  0  0  0  0  0  0  0
   21.4574   -6.4385  -16.4641 C   0  0  0  0  0  0  0  0  0  0  0  0
   20.3325   -5.1059  -15.9935 S   0  0  0  0  0  0  0  0  0  0  0  0
   23.2649   -5.0844  -15.4051 C   0  0  0  0  0  0  0  0  0  0  0  0
   24.1658   -5.3701  -14.4090 O   0  0  0  0  0  0  0  0  0  0  0  0
   22.7069   -3.9559  -15.3786 O   0  0  0  0  0  0  0  0  0  0  0  0
  2  1  1  1
  2  7  1  0
  3  4  1  0
  3  2  1  0
  4  5  1  0
  5  6  2  0
  7  8  2  0
  9  5  1  0
 10 11  1  0
 11 12  1  0
 12 13  1  0
 14 13  1  6
 14 16  1  0
 15  7  1  0
 15 14  1  0
 16 18  1  0
 16 17  2  0
 18 19  1  0
 19 22  1  0
 19 20  1  1
 21 20  1  0
 22 24  2  0
 22 23  1  0
M  END
$$$$
