EMC.pdb
     RDKit          3D

 24 23  0  0  1  0  0  0  0  0999 V2000
   17.9165  -11.1046  -17.7541 N   0  0  0  0  0  0  0  0  0  0  0  0
   17.4299  -10.2383  -16.7291 C   0  0  1  0  0  0  0  0  0  0  0  0
   16.4256  -10.8397  -15.8334 C   0  0  0  0  0  0  0  0  0  0  0  0
   16.1162  -12.2546  -16.1655 C   0  0  0  0  0  0  0  0  0  0  0  0
   16.9242  -13.3023  -15.5817 C   0  0  0  0  0  0  0  0  0  0  0  0
   17.6028  -13.2054  -14.5554 O   0  0  0  0  0  0  0  0  0  0  0  0
   18.5998   -9.6614  -15.9888 C   0  0  0  0  0  0  0  0  0  0  0  0
   18.4264   -8.8832  -15.0117 O   0  0  0  0  0  0  0  0  0  0  0  0
   16.9406  -14.5422  -16.2381 O   0  0  0  0  0  0  0  0  0  0  0  0
   26.5189  -10.3619  -14.9436 C   0  0  0  0  0  0  0  0  0  0  0  0
   25.0299  -10.8047  -15.8818 S   0  0  0  0  0  0  0  0  0  0  0  0
   23.6017   -9.8050  -15.2780 C   0  0  0  0  0  0  0  0  0  0  0  0
   22.3786  -10.2398  -16.0433 C   0  0  0  0  0  0  0  0  0  0  0  0
   21.1258   -9.5035  -15.6632 C   0  0  2  0  0  0  0  0  0  0  0  0
   19.9370   -9.9385  -16.3228 N   0  0  0  0  0  0  0  0  0  0  0  0
   21.2749   -8.0662  -15.9423 C   0  0  0  0  0  0  0  0  0  0  0  0
   21.1762   -7.6791  -17.1230 O   0  0  0  0  0  0  0  0  0  0  0  0
   21.5244   -7.1250  -14.9111 N   0  0  0  0  0  0  0  0  0  0  0  0
   21.6144   -5.7250  -15.1946 C   0  0  1  0  0  0  0  0  0  0  0  0
   20.2268   -5.1586  -15.3218 C   0  0  0  0  0  0  0  0  0  0  0  0
   20.1787   -3.3565  -15.2095 S   0  0  0  0  0  0  0  0  0  0  0  0
   22.4536   -4.9791  -14.2120 C   0  0  0  0  0  0  0  0  0  0  0  0
   23.2041   -3.8666  -14.5029 O   0  0  0  0  0  0  0  0  0  0  0  0
   22.4746   -5.4011  -13.0258 O   0  0  0  0  0  0  0  0  0  0  0  0
  2  1  1  6
  2  7  1  0
  3  4  1  0
  3  2  1  0
  4  5  1  0
  5  6  2  0
  7  8  2  0
  9  5  1  0
 10 11  1  0
 11 12  1  0
 12 13  1  0
 14 13  1  6
 14 16  1  0
 15  7  1  0
 15 14  1  0
 16 18  1  0
 16 17  2  0
 18 19  1  0
 19 22  1  0
 19 20  1  1
 21 20  1  0
 22 24  2  0
 22 23  1  0
M  END
$$$$
