EMC.pdb
     RDKit          3D

 24 23  0  0  1  0  0  0  0  0999 V2000
   16.7508  -11.1544  -14.4043 N   0  0  0  0  0  0  0  0  0  0  0  0
   17.1224   -9.8904  -13.8546 C   0  0  1  0  0  0  0  0  0  0  0  0
   17.6467   -8.9189  -14.8314 C   0  0  0  0  0  0  0  0  0  0  0  0
   18.9214   -9.3506  -15.4612 C   0  0  0  0  0  0  0  0  0  0  0  0
   20.1706   -8.8848  -14.9011 C   0  0  0  0  0  0  0  0  0  0  0  0
   21.0527   -9.5950  -14.4106 O   0  0  0  0  0  0  0  0  0  0  0  0
   15.9705   -9.3525  -13.0587 C   0  0  0  0  0  0  0  0  0  0  0  0
   14.7811   -9.5519  -13.4273 O   0  0  0  0  0  0  0  0  0  0  0  0
   20.4046   -7.5015  -14.9149 O   0  0  0  0  0  0  0  0  0  0  0  0
   11.5553   -8.7499   -6.9336 C   0  0  0  0  0  0  0  0  0  0  0  0
   12.8152   -9.5059   -7.9987 S   0  0  0  0  0  0  0  0  0  0  0  0
   13.4480   -8.2488   -9.1915 C   0  0  0  0  0  0  0  0  0  0  0  0
   14.5696   -8.8806   -9.9749 C   0  0  0  0  0  0  0  0  0  0  0  0
   15.1233   -8.0062  -11.0635 C   0  0  2  0  0  0  0  0  0  0  0  0
   16.1301   -8.6069  -11.8776 N   0  0  0  0  0  0  0  0  0  0  0  0
   15.7045   -6.7826  -10.4880 C   0  0  0  0  0  0  0  0  0  0  0  0
   16.7619   -6.8798   -9.8353 O   0  0  0  0  0  0  0  0  0  0  0  0
   15.0962   -5.5127  -10.6583 N   0  0  0  0  0  0  0  0  0  0  0  0
   15.6952   -4.3288  -10.1217 C   0  0  1  0  0  0  0  0  0  0  0  0
   15.9003   -3.3348  -11.2319 C   0  0  0  0  0  0  0  0  0  0  0  0
   16.7462   -4.0327  -12.6672 S   0  0  0  0  0  0  0  0  0  0  0  0
   14.9388   -3.7578   -8.9694 C   0  0  0  0  0  0  0  0  0  0  0  0
   15.3834   -2.7384   -8.1640 O   0  0  0  0  0  0  0  0  0  0  0  0
   13.8065   -4.2472   -8.7165 O   0  0  0  0  0  0  0  0  0  0  0  0
  2  1  1  6
  2  7  1  0
  3  4  1  0
  3  2  1  0
  4  5  1  0
  5  6  2  0
  7  8  2  0
  9  5  1  0
 10 11  1  0
 11 12  1  0
 12 13  1  0
 14 13  1  1
 14 16  1  0
 15  7  1  0
 15 14  1  0
 16 18  1  0
 16 17  2  0
 18 19  1  0
 19 22  1  0
 19 20  1  6
 21 20  1  0
 22 24  2  0
 22 23  1  0
M  END
$$$$
