EMC.pdb
     RDKit          3D

 24 23  0  0  1  0  0  0  0  0999 V2000
   25.9465  -18.2286  -13.9102 N   0  0  0  0  0  0  0  0  0  0  0  0
   25.1518  -19.2106  -14.5749 C   0  0  1  0  0  0  0  0  0  0  0  0
   25.8042  -19.8622  -15.7250 C   0  0  0  0  0  0  0  0  0  0  0  0
   26.2815  -18.8992  -16.7511 C   0  0  0  0  0  0  0  0  0  0  0  0
   27.3656  -19.2894  -17.6251 C   0  0  0  0  0  0  0  0  0  0  0  0
   27.2761  -20.0489  -18.5938 O   0  0  0  0  0  0  0  0  0  0  0  0
   24.6469  -20.1916  -13.5588 C   0  0  0  0  0  0  0  0  0  0  0  0
   24.1650  -21.3011  -13.9154 O   0  0  0  0  0  0  0  0  0  0  0  0
   28.6350  -18.7588  -17.3504 O   0  0  0  0  0  0  0  0  0  0  0  0
   28.0551  -20.0735   -7.2609 C   0  0  0  0  0  0  0  0  0  0  0  0
   26.3076  -19.8678   -7.7050 S   0  0  0  0  0  0  0  0  0  0  0  0
   26.0157  -20.5560   -9.3916 C   0  0  0  0  0  0  0  0  0  0  0  0
   24.5634  -20.3418   -9.7317 C   0  0  0  0  0  0  0  0  0  0  0  0
   24.1890  -20.7806  -11.1186 C   0  0  2  0  0  0  0  0  0  0  0  0
   24.6730  -19.9505  -12.1741 N   0  0  0  0  0  0  0  0  0  0  0  0
   22.7250  -20.8452  -11.2548 C   0  0  0  0  0  0  0  0  0  0  0  0
   22.1154  -19.8108  -11.5893 O   0  0  0  0  0  0  0  0  0  0  0  0
   22.0029  -22.0427  -11.0175 N   0  0  0  0  0  0  0  0  0  0  0  0
   20.5718  -22.0570  -11.0292 C   0  0  1  0  0  0  0  0  0  0  0  0
   20.0976  -23.3584  -11.6156 C   0  0  0  0  0  0  0  0  0  0  0  0
   18.3029  -23.5548  -11.5588 S   0  0  0  0  0  0  0  0  0  0  0  0
   19.9703  -21.7735   -9.6936 C   0  0  0  0  0  0  0  0  0  0  0  0
   20.4952  -22.1808   -8.4919 O   0  0  0  0  0  0  0  0  0  0  0  0
   18.9006  -21.1097   -9.6660 O   0  0  0  0  0  0  0  0  0  0  0  0
  2  1  1  1
  2  7  1  0
  3  4  1  0
  3  2  1  0
  4  5  1  0
  5  6  2  0
  7  8  2  0
  9  5  1  0
 10 11  1  0
 11 12  1  0
 12 13  1  0
 14 13  1  1
 14 16  1  0
 15  7  1  0
 15 14  1  0
 16 18  1  0
 16 17  2  0
 18 19  1  0
 19 22  1  0
 19 20  1  1
 21 20  1  0
 22 24  2  0
 22 23  1  0
M  END
$$$$
