EMC.pdb
     RDKit          3D

 24 23  0  0  1  0  0  0  0  0999 V2000
   13.4531  -11.0546  -12.6317 N   0  0  0  0  0  0  0  0  0  0  0  0
   14.8578  -10.8589  -12.7943 C   0  0  1  0  0  0  0  0  0  0  0  0
   15.4224  -11.4171  -14.0362 C   0  0  0  0  0  0  0  0  0  0  0  0
   15.3802  -12.9016  -14.0839 C   0  0  0  0  0  0  0  0  0  0  0  0
   16.6134  -13.6412  -13.9298 C   0  0  0  0  0  0  0  0  0  0  0  0
   17.6819  -13.3916  -14.4947 O   0  0  0  0  0  0  0  0  0  0  0  0
   15.1659   -9.4016  -12.6177 C   0  0  0  0  0  0  0  0  0  0  0  0
   14.6026   -8.5303  -13.3345 O   0  0  0  0  0  0  0  0  0  0  0  0
   16.5978  -14.7423  -13.0604 O   0  0  0  0  0  0  0  0  0  0  0  0
   16.0882   -5.5891   -6.8624 C   0  0  0  0  0  0  0  0  0  0  0  0
   15.2487   -5.0087   -8.3630 S   0  0  0  0  0  0  0  0  0  0  0  0
   16.1894   -5.5654   -9.8492 C   0  0  0  0  0  0  0  0  0  0  0  0
   15.7983   -6.9925  -10.1341 C   0  0  0  0  0  0  0  0  0  0  0  0
   16.4240   -7.5618  -11.3753 C   0  0  2  0  0  0  0  0  0  0  0  0
   16.0808   -8.9162  -11.6670 N   0  0  0  0  0  0  0  0  0  0  0  0
   17.8913   -7.4972  -11.2818 C   0  0  0  0  0  0  0  0  0  0  0  0
   18.4786   -8.3510  -10.5892 O   0  0  0  0  0  0  0  0  0  0  0  0
   18.6414   -6.4986  -11.9540 N   0  0  0  0  0  0  0  0  0  0  0  0
   20.0623   -6.6062  -12.0870 C   0  0  1  0  0  0  0  0  0  0  0  0
   20.3998   -7.9389  -12.6973 C   0  0  0  0  0  0  0  0  0  0  0  0
   22.1714   -8.1768  -12.9569 S   0  0  0  0  0  0  0  0  0  0  0  0
   20.6717   -5.4627  -12.8267 C   0  0  0  0  0  0  0  0  0  0  0  0
   21.9523   -5.0015  -12.6456 O   0  0  0  0  0  0  0  0  0  0  0  0
   19.9579   -4.8766  -13.6826 O   0  0  0  0  0  0  0  0  0  0  0  0
  2  1  1  6
  2  7  1  0
  3  4  1  0
  3  2  1  0
  4  5  1  0
  5  6  2  0
  7  8  2  0
  9  5  1  0
 10 11  1  0
 11 12  1  0
 12 13  1  0
 14 13  1  1
 14 16  1  0
 15  7  1  0
 15 14  1  0
 16 18  1  0
 16 17  2  0
 18 19  1  0
 19 22  1  0
 19 20  1  6
 21 20  1  0
 22 24  2  0
 22 23  1  0
M  END
$$$$
