FRT.pdb
     RDKit          3D

 30 30  0  0  1  0  0  0  0  0999 V2000
   25.4868  -14.2120  -16.6175 N   0  0  0  0  0  0  0  0  0  0  0  0
   24.8942  -13.1684  -15.8347 C   0  0  1  0  0  0  0  0  0  0  0  0
   25.9925  -12.6353  -14.9058 C   0  0  0  0  0  0  0  0  0  0  0  0
   27.1033  -12.0509  -15.7007 C   0  0  0  0  0  0  0  0  0  0  0  0
   27.1915  -10.6915  -15.8631 C   0  0  0  0  0  0  0  0  0  0  0  0
   28.2328  -10.1522  -16.6046 C   0  0  0  0  0  0  0  0  0  0  0  0
   29.1848  -10.9805  -17.1828 C   0  0  0  0  0  0  0  0  0  0  0  0
   29.0816  -12.3316  -17.0106 C   0  0  0  0  0  0  0  0  0  0  0  0
   28.0540  -12.8816  -16.2771 C   0  0  0  0  0  0  0  0  0  0  0  0
   24.3725  -12.0349  -16.6107 C   0  0  0  0  0  0  0  0  0  0  0  0
   24.5736  -11.9313  -17.8415 O   0  0  0  0  0  0  0  0  0  0  0  0
   17.9399  -13.8715  -16.9186 N   0  0  0  0  0  0  0  0  0  0  0  0
   18.7506  -13.4042  -17.9919 C   0  0  0  0  0  0  0  0  0  0  0  0
   18.8704  -14.1384  -19.0315 N   0  0  0  0  0  0  0  0  0  0  0  0
   19.4257  -12.1578  -17.9407 N   0  0  0  0  0  0  0  0  0  0  0  0
   19.3282  -11.2568  -16.8179 C   0  0  0  0  0  0  0  0  0  0  0  0
   20.7259  -11.0428  -16.2832 C   0  0  0  0  0  0  0  0  0  0  0  0
   21.5911  -10.2584  -17.2191 C   0  0  0  0  0  0  0  0  0  0  0  0
   22.9763  -10.0122  -16.7912 C   0  0  2  0  0  0  0  0  0  0  0  0
   23.6202  -11.0075  -16.0029 N   0  0  0  0  0  0  0  0  0  0  0  0
   22.9645   -8.7490  -15.9629 C   0  0  0  0  0  0  0  0  0  0  0  0
   22.8547   -8.7770  -14.7075 O   0  0  0  0  0  0  0  0  0  0  0  0
   19.4294  -13.8956  -19.8522 C   0  0  0  0  0  0  0  0  0  0  0  0
   25.2384   -5.5218  -16.7904 C   0  0  2  0  0  0  0  0  0  0  0  0
   23.8074   -5.1205  -16.4996 O   0  0  0  0  0  0  0  0  0  0  0  0
   23.1121   -5.0176  -17.7131 C   0  0  2  0  0  0  0  0  0  0  0  0
   23.1241   -6.2496  -15.7415 N   0  0  0  0  0  0  0  0  0  0  0  0
   23.0764   -7.4562  -16.5506 C   0  0  0  0  0  0  0  0  0  0  0  0
   21.7791   -5.8967  -15.2821 O   0  0  0  0  0  0  0  0  0  0  0  0
   21.5359   -4.9820  -14.4506 O   0  0  0  0  0  0  0  0  0  0  0  0
  2  1  1  6
  2 10  1  0
  3  2  1  0
  3  4  1  0
  4  9  2  0
  4  5  1  0
  5  6  2  0
  6  7  1  0
  8  7  2  0
  9  8  1  0
 10 20  1  0
 11 10  2  0
 13 12  1  0
 14 13  2  0
 15 13  1  0
 16 15  1  0
 17 16  1  0
 18 17  1  0
 19 18  1  1
 20 19  1  0
 21 19  1  0
 21 22  2  0
 24 23  1  6
 24 25  1  0
 26 27  1  1
 26 24  1  0
 27 21  1  0
 28 26  1  0
 29 28  2  0
 30 28  1  0
M  END
$$$$
