FRT.pdb
     RDKit          3D

 30 30  0  0  1  0  0  0  0  0999 V2000
   18.2496  -18.2322  -15.8103 N   0  0  0  0  0  0  0  0  0  0  0  0
   19.3656  -18.9800  -16.3089 C   0  0  1  0  0  0  0  0  0  0  0  0
   19.7804  -18.3245  -17.6324 C   0  0  0  0  0  0  0  0  0  0  0  0
   18.8590  -18.7343  -18.7234 C   0  0  0  0  0  0  0  0  0  0  0  0
   19.0193  -19.9500  -19.3387 C   0  0  0  0  0  0  0  0  0  0  0  0
   18.1537  -20.3274  -20.3552 C   0  0  0  0  0  0  0  0  0  0  0  0
   17.1272  -19.4818  -20.7526 C   0  0  0  0  0  0  0  0  0  0  0  0
   16.9822  -18.2753  -20.1289 C   0  0  0  0  0  0  0  0  0  0  0  0
   17.8331  -17.8869  -19.1183 C   0  0  0  0  0  0  0  0  0  0  0  0
   20.5411  -18.9963  -15.4275 C   0  0  0  0  0  0  0  0  0  0  0  0
   20.9150  -17.9744  -14.8096 O   0  0  0  0  0  0  0  0  0  0  0  0
   20.6754  -23.3352   -8.7943 N   0  0  0  0  0  0  0  0  0  0  0  0
   20.1556  -23.3995  -10.1184 C   0  0  0  0  0  0  0  0  0  0  0  0
   19.4319  -24.4022  -10.4425 N   0  0  0  0  0  0  0  0  0  0  0  0
   20.4171  -22.3918  -11.0817 N   0  0  0  0  0  0  0  0  0  0  0  0
   21.1773  -21.2013  -10.7872 C   0  0  0  0  0  0  0  0  0  0  0  0
   21.2495  -20.3818  -12.0553 C   0  0  0  0  0  0  0  0  0  0  0  0
   22.2015  -20.9509  -13.0602 C   0  0  0  0  0  0  0  0  0  0  0  0
   22.3820  -20.1908  -14.3060 C   0  0  2  0  0  0  0  0  0  0  0  0
   21.3056  -20.1669  -15.2374 N   0  0  0  0  0  0  0  0  0  0  0  0
   23.5613  -20.7994  -15.0275 C   0  0  0  0  0  0  0  0  0  0  0  0
   23.4790  -21.9087  -15.6203 O   0  0  0  0  0  0  0  0  0  0  0  0
   19.0163  -24.5437  -11.3656 C   0  0  0  0  0  0  0  0  0  0  0  0
   28.2562  -20.4175  -16.6179 C   0  0  2  0  0  0  0  0  0  0  0  0
   27.0449  -19.7231  -16.0316 O   0  0  0  0  0  0  0  0  0  0  0  0
   26.4969  -18.8739  -17.0038 C   0  0  1  0  0  0  0  0  0  0  0  0
   25.9678  -20.7623  -15.7549 N   0  0  0  0  0  0  0  0  0  0  0  0
   24.8317  -20.1570  -15.0798 C   0  0  0  0  0  0  0  0  0  0  0  0
   26.4619  -21.9056  -14.9848 O   0  0  0  0  0  0  0  0  0  0  0  0
   27.3086  -22.7328  -15.4162 O   0  0  0  0  0  0  0  0  0  0  0  0
  2  1  1  1
  2 10  1  0
  3  2  1  0
  3  4  1  0
  4  9  2  0
  4  5  1  0
  5  6  2  0
  6  7  1  0
  8  7  2  0
  9  8  1  0
 10 20  1  0
 11 10  2  0
 13 12  1  0
 14 13  2  0
 15 13  1  0
 16 15  1  0
 17 16  1  0
 18 17  1  0
 19 18  1  1
 20 19  1  0
 21 19  1  0
 21 22  2  0
 24 23  1  1
 24 25  1  0
 26 27  1  1
 26 24  1  0
 27 21  1  0
 28 26  1  0
 29 28  2  0
 30 28  1  0
M  END
$$$$
