FRT.pdb
     RDKit          3D

 30 30  0  0  1  0  0  0  0  0999 V2000
   26.7558  -16.5638  -19.0881 N   0  0  0  0  0  0  0  0  0  0  0  0
   26.6229  -17.4246  -17.9503 C   0  0  1  0  0  0  0  0  0  0  0  0
   26.7171  -16.5308  -16.7071 C   0  0  0  0  0  0  0  0  0  0  0  0
   28.0816  -15.9557  -16.5859 C   0  0  0  0  0  0  0  0  0  0  0  0
   29.1825  -16.7645  -16.7130 C   0  0  0  0  0  0  0  0  0  0  0  0
   30.4539  -16.2205  -16.6011 C   0  0  0  0  0  0  0  0  0  0  0  0
   30.6175  -14.8631  -16.3612 C   0  0  0  0  0  0  0  0  0  0  0  0
   29.5104  -14.0728  -16.2377 C   0  0  0  0  0  0  0  0  0  0  0  0
   28.2421  -14.5981  -16.3466 C   0  0  0  0  0  0  0  0  0  0  0  0
   25.3540  -18.1619  -17.8789 C   0  0  0  0  0  0  0  0  0  0  0  0
   24.2823  -17.6704  -18.2983 O   0  0  0  0  0  0  0  0  0  0  0  0
   25.6671  -23.9159  -15.5251 N   0  0  0  0  0  0  0  0  0  0  0  0
   24.4503  -24.0658  -14.8009 C   0  0  0  0  0  0  0  0  0  0  0  0
   24.5096  -24.2334  -13.5350 N   0  0  0  0  0  0  0  0  0  0  0  0
   23.1837  -24.0364  -15.4387 N   0  0  0  0  0  0  0  0  0  0  0  0
   23.0252  -23.8800  -16.8643 C   0  0  0  0  0  0  0  0  0  0  0  0
   22.8482  -22.4050  -17.1436 C   0  0  0  0  0  0  0  0  0  0  0  0
   24.1289  -21.6375  -17.0410 C   0  0  0  0  0  0  0  0  0  0  0  0
   24.0735  -20.2081  -17.3818 C   0  0  2  0  0  0  0  0  0  0  0  0
   25.2841  -19.4606  -17.3317 N   0  0  0  0  0  0  0  0  0  0  0  0
   23.1256  -19.5571  -16.4023 C   0  0  0  0  0  0  0  0  0  0  0  0
   23.4558  -19.3290  -15.2074 O   0  0  0  0  0  0  0  0  0  0  0  0
   23.6985  -24.3815  -12.9306 C   0  0  0  0  0  0  0  0  0  0  0  0
   18.9304  -18.4348  -17.3120 C   0  0  2  0  0  0  0  0  0  0  0  0
   19.9199  -17.6290  -16.4967 O   0  0  0  0  0  0  0  0  0  0  0  0
   19.2315  -16.9877  -15.4568 C   0  0  1  0  0  0  0  0  0  0  0  0
   20.8843  -18.5845  -15.8085 N   0  0  0  0  0  0  0  0  0  0  0  0
   21.8068  -19.1644  -16.7707 C   0  0  0  0  0  0  0  0  0  0  0  0
   20.2028  -19.6436  -15.0614 O   0  0  0  0  0  0  0  0  0  0  0  0
   20.2563  -20.8655  -15.3637 O   0  0  0  0  0  0  0  0  0  0  0  0
  2  1  1  6
  2 10  1  0
  3  2  1  0
  3  4  1  0
  4  9  2  0
  4  5  1  0
  5  6  2  0
  6  7  1  0
  8  7  2  0
  9  8  1  0
 10 20  1  0
 11 10  2  0
 13 12  1  0
 14 13  2  0
 15 13  1  0
 16 15  1  0
 17 16  1  0
 18 17  1  0
 19 18  1  1
 20 19  1  0
 21 19  1  0
 21 22  2  0
 24 23  1  6
 24 25  1  0
 26 27  1  6
 26 24  1  0
 27 21  1  0
 28 26  1  0
 29 28  2  0
 30 28  1  0
M  END
$$$$
