FRT.pdb
     RDKit          3D

 30 30  0  0  1  0  0  0  0  0999 V2000
   25.1715  -16.5715  -18.4631 N   0  0  0  0  0  0  0  0  0  0  0  0
   24.9422  -16.7966  -17.0667 C   0  0  1  0  0  0  0  0  0  0  0  0
   24.3126  -15.5132  -16.5101 C   0  0  0  0  0  0  0  0  0  0  0  0
   25.3244  -14.4273  -16.4446 C   0  0  0  0  0  0  0  0  0  0  0  0
   25.2949  -13.4038  -17.3577 C   0  0  0  0  0  0  0  0  0  0  0  0
   26.2414  -12.3917  -17.2892 C   0  0  0  0  0  0  0  0  0  0  0  0
   27.2174  -12.4094  -16.3024 C   0  0  0  0  0  0  0  0  0  0  0  0
   27.2316  -13.4360  -15.4014 C   0  0  0  0  0  0  0  0  0  0  0  0
   26.2988  -14.4475  -15.4564 C   0  0  0  0  0  0  0  0  0  0  0  0
   24.0346  -17.9113  -16.7620 C   0  0  0  0  0  0  0  0  0  0  0  0
   23.1794  -18.3080  -17.5850 O   0  0  0  0  0  0  0  0  0  0  0  0
   23.2518  -24.9731  -15.2505 N   0  0  0  0  0  0  0  0  0  0  0  0
   24.5190  -24.5237  -14.7815 C   0  0  0  0  0  0  0  0  0  0  0  0
   25.5748  -25.0304  -15.2942 N   0  0  0  0  0  0  0  0  0  0  0  0
   24.6430  -23.5389  -13.7684 N   0  0  0  0  0  0  0  0  0  0  0  0
   23.5063  -22.9223  -13.1284 C   0  0  0  0  0  0  0  0  0  0  0  0
   22.9070  -21.9420  -14.1107 C   0  0  0  0  0  0  0  0  0  0  0  0
   23.7772  -20.7462  -14.3407 C   0  0  0  0  0  0  0  0  0  0  0  0
   23.2815  -19.7393  -15.2908 C   0  0  2  0  0  0  0  0  0  0  0  0
   24.0841  -18.5869  -15.5243 N   0  0  0  0  0  0  0  0  0  0  0  0
   21.9594  -19.2412  -14.7562 C   0  0  0  0  0  0  0  0  0  0  0  0
   21.8668  -18.6690  -13.6369 O   0  0  0  0  0  0  0  0  0  0  0  0
   26.5226  -24.8727  -14.9452 C   0  0  0  0  0  0  0  0  0  0  0  0
   19.2895  -17.0415  -16.5902 C   0  0  2  0  0  0  0  0  0  0  0  0
   18.6312  -18.3098  -16.0889 O   0  0  0  0  0  0  0  0  0  0  0  0
   18.6619  -19.2688  -17.1117 C   0  0  2  0  0  0  0  0  0  0  0  0
   19.4782  -18.8937  -14.9672 N   0  0  0  0  0  0  0  0  0  0  0  0
   20.7436  -19.3886  -15.4837 C   0  0  0  0  0  0  0  0  0  0  0  0
   18.7896  -19.9498  -14.2224 O   0  0  0  0  0  0  0  0  0  0  0  0
   17.7825  -19.7544  -13.4910 O   0  0  0  0  0  0  0  0  0  0  0  0
  2  1  1  6
  2 10  1  0
  3  2  1  0
  3  4  1  0
  4  9  2  0
  4  5  1  0
  5  6  2  0
  6  7  1  0
  8  7  2  0
  9  8  1  0
 10 20  1  0
 11 10  2  0
 13 12  1  0
 14 13  2  0
 15 13  1  0
 16 15  1  0
 17 16  1  0
 18 17  1  0
 19 18  1  1
 20 19  1  0
 21 19  1  0
 21 22  2  0
 24 23  1  6
 24 25  1  0
 26 27  1  1
 26 24  1  0
 27 21  1  0
 28 26  1  0
 29 28  2  0
 30 28  1  0
M  END
$$$$
