FRT.pdb
     RDKit          3D

 30 30  0  0  1  0  0  0  0  0999 V2000
   19.8638  -20.1235  -12.8579 N   0  0  0  0  0  0  0  0  0  0  0  0
   20.6437  -20.7202  -13.9013 C   0  0  1  0  0  0  0  0  0  0  0  0
   19.7480  -20.7753  -15.1456 C   0  0  0  0  0  0  0  0  0  0  0  0
   18.6166  -21.7131  -14.9270 C   0  0  0  0  0  0  0  0  0  0  0  0
   18.8259  -23.0679  -14.9821 C   0  0  0  0  0  0  0  0  0  0  0  0
   17.7653  -23.9380  -14.7746 C   0  0  0  0  0  0  0  0  0  0  0  0
   16.4946  -23.4452  -14.5119 C   0  0  0  0  0  0  0  0  0  0  0  0
   16.3045  -22.0935  -14.4604 C   0  0  0  0  0  0  0  0  0  0  0  0
   17.3473  -21.2174  -14.6639 C   0  0  0  0  0  0  0  0  0  0  0  0
   21.8640  -19.9836  -14.2582 C   0  0  0  0  0  0  0  0  0  0  0  0
   22.0473  -18.7993  -13.8981 O   0  0  0  0  0  0  0  0  0  0  0  0
   29.0463  -21.0435  -16.9366 N   0  0  0  0  0  0  0  0  0  0  0  0
   28.5185  -21.9545  -15.9780 C   0  0  0  0  0  0  0  0  0  0  0  0
   28.5975  -23.2077  -16.2181 N   0  0  0  0  0  0  0  0  0  0  0  0
   27.9105  -21.5154  -14.7742 N   0  0  0  0  0  0  0  0  0  0  0  0
   27.8147  -20.1240  -14.4042 C   0  0  0  0  0  0  0  0  0  0  0  0
   26.5762  -19.5617  -15.0637 C   0  0  0  0  0  0  0  0  0  0  0  0
   25.3390  -20.3342  -14.7283 C   0  0  0  0  0  0  0  0  0  0  0  0
   24.0813  -19.8631  -15.3271 C   0  0  2  0  0  0  0  0  0  0  0  0
   22.8876  -20.5780  -15.0263 N   0  0  0  0  0  0  0  0  0  0  0  0
   24.2548  -19.9277  -16.8263 C   0  0  0  0  0  0  0  0  0  0  0  0
   23.5860  -20.7224  -17.5403 O   0  0  0  0  0  0  0  0  0  0  0  0
   28.2413  -23.9404  -15.6007 C   0  0  0  0  0  0  0  0  0  0  0  0
   22.6478  -18.9959  -18.8178 C   0  0  2  0  0  0  0  0  0  0  0  0
   23.8218  -18.1977  -19.3446 O   0  0  0  0  0  0  0  0  0  0  0  0
   23.8646  -16.9645  -18.6782 C   0  0  2  0  0  0  0  0  0  0  0  0
   25.1121  -18.9064  -18.9579 N   0  0  0  0  0  0  0  0  0  0  0  0
   25.1819  -19.0967  -17.5185 C   0  0  0  0  0  0  0  0  0  0  0  0
   26.3099  -18.2114  -19.4336 O   0  0  0  0  0  0  0  0  0  0  0  0
   27.1295  -17.6230  -18.6791 O   0  0  0  0  0  0  0  0  0  0  0  0
  2  1  1  1
  2 10  1  0
  3  2  1  0
  3  4  1  0
  4  9  2  0
  4  5  1  0
  5  6  2  0
  6  7  1  0
  8  7  2  0
  9  8  1  0
 10 20  1  0
 11 10  2  0
 13 12  1  0
 14 13  2  0
 15 13  1  0
 16 15  1  0
 17 16  1  0
 18 17  1  0
 19 18  1  1
 20 19  1  0
 21 19  1  0
 21 22  2  0
 24 23  1  6
 24 25  1  0
 26 27  1  6
 26 24  1  0
 27 21  1  0
 28 26  1  0
 29 28  2  0
 30 28  1  0
M  END
$$$$
