FRT.pdb
     RDKit          3D

 30 30  0  0  1  0  0  0  0  0999 V2000
   24.9027  -19.8106   -7.4430 N   0  0  0  0  0  0  0  0  0  0  0  0
   25.9982  -19.9529   -8.3556 C   0  0  1  0  0  0  0  0  0  0  0  0
   26.9424  -21.0006   -7.7520 C   0  0  0  0  0  0  0  0  0  0  0  0
   27.7468  -20.4014   -6.6561 C   0  0  0  0  0  0  0  0  0  0  0  0
   28.6755  -19.4311   -6.9360 C   0  0  0  0  0  0  0  0  0  0  0  0
   29.4215  -18.8740   -5.9075 C   0  0  0  0  0  0  0  0  0  0  0  0
   29.2334  -19.2931   -4.5976 C   0  0  0  0  0  0  0  0  0  0  0  0
   28.3044  -20.2599   -4.3371 C   0  0  0  0  0  0  0  0  0  0  0  0
   27.5561  -20.8221   -5.3473 C   0  0  0  0  0  0  0  0  0  0  0  0
   25.6249  -20.4069   -9.7022 C   0  0  0  0  0  0  0  0  0  0  0  0
   24.4390  -20.3804  -10.1009 O   0  0  0  0  0  0  0  0  0  0  0  0
   28.9301  -21.2796  -18.0416 N   0  0  0  0  0  0  0  0  0  0  0  0
   28.4266  -22.3292  -17.2216 C   0  0  0  0  0  0  0  0  0  0  0  0
   27.9990  -23.3936  -17.7859 N   0  0  0  0  0  0  0  0  0  0  0  0
   28.3845  -22.2282  -15.8074 N   0  0  0  0  0  0  0  0  0  0  0  0
   28.7656  -21.0338  -15.0932 C   0  0  0  0  0  0  0  0  0  0  0  0
   27.5654  -20.5780  -14.2952 C   0  0  0  0  0  0  0  0  0  0  0  0
   27.6759  -20.9108  -12.8402 C   0  0  0  0  0  0  0  0  0  0  0  0
   26.5345  -20.5446  -11.9885 C   0  0  2  0  0  0  0  0  0  0  0  0
   26.5878  -20.8963  -10.6101 N   0  0  0  0  0  0  0  0  0  0  0  0
   25.3178  -21.2330  -12.5610 C   0  0  0  0  0  0  0  0  0  0  0  0
   25.0281  -22.4245  -12.2694 O   0  0  0  0  0  0  0  0  0  0  0  0
   27.6328  -24.2076  -17.2876 C   0  0  0  0  0  0  0  0  0  0  0  0
   20.8767  -20.8158  -14.6848 C   0  0  2  0  0  0  0  0  0  0  0  0
   22.1458  -20.1316  -14.2216 O   0  0  0  0  0  0  0  0  0  0  0  0
   21.8889  -19.4785  -13.0074 C   0  0  1  0  0  0  0  0  0  0  0  0
   23.1855  -21.1933  -13.8926 N   0  0  0  0  0  0  0  0  0  0  0  0
   24.4296  -20.5776  -13.4614 C   0  0  0  0  0  0  0  0  0  0  0  0
   23.4361  -22.1111  -15.0058 O   0  0  0  0  0  0  0  0  0  0  0  0
   24.3294  -21.9351  -15.8766 O   0  0  0  0  0  0  0  0  0  0  0  0
  2  1  1  1
  2 10  1  0
  3  2  1  0
  3  4  1  0
  4  9  2  0
  4  5  1  0
  5  6  2  0
  6  7  1  0
  8  7  2  0
  9  8  1  0
 10 20  1  0
 11 10  2  0
 13 12  1  0
 14 13  2  0
 15 13  1  0
 16 15  1  0
 17 16  1  0
 18 17  1  0
 19 18  1  6
 20 19  1  0
 21 19  1  0
 21 22  2  0
 24 23  1  6
 24 25  1  0
 26 27  1  6
 26 24  1  0
 27 21  1  0
 28 26  1  0
 29 28  2  0
 30 28  1  0
M  END
$$$$
