FRT.pdb
     RDKit          3D

 30 30  0  0  1  0  0  0  0  0999 V2000
   27.3235  -19.0722  -17.5092 N   0  0  0  0  0  0  0  0  0  0  0  0
   27.5223  -18.7278  -16.1327 C   0  0  1  0  0  0  0  0  0  0  0  0
   26.5401  -17.5929  -15.8152 C   0  0  0  0  0  0  0  0  0  0  0  0
   26.9136  -16.3625  -16.5595 C   0  0  0  0  0  0  0  0  0  0  0  0
   27.9499  -15.5795  -16.1176 C   0  0  0  0  0  0  0  0  0  0  0  0
   28.2950  -14.4331  -16.8188 C   0  0  0  0  0  0  0  0  0  0  0  0
   27.5976  -14.0746  -17.9641 C   0  0  0  0  0  0  0  0  0  0  0  0
   26.5689  -14.8661  -18.3898 C   0  0  0  0  0  0  0  0  0  0  0  0
   26.2148  -16.0070  -17.7047 C   0  0  0  0  0  0  0  0  0  0  0  0
   27.2715  -19.8187  -15.1809 C   0  0  0  0  0  0  0  0  0  0  0  0
   26.3214  -20.6191  -15.3319 O   0  0  0  0  0  0  0  0  0  0  0  0
   32.5397  -22.4170   -8.9531 N   0  0  0  0  0  0  0  0  0  0  0  0
   32.0815  -22.6381  -10.2829 C   0  0  0  0  0  0  0  0  0  0  0  0
   32.7571  -23.4152  -11.0405 N   0  0  0  0  0  0  0  0  0  0  0  0
   30.9068  -22.0246  -10.7884 N   0  0  0  0  0  0  0  0  0  0  0  0
   30.1082  -21.1022  -10.0180 C   0  0  0  0  0  0  0  0  0  0  0  0
   29.0013  -20.5984  -10.9159 C   0  0  0  0  0  0  0  0  0  0  0  0
   28.8320  -21.4288  -12.1495 C   0  0  0  0  0  0  0  0  0  0  0  0
   27.7769  -21.0152  -13.0865 C   0  0  2  0  0  0  0  0  0  0  0  0
   28.0910  -20.0144  -14.0490 N   0  0  0  0  0  0  0  0  0  0  0  0
   26.6380  -20.4709  -12.2565 C   0  0  0  0  0  0  0  0  0  0  0  0
   26.7151  -19.3589  -11.6682 O   0  0  0  0  0  0  0  0  0  0  0  0
   32.5524  -23.5855  -12.0275 C   0  0  0  0  0  0  0  0  0  0  0  0
   22.9644  -20.1956  -13.3155 C   0  0  2  0  0  0  0  0  0  0  0  0
   22.9839  -20.9089  -11.9798 O   0  0  0  0  0  0  0  0  0  0  0  0
   22.9540  -22.2926  -12.2067 C   0  0  2  0  0  0  0  0  0  0  0  0
   24.3194  -20.6437  -11.2996 N   0  0  0  0  0  0  0  0  0  0  0  0
   25.4142  -21.1808  -12.0908 C   0  0  0  0  0  0  0  0  0  0  0  0
   24.3788  -21.1689   -9.9340 O   0  0  0  0  0  0  0  0  0  0  0  0
   25.1745  -22.0713   -9.5601 O   0  0  0  0  0  0  0  0  0  0  0  0
  2  1  1  6
  2 10  1  0
  3  2  1  0
  3  4  1  0
  4  9  2  0
  4  5  1  0
  5  6  2  0
  6  7  1  0
  8  7  2  0
  9  8  1  0
 10 20  1  0
 11 10  2  0
 13 12  1  0
 14 13  2  0
 15 13  1  0
 16 15  1  0
 17 16  1  0
 18 17  1  0
 19 18  1  1
 20 19  1  0
 21 19  1  0
 21 22  2  0
 24 23  1  1
 24 25  1  0
 26 27  1  1
 26 24  1  0
 27 21  1  0
 28 26  1  0
 29 28  2  0
 30 28  1  0
M  END
$$$$
