FRT.pdb
     RDKit          3D

 30 30  0  0  1  0  0  0  0  0999 V2000
   27.9837  -20.1687  -10.8208 N   0  0  0  0  0  0  0  0  0  0  0  0
   26.8523  -21.0252  -10.6217 C   0  0  1  0  0  0  0  0  0  0  0  0
   26.0692  -20.4531   -9.4331 C   0  0  0  0  0  0  0  0  0  0  0  0
   26.9433  -20.3586   -8.2354 C   0  0  0  0  0  0  0  0  0  0  0  0
   27.8086  -21.3795   -7.9333 C   0  0  0  0  0  0  0  0  0  0  0  0
   28.6238  -21.2836   -6.8147 C   0  0  0  0  0  0  0  0  0  0  0  0
   28.5682  -20.1610   -6.0003 C   0  0  0  0  0  0  0  0  0  0  0  0
   27.7011  -19.1540   -6.3163 C   0  0  0  0  0  0  0  0  0  0  0  0
   26.8860  -19.2346   -7.4233 C   0  0  0  0  0  0  0  0  0  0  0  0
   25.9341  -21.1110  -11.7656 C   0  0  0  0  0  0  0  0  0  0  0  0
   25.7222  -20.1314  -12.5149 O   0  0  0  0  0  0  0  0  0  0  0  0
   25.4553  -24.8821  -17.7574 N   0  0  0  0  0  0  0  0  0  0  0  0
   25.7041  -25.7669  -16.6698 C   0  0  0  0  0  0  0  0  0  0  0  0
   26.7903  -26.4410  -16.6670 N   0  0  0  0  0  0  0  0  0  0  0  0
   24.7879  -25.9222  -15.5983 N   0  0  0  0  0  0  0  0  0  0  0  0
   23.4666  -25.3424  -15.6038 C   0  0  0  0  0  0  0  0  0  0  0  0
   23.5940  -23.9143  -15.1248 C   0  0  0  0  0  0  0  0  0  0  0  0
   24.3643  -23.7978  -13.8469 C   0  0  0  0  0  0  0  0  0  0  0  0
   24.5427  -22.4436  -13.3023 C   0  0  2  0  0  0  0  0  0  0  0  0
   25.2458  -22.3039  -12.0724 N   0  0  0  0  0  0  0  0  0  0  0  0
   23.1622  -21.8737  -13.0754 C   0  0  0  0  0  0  0  0  0  0  0  0
   22.5046  -22.1187  -12.0284 O   0  0  0  0  0  0  0  0  0  0  0  0
   27.0820  -27.0682  -15.9144 C   0  0  0  0  0  0  0  0  0  0  0  0
   20.9253  -19.8058  -16.1588 C   0  0  2  0  0  0  0  0  0  0  0  0
   20.9350  -19.3043  -14.7299 O   0  0  0  0  0  0  0  0  0  0  0  0
   19.6480  -18.8550  -14.4006 C   0  0  1  0  0  0  0  0  0  0  0  0
   21.1994  -20.4784  -13.7981 N   0  0  0  0  0  0  0  0  0  0  0  0
   22.5249  -21.0286  -14.0287 C   0  0  0  0  0  0  0  0  0  0  0  0
   20.1893  -21.5329  -13.9076 O   0  0  0  0  0  0  0  0  0  0  0  0
   20.3800  -22.6335  -14.4904 O   0  0  0  0  0  0  0  0  0  0  0  0
  2  1  1  6
  2 10  1  0
  3  2  1  0
  3  4  1  0
  4  9  2  0
  4  5  1  0
  5  6  2  0
  6  7  1  0
  8  7  2  0
  9  8  1  0
 10 20  1  0
 11 10  2  0
 13 12  1  0
 14 13  2  0
 15 13  1  0
 16 15  1  0
 17 16  1  0
 18 17  1  0
 19 18  1  1
 20 19  1  0
 21 19  1  0
 21 22  2  0
 24 23  1  6
 24 25  1  0
 26 27  1  1
 26 24  1  0
 27 21  1  0
 28 26  1  0
 29 28  2  0
 30 28  1  0
M  END
$$$$
