FRT.pdb
     RDKit          3D

 30 30  0  0  1  0  0  0  0  0999 V2000
   28.1448  -21.2133  -17.7256 N   0  0  0  0  0  0  0  0  0  0  0  0
   27.8309  -20.2724  -16.6915 C   0  0  1  0  0  0  0  0  0  0  0  0
   27.1254  -19.0907  -17.3691 C   0  0  0  0  0  0  0  0  0  0  0  0
   28.0997  -18.2856  -18.1499 C   0  0  0  0  0  0  0  0  0  0  0  0
   28.0562  -18.2938  -19.5212 C   0  0  0  0  0  0  0  0  0  0  0  0
   28.9676  -17.5377  -20.2441 C   0  0  0  0  0  0  0  0  0  0  0  0
   29.9226  -16.7737  -19.5876 C   0  0  0  0  0  0  0  0  0  0  0  0
   29.9512  -16.7772  -18.2220 C   0  0  0  0  0  0  0  0  0  0  0  0
   29.0531  -17.5222  -17.4907 C   0  0  0  0  0  0  0  0  0  0  0  0
   26.9410  -20.7845  -15.6403 C   0  0  0  0  0  0  0  0  0  0  0  0
   26.1809  -21.7587  -15.8379 O   0  0  0  0  0  0  0  0  0  0  0  0
   26.1544  -20.5916   -6.5601 N   0  0  0  0  0  0  0  0  0  0  0  0
   25.0113  -21.1568   -7.1937 C   0  0  0  0  0  0  0  0  0  0  0  0
   24.0849  -21.6444   -6.4601 N   0  0  0  0  0  0  0  0  0  0  0  0
   24.8725  -21.1958   -8.6047 N   0  0  0  0  0  0  0  0  0  0  0  0
   25.8128  -20.5727   -9.5044 C   0  0  0  0  0  0  0  0  0  0  0  0
   25.4034  -20.9354  -10.9137 C   0  0  0  0  0  0  0  0  0  0  0  0
   26.3426  -20.3971  -11.9472 C   0  0  0  0  0  0  0  0  0  0  0  0
   26.0336  -20.7106  -13.3502 C   0  0  2  0  0  0  0  0  0  0  0  0
   26.9008  -20.1995  -14.3569 N   0  0  0  0  0  0  0  0  0  0  0  0
   24.6622  -20.1458  -13.6370 C   0  0  0  0  0  0  0  0  0  0  0  0
   24.4291  -18.9079  -13.5914 O   0  0  0  0  0  0  0  0  0  0  0  0
   23.2319  -22.0809   -6.8162 C   0  0  0  0  0  0  0  0  0  0  0  0
   22.7343  -20.2747  -16.6934 C   0  0  2  0  0  0  0  0  0  0  0  0
   21.7870  -20.8520  -15.6625 O   0  0  0  0  0  0  0  0  0  0  0  0
   21.9054  -22.2493  -15.6733 C   0  0  2  0  0  0  0  0  0  0  0  0
   22.2464  -20.4222  -14.2766 N   0  0  0  0  0  0  0  0  0  0  0  0
   23.5557  -20.9768  -13.9747 C   0  0  0  0  0  0  0  0  0  0  0  0
   21.2930  -20.7773  -13.2234 O   0  0  0  0  0  0  0  0  0  0  0  0
   21.4953  -21.6756  -12.3635 O   0  0  0  0  0  0  0  0  0  0  0  0
  2  1  1  6
  2 10  1  0
  3  2  1  0
  3  4  1  0
  4  9  2  0
  4  5  1  0
  5  6  2  0
  6  7  1  0
  8  7  2  0
  9  8  1  0
 10 20  1  0
 11 10  2  0
 13 12  1  0
 14 13  2  0
 15 13  1  0
 16 15  1  0
 17 16  1  0
 18 17  1  0
 19 18  1  1
 20 19  1  0
 21 19  1  0
 21 22  2  0
 24 23  1  6
 24 25  1  0
 26 27  1  1
 26 24  1  0
 27 21  1  0
 28 26  1  0
 29 28  2  0
 30 28  1  0
M  END
$$$$
