FRT.pdb
     RDKit          3D

 30 30  0  0  1  0  0  0  0  0999 V2000
   28.4250  -18.7526  -17.3724 N   0  0  0  0  0  0  0  0  0  0  0  0
   27.3365  -18.4736  -16.4833 C   0  0  1  0  0  0  0  0  0  0  0  0
   26.4891  -17.3832  -17.1513 C   0  0  0  0  0  0  0  0  0  0  0  0
   27.1201  -16.0512  -16.9648 C   0  0  0  0  0  0  0  0  0  0  0  0
   26.9096  -15.3466  -15.8065 C   0  0  0  0  0  0  0  0  0  0  0  0
   27.5039  -14.1043  -15.6379 C   0  0  0  0  0  0  0  0  0  0  0  0
   28.3097  -13.5710  -16.6344 C   0  0  0  0  0  0  0  0  0  0  0  0
   28.5085  -14.2864  -17.7809 C   0  0  0  0  0  0  0  0  0  0  0  0
   27.9257  -15.5207  -17.9627 C   0  0  0  0  0  0  0  0  0  0  0  0
   26.4581  -19.6181  -16.2048 C   0  0  0  0  0  0  0  0  0  0  0  0
   26.5241  -20.6761  -16.8698 O   0  0  0  0  0  0  0  0  0  0  0  0
   25.4745  -21.6582   -8.3711 N   0  0  0  0  0  0  0  0  0  0  0  0
   24.5161  -21.2536   -9.3434 C   0  0  0  0  0  0  0  0  0  0  0  0
   23.3089  -21.0627   -8.9686 N   0  0  0  0  0  0  0  0  0  0  0  0
   24.8589  -21.0594  -10.7059 N   0  0  0  0  0  0  0  0  0  0  0  0
   26.1647  -21.3642  -11.2389 C   0  0  0  0  0  0  0  0  0  0  0  0
   26.1808  -20.9226  -12.6845 C   0  0  0  0  0  0  0  0  0  0  0  0
   24.8853  -21.1863  -13.3860 C   0  0  0  0  0  0  0  0  0  0  0  0
   24.7909  -20.7520  -14.7877 C   0  0  2  0  0  0  0  0  0  0  0  0
   25.4961  -19.5770  -15.1733 N   0  0  0  0  0  0  0  0  0  0  0  0
   23.3305  -20.4893  -15.0709 C   0  0  0  0  0  0  0  0  0  0  0  0
   22.7464  -19.4544  -14.6507 O   0  0  0  0  0  0  0  0  0  0  0  0
   22.5451  -20.7872   -9.5896 C   0  0  0  0  0  0  0  0  0  0  0  0
   21.4613  -21.2051  -18.5751 C   0  0  2  0  0  0  0  0  0  0  0  0
   20.7113  -21.8159  -17.4098 O   0  0  0  0  0  0  0  0  0  0  0  0
   21.1248  -23.1469  -17.2549 C   0  0  2  0  0  0  0  0  0  0  0  0
   21.1364  -21.1131  -16.1284 N   0  0  0  0  0  0  0  0  0  0  0  0
   22.5305  -21.3933  -15.8273 C   0  0  0  0  0  0  0  0  0  0  0  0
   20.2934  -21.4579  -14.9817 O   0  0  0  0  0  0  0  0  0  0  0  0
   19.0927  -21.0976  -14.8563 O   0  0  0  0  0  0  0  0  0  0  0  0
  2  1  1  6
  2 10  1  0
  3  2  1  0
  3  4  1  0
  4  9  2  0
  4  5  1  0
  5  6  2  0
  6  7  1  0
  8  7  2  0
  9  8  1  0
 10 20  1  0
 11 10  2  0
 13 12  1  0
 14 13  2  0
 15 13  1  0
 16 15  1  0
 17 16  1  0
 18 17  1  0
 19 18  1  1
 20 19  1  0
 21 19  1  0
 21 22  2  0
 24 23  1  6
 24 25  1  0
 26 27  1  1
 26 24  1  0
 27 21  1  0
 28 26  1  0
 29 28  2  0
 30 28  1  0
M  END
$$$$
