FRT.pdb
     RDKit          3D

 30 30  0  0  1  0  0  0  0  0999 V2000
   27.0716  -22.6521  -11.9369 N   0  0  0  0  0  0  0  0  0  0  0  0
   26.1016  -21.7857  -11.3355 C   0  0  1  0  0  0  0  0  0  0  0  0
   26.8199  -20.4661  -11.0259 C   0  0  0  0  0  0  0  0  0  0  0  0
   27.4912  -20.5409   -9.7027 C   0  0  0  0  0  0  0  0  0  0  0  0
   28.7959  -20.9563   -9.6160 C   0  0  0  0  0  0  0  0  0  0  0  0
   29.4175  -21.0215   -8.3773 C   0  0  0  0  0  0  0  0  0  0  0  0
   28.7265  -20.6691   -7.2262 C   0  0  0  0  0  0  0  0  0  0  0  0
   27.4283  -20.2576   -7.3311 C   0  0  0  0  0  0  0  0  0  0  0  0
   26.7980  -20.1873   -8.5535 C   0  0  0  0  0  0  0  0  0  0  0  0
   24.9403  -21.4778  -12.1814 C   0  0  0  0  0  0  0  0  0  0  0  0
   24.9495  -21.6890  -13.4148 O   0  0  0  0  0  0  0  0  0  0  0  0
   17.8502  -24.2313  -11.6071 N   0  0  0  0  0  0  0  0  0  0  0  0
   18.4827  -23.9240  -10.3689 C   0  0  0  0  0  0  0  0  0  0  0  0
   18.6161  -24.8553   -9.5034 N   0  0  0  0  0  0  0  0  0  0  0  0
   18.9639  -22.6238  -10.0693 N   0  0  0  0  0  0  0  0  0  0  0  0
   18.8519  -21.5141  -10.9848 C   0  0  0  0  0  0  0  0  0  0  0  0
   20.0064  -21.6069  -11.9561 C   0  0  0  0  0  0  0  0  0  0  0  0
   21.3242  -21.2871  -11.3228 C   0  0  0  0  0  0  0  0  0  0  0  0
   22.4897  -21.2197  -12.2169 C   0  0  2  0  0  0  0  0  0  0  0  0
   23.7586  -20.9271  -11.6417 N   0  0  0  0  0  0  0  0  0  0  0  0
   22.2116  -20.1276  -13.2229 C   0  0  0  0  0  0  0  0  0  0  0  0
   22.1251  -18.9166  -12.8841 O   0  0  0  0  0  0  0  0  0  0  0  0
   18.9822  -24.7213   -8.5584 C   0  0  0  0  0  0  0  0  0  0  0  0
   21.8118  -18.6321  -17.9251 C   0  0  2  0  0  0  0  0  0  0  0  0
   22.1437  -19.7578  -16.9681 O   0  0  0  0  0  0  0  0  0  0  0  0
   23.5373  -19.9030  -16.9081 C   0  0  1  0  0  0  0  0  0  0  0  0
   21.7231  -19.3497  -15.5634 N   0  0  0  0  0  0  0  0  0  0  0  0
   22.0313  -20.4019  -14.6090 C   0  0  0  0  0  0  0  0  0  0  0  0
   20.3073  -18.9866  -15.4742 O   0  0  0  0  0  0  0  0  0  0  0  0
   19.3711  -19.8224  -15.3636 O   0  0  0  0  0  0  0  0  0  0  0  0
  2  1  1  6
  2 10  1  0
  3  2  1  0
  3  4  1  0
  4  9  2  0
  4  5  1  0
  5  6  2  0
  6  7  1  0
  8  7  2  0
  9  8  1  0
 10 20  1  0
 11 10  2  0
 13 12  1  0
 14 13  2  0
 15 13  1  0
 16 15  1  0
 17 16  1  0
 18 17  1  0
 19 18  1  1
 20 19  1  0
 21 19  1  0
 21 22  2  0
 24 23  1  6
 24 25  1  0
 26 27  1  6
 26 24  1  0
 27 21  1  0
 28 26  1  0
 29 28  2  0
 30 28  1  0
M  END
$$$$
