FRT.pdb
     RDKit          3D

 30 30  0  0  1  0  0  0  0  0999 V2000
   26.6667  -18.3853   -8.3971 N   0  0  0  0  0  0  0  0  0  0  0  0
   26.9673  -19.6853   -8.9196 C   0  0  1  0  0  0  0  0  0  0  0  0
   26.5364  -20.7002   -7.8530 C   0  0  0  0  0  0  0  0  0  0  0  0
   27.3475  -20.5302   -6.6199 C   0  0  0  0  0  0  0  0  0  0  0  0
   28.6900  -20.8125   -6.6355 C   0  0  0  0  0  0  0  0  0  0  0  0
   29.4420  -20.6492   -5.4811 C   0  0  0  0  0  0  0  0  0  0  0  0
   28.8434  -20.2022   -4.3112 C   0  0  0  0  0  0  0  0  0  0  0  0
   27.5057  -19.9257   -4.3139 C   0  0  0  0  0  0  0  0  0  0  0  0
   26.7463  -20.0826   -5.4518 C   0  0  0  0  0  0  0  0  0  0  0  0
   26.2727  -20.0241  -10.1692 C   0  0  0  0  0  0  0  0  0  0  0  0
   25.1189  -19.6067  -10.4154 O   0  0  0  0  0  0  0  0  0  0  0  0
   27.4859  -20.2570  -18.2161 N   0  0  0  0  0  0  0  0  0  0  0  0
   28.6138  -20.2433  -17.3472 C   0  0  0  0  0  0  0  0  0  0  0  0
   29.5793  -19.4483  -17.6120 N   0  0  0  0  0  0  0  0  0  0  0  0
   28.6975  -21.0811  -16.2058 N   0  0  0  0  0  0  0  0  0  0  0  0
   27.7154  -22.0929  -15.8999 C   0  0  0  0  0  0  0  0  0  0  0  0
   26.7387  -21.4957  -14.9128 C   0  0  0  0  0  0  0  0  0  0  0  0
   27.3131  -21.3617  -13.5373 C   0  0  0  0  0  0  0  0  0  0  0  0
   26.4325  -20.7967  -12.5040 C   0  0  2  0  0  0  0  0  0  0  0  0
   26.8747  -20.8388  -11.1515 N   0  0  0  0  0  0  0  0  0  0  0  0
   25.1366  -21.5710  -12.5568 C   0  0  0  0  0  0  0  0  0  0  0  0
   25.0652  -22.7754  -12.1922 O   0  0  0  0  0  0  0  0  0  0  0  0
   30.4670  -19.4246  -17.1056 C   0  0  0  0  0  0  0  0  0  0  0  0
   21.3619  -20.5383  -11.5332 C   0  0  2  0  0  0  0  0  0  0  0  0
   21.4764  -20.9060  -12.9978 O   0  0  0  0  0  0  0  0  0  0  0  0
   21.7232  -19.7406  -13.7377 C   0  0  2  0  0  0  0  0  0  0  0  0
   22.7123  -21.7728  -13.1924 N   0  0  0  0  0  0  0  0  0  0  0  0
   23.9229  -20.9868  -13.0206 C   0  0  0  0  0  0  0  0  0  0  0  0
   22.7331  -22.4547  -14.4881 O   0  0  0  0  0  0  0  0  0  0  0  0
   23.4520  -22.0994  -15.4599 O   0  0  0  0  0  0  0  0  0  0  0  0
  2  1  1  1
  2 10  1  0
  3  2  1  0
  3  4  1  0
  4  9  2  0
  4  5  1  0
  5  6  2  0
  6  7  1  0
  8  7  2  0
  9  8  1  0
 10 20  1  0
 11 10  2  0
 13 12  1  0
 14 13  2  0
 15 13  1  0
 16 15  1  0
 17 16  1  0
 18 17  1  0
 19 18  1  6
 20 19  1  0
 21 19  1  0
 21 22  2  0
 24 23  1  6
 24 25  1  0
 26 27  1  6
 26 24  1  0
 27 21  1  0
 28 26  1  0
 29 28  2  0
 30 28  1  0
M  END
$$$$
