FRT.pdb
     RDKit          3D

 30 30  0  0  1  0  0  0  0  0999 V2000
   21.1487  -16.2213  -18.4898 N   0  0  0  0  0  0  0  0  0  0  0  0
   20.8929  -14.8547  -18.8367 C   0  0  1  0  0  0  0  0  0  0  0  0
   19.6418  -14.8514  -19.7246 C   0  0  0  0  0  0  0  0  0  0  0  0
   19.9618  -15.3922  -21.0708 C   0  0  0  0  0  0  0  0  0  0  0  0
   19.6171  -16.6801  -21.3943 C   0  0  0  0  0  0  0  0  0  0  0  0
   19.9168  -17.1779  -22.6542 C   0  0  0  0  0  0  0  0  0  0  0  0
   20.5633  -16.3802  -23.5883 C   0  0  0  0  0  0  0  0  0  0  0  0
   20.8988  -15.1002  -23.2492 C   0  0  0  0  0  0  0  0  0  0  0  0
   20.6078  -14.5920  -22.0029 C   0  0  0  0  0  0  0  0  0  0  0  0
   20.6365  -13.9656  -17.6953 C   0  0  0  0  0  0  0  0  0  0  0  0
   20.4324  -14.4133  -16.5447 O   0  0  0  0  0  0  0  0  0  0  0  0
   22.8015   -5.6059  -14.9687 N   0  0  0  0  0  0  0  0  0  0  0  0
   21.7580   -6.1667  -14.1787 C   0  0  0  0  0  0  0  0  0  0  0  0
   21.2841   -5.4757  -13.2132 N   0  0  0  0  0  0  0  0  0  0  0  0
   21.2342   -7.4609  -14.4288 N   0  0  0  0  0  0  0  0  0  0  0  0
   21.6923   -8.2986  -15.5106 C   0  0  0  0  0  0  0  0  0  0  0  0
   20.8804   -9.5732  -15.4748 C   0  0  0  0  0  0  0  0  0  0  0  0
   21.2153  -10.5059  -16.5963 C   0  0  0  0  0  0  0  0  0  0  0  0
   20.3888  -11.7157  -16.7207 C   0  0  2  0  0  0  0  0  0  0  0  0
   20.6069  -12.5628  -17.8439 N   0  0  0  0  0  0  0  0  0  0  0  0
   18.9502  -11.2615  -16.7978 C   0  0  0  0  0  0  0  0  0  0  0  0
   18.5165  -10.5858  -17.7694 O   0  0  0  0  0  0  0  0  0  0  0  0
   20.5398   -5.7887  -12.5862 C   0  0  0  0  0  0  0  0  0  0  0  0
   15.8767  -13.4932  -16.4323 C   0  0  2  0  0  0  0  0  0  0  0  0
   15.7004  -12.3404  -15.4662 O   0  0  0  0  0  0  0  0  0  0  0  0
   16.1771  -12.7305  -14.2063 C   0  0  2  0  0  0  0  0  0  0  0  0
   16.6033  -11.1938  -15.8982 N   0  0  0  0  0  0  0  0  0  0  0  0
   18.0025  -11.5694  -15.7798 C   0  0  0  0  0  0  0  0  0  0  0  0
   16.3487   -9.9564  -15.1576 O   0  0  0  0  0  0  0  0  0  0  0  0
   17.1919   -9.3994  -14.4053 O   0  0  0  0  0  0  0  0  0  0  0  0
  2  1  1  1
  2 10  1  0
  3  2  1  0
  3  4  1  0
  4  9  2  0
  4  5  1  0
  5  6  2  0
  6  7  1  0
  8  7  2  0
  9  8  1  0
 10 20  1  0
 11 10  2  0
 13 12  1  0
 14 13  2  0
 15 13  1  0
 16 15  1  0
 17 16  1  0
 18 17  1  0
 19 18  1  6
 20 19  1  0
 21 19  1  0
 21 22  2  0
 24 23  1  1
 24 25  1  0
 26 27  1  6
 26 24  1  0
 27 21  1  0
 28 26  1  0
 29 28  2  0
 30 28  1  0
M  END
$$$$
