FRT.pdb
     RDKit          3D

 30 30  0  0  1  0  0  0  0  0999 V2000
   27.2429  -18.3807   -7.7828 N   0  0  0  0  0  0  0  0  0  0  0  0
   27.0045  -19.7300   -8.2018 C   0  0  1  0  0  0  0  0  0  0  0  0
   26.4921  -20.4903   -6.9718 C   0  0  0  0  0  0  0  0  0  0  0  0
   27.3946  -20.2668   -5.8129 C   0  0  0  0  0  0  0  0  0  0  0  0
   28.6765  -19.8218   -6.0154 C   0  0  0  0  0  0  0  0  0  0  0  0
   29.5131  -19.6129   -4.9285 C   0  0  0  0  0  0  0  0  0  0  0  0
   29.0603  -19.8519   -3.6384 C   0  0  0  0  0  0  0  0  0  0  0  0
   27.7810  -20.2945   -3.4553 C   0  0  0  0  0  0  0  0  0  0  0  0
   26.9388  -20.5061   -4.5240 C   0  0  0  0  0  0  0  0  0  0  0  0
   26.0060  -19.8776   -9.2696 C   0  0  0  0  0  0  0  0  0  0  0  0
   25.0448  -19.0849   -9.3865 O   0  0  0  0  0  0  0  0  0  0  0  0
   27.0458  -20.9030  -17.4088 N   0  0  0  0  0  0  0  0  0  0  0  0
   27.8303  -19.8236  -16.9120 C   0  0  0  0  0  0  0  0  0  0  0  0
   27.9796  -18.7881  -17.6467 N   0  0  0  0  0  0  0  0  0  0  0  0
   28.4480  -19.8642  -15.6358 N   0  0  0  0  0  0  0  0  0  0  0  0
   28.2550  -20.9484  -14.7035 C   0  0  0  0  0  0  0  0  0  0  0  0
   26.9951  -20.6569  -13.9207 C   0  0  0  0  0  0  0  0  0  0  0  0
   27.1445  -20.9335  -12.4574 C   0  0  0  0  0  0  0  0  0  0  0  0
   25.9769  -20.6546  -11.6082 C   0  0  2  0  0  0  0  0  0  0  0  0
   26.0837  -20.9229  -10.2141 N   0  0  0  0  0  0  0  0  0  0  0  0
   24.8419  -21.5074  -12.1243 C   0  0  0  0  0  0  0  0  0  0  0  0
   24.8822  -22.7665  -12.0813 O   0  0  0  0  0  0  0  0  0  0  0  0
   28.4770  -17.9416  -17.3623 C   0  0  0  0  0  0  0  0  0  0  0  0
   21.1085  -20.9178  -11.1672 C   0  0  2  0  0  0  0  0  0  0  0  0
   21.2168  -21.0264  -12.6738 O   0  0  0  0  0  0  0  0  0  0  0  0
   21.3635  -19.7387  -13.2096 C   0  0  2  0  0  0  0  0  0  0  0  0
   22.5068  -21.7546  -13.0233 N   0  0  0  0  0  0  0  0  0  0  0  0
   23.6632  -20.9401  -12.6882 C   0  0  0  0  0  0  0  0  0  0  0  0
   22.5684  -22.1647  -14.4276 O   0  0  0  0  0  0  0  0  0  0  0  0
   23.3913  -21.7013  -15.2616 O   0  0  0  0  0  0  0  0  0  0  0  0
  2  1  1  1
  2 10  1  0
  3  2  1  0
  3  4  1  0
  4  9  2  0
  4  5  1  0
  5  6  2  0
  6  7  1  0
  8  7  2  0
  9  8  1  0
 10 20  1  0
 11 10  2  0
 13 12  1  0
 14 13  2  0
 15 13  1  0
 16 15  1  0
 17 16  1  0
 18 17  1  0
 19 18  1  6
 20 19  1  0
 21 19  1  0
 21 22  2  0
 24 23  1  6
 24 25  1  0
 26 27  1  6
 26 24  1  0
 27 21  1  0
 28 26  1  0
 29 28  2  0
 30 28  1  0
M  END
$$$$
