SGG.pdb
     RDKit          3D

 15 14  0  0  1  0  0  0  0  0999 V2000
    2.2156  -18.9811   22.3736 O   0  0  0  0  0  0  0  0  0  0  0  0
    3.5708  -18.7190   22.4341 C   0  0  0  0  0  0  0  0  0  0  0  0
    4.1524  -18.5083   21.0434 C   0  0  2  0  0  0  0  0  0  0  0  0
    4.3448  -19.7811   20.3909 N   0  0  0  0  0  0  0  0  0  0  0  0
    5.3819  -17.6971   21.0836 C   0  0  0  0  0  0  0  0  0  0  0  0
    6.5015  -18.2681   21.0657 O   0  0  0  0  0  0  0  0  0  0  0  0
    5.3897  -16.2701   21.1431 N   0  0  0  0  0  0  0  0  0  0  0  0
    6.6261  -15.5249   21.2180 C   0  0  0  0  0  0  0  0  0  0  0  0
    7.2713  -15.7199   22.5525 C   0  0  0  0  0  0  0  0  0  0  0  0
    6.6217  -15.8372   23.6174 O   0  0  0  0  0  0  0  0  0  0  0  0
    8.6868  -15.7763   22.6290 N   0  0  0  0  0  0  0  0  0  0  0  0
    9.3234  -15.9650   23.9128 C   0  0  0  0  0  0  0  0  0  0  0  0
   10.7931  -15.8106   23.8004 C   0  0  0  0  0  0  0  0  0  0  0  0
   11.6646  -15.9104   24.8704 O   0  0  0  0  0  0  0  0  0  0  0  0
   11.2774  -15.5751   22.6675 O   0  0  0  0  0  0  0  0  0  0  0  0
  2  1  1  0
  3  4  1  1
  3  2  1  0
  5  3  1  0
  6  5  2  0
  7  5  1  0
  8  7  1  0
  9 11  1  0
  9  8  1  0
 10  9  2  0
 12 13  1  0
 12 11  1  0
 13 14  1  0
 15 13  2  0
M  END
$$$$
