SGG.pdb
     RDKit          3D

 15 14  0  0  1  0  0  0  0  0999 V2000
    5.0493  -22.7794   26.2700 O   0  0  0  0  0  0  0  0  0  0  0  0
    6.3251  -22.4518   25.8533 C   0  0  0  0  0  0  0  0  0  0  0  0
    7.3679  -22.9125   26.8619 C   0  0  2  0  0  0  0  0  0  0  0  0
    6.7555  -23.0958   28.1558 N   0  0  0  0  0  0  0  0  0  0  0  0
    8.5259  -22.0023   26.9034 C   0  0  0  0  0  0  0  0  0  0  0  0
    8.8465  -21.3604   25.8713 O   0  0  0  0  0  0  0  0  0  0  0  0
    9.3301  -21.7934   28.0652 N   0  0  0  0  0  0  0  0  0  0  0  0
    9.8977  -20.4988   28.3669 C   0  0  0  0  0  0  0  0  0  0  0  0
   10.5276  -20.5097   29.7228 C   0  0  0  0  0  0  0  0  0  0  0  0
   11.1372  -19.5263   30.2034 O   0  0  0  0  0  0  0  0  0  0  0  0
   10.4371  -21.6849   30.5123 N   0  0  0  0  0  0  0  0  0  0  0  0
   11.0674  -21.7194   31.8125 C   0  0  0  0  0  0  0  0  0  0  0  0
   12.5398  -21.8257   31.6821 C   0  0  0  0  0  0  0  0  0  0  0  0
   13.2128  -21.7927   30.4735 O   0  0  0  0  0  0  0  0  0  0  0  0
   13.2181  -21.9534   32.7295 O   0  0  0  0  0  0  0  0  0  0  0  0
  2  1  1  0
  3  4  1  1
  3  2  1  0
  5  3  1  0
  6  5  2  0
  7  5  1  0
  8  7  1  0
  9 11  1  0
  9  8  1  0
 10  9  2  0
 12 13  1  0
 12 11  1  0
 13 14  1  0
 15 13  2  0
M  END
$$$$
