SGG.pdb
     RDKit          3D

 15 14  0  0  1  0  0  0  0  0999 V2000
    8.2311  -17.1001   14.9357 O   0  0  0  0  0  0  0  0  0  0  0  0
    9.2782  -16.5565   14.2168 C   0  0  0  0  0  0  0  0  0  0  0  0
   10.5571  -16.5319   15.0419 C   0  0  2  0  0  0  0  0  0  0  0  0
   10.8374  -17.8507   15.5568 N   0  0  0  0  0  0  0  0  0  0  0  0
   10.5044  -15.5068   16.0990 C   0  0  0  0  0  0  0  0  0  0  0  0
   10.3947  -14.2954   15.7822 O   0  0  0  0  0  0  0  0  0  0  0  0
   10.5711  -15.8020   17.4949 N   0  0  0  0  0  0  0  0  0  0  0  0
   10.4903  -14.7580   18.4914 C   0  0  0  0  0  0  0  0  0  0  0  0
   11.5359  -14.9582   19.5411 C   0  0  0  0  0  0  0  0  0  0  0  0
   11.5929  -15.9784   20.2661 O   0  0  0  0  0  0  0  0  0  0  0  0
   12.5162  -13.9510   19.7344 N   0  0  0  0  0  0  0  0  0  0  0  0
   13.8802  -14.1972   19.3247 C   0  0  0  0  0  0  0  0  0  0  0  0
   14.5395  -15.1602   20.2382 C   0  0  0  0  0  0  0  0  0  0  0  0
   14.9119  -16.4415   19.8721 O   0  0  0  0  0  0  0  0  0  0  0  0
   14.7747  -14.7928   21.4142 O   0  0  0  0  0  0  0  0  0  0  0  0
  2  1  1  0
  3  4  1  1
  3  2  1  0
  5  3  1  0
  6  5  2  0
  7  5  1  0
  8  7  1  0
  9 11  1  0
  9  8  1  0
 10  9  2  0
 12 13  1  0
 12 11  1  0
 13 14  1  0
 15 13  2  0
M  END
$$$$
