SGG.pdb
     RDKit          3D

 15 14  0  0  1  0  0  0  0  0999 V2000
    7.1768  -12.8789   16.6723 O   0  0  0  0  0  0  0  0  0  0  0  0
    7.1532  -12.7217   18.0447 C   0  0  0  0  0  0  0  0  0  0  0  0
    8.3913  -13.3292   18.6888 C   0  0  2  0  0  0  0  0  0  0  0  0
    8.6306  -14.6472   18.1517 N   0  0  0  0  0  0  0  0  0  0  0  0
    8.3007  -13.3210   20.1594 C   0  0  0  0  0  0  0  0  0  0  0  0
    8.0771  -12.2398   20.7602 O   0  0  0  0  0  0  0  0  0  0  0  0
    8.4532  -14.4867   20.9706 N   0  0  0  0  0  0  0  0  0  0  0  0
    8.2948  -14.4326   22.4063 C   0  0  0  0  0  0  0  0  0  0  0  0
    8.5283  -15.7817   23.0070 C   0  0  0  0  0  0  0  0  0  0  0  0
    7.7037  -16.7212   22.9236 O   0  0  0  0  0  0  0  0  0  0  0  0
    9.7385  -16.0211   23.7075 N   0  0  0  0  0  0  0  0  0  0  0  0
   10.0624  -17.3647   24.1306 C   0  0  0  0  0  0  0  0  0  0  0  0
   11.2823  -17.3728   24.9722 C   0  0  0  0  0  0  0  0  0  0  0  0
   11.9084  -16.2295   25.4363 O   0  0  0  0  0  0  0  0  0  0  0  0
   11.7780  -18.4823   25.2832 O   0  0  0  0  0  0  0  0  0  0  0  0
  2  1  1  0
  3  4  1  6
  3  2  1  0
  5  3  1  0
  6  5  2  0
  7  5  1  0
  8  7  1  0
  9 11  1  0
  9  8  1  0
 10  9  2  0
 12 13  1  0
 12 11  1  0
 13 14  1  0
 15 13  2  0
M  END
$$$$
