SGG.pdb
     RDKit          3D

 15 14  0  0  1  0  0  0  0  0999 V2000
   -0.2681  -19.4015   22.6297 O   0  0  0  0  0  0  0  0  0  0  0  0
    1.0688  -19.2572   22.9468 C   0  0  0  0  0  0  0  0  0  0  0  0
    1.9472  -20.0732   22.0091 C   0  0  2  0  0  0  0  0  0  0  0  0
    1.4885  -21.4410   21.9689 N   0  0  0  0  0  0  0  0  0  0  0  0
    3.3734  -19.9607   22.3620 C   0  0  0  0  0  0  0  0  0  0  0  0
    3.9060  -20.8460   23.0779 O   0  0  0  0  0  0  0  0  0  0  0  0
    4.2143  -18.8877   21.9359 N   0  0  0  0  0  0  0  0  0  0  0  0
    5.6228  -18.8589   22.2595 C   0  0  0  0  0  0  0  0  0  0  0  0
    5.8312  -18.2924   23.6273 C   0  0  0  0  0  0  0  0  0  0  0  0
    5.5622  -17.1057   23.9260 O   0  0  0  0  0  0  0  0  0  0  0  0
    6.3585  -19.1294   24.6440 N   0  0  0  0  0  0  0  0  0  0  0  0
    6.5296  -18.6054   25.9801 C   0  0  0  0  0  0  0  0  0  0  0  0
    7.9373  -18.7404   26.4233 C   0  0  0  0  0  0  0  0  0  0  0  0
    8.7224  -17.6786   26.8366 O   0  0  0  0  0  0  0  0  0  0  0  0
    8.4492  -19.8856   26.4242 O   0  0  0  0  0  0  0  0  0  0  0  0
  2  1  1  0
  3  4  1  1
  3  2  1  0
  5  3  1  0
  6  5  2  0
  7  5  1  0
  8  7  1  0
  9 11  1  0
  9  8  1  0
 10  9  2  0
 12 13  1  0
 12 11  1  0
 13 14  1  0
 15 13  2  0
M  END
$$$$
