SGG.pdb
     RDKit          3D

 15 14  0  0  1  0  0  0  0  0999 V2000
    0.9195  -19.0840   21.3300 O   0  0  0  0  0  0  0  0  0  0  0  0
    2.1021  -18.9479   22.0312 C   0  0  0  0  0  0  0  0  0  0  0  0
    3.2761  -19.5119   21.2434 C   0  0  2  0  0  0  0  0  0  0  0  0
    3.0908  -20.9267   21.0270 N   0  0  0  0  0  0  0  0  0  0  0  0
    4.5647  -19.1977   21.8851 C   0  0  0  0  0  0  0  0  0  0  0  0
    5.1051  -20.0470   22.6379 O   0  0  0  0  0  0  0  0  0  0  0  0
    5.2603  -17.9631   21.7064 N   0  0  0  0  0  0  0  0  0  0  0  0
    6.5320  -17.7141   22.3468 C   0  0  0  0  0  0  0  0  0  0  0  0
    6.3536  -17.5844   23.8256 C   0  0  0  0  0  0  0  0  0  0  0  0
    5.2879  -17.1937   24.3558 O   0  0  0  0  0  0  0  0  0  0  0  0
    7.4366  -17.9171   24.6794 N   0  0  0  0  0  0  0  0  0  0  0  0
    7.3381  -17.6408   26.0947 C   0  0  0  0  0  0  0  0  0  0  0  0
    8.6264  -17.9115   26.7757 C   0  0  0  0  0  0  0  0  0  0  0  0
    8.8431  -17.7101   28.1273 O   0  0  0  0  0  0  0  0  0  0  0  0
    9.5784  -18.3496   26.0863 O   0  0  0  0  0  0  0  0  0  0  0  0
  2  1  1  0
  3  4  1  1
  3  2  1  0
  5  3  1  0
  6  5  2  0
  7  5  1  0
  8  7  1  0
  9 11  1  0
  9  8  1  0
 10  9  2  0
 12 13  1  0
 12 11  1  0
 13 14  1  0
 15 13  2  0
M  END
$$$$
