SGG.pdb
     RDKit          3D

 15 14  0  0  1  0  0  0  0  0999 V2000
   -4.5818  -27.6542   25.7968 O   0  0  0  0  0  0  0  0  0  0  0  0
   -4.0004  -26.4694   26.2055 C   0  0  0  0  0  0  0  0  0  0  0  0
   -4.1685  -25.3829   25.1528 C   0  0  2  0  0  0  0  0  0  0  0  0
   -2.9681  -25.2753   24.3588 N   0  0  0  0  0  0  0  0  0  0  0  0
   -4.5712  -24.0991   25.7535 C   0  0  0  0  0  0  0  0  0  0  0  0
   -3.6962  -23.3473   26.2526 O   0  0  0  0  0  0  0  0  0  0  0  0
   -5.9218  -23.6379   25.8094 N   0  0  0  0  0  0  0  0  0  0  0  0
   -6.2782  -22.4319   26.5221 C   0  0  0  0  0  0  0  0  0  0  0  0
   -7.3256  -22.7239   27.5483 C   0  0  0  0  0  0  0  0  0  0  0  0
   -8.0680  -23.7321   27.5023 O   0  0  0  0  0  0  0  0  0  0  0  0
   -7.4961  -21.8230   28.6307 N   0  0  0  0  0  0  0  0  0  0  0  0
   -8.5586  -22.0487   29.5843 C   0  0  0  0  0  0  0  0  0  0  0  0
   -8.0773  -22.8591   30.7280 C   0  0  0  0  0  0  0  0  0  0  0  0
   -8.8710  -23.2339   31.7976 O   0  0  0  0  0  0  0  0  0  0  0  0
   -6.8784  -23.2280   30.7276 O   0  0  0  0  0  0  0  0  0  0  0  0
  2  1  1  0
  3  4  1  1
  3  2  1  0
  5  3  1  0
  6  5  2  0
  7  5  1  0
  8  7  1  0
  9 11  1  0
  9  8  1  0
 10  9  2  0
 12 13  1  0
 12 11  1  0
 13 14  1  0
 15 13  2  0
M  END
$$$$
