SGG.pdb
     RDKit          3D

 15 14  0  0  1  0  0  0  0  0999 V2000
    1.8410  -19.9738   21.7285 O   0  0  0  0  0  0  0  0  0  0  0  0
    2.3610  -18.7637   21.3112 C   0  0  0  0  0  0  0  0  0  0  0  0
    3.6172  -18.9644   20.4754 C   0  0  2  0  0  0  0  0  0  0  0  0
    3.6104  -20.2802   19.8826 N   0  0  0  0  0  0  0  0  0  0  0  0
    4.8390  -18.6967   21.2544 C   0  0  0  0  0  0  0  0  0  0  0  0
    5.6085  -19.6470   21.5455 O   0  0  0  0  0  0  0  0  0  0  0  0
    5.2193  -17.3988   21.7134 N   0  0  0  0  0  0  0  0  0  0  0  0
    6.4401  -17.1900   22.4588 C   0  0  0  0  0  0  0  0  0  0  0  0
    6.2303  -17.5152   23.9029 C   0  0  0  0  0  0  0  0  0  0  0  0
    5.1716  -17.2506   24.5183 O   0  0  0  0  0  0  0  0  0  0  0  0
    7.2735  -18.1543   24.6212 N   0  0  0  0  0  0  0  0  0  0  0  0
    7.1030  -18.4297   26.0298 C   0  0  0  0  0  0  0  0  0  0  0  0
    8.2823  -19.1435   26.5740 C   0  0  0  0  0  0  0  0  0  0  0  0
    8.3956  -19.5576   27.8894 O   0  0  0  0  0  0  0  0  0  0  0  0
    9.2358  -19.3876   25.7964 O   0  0  0  0  0  0  0  0  0  0  0  0
  2  1  1  0
  3  4  1  1
  3  2  1  0
  5  3  1  0
  6  5  2  0
  7  5  1  0
  8  7  1  0
  9 11  1  0
  9  8  1  0
 10  9  2  0
 12 13  1  0
 12 11  1  0
 13 14  1  0
 15 13  2  0
M  END
$$$$
