SGG.pdb
     RDKit          3D

 15 14  0  0  1  0  0  0  0  0999 V2000
    1.9873  -21.5139   23.3009 O   0  0  0  0  0  0  0  0  0  0  0  0
    2.8492  -21.0211   22.3401 C   0  0  0  0  0  0  0  0  0  0  0  0
    2.5618  -19.5562   22.0433 C   0  0  2  0  0  0  0  0  0  0  0  0
    1.4880  -19.4484   21.0850 N   0  0  0  0  0  0  0  0  0  0  0  0
    3.7765  -18.8367   21.6212 C   0  0  0  0  0  0  0  0  0  0  0  0
    4.0045  -18.6721   20.3961 O   0  0  0  0  0  0  0  0  0  0  0  0
    4.7375  -18.2997   22.5311 N   0  0  0  0  0  0  0  0  0  0  0  0
    5.8659  -17.5251   22.0663 C   0  0  0  0  0  0  0  0  0  0  0  0
    6.6679  -17.0264   23.2254 C   0  0  0  0  0  0  0  0  0  0  0  0
    6.1783  -16.8222   24.3604 O   0  0  0  0  0  0  0  0  0  0  0  0
    8.0509  -16.7685   23.0430 N   0  0  0  0  0  0  0  0  0  0  0  0
    8.8319  -16.2596   24.1476 C   0  0  0  0  0  0  0  0  0  0  0  0
   10.2616  -16.1457   23.7741 C   0  0  0  0  0  0  0  0  0  0  0  0
   11.2461  -15.6698   24.6220 O   0  0  0  0  0  0  0  0  0  0  0  0
   10.6010  -16.5018   22.6202 O   0  0  0  0  0  0  0  0  0  0  0  0
  2  1  1  0
  3  4  1  6
  3  2  1  0
  5  3  1  0
  6  5  2  0
  7  5  1  0
  8  7  1  0
  9 11  1  0
  9  8  1  0
 10  9  2  0
 12 13  1  0
 12 11  1  0
 13 14  1  0
 15 13  2  0
M  END
$$$$
