SGG.pdb
     RDKit          3D

 15 14  0  0  1  0  0  0  0  0999 V2000
    7.7362  -16.0307   18.7986 O   0  0  0  0  0  0  0  0  0  0  0  0
    7.4150  -16.9466   19.7819 C   0  0  0  0  0  0  0  0  0  0  0  0
    6.5178  -16.3231   20.8417 C   0  0  2  0  0  0  0  0  0  0  0  0
    6.9074  -14.9531   21.0742 N   0  0  0  0  0  0  0  0  0  0  0  0
    6.4938  -17.1261   22.0769 C   0  0  0  0  0  0  0  0  0  0  0  0
    6.0716  -18.3094   22.0383 O   0  0  0  0  0  0  0  0  0  0  0  0
    6.9282  -16.6404   23.3479 N   0  0  0  0  0  0  0  0  0  0  0  0
    6.8320  -17.4535   24.5392 C   0  0  0  0  0  0  0  0  0  0  0  0
    7.4190  -16.7327   25.7102 C   0  0  0  0  0  0  0  0  0  0  0  0
    8.0765  -17.3067   26.6091 O   0  0  0  0  0  0  0  0  0  0  0  0
    7.2290  -15.3311   25.8193 N   0  0  0  0  0  0  0  0  0  0  0  0
    7.7732  -14.6253   26.9571 C   0  0  0  0  0  0  0  0  0  0  0  0
    7.4920  -13.1733   26.8607 C   0  0  0  0  0  0  0  0  0  0  0  0
    7.9061  -12.2423   27.7969 O   0  0  0  0  0  0  0  0  0  0  0  0
    6.8394  -12.7624   25.8714 O   0  0  0  0  0  0  0  0  0  0  0  0
  2  1  1  0
  3  4  1  1
  3  2  1  0
  5  3  1  0
  6  5  2  0
  7  5  1  0
  8  7  1  0
  9 11  1  0
  9  8  1  0
 10  9  2  0
 12 13  1  0
 12 11  1  0
 13 14  1  0
 15 13  2  0
M  END
$$$$
