SGG.pdb
     RDKit          3D

 15 14  0  0  1  0  0  0  0  0999 V2000
   -3.1584  -26.5012   22.3817 O   0  0  0  0  0  0  0  0  0  0  0  0
   -3.7945  -26.6117   23.6031 C   0  0  0  0  0  0  0  0  0  0  0  0
   -3.3732  -25.4930   24.5453 C   0  0  2  0  0  0  0  0  0  0  0  0
   -1.9673  -25.6081   24.8505 N   0  0  0  0  0  0  0  0  0  0  0  0
   -4.2167  -25.4503   25.7528 C   0  0  0  0  0  0  0  0  0  0  0  0
   -3.9330  -26.1845   26.7327 O   0  0  0  0  0  0  0  0  0  0  0  0
   -5.3639  -24.6107   25.8903 N   0  0  0  0  0  0  0  0  0  0  0  0
   -6.1810  -24.6391   27.0824 C   0  0  0  0  0  0  0  0  0  0  0  0
   -6.1211  -23.3213   27.7861 C   0  0  0  0  0  0  0  0  0  0  0  0
   -5.0584  -22.6771   27.9455 O   0  0  0  0  0  0  0  0  0  0  0  0
   -7.3190  -22.7638   28.3024 N   0  0  0  0  0  0  0  0  0  0  0  0
   -7.2839  -21.4666   28.9390 C   0  0  0  0  0  0  0  0  0  0  0  0
   -7.7577  -21.5541   30.3405 C   0  0  0  0  0  0  0  0  0  0  0  0
   -7.8165  -20.4753   31.2050 O   0  0  0  0  0  0  0  0  0  0  0  0
   -8.1278  -22.6729   30.7703 O   0  0  0  0  0  0  0  0  0  0  0  0
  2  1  1  0
  3  4  1  1
  3  2  1  0
  5  3  1  0
  6  5  2  0
  7  5  1  0
  8  7  1  0
  9 11  1  0
  9  8  1  0
 10  9  2  0
 12 13  1  0
 12 11  1  0
 13 14  1  0
 15 13  2  0
M  END
$$$$
