SGG.pdb
     RDKit          3D

 15 14  0  0  1  0  0  0  0  0999 V2000
    1.3474  -20.8293   18.0835 O   0  0  0  0  0  0  0  0  0  0  0  0
    0.7968  -20.9593   19.3440 C   0  0  0  0  0  0  0  0  0  0  0  0
    1.8788  -21.0166   20.4130 C   0  0  2  0  0  0  0  0  0  0  0  0
    1.4292  -21.8153   21.5278 N   0  0  0  0  0  0  0  0  0  0  0  0
    2.3175  -19.6693   20.8176 C   0  0  0  0  0  0  0  0  0  0  0  0
    1.5416  -18.6927   20.6623 O   0  0  0  0  0  0  0  0  0  0  0  0
    3.5962  -19.3891   21.3888 N   0  0  0  0  0  0  0  0  0  0  0  0
    4.0036  -18.0375   21.6999 C   0  0  0  0  0  0  0  0  0  0  0  0
    5.3408  -18.0378   22.3686 C   0  0  0  0  0  0  0  0  0  0  0  0
    5.9423  -16.9894   22.6987 O   0  0  0  0  0  0  0  0  0  0  0  0
    5.9685  -19.2789   22.6478 N   0  0  0  0  0  0  0  0  0  0  0  0
    7.2641  -19.2934   23.2884 C   0  0  0  0  0  0  0  0  0  0  0  0
    7.1228  -19.3491   24.7626 C   0  0  0  0  0  0  0  0  0  0  0  0
    7.6237  -20.3717   25.5487 O   0  0  0  0  0  0  0  0  0  0  0  0
    6.5126  -18.4135   25.3334 O   0  0  0  0  0  0  0  0  0  0  0  0
  2  1  1  0
  3  4  1  1
  3  2  1  0
  5  3  1  0
  6  5  2  0
  7  5  1  0
  8  7  1  0
  9 11  1  0
  9  8  1  0
 10  9  2  0
 12 13  1  0
 12 11  1  0
 13 14  1  0
 15 13  2  0
M  END
$$$$
