SGG.pdb
     RDKit          3D

 15 14  0  0  1  0  0  0  0  0999 V2000
    6.9856  -14.6214   18.9510 O   0  0  0  0  0  0  0  0  0  0  0  0
    7.9083  -15.3709   19.6551 C   0  0  0  0  0  0  0  0  0  0  0  0
    7.2446  -16.1299   20.7954 C   0  0  2  0  0  0  0  0  0  0  0  0
    5.8342  -16.2837   20.5307 N   0  0  0  0  0  0  0  0  0  0  0  0
    7.5141  -15.4996   22.0997 C   0  0  0  0  0  0  0  0  0  0  0  0
    6.5604  -15.2712   22.8861 O   0  0  0  0  0  0  0  0  0  0  0  0
    8.8175  -15.1204   22.5439 N   0  0  0  0  0  0  0  0  0  0  0  0
    9.0512  -14.6659   23.8961 C   0  0  0  0  0  0  0  0  0  0  0  0
   10.1969  -15.4093   24.5045 C   0  0  0  0  0  0  0  0  0  0  0  0
   10.5852  -15.2261   25.6814 O   0  0  0  0  0  0  0  0  0  0  0  0
   10.8849  -16.3709   23.7207 N   0  0  0  0  0  0  0  0  0  0  0  0
   12.0313  -17.0538   24.2763 C   0  0  0  0  0  0  0  0  0  0  0  0
   13.2897  -16.3758   23.8848 C   0  0  0  0  0  0  0  0  0  0  0  0
   14.2431  -15.9362   24.7860 O   0  0  0  0  0  0  0  0  0  0  0  0
   13.5046  -16.1887   22.6633 O   0  0  0  0  0  0  0  0  0  0  0  0
  2  1  1  0
  3  4  1  6
  3  2  1  0
  5  3  1  0
  6  5  2  0
  7  5  1  0
  8  7  1  0
  9 11  1  0
  9  8  1  0
 10  9  2  0
 12 13  1  0
 12 11  1  0
 13 14  1  0
 15 13  2  0
M  END
$$$$
