SGG.pdb
     RDKit          3D

 15 14  0  0  1  0  0  0  0  0999 V2000
   -1.8613  -27.4685   27.5589 O   0  0  0  0  0  0  0  0  0  0  0  0
   -2.6217  -26.5421   26.8716 C   0  0  0  0  0  0  0  0  0  0  0  0
   -3.6026  -25.8393   27.7993 C   0  0  2  0  0  0  0  0  0  0  0  0
   -4.5368  -26.7946   28.3448 N   0  0  0  0  0  0  0  0  0  0  0  0
   -4.2695  -24.7076   27.1316 C   0  0  0  0  0  0  0  0  0  0  0  0
   -3.5755  -23.7816   26.6410 O   0  0  0  0  0  0  0  0  0  0  0  0
   -5.6866  -24.5870   26.9998 N   0  0  0  0  0  0  0  0  0  0  0  0
   -6.2933  -23.4051   26.4301 C   0  0  0  0  0  0  0  0  0  0  0  0
   -7.0034  -22.6230   27.4882 C   0  0  0  0  0  0  0  0  0  0  0  0
   -7.7819  -21.6750   27.2334 O   0  0  0  0  0  0  0  0  0  0  0  0
   -6.7931  -22.9616   28.8496 N   0  0  0  0  0  0  0  0  0  0  0  0
   -7.6134  -22.3496   29.8703 C   0  0  0  0  0  0  0  0  0  0  0  0
   -8.5215  -23.3467   30.4849 C   0  0  0  0  0  0  0  0  0  0  0  0
   -9.3532  -23.0766   31.5572 O   0  0  0  0  0  0  0  0  0  0  0  0
   -8.5380  -24.5056   30.0052 O   0  0  0  0  0  0  0  0  0  0  0  0
  2  1  1  0
  3  4  1  6
  3  2  1  0
  5  3  1  0
  6  5  2  0
  7  5  1  0
  8  7  1  0
  9 11  1  0
  9  8  1  0
 10  9  2  0
 12 13  1  0
 12 11  1  0
 13 14  1  0
 15 13  2  0
M  END
$$$$
