HPL.pdb
     RDKit          3D

 26 27  0  0  1  0  0  0  0  0999 V2000
   11.6934  -16.1248   20.5682 N   0  0  0  0  0  0  0  0  0  0  0  0
   11.0518  -17.1751   21.2846 C   0  0  1  0  0  0  0  0  0  0  0  0
   11.9557  -18.3768   21.5048 C   0  0  0  0  0  0  0  0  0  0  0  0
   11.8329  -19.2808   20.3369 C   0  0  0  0  0  0  0  0  0  0  0  0
   12.2957  -19.1399   19.0655 C   0  0  0  0  0  0  0  0  0  0  0  0
   11.9603  -20.2261   18.3639 N   0  0  0  0  0  0  0  0  0  0  0  0
   11.2759  -21.0897   19.1689 C   0  0  0  0  0  0  0  0  0  0  0  0
   11.2053  -20.4971   20.3752 N   0  0  0  0  0  0  0  0  0  0  0  0
   10.4554  -16.7382   22.5791 C   0  0  0  0  0  0  0  0  0  0  0  0
   10.9908  -15.7607   23.1924 O   0  0  0  0  0  0  0  0  0  0  0  0
    9.3266  -17.4104   23.0845 N   0  0  0  0  0  0  0  0  0  0  0  0
    8.6927  -18.5773   22.5828 C   0  0  0  0  0  0  0  0  0  0  0  0
    7.4175  -18.7709   23.3751 C   0  0  0  0  0  0  0  0  0  0  0  0
    7.2629  -17.5904   24.2619 C   0  0  0  0  0  0  0  0  0  0  0  0
    8.6290  -16.9424   24.2735 C   0  0  1  0  0  0  0  0  0  0  0  0
    9.3878  -17.2874   25.5097 C   0  0  0  0  0  0  0  0  0  0  0  0
   10.2405  -18.2539   25.4824 O   0  0  0  0  0  0  0  0  0  0  0  0
   11.0221  -14.1061   27.9910 C   0  0  0  0  0  0  0  0  0  0  0  0
    9.6502  -14.5971   28.5148 C   0  0  2  0  0  0  0  0  0  0  0  0
    9.2005  -13.5857   29.5360 C   0  0  0  0  0  0  0  0  0  0  0  0
    9.8149  -15.9878   29.0371 C   0  0  0  0  0  0  0  0  0  0  0  0
   10.0702  -16.9643   27.9412 C   0  0  2  0  0  0  0  0  0  0  0  0
    9.2673  -16.6485   26.7544 N   0  0  0  0  0  0  0  0  0  0  0  0
    9.8428  -18.3355   28.3815 C   0  0  0  0  0  0  0  0  0  0  0  0
   10.7726  -18.8413   29.3297 O   0  0  0  0  0  0  0  0  0  0  0  0
    8.9301  -19.0936   28.0124 O   0  0  0  0  0  0  0  0  0  0  0  0
  2  1  1  1
  3  2  1  0
  4  3  1  0
  5  4  2  0
  6  7  1  0
  6  5  1  0
  7  8  2  0
  8  4  1  0
  9  2  1  0
  9 11  1  0
 10  9  2  0
 11 12  1  0
 12 13  1  0
 14 13  1  0
 15 11  1  0
 15 14  1  0
 15 16  1  1
 16 17  2  0
 19 18  1  1
 19 20  1  0
 19 21  1  0
 22 21  1  1
 22 23  1  0
 22 24  1  0
 23 16  1  0
 24 26  2  0
 24 25  1  0
M  END
$$$$
