HPL.pdb
     RDKit          3D

 26 27  0  0  1  0  0  0  0  0999 V2000
    7.1335  -19.9264   21.6388 N   0  0  0  0  0  0  0  0  0  0  0  0
    6.7030  -18.5690   21.6619 C   0  0  1  0  0  0  0  0  0  0  0  0
    5.6131  -18.3134   22.6897 C   0  0  0  0  0  0  0  0  0  0  0  0
    6.1593  -18.5961   24.0380 C   0  0  0  0  0  0  0  0  0  0  0  0
    6.7706  -19.7112   24.5212 C   0  0  0  0  0  0  0  0  0  0  0  0
    7.1136  -19.4951   25.7941 N   0  0  0  0  0  0  0  0  0  0  0  0
    6.7318  -18.2363   26.1568 C   0  0  0  0  0  0  0  0  0  0  0  0
    6.1481  -17.6970   25.0706 N   0  0  0  0  0  0  0  0  0  0  0  0
    7.8149  -17.5922   21.8400 C   0  0  0  0  0  0  0  0  0  0  0  0
    8.9379  -18.0230   22.2543 O   0  0  0  0  0  0  0  0  0  0  0  0
    7.5971  -16.2327   21.5477 N   0  0  0  0  0  0  0  0  0  0  0  0
    6.3718  -15.5721   21.2689 C   0  0  0  0  0  0  0  0  0  0  0  0
    6.7109  -14.1622   20.8348 C   0  0  0  0  0  0  0  0  0  0  0  0
    8.1894  -14.0723   20.7353 C   0  0  0  0  0  0  0  0  0  0  0  0
    8.6952  -15.2784   21.4942 C   0  0  1  0  0  0  0  0  0  0  0  0
    9.1518  -14.9105   22.8649 C   0  0  0  0  0  0  0  0  0  0  0  0
   10.1378  -14.0923   23.0076 O   0  0  0  0  0  0  0  0  0  0  0  0
    5.4439  -13.1673   27.0882 C   0  0  0  0  0  0  0  0  0  0  0  0
    6.9514  -13.3752   26.8022 C   0  0  2  0  0  0  0  0  0  0  0  0
    7.5701  -12.0024   26.7745 C   0  0  0  0  0  0  0  0  0  0  0  0
    7.0881  -14.1524   25.5329 C   0  0  0  0  0  0  0  0  0  0  0  0
    8.4918  -14.5962   25.3037 C   0  0  2  0  0  0  0  0  0  0  0  0
    8.6029  -15.3809   24.0689 N   0  0  0  0  0  0  0  0  0  0  0  0
    9.0133  -15.3360   26.4467 C   0  0  0  0  0  0  0  0  0  0  0  0
    9.4879  -16.6464   26.1691 O   0  0  0  0  0  0  0  0  0  0  0  0
    9.0803  -14.9387   27.6222 O   0  0  0  0  0  0  0  0  0  0  0  0
  2  1  1  1
  3  2  1  0
  4  3  1  0
  5  4  2  0
  6  7  1  0
  6  5  1  0
  7  8  2  0
  8  4  1  0
  9  2  1  0
  9 11  1  0
 10  9  2  0
 11 12  1  0
 12 13  1  0
 14 13  1  0
 15 11  1  0
 15 14  1  0
 15 16  1  1
 16 17  2  0
 19 18  1  6
 19 20  1  0
 19 21  1  0
 22 21  1  1
 22 23  1  0
 22 24  1  0
 23 16  1  0
 24 26  2  0
 24 25  1  0
M  END
$$$$
