HPL.pdb
     RDKit          3D

 26 27  0  0  1  0  0  0  0  0999 V2000
   12.0600  -13.5191   20.0311 N   0  0  0  0  0  0  0  0  0  0  0  0
   10.7179  -13.9337   20.2657 C   0  0  1  0  0  0  0  0  0  0  0  0
   10.2967  -15.0960   19.3817 C   0  0  0  0  0  0  0  0  0  0  0  0
    9.5666  -14.5580   18.2096 C   0  0  0  0  0  0  0  0  0  0  0  0
    9.3347  -13.2709   17.8352 C   0  0  0  0  0  0  0  0  0  0  0  0
    8.6472  -13.2745   16.6899 N   0  0  0  0  0  0  0  0  0  0  0  0
    8.4233  -14.5634   16.3020 C   0  0  0  0  0  0  0  0  0  0  0  0
    8.9923  -15.3393   17.2429 N   0  0  0  0  0  0  0  0  0  0  0  0
   10.4297  -14.2458   21.6946 C   0  0  0  0  0  0  0  0  0  0  0  0
   11.3792  -14.1570   22.5365 O   0  0  0  0  0  0  0  0  0  0  0  0
    9.1282  -14.6258   22.0725 N   0  0  0  0  0  0  0  0  0  0  0  0
    8.0040  -14.8798   21.2436 C   0  0  0  0  0  0  0  0  0  0  0  0
    6.8081  -15.0627   22.1534 C   0  0  0  0  0  0  0  0  0  0  0  0
    7.2540  -14.7641   23.5375 C   0  0  0  0  0  0  0  0  0  0  0  0
    8.7637  -14.8140   23.4693 C   0  0  1  0  0  0  0  0  0  0  0  0
    9.2926  -16.1067   23.9909 C   0  0  0  0  0  0  0  0  0  0  0  0
   10.2531  -16.6979   23.3667 O   0  0  0  0  0  0  0  0  0  0  0  0
    9.7410  -13.2439   28.1389 C   0  0  0  0  0  0  0  0  0  0  0  0
   10.0308  -14.7554   27.9680 C   0  0  2  0  0  0  0  0  0  0  0  0
   11.4266  -14.8585   27.4122 C   0  0  0  0  0  0  0  0  0  0  0  0
    8.9642  -15.3454   27.1032 C   0  0  0  0  0  0  0  0  0  0  0  0
    9.4014  -16.6266   26.4809 C   0  0  2  0  0  0  0  0  0  0  0  0
    8.8365  -16.7804   25.1355 N   0  0  0  0  0  0  0  0  0  0  0  0
    9.0744  -17.7706   27.3236 C   0  0  0  0  0  0  0  0  0  0  0  0
    7.7319  -18.2302   27.2463 O   0  0  0  0  0  0  0  0  0  0  0  0
    9.8432  -18.3722   28.0922 O   0  0  0  0  0  0  0  0  0  0  0  0
  2  1  1  1
  3  2  1  0
  4  3  1  0
  5  4  2  0
  6  7  1  0
  6  5  1  0
  7  8  2  0
  8  4  1  0
  9  2  1  0
  9 11  1  0
 10  9  2  0
 11 12  1  0
 12 13  1  0
 14 13  1  0
 15 11  1  0
 15 14  1  0
 15 16  1  6
 16 17  2  0
 19 18  1  6
 19 20  1  0
 19 21  1  0
 22 21  1  1
 22 23  1  0
 22 24  1  0
 23 16  1  0
 24 26  2  0
 24 25  1  0
M  END
$$$$
