HPL.pdb
     RDKit          3D

 26 27  0  0  1  0  0  0  0  0999 V2000
   11.4825  -17.7149   19.8407 N   0  0  0  0  0  0  0  0  0  0  0  0
   10.2310  -17.8253   20.5113 C   0  0  1  0  0  0  0  0  0  0  0  0
   10.1682  -19.0186   21.4503 C   0  0  0  0  0  0  0  0  0  0  0  0
   10.0698  -20.2543   20.6382 C   0  0  0  0  0  0  0  0  0  0  0  0
    9.1887  -20.5930   19.6587 C   0  0  0  0  0  0  0  0  0  0  0  0
    9.5063  -21.8053   19.1962 N   0  0  0  0  0  0  0  0  0  0  0  0
   10.5991  -22.2721   19.8669 C   0  0  0  0  0  0  0  0  0  0  0  0
   10.9336  -21.3111   20.7477 N   0  0  0  0  0  0  0  0  0  0  0  0
    9.8273  -16.5843   21.2318 C   0  0  0  0  0  0  0  0  0  0  0  0
   10.7341  -15.8825   21.7825 O   0  0  0  0  0  0  0  0  0  0  0  0
    8.4677  -16.2235   21.2834 N   0  0  0  0  0  0  0  0  0  0  0  0
    7.3618  -16.8450   20.6460 C   0  0  0  0  0  0  0  0  0  0  0  0
    6.1573  -15.9560   20.8699 C   0  0  0  0  0  0  0  0  0  0  0  0
    6.6359  -14.7215   21.5414 C   0  0  0  0  0  0  0  0  0  0  0  0
    8.0109  -15.0793   22.0589 C   0  0  1  0  0  0  0  0  0  0  0  0
    7.9818  -15.3970   23.5152 C   0  0  0  0  0  0  0  0  0  0  0  0
    8.2567  -16.5932   23.9098 O   0  0  0  0  0  0  0  0  0  0  0  0
    6.2346  -11.5702   27.3579 C   0  0  0  0  0  0  0  0  0  0  0  0
    7.3010  -12.5198   26.7592 C   0  0  2  0  0  0  0  0  0  0  0  0
    7.6719  -11.9469   25.4167 C   0  0  0  0  0  0  0  0  0  0  0  0
    6.7327  -13.9015   26.7182 C   0  0  0  0  0  0  0  0  0  0  0  0
    7.6159  -14.8418   25.9729 C   0  0  2  0  0  0  0  0  0  0  0  0
    7.6714  -14.4972   24.5477 N   0  0  0  0  0  0  0  0  0  0  0  0
    7.2058  -16.2277   26.1642 C   0  0  0  0  0  0  0  0  0  0  0  0
    7.7805  -16.8927   27.2809 O   0  0  0  0  0  0  0  0  0  0  0  0
    6.4163  -16.8745   25.4554 O   0  0  0  0  0  0  0  0  0  0  0  0
  2  1  1  1
  3  2  1  0
  4  3  1  0
  5  4  2  0
  6  7  1  0
  6  5  1  0
  7  8  2  0
  8  4  1  0
  9  2  1  0
  9 11  1  0
 10  9  2  0
 11 12  1  0
 12 13  1  0
 14 13  1  0
 15 11  1  0
 15 14  1  0
 15 16  1  1
 16 17  2  0
 19 18  1  6
 19 20  1  0
 19 21  1  0
 22 21  1  1
 22 23  1  0
 22 24  1  0
 23 16  1  0
 24 26  2  0
 24 25  1  0
M  END
$$$$
