HPL.pdb
     RDKit          3D

 26 27  0  0  1  0  0  0  0  0999 V2000
    6.9130  -18.9720   20.5094 N   0  0  0  0  0  0  0  0  0  0  0  0
    6.5469  -17.7365   21.1158 C   0  0  1  0  0  0  0  0  0  0  0  0
    5.5488  -17.9086   22.2489 C   0  0  0  0  0  0  0  0  0  0  0  0
    4.3223  -18.5393   21.7066 C   0  0  0  0  0  0  0  0  0  0  0  0
    3.3689  -18.0348   20.8777 C   0  0  0  0  0  0  0  0  0  0  0  0
    2.4582  -18.9837   20.6433 N   0  0  0  0  0  0  0  0  0  0  0  0
    2.8066  -20.1192   21.3150 C   0  0  0  0  0  0  0  0  0  0  0  0
    3.9510  -19.8322   21.9625 N   0  0  0  0  0  0  0  0  0  0  0  0
    7.7117  -16.9287   21.5771 C   0  0  0  0  0  0  0  0  0  0  0  0
    8.7645  -17.5407   21.9451 O   0  0  0  0  0  0  0  0  0  0  0  0
    7.6190  -15.5242   21.5928 N   0  0  0  0  0  0  0  0  0  0  0  0
    6.4960  -14.7076   21.2973 C   0  0  0  0  0  0  0  0  0  0  0  0
    6.9780  -13.2729   21.2751 C   0  0  0  0  0  0  0  0  0  0  0  0
    8.4543  -13.2987   21.4289 C   0  0  0  0  0  0  0  0  0  0  0  0
    8.7587  -14.6883   21.9415 C   0  0  1  0  0  0  0  0  0  0  0  0
    8.9925  -14.6893   23.4140 C   0  0  0  0  0  0  0  0  0  0  0  0
    9.7654  -13.7986   23.9348 O   0  0  0  0  0  0  0  0  0  0  0  0
    8.5807  -12.5782   26.8682 C   0  0  0  0  0  0  0  0  0  0  0  0
    7.5061  -13.0818   25.8736 C   0  0  2  0  0  0  0  0  0  0  0  0
    6.3193  -12.1688   26.0347 C   0  0  0  0  0  0  0  0  0  0  0  0
    7.2348  -14.5230   26.1619 C   0  0  0  0  0  0  0  0  0  0  0  0
    8.3869  -15.3895   25.7857 C   0  0  2  0  0  0  0  0  0  0  0  0
    8.4411  -15.5957   24.3340 N   0  0  0  0  0  0  0  0  0  0  0  0
    8.3557  -16.6615   26.4976 C   0  0  0  0  0  0  0  0  0  0  0  0
    8.3146  -17.8243   25.6818 O   0  0  0  0  0  0  0  0  0  0  0  0
    8.3596  -16.8248   27.7294 O   0  0  0  0  0  0  0  0  0  0  0  0
  2  1  1  1
  3  2  1  0
  4  3  1  0
  5  4  2  0
  6  7  1  0
  6  5  1  0
  7  8  2  0
  8  4  1  0
  9  2  1  0
  9 11  1  0
 10  9  2  0
 11 12  1  0
 12 13  1  0
 14 13  1  0
 15 11  1  0
 15 14  1  0
 15 16  1  1
 16 17  2  0
 19 18  1  1
 19 20  1  0
 19 21  1  0
 22 21  1  6
 22 23  1  0
 22 24  1  0
 23 16  1  0
 24 26  2  0
 24 25  1  0
M  END
$$$$
