HPL.pdb
     RDKit          3D

 26 27  0  0  1  0  0  0  0  0999 V2000
    7.0391  -16.6636   20.0061 N   0  0  0  0  0  0  0  0  0  0  0  0
    7.9395  -15.8241   20.7221 C   0  0  1  0  0  0  0  0  0  0  0  0
    7.6574  -14.3450   20.5157 C   0  0  0  0  0  0  0  0  0  0  0  0
    7.9112  -14.0094   19.0947 C   0  0  0  0  0  0  0  0  0  0  0  0
    8.7129  -13.0562   18.5477 C   0  0  0  0  0  0  0  0  0  0  0  0
    8.6370  -13.1436   17.2169 N   0  0  0  0  0  0  0  0  0  0  0  0
    7.7862  -14.1555   16.8790 C   0  0  0  0  0  0  0  0  0  0  0  0
    7.3488  -14.6771   18.0399 N   0  0  0  0  0  0  0  0  0  0  0  0
    8.0150  -16.1331   22.1785 C   0  0  0  0  0  0  0  0  0  0  0  0
    7.0025  -15.8764   22.9046 O   0  0  0  0  0  0  0  0  0  0  0  0
    9.1916  -16.6959   22.7078 N   0  0  0  0  0  0  0  0  0  0  0  0
   10.4190  -16.9658   22.0475 C   0  0  0  0  0  0  0  0  0  0  0  0
   11.2862  -17.7445   23.0133 C   0  0  0  0  0  0  0  0  0  0  0  0
   10.4607  -18.0402   24.2112 C   0  0  0  0  0  0  0  0  0  0  0  0
    9.2845  -17.0960   24.1045 C   0  0  1  0  0  0  0  0  0  0  0  0
    9.4533  -15.9093   24.9910 C   0  0  0  0  0  0  0  0  0  0  0  0
   10.3156  -15.0025   24.6809 O   0  0  0  0  0  0  0  0  0  0  0  0
    7.7868  -12.0544   25.9049 C   0  0  0  0  0  0  0  0  0  0  0  0
    7.1198  -13.3583   26.4075 C   0  0  2  0  0  0  0  0  0  0  0  0
    5.6819  -13.0146   26.6945 C   0  0  0  0  0  0  0  0  0  0  0  0
    7.8932  -13.8609   27.5835 C   0  0  0  0  0  0  0  0  0  0  0  0
    9.0963  -14.6341   27.1656 C   0  0  2  0  0  0  0  0  0  0  0  0
    8.7470  -15.6629   26.1795 N   0  0  0  0  0  0  0  0  0  0  0  0
    9.7847  -15.2152   28.3120 C   0  0  0  0  0  0  0  0  0  0  0  0
   10.4108  -14.2896   29.1899 O   0  0  0  0  0  0  0  0  0  0  0  0
    9.8771  -16.4226   28.5905 O   0  0  0  0  0  0  0  0  0  0  0  0
  2  1  1  1
  3  2  1  0
  4  3  1  0
  5  4  2  0
  6  7  1  0
  6  5  1  0
  7  8  2  0
  8  4  1  0
  9  2  1  0
  9 11  1  0
 10  9  2  0
 11 12  1  0
 12 13  1  0
 14 13  1  0
 15 11  1  0
 15 14  1  0
 15 16  1  1
 16 17  2  0
 19 18  1  1
 19 20  1  0
 19 21  1  0
 22 21  1  1
 22 23  1  0
 22 24  1  0
 23 16  1  0
 24 26  2  0
 24 25  1  0
M  END
$$$$
