HPL.pdb
     RDKit          3D

 26 27  0  0  1  0  0  0  0  0999 V2000
    8.4810  -18.3656   19.2412 N   0  0  0  0  0  0  0  0  0  0  0  0
    7.7683  -17.3496   19.9397 C   0  0  1  0  0  0  0  0  0  0  0  0
    6.8063  -17.9092   20.9747 C   0  0  0  0  0  0  0  0  0  0  0  0
    5.7404  -18.6611   20.2713 C   0  0  0  0  0  0  0  0  0  0  0  0
    5.5675  -18.9045   18.9442 C   0  0  0  0  0  0  0  0  0  0  0  0
    4.4700  -19.6490   18.7837 N   0  0  0  0  0  0  0  0  0  0  0  0
    3.9140  -19.9019   20.0039 C   0  0  0  0  0  0  0  0  0  0  0  0
    4.7031  -19.2901   20.9063 N   0  0  0  0  0  0  0  0  0  0  0  0
    8.6498  -16.3213   20.5624 C   0  0  0  0  0  0  0  0  0  0  0  0
    9.6534  -16.7141   21.2382 O   0  0  0  0  0  0  0  0  0  0  0  0
    8.3535  -14.9564   20.3880 N   0  0  0  0  0  0  0  0  0  0  0  0
    7.3199  -14.3664   19.6140 C   0  0  0  0  0  0  0  0  0  0  0  0
    7.5588  -12.8717   19.6115 C   0  0  0  0  0  0  0  0  0  0  0  0
    8.8532  -12.6283   20.2965 C   0  0  0  0  0  0  0  0  0  0  0  0
    9.1403  -13.9162   21.0349 C   0  0  1  0  0  0  0  0  0  0  0  0
    8.7959  -13.8062   22.4813 C   0  0  0  0  0  0  0  0  0  0  0  0
    8.1564  -12.7701   22.9048 O   0  0  0  0  0  0  0  0  0  0  0  0
    5.5085  -13.2474   26.3395 C   0  0  0  0  0  0  0  0  0  0  0  0
    7.0410  -13.3711   26.1564 C   0  0  2  0  0  0  0  0  0  0  0  0
    7.5470  -11.9810   25.8743 C   0  0  0  0  0  0  0  0  0  0  0  0
    7.3081  -14.3690   25.0764 C   0  0  0  0  0  0  0  0  0  0  0  0
    8.7668  -14.6128   24.8960 C   0  0  2  0  0  0  0  0  0  0  0  0
    9.1083  -14.7476   23.4754 N   0  0  0  0  0  0  0  0  0  0  0  0
    9.2146  -15.7725   25.6578 C   0  0  0  0  0  0  0  0  0  0  0  0
    9.1392  -17.0207   24.9827 O   0  0  0  0  0  0  0  0  0  0  0  0
    9.6472  -15.7756   26.8226 O   0  0  0  0  0  0  0  0  0  0  0  0
  2  1  1  1
  3  2  1  0
  4  3  1  0
  5  4  2  0
  6  7  1  0
  6  5  1  0
  7  8  2  0
  8  4  1  0
  9  2  1  0
  9 11  1  0
 10  9  2  0
 11 12  1  0
 12 13  1  0
 14 13  1  0
 15 11  1  0
 15 14  1  0
 15 16  1  1
 16 17  2  0
 19 18  1  6
 19 20  1  0
 19 21  1  0
 22 21  1  6
 22 23  1  0
 22 24  1  0
 23 16  1  0
 24 26  2  0
 24 25  1  0
M  END
$$$$
