HPL.pdb
     RDKit          3D

 26 27  0  0  1  0  0  0  0  0999 V2000
    8.9796  -18.4982   19.4428 N   0  0  0  0  0  0  0  0  0  0  0  0
    8.0030  -17.5877   19.9383 C   0  0  1  0  0  0  0  0  0  0  0  0
    6.8176  -18.2873   20.5827 C   0  0  0  0  0  0  0  0  0  0  0  0
    6.1745  -19.1572   19.5699 C   0  0  0  0  0  0  0  0  0  0  0  0
    5.4861  -18.8313   18.4429 C   0  0  0  0  0  0  0  0  0  0  0  0
    5.1102  -19.9567   17.8291 N   0  0  0  0  0  0  0  0  0  0  0  0
    5.5497  -21.0306   18.5469 C   0  0  0  0  0  0  0  0  0  0  0  0
    6.2003  -20.5256   19.6114 N   0  0  0  0  0  0  0  0  0  0  0  0
    8.5587  -16.5614   20.8657 C   0  0  0  0  0  0  0  0  0  0  0  0
    9.3743  -16.9382   21.7662 O   0  0  0  0  0  0  0  0  0  0  0  0
    8.1720  -15.2155   20.7226 N   0  0  0  0  0  0  0  0  0  0  0  0
    7.2668  -14.6489   19.7872 C   0  0  0  0  0  0  0  0  0  0  0  0
    7.3531  -13.1448   19.9341 C   0  0  0  0  0  0  0  0  0  0  0  0
    8.4486  -12.8550   20.8930 C   0  0  0  0  0  0  0  0  0  0  0  0
    8.7029  -14.1730   21.5890 C   0  0  1  0  0  0  0  0  0  0  0  0
    8.0593  -14.2151   22.9332 C   0  0  0  0  0  0  0  0  0  0  0  0
    6.9668  -13.5611   23.1349 O   0  0  0  0  0  0  0  0  0  0  0  0
    7.5818  -11.8937   26.7737 C   0  0  0  0  0  0  0  0  0  0  0  0
    6.7521  -12.7242   25.7640 C   0  0  2  0  0  0  0  0  0  0  0  0
    5.3055  -12.4270   26.0592 C   0  0  0  0  0  0  0  0  0  0  0  0
    7.1402  -14.1608   25.9033 C   0  0  0  0  0  0  0  0  0  0  0  0
    8.5305  -14.4074   25.4278 C   0  0  2  0  0  0  0  0  0  0  0  0
    8.5358  -14.9174   24.0521 N   0  0  0  0  0  0  0  0  0  0  0  0
    9.2525  -15.3024   26.3242 C   0  0  0  0  0  0  0  0  0  0  0  0
    9.7972  -16.4696   25.7237 O   0  0  0  0  0  0  0  0  0  0  0  0
    9.4334  -15.1471   27.5436 O   0  0  0  0  0  0  0  0  0  0  0  0
  2  1  1  1
  3  2  1  0
  4  3  1  0
  5  4  2  0
  6  7  1  0
  6  5  1  0
  7  8  2  0
  8  4  1  0
  9  2  1  0
  9 11  1  0
 10  9  2  0
 11 12  1  0
 12 13  1  0
 14 13  1  0
 15 11  1  0
 15 14  1  0
 15 16  1  1
 16 17  2  0
 19 18  1  1
 19 20  1  0
 19 21  1  0
 22 21  1  1
 22 23  1  0
 22 24  1  0
 23 16  1  0
 24 26  2  0
 24 25  1  0
M  END
$$$$
