HPL.pdb
     RDKit          3D

 26 27  0  0  1  0  0  0  0  0999 V2000
    7.1328  -18.8831   20.2532 N   0  0  0  0  0  0  0  0  0  0  0  0
    6.5657  -17.6471   20.6761 C   0  0  1  0  0  0  0  0  0  0  0  0
    5.3455  -17.8310   21.5634 C   0  0  0  0  0  0  0  0  0  0  0  0
    4.2549  -18.4198   20.7510 C   0  0  0  0  0  0  0  0  0  0  0  0
    4.2241  -18.7523   19.4323 C   0  0  0  0  0  0  0  0  0  0  0  0
    3.0276  -19.2746   19.1492 N   0  0  0  0  0  0  0  0  0  0  0  0
    2.2635  -19.2908   20.2796 C   0  0  0  0  0  0  0  0  0  0  0  0
    3.0285  -18.7638   21.2534 N   0  0  0  0  0  0  0  0  0  0  0  0
    7.5441  -16.7342   21.3329 C   0  0  0  0  0  0  0  0  0  0  0  0
    8.4039  -17.2372   22.1242 O   0  0  0  0  0  0  0  0  0  0  0  0
    7.4935  -15.3536   21.0633 N   0  0  0  0  0  0  0  0  0  0  0  0
    6.6452  -14.6579   20.1623 C   0  0  0  0  0  0  0  0  0  0  0  0
    7.1260  -13.2235   20.1104 C   0  0  0  0  0  0  0  0  0  0  0  0
    8.3756  -13.1455   20.9081 C   0  0  0  0  0  0  0  0  0  0  0  0
    8.3790  -14.4124   21.7335 C   0  0  1  0  0  0  0  0  0  0  0  0
    7.9282  -14.1559   23.1313 C   0  0  0  0  0  0  0  0  0  0  0  0
    7.0911  -13.2035   23.3640 O   0  0  0  0  0  0  0  0  0  0  0  0
    6.7227  -11.5510   26.1577 C   0  0  0  0  0  0  0  0  0  0  0  0
    7.1957  -13.0137   25.9725 C   0  0  2  0  0  0  0  0  0  0  0  0
    6.6845  -13.7781   27.1651 C   0  0  0  0  0  0  0  0  0  0  0  0
    8.6821  -13.0127   25.8159 C   0  0  0  0  0  0  0  0  0  0  0  0
    9.1894  -14.3289   25.3363 C   0  0  2  0  0  0  0  0  0  0  0  0
    8.3362  -14.8677   24.2711 N   0  0  0  0  0  0  0  0  0  0  0  0
    9.3289  -15.2808   26.4317 C   0  0  0  0  0  0  0  0  0  0  0  0
    8.7313  -16.5532   26.2233 O   0  0  0  0  0  0  0  0  0  0  0  0
    9.9091  -15.0899   27.5138 O   0  0  0  0  0  0  0  0  0  0  0  0
  2  1  1  1
  3  2  1  0
  4  3  1  0
  5  4  2  0
  6  7  1  0
  6  5  1  0
  7  8  2  0
  8  4  1  0
  9  2  1  0
  9 11  1  0
 10  9  2  0
 11 12  1  0
 12 13  1  0
 14 13  1  0
 15 11  1  0
 15 14  1  0
 15 16  1  1
 16 17  2  0
 19 18  1  1
 19 20  1  0
 19 21  1  0
 22 21  1  1
 22 23  1  0
 22 24  1  0
 23 16  1  0
 24 26  2  0
 24 25  1  0
M  END
$$$$
