HPL.pdb
     RDKit          3D

 26 27  0  0  1  0  0  0  0  0999 V2000
    9.6891  -13.6319   21.4475 N   0  0  0  0  0  0  0  0  0  0  0  0
    8.6121  -13.6705   22.3785 C   0  0  1  0  0  0  0  0  0  0  0  0
    7.5022  -14.6195   21.9575 C   0  0  0  0  0  0  0  0  0  0  0  0
    7.1497  -14.3378   20.5459 C   0  0  0  0  0  0  0  0  0  0  0  0
    6.7149  -13.1885   19.9624 C   0  0  0  0  0  0  0  0  0  0  0  0
    6.5467  -13.4077   18.6555 N   0  0  0  0  0  0  0  0  0  0  0  0
    6.8709  -14.7019   18.3696 C   0  0  0  0  0  0  0  0  0  0  0  0
    7.2386  -15.2601   19.5378 N   0  0  0  0  0  0  0  0  0  0  0  0
    9.0396  -13.9691   23.7750 C   0  0  0  0  0  0  0  0  0  0  0  0
   10.1553  -14.5533   23.9542 O   0  0  0  0  0  0  0  0  0  0  0  0
    8.2075  -13.6004   24.8488 N   0  0  0  0  0  0  0  0  0  0  0  0
    6.8288  -13.2627   24.8253 C   0  0  0  0  0  0  0  0  0  0  0  0
    6.4663  -12.7607   26.2065 C   0  0  0  0  0  0  0  0  0  0  0  0
    7.7220  -12.6856   26.9948 C   0  0  0  0  0  0  0  0  0  0  0  0
    8.7125  -13.5175   26.2117 C   0  0  1  0  0  0  0  0  0  0  0  0
    8.8765  -14.8753   26.8051 C   0  0  0  0  0  0  0  0  0  0  0  0
    7.9018  -15.7168   26.7445 O   0  0  0  0  0  0  0  0  0  0  0  0
   10.2418  -18.4309   25.7113 C   0  0  0  0  0  0  0  0  0  0  0  0
   11.3994  -17.5127   26.1745 C   0  0  2  0  0  0  0  0  0  0  0  0
   12.6656  -18.1220   25.6329 C   0  0  0  0  0  0  0  0  0  0  0  0
   11.3435  -17.3978   27.6636 C   0  0  0  0  0  0  0  0  0  0  0  0
   10.1305  -16.6610   28.1171 C   0  0  2  0  0  0  0  0  0  0  0  0
   10.0256  -15.3567   27.4533 N   0  0  0  0  0  0  0  0  0  0  0  0
   10.1017  -16.5176   29.5677 C   0  0  0  0  0  0  0  0  0  0  0  0
   10.0211  -17.7292   30.3060 O   0  0  0  0  0  0  0  0  0  0  0  0
   10.1384  -15.4552   30.2111 O   0  0  0  0  0  0  0  0  0  0  0  0
  2  1  1  6
  3  2  1  0
  4  3  1  0
  5  4  2  0
  6  7  1  0
  6  5  1  0
  7  8  2  0
  8  4  1  0
  9  2  1  0
  9 11  1  0
 10  9  2  0
 11 12  1  0
 12 13  1  0
 14 13  1  0
 15 11  1  0
 15 14  1  0
 15 16  1  1
 16 17  2  0
 19 18  1  1
 19 20  1  0
 19 21  1  0
 22 21  1  1
 22 23  1  0
 22 24  1  0
 23 16  1  0
 24 26  2  0
 24 25  1  0
M  END
$$$$
