HPL.pdb
     RDKit          3D

 26 27  0  0  1  0  0  0  0  0999 V2000
   11.7678  -16.8285   19.2478 N   0  0  0  0  0  0  0  0  0  0  0  0
   10.8712  -17.3451   20.2262 C   0  0  1  0  0  0  0  0  0  0  0  0
   11.5087  -18.4052   21.1092 C   0  0  0  0  0  0  0  0  0  0  0  0
   11.3243  -19.7282   20.4675 C   0  0  0  0  0  0  0  0  0  0  0  0
   12.0422  -20.3342   19.4837 C   0  0  0  0  0  0  0  0  0  0  0  0
   11.5123  -21.5369   19.2445 N   0  0  0  0  0  0  0  0  0  0  0  0
   10.4433  -21.7312   20.0699 C   0  0  0  0  0  0  0  0  0  0  0  0
   10.3398  -20.6145   20.8138 N   0  0  0  0  0  0  0  0  0  0  0  0
   10.2336  -16.2927   21.0676 C   0  0  0  0  0  0  0  0  0  0  0  0
   10.9745  -15.3893   21.5707 O   0  0  0  0  0  0  0  0  0  0  0  0
    8.8427  -16.3240   21.2814 N   0  0  0  0  0  0  0  0  0  0  0  0
    7.9021  -17.2957   20.8495 C   0  0  0  0  0  0  0  0  0  0  0  0
    6.5236  -16.7611   21.1743 C   0  0  0  0  0  0  0  0  0  0  0  0
    6.6934  -15.3769   21.6832 C   0  0  0  0  0  0  0  0  0  0  0  0
    8.1620  -15.2767   22.0292 C   0  0  1  0  0  0  0  0  0  0  0  0
    8.3906  -15.4304   23.4944 C   0  0  0  0  0  0  0  0  0  0  0  0
    8.7826  -16.5668   23.9602 O   0  0  0  0  0  0  0  0  0  0  0  0
    7.3517  -11.0482   26.3719 C   0  0  0  0  0  0  0  0  0  0  0  0
    7.1386  -12.5733   26.2106 C   0  0  2  0  0  0  0  0  0  0  0  0
    5.9366  -12.9235   27.0475 C   0  0  0  0  0  0  0  0  0  0  0  0
    8.4017  -13.2702   26.6012 C   0  0  0  0  0  0  0  0  0  0  0  0
    8.5649  -14.5650   25.8825 C   0  0  2  0  0  0  0  0  0  0  0  0
    8.2151  -14.4298   24.4640 N   0  0  0  0  0  0  0  0  0  0  0  0
    7.7960  -15.6298   26.5155 C   0  0  0  0  0  0  0  0  0  0  0  0
    6.6733  -16.1001   25.7820 O   0  0  0  0  0  0  0  0  0  0  0  0
    8.0224  -16.1566   27.6179 O   0  0  0  0  0  0  0  0  0  0  0  0
  2  1  1  1
  3  2  1  0
  4  3  1  0
  5  4  2  0
  6  7  1  0
  6  5  1  0
  7  8  2  0
  8  4  1  0
  9  2  1  0
  9 11  1  0
 10  9  2  0
 11 12  1  0
 12 13  1  0
 14 13  1  0
 15 11  1  0
 15 14  1  0
 15 16  1  1
 16 17  2  0
 19 18  1  1
 19 20  1  0
 19 21  1  0
 22 21  1  1
 22 23  1  0
 22 24  1  0
 23 16  1  0
 24 26  2  0
 24 25  1  0
M  END
$$$$
