HPL.pdb
     RDKit          3D

 26 27  0  0  1  0  0  0  0  0999 V2000
   11.1537  -16.6508   19.4807 N   0  0  0  0  0  0  0  0  0  0  0  0
    9.9805  -16.8539   20.2620 C   0  0  1  0  0  0  0  0  0  0  0  0
    9.7237  -18.3197   20.5706 C   0  0  0  0  0  0  0  0  0  0  0  0
    9.1848  -18.9715   19.3536 C   0  0  0  0  0  0  0  0  0  0  0  0
    8.2942  -18.5126   18.4335 C   0  0  0  0  0  0  0  0  0  0  0  0
    8.1274  -19.4477   17.4942 N   0  0  0  0  0  0  0  0  0  0  0  0
    8.9079  -20.5274   17.7888 C   0  0  0  0  0  0  0  0  0  0  0  0
    9.5503  -20.2216   18.9312 N   0  0  0  0  0  0  0  0  0  0  0  0
    9.9534  -16.0530   21.5190 C   0  0  0  0  0  0  0  0  0  0  0  0
   11.0601  -15.7601   22.0736 O   0  0  0  0  0  0  0  0  0  0  0  0
    8.7173  -15.6446   22.0545 N   0  0  0  0  0  0  0  0  0  0  0  0
    7.4148  -15.8412   21.5254 C   0  0  0  0  0  0  0  0  0  0  0  0
    6.4566  -15.0447   22.3849 C   0  0  0  0  0  0  0  0  0  0  0  0
    7.2708  -14.2629   23.3491 C   0  0  0  0  0  0  0  0  0  0  0  0
    8.6342  -14.9155   23.3119 C   0  0  1  0  0  0  0  0  0  0  0  0
    8.8362  -15.8277   24.4738 C   0  0  0  0  0  0  0  0  0  0  0  0
    8.6172  -17.0905   24.3353 O   0  0  0  0  0  0  0  0  0  0  0  0
   11.6473  -14.3678   27.4098 C   0  0  0  0  0  0  0  0  0  0  0  0
   10.1833  -14.2304   27.8950 C   0  0  2  0  0  0  0  0  0  0  0  0
   10.2184  -13.3192   29.0935 C   0  0  0  0  0  0  0  0  0  0  0  0
    9.6440  -15.5988   28.1606 C   0  0  0  0  0  0  0  0  0  0  0  0
    9.4046  -16.3543   26.8990 C   0  0  2  0  0  0  0  0  0  0  0  0
    9.2542  -15.4438   25.7583 N   0  0  0  0  0  0  0  0  0  0  0  0
    8.2563  -17.2448   27.0173 C   0  0  0  0  0  0  0  0  0  0  0  0
    8.4578  -18.4101   27.8053 O   0  0  0  0  0  0  0  0  0  0  0  0
    7.1365  -17.0870   26.5025 O   0  0  0  0  0  0  0  0  0  0  0  0
  2  1  1  1
  3  2  1  0
  4  3  1  0
  5  4  2  0
  6  7  1  0
  6  5  1  0
  7  8  2  0
  8  4  1  0
  9  2  1  0
  9 11  1  0
 10  9  2  0
 11 12  1  0
 12 13  1  0
 14 13  1  0
 15 11  1  0
 15 14  1  0
 15 16  1  1
 16 17  2  0
 19 18  1  1
 19 20  1  0
 19 21  1  0
 22 21  1  1
 22 23  1  0
 22 24  1  0
 23 16  1  0
 24 26  2  0
 24 25  1  0
M  END
$$$$
