HPL.pdb
     RDKit          3D

 26 27  0  0  1  0  0  0  0  0999 V2000
    6.9719  -18.6548   19.9310 N   0  0  0  0  0  0  0  0  0  0  0  0
    6.6250  -17.4547   20.6147 C   0  0  1  0  0  0  0  0  0  0  0  0
    5.7728  -17.7039   21.8482 C   0  0  0  0  0  0  0  0  0  0  0  0
    4.5527  -18.4389   21.4391 C   0  0  0  0  0  0  0  0  0  0  0  0
    3.3371  -17.9717   21.0461 C   0  0  0  0  0  0  0  0  0  0  0  0
    2.5521  -19.0119   20.7524 N   0  0  0  0  0  0  0  0  0  0  0  0
    3.2460  -20.1704   20.9485 C   0  0  0  0  0  0  0  0  0  0  0  0
    4.4706  -19.8039   21.3696 N   0  0  0  0  0  0  0  0  0  0  0  0
    7.7990  -16.6058   20.9656 C   0  0  0  0  0  0  0  0  0  0  0  0
    8.8666  -17.1799   21.3516 O   0  0  0  0  0  0  0  0  0  0  0  0
    7.6984  -15.2057   20.8614 N   0  0  0  0  0  0  0  0  0  0  0  0
    6.5554  -14.4202   20.5582 C   0  0  0  0  0  0  0  0  0  0  0  0
    7.0263  -12.9926   20.3811 C   0  0  0  0  0  0  0  0  0  0  0  0
    8.5091  -13.0026   20.4530 C   0  0  0  0  0  0  0  0  0  0  0  0
    8.8505  -14.3405   21.0693 C   0  0  1  0  0  0  0  0  0  0  0  0
    9.1666  -14.2097   22.5204 C   0  0  0  0  0  0  0  0  0  0  0  0
    9.9333  -13.2532   22.9197 O   0  0  0  0  0  0  0  0  0  0  0  0
    6.0834  -12.1669   26.4877 C   0  0  0  0  0  0  0  0  0  0  0  0
    7.3488  -13.0581   26.4427 C   0  0  2  0  0  0  0  0  0  0  0  0
    8.4596  -12.2471   27.0562 C   0  0  0  0  0  0  0  0  0  0  0  0
    7.5823  -13.4747   25.0265 C   0  0  0  0  0  0  0  0  0  0  0  0
    8.4979  -14.6468   24.9379 C   0  0  2  0  0  0  0  0  0  0  0  0
    8.7025  -15.0531   23.5429 N   0  0  0  0  0  0  0  0  0  0  0  0
    8.0206  -15.7620   25.7467 C   0  0  0  0  0  0  0  0  0  0  0  0
    8.6190  -15.8948   27.0288 O   0  0  0  0  0  0  0  0  0  0  0  0
    7.1561  -16.5957   25.4281 O   0  0  0  0  0  0  0  0  0  0  0  0
  2  1  1  1
  3  2  1  0
  4  3  1  0
  5  4  2  0
  6  7  1  0
  6  5  1  0
  7  8  2  0
  8  4  1  0
  9  2  1  0
  9 11  1  0
 10  9  2  0
 11 12  1  0
 12 13  1  0
 14 13  1  0
 15 11  1  0
 15 14  1  0
 15 16  1  1
 16 17  2  0
 19 18  1  6
 19 20  1  0
 19 21  1  0
 22 21  1  6
 22 23  1  0
 22 24  1  0
 23 16  1  0
 24 26  2  0
 24 25  1  0
M  END
$$$$
