HPL.pdb
     RDKit          3D

 26 27  0  0  1  0  0  0  0  0999 V2000
   11.2452  -16.7793   19.4335 N   0  0  0  0  0  0  0  0  0  0  0  0
    9.9018  -16.5949   19.8687 C   0  0  1  0  0  0  0  0  0  0  0  0
    9.1332  -17.9013   19.9796 C   0  0  0  0  0  0  0  0  0  0  0  0
    8.6608  -18.2879   18.6292 C   0  0  0  0  0  0  0  0  0  0  0  0
    8.8082  -17.6560   17.4336 C   0  0  0  0  0  0  0  0  0  0  0  0
    8.2305  -18.3958   16.4831 N   0  0  0  0  0  0  0  0  0  0  0  0
    7.7003  -19.5199   17.0462 C   0  0  0  0  0  0  0  0  0  0  0  0
    7.9715  -19.4404   18.3620 N   0  0  0  0  0  0  0  0  0  0  0  0
    9.7854  -15.8223   21.1382 C   0  0  0  0  0  0  0  0  0  0  0  0
   10.8133  -15.7208   21.8809 O   0  0  0  0  0  0  0  0  0  0  0  0
    8.5548  -15.2302   21.4793 N   0  0  0  0  0  0  0  0  0  0  0  0
    7.3478  -15.2036   20.7325 C   0  0  0  0  0  0  0  0  0  0  0  0
    6.3924  -14.2796   21.4570 C   0  0  0  0  0  0  0  0  0  0  0  0
    7.1409  -13.6584   22.5785 C   0  0  0  0  0  0  0  0  0  0  0  0
    8.3719  -14.5218   22.7379 C   0  0  1  0  0  0  0  0  0  0  0  0
    8.2271  -15.4770   23.8735 C   0  0  0  0  0  0  0  0  0  0  0  0
    7.7312  -16.6475   23.6593 O   0  0  0  0  0  0  0  0  0  0  0  0
   10.4911  -13.8847   28.5981 C   0  0  0  0  0  0  0  0  0  0  0  0
    9.6502  -14.2694   27.3562 C   0  0  2  0  0  0  0  0  0  0  0  0
    8.5782  -13.2192   27.2292 C   0  0  0  0  0  0  0  0  0  0  0  0
    9.1458  -15.6640   27.5415 C   0  0  0  0  0  0  0  0  0  0  0  0
    8.6412  -16.2445   26.2655 C   0  0  2  0  0  0  0  0  0  0  0  0
    8.5847  -15.2284   25.2085 N   0  0  0  0  0  0  0  0  0  0  0  0
    7.3463  -16.8900   26.4455 C   0  0  0  0  0  0  0  0  0  0  0  0
    7.3585  -18.1006   27.1896 O   0  0  0  0  0  0  0  0  0  0  0  0
    6.2504  -16.4913   26.0165 O   0  0  0  0  0  0  0  0  0  0  0  0
  2  1  1  1
  3  2  1  0
  4  3  1  0
  5  4  2  0
  6  7  1  0
  6  5  1  0
  7  8  2  0
  8  4  1  0
  9  2  1  0
  9 11  1  0
 10  9  2  0
 11 12  1  0
 12 13  1  0
 14 13  1  0
 15 11  1  0
 15 14  1  0
 15 16  1  1
 16 17  2  0
 19 18  1  1
 19 20  1  0
 19 21  1  0
 22 21  1  1
 22 23  1  0
 22 24  1  0
 23 16  1  0
 24 26  2  0
 24 25  1  0
M  END
$$$$
