HPL.pdb
     RDKit          3D

 26 27  0  0  1  0  0  0  0  0999 V2000
    9.0235  -18.3623   18.9711 N   0  0  0  0  0  0  0  0  0  0  0  0
    8.0319  -17.4640   19.4589 C   0  0  1  0  0  0  0  0  0  0  0  0
    6.7844  -18.1759   19.9556 C   0  0  0  0  0  0  0  0  0  0  0  0
    6.2492  -19.0137   18.8566 C   0  0  0  0  0  0  0  0  0  0  0  0
    5.7640  -18.6564   17.6370 C   0  0  0  0  0  0  0  0  0  0  0  0
    5.4147  -19.7619   16.9734 N   0  0  0  0  0  0  0  0  0  0  0  0
    5.6687  -20.8541   17.7509 C   0  0  0  0  0  0  0  0  0  0  0  0
    6.1798  -20.3804   18.9023 N   0  0  0  0  0  0  0  0  0  0  0  0
    8.5363  -16.5259   20.5018 C   0  0  0  0  0  0  0  0  0  0  0  0
    9.3061  -16.9832   21.4055 O   0  0  0  0  0  0  0  0  0  0  0  0
    8.1531  -15.1721   20.4605 N   0  0  0  0  0  0  0  0  0  0  0  0
    7.2631  -14.5308   19.5595 C   0  0  0  0  0  0  0  0  0  0  0  0
    7.3485  -13.0434   19.8269 C   0  0  0  0  0  0  0  0  0  0  0  0
    8.4294  -12.8332   20.8226 C   0  0  0  0  0  0  0  0  0  0  0  0
    8.6716  -14.2030   21.4152 C   0  0  1  0  0  0  0  0  0  0  0  0
    8.0073  -14.3506   22.7418 C   0  0  0  0  0  0  0  0  0  0  0  0
    6.7665  -14.0254   22.8703 O   0  0  0  0  0  0  0  0  0  0  0  0
    5.9115  -12.3440   27.1769 C   0  0  0  0  0  0  0  0  0  0  0  0
    7.3317  -12.8908   26.8913 C   0  0  2  0  0  0  0  0  0  0  0  0
    8.2639  -11.7109   26.9734 C   0  0  0  0  0  0  0  0  0  0  0  0
    7.3123  -13.5863   25.5685 C   0  0  0  0  0  0  0  0  0  0  0  0
    8.6614  -14.0917   25.1887 C   0  0  2  0  0  0  0  0  0  0  0  0
    8.6132  -14.8227   23.9174 N   0  0  0  0  0  0  0  0  0  0  0  0
    9.2440  -14.9102   26.2453 C   0  0  0  0  0  0  0  0  0  0  0  0
    9.8434  -16.1276   25.8231 O   0  0  0  0  0  0  0  0  0  0  0  0
    9.2652  -14.6516   27.4604 O   0  0  0  0  0  0  0  0  0  0  0  0
  2  1  1  1
  3  2  1  0
  4  3  1  0
  5  4  2  0
  6  7  1  0
  6  5  1  0
  7  8  2  0
  8  4  1  0
  9  2  1  0
  9 11  1  0
 10  9  2  0
 11 12  1  0
 12 13  1  0
 14 13  1  0
 15 11  1  0
 15 14  1  0
 15 16  1  1
 16 17  2  0
 19 18  1  6
 19 20  1  0
 19 21  1  0
 22 21  1  1
 22 23  1  0
 22 24  1  0
 23 16  1  0
 24 26  2  0
 24 25  1  0
M  END
$$$$
