HPL.pdb
     RDKit          3D

 26 27  0  0  1  0  0  0  0  0999 V2000
   11.6518  -18.1617   20.1218 N   0  0  0  0  0  0  0  0  0  0  0  0
   10.3361  -18.0689   20.6590 C   0  0  1  0  0  0  0  0  0  0  0  0
   10.0734  -19.0883   21.7552 C   0  0  0  0  0  0  0  0  0  0  0  0
    9.7919  -20.3992   21.1240 C   0  0  0  0  0  0  0  0  0  0  0  0
    9.1358  -20.6946   19.9695 C   0  0  0  0  0  0  0  0  0  0  0  0
    9.1488  -22.0190   19.7953 N   0  0  0  0  0  0  0  0  0  0  0  0
    9.8146  -22.6040   20.8328 C   0  0  0  0  0  0  0  0  0  0  0  0
   10.2029  -21.5992   21.6396 N   0  0  0  0  0  0  0  0  0  0  0  0
    9.9794  -16.7018   21.1341 C   0  0  0  0  0  0  0  0  0  0  0  0
   10.8501  -16.0414   21.7852 O   0  0  0  0  0  0  0  0  0  0  0  0
    8.7023  -16.1810   20.8526 N   0  0  0  0  0  0  0  0  0  0  0  0
    7.6685  -16.7497   20.0632 C   0  0  0  0  0  0  0  0  0  0  0  0
    6.5827  -15.7040   19.9252 C   0  0  0  0  0  0  0  0  0  0  0  0
    7.0891  -14.4544   20.5464 C   0  0  0  0  0  0  0  0  0  0  0  0
    8.2682  -14.8968   21.3833 C   0  0  1  0  0  0  0  0  0  0  0  0
    7.9048  -15.0088   22.8249 C   0  0  0  0  0  0  0  0  0  0  0  0
    8.1714  -16.0959   23.4644 O   0  0  0  0  0  0  0  0  0  0  0  0
    5.3500  -11.9033   27.5101 C   0  0  0  0  0  0  0  0  0  0  0  0
    6.6347  -12.6277   27.0386 C   0  0  2  0  0  0  0  0  0  0  0  0
    7.7922  -11.8457   27.6012 C   0  0  0  0  0  0  0  0  0  0  0  0
    6.6037  -12.7204   25.5472 C   0  0  0  0  0  0  0  0  0  0  0  0
    7.4127  -13.8671   25.0467 C   0  0  2  0  0  0  0  0  0  0  0  0
    7.2739  -14.0173   23.5938 N   0  0  0  0  0  0  0  0  0  0  0  0
    7.0738  -15.1046   25.7391 C   0  0  0  0  0  0  0  0  0  0  0  0
    8.0087  -15.5408   26.7164 O   0  0  0  0  0  0  0  0  0  0  0  0
    6.0634  -15.8051   25.5590 O   0  0  0  0  0  0  0  0  0  0  0  0
  2  1  1  1
  3  2  1  0
  4  3  1  0
  5  4  2  0
  6  7  1  0
  6  5  1  0
  7  8  2  0
  8  4  1  0
  9  2  1  0
  9 11  1  0
 10  9  2  0
 11 12  1  0
 12 13  1  0
 14 13  1  0
 15 11  1  0
 15 14  1  0
 15 16  1  1
 16 17  2  0
 19 18  1  6
 19 20  1  0
 19 21  1  0
 22 21  1  1
 22 23  1  0
 22 24  1  0
 23 16  1  0
 24 26  2  0
 24 25  1  0
M  END
$$$$
