HPD.pdb
     RDKit          3D

 26 27  0  0  1  0  0  0  0  0999 V2000
    9.6523  -16.8690   20.0757 N   0  0  0  0  0  0  0  0  0  0  0  0
    8.8132  -17.0234   21.2766 C   0  0  1  0  0  0  0  0  0  0  0  0
    8.2156  -18.3801   21.3314 C   0  0  0  0  0  0  0  0  0  0  0  0
    7.4845  -18.8190   20.1409 C   0  0  0  0  0  0  0  0  0  0  0  0
    6.1793  -18.6130   19.8028 C   0  0  0  0  0  0  0  0  0  0  0  0
    5.8989  -19.1987   18.6115 N   0  0  0  0  0  0  0  0  0  0  0  0
    7.0540  -19.7652   18.2287 C   0  0  0  0  0  0  0  0  0  0  0  0
    8.0189  -19.5461   19.1381 N   0  0  0  0  0  0  0  0  0  0  0  0
    9.4858  -16.5420   22.4778 C   0  0  0  0  0  0  0  0  0  0  0  0
   10.7650  -16.4899   22.4443 O   0  0  0  0  0  0  0  0  0  0  0  0
    8.8637  -16.1296   23.6661 N   0  0  0  0  0  0  0  0  0  0  0  0
    7.4521  -16.0698   23.9368 C   0  0  0  0  0  0  0  0  0  0  0  0
    7.2531  -14.9095   24.8974 C   0  0  0  0  0  0  0  0  0  0  0  0
    8.6335  -14.5243   25.3279 C   0  0  0  0  0  0  0  0  0  0  0  0
    9.5325  -15.6623   24.8592 C   0  0  1  0  0  0  0  0  0  0  0  0
    9.5042  -16.7868   25.8472 C   0  0  0  0  0  0  0  0  0  0  0  0
    8.5427  -17.6242   25.8834 O   0  0  0  0  0  0  0  0  0  0  0  0
   10.5330  -16.9997   26.8036 N   0  0  0  0  0  0  0  0  0  0  0  0
   10.9301  -18.3509   27.2184 C   0  0  1  0  0  0  0  0  0  0  0  0
   12.3620  -18.6148   26.9046 C   0  0  0  0  0  0  0  0  0  0  0  0
   12.4958  -19.2243   25.5755 C   0  0  0  0  0  0  0  0  0  0  0  0
   11.4794  -19.4256   24.8670 O   0  0  0  0  0  0  0  0  0  0  0  0
   10.6943  -18.4593   28.6612 C   0  0  0  0  0  0  0  0  0  0  0  0
   10.8347  -19.5519   29.2427 O   0  0  0  0  0  0  0  0  0  0  0  0
   13.7239  -19.6046   25.0366 O   0  0  0  0  0  0  0  0  0  0  0  0
   10.3145  -17.3546   29.3927 O   0  0  0  0  0  0  0  0  0  0  0  0
  2  1  1  6
  3  2  1  0
  4  3  1  0
  5  4  2  0
  6  5  1  0
  7  6  1  0
  7  8  2  0
  8  4  1  0
  9  2  1  0
  9 11  1  0
 10  9  2  0
 11 15  1  0
 12 11  1  0
 12 13  1  0
 13 14  1  0
 15 16  1  1
 15 14  1  0
 16 17  2  0
 18 19  1  0
 18 16  1  0
 20 21  1  0
 19 20  1  1
 21 25  1  0
 22 21  2  0
 23 19  1  0
 24 23  2  0
 26 23  1  0
M  END
$$$$
