HPD.pdb
     RDKit          3D

 26 27  0  0  1  0  0  0  0  0999 V2000
   10.0285  -14.4029   20.8257 N   0  0  0  0  0  0  0  0  0  0  0  0
    8.8117  -14.1343   21.6114 C   0  0  1  0  0  0  0  0  0  0  0  0
    7.6015  -14.5802   20.8783 C   0  0  0  0  0  0  0  0  0  0  0  0
    7.5572  -14.2750   19.4468 C   0  0  0  0  0  0  0  0  0  0  0  0
    7.6075  -13.0655   18.8185 C   0  0  0  0  0  0  0  0  0  0  0  0
    7.5279  -13.2248   17.4735 N   0  0  0  0  0  0  0  0  0  0  0  0
    7.4281  -14.5511   17.2917 C   0  0  0  0  0  0  0  0  0  0  0  0
    7.4442  -15.1980   18.4695 N   0  0  0  0  0  0  0  0  0  0  0  0
    8.9498  -14.5686   22.9969 C   0  0  0  0  0  0  0  0  0  0  0  0
    9.9882  -15.2599   23.2867 O   0  0  0  0  0  0  0  0  0  0  0  0
    8.0531  -14.2997   24.0422 N   0  0  0  0  0  0  0  0  0  0  0  0
    6.7083  -13.8007   23.9315 C   0  0  0  0  0  0  0  0  0  0  0  0
    6.4639  -12.9609   25.1740 C   0  0  0  0  0  0  0  0  0  0  0  0
    7.6299  -13.2458   26.0675 C   0  0  0  0  0  0  0  0  0  0  0  0
    8.3190  -14.4590   25.4539 C   0  0  1  0  0  0  0  0  0  0  0  0
    7.6371  -15.7186   25.8895 C   0  0  0  0  0  0  0  0  0  0  0  0
    6.5796  -16.1423   25.3157 O   0  0  0  0  0  0  0  0  0  0  0  0
    8.1126  -16.5229   26.9598 N   0  0  0  0  0  0  0  0  0  0  0  0
    8.7875  -17.8042   26.7182 C   0  0  1  0  0  0  0  0  0  0  0  0
    9.8224  -17.6790   25.6544 C   0  0  0  0  0  0  0  0  0  0  0  0
   10.5630  -18.9379   25.5035 C   0  0  0  0  0  0  0  0  0  0  0  0
   11.7389  -19.0349   25.9318 O   0  0  0  0  0  0  0  0  0  0  0  0
    9.4005  -18.2278   27.9808 C   0  0  0  0  0  0  0  0  0  0  0  0
    9.0724  -19.3065   28.5102 O   0  0  0  0  0  0  0  0  0  0  0  0
   10.0203  -20.0677   24.8933 O   0  0  0  0  0  0  0  0  0  0  0  0
   10.3470  -17.4386   28.5979 O   0  0  0  0  0  0  0  0  0  0  0  0
  2  1  1  6
  3  2  1  0
  4  3  1  0
  5  4  2  0
  6  5  1  0
  7  6  1  0
  7  8  2  0
  8  4  1  0
  9  2  1  0
  9 11  1  0
 10  9  2  0
 11 15  1  0
 12 11  1  0
 12 13  1  0
 13 14  1  0
 15 16  1  1
 15 14  1  0
 16 17  2  0
 18 19  1  0
 18 16  1  0
 20 21  1  0
 19 20  1  6
 21 25  1  0
 22 21  2  0
 23 19  1  0
 24 23  2  0
 26 23  1  0
M  END
$$$$
