HPD.pdb
     RDKit          3D

 26 27  0  0  1  0  0  0  0  0999 V2000
   10.9768  -13.8082   18.7836 N   0  0  0  0  0  0  0  0  0  0  0  0
    9.8080  -14.0598   19.6443 C   0  0  1  0  0  0  0  0  0  0  0  0
    8.8391  -14.9574   18.9687 C   0  0  0  0  0  0  0  0  0  0  0  0
    8.5051  -14.6298   17.5811 C   0  0  0  0  0  0  0  0  0  0  0  0
    7.9370  -13.4991   17.0722 C   0  0  0  0  0  0  0  0  0  0  0  0
    7.7900  -13.6048   15.7276 N   0  0  0  0  0  0  0  0  0  0  0  0
    8.2775  -14.8183   15.4248 C   0  0  0  0  0  0  0  0  0  0  0  0
    8.7121  -15.4486   16.5292 N   0  0  0  0  0  0  0  0  0  0  0  0
   10.1977  -14.4040   21.0070 C   0  0  0  0  0  0  0  0  0  0  0  0
   11.4489  -14.5643   21.2289 O   0  0  0  0  0  0  0  0  0  0  0  0
    9.3316  -14.5751   22.0976 N   0  0  0  0  0  0  0  0  0  0  0  0
    7.8997  -14.7088   22.0622 C   0  0  0  0  0  0  0  0  0  0  0  0
    7.3836  -14.0865   23.3488 C   0  0  0  0  0  0  0  0  0  0  0  0
    8.6047  -13.8552   24.1821 C   0  0  0  0  0  0  0  0  0  0  0  0
    9.7169  -14.6338   23.4895 C   0  0  1  0  0  0  0  0  0  0  0  0
    9.6736  -16.0739   23.8965 C   0  0  0  0  0  0  0  0  0  0  0  0
    8.8130  -16.8821   23.4137 O   0  0  0  0  0  0  0  0  0  0  0  0
   10.5763  -16.6371   24.8380 N   0  0  0  0  0  0  0  0  0  0  0  0
   10.5890  -18.0768   25.1254 C   0  0  1  0  0  0  0  0  0  0  0  0
   11.9566  -18.6471   24.9739 C   0  0  0  0  0  0  0  0  0  0  0  0
   12.4715  -18.4020   23.6208 C   0  0  0  0  0  0  0  0  0  0  0  0
   11.8507  -18.8360   22.6198 O   0  0  0  0  0  0  0  0  0  0  0  0
   10.1080  -18.2594   26.4982 C   0  0  0  0  0  0  0  0  0  0  0  0
    9.8366  -17.2723   27.2078 O   0  0  0  0  0  0  0  0  0  0  0  0
   13.6462  -17.6932   23.3741 O   0  0  0  0  0  0  0  0  0  0  0  0
    9.9499  -19.5247   27.0212 O   0  0  0  0  0  0  0  0  0  0  0  0
  2  1  1  6
  3  2  1  0
  4  3  1  0
  5  4  2  0
  6  5  1  0
  7  6  1  0
  7  8  2  0
  8  4  1  0
  9  2  1  0
  9 11  1  0
 10  9  2  0
 11 15  1  0
 12 11  1  0
 12 13  1  0
 13 14  1  0
 15 16  1  1
 15 14  1  0
 16 17  2  0
 18 19  1  0
 18 16  1  0
 20 21  1  0
 19 20  1  1
 21 25  1  0
 22 21  2  0
 23 19  1  0
 24 23  2  0
 26 23  1  0
M  END
$$$$
