HPD.pdb
     RDKit          3D

 26 27  0  0  1  0  0  0  0  0999 V2000
    9.8472  -14.1153   20.6238 N   0  0  0  0  0  0  0  0  0  0  0  0
    8.6486  -14.0384   21.4768 C   0  0  1  0  0  0  0  0  0  0  0  0
    7.4730  -14.6255   20.7883 C   0  0  0  0  0  0  0  0  0  0  0  0
    7.2944  -14.2642   19.3805 C   0  0  0  0  0  0  0  0  0  0  0  0
    7.2397  -13.0290   18.8049 C   0  0  0  0  0  0  0  0  0  0  0  0
    7.0531  -13.1366   17.4654 N   0  0  0  0  0  0  0  0  0  0  0  0
    6.9947  -14.4574   17.2334 C   0  0  0  0  0  0  0  0  0  0  0  0
    7.1382  -15.1507   18.3757 N   0  0  0  0  0  0  0  0  0  0  0  0
    8.9177  -14.4882   22.8378 C   0  0  0  0  0  0  0  0  0  0  0  0
   10.0808  -14.9719   23.0690 O   0  0  0  0  0  0  0  0  0  0  0  0
    8.0231  -14.4400   23.9178 N   0  0  0  0  0  0  0  0  0  0  0  0
    6.5945  -14.2803   23.8610 C   0  0  0  0  0  0  0  0  0  0  0  0
    6.2024  -13.5202   25.1170 C   0  0  0  0  0  0  0  0  0  0  0  0
    7.4359  -13.5129   25.9640 C   0  0  0  0  0  0  0  0  0  0  0  0
    8.3731  -14.5261   25.3175 C   0  0  1  0  0  0  0  0  0  0  0  0
    8.0320  -15.9116   25.7708 C   0  0  0  0  0  0  0  0  0  0  0  0
    6.9599  -16.4944   25.3992 O   0  0  0  0  0  0  0  0  0  0  0  0
    8.8671  -16.6677   26.6365 N   0  0  0  0  0  0  0  0  0  0  0  0
    8.7049  -18.1190   26.7878 C   0  0  1  0  0  0  0  0  0  0  0  0
    9.4042  -18.8583   25.7002 C   0  0  0  0  0  0  0  0  0  0  0  0
   10.8189  -18.4699   25.6383 C   0  0  0  0  0  0  0  0  0  0  0  0
   11.4977  -18.3847   26.6906 O   0  0  0  0  0  0  0  0  0  0  0  0
    9.2534  -18.4929   28.0949 C   0  0  0  0  0  0  0  0  0  0  0  0
    9.8626  -17.6547   28.7861 O   0  0  0  0  0  0  0  0  0  0  0  0
   11.4736  -18.1812   24.4419 O   0  0  0  0  0  0  0  0  0  0  0  0
    9.1021  -19.7756   28.5757 O   0  0  0  0  0  0  0  0  0  0  0  0
  2  1  1  6
  3  2  1  0
  4  3  1  0
  5  4  2  0
  6  5  1  0
  7  6  1  0
  7  8  2  0
  8  4  1  0
  9  2  1  0
  9 11  1  0
 10  9  2  0
 11 15  1  0
 12 11  1  0
 12 13  1  0
 13 14  1  0
 15 16  1  1
 15 14  1  0
 16 17  2  0
 18 19  1  0
 18 16  1  0
 20 21  1  0
 19 20  1  6
 21 25  1  0
 22 21  2  0
 23 19  1  0
 24 23  2  0
 26 23  1  0
M  END
$$$$
