HPD.pdb
     RDKit          3D

 26 27  0  0  1  0  0  0  0  0999 V2000
   10.0234  -14.7502   21.1145 N   0  0  0  0  0  0  0  0  0  0  0  0
    8.8914  -14.2479   21.9122 C   0  0  1  0  0  0  0  0  0  0  0  0
    7.6252  -14.3351   21.1440 C   0  0  0  0  0  0  0  0  0  0  0  0
    7.6952  -13.9679   19.7282 C   0  0  0  0  0  0  0  0  0  0  0  0
    7.9495  -12.7539   19.1612 C   0  0  0  0  0  0  0  0  0  0  0  0
    7.9135  -12.8443   17.8080 N   0  0  0  0  0  0  0  0  0  0  0  0
    7.6330  -14.1332   17.5589 C   0  0  0  0  0  0  0  0  0  0  0  0
    7.4984  -14.8236   18.7040 N   0  0  0  0  0  0  0  0  0  0  0  0
    8.8905  -14.7960   23.2638 C   0  0  0  0  0  0  0  0  0  0  0  0
    9.7616  -15.6981   23.5239 O   0  0  0  0  0  0  0  0  0  0  0  0
    8.0262  -14.4277   24.3060 N   0  0  0  0  0  0  0  0  0  0  0  0
    6.7108  -13.8571   24.1883 C   0  0  0  0  0  0  0  0  0  0  0  0
    6.5334  -12.9482   25.3930 C   0  0  0  0  0  0  0  0  0  0  0  0
    7.6941  -13.2590   26.2847 C   0  0  0  0  0  0  0  0  0  0  0  0
    8.3032  -14.5370   25.7204 C   0  0  1  0  0  0  0  0  0  0  0  0
    7.5566  -15.7336   26.2226 C   0  0  0  0  0  0  0  0  0  0  0  0
    6.4428  -16.0916   25.7144 O   0  0  0  0  0  0  0  0  0  0  0  0
    8.0288  -16.5464   27.2879 N   0  0  0  0  0  0  0  0  0  0  0  0
    8.4314  -17.9415   27.0709 C   0  0  1  0  0  0  0  0  0  0  0  0
    9.2549  -18.0819   25.8377 C   0  0  0  0  0  0  0  0  0  0  0  0
    9.7779  -19.4488   25.7186 C   0  0  0  0  0  0  0  0  0  0  0  0
    9.0507  -20.3668   25.2669 O   0  0  0  0  0  0  0  0  0  0  0  0
    9.1941  -18.3712   28.2468 C   0  0  0  0  0  0  0  0  0  0  0  0
    9.1923  -19.5665   28.5973 O   0  0  0  0  0  0  0  0  0  0  0  0
   11.0755  -19.7984   26.0890 O   0  0  0  0  0  0  0  0  0  0  0  0
    9.9227  -17.4590   28.9794 O   0  0  0  0  0  0  0  0  0  0  0  0
  2  1  1  6
  3  2  1  0
  4  3  1  0
  5  4  2  0
  6  5  1  0
  7  6  1  0
  7  8  2  0
  8  4  1  0
  9  2  1  0
  9 11  1  0
 10  9  2  0
 11 15  1  0
 12 11  1  0
 12 13  1  0
 13 14  1  0
 15 16  1  1
 15 14  1  0
 16 17  2  0
 18 19  1  0
 18 16  1  0
 20 21  1  0
 19 20  1  6
 21 25  1  0
 22 21  2  0
 23 19  1  0
 24 23  2  0
 26 23  1  0
M  END
$$$$
