HPD.pdb
     RDKit          3D

 26 27  0  0  1  0  0  0  0  0999 V2000
    9.6310  -16.0776   15.7109 N   0  0  0  0  0  0  0  0  0  0  0  0
    8.6649  -15.6098   16.7198 C   0  0  1  0  0  0  0  0  0  0  0  0
    7.5656  -16.5911   16.8920 C   0  0  0  0  0  0  0  0  0  0  0  0
    7.8933  -17.8149   17.6262 C   0  0  0  0  0  0  0  0  0  0  0  0
    9.1046  -18.2615   18.0660 C   0  0  0  0  0  0  0  0  0  0  0  0
    8.9704  -19.4537   18.6995 N   0  0  0  0  0  0  0  0  0  0  0  0
    7.6575  -19.7271   18.6388 C   0  0  0  0  0  0  0  0  0  0  0  0
    6.9947  -18.7507   17.9960 N   0  0  0  0  0  0  0  0  0  0  0  0
    9.3266  -15.1310   17.9282 C   0  0  0  0  0  0  0  0  0  0  0  0
   10.6008  -15.2504   17.9772 O   0  0  0  0  0  0  0  0  0  0  0  0
    8.6992  -14.5511   19.0413 N   0  0  0  0  0  0  0  0  0  0  0  0
    7.2897  -14.3395   19.2366 C   0  0  0  0  0  0  0  0  0  0  0  0
    7.1622  -13.0781   20.0740 C   0  0  0  0  0  0  0  0  0  0  0  0
    8.5543  -12.7776   20.5330 C   0  0  0  0  0  0  0  0  0  0  0  0
    9.3609  -14.0315   20.2166 C   0  0  1  0  0  0  0  0  0  0  0  0
    9.1884  -15.0475   21.3026 C   0  0  0  0  0  0  0  0  0  0  0  0
    8.2269  -15.8856   21.2910 O   0  0  0  0  0  0  0  0  0  0  0  0
   10.0720  -15.1503   22.4104 N   0  0  0  0  0  0  0  0  0  0  0  0
   10.5790  -16.4484   22.8721 C   0  0  1  0  0  0  0  0  0  0  0  0
   12.0543  -16.5481   22.6939 C   0  0  0  0  0  0  0  0  0  0  0  0
   12.5669  -17.7797   23.3075 C   0  0  0  0  0  0  0  0  0  0  0  0
   11.7715  -18.6436   23.7507 O   0  0  0  0  0  0  0  0  0  0  0  0
   10.2245  -16.5850   24.2881 C   0  0  0  0  0  0  0  0  0  0  0  0
    9.9948  -15.5755   24.9807 O   0  0  0  0  0  0  0  0  0  0  0  0
   13.9278  -18.0551   23.4309 O   0  0  0  0  0  0  0  0  0  0  0  0
   10.1409  -17.8311   24.8710 O   0  0  0  0  0  0  0  0  0  0  0  0
  2  1  1  6
  3  2  1  0
  4  3  1  0
  5  4  2  0
  6  5  1  0
  7  6  1  0
  7  8  2  0
  8  4  1  0
  9  2  1  0
  9 11  1  0
 10  9  2  0
 11 15  1  0
 12 11  1  0
 12 13  1  0
 13 14  1  0
 15 16  1  1
 15 14  1  0
 16 17  2  0
 18 19  1  0
 18 16  1  0
 20 21  1  0
 19 20  1  1
 21 25  1  0
 22 21  2  0
 23 19  1  0
 24 23  2  0
 26 23  1  0
M  END
$$$$
