HPD.pdb
     RDKit          3D

 26 27  0  0  1  0  0  0  0  0999 V2000
    9.3727  -15.7457   14.9184 N   0  0  0  0  0  0  0  0  0  0  0  0
    8.5576  -15.3194   16.0691 C   0  0  1  0  0  0  0  0  0  0  0  0
    7.4998  -16.3167   16.3644 C   0  0  0  0  0  0  0  0  0  0  0  0
    7.9424  -17.5797   16.9589 C   0  0  0  0  0  0  0  0  0  0  0  0
    7.6003  -18.1394   18.1546 C   0  0  0  0  0  0  0  0  0  0  0  0
    8.2460  -19.3199   18.3289 N   0  0  0  0  0  0  0  0  0  0  0  0
    8.9874  -19.4709   17.2202 C   0  0  0  0  0  0  0  0  0  0  0  0
    8.8164  -18.4322   16.3849 N   0  0  0  0  0  0  0  0  0  0  0  0
    9.3821  -14.8713   17.1857 C   0  0  0  0  0  0  0  0  0  0  0  0
   10.6508  -14.9820   17.0502 O   0  0  0  0  0  0  0  0  0  0  0  0
    8.9166  -14.3297   18.3935 N   0  0  0  0  0  0  0  0  0  0  0  0
    7.5492  -14.1954   18.8201 C   0  0  0  0  0  0  0  0  0  0  0  0
    7.4946  -12.9453   19.6821 C   0  0  0  0  0  0  0  0  0  0  0  0
    8.9254  -12.5712   19.9098 C   0  0  0  0  0  0  0  0  0  0  0  0
    9.7342  -13.7785   19.4503 C   0  0  1  0  0  0  0  0  0  0  0  0
    9.7969  -14.8056   20.5377 C   0  0  0  0  0  0  0  0  0  0  0  0
    8.8472  -15.6344   20.7337 O   0  0  0  0  0  0  0  0  0  0  0  0
   10.9046  -14.9299   21.4188 N   0  0  0  0  0  0  0  0  0  0  0  0
   11.0304  -16.0655   22.3407 C   0  0  1  0  0  0  0  0  0  0  0  0
   12.4534  -16.3116   22.7056 C   0  0  0  0  0  0  0  0  0  0  0  0
   13.2235  -16.7314   21.5280 C   0  0  0  0  0  0  0  0  0  0  0  0
   12.6518  -17.3099   20.5720 O   0  0  0  0  0  0  0  0  0  0  0  0
   10.2420  -15.7552   23.5370 C   0  0  0  0  0  0  0  0  0  0  0  0
    9.7654  -14.6160   23.7001 O   0  0  0  0  0  0  0  0  0  0  0  0
   14.5957  -16.5186   21.4050 O   0  0  0  0  0  0  0  0  0  0  0  0
   10.0179  -16.7192   24.4963 O   0  0  0  0  0  0  0  0  0  0  0  0
  2  1  1  6
  3  2  1  0
  4  3  1  0
  5  4  2  0
  6  5  1  0
  7  6  1  0
  7  8  2  0
  8  4  1  0
  9  2  1  0
  9 11  1  0
 10  9  2  0
 11 15  1  0
 12 11  1  0
 12 13  1  0
 13 14  1  0
 15 16  1  1
 15 14  1  0
 16 17  2  0
 18 19  1  0
 18 16  1  0
 20 21  1  0
 19 20  1  1
 21 25  1  0
 22 21  2  0
 23 19  1  0
 24 23  2  0
 26 23  1  0
M  END
$$$$
