HPD.pdb
     RDKit          3D

 26 27  0  0  1  0  0  0  0  0999 V2000
   11.2615  -13.9363   17.9790 N   0  0  0  0  0  0  0  0  0  0  0  0
   10.0165  -14.2081   18.7181 C   0  0  1  0  0  0  0  0  0  0  0  0
    9.1954  -15.2226   18.0128 C   0  0  0  0  0  0  0  0  0  0  0  0
    8.9116  -14.9636   16.5997 C   0  0  0  0  0  0  0  0  0  0  0  0
    8.3305  -13.8745   16.0198 C   0  0  0  0  0  0  0  0  0  0  0  0
    8.2454  -14.0402   14.6759 N   0  0  0  0  0  0  0  0  0  0  0  0
    8.7839  -15.2481   14.4457 C   0  0  0  0  0  0  0  0  0  0  0  0
    9.1901  -15.8176   15.5931 N   0  0  0  0  0  0  0  0  0  0  0  0
   10.2613  -14.4198   20.1402 C   0  0  0  0  0  0  0  0  0  0  0  0
   11.4768  -14.6079   20.4974 O   0  0  0  0  0  0  0  0  0  0  0  0
    9.2911  -14.4359   21.1539 N   0  0  0  0  0  0  0  0  0  0  0  0
    7.8627  -14.3725   20.9957 C   0  0  0  0  0  0  0  0  0  0  0  0
    7.3322  -13.6451   22.2198 C   0  0  0  0  0  0  0  0  0  0  0  0
    8.4992  -13.5578   23.1523 C   0  0  0  0  0  0  0  0  0  0  0  0
    9.5460  -14.5033   22.5751 C   0  0  1  0  0  0  0  0  0  0  0  0
    9.2679  -15.9102   23.0046 C   0  0  0  0  0  0  0  0  0  0  0  0
    8.3521  -16.6101   22.4582 O   0  0  0  0  0  0  0  0  0  0  0  0
    9.9945  -16.5592   24.0387 N   0  0  0  0  0  0  0  0  0  0  0  0
   10.6390  -17.8611   23.8256 C   0  0  1  0  0  0  0  0  0  0  0  0
   12.1208  -17.7557   23.9331 C   0  0  0  0  0  0  0  0  0  0  0  0
   12.7444  -19.0774   23.7903 C   0  0  0  0  0  0  0  0  0  0  0  0
   12.0334  -20.0957   23.6094 O   0  0  0  0  0  0  0  0  0  0  0  0
   10.1173  -18.7852   24.8370 C   0  0  0  0  0  0  0  0  0  0  0  0
   10.4920  -19.9729   24.8589 O   0  0  0  0  0  0  0  0  0  0  0  0
   14.1234  -19.2743   23.8454 O   0  0  0  0  0  0  0  0  0  0  0  0
    9.2062  -18.3524   25.7761 O   0  0  0  0  0  0  0  0  0  0  0  0
  2  1  1  6
  3  2  1  0
  4  3  1  0
  5  4  2  0
  6  5  1  0
  7  6  1  0
  7  8  2  0
  8  4  1  0
  9  2  1  0
  9 11  1  0
 10  9  2  0
 11 15  1  0
 12 11  1  0
 12 13  1  0
 13 14  1  0
 15 16  1  1
 15 14  1  0
 16 17  2  0
 18 19  1  0
 18 16  1  0
 20 21  1  0
 19 20  1  1
 21 25  1  0
 22 21  2  0
 23 19  1  0
 24 23  2  0
 26 23  1  0
M  END
$$$$
