HPD.pdb
     RDKit          3D

 26 27  0  0  1  0  0  0  0  0999 V2000
   10.5639  -15.1249   15.9733 N   0  0  0  0  0  0  0  0  0  0  0  0
    9.4221  -15.2561   16.8949 C   0  0  1  0  0  0  0  0  0  0  0  0
    8.7059  -16.5354   16.6682 C   0  0  0  0  0  0  0  0  0  0  0  0
    8.3527  -16.8479   15.2819 C   0  0  0  0  0  0  0  0  0  0  0  0
    7.8862  -16.0228   14.3012 C   0  0  0  0  0  0  0  0  0  0  0  0
    7.6753  -16.7181   13.1554 N   0  0  0  0  0  0  0  0  0  0  0  0
    8.0206  -17.9806   13.4532 C   0  0  0  0  0  0  0  0  0  0  0  0
    8.4308  -18.0762   14.7294 N   0  0  0  0  0  0  0  0  0  0  0  0
    9.7896  -14.9320   18.2686 C   0  0  0  0  0  0  0  0  0  0  0  0
   11.0209  -15.0782   18.5890 O   0  0  0  0  0  0  0  0  0  0  0  0
    8.9218  -14.4741   19.2717 N   0  0  0  0  0  0  0  0  0  0  0  0
    7.5226  -14.1660   19.1413 C   0  0  0  0  0  0  0  0  0  0  0  0
    7.2426  -13.0414   20.1240 C   0  0  0  0  0  0  0  0  0  0  0  0
    8.4788  -12.9444   20.9615 C   0  0  0  0  0  0  0  0  0  0  0  0
    9.2771  -14.2039   20.6464 C   0  0  1  0  0  0  0  0  0  0  0  0
    8.7760  -15.3540   21.4635 C   0  0  0  0  0  0  0  0  0  0  0  0
    7.9107  -16.1736   21.0088 O   0  0  0  0  0  0  0  0  0  0  0  0
    9.2223  -15.6124   22.7873 N   0  0  0  0  0  0  0  0  0  0  0  0
   10.2940  -16.5772   23.0632 C   0  0  1  0  0  0  0  0  0  0  0  0
   11.5513  -16.2069   22.3559 C   0  0  0  0  0  0  0  0  0  0  0  0
   12.6119  -17.1809   22.6433 C   0  0  0  0  0  0  0  0  0  0  0  0
   12.5554  -18.3381   22.1603 O   0  0  0  0  0  0  0  0  0  0  0  0
   10.5099  -16.5979   24.5131 C   0  0  0  0  0  0  0  0  0  0  0  0
   10.3456  -15.5651   25.1898 O   0  0  0  0  0  0  0  0  0  0  0  0
   13.7129  -16.8872   23.4463 O   0  0  0  0  0  0  0  0  0  0  0  0
   10.8972  -17.7594   25.1460 O   0  0  0  0  0  0  0  0  0  0  0  0
  2  1  1  6
  3  2  1  0
  4  3  1  0
  5  4  2  0
  6  5  1  0
  7  6  1  0
  7  8  2  0
  8  4  1  0
  9  2  1  0
  9 11  1  0
 10  9  2  0
 11 15  1  0
 12 11  1  0
 12 13  1  0
 13 14  1  0
 15 16  1  1
 15 14  1  0
 16 17  2  0
 18 19  1  0
 18 16  1  0
 20 21  1  0
 19 20  1  6
 21 25  1  0
 22 21  2  0
 23 19  1  0
 24 23  2  0
 26 23  1  0
M  END
$$$$
