HPD.pdb
     RDKit          3D

 26 27  0  0  1  0  0  0  0  0999 V2000
   10.4111  -13.7099   19.9920 N   0  0  0  0  0  0  0  0  0  0  0  0
    9.2307  -13.9062   20.8512 C   0  0  1  0  0  0  0  0  0  0  0  0
    8.1739  -14.6585   20.1315 C   0  0  0  0  0  0  0  0  0  0  0  0
    7.9237  -14.2646   18.7434 C   0  0  0  0  0  0  0  0  0  0  0  0
    7.5135  -13.0627   18.2462 C   0  0  0  0  0  0  0  0  0  0  0  0
    7.3947  -13.1225   16.8960 N   0  0  0  0  0  0  0  0  0  0  0  0
    7.7390  -14.3803   16.5779 C   0  0  0  0  0  0  0  0  0  0  0  0
    8.0603  -15.0813   17.6785 N   0  0  0  0  0  0  0  0  0  0  0  0
    9.5966  -14.3784   22.1818 C   0  0  0  0  0  0  0  0  0  0  0  0
   10.8219  -14.7031   22.3648 O   0  0  0  0  0  0  0  0  0  0  0  0
    8.7334  -14.5094   23.2803 N   0  0  0  0  0  0  0  0  0  0  0  0
    7.2951  -14.5324   23.2619 C   0  0  0  0  0  0  0  0  0  0  0  0
    6.8441  -13.9041   24.5698 C   0  0  0  0  0  0  0  0  0  0  0  0
    8.0895  -13.7871   25.3910 C   0  0  0  0  0  0  0  0  0  0  0  0
    9.1301  -14.6313   24.6648 C   0  0  1  0  0  0  0  0  0  0  0  0
    8.9814  -16.0733   25.0386 C   0  0  0  0  0  0  0  0  0  0  0  0
    7.9801  -16.7656   24.6575 O   0  0  0  0  0  0  0  0  0  0  0  0
    9.9328  -16.7661   25.8346 N   0  0  0  0  0  0  0  0  0  0  0  0
    9.8504  -18.2171   26.0431 C   0  0  1  0  0  0  0  0  0  0  0  0
   11.1492  -18.8817   25.7435 C   0  0  0  0  0  0  0  0  0  0  0  0
   11.7533  -18.3129   24.5320 C   0  0  0  0  0  0  0  0  0  0  0  0
   11.1593  -18.3982   23.4295 O   0  0  0  0  0  0  0  0  0  0  0  0
    9.4705  -18.4436   27.4408 C   0  0  0  0  0  0  0  0  0  0  0  0
    9.3955  -17.4882   28.2365 O   0  0  0  0  0  0  0  0  0  0  0  0
   12.9865  -17.6630   24.5337 O   0  0  0  0  0  0  0  0  0  0  0  0
    9.1916  -19.7156   27.8923 O   0  0  0  0  0  0  0  0  0  0  0  0
  2  1  1  6
  3  2  1  0
  4  3  1  0
  5  4  2  0
  6  5  1  0
  7  6  1  0
  7  8  2  0
  8  4  1  0
  9  2  1  0
  9 11  1  0
 10  9  2  0
 11 15  1  0
 12 11  1  0
 12 13  1  0
 13 14  1  0
 15 16  1  1
 15 14  1  0
 16 17  2  0
 18 19  1  0
 18 16  1  0
 20 21  1  0
 19 20  1  1
 21 25  1  0
 22 21  2  0
 23 19  1  0
 24 23  2  0
 26 23  1  0
M  END
$$$$
