HPD.pdb
     RDKit          3D

 26 27  0  0  1  0  0  0  0  0999 V2000
    6.3695  -15.8307   25.9151 N   0  0  0  0  0  0  0  0  0  0  0  0
    6.8385  -15.0118   24.7838 C   0  0  1  0  0  0  0  0  0  0  0  0
    7.6261  -13.8502   25.2646 C   0  0  0  0  0  0  0  0  0  0  0  0
    6.9539  -12.9512   26.2050 C   0  0  0  0  0  0  0  0  0  0  0  0
    5.7098  -12.3971   26.1327 C   0  0  0  0  0  0  0  0  0  0  0  0
    5.4758  -11.6114   27.2138 N   0  0  0  0  0  0  0  0  0  0  0  0
    6.5975  -11.6952   27.9465 C   0  0  0  0  0  0  0  0  0  0  0  0
    7.4975  -12.4978   27.3535 N   0  0  0  0  0  0  0  0  0  0  0  0
    7.4288  -15.8267   23.7281 C   0  0  0  0  0  0  0  0  0  0  0  0
    7.5569  -17.0787   23.9654 O   0  0  0  0  0  0  0  0  0  0  0  0
    7.8686  -15.3687   22.4767 N   0  0  0  0  0  0  0  0  0  0  0  0
    7.8286  -14.0199   21.9778 C   0  0  0  0  0  0  0  0  0  0  0  0
    7.6317  -14.1292   20.4751 C   0  0  0  0  0  0  0  0  0  0  0  0
    7.8305  -15.5794   20.1647 C   0  0  0  0  0  0  0  0  0  0  0  0
    8.4397  -16.1803   21.4259 C   0  0  1  0  0  0  0  0  0  0  0  0
    9.9189  -15.9501   21.4483 C   0  0  0  0  0  0  0  0  0  0  0  0
   10.4242  -14.8784   21.9209 O   0  0  0  0  0  0  0  0  0  0  0  0
   10.8547  -16.8965   20.9511 N   0  0  0  0  0  0  0  0  0  0  0  0
   11.9591  -17.3947   21.7803 C   0  0  1  0  0  0  0  0  0  0  0  0
   11.4578  -17.9807   23.0546 C   0  0  0  0  0  0  0  0  0  0  0  0
   12.5709  -18.5099   23.8529 C   0  0  0  0  0  0  0  0  0  0  0  0
   13.7536  -18.3785   23.4538 O   0  0  0  0  0  0  0  0  0  0  0  0
   12.6781  -18.4065   21.0002 C   0  0  0  0  0  0  0  0  0  0  0  0
   12.1576  -19.5153   20.7736 O   0  0  0  0  0  0  0  0  0  0  0  0
   12.3859  -19.1705   25.0664 O   0  0  0  0  0  0  0  0  0  0  0  0
   13.9383  -18.1443   20.5076 O   0  0  0  0  0  0  0  0  0  0  0  0
  2  1  1  1
  3  2  1  0
  4  3  1  0
  5  4  2  0
  6  5  1  0
  7  6  1  0
  7  8  2  0
  8  4  1  0
  9  2  1  0
  9 11  1  0
 10  9  2  0
 11 15  1  0
 12 11  1  0
 12 13  1  0
 13 14  1  0
 15 16  1  6
 15 14  1  0
 16 17  2  0
 18 19  1  0
 18 16  1  0
 20 21  1  0
 19 20  1  1
 21 25  1  0
 22 21  2  0
 23 19  1  0
 24 23  2  0
 26 23  1  0
M  END
$$$$
