HPD.pdb
     RDKit          3D

 26 27  0  0  1  0  0  0  0  0999 V2000
   10.1339  -15.1804   15.2116 N   0  0  0  0  0  0  0  0  0  0  0  0
    9.1270  -15.2223   16.2861 C   0  0  1  0  0  0  0  0  0  0  0  0
    8.3847  -16.5066   16.2633 C   0  0  0  0  0  0  0  0  0  0  0  0
    7.7512  -16.8708   14.9943 C   0  0  0  0  0  0  0  0  0  0  0  0
    7.1632  -16.0699   14.0599 C   0  0  0  0  0  0  0  0  0  0  0  0
    6.6888  -16.8124   13.0283 N   0  0  0  0  0  0  0  0  0  0  0  0
    6.9968  -18.0790   13.3486 C   0  0  0  0  0  0  0  0  0  0  0  0
    7.6367  -18.1320   14.5291 N   0  0  0  0  0  0  0  0  0  0  0  0
    9.6773  -14.7929   17.5667 C   0  0  0  0  0  0  0  0  0  0  0  0
   10.9533  -14.7899   17.6774 O   0  0  0  0  0  0  0  0  0  0  0  0
    8.9410  -14.3819   18.6883 N   0  0  0  0  0  0  0  0  0  0  0  0
    7.5095  -14.3373   18.8238 C   0  0  0  0  0  0  0  0  0  0  0  0
    7.2076  -13.1745   19.7543 C   0  0  0  0  0  0  0  0  0  0  0  0
    8.5366  -12.7711   20.3110 C   0  0  0  0  0  0  0  0  0  0  0  0
    9.4886  -13.9008   19.9364 C   0  0  1  0  0  0  0  0  0  0  0  0
    9.3794  -15.0206   20.9241 C   0  0  0  0  0  0  0  0  0  0  0  0
    8.4212  -15.8614   20.8822 O   0  0  0  0  0  0  0  0  0  0  0  0
   10.3233  -15.2250   21.9663 N   0  0  0  0  0  0  0  0  0  0  0  0
   10.2958  -16.4308   22.8033 C   0  0  1  0  0  0  0  0  0  0  0  0
   11.6588  -16.7841   23.2888 C   0  0  0  0  0  0  0  0  0  0  0  0
   12.5901  -16.9181   22.1615 C   0  0  0  0  0  0  0  0  0  0  0  0
   12.3412  -17.7188   21.2275 O   0  0  0  0  0  0  0  0  0  0  0  0
    9.4027  -16.1649   23.9351 C   0  0  0  0  0  0  0  0  0  0  0  0
    8.9736  -15.0142   24.1428 O   0  0  0  0  0  0  0  0  0  0  0  0
   13.7719  -16.1852   22.0640 O   0  0  0  0  0  0  0  0  0  0  0  0
    9.0266  -17.1839   24.7835 O   0  0  0  0  0  0  0  0  0  0  0  0
  2  1  1  6
  3  2  1  0
  4  3  1  0
  5  4  2  0
  6  5  1  0
  7  6  1  0
  7  8  2  0
  8  4  1  0
  9  2  1  0
  9 11  1  0
 10  9  2  0
 11 15  1  0
 12 11  1  0
 12 13  1  0
 13 14  1  0
 15 16  1  1
 15 14  1  0
 16 17  2  0
 18 19  1  0
 18 16  1  0
 20 21  1  0
 19 20  1  1
 21 25  1  0
 22 21  2  0
 23 19  1  0
 24 23  2  0
 26 23  1  0
M  END
$$$$
