HPD.pdb
     RDKit          3D

 26 27  0  0  1  0  0  0  0  0999 V2000
   10.1982  -14.1904   20.7589 N   0  0  0  0  0  0  0  0  0  0  0  0
    8.9679  -13.9852   21.5428 C   0  0  1  0  0  0  0  0  0  0  0  0
    7.7806  -14.4703   20.7972 C   0  0  0  0  0  0  0  0  0  0  0  0
    7.7267  -14.1408   19.3714 C   0  0  0  0  0  0  0  0  0  0  0  0
    7.9748  -12.9533   18.7483 C   0  0  0  0  0  0  0  0  0  0  0  0
    7.8027  -13.0747   17.4080 N   0  0  0  0  0  0  0  0  0  0  0  0
    7.4455  -14.3555   17.2239 C   0  0  0  0  0  0  0  0  0  0  0  0
    7.3950  -15.0114   18.3957 N   0  0  0  0  0  0  0  0  0  0  0  0
    9.1184  -14.4343   22.9222 C   0  0  0  0  0  0  0  0  0  0  0  0
   10.2024  -15.0498   23.2162 O   0  0  0  0  0  0  0  0  0  0  0  0
    8.1884  -14.2549   23.9575 N   0  0  0  0  0  0  0  0  0  0  0  0
    6.8521  -13.7332   23.8493 C   0  0  0  0  0  0  0  0  0  0  0  0
    6.5716  -13.0110   25.1565 C   0  0  0  0  0  0  0  0  0  0  0  0
    7.7040  -13.3911   26.0577 C   0  0  0  0  0  0  0  0  0  0  0  0
    8.4044  -14.5487   25.3561 C   0  0  1  0  0  0  0  0  0  0  0  0
    7.6984  -15.8363   25.6482 C   0  0  0  0  0  0  0  0  0  0  0  0
    6.7291  -16.2483   24.9287 O   0  0  0  0  0  0  0  0  0  0  0  0
    8.0526  -16.6814   26.7340 N   0  0  0  0  0  0  0  0  0  0  0  0
    8.9387  -17.8376   26.5515 C   0  0  1  0  0  0  0  0  0  0  0  0
    9.9028  -17.6107   25.4391 C   0  0  0  0  0  0  0  0  0  0  0  0
   10.8564  -18.7235   25.3469 C   0  0  0  0  0  0  0  0  0  0  0  0
   10.5666  -19.7515   24.6876 O   0  0  0  0  0  0  0  0  0  0  0  0
    9.6544  -18.0515   27.8129 C   0  0  0  0  0  0  0  0  0  0  0  0
    9.8196  -19.2036   28.2566 O   0  0  0  0  0  0  0  0  0  0  0  0
   12.1043  -18.7052   25.9678 O   0  0  0  0  0  0  0  0  0  0  0  0
   10.1535  -16.9814   28.5239 O   0  0  0  0  0  0  0  0  0  0  0  0
  2  1  1  6
  3  2  1  0
  4  3  1  0
  5  4  2  0
  6  5  1  0
  7  6  1  0
  7  8  2  0
  8  4  1  0
  9  2  1  0
  9 11  1  0
 10  9  2  0
 11 15  1  0
 12 11  1  0
 12 13  1  0
 13 14  1  0
 15 16  1  1
 15 14  1  0
 16 17  2  0
 18 19  1  0
 18 16  1  0
 20 21  1  0
 19 20  1  6
 21 25  1  0
 22 21  2  0
 23 19  1  0
 24 23  2  0
 26 23  1  0
M  END
$$$$
