ENQ.pdb
     RDKit          3D

 27 26  0  0  1  0  0  0  0  0999 V2000
    8.0270  -12.5967   17.7808 N   0  0  0  0  0  0  0  0  0  0  0  0
    7.8487  -13.9078   18.2882 C   0  0  1  0  0  0  0  0  0  0  0  0
    8.3208  -15.0372   17.4573 C   0  0  0  0  0  0  0  0  0  0  0  0
    8.8052  -14.7633   16.0942 C   0  0  0  0  0  0  0  0  0  0  0  0
    9.1899  -15.8737   15.2499 C   0  0  0  0  0  0  0  0  0  0  0  0
    8.5409  -16.3550   14.3020 O   0  0  0  0  0  0  0  0  0  0  0  0
    8.5847  -14.0021   19.6129 C   0  0  0  0  0  0  0  0  0  0  0  0
    9.5195  -13.2039   19.7780 O   0  0  0  0  0  0  0  0  0  0  0  0
   10.4283  -16.4969   15.5046 O   0  0  0  0  0  0  0  0  0  0  0  0
    9.0258  -14.4179   25.0686 N   0  0  0  0  0  0  0  0  0  0  0  0
    8.5807  -15.5084   24.2892 C   0  0  0  0  0  0  0  0  0  0  0  0
    8.8645  -16.6688   24.7507 O   0  0  0  0  0  0  0  0  0  0  0  0
    7.8348  -15.3602   23.0208 C   0  0  0  0  0  0  0  0  0  0  0  0
    8.7556  -15.0756   21.8676 C   0  0  2  0  0  0  0  0  0  0  0  0
    8.2417  -14.9187   20.5856 N   0  0  0  0  0  0  0  0  0  0  0  0
   10.0131  -15.8393   21.8819 C   0  0  0  0  0  0  0  0  0  0  0  0
    9.9758  -17.0007   21.3752 O   0  0  0  0  0  0  0  0  0  0  0  0
   15.2852  -13.6766   20.0204 N   0  0  0  0  0  0  0  0  0  0  0  0
   14.2122  -14.2968   19.3314 C   0  0  0  0  0  0  0  0  0  0  0  0
   14.0966  -14.0576   18.0934 O   0  0  0  0  0  0  0  0  0  0  0  0
   13.2808  -15.1873   20.0347 C   0  0  0  0  0  0  0  0  0  0  0  0
   13.4533  -15.3367   21.4948 C   0  0  0  0  0  0  0  0  0  0  0  0
   12.4508  -16.1938   22.1712 C   0  0  2  0  0  0  0  0  0  0  0  0
   11.2253  -15.3771   22.4077 N   0  0  0  0  0  0  0  0  0  0  0  0
   12.8714  -16.7299   23.4559 C   0  0  0  0  0  0  0  0  0  0  0  0
   12.3193  -16.2927   24.6653 O   0  0  0  0  0  0  0  0  0  0  0  0
   13.7829  -17.6275   23.5320 O   0  0  0  0  0  0  0  0  0  0  0  0
  2  7  1  0
  2  1  1  6
  3  2  1  0
  4  3  1  0
  5  6  2  0
  5  4  1  0
  7  8  2  0
  9  5  1  0
 11 10  1  0
 11 13  1  0
 12 11  2  0
 14 13  1  1
 15 14  1  0
 15  7  1  0
 16 17  2  0
 16 14  1  0
 18 19  1  0
 19 20  2  0
 19 21  1  0
 21 22  1  0
 23 22  1  1
 23 24  1  0
 24 16  1  0
 25 23  1  0
 25 26  1  0
 27 25  2  0
M  END
$$$$
