ENQ.pdb
     RDKit          3D

 27 26  0  0  1  0  0  0  0  0999 V2000
    9.3968  -12.5306   20.0107 N   0  0  0  0  0  0  0  0  0  0  0  0
    8.2557  -13.3501   19.8253 C   0  0  1  0  0  0  0  0  0  0  0  0
    7.7613  -13.5388   18.4437 C   0  0  0  0  0  0  0  0  0  0  0  0
    8.7156  -13.9356   17.3951 C   0  0  0  0  0  0  0  0  0  0  0  0
    8.2210  -14.2086   16.0629 C   0  0  0  0  0  0  0  0  0  0  0  0
    7.0449  -14.1104   15.6650 O   0  0  0  0  0  0  0  0  0  0  0  0
    8.5773  -14.7316   20.3669 C   0  0  0  0  0  0  0  0  0  0  0  0
    7.6490  -15.5540   20.3558 O   0  0  0  0  0  0  0  0  0  0  0  0
    9.1484  -14.6326   15.0898 O   0  0  0  0  0  0  0  0  0  0  0  0
   10.3556  -19.6769   20.7037 N   0  0  0  0  0  0  0  0  0  0  0  0
   11.0891  -18.5754   21.1973 C   0  0  0  0  0  0  0  0  0  0  0  0
   11.7988  -18.8069   22.2379 O   0  0  0  0  0  0  0  0  0  0  0  0
   11.0647  -17.2310   20.5816 C   0  0  0  0  0  0  0  0  0  0  0  0
   10.2660  -16.2600   21.4051 C   0  0  2  0  0  0  0  0  0  0  0  0
    9.8276  -15.0652   20.8459 N   0  0  0  0  0  0  0  0  0  0  0  0
   10.7359  -16.0961   22.7897 C   0  0  0  0  0  0  0  0  0  0  0  0
   11.8261  -15.4689   22.9470 O   0  0  0  0  0  0  0  0  0  0  0  0
    7.8490  -13.6598   27.4337 N   0  0  0  0  0  0  0  0  0  0  0  0
    9.0973  -14.0085   28.0088 C   0  0  0  0  0  0  0  0  0  0  0  0
    9.3512  -13.5653   29.1674 O   0  0  0  0  0  0  0  0  0  0  0  0
   10.0490  -14.8586   27.2830 C   0  0  0  0  0  0  0  0  0  0  0  0
    9.6712  -15.2957   25.9228 C   0  0  0  0  0  0  0  0  0  0  0  0
   10.6212  -16.2234   25.2640 C   0  0  2  0  0  0  0  0  0  0  0  0
   10.0709  -16.5773   23.9237 N   0  0  0  0  0  0  0  0  0  0  0  0
   10.8577  -17.4670   25.9799 C   0  0  0  0  0  0  0  0  0  0  0  0
   10.3201  -18.6875   25.5556 O   0  0  0  0  0  0  0  0  0  0  0  0
   11.5679  -17.4920   27.0463 O   0  0  0  0  0  0  0  0  0  0  0  0
  2  7  1  0
  2  1  1  6
  3  2  1  0
  4  3  1  0
  5  6  2  0
  5  4  1  0
  7  8  2  0
  9  5  1  0
 11 10  1  0
 11 13  1  0
 12 11  2  0
 14 13  1  6
 15 14  1  0
 15  7  1  0
 16 17  2  0
 16 14  1  0
 18 19  1  0
 19 20  2  0
 19 21  1  0
 21 22  1  0
 23 22  1  1
 23 24  1  0
 24 16  1  0
 25 23  1  0
 25 26  1  0
 27 25  2  0
M  END
$$$$
