ENQ.pdb
     RDKit          3D

 27 26  0  0  1  0  0  0  0  0999 V2000
    8.9670  -18.4088   16.1142 N   0  0  0  0  0  0  0  0  0  0  0  0
    9.9639  -17.4851   15.7128 C   0  0  1  0  0  0  0  0  0  0  0  0
    9.8265  -16.8614   14.3783 C   0  0  0  0  0  0  0  0  0  0  0  0
    8.5349  -16.2625   14.0030 C   0  0  0  0  0  0  0  0  0  0  0  0
    8.3950  -15.6587   12.6954 C   0  0  0  0  0  0  0  0  0  0  0  0
    7.9136  -14.5403   12.4335 O   0  0  0  0  0  0  0  0  0  0  0  0
    9.9887  -16.3528   16.7241 C   0  0  0  0  0  0  0  0  0  0  0  0
   10.8992  -15.5211   16.5926 O   0  0  0  0  0  0  0  0  0  0  0  0
    8.8442  -16.3930   11.5792 O   0  0  0  0  0  0  0  0  0  0  0  0
    8.1038  -12.0912   19.6954 N   0  0  0  0  0  0  0  0  0  0  0  0
    7.6982  -13.4359   19.8443 C   0  0  0  0  0  0  0  0  0  0  0  0
    7.3494  -13.7792   21.0277 O   0  0  0  0  0  0  0  0  0  0  0  0
    7.6653  -14.4109   18.7329 C   0  0  0  0  0  0  0  0  0  0  0  0
    8.9115  -15.2502   18.6962 C   0  0  2  0  0  0  0  0  0  0  0  0
    9.0563  -16.2443   17.7354 N   0  0  0  0  0  0  0  0  0  0  0  0
    9.4132  -15.6638   20.0161 C   0  0  0  0  0  0  0  0  0  0  0  0
    8.9259  -16.7300   20.4983 O   0  0  0  0  0  0  0  0  0  0  0  0
   15.0376  -14.7195   22.5602 N   0  0  0  0  0  0  0  0  0  0  0  0
   14.5702  -15.4316   21.4265 C   0  0  0  0  0  0  0  0  0  0  0  0
   15.4341  -15.8395   20.5955 O   0  0  0  0  0  0  0  0  0  0  0  0
   13.1372  -15.6878   21.2371 C   0  0  0  0  0  0  0  0  0  0  0  0
   12.2163  -15.2181   22.2932 C   0  0  0  0  0  0  0  0  0  0  0  0
   10.7845  -15.5363   22.0788 C   0  0  2  0  0  0  0  0  0  0  0  0
   10.3755  -14.9712   20.7605 N   0  0  0  0  0  0  0  0  0  0  0  0
    9.8811  -14.9971   23.0829 C   0  0  0  0  0  0  0  0  0  0  0  0
    9.8662  -15.4631   24.4024 O   0  0  0  0  0  0  0  0  0  0  0  0
    9.0458  -14.0699   22.7918 O   0  0  0  0  0  0  0  0  0  0  0  0
  2  7  1  0
  2  1  1  1
  3  2  1  0
  4  3  1  0
  5  6  2  0
  5  4  1  0
  7  8  2  0
  9  5  1  0
 11 10  1  0
 11 13  1  0
 12 11  2  0
 14 13  1  1
 15 14  1  0
 15  7  1  0
 16 17  2  0
 16 14  1  0
 18 19  1  0
 19 20  2  0
 19 21  1  0
 21 22  1  0
 23 22  1  1
 23 24  1  0
 24 16  1  0
 25 23  1  0
 25 26  1  0
 27 25  2  0
M  END
$$$$
