ENQ.pdb
     RDKit          3D

 27 26  0  0  1  0  0  0  0  0999 V2000
   11.1764  -20.5874   21.3167 N   0  0  0  0  0  0  0  0  0  0  0  0
   12.1660  -19.5863   21.1537 C   0  0  1  0  0  0  0  0  0  0  0  0
   12.4887  -19.1559   19.7754 C   0  0  0  0  0  0  0  0  0  0  0  0
   13.5876  -18.1981   19.5686 C   0  0  0  0  0  0  0  0  0  0  0  0
   14.3116  -18.2207   18.3159 C   0  0  0  0  0  0  0  0  0  0  0  0
   14.7505  -19.2232   17.7214 O   0  0  0  0  0  0  0  0  0  0  0  0
   11.7076  -18.3474   21.9024 C   0  0  0  0  0  0  0  0  0  0  0  0
   12.5495  -17.4469   22.0382 O   0  0  0  0  0  0  0  0  0  0  0  0
   14.5609  -16.9893   17.6768 O   0  0  0  0  0  0  0  0  0  0  0  0
    6.5164  -18.0658   24.6557 N   0  0  0  0  0  0  0  0  0  0  0  0
    7.8077  -18.1169   24.0855 C   0  0  0  0  0  0  0  0  0  0  0  0
    8.4880  -19.1681   24.3537 O   0  0  0  0  0  0  0  0  0  0  0  0
    8.3706  -17.0485   23.2318 C   0  0  0  0  0  0  0  0  0  0  0  0
    9.8644  -17.1641   23.1138 C   0  0  2  0  0  0  0  0  0  0  0  0
   10.4297  -18.2189   22.4066 N   0  0  0  0  0  0  0  0  0  0  0  0
   10.6046  -16.8500   24.3460 C   0  0  0  0  0  0  0  0  0  0  0  0
   11.2789  -15.7766   24.3432 O   0  0  0  0  0  0  0  0  0  0  0  0
    8.7130  -13.5226   27.7778 N   0  0  0  0  0  0  0  0  0  0  0  0
    9.7329  -13.9696   28.6557 C   0  0  0  0  0  0  0  0  0  0  0  0
    9.9129  -13.3145   29.7242 O   0  0  0  0  0  0  0  0  0  0  0  0
   10.5387  -15.1533   28.3324 C   0  0  0  0  0  0  0  0  0  0  0  0
   10.2734  -15.8259   27.0434 C   0  0  0  0  0  0  0  0  0  0  0  0
   11.0955  -17.0288   26.7705 C   0  0  2  0  0  0  0  0  0  0  0  0
   10.6130  -17.6427   25.4998 N   0  0  0  0  0  0  0  0  0  0  0  0
   11.0381  -18.0552   27.7993 C   0  0  0  0  0  0  0  0  0  0  0  0
   10.3426  -19.2562   27.6189 O   0  0  0  0  0  0  0  0  0  0  0  0
   11.6210  -17.8932   28.9289 O   0  0  0  0  0  0  0  0  0  0  0  0
  2  7  1  0
  2  1  1  6
  3  2  1  0
  4  3  1  0
  5  6  2  0
  5  4  1  0
  7  8  2  0
  9  5  1  0
 11 10  1  0
 11 13  1  0
 12 11  2  0
 14 13  1  1
 15 14  1  0
 15  7  1  0
 16 17  2  0
 16 14  1  0
 18 19  1  0
 19 20  2  0
 19 21  1  0
 21 22  1  0
 23 22  1  1
 23 24  1  0
 24 16  1  0
 25 23  1  0
 25 26  1  0
 27 25  2  0
M  END
$$$$
