ENQ.pdb
     RDKit          3D

 27 26  0  0  1  0  0  0  0  0999 V2000
    8.4163  -13.0400   18.7229 N   0  0  0  0  0  0  0  0  0  0  0  0
    9.0776  -14.0785   19.4246 C   0  0  1  0  0  0  0  0  0  0  0  0
   10.5485  -14.1692   19.2937 C   0  0  0  0  0  0  0  0  0  0  0  0
   11.1260  -14.5098   17.9829 C   0  0  0  0  0  0  0  0  0  0  0  0
   12.0013  -15.6573   17.8786 C   0  0  0  0  0  0  0  0  0  0  0  0
   12.3457  -16.4238   18.7979 O   0  0  0  0  0  0  0  0  0  0  0  0
    8.7801  -13.9084   20.9038 C   0  0  0  0  0  0  0  0  0  0  0  0
    8.8678  -12.7549   21.3509 O   0  0  0  0  0  0  0  0  0  0  0  0
   12.5364  -15.9647   16.6112 O   0  0  0  0  0  0  0  0  0  0  0  0
    5.9863  -14.2275   25.6007 N   0  0  0  0  0  0  0  0  0  0  0  0
    6.3375  -15.3505   24.8193 C   0  0  0  0  0  0  0  0  0  0  0  0
    6.4528  -16.4537   25.4593 O   0  0  0  0  0  0  0  0  0  0  0  0
    6.5650  -15.2953   23.3591 C   0  0  0  0  0  0  0  0  0  0  0  0
    7.9940  -14.9617   23.0341 C   0  0  2  0  0  0  0  0  0  0  0  0
    8.4303  -14.9690   21.7142 N   0  0  0  0  0  0  0  0  0  0  0  0
    8.9847  -15.5343   23.9590 C   0  0  0  0  0  0  0  0  0  0  0  0
    9.7127  -16.4664   23.5028 O   0  0  0  0  0  0  0  0  0  0  0  0
   10.5068  -13.9881   30.0038 N   0  0  0  0  0  0  0  0  0  0  0  0
   11.3748  -15.0543   29.6566 C   0  0  0  0  0  0  0  0  0  0  0  0
   12.1086  -15.5321   30.5711 O   0  0  0  0  0  0  0  0  0  0  0  0
   11.4079  -15.5821   28.2871 C   0  0  0  0  0  0  0  0  0  0  0  0
   10.4739  -14.9900   27.3066 C   0  0  0  0  0  0  0  0  0  0  0  0
   10.2491  -15.7876   26.0776 C   0  0  2  0  0  0  0  0  0  0  0  0
    9.1734  -15.1254   25.2845 N   0  0  0  0  0  0  0  0  0  0  0  0
    9.8363  -17.1629   26.3079 C   0  0  0  0  0  0  0  0  0  0  0  0
    8.4909  -17.5299   26.4255 O   0  0  0  0  0  0  0  0  0  0  0  0
   10.7001  -18.1024   26.4240 O   0  0  0  0  0  0  0  0  0  0  0  0
  2  7  1  0
  2  1  1  6
  3  2  1  0
  4  3  1  0
  5  6  2  0
  5  4  1  0
  7  8  2  0
  9  5  1  0
 11 10  1  0
 11 13  1  0
 12 11  2  0
 14 13  1  6
 15 14  1  0
 15  7  1  0
 16 17  2  0
 16 14  1  0
 18 19  1  0
 19 20  2  0
 19 21  1  0
 21 22  1  0
 23 22  1  1
 23 24  1  0
 24 16  1  0
 25 23  1  0
 25 26  1  0
 27 25  2  0
M  END
$$$$
