ENQ.pdb
     RDKit          3D

 27 26  0  0  1  0  0  0  0  0999 V2000
    8.5377  -12.2712   18.1478 N   0  0  0  0  0  0  0  0  0  0  0  0
    7.9721  -13.5560   18.3409 C   0  0  1  0  0  0  0  0  0  0  0  0
    8.3249  -14.6160   17.3708 C   0  0  0  0  0  0  0  0  0  0  0  0
    9.4598  -14.3960   16.4589 C   0  0  0  0  0  0  0  0  0  0  0  0
    9.7686  -15.4035   15.4673 C   0  0  0  0  0  0  0  0  0  0  0  0
    9.0299  -15.8007   14.5465 O   0  0  0  0  0  0  0  0  0  0  0  0
    8.3999  -14.0560   19.7093 C   0  0  0  0  0  0  0  0  0  0  0  0
    9.5282  -13.7100   20.0905 O   0  0  0  0  0  0  0  0  0  0  0  0
   11.0357  -16.0184   15.5252 O   0  0  0  0  0  0  0  0  0  0  0  0
    8.4522  -16.4123   24.3107 N   0  0  0  0  0  0  0  0  0  0  0  0
    7.0956  -16.2974   23.9345 C   0  0  0  0  0  0  0  0  0  0  0  0
    6.2444  -16.6429   24.8268 O   0  0  0  0  0  0  0  0  0  0  0  0
    6.6495  -15.8152   22.6095 C   0  0  0  0  0  0  0  0  0  0  0  0
    7.8051  -15.3319   21.7790 C   0  0  2  0  0  0  0  0  0  0  0  0
    7.5880  -14.8496   20.4934 N   0  0  0  0  0  0  0  0  0  0  0  0
    9.0187  -16.1582   21.8741 C   0  0  0  0  0  0  0  0  0  0  0  0
    9.1238  -17.1078   21.0410 O   0  0  0  0  0  0  0  0  0  0  0  0
   13.1636  -15.1612   18.8900 N   0  0  0  0  0  0  0  0  0  0  0  0
   13.6322  -14.7124   20.1508 C   0  0  0  0  0  0  0  0  0  0  0  0
   14.5773  -13.8698   20.1569 O   0  0  0  0  0  0  0  0  0  0  0  0
   13.0320  -15.2064   21.3961 C   0  0  0  0  0  0  0  0  0  0  0  0
   11.8994  -16.1486   21.2789 C   0  0  0  0  0  0  0  0  0  0  0  0
   11.3507  -16.6492   22.5616 C   0  0  2  0  0  0  0  0  0  0  0  0
   10.0462  -15.9686   22.8059 N   0  0  0  0  0  0  0  0  0  0  0  0
   12.1921  -16.4073   23.7229 C   0  0  0  0  0  0  0  0  0  0  0  0
   13.3986  -17.0868   23.9262 O   0  0  0  0  0  0  0  0  0  0  0  0
   11.8520  -15.5594   24.6215 O   0  0  0  0  0  0  0  0  0  0  0  0
  2  7  1  0
  2  1  1  6
  3  2  1  0
  4  3  1  0
  5  6  2  0
  5  4  1  0
  7  8  2  0
  9  5  1  0
 11 10  1  0
 11 13  1  0
 12 11  2  0
 14 13  1  6
 15 14  1  0
 15  7  1  0
 16 17  2  0
 16 14  1  0
 18 19  1  0
 19 20  2  0
 19 21  1  0
 21 22  1  0
 23 22  1  6
 23 24  1  0
 24 16  1  0
 25 23  1  0
 25 26  1  0
 27 25  2  0
M  END
$$$$
