ENQ.pdb
     RDKit          3D

 27 26  0  0  1  0  0  0  0  0999 V2000
    9.8284  -17.8698   16.1402 N   0  0  0  0  0  0  0  0  0  0  0  0
    8.7238  -17.3389   16.8515 C   0  0  1  0  0  0  0  0  0  0  0  0
    7.6318  -18.2670   17.2190 C   0  0  0  0  0  0  0  0  0  0  0  0
    7.6171  -19.6163   16.6301 C   0  0  0  0  0  0  0  0  0  0  0  0
    6.3481  -20.2101   16.2681 C   0  0  0  0  0  0  0  0  0  0  0  0
    5.2231  -19.6815   16.3469 O   0  0  0  0  0  0  0  0  0  0  0  0
    9.2437  -16.7409   18.1468 C   0  0  0  0  0  0  0  0  0  0  0  0
   10.3730  -17.1078   18.5048 O   0  0  0  0  0  0  0  0  0  0  0  0
    6.3561  -21.5283   15.7688 O   0  0  0  0  0  0  0  0  0  0  0  0
    6.5570  -12.5534   19.0910 N   0  0  0  0  0  0  0  0  0  0  0  0
    7.8276  -13.0201   19.4947 C   0  0  0  0  0  0  0  0  0  0  0  0
    8.8252  -12.5111   18.8738 O   0  0  0  0  0  0  0  0  0  0  0  0
    8.0319  -14.0274   20.5580 C   0  0  0  0  0  0  0  0  0  0  0  0
    8.8534  -15.1877   20.0704 C   0  0  2  0  0  0  0  0  0  0  0  0
    8.5111  -15.8392   18.8911 N   0  0  0  0  0  0  0  0  0  0  0  0
    9.2886  -16.1185   21.1234 C   0  0  0  0  0  0  0  0  0  0  0  0
    8.5365  -17.1145   21.3450 O   0  0  0  0  0  0  0  0  0  0  0  0
   14.3089  -19.2634   21.4828 N   0  0  0  0  0  0  0  0  0  0  0  0
   13.6492  -19.6423   22.6794 C   0  0  0  0  0  0  0  0  0  0  0  0
   14.1376  -20.6090   23.3352 O   0  0  0  0  0  0  0  0  0  0  0  0
   12.4502  -18.9288   23.1360 C   0  0  0  0  0  0  0  0  0  0  0  0
   11.9625  -17.8124   22.2993 C   0  0  0  0  0  0  0  0  0  0  0  0
   10.8030  -17.0665   22.8438 C   0  0  2  0  0  0  0  0  0  0  0  0
   10.4568  -15.9800   21.8824 N   0  0  0  0  0  0  0  0  0  0  0  0
   11.0286  -16.4459   24.1395 C   0  0  0  0  0  0  0  0  0  0  0  0
   11.0082  -15.0578   24.3172 O   0  0  0  0  0  0  0  0  0  0  0  0
   11.2682  -17.1546   25.1800 O   0  0  0  0  0  0  0  0  0  0  0  0
  2  7  1  0
  2  1  1  1
  3  2  1  0
  4  3  1  0
  5  6  2  0
  5  4  1  0
  7  8  2  0
  9  5  1  0
 11 10  1  0
 11 13  1  0
 12 11  2  0
 14 13  1  1
 15 14  1  0
 15  7  1  0
 16 17  2  0
 16 14  1  0
 18 19  1  0
 19 20  2  0
 19 21  1  0
 21 22  1  0
 23 22  1  6
 23 24  1  0
 24 16  1  0
 25 23  1  0
 25 26  1  0
 27 25  2  0
M  END
$$$$
