ENQ.pdb
     RDKit          3D

 27 26  0  0  1  0  0  0  0  0999 V2000
   12.7097  -24.1723   23.9777 N   0  0  0  0  0  0  0  0  0  0  0  0
   13.1819  -24.2506   25.3115 C   0  0  1  0  0  0  0  0  0  0  0  0
   14.6122  -23.9595   25.5531 C   0  0  0  0  0  0  0  0  0  0  0  0
   15.1959  -22.7364   24.9777 C   0  0  0  0  0  0  0  0  0  0  0  0
   16.6097  -22.4836   25.1537 C   0  0  0  0  0  0  0  0  0  0  0  0
   17.1418  -21.7780   26.0313 O   0  0  0  0  0  0  0  0  0  0  0  0
   12.3875  -23.2643   26.1491 C   0  0  0  0  0  0  0  0  0  0  0  0
   11.7536  -22.4010   25.5237 O   0  0  0  0  0  0  0  0  0  0  0  0
   17.5049  -23.0889   24.2486 O   0  0  0  0  0  0  0  0  0  0  0  0
    9.1385  -21.9839   30.6892 N   0  0  0  0  0  0  0  0  0  0  0  0
    9.5446  -21.6448   29.3796 C   0  0  0  0  0  0  0  0  0  0  0  0
    9.3746  -20.4193   29.0491 O   0  0  0  0  0  0  0  0  0  0  0  0
   10.1304  -22.6115   28.4260 C   0  0  0  0  0  0  0  0  0  0  0  0
   11.6320  -22.5467   28.4249 C   0  0  2  0  0  0  0  0  0  0  0  0
   12.3637  -23.3161   27.5276 N   0  0  0  0  0  0  0  0  0  0  0  0
   12.2464  -22.5011   29.7610 C   0  0  0  0  0  0  0  0  0  0  0  0
   12.0835  -23.5222   30.4942 O   0  0  0  0  0  0  0  0  0  0  0  0
   17.9355  -20.7992   30.3213 N   0  0  0  0  0  0  0  0  0  0  0  0
   16.8965  -19.8896   29.9990 C   0  0  0  0  0  0  0  0  0  0  0  0
   17.2202  -18.8189   29.4057 O   0  0  0  0  0  0  0  0  0  0  0  0
   15.5004  -20.1913   30.3379 C   0  0  0  0  0  0  0  0  0  0  0  0
   15.2390  -21.4205   31.1156 C   0  0  0  0  0  0  0  0  0  0  0  0
   13.8216  -21.6555   31.4801 C   0  0  2  0  0  0  0  0  0  0  0  0
   12.9856  -21.4251   30.2666 N   0  0  0  0  0  0  0  0  0  0  0  0
   13.3093  -20.7919   32.5322 C   0  0  0  0  0  0  0  0  0  0  0  0
   12.2213  -19.9348   32.3321 O   0  0  0  0  0  0  0  0  0  0  0  0
   13.8478  -20.7747   33.6949 O   0  0  0  0  0  0  0  0  0  0  0  0
  2  7  1  0
  2  1  1  6
  3  2  1  0
  4  3  1  0
  5  6  2  0
  5  4  1  0
  7  8  2  0
  9  5  1  0
 11 10  1  0
 11 13  1  0
 12 11  2  0
 14 13  1  1
 15 14  1  0
 15  7  1  0
 16 17  2  0
 16 14  1  0
 18 19  1  0
 19 20  2  0
 19 21  1  0
 21 22  1  0
 23 22  1  6
 23 24  1  0
 24 16  1  0
 25 23  1  0
 25 26  1  0
 27 25  2  0
M  END
$$$$
