ENQ.pdb
     RDKit          3D

 27 26  0  0  1  0  0  0  0  0999 V2000
   12.1140  -22.4190   24.0001 N   0  0  0  0  0  0  0  0  0  0  0  0
   13.0981  -22.6174   25.0002 C   0  0  1  0  0  0  0  0  0  0  0  0
   14.5138  -22.6641   24.5729 C   0  0  0  0  0  0  0  0  0  0  0  0
   14.9034  -21.9818   23.3277 C   0  0  0  0  0  0  0  0  0  0  0  0
   16.1961  -22.2698   22.7448 C   0  0  0  0  0  0  0  0  0  0  0  0
   17.0431  -23.0818   23.1626 O   0  0  0  0  0  0  0  0  0  0  0  0
   12.9817  -21.4841   26.0040 C   0  0  0  0  0  0  0  0  0  0  0  0
   14.0492  -21.0016   26.4112 O   0  0  0  0  0  0  0  0  0  0  0  0
   16.5626  -21.5708   21.5769 O   0  0  0  0  0  0  0  0  0  0  0  0
   12.2374  -18.3703   25.2950 N   0  0  0  0  0  0  0  0  0  0  0  0
   11.0288  -18.1220   25.9824 C   0  0  0  0  0  0  0  0  0  0  0  0
   10.3341  -17.1411   25.5404 O   0  0  0  0  0  0  0  0  0  0  0  0
   10.5636  -18.9186   27.1383 C   0  0  0  0  0  0  0  0  0  0  0  0
   11.4903  -20.0657   27.4285 C   0  0  2  0  0  0  0  0  0  0  0  0
   11.7636  -21.0090   26.4447 N   0  0  0  0  0  0  0  0  0  0  0  0
   11.3221  -20.6706   28.7591 C   0  0  0  0  0  0  0  0  0  0  0  0
   10.6759  -21.7600   28.8081 O   0  0  0  0  0  0  0  0  0  0  0  0
   10.5979  -25.0942   30.3880 N   0  0  0  0  0  0  0  0  0  0  0  0
   10.3658  -24.5019   31.6552 C   0  0  0  0  0  0  0  0  0  0  0  0
    9.8477  -25.2281   32.5537 O   0  0  0  0  0  0  0  0  0  0  0  0
   10.7237  -23.1007   31.9079 C   0  0  0  0  0  0  0  0  0  0  0  0
   11.2998  -22.3322   30.7847 C   0  0  0  0  0  0  0  0  0  0  0  0
   11.8954  -21.0239   31.1461 C   0  0  2  0  0  0  0  0  0  0  0  0
   11.8194  -20.1331   29.9522 N   0  0  0  0  0  0  0  0  0  0  0  0
   13.2886  -21.0794   31.5599 C   0  0  0  0  0  0  0  0  0  0  0  0
   14.3430  -21.0580   30.6400 O   0  0  0  0  0  0  0  0  0  0  0  0
   13.6083  -21.1615   32.7982 O   0  0  0  0  0  0  0  0  0  0  0  0
  2  7  1  0
  2  1  1  6
  3  2  1  0
  4  3  1  0
  5  6  2  0
  5  4  1  0
  7  8  2  0
  9  5  1  0
 11 10  1  0
 11 13  1  0
 12 11  2  0
 14 13  1  6
 15 14  1  0
 15  7  1  0
 16 17  2  0
 16 14  1  0
 18 19  1  0
 19 20  2  0
 19 21  1  0
 21 22  1  0
 23 22  1  6
 23 24  1  0
 24 16  1  0
 25 23  1  0
 25 26  1  0
 27 25  2  0
M  END
$$$$
