ENQ.pdb
     RDKit          3D

 27 26  0  0  1  0  0  0  0  0999 V2000
   11.3115  -17.8722   19.7048 N   0  0  0  0  0  0  0  0  0  0  0  0
   10.7532  -16.5974   19.4381 C   0  0  1  0  0  0  0  0  0  0  0  0
    9.9718  -16.4355   18.1922 C   0  0  0  0  0  0  0  0  0  0  0  0
    9.8698  -17.5738   17.2640 C   0  0  0  0  0  0  0  0  0  0  0  0
    9.0376  -17.4470   16.0871 C   0  0  0  0  0  0  0  0  0  0  0  0
    7.9386  -17.9965   15.8830 O   0  0  0  0  0  0  0  0  0  0  0  0
    9.8245  -16.2426   20.5858 C   0  0  0  0  0  0  0  0  0  0  0  0
    9.1018  -15.2487   20.4181 O   0  0  0  0  0  0  0  0  0  0  0  0
    9.4950  -16.6180   15.0428 O   0  0  0  0  0  0  0  0  0  0  0  0
    9.1489  -20.0450   24.4414 N   0  0  0  0  0  0  0  0  0  0  0  0
    8.8873  -19.2118   23.3313 C   0  0  0  0  0  0  0  0  0  0  0  0
    9.3212  -19.6405   22.2053 O   0  0  0  0  0  0  0  0  0  0  0  0
    8.1647  -17.9248   23.4236 C   0  0  0  0  0  0  0  0  0  0  0  0
    8.9856  -16.7893   22.8798 C   0  0  2  0  0  0  0  0  0  0  0  0
    9.7777  -16.9770   21.7529 N   0  0  0  0  0  0  0  0  0  0  0  0
    9.6460  -15.9632   23.9025 C   0  0  0  0  0  0  0  0  0  0  0  0
   10.2836  -14.9496   23.4866 O   0  0  0  0  0  0  0  0  0  0  0  0
    6.6199  -11.0685   27.0699 N   0  0  0  0  0  0  0  0  0  0  0  0
    6.9328  -12.2320   26.3222 C   0  0  0  0  0  0  0  0  0  0  0  0
    6.1378  -12.5611   25.3933 O   0  0  0  0  0  0  0  0  0  0  0  0
    8.1397  -13.0140   26.6171 C   0  0  0  0  0  0  0  0  0  0  0  0
    8.4194  -14.1838   25.7583 C   0  0  0  0  0  0  0  0  0  0  0  0
    9.5338  -15.0524   26.2068 C   0  0  2  0  0  0  0  0  0  0  0  0
    9.6171  -16.2172   25.2789 N   0  0  0  0  0  0  0  0  0  0  0  0
    9.3944  -15.5789   27.5552 C   0  0  0  0  0  0  0  0  0  0  0  0
    9.9912  -14.9655   28.6625 O   0  0  0  0  0  0  0  0  0  0  0  0
    8.7198  -16.6443   27.7832 O   0  0  0  0  0  0  0  0  0  0  0  0
  2  7  1  0
  2  1  1  1
  3  2  1  0
  4  3  1  0
  5  6  2  0
  5  4  1  0
  7  8  2  0
  9  5  1  0
 11 10  1  0
 11 13  1  0
 12 11  2  0
 14 13  1  1
 15 14  1  0
 15  7  1  0
 16 17  2  0
 16 14  1  0
 18 19  1  0
 19 20  2  0
 19 21  1  0
 21 22  1  0
 23 22  1  6
 23 24  1  0
 24 16  1  0
 25 23  1  0
 25 26  1  0
 27 25  2  0
M  END
$$$$
