ENQ.pdb
     RDKit          3D

 27 26  0  0  1  0  0  0  0  0999 V2000
    9.9238  -18.0216   19.5062 N   0  0  0  0  0  0  0  0  0  0  0  0
   10.9861  -18.0745   20.4426 C   0  0  1  0  0  0  0  0  0  0  0  0
   12.3687  -18.0476   19.9167 C   0  0  0  0  0  0  0  0  0  0  0  0
   12.5772  -18.1189   18.4610 C   0  0  0  0  0  0  0  0  0  0  0  0
   13.9254  -18.0439   17.9407 C   0  0  0  0  0  0  0  0  0  0  0  0
   14.4505  -17.0783   17.3551 O   0  0  0  0  0  0  0  0  0  0  0  0
   10.8496  -16.8835   21.3746 C   0  0  0  0  0  0  0  0  0  0  0  0
   11.9075  -16.4074   21.8131 O   0  0  0  0  0  0  0  0  0  0  0  0
   14.7568  -19.1709   18.1004 O   0  0  0  0  0  0  0  0  0  0  0  0
    6.0361  -15.3035   21.2304 N   0  0  0  0  0  0  0  0  0  0  0  0
    7.3772  -14.8780   21.1064 C   0  0  0  0  0  0  0  0  0  0  0  0
    7.8761  -14.9617   19.9299 O   0  0  0  0  0  0  0  0  0  0  0  0
    8.1829  -14.3649   22.2353 C   0  0  0  0  0  0  0  0  0  0  0  0
    9.3342  -15.2773   22.5529 C   0  0  2  0  0  0  0  0  0  0  0  0
    9.6242  -16.3519   21.7202 N   0  0  0  0  0  0  0  0  0  0  0  0
    9.4774  -15.6132   23.9782 C   0  0  0  0  0  0  0  0  0  0  0  0
    8.4508  -16.0825   24.5552 O   0  0  0  0  0  0  0  0  0  0  0  0
   10.0649  -12.8769   28.9864 N   0  0  0  0  0  0  0  0  0  0  0  0
   10.0016  -14.2795   29.1850 C   0  0  0  0  0  0  0  0  0  0  0  0
   10.5707  -14.7505   30.2133 O   0  0  0  0  0  0  0  0  0  0  0  0
    9.2937  -15.1432   28.2321 C   0  0  0  0  0  0  0  0  0  0  0  0
    9.5395  -14.9140   26.7930 C   0  0  0  0  0  0  0  0  0  0  0  0
   10.6000  -15.7527   26.1855 C   0  0  2  0  0  0  0  0  0  0  0  0
   10.6503  -15.4524   24.7254 N   0  0  0  0  0  0  0  0  0  0  0  0
   10.4031  -17.1865   26.3286 C   0  0  0  0  0  0  0  0  0  0  0  0
   11.1166  -17.9497   27.2596 O   0  0  0  0  0  0  0  0  0  0  0  0
    9.5653  -17.8162   25.5911 O   0  0  0  0  0  0  0  0  0  0  0  0
  2  7  1  0
  2  1  1  6
  3  2  1  0
  4  3  1  0
  5  6  2  0
  5  4  1  0
  7  8  2  0
  9  5  1  0
 11 10  1  0
 11 13  1  0
 12 11  2  0
 14 13  1  1
 15 14  1  0
 15  7  1  0
 16 17  2  0
 16 14  1  0
 18 19  1  0
 19 20  2  0
 19 21  1  0
 21 22  1  0
 23 22  1  6
 23 24  1  0
 24 16  1  0
 25 23  1  0
 25 26  1  0
 27 25  2  0
M  END
$$$$
