ENQ.pdb
     RDKit          3D

 27 26  0  0  1  0  0  0  0  0999 V2000
   12.1638  -17.7829   20.9405 N   0  0  0  0  0  0  0  0  0  0  0  0
   11.1541  -17.0269   20.2946 C   0  0  1  0  0  0  0  0  0  0  0  0
   10.6558  -17.5169   18.9905 C   0  0  0  0  0  0  0  0  0  0  0  0
   11.4998  -18.4331   18.2057 C   0  0  0  0  0  0  0  0  0  0  0  0
   11.7680  -18.1247   16.8177 C   0  0  0  0  0  0  0  0  0  0  0  0
   12.7675  -17.5399   16.3590 O   0  0  0  0  0  0  0  0  0  0  0  0
    9.9543  -16.9572   21.2227 C   0  0  0  0  0  0  0  0  0  0  0  0
    8.9380  -16.4143   20.7639 O   0  0  0  0  0  0  0  0  0  0  0  0
   10.8122  -18.5173   15.8589 O   0  0  0  0  0  0  0  0  0  0  0  0
    5.9435  -17.9674   24.8025 N   0  0  0  0  0  0  0  0  0  0  0  0
    7.2918  -18.3444   24.9896 C   0  0  0  0  0  0  0  0  0  0  0  0
    7.6744  -18.4382   26.2082 O   0  0  0  0  0  0  0  0  0  0  0  0
    8.2285  -18.6201   23.8789 C   0  0  0  0  0  0  0  0  0  0  0  0
    9.0132  -17.3955   23.5003 C   0  0  2  0  0  0  0  0  0  0  0  0
    9.9810  -17.4662   22.5049 N   0  0  0  0  0  0  0  0  0  0  0  0
    9.4313  -16.5579   24.6353 C   0  0  0  0  0  0  0  0  0  0  0  0
   10.6004  -16.7549   25.0839 O   0  0  0  0  0  0  0  0  0  0  0  0
    6.4556  -11.5108   25.9051 N   0  0  0  0  0  0  0  0  0  0  0  0
    6.3049  -12.4098   26.9913 C   0  0  0  0  0  0  0  0  0  0  0  0
    5.3069  -12.2443   27.7528 O   0  0  0  0  0  0  0  0  0  0  0  0
    7.2709  -13.4931   27.2111 C   0  0  0  0  0  0  0  0  0  0  0  0
    8.5109  -13.4728   26.4073 C   0  0  0  0  0  0  0  0  0  0  0  0
    9.2438  -14.7591   26.3326 C   0  0  2  0  0  0  0  0  0  0  0  0
    8.6386  -15.5758   25.2411 N   0  0  0  0  0  0  0  0  0  0  0  0
    9.2035  -15.5576   27.5475 C   0  0  0  0  0  0  0  0  0  0  0  0
    8.4869  -16.7569   27.6302 O   0  0  0  0  0  0  0  0  0  0  0  0
    9.8218  -15.1838   28.6058 O   0  0  0  0  0  0  0  0  0  0  0  0
  2  7  1  0
  2  1  1  1
  3  2  1  0
  4  3  1  0
  5  6  2  0
  5  4  1  0
  7  8  2  0
  9  5  1  0
 11 10  1  0
 11 13  1  0
 12 11  2  0
 14 13  1  1
 15 14  1  0
 15  7  1  0
 16 17  2  0
 16 14  1  0
 18 19  1  0
 19 20  2  0
 19 21  1  0
 21 22  1  0
 23 22  1  1
 23 24  1  0
 24 16  1  0
 25 23  1  0
 25 26  1  0
 27 25  2  0
M  END
$$$$
