ENQ.pdb
     RDKit          3D

 27 26  0  0  1  0  0  0  0  0999 V2000
    8.7922  -17.7736   16.2148 N   0  0  0  0  0  0  0  0  0  0  0  0
    9.1246  -16.5800   15.5272 C   0  0  1  0  0  0  0  0  0  0  0  0
    8.4265  -16.3032   14.2524 C   0  0  0  0  0  0  0  0  0  0  0  0
    8.7310  -17.1389   13.0791 C   0  0  0  0  0  0  0  0  0  0  0  0
    9.0274  -16.4955   11.8173 C   0  0  0  0  0  0  0  0  0  0  0  0
   10.0876  -16.5707   11.1681 O   0  0  0  0  0  0  0  0  0  0  0  0
    8.8308  -15.4100   16.4493 C   0  0  0  0  0  0  0  0  0  0  0  0
    8.0066  -14.5806   16.0360 O   0  0  0  0  0  0  0  0  0  0  0  0
    8.0260  -15.6912   11.2366 O   0  0  0  0  0  0  0  0  0  0  0  0
    6.9052  -13.2089   21.2823 N   0  0  0  0  0  0  0  0  0  0  0  0
    7.6735  -13.0025   20.1151 C   0  0  0  0  0  0  0  0  0  0  0  0
    8.3246  -11.9007   20.0708 O   0  0  0  0  0  0  0  0  0  0  0  0
    7.7460  -13.9698   18.9988 C   0  0  0  0  0  0  0  0  0  0  0  0
    9.1655  -14.3607   18.6970 C   0  0  2  0  0  0  0  0  0  0  0  0
    9.4391  -15.2676   17.6796 N   0  0  0  0  0  0  0  0  0  0  0  0
   10.0106  -14.5713   19.8829 C   0  0  0  0  0  0  0  0  0  0  0  0
    9.4222  -14.9634   20.9350 O   0  0  0  0  0  0  0  0  0  0  0  0
   10.5880  -17.9509   22.8677 N   0  0  0  0  0  0  0  0  0  0  0  0
   11.9856  -18.1309   22.7095 C   0  0  0  0  0  0  0  0  0  0  0  0
   12.5779  -18.8727   23.5474 O   0  0  0  0  0  0  0  0  0  0  0  0
   12.7078  -17.4834   21.6076 C   0  0  0  0  0  0  0  0  0  0  0  0
   11.9393  -16.5748   20.7311 C   0  0  0  0  0  0  0  0  0  0  0  0
   12.1836  -15.1280   20.9410 C   0  0  2  0  0  0  0  0  0  0  0  0
   11.3956  -14.3717   19.9254 N   0  0  0  0  0  0  0  0  0  0  0  0
   13.5723  -14.7166   20.8093 C   0  0  0  0  0  0  0  0  0  0  0  0
   14.5384  -15.0267   21.7732 O   0  0  0  0  0  0  0  0  0  0  0  0
   13.9680  -14.0368   19.7976 O   0  0  0  0  0  0  0  0  0  0  0  0
  2  7  1  0
  2  1  1  1
  3  2  1  0
  4  3  1  0
  5  6  2  0
  5  4  1  0
  7  8  2  0
  9  5  1  0
 11 10  1  0
 11 13  1  0
 12 11  2  0
 14 13  1  1
 15 14  1  0
 15  7  1  0
 16 17  2  0
 16 14  1  0
 18 19  1  0
 19 20  2  0
 19 21  1  0
 21 22  1  0
 23 22  1  6
 23 24  1  0
 24 16  1  0
 25 23  1  0
 25 26  1  0
 27 25  2  0
M  END
$$$$
