ENQ.pdb
     RDKit          3D

 27 26  0  0  1  0  0  0  0  0999 V2000
    7.7026  -23.7910   13.4645 N   0  0  0  0  0  0  0  0  0  0  0  0
    7.7943  -24.9659   14.2515 C   0  0  1  0  0  0  0  0  0  0  0  0
    8.9691  -25.8415   14.0462 C   0  0  0  0  0  0  0  0  0  0  0  0
   10.3044  -25.2287   13.9499 C   0  0  0  0  0  0  0  0  0  0  0  0
   11.4457  -26.0735   13.6716 C   0  0  0  0  0  0  0  0  0  0  0  0
   11.5832  -26.8564   12.7127 O   0  0  0  0  0  0  0  0  0  0  0  0
    7.8077  -24.5520   15.7124 C   0  0  0  0  0  0  0  0  0  0  0  0
    8.3706  -23.4778   15.9720 O   0  0  0  0  0  0  0  0  0  0  0  0
   12.5346  -26.0254   14.5654 O   0  0  0  0  0  0  0  0  0  0  0  0
    6.6635  -23.2048   20.1443 N   0  0  0  0  0  0  0  0  0  0  0  0
    5.6493  -24.1297   19.8112 C   0  0  0  0  0  0  0  0  0  0  0  0
    4.5734  -24.0407   20.5000 O   0  0  0  0  0  0  0  0  0  0  0  0
    5.7838  -25.1466   18.7459 C   0  0  0  0  0  0  0  0  0  0  0  0
    7.1209  -25.0609   18.0649 C   0  0  2  0  0  0  0  0  0  0  0  0
    7.2291  -25.3184   16.7031 N   0  0  0  0  0  0  0  0  0  0  0  0
    8.2407  -25.6228   18.8362 C   0  0  0  0  0  0  0  0  0  0  0  0
    8.7054  -26.7314   18.4338 O   0  0  0  0  0  0  0  0  0  0  0  0
   11.5557  -21.9037   20.5484 N   0  0  0  0  0  0  0  0  0  0  0  0
   11.8908  -22.7523   19.4629 C   0  0  0  0  0  0  0  0  0  0  0  0
   12.4178  -22.2170   18.4436 O   0  0  0  0  0  0  0  0  0  0  0  0
   11.6393  -24.1969   19.5317 C   0  0  0  0  0  0  0  0  0  0  0  0
   11.0613  -24.7284   20.7837 C   0  0  0  0  0  0  0  0  0  0  0  0
    9.9685  -25.7153   20.6132 C   0  0  2  0  0  0  0  0  0  0  0  0
    8.8167  -25.0254   19.9636 N   0  0  0  0  0  0  0  0  0  0  0  0
    9.4808  -26.3075   21.8487 C   0  0  0  0  0  0  0  0  0  0  0  0
    8.6912  -25.5950   22.7584 O   0  0  0  0  0  0  0  0  0  0  0  0
    9.7675  -27.5168   22.1612 O   0  0  0  0  0  0  0  0  0  0  0  0
  2  7  1  0
  2  1  1  6
  3  2  1  0
  4  3  1  0
  5  6  2  0
  5  4  1  0
  7  8  2  0
  9  5  1  0
 11 10  1  0
 11 13  1  0
 12 11  2  0
 14 13  1  1
 15 14  1  0
 15  7  1  0
 16 17  2  0
 16 14  1  0
 18 19  1  0
 19 20  2  0
 19 21  1  0
 21 22  1  0
 23 22  1  1
 23 24  1  0
 24 16  1  0
 25 23  1  0
 25 26  1  0
 27 25  2  0
M  END
$$$$
