FFW.pdb
     RDKit          3D

 37 40  0  0  1  0  0  0  0  0999 V2000
    8.2907  -17.0916   18.7879 N   0  0  0  0  0  0  0  0  0  0  0  0
    9.5307  -16.3969   19.0106 C   0  0  1  0  0  0  0  0  0  0  0  0
    9.6906  -15.2864   17.9930 C   0  0  0  0  0  0  0  0  0  0  0  0
    8.6949  -14.2326   18.3029 C   0  0  0  0  0  0  0  0  0  0  0  0
    9.1054  -13.2130   19.1367 C   0  0  0  0  0  0  0  0  0  0  0  0
    8.1960  -12.2218   19.4341 C   0  0  0  0  0  0  0  0  0  0  0  0
    6.9135  -12.2558   18.9087 C   0  0  0  0  0  0  0  0  0  0  0  0
    6.5112  -13.2770   18.0769 C   0  0  0  0  0  0  0  0  0  0  0  0
    7.4049  -14.2762   17.7681 C   0  0  0  0  0  0  0  0  0  0  0  0
    9.5468  -15.8762   20.3960 C   0  0  0  0  0  0  0  0  0  0  0  0
   10.1177  -14.7718   20.6830 O   0  0  0  0  0  0  0  0  0  0  0  0
    8.9238  -16.5939   21.4485 N   0  0  0  0  0  0  0  0  0  0  0  0
    8.9381  -16.0481   22.8300 C   0  0  1  0  0  0  0  0  0  0  0  0
    7.4998  -15.8104   23.1711 C   0  0  0  0  0  0  0  0  0  0  0  0
    7.2150  -15.1893   24.4552 C   0  0  0  0  0  0  0  0  0  0  0  0
    7.4952  -13.8250   24.6351 C   0  0  0  0  0  0  0  0  0  0  0  0
    7.2100  -13.1932   25.8210 C   0  0  0  0  0  0  0  0  0  0  0  0
    6.6413  -13.8574   26.8821 C   0  0  0  0  0  0  0  0  0  0  0  0
    6.3607  -15.1779   26.7330 C   0  0  0  0  0  0  0  0  0  0  0  0
    6.6454  -15.8161   25.5448 C   0  0  0  0  0  0  0  0  0  0  0  0
    9.5599  -17.0711   23.6903 C   0  0  0  0  0  0  0  0  0  0  0  0
    9.1564  -18.2818   23.5588 O   0  0  0  0  0  0  0  0  0  0  0  0
   10.5710  -16.8148   24.6432 N   0  0  0  0  0  0  0  0  0  0  0  0
   11.1083  -17.9144   25.4258 C   0  0  1  0  0  0  0  0  0  0  0  0
   12.0662  -17.4000   26.4575 C   0  0  0  0  0  0  0  0  0  0  0  0
   11.3796  -16.8397   27.6184 C   0  0  0  0  0  0  0  0  0  0  0  0
   10.9075  -17.5683   28.7097 C   0  0  0  0  0  0  0  0  0  0  0  0
   10.2949  -16.7456   29.5717 N   0  0  0  0  0  0  0  0  0  0  0  0
   10.3334  -15.4913   29.1107 C   0  0  0  0  0  0  0  0  0  0  0  0
    9.8521  -14.3290   29.6676 C   0  0  0  0  0  0  0  0  0  0  0  0
   10.0509  -13.1373   28.9789 C   0  0  0  0  0  0  0  0  0  0  0  0
   10.7224  -13.1714   27.7662 C   0  0  0  0  0  0  0  0  0  0  0  0
   11.1937  -14.3487   27.2300 C   0  0  0  0  0  0  0  0  0  0  0  0
   11.0088  -15.5294   27.8889 C   0  0  0  0  0  0  0  0  0  0  0  0
   10.1201  -18.8256   25.9814 C   0  0  0  0  0  0  0  0  0  0  0  0
    8.9383  -18.4412   26.2286 O   0  0  0  0  0  0  0  0  0  0  0  0
   10.4804  -20.1515   26.2474 O   0  0  0  0  0  0  0  0  0  0  0  0
  2  1  1  6
  2  3  1  0
  4  3  1  0
  4  5  2  0
  6  5  1  0
  7  6  2  0
  8  9  2  0
  8  7  1  0
  9  4  1  0
 10 11  2  0
 10  2  1  0
 12 10  1  0
 13 21  1  0
 13 12  1  0
 13 14  1  1
 15 14  1  0
 15 16  2  0
 17 16  1  0
 18 17  2  0
 19 20  2  0
 19 18  1  0
 20 15  1  0
 21 22  2  0
 23 24  1  0
 23 21  1  0
 24 25  1  1
 25 26  1  0
 26 34  1  0
 26 27  2  0
 27 28  1  0
 29 28  1  0
 29 30  2  0
 31 30  1  0
 32 31  2  0
 33 32  1  0
 33 34  2  0
 34 29  1  0
 35 24  1  0
 36 35  2  0
 37 35  1  0
M  END
$$$$
