FFW.pdb
     RDKit          3D

 37 40  0  0  1  0  0  0  0  0999 V2000
    6.7529  -20.9653   19.8223 N   0  0  0  0  0  0  0  0  0  0  0  0
    7.0988  -20.5333   21.1503 C   0  0  1  0  0  0  0  0  0  0  0  0
    7.9731  -21.5730   21.8203 C   0  0  0  0  0  0  0  0  0  0  0  0
    8.0858  -21.2218   23.2563 C   0  0  0  0  0  0  0  0  0  0  0  0
    7.3559  -20.1350   23.6914 C   0  0  0  0  0  0  0  0  0  0  0  0
    7.4442  -19.7945   25.0234 C   0  0  0  0  0  0  0  0  0  0  0  0
    8.2422  -20.5250   25.8903 C   0  0  0  0  0  0  0  0  0  0  0  0
    8.9678  -21.6088   25.4484 C   0  0  0  0  0  0  0  0  0  0  0  0
    8.8929  -21.9646   24.1216 C   0  0  0  0  0  0  0  0  0  0  0  0
    7.7764  -19.2202   21.0664 C   0  0  0  0  0  0  0  0  0  0  0  0
    8.9480  -19.1085   20.5735 O   0  0  0  0  0  0  0  0  0  0  0  0
    7.1384  -18.0429   21.5335 N   0  0  0  0  0  0  0  0  0  0  0  0
    7.8085  -16.7257   21.3841 C   0  0  1  0  0  0  0  0  0  0  0  0
    6.7902  -15.8407   20.7347 C   0  0  0  0  0  0  0  0  0  0  0  0
    7.1850  -14.4698   20.4510 C   0  0  0  0  0  0  0  0  0  0  0  0
    6.9735  -13.4792   21.4238 C   0  0  0  0  0  0  0  0  0  0  0  0
    7.3626  -12.1796   21.2082 C   0  0  0  0  0  0  0  0  0  0  0  0
    7.9729  -11.7859   20.0407 C   0  0  0  0  0  0  0  0  0  0  0  0
    8.1886  -12.7255   19.0841 C   0  0  0  0  0  0  0  0  0  0  0  0
    7.7997  -14.0309   19.2960 C   0  0  0  0  0  0  0  0  0  0  0  0
    8.1691  -16.2702   22.7390 C   0  0  0  0  0  0  0  0  0  0  0  0
    7.9054  -15.0527   23.0453 O   0  0  0  0  0  0  0  0  0  0  0  0
    8.7775  -17.0793   23.7246 N   0  0  0  0  0  0  0  0  0  0  0  0
    9.9650  -16.5976   24.4088 C   0  0  1  0  0  0  0  0  0  0  0  0
    9.8438  -15.1308   24.6920 C   0  0  0  0  0  0  0  0  0  0  0  0
    8.5402  -14.7817   25.2504 C   0  0  0  0  0  0  0  0  0  0  0  0
    7.4842  -15.6687   25.4578 C   0  0  0  0  0  0  0  0  0  0  0  0
    6.4267  -15.0064   25.9457 N   0  0  0  0  0  0  0  0  0  0  0  0
    6.7224  -13.7093   26.0784 C   0  0  0  0  0  0  0  0  0  0  0  0
    5.9553  -12.6712   26.5542 C   0  0  0  0  0  0  0  0  0  0  0  0
    6.5242  -11.4035   26.6096 C   0  0  0  0  0  0  0  0  0  0  0  0
    7.8342  -11.2408   26.1849 C   0  0  0  0  0  0  0  0  0  0  0  0
    8.5807  -12.2966   25.7120 C   0  0  0  0  0  0  0  0  0  0  0  0
    8.0414  -13.5487   25.6485 C   0  0  0  0  0  0  0  0  0  0  0  0
   10.3651  -17.3643   25.5781 C   0  0  0  0  0  0  0  0  0  0  0  0
    9.5877  -18.2171   26.1017 O   0  0  0  0  0  0  0  0  0  0  0  0
   11.6321  -17.1575   26.1354 O   0  0  0  0  0  0  0  0  0  0  0  0
  2  1  1  6
  2  3  1  0
  4  3  1  0
  4  5  2  0
  6  5  1  0
  7  6  2  0
  8  9  2  0
  8  7  1  0
  9  4  1  0
 10 11  2  0
 10  2  1  0
 12 10  1  0
 13 21  1  0
 13 12  1  0
 13 14  1  1
 15 14  1  0
 15 16  2  0
 17 16  1  0
 18 17  2  0
 19 20  2  0
 19 18  1  0
 20 15  1  0
 21 22  2  0
 23 24  1  0
 23 21  1  0
 24 25  1  1
 25 26  1  0
 26 34  1  0
 26 27  2  0
 27 28  1  0
 29 28  1  0
 29 30  2  0
 31 30  1  0
 32 31  2  0
 33 32  1  0
 33 34  2  0
 34 29  1  0
 35 24  1  0
 36 35  2  0
 37 35  1  0
M  END
$$$$
