FFW.pdb
     RDKit          3D

 37 40  0  0  1  0  0  0  0  0999 V2000
   10.4901  -16.6348   18.0161 N   0  0  0  0  0  0  0  0  0  0  0  0
   10.0183  -17.5296   19.0390 C   0  0  1  0  0  0  0  0  0  0  0  0
   10.8626  -18.7871   19.0549 C   0  0  0  0  0  0  0  0  0  0  0  0
   10.5558  -19.5617   17.8286 C   0  0  0  0  0  0  0  0  0  0  0  0
    9.2842  -20.0865   17.7246 C   0  0  0  0  0  0  0  0  0  0  0  0
    8.9780  -20.8067   16.5908 C   0  0  0  0  0  0  0  0  0  0  0  0
    9.9222  -20.9929   15.5929 C   0  0  0  0  0  0  0  0  0  0  0  0
   11.1896  -20.4656   15.7040 C   0  0  0  0  0  0  0  0  0  0  0  0
   11.5146  -19.7434   16.8288 C   0  0  0  0  0  0  0  0  0  0  0  0
   10.0544  -16.8296   20.3426 C   0  0  0  0  0  0  0  0  0  0  0  0
   11.1586  -16.5802   20.9313 O   0  0  0  0  0  0  0  0  0  0  0  0
    8.8560  -16.4137   20.9767 N   0  0  0  0  0  0  0  0  0  0  0  0
    8.9129  -15.7081   22.2826 C   0  0  1  0  0  0  0  0  0  0  0  0
    7.5391  -15.1479   22.4842 C   0  0  0  0  0  0  0  0  0  0  0  0
    7.2556  -14.5289   23.7695 C   0  0  0  0  0  0  0  0  0  0  0  0
    7.6038  -13.1841   23.9757 C   0  0  0  0  0  0  0  0  0  0  0  0
    7.3229  -12.5532   25.1631 C   0  0  0  0  0  0  0  0  0  0  0  0
    6.6928  -13.1995   26.2003 C   0  0  0  0  0  0  0  0  0  0  0  0
    6.3458  -14.5009   26.0256 C   0  0  0  0  0  0  0  0  0  0  0  0
    6.6258  -15.1382   24.8358 C   0  0  0  0  0  0  0  0  0  0  0  0
    9.2661  -16.7145   23.3003 C   0  0  0  0  0  0  0  0  0  0  0  0
    8.6869  -17.8570   23.2308 O   0  0  0  0  0  0  0  0  0  0  0  0
   10.2001  -16.5129   24.3410 N   0  0  0  0  0  0  0  0  0  0  0  0
   10.5655  -17.6284   25.1968 C   0  0  1  0  0  0  0  0  0  0  0  0
   11.6814  -17.2351   26.1170 C   0  0  0  0  0  0  0  0  0  0  0  0
   11.1972  -16.5417   27.3078 C   0  0  0  0  0  0  0  0  0  0  0  0
   10.6098  -17.1502   28.4165 C   0  0  0  0  0  0  0  0  0  0  0  0
   10.2480  -16.2160   29.3062 N   0  0  0  0  0  0  0  0  0  0  0  0
   10.5666  -15.0014   28.8471 C   0  0  0  0  0  0  0  0  0  0  0  0
   10.4009  -13.7650   29.4271 C   0  0  0  0  0  0  0  0  0  0  0  0
   10.8505  -12.6467   28.7335 C   0  0  0  0  0  0  0  0  0  0  0  0
   11.4439  -12.8249   27.4928 C   0  0  0  0  0  0  0  0  0  0  0  0
   11.5972  -14.0737   26.9339 C   0  0  0  0  0  0  0  0  0  0  0  0
   11.1623  -15.1843   27.5973 C   0  0  0  0  0  0  0  0  0  0  0  0
    9.4606  -18.2671   25.8946 C   0  0  0  0  0  0  0  0  0  0  0  0
    8.3627  -17.6618   26.0788 O   0  0  0  0  0  0  0  0  0  0  0  0
    9.6120  -19.5743   26.3708 O   0  0  0  0  0  0  0  0  0  0  0  0
  2  1  1  6
  2  3  1  0
  4  3  1  0
  4  5  2  0
  6  5  1  0
  7  6  2  0
  8  9  2  0
  8  7  1  0
  9  4  1  0
 10 11  2  0
 10  2  1  0
 12 10  1  0
 13 21  1  0
 13 12  1  0
 13 14  1  1
 15 14  1  0
 15 16  2  0
 17 16  1  0
 18 17  2  0
 19 20  2  0
 19 18  1  0
 20 15  1  0
 21 22  2  0
 23 24  1  0
 23 21  1  0
 24 25  1  1
 25 26  1  0
 26 34  1  0
 26 27  2  0
 27 28  1  0
 29 28  1  0
 29 30  2  0
 31 30  1  0
 32 31  2  0
 33 32  1  0
 33 34  2  0
 34 29  1  0
 35 24  1  0
 36 35  2  0
 37 35  1  0
M  END
$$$$
