FFW.pdb
     RDKit          3D

 37 40  0  0  1  0  0  0  0  0999 V2000
    4.4929  -19.3608   23.9160 N   0  0  0  0  0  0  0  0  0  0  0  0
    4.5152  -18.2983   22.9464 C   0  0  1  0  0  0  0  0  0  0  0  0
    3.1204  -17.7367   22.7633 C   0  0  0  0  0  0  0  0  0  0  0  0
    2.3120  -18.7434   22.0345 C   0  0  0  0  0  0  0  0  0  0  0  0
    1.1834  -19.2163   22.6716 C   0  0  0  0  0  0  0  0  0  0  0  0
    0.4165  -20.1498   22.0095 C   0  0  0  0  0  0  0  0  0  0  0  0
    0.7743  -20.5935   20.7457 C   0  0  0  0  0  0  0  0  0  0  0  0
    1.9025  -20.1165   20.1162 C   0  0  0  0  0  0  0  0  0  0  0  0
    2.6814  -19.1838   20.7611 C   0  0  0  0  0  0  0  0  0  0  0  0
    5.4690  -17.2593   23.3950 C   0  0  0  0  0  0  0  0  0  0  0  0
    5.5554  -16.1355   22.7971 O   0  0  0  0  0  0  0  0  0  0  0  0
    6.3176  -17.4851   24.5086 N   0  0  0  0  0  0  0  0  0  0  0  0
    7.2586  -16.4249   24.9524 C   0  0  1  0  0  0  0  0  0  0  0  0
    7.2246  -16.4735   26.4484 C   0  0  0  0  0  0  0  0  0  0  0  0
    8.0283  -15.4948   27.1639 C   0  0  0  0  0  0  0  0  0  0  0  0
    7.5655  -14.1733   27.2716 C   0  0  0  0  0  0  0  0  0  0  0  0
    8.2782  -13.2272   27.9674 C   0  0  0  0  0  0  0  0  0  0  0  0
    9.4691  -13.5226   28.5877 C   0  0  0  0  0  0  0  0  0  0  0  0
    9.9381  -14.7940   28.4980 C   0  0  0  0  0  0  0  0  0  0  0  0
    9.2265  -15.7467   27.8007 C   0  0  0  0  0  0  0  0  0  0  0  0
    8.5840  -16.7702   24.4072 C   0  0  0  0  0  0  0  0  0  0  0  0
    8.9581  -17.9947   24.4883 O   0  0  0  0  0  0  0  0  0  0  0  0
    9.4674  -15.8517   23.7972 N   0  0  0  0  0  0  0  0  0  0  0  0
   10.6128  -16.3496   23.0553 C   0  0  1  0  0  0  0  0  0  0  0  0
   10.8524  -15.5062   21.8396 C   0  0  0  0  0  0  0  0  0  0  0  0
    9.6075  -15.0202   21.2502 C   0  0  0  0  0  0  0  0  0  0  0  0
    8.3416  -15.5620   21.4705 C   0  0  0  0  0  0  0  0  0  0  0  0
    7.4330  -14.8982   20.7432 N   0  0  0  0  0  0  0  0  0  0  0  0
    8.0300  -13.9296   20.0411 C   0  0  0  0  0  0  0  0  0  0  0  0
    7.4917  -12.9983   19.1835 C   0  0  0  0  0  0  0  0  0  0  0  0
    8.3471  -12.0734   18.5947 C   0  0  0  0  0  0  0  0  0  0  0  0
    9.6996  -12.1292   18.8957 C   0  0  0  0  0  0  0  0  0  0  0  0
   10.2134  -13.0722   19.7572 C   0  0  0  0  0  0  0  0  0  0  0  0
    9.3917  -13.9896   20.3453 C   0  0  0  0  0  0  0  0  0  0  0  0
   11.8196  -16.5609   23.8391 C   0  0  0  0  0  0  0  0  0  0  0  0
   12.9054  -16.9152   23.2904 O   0  0  0  0  0  0  0  0  0  0  0  0
   11.7817  -16.3687   25.2249 O   0  0  0  0  0  0  0  0  0  0  0  0
  2  1  1  1
  2  3  1  0
  4  3  1  0
  4  5  2  0
  6  5  1  0
  7  6  2  0
  8  9  2  0
  8  7  1  0
  9  4  1  0
 10 11  2  0
 10  2  1  0
 12 10  1  0
 13 21  1  0
 13 12  1  0
 13 14  1  1
 15 14  1  0
 15 16  2  0
 17 16  1  0
 18 17  2  0
 19 20  2  0
 19 18  1  0
 20 15  1  0
 21 22  2  0
 23 24  1  0
 23 21  1  0
 24 25  1  6
 25 26  1  0
 26 34  1  0
 26 27  2  0
 27 28  1  0
 29 28  1  0
 29 30  2  0
 31 30  1  0
 32 31  2  0
 33 32  1  0
 33 34  2  0
 34 29  1  0
 35 24  1  0
 36 35  2  0
 37 35  1  0
M  END
$$$$
