FFW.pdb
     RDKit          3D

 37 40  0  0  1  0  0  0  0  0999 V2000
    9.9017  -17.2432   18.0618 N   0  0  0  0  0  0  0  0  0  0  0  0
    9.1414  -17.6003   19.2298 C   0  0  1  0  0  0  0  0  0  0  0  0
    9.5882  -18.9534   19.7433 C   0  0  0  0  0  0  0  0  0  0  0  0
    9.1456  -19.9823   18.7719 C   0  0  0  0  0  0  0  0  0  0  0  0
    8.5125  -19.5319   17.6319 C   0  0  0  0  0  0  0  0  0  0  0  0
    8.0967  -20.4722   16.7150 C   0  0  0  0  0  0  0  0  0  0  0  0
    8.3113  -21.8235   16.9384 C   0  0  0  0  0  0  0  0  0  0  0  0
    8.9443  -22.2653   18.0789 C   0  0  0  0  0  0  0  0  0  0  0  0
    9.3669  -21.3417   19.0067 C   0  0  0  0  0  0  0  0  0  0  0  0
    9.3091  -16.5440   20.2528 C   0  0  0  0  0  0  0  0  0  0  0  0
   10.4313  -15.9629   20.4287 O   0  0  0  0  0  0  0  0  0  0  0  0
    8.2207  -16.1456   21.0701 N   0  0  0  0  0  0  0  0  0  0  0  0
    8.4702  -15.3771   22.3166 C   0  0  1  0  0  0  0  0  0  0  0  0
    7.1631  -14.7226   22.6403 C   0  0  0  0  0  0  0  0  0  0  0  0
    7.1172  -13.8793   23.8245 C   0  0  0  0  0  0  0  0  0  0  0  0
    6.3988  -14.3147   24.9500 C   0  0  0  0  0  0  0  0  0  0  0  0
    6.3586  -13.5636   26.0995 C   0  0  0  0  0  0  0  0  0  0  0  0
    7.0130  -12.3590   26.2059 C   0  0  0  0  0  0  0  0  0  0  0  0
    7.7147  -11.9159   25.1308 C   0  0  0  0  0  0  0  0  0  0  0  0
    7.7577  -12.6662   23.9752 C   0  0  0  0  0  0  0  0  0  0  0  0
    8.8842  -16.3485   23.3453 C   0  0  0  0  0  0  0  0  0  0  0  0
    7.9915  -16.7524   24.1734 O   0  0  0  0  0  0  0  0  0  0  0  0
   10.1903  -16.8703   23.4800 N   0  0  0  0  0  0  0  0  0  0  0  0
   11.0247  -16.4268   24.5833 C   0  0  1  0  0  0  0  0  0  0  0  0
   10.8202  -17.3085   25.7780 C   0  0  0  0  0  0  0  0  0  0  0  0
    9.7918  -16.7913   26.6769 C   0  0  0  0  0  0  0  0  0  0  0  0
    8.5043  -17.3083   26.8172 C   0  0  0  0  0  0  0  0  0  0  0  0
    7.8135  -16.5692   27.6957 N   0  0  0  0  0  0  0  0  0  0  0  0
    8.5792  -15.5747   28.1565 C   0  0  0  0  0  0  0  0  0  0  0  0
    8.2952  -14.5941   29.0787 C   0  0  0  0  0  0  0  0  0  0  0  0
    9.2959  -13.6841   29.4016 C   0  0  0  0  0  0  0  0  0  0  0  0
   10.5314  -13.8036   28.7832 C   0  0  0  0  0  0  0  0  0  0  0  0
   10.7899  -14.7942   27.8627 C   0  0  0  0  0  0  0  0  0  0  0  0
    9.8217  -15.6970   27.5308 C   0  0  0  0  0  0  0  0  0  0  0  0
   12.4300  -16.2317   24.2631 C   0  0  0  0  0  0  0  0  0  0  0  0
   12.8772  -16.4656   23.1008 O   0  0  0  0  0  0  0  0  0  0  0  0
   13.3047  -15.7766   25.2563 O   0  0  0  0  0  0  0  0  0  0  0  0
  2  1  1  6
  2  3  1  0
  4  3  1  0
  4  5  2  0
  6  5  1  0
  7  6  2  0
  8  9  2  0
  8  7  1  0
  9  4  1  0
 10 11  2  0
 10  2  1  0
 12 10  1  0
 13 21  1  0
 13 12  1  0
 13 14  1  1
 15 14  1  0
 15 16  2  0
 17 16  1  0
 18 17  2  0
 19 20  2  0
 19 18  1  0
 20 15  1  0
 21 22  2  0
 23 24  1  0
 23 21  1  0
 24 25  1  1
 25 26  1  0
 26 34  1  0
 26 27  2  0
 27 28  1  0
 29 28  1  0
 29 30  2  0
 31 30  1  0
 32 31  2  0
 33 32  1  0
 33 34  2  0
 34 29  1  0
 35 24  1  0
 36 35  2  0
 37 35  1  0
M  END
$$$$
