FFW.pdb
     RDKit          3D

 37 40  0  0  1  0  0  0  0  0999 V2000
    8.9172  -17.5587   18.5779 N   0  0  0  0  0  0  0  0  0  0  0  0
    8.3108  -17.8691   19.8450 C   0  0  1  0  0  0  0  0  0  0  0  0
    8.7365  -19.2508   20.2967 C   0  0  0  0  0  0  0  0  0  0  0  0
    8.0843  -20.2448   19.4108 C   0  0  0  0  0  0  0  0  0  0  0  0
    8.7910  -20.6441   18.2953 C   0  0  0  0  0  0  0  0  0  0  0  0
    8.2037  -21.5700   17.4611 C   0  0  0  0  0  0  0  0  0  0  0  0
    6.9445  -22.0780   17.7410 C   0  0  0  0  0  0  0  0  0  0  0  0
    6.2453  -21.6745   18.8567 C   0  0  0  0  0  0  0  0  0  0  0  0
    6.8148  -20.7506   19.7020 C   0  0  0  0  0  0  0  0  0  0  0  0
    8.6933  -16.8302   20.8273 C   0  0  0  0  0  0  0  0  0  0  0  0
    9.8831  -16.3724   20.8793 O   0  0  0  0  0  0  0  0  0  0  0  0
    7.7423  -16.3113   21.7425 N   0  0  0  0  0  0  0  0  0  0  0  0
    8.1712  -15.3602   22.7999 C   0  0  1  0  0  0  0  0  0  0  0  0
    6.9056  -14.9263   23.4718 C   0  0  0  0  0  0  0  0  0  0  0  0
    7.0091  -13.8688   24.4652 C   0  0  0  0  0  0  0  0  0  0  0  0
    8.1922  -13.1164   24.5462 C   0  0  0  0  0  0  0  0  0  0  0  0
    8.3175  -12.0874   25.4476 C   0  0  0  0  0  0  0  0  0  0  0  0
    7.3012  -11.7447   26.3080 C   0  0  0  0  0  0  0  0  0  0  0  0
    6.1466  -12.4575   26.2492 C   0  0  0  0  0  0  0  0  0  0  0  0
    6.0165  -13.4911   25.3465 C   0  0  0  0  0  0  0  0  0  0  0  0
    9.0661  -16.1009   23.7075 C   0  0  0  0  0  0  0  0  0  0  0  0
    8.5691  -16.5327   24.8085 O   0  0  0  0  0  0  0  0  0  0  0  0
   10.4280  -16.3740   23.4489 N   0  0  0  0  0  0  0  0  0  0  0  0
   11.3835  -16.3322   24.5424 C   0  0  1  0  0  0  0  0  0  0  0  0
   11.1626  -17.4876   25.4713 C   0  0  0  0  0  0  0  0  0  0  0  0
   10.4747  -17.0881   26.6962 C   0  0  0  0  0  0  0  0  0  0  0  0
    9.3508  -17.7138   27.2347 C   0  0  0  0  0  0  0  0  0  0  0  0
    8.9576  -17.0648   28.3389 N   0  0  0  0  0  0  0  0  0  0  0  0
    9.7683  -16.0273   28.5711 C   0  0  0  0  0  0  0  0  0  0  0  0
    9.7554  -15.1058   29.5925 C   0  0  0  0  0  0  0  0  0  0  0  0
   10.7443  -14.1283   29.6102 C   0  0  0  0  0  0  0  0  0  0  0  0
   11.6966  -14.1243   28.6021 C   0  0  0  0  0  0  0  0  0  0  0  0
   11.6869  -15.0578   27.5902 C   0  0  0  0  0  0  0  0  0  0  0  0
   10.7248  -16.0252   27.5536 C   0  0  0  0  0  0  0  0  0  0  0  0
   12.7759  -16.1863   24.1485 C   0  0  0  0  0  0  0  0  0  0  0  0
   13.7060  -16.1942   25.0090 O   0  0  0  0  0  0  0  0  0  0  0  0
   13.0951  -16.0351   22.7943 O   0  0  0  0  0  0  0  0  0  0  0  0
  2  1  1  6
  2  3  1  0
  4  3  1  0
  4  5  2  0
  6  5  1  0
  7  6  2  0
  8  9  2  0
  8  7  1  0
  9  4  1  0
 10 11  2  0
 10  2  1  0
 12 10  1  0
 13 21  1  0
 13 12  1  0
 13 14  1  1
 15 14  1  0
 15 16  2  0
 17 16  1  0
 18 17  2  0
 19 20  2  0
 19 18  1  0
 20 15  1  0
 21 22  2  0
 23 24  1  0
 23 21  1  0
 24 25  1  6
 25 26  1  0
 26 34  1  0
 26 27  2  0
 27 28  1  0
 29 28  1  0
 29 30  2  0
 31 30  1  0
 32 31  2  0
 33 32  1  0
 33 34  2  0
 34 29  1  0
 35 24  1  0
 36 35  2  0
 37 35  1  0
M  END
$$$$
