FFW.pdb
     RDKit          3D

 37 40  0  0  1  0  0  0  0  0999 V2000
    7.7208  -17.0120   19.7499 N   0  0  0  0  0  0  0  0  0  0  0  0
    8.5417  -16.2764   20.6744 C   0  0  1  0  0  0  0  0  0  0  0  0
    7.7528  -15.1247   21.2622 C   0  0  0  0  0  0  0  0  0  0  0  0
    7.8011  -13.9971   20.3008 C   0  0  0  0  0  0  0  0  0  0  0  0
    6.6658  -13.7678   19.5513 C   0  0  0  0  0  0  0  0  0  0  0  0
    6.6893  -12.7222   18.6546 C   0  0  0  0  0  0  0  0  0  0  0  0
    7.8199  -11.9319   18.5167 C   0  0  0  0  0  0  0  0  0  0  0  0
    8.9494  -12.1670   19.2688 C   0  0  0  0  0  0  0  0  0  0  0  0
    8.9457  -13.2067   20.1696 C   0  0  0  0  0  0  0  0  0  0  0  0
    9.0271  -17.1996   21.7244 C   0  0  0  0  0  0  0  0  0  0  0  0
    8.2799  -18.1204   22.1954 O   0  0  0  0  0  0  0  0  0  0  0  0
   10.3439  -17.0862   22.2386 N   0  0  0  0  0  0  0  0  0  0  0  0
   10.7820  -17.9589   23.3579 C   0  0  1  0  0  0  0  0  0  0  0  0
   12.0333  -18.6210   22.8705 C   0  0  0  0  0  0  0  0  0  0  0  0
   11.8871  -19.6569   21.8600 C   0  0  0  0  0  0  0  0  0  0  0  0
   12.2044  -19.3625   20.5240 C   0  0  0  0  0  0  0  0  0  0  0  0
   12.1119  -20.3221   19.5454 C   0  0  0  0  0  0  0  0  0  0  0  0
   11.7080  -21.6071   19.8210 C   0  0  0  0  0  0  0  0  0  0  0  0
   11.3954  -21.9170   21.1058 C   0  0  0  0  0  0  0  0  0  0  0  0
   11.4865  -20.9572   22.0911 C   0  0  0  0  0  0  0  0  0  0  0  0
   11.0234  -17.0820   24.5180 C   0  0  0  0  0  0  0  0  0  0  0  0
   11.9749  -16.2263   24.4270 O   0  0  0  0  0  0  0  0  0  0  0  0
   10.2789  -17.1124   25.7185 N   0  0  0  0  0  0  0  0  0  0  0  0
   10.8399  -16.5198   26.9203 C   0  0  1  0  0  0  0  0  0  0  0  0
   10.2640  -15.1543   27.1452 C   0  0  0  0  0  0  0  0  0  0  0  0
    8.8154  -15.1283   26.9604 C   0  0  0  0  0  0  0  0  0  0  0  0
    7.9991  -16.2477   26.8015 C   0  0  0  0  0  0  0  0  0  0  0  0
    6.7303  -15.8592   26.6159 N   0  0  0  0  0  0  0  0  0  0  0  0
    6.6532  -14.5248   26.6436 C   0  0  0  0  0  0  0  0  0  0  0  0
    5.5602  -13.6990   26.5177 C   0  0  0  0  0  0  0  0  0  0  0  0
    5.7581  -12.3257   26.6110 C   0  0  0  0  0  0  0  0  0  0  0  0
    7.0427  -11.8497   26.8259 C   0  0  0  0  0  0  0  0  0  0  0  0
    8.1204  -12.6978   26.9477 C   0  0  0  0  0  0  0  0  0  0  0  0
    7.9484  -14.0487   26.8585 C   0  0  0  0  0  0  0  0  0  0  0  0
   10.7874  -17.3546   28.1102 C   0  0  0  0  0  0  0  0  0  0  0  0
   11.3205  -16.9820   29.1977 O   0  0  0  0  0  0  0  0  0  0  0  0
   10.1356  -18.5918   28.0538 O   0  0  0  0  0  0  0  0  0  0  0  0
  2  1  1  6
  2  3  1  0
  4  3  1  0
  4  5  2  0
  6  5  1  0
  7  6  2  0
  8  9  2  0
  8  7  1  0
  9  4  1  0
 10 11  2  0
 10  2  1  0
 12 10  1  0
 13 21  1  0
 13 12  1  0
 13 14  1  6
 15 14  1  0
 15 16  2  0
 17 16  1  0
 18 17  2  0
 19 20  2  0
 19 18  1  0
 20 15  1  0
 21 22  2  0
 23 24  1  0
 23 21  1  0
 24 25  1  1
 25 26  1  0
 26 34  1  0
 26 27  2  0
 27 28  1  0
 29 28  1  0
 29 30  2  0
 31 30  1  0
 32 31  2  0
 33 32  1  0
 33 34  2  0
 34 29  1  0
 35 24  1  0
 36 35  2  0
 37 35  1  0
M  END
$$$$
