FFW.pdb
     RDKit          3D

 37 40  0  0  1  0  0  0  0  0999 V2000
   12.0530  -19.4191   18.3667 N   0  0  0  0  0  0  0  0  0  0  0  0
   11.3216  -19.5747   19.5957 C   0  0  1  0  0  0  0  0  0  0  0  0
   12.0688  -20.5065   20.5272 C   0  0  0  0  0  0  0  0  0  0  0  0
   11.9536  -21.8832   19.9892 C   0  0  0  0  0  0  0  0  0  0  0  0
   13.1038  -22.4536   19.4843 C   0  0  0  0  0  0  0  0  0  0  0  0
   13.0185  -23.7339   18.9829 C   0  0  0  0  0  0  0  0  0  0  0  0
   11.8131  -24.4188   18.9894 C   0  0  0  0  0  0  0  0  0  0  0  0
   10.6692  -23.8427   19.4954 C   0  0  0  0  0  0  0  0  0  0  0  0
   10.7339  -22.5648   20.0006 C   0  0  0  0  0  0  0  0  0  0  0  0
   11.1166  -18.2411   20.2041 C   0  0  0  0  0  0  0  0  0  0  0  0
   11.9715  -17.3057   20.0555 O   0  0  0  0  0  0  0  0  0  0  0  0
    9.9575  -17.9643   20.9729 N   0  0  0  0  0  0  0  0  0  0  0  0
    9.7269  -16.5958   21.5027 C   0  0  1  0  0  0  0  0  0  0  0  0
    8.3005  -16.2839   21.1715 C   0  0  0  0  0  0  0  0  0  0  0  0
    7.8244  -14.9442   21.4787 C   0  0  0  0  0  0  0  0  0  0  0  0
    8.3321  -13.8526   20.7556 C   0  0  0  0  0  0  0  0  0  0  0  0
    7.8840  -12.5757   20.9919 C   0  0  0  0  0  0  0  0  0  0  0  0
    6.9251  -12.3037   21.9390 C   0  0  0  0  0  0  0  0  0  0  0  0
    6.4183  -13.3428   22.6519 C   0  0  0  0  0  0  0  0  0  0  0  0
    6.8651  -14.6257   22.4183 C   0  0  0  0  0  0  0  0  0  0  0  0
    9.9692  -16.6506   22.9557 C   0  0  0  0  0  0  0  0  0  0  0  0
    9.5805  -17.7001   23.5828 O   0  0  0  0  0  0  0  0  0  0  0  0
   10.6036  -15.6343   23.7046 N   0  0  0  0  0  0  0  0  0  0  0  0
   10.9026  -15.8637   25.1076 C   0  0  1  0  0  0  0  0  0  0  0  0
   10.3195  -14.7696   25.9499 C   0  0  0  0  0  0  0  0  0  0  0  0
    8.8662  -14.8689   26.0562 C   0  0  0  0  0  0  0  0  0  0  0  0
    8.1293  -16.0516   26.0027 C   0  0  0  0  0  0  0  0  0  0  0  0
    6.8216  -15.7739   26.0919 N   0  0  0  0  0  0  0  0  0  0  0  0
    6.6424  -14.4538   26.2046 C   0  0  0  0  0  0  0  0  0  0  0  0
    5.4823  -13.7269   26.3407 C   0  0  0  0  0  0  0  0  0  0  0  0
    5.5816  -12.3455   26.4654 C   0  0  0  0  0  0  0  0  0  0  0  0
    6.8396  -11.7625   26.4474 C   0  0  0  0  0  0  0  0  0  0  0  0
    7.9857  -12.5128   26.3092 C   0  0  0  0  0  0  0  0  0  0  0  0
    7.9108  -13.8698   26.1846 C   0  0  0  0  0  0  0  0  0  0  0  0
   10.5764  -17.1906   25.6058 C   0  0  0  0  0  0  0  0  0  0  0  0
    9.8749  -17.9945   24.9222 O   0  0  0  0  0  0  0  0  0  0  0  0
   11.0463  -17.5878   26.8628 O   0  0  0  0  0  0  0  0  0  0  0  0
  2  1  1  6
  2  3  1  0
  4  3  1  0
  4  5  2  0
  6  5  1  0
  7  6  2  0
  8  9  2  0
  8  7  1  0
  9  4  1  0
 10 11  2  0
 10  2  1  0
 12 10  1  0
 13 21  1  0
 13 12  1  0
 13 14  1  1
 15 14  1  0
 15 16  2  0
 17 16  1  0
 18 17  2  0
 19 20  2  0
 19 18  1  0
 20 15  1  0
 21 22  2  0
 23 24  1  0
 23 21  1  0
 24 25  1  1
 25 26  1  0
 26 34  1  0
 26 27  2  0
 27 28  1  0
 29 28  1  0
 29 30  2  0
 31 30  1  0
 32 31  2  0
 33 32  1  0
 33 34  2  0
 34 29  1  0
 35 24  1  0
 36 35  2  0
 37 35  1  0
M  END
$$$$
