FFW.pdb
     RDKit          3D

 37 40  0  0  1  0  0  0  0  0999 V2000
    7.3277  -17.0098   17.8975 N   0  0  0  0  0  0  0  0  0  0  0  0
    8.4299  -16.9512   18.8202 C   0  0  1  0  0  0  0  0  0  0  0  0
    9.3955  -15.8614   18.4029 C   0  0  0  0  0  0  0  0  0  0  0  0
    8.8354  -14.5598   18.8390 C   0  0  0  0  0  0  0  0  0  0  0  0
    9.6481  -13.7603   19.6160 C   0  0  0  0  0  0  0  0  0  0  0  0
    9.1473  -12.5451   20.0286 C   0  0  0  0  0  0  0  0  0  0  0  0
    7.8686  -12.1469   19.6704 C   0  0  0  0  0  0  0  0  0  0  0  0
    7.0634  -12.9505   18.8943 C   0  0  0  0  0  0  0  0  0  0  0  0
    7.5454  -14.1679   18.4724 C   0  0  0  0  0  0  0  0  0  0  0  0
    7.9023  -16.7222   20.1839 C   0  0  0  0  0  0  0  0  0  0  0  0
    6.8057  -16.0986   20.3749 O   0  0  0  0  0  0  0  0  0  0  0  0
    8.6047  -17.1930   21.3225 N   0  0  0  0  0  0  0  0  0  0  0  0
    8.6419  -16.3760   22.5625 C   0  0  1  0  0  0  0  0  0  0  0  0
    7.2068  -16.1503   22.9250 C   0  0  0  0  0  0  0  0  0  0  0  0
    6.9368  -15.5057   24.2006 C   0  0  0  0  0  0  0  0  0  0  0  0
    6.8550  -14.1048   24.2581 C   0  0  0  0  0  0  0  0  0  0  0  0
    6.5686  -13.4593   25.4364 C   0  0  0  0  0  0  0  0  0  0  0  0
    6.3495  -14.1447   26.6080 C   0  0  0  0  0  0  0  0  0  0  0  0
    6.4232  -15.5005   26.5785 C   0  0  0  0  0  0  0  0  0  0  0  0
    6.7105  -16.1526   25.3984 C   0  0  0  0  0  0  0  0  0  0  0  0
    9.3620  -17.1666   23.5771 C   0  0  0  0  0  0  0  0  0  0  0  0
    9.2256  -18.4418   23.5422 O   0  0  0  0  0  0  0  0  0  0  0  0
   10.1952  -16.6216   24.5796 N   0  0  0  0  0  0  0  0  0  0  0  0
   11.3085  -17.4059   25.0853 C   0  0  1  0  0  0  0  0  0  0  0  0
   12.2572  -16.5317   25.8483 C   0  0  0  0  0  0  0  0  0  0  0  0
   11.6375  -15.9469   27.0345 C   0  0  0  0  0  0  0  0  0  0  0  0
   11.6334  -16.5135   28.3087 C   0  0  0  0  0  0  0  0  0  0  0  0
   10.9427  -15.7313   29.1491 N   0  0  0  0  0  0  0  0  0  0  0  0
   10.4801  -14.6591   28.4980 C   0  0  0  0  0  0  0  0  0  0  0  0
    9.7446  -13.5925   28.9605 C   0  0  0  0  0  0  0  0  0  0  0  0
    9.4116  -12.5837   28.0631 C   0  0  0  0  0  0  0  0  0  0  0  0
    9.8331  -12.6956   26.7468 C   0  0  0  0  0  0  0  0  0  0  0  0
   10.5680  -13.7743   26.3088 C   0  0  0  0  0  0  0  0  0  0  0  0
   10.9050  -14.7757   27.1728 C   0  0  0  0  0  0  0  0  0  0  0  0
   10.9426  -18.6093   25.8156 C   0  0  0  0  0  0  0  0  0  0  0  0
   11.7986  -19.5080   26.0714 O   0  0  0  0  0  0  0  0  0  0  0  0
    9.6213  -18.7782   26.2447 O   0  0  0  0  0  0  0  0  0  0  0  0
  2  1  1  6
  2  3  1  0
  4  3  1  0
  4  5  2  0
  6  5  1  0
  7  6  2  0
  8  9  2  0
  8  7  1  0
  9  4  1  0
 10 11  2  0
 10  2  1  0
 12 10  1  0
 13 21  1  0
 13 12  1  0
 13 14  1  1
 15 14  1  0
 15 16  2  0
 17 16  1  0
 18 17  2  0
 19 20  2  0
 19 18  1  0
 20 15  1  0
 21 22  2  0
 23 24  1  0
 23 21  1  0
 24 25  1  1
 25 26  1  0
 26 34  1  0
 26 27  2  0
 27 28  1  0
 29 28  1  0
 29 30  2  0
 31 30  1  0
 32 31  2  0
 33 32  1  0
 33 34  2  0
 34 29  1  0
 35 24  1  0
 36 35  2  0
 37 35  1  0
M  END
$$$$
