FFW.pdb
     RDKit          3D

 37 40  0  0  1  0  0  0  0  0999 V2000
    9.8743  -18.1028   18.3305 N   0  0  0  0  0  0  0  0  0  0  0  0
    9.2987  -18.3761   19.6203 C   0  0  1  0  0  0  0  0  0  0  0  0
   10.0114  -19.5460   20.2666 C   0  0  0  0  0  0  0  0  0  0  0  0
    9.3263  -20.7912   19.8444 C   0  0  0  0  0  0  0  0  0  0  0  0
    9.7314  -21.9620   20.4512 C   0  0  0  0  0  0  0  0  0  0  0  0
    9.1046  -23.1298   20.0753 C   0  0  0  0  0  0  0  0  0  0  0  0
    8.1014  -23.1194   19.1185 C   0  0  0  0  0  0  0  0  0  0  0  0
    7.7024  -21.9464   18.5174 C   0  0  0  0  0  0  0  0  0  0  0  0
    8.3163  -20.7697   18.8792 C   0  0  0  0  0  0  0  0  0  0  0  0
    9.3848  -17.1552   20.4526 C   0  0  0  0  0  0  0  0  0  0  0  0
   10.3568  -16.3374   20.3321 O   0  0  0  0  0  0  0  0  0  0  0  0
    8.3833  -16.8585   21.4118 N   0  0  0  0  0  0  0  0  0  0  0  0
    8.5021  -15.6435   22.2581 C   0  0  1  0  0  0  0  0  0  0  0  0
    7.1517  -15.4671   22.8802 C   0  0  0  0  0  0  0  0  0  0  0  0
    7.0094  -14.4132   23.8725 C   0  0  0  0  0  0  0  0  0  0  0  0
    7.6208  -13.1694   23.6455 C   0  0  0  0  0  0  0  0  0  0  0  0
    7.4827  -12.1375   24.5417 C   0  0  0  0  0  0  0  0  0  0  0  0
    6.7460  -12.2682   25.6952 C   0  0  0  0  0  0  0  0  0  0  0  0
    6.1448  -13.4616   25.9377 C   0  0  0  0  0  0  0  0  0  0  0  0
    6.2809  -14.5000   25.0413 C   0  0  0  0  0  0  0  0  0  0  0  0
    9.5516  -15.9157   23.2568 C   0  0  0  0  0  0  0  0  0  0  0  0
   10.4611  -15.0255   23.4193 O   0  0  0  0  0  0  0  0  0  0  0  0
    9.6238  -17.0820   24.0509 N   0  0  0  0  0  0  0  0  0  0  0  0
   10.8183  -17.3360   24.8376 C   0  0  1  0  0  0  0  0  0  0  0  0
   10.4479  -17.7037   26.2427 C   0  0  0  0  0  0  0  0  0  0  0  0
    9.6478  -16.6687   26.8920 C   0  0  0  0  0  0  0  0  0  0  0  0
    8.2553  -16.6474   26.9638 C   0  0  0  0  0  0  0  0  0  0  0  0
    7.8520  -15.5360   27.5940 N   0  0  0  0  0  0  0  0  0  0  0  0
    8.9123  -14.8049   27.9528 C   0  0  0  0  0  0  0  0  0  0  0  0
    8.9742  -13.6099   28.6315 C   0  0  0  0  0  0  0  0  0  0  0  0
   10.2269  -13.0698   28.9013 C   0  0  0  0  0  0  0  0  0  0  0  0
   11.3548  -13.7558   28.4766 C   0  0  0  0  0  0  0  0  0  0  0  0
   11.2656  -14.9504   27.7981 C   0  0  0  0  0  0  0  0  0  0  0  0
   10.0461  -15.4975   27.5224 C   0  0  0  0  0  0  0  0  0  0  0  0
   11.7689  -18.2643   24.2460 C   0  0  0  0  0  0  0  0  0  0  0  0
   11.5164  -18.8559   23.1542 O   0  0  0  0  0  0  0  0  0  0  0  0
   12.9854  -18.5084   24.8935 O   0  0  0  0  0  0  0  0  0  0  0  0
  2  1  1  6
  2  3  1  0
  4  3  1  0
  4  5  2  0
  6  5  1  0
  7  6  2  0
  8  9  2  0
  8  7  1  0
  9  4  1  0
 10 11  2  0
 10  2  1  0
 12 10  1  0
 13 21  1  0
 13 12  1  0
 13 14  1  1
 15 14  1  0
 15 16  2  0
 17 16  1  0
 18 17  2  0
 19 20  2  0
 19 18  1  0
 20 15  1  0
 21 22  2  0
 23 24  1  0
 23 21  1  0
 24 25  1  1
 25 26  1  0
 26 34  1  0
 26 27  2  0
 27 28  1  0
 29 28  1  0
 29 30  2  0
 31 30  1  0
 32 31  2  0
 33 32  1  0
 33 34  2  0
 34 29  1  0
 35 24  1  0
 36 35  2  0
 37 35  1  0
M  END
$$$$
