FFW.pdb
     RDKit          3D

 37 40  0  0  1  0  0  0  0  0999 V2000
    5.6220  -20.6213   24.5435 N   0  0  0  0  0  0  0  0  0  0  0  0
    5.4083  -19.9267   23.3020 C   0  0  1  0  0  0  0  0  0  0  0  0
    3.9910  -20.1559   22.8192 C   0  0  0  0  0  0  0  0  0  0  0  0
    3.8381  -21.5981   22.5114 C   0  0  0  0  0  0  0  0  0  0  0  0
    2.6237  -22.0000   21.9948 C   0  0  0  0  0  0  0  0  0  0  0  0
    2.4628  -23.3358   21.6987 C   0  0  0  0  0  0  0  0  0  0  0  0
    3.4921  -24.2389   21.9158 C   0  0  0  0  0  0  0  0  0  0  0  0
    4.7017  -23.8299   22.4318 C   0  0  0  0  0  0  0  0  0  0  0  0
    4.8818  -22.5000   22.7340 C   0  0  0  0  0  0  0  0  0  0  0  0
    5.6924  -18.4880   23.5020 C   0  0  0  0  0  0  0  0  0  0  0  0
    5.3146  -17.6130   22.6537 O   0  0  0  0  0  0  0  0  0  0  0  0
    6.3959  -18.0397   24.6489 N   0  0  0  0  0  0  0  0  0  0  0  0
    6.8180  -16.6193   24.7531 C   0  0  1  0  0  0  0  0  0  0  0  0
    6.6522  -16.2675   26.1989 C   0  0  0  0  0  0  0  0  0  0  0  0
    7.0547  -14.9310   26.6083 C   0  0  0  0  0  0  0  0  0  0  0  0
    6.1308  -13.8773   26.5161 C   0  0  0  0  0  0  0  0  0  0  0  0
    6.4607  -12.6077   26.9237 C   0  0  0  0  0  0  0  0  0  0  0  0
    7.6998  -12.3064   27.4379 C   0  0  0  0  0  0  0  0  0  0  0  0
    8.6112  -13.3084   27.5373 C   0  0  0  0  0  0  0  0  0  0  0  0
    8.2846  -14.5840   27.1293 C   0  0  0  0  0  0  0  0  0  0  0  0
    8.2241  -16.5551   24.3151 C   0  0  0  0  0  0  0  0  0  0  0  0
    8.9768  -17.5575   24.5881 O   0  0  0  0  0  0  0  0  0  0  0  0
    8.7993  -15.4732   23.6117 N   0  0  0  0  0  0  0  0  0  0  0  0
   10.1871  -15.5542   23.1902 C   0  0  1  0  0  0  0  0  0  0  0  0
   10.5039  -14.4504   22.2268 C   0  0  0  0  0  0  0  0  0  0  0  0
    9.3103  -13.9446   21.5542 C   0  0  0  0  0  0  0  0  0  0  0  0
    8.2022  -13.3810   22.1860 C   0  0  0  0  0  0  0  0  0  0  0  0
    7.2747  -13.0624   21.2731 N   0  0  0  0  0  0  0  0  0  0  0  0
    7.7086  -13.3853   20.0504 C   0  0  0  0  0  0  0  0  0  0  0  0
    7.1036  -13.2228   18.8255 C   0  0  0  0  0  0  0  0  0  0  0  0
    7.7962  -13.6287   17.6900 C   0  0  0  0  0  0  0  0  0  0  0  0
    9.0609  -14.1772   17.8402 C   0  0  0  0  0  0  0  0  0  0  0  0
    9.6440  -14.3297   19.0781 C   0  0  0  0  0  0  0  0  0  0  0  0
    8.9814  -13.9388   20.2054 C   0  0  0  0  0  0  0  0  0  0  0  0
   11.1606  -15.6577   24.2658 C   0  0  0  0  0  0  0  0  0  0  0  0
   10.8152  -15.5311   25.4784 O   0  0  0  0  0  0  0  0  0  0  0  0
   12.5034  -15.9023   23.9567 O   0  0  0  0  0  0  0  0  0  0  0  0
  2  1  1  1
  2  3  1  0
  4  3  1  0
  4  5  2  0
  6  5  1  0
  7  6  2  0
  8  9  2  0
  8  7  1  0
  9  4  1  0
 10 11  2  0
 10  2  1  0
 12 10  1  0
 13 21  1  0
 13 12  1  0
 13 14  1  1
 15 14  1  0
 15 16  2  0
 17 16  1  0
 18 17  2  0
 19 20  2  0
 19 18  1  0
 20 15  1  0
 21 22  2  0
 23 24  1  0
 23 21  1  0
 24 25  1  1
 25 26  1  0
 26 34  1  0
 26 27  2  0
 27 28  1  0
 29 28  1  0
 29 30  2  0
 31 30  1  0
 32 31  2  0
 33 32  1  0
 33 34  2  0
 34 29  1  0
 35 24  1  0
 36 35  2  0
 37 35  1  0
M  END
$$$$
