FFW.pdb
     RDKit          3D

 37 40  0  0  1  0  0  0  0  0999 V2000
    9.7127  -21.3868   19.6108 N   0  0  0  0  0  0  0  0  0  0  0  0
    9.1197  -20.7850   20.7752 C   0  0  1  0  0  0  0  0  0  0  0  0
    9.6995  -21.4055   22.0295 C   0  0  0  0  0  0  0  0  0  0  0  0
    9.0148  -22.7001   22.2602 C   0  0  0  0  0  0  0  0  0  0  0  0
    9.7569  -23.8439   22.0505 C   0  0  0  0  0  0  0  0  0  0  0  0
    9.1398  -25.0572   22.2630 C   0  0  0  0  0  0  0  0  0  0  0  0
    7.8171  -25.1172   22.6738 C   0  0  0  0  0  0  0  0  0  0  0  0
    7.0828  -23.9708   22.8811 C   0  0  0  0  0  0  0  0  0  0  0  0
    7.6813  -22.7496   22.6742 C   0  0  0  0  0  0  0  0  0  0  0  0
    9.3506  -19.3238   20.7304 C   0  0  0  0  0  0  0  0  0  0  0  0
   10.4855  -18.8412   20.4031 O   0  0  0  0  0  0  0  0  0  0  0  0
    8.3107  -18.4144   21.0509 N   0  0  0  0  0  0  0  0  0  0  0  0
    8.5580  -16.9510   20.9878 C   0  0  1  0  0  0  0  0  0  0  0  0
    7.2022  -16.3215   21.0736 C   0  0  0  0  0  0  0  0  0  0  0  0
    7.1446  -14.8685   21.1029 C   0  0  0  0  0  0  0  0  0  0  0  0
    6.6983  -14.2225   22.2673 C   0  0  0  0  0  0  0  0  0  0  0  0
    6.6607  -12.8516   22.3474 C   0  0  0  0  0  0  0  0  0  0  0  0
    7.0543  -12.0498   21.3021 C   0  0  0  0  0  0  0  0  0  0  0  0
    7.4899  -12.6506   20.1647 C   0  0  0  0  0  0  0  0  0  0  0  0
    7.5291  -14.0259   20.0798 C   0  0  0  0  0  0  0  0  0  0  0  0
    9.4121  -16.6090   22.1396 C   0  0  0  0  0  0  0  0  0  0  0  0
   10.5199  -16.0083   21.8990 O   0  0  0  0  0  0  0  0  0  0  0  0
    9.0955  -16.8895   23.4877 N   0  0  0  0  0  0  0  0  0  0  0  0
   10.0499  -16.5512   24.5293 C   0  0  1  0  0  0  0  0  0  0  0  0
   10.0191  -15.0783   24.8053 C   0  0  0  0  0  0  0  0  0  0  0  0
    8.6836  -14.6121   25.1690 C   0  0  0  0  0  0  0  0  0  0  0  0
    7.5679  -15.4251   25.3662 C   0  0  0  0  0  0  0  0  0  0  0  0
    6.5002  -14.6666   25.6489 N   0  0  0  0  0  0  0  0  0  0  0  0
    6.8462  -13.3752   25.6523 C   0  0  0  0  0  0  0  0  0  0  0  0
    6.0873  -12.2567   25.9087 C   0  0  0  0  0  0  0  0  0  0  0  0
    6.7112  -11.0145   25.8698 C   0  0  0  0  0  0  0  0  0  0  0  0
    8.0651  -10.9567   25.5757 C   0  0  0  0  0  0  0  0  0  0  0  0
    8.8022  -12.0916   25.3221 C   0  0  0  0  0  0  0  0  0  0  0  0
    8.2095  -13.3205   25.3543 C   0  0  0  0  0  0  0  0  0  0  0  0
    9.9610  -17.3517   25.7404 C   0  0  0  0  0  0  0  0  0  0  0  0
   10.8235  -17.2455   26.6625 O   0  0  0  0  0  0  0  0  0  0  0  0
    8.9032  -18.2557   25.8909 O   0  0  0  0  0  0  0  0  0  0  0  0
  2  1  1  6
  2  3  1  0
  4  3  1  0
  4  5  2  0
  6  5  1  0
  7  6  2  0
  8  9  2  0
  8  7  1  0
  9  4  1  0
 10 11  2  0
 10  2  1  0
 12 10  1  0
 13 21  1  0
 13 12  1  0
 13 14  1  1
 15 14  1  0
 15 16  2  0
 17 16  1  0
 18 17  2  0
 19 20  2  0
 19 18  1  0
 20 15  1  0
 21 22  2  0
 23 24  1  0
 23 21  1  0
 24 25  1  1
 25 26  1  0
 26 34  1  0
 26 27  2  0
 27 28  1  0
 29 28  1  0
 29 30  2  0
 31 30  1  0
 32 31  2  0
 33 32  1  0
 33 34  2  0
 34 29  1  0
 35 24  1  0
 36 35  2  0
 37 35  1  0
M  END
$$$$
