FFW.pdb
     RDKit          3D

 37 40  0  0  1  0  0  0  0  0999 V2000
    7.0203  -17.7752   24.7203 N   0  0  0  0  0  0  0  0  0  0  0  0
    6.7019  -17.7221   23.3184 C   0  0  1  0  0  0  0  0  0  0  0  0
    5.8384  -16.5115   23.0303 C   0  0  0  0  0  0  0  0  0  0  0  0
    6.1567  -15.4703   24.0367 C   0  0  0  0  0  0  0  0  0  0  0  0
    6.5207  -14.2294   23.5561 C   0  0  0  0  0  0  0  0  0  0  0  0
    6.8171  -13.2470   24.4753 C   0  0  0  0  0  0  0  0  0  0  0  0
    6.7491  -13.5054   25.8357 C   0  0  0  0  0  0  0  0  0  0  0  0
    6.3846  -14.7468   26.3077 C   0  0  0  0  0  0  0  0  0  0  0  0
    6.0850  -15.7411   25.4055 C   0  0  0  0  0  0  0  0  0  0  0  0
    7.9612  -17.6936   22.5411 C   0  0  0  0  0  0  0  0  0  0  0  0
    8.2702  -18.6406   21.7439 O   0  0  0  0  0  0  0  0  0  0  0  0
    8.8638  -16.6063   22.6611 N   0  0  0  0  0  0  0  0  0  0  0  0
    9.9690  -16.4470   21.6815 C   0  0  1  0  0  0  0  0  0  0  0  0
   10.2509  -14.9770   21.6461 C   0  0  0  0  0  0  0  0  0  0  0  0
    9.1428  -14.0954   21.3134 C   0  0  0  0  0  0  0  0  0  0  0  0
    8.2778  -14.4460   20.2640 C   0  0  0  0  0  0  0  0  0  0  0  0
    7.2003  -13.6578   19.9403 C   0  0  0  0  0  0  0  0  0  0  0  0
    6.9163  -12.4970   20.6201 C   0  0  0  0  0  0  0  0  0  0  0  0
    7.7382  -12.1360   21.6393 C   0  0  0  0  0  0  0  0  0  0  0  0
    8.8208  -12.9237   21.9676 C   0  0  0  0  0  0  0  0  0  0  0  0
   11.1110  -17.2278   22.1905 C   0  0  0  0  0  0  0  0  0  0  0  0
   12.2133  -17.1615   21.5374 O   0  0  0  0  0  0  0  0  0  0  0  0
   11.0802  -18.0377   23.3479 N   0  0  0  0  0  0  0  0  0  0  0  0
   11.9590  -17.7237   24.4612 C   0  0  1  0  0  0  0  0  0  0  0  0
   11.8112  -16.2841   24.8513 C   0  0  0  0  0  0  0  0  0  0  0  0
   11.2298  -16.1292   26.1821 C   0  0  0  0  0  0  0  0  0  0  0  0
   10.5862  -17.1321   26.9065 C   0  0  0  0  0  0  0  0  0  0  0  0
   10.1403  -16.6355   28.0683 N   0  0  0  0  0  0  0  0  0  0  0  0
   10.4558  -15.3397   28.1614 C   0  0  0  0  0  0  0  0  0  0  0  0
   10.2180  -14.4421   29.1764 C   0  0  0  0  0  0  0  0  0  0  0  0
   10.6825  -13.1399   29.0263 C   0  0  0  0  0  0  0  0  0  0  0  0
   11.3622  -12.8036   27.8653 C   0  0  0  0  0  0  0  0  0  0  0  0
   11.5865  -13.7211   26.8635 C   0  0  0  0  0  0  0  0  0  0  0  0
   11.1386  -15.0040   26.9903 C   0  0  0  0  0  0  0  0  0  0  0  0
   11.8712  -18.6259   25.5986 C   0  0  0  0  0  0  0  0  0  0  0  0
   12.7581  -18.6299   26.5036 O   0  0  0  0  0  0  0  0  0  0  0  0
   10.7870  -19.5055   25.6963 O   0  0  0  0  0  0  0  0  0  0  0  0
  2  1  1  1
  2  3  1  0
  4  3  1  0
  4  5  2  0
  6  5  1  0
  7  6  2  0
  8  9  2  0
  8  7  1  0
  9  4  1  0
 10 11  2  0
 10  2  1  0
 12 10  1  0
 13 21  1  0
 13 12  1  0
 13 14  1  1
 15 14  1  0
 15 16  2  0
 17 16  1  0
 18 17  2  0
 19 20  2  0
 19 18  1  0
 20 15  1  0
 21 22  2  0
 23 24  1  0
 23 21  1  0
 24 25  1  1
 25 26  1  0
 26 34  1  0
 26 27  2  0
 27 28  1  0
 29 28  1  0
 29 30  2  0
 31 30  1  0
 32 31  2  0
 33 32  1  0
 33 34  2  0
 34 29  1  0
 35 24  1  0
 36 35  2  0
 37 35  1  0
M  END
$$$$
