FFW.pdb
     RDKit          3D

 37 40  0  0  1  0  0  0  0  0999 V2000
    9.0695  -18.0650   19.8016 N   0  0  0  0  0  0  0  0  0  0  0  0
    8.2073  -18.2846   20.9320 C   0  0  1  0  0  0  0  0  0  0  0  0
    8.2862  -19.7330   21.3682 C   0  0  0  0  0  0  0  0  0  0  0  0
    7.3631  -19.9187   22.5134 C   0  0  0  0  0  0  0  0  0  0  0  0
    7.9275  -19.9382   23.7721 C   0  0  0  0  0  0  0  0  0  0  0  0
    7.0861  -20.1061   24.8500 C   0  0  0  0  0  0  0  0  0  0  0  0
    5.7194  -20.2498   24.6668 C   0  0  0  0  0  0  0  0  0  0  0  0
    5.1636  -20.2292   23.4070 C   0  0  0  0  0  0  0  0  0  0  0  0
    5.9872  -20.0626   22.3178 C   0  0  0  0  0  0  0  0  0  0  0  0
    8.6002  -17.3629   22.0213 C   0  0  0  0  0  0  0  0  0  0  0  0
    9.8170  -17.2497   22.3880 O   0  0  0  0  0  0  0  0  0  0  0  0
    7.6297  -16.5749   22.6909 N   0  0  0  0  0  0  0  0  0  0  0  0
    8.0439  -15.6528   23.7794 C   0  0  1  0  0  0  0  0  0  0  0  0
    6.9736  -14.6072   23.8342 C   0  0  0  0  0  0  0  0  0  0  0  0
    7.0291  -13.6560   24.9331 C   0  0  0  0  0  0  0  0  0  0  0  0
    6.0637  -13.7255   25.9507 C   0  0  0  0  0  0  0  0  0  0  0  0
    6.1008  -12.8674   27.0227 C   0  0  0  0  0  0  0  0  0  0  0  0
    7.0752  -11.9062   27.1532 C   0  0  0  0  0  0  0  0  0  0  0  0
    8.0205  -11.8186   26.1820 C   0  0  0  0  0  0  0  0  0  0  0  0
    7.9872  -12.6775   25.1043 C   0  0  0  0  0  0  0  0  0  0  0  0
    8.1153  -16.4517   25.0162 C   0  0  0  0  0  0  0  0  0  0  0  0
    7.1193  -17.2129   25.2890 O   0  0  0  0  0  0  0  0  0  0  0  0
    9.2032  -16.4438   25.9176 N   0  0  0  0  0  0  0  0  0  0  0  0
    9.1446  -17.2674   27.1128 C   0  0  1  0  0  0  0  0  0  0  0  0
    9.1676  -18.7204   26.7455 C   0  0  0  0  0  0  0  0  0  0  0  0
   10.4544  -19.1294   26.1889 C   0  0  0  0  0  0  0  0  0  0  0  0
   11.7048  -18.7710   26.6917 C   0  0  0  0  0  0  0  0  0  0  0  0
   12.6685  -19.2864   25.9164 N   0  0  0  0  0  0  0  0  0  0  0  0
   12.1233  -19.9790   24.9111 C   0  0  0  0  0  0  0  0  0  0  0  0
   12.7246  -20.6861   23.8957 C   0  0  0  0  0  0  0  0  0  0  0  0
   11.9110  -21.3464   22.9815 C   0  0  0  0  0  0  0  0  0  0  0  0
   10.5349  -21.2642   23.1318 C   0  0  0  0  0  0  0  0  0  0  0  0
    9.9578  -20.5489   24.1569 C   0  0  0  0  0  0  0  0  0  0  0  0
   10.7379  -19.8929   25.0645 C   0  0  0  0  0  0  0  0  0  0  0  0
   10.1107  -16.9343   28.1477 C   0  0  0  0  0  0  0  0  0  0  0  0
   10.1467  -17.5719   29.2421 O   0  0  0  0  0  0  0  0  0  0  0  0
   11.0180  -15.8910   27.9311 O   0  0  0  0  0  0  0  0  0  0  0  0
  2  1  1  6
  2  3  1  0
  4  3  1  0
  4  5  2  0
  6  5  1  0
  7  6  2  0
  8  9  2  0
  8  7  1  0
  9  4  1  0
 10 11  2  0
 10  2  1  0
 12 10  1  0
 13 21  1  0
 13 12  1  0
 13 14  1  1
 15 14  1  0
 15 16  2  0
 17 16  1  0
 18 17  2  0
 19 20  2  0
 19 18  1  0
 20 15  1  0
 21 22  2  0
 23 24  1  0
 23 21  1  0
 24 25  1  6
 25 26  1  0
 26 34  1  0
 26 27  2  0
 27 28  1  0
 29 28  1  0
 29 30  2  0
 31 30  1  0
 32 31  2  0
 33 32  1  0
 33 34  2  0
 34 29  1  0
 35 24  1  0
 36 35  2  0
 37 35  1  0
M  END
$$$$
