NHI.pdb
     RDKit          3D

 27 27  0  0  1  0  0  0  0  0999 V2000
    8.6703  -20.6343   17.2380 N   0  0  0  0  0  0  0  0  0  0  0  0
    8.3059  -20.5898   18.6057 C   0  0  0  0  0  0  0  0  0  0  0  0
    7.4171  -21.4075   18.9900 O   0  0  0  0  0  0  0  0  0  0  0  0
    8.8634  -19.6851   19.6141 C   0  0  0  0  0  0  0  0  0  0  0  0
    7.8205  -18.9208   20.3724 C   0  0  2  0  0  0  0  0  0  0  0  0
    6.6478  -18.6151   19.6300 N   0  0  0  0  0  0  0  0  0  0  0  0
    8.4570  -17.6322   20.8330 C   0  0  0  0  0  0  0  0  0  0  0  0
    9.6667  -17.6856   21.2300 O   0  0  0  0  0  0  0  0  0  0  0  0
    7.6790  -16.4676   20.7938 N   0  0  0  0  0  0  0  0  0  0  0  0
    8.0401  -15.1756   21.2794 C   0  0  1  0  0  0  0  0  0  0  0  0
    7.4583  -14.0015   20.5166 C   0  0  0  0  0  0  0  0  0  0  0  0
    7.8131  -14.0307   19.0785 C   0  0  0  0  0  0  0  0  0  0  0  0
    8.6844  -14.8613   18.4452 C   0  0  0  0  0  0  0  0  0  0  0  0
    8.7249  -14.5656   17.1302 N   0  0  0  0  0  0  0  0  0  0  0  0
    7.8737  -13.5466   16.9507 C   0  0  0  0  0  0  0  0  0  0  0  0
    7.3103  -13.2114   18.1363 N   0  0  0  0  0  0  0  0  0  0  0  0
    7.9376  -15.0931   22.7269 C   0  0  0  0  0  0  0  0  0  0  0  0
    6.8428  -14.7767   23.3044 O   0  0  0  0  0  0  0  0  0  0  0  0
    7.2401  -18.5299   26.2892 C   0  0  0  0  0  0  0  0  0  0  0  0
    7.9691  -17.6508   25.3141 C   0  0  0  0  0  0  0  0  0  0  0  0
    7.7078  -16.1746   25.5136 C   0  0  2  0  0  0  0  0  0  0  0  0
    6.4300  -15.8494   24.8071 C   0  0  0  0  0  0  0  0  0  0  0  0
    8.8777  -15.3329   25.0681 C   0  0  2  0  0  0  0  0  0  0  0  0
    9.0257  -15.3519   23.6227 N   0  0  0  0  0  0  0  0  0  0  0  0
   10.1297  -15.6815   25.7613 C   0  0  0  0  0  0  0  0  0  0  0  0
   11.1365  -16.1673   25.2014 O   0  0  0  0  0  0  0  0  0  0  0  0
   10.2549  -15.4735   27.1493 O   0  0  0  0  0  0  0  0  0  0  0  0
  1  2  1  0
  2  3  2  0
  4  2  1  0
  5  4  1  0
  5  6  1  6
  7  5  1  0
  7  8  2  0
  9  7  1  0
 10 11  1  6
 10  9  1  0
 12 13  2  0
 12 11  1  0
 14 13  1  0
 15 16  2  0
 15 14  1  0
 16 12  1  0
 17 10  1  0
 18 17  2  0
 20 19  1  0
 21 23  1  0
 21 20  1  0
 21 22  1  6
 23 24  1  6
 24 17  1  0
 25 27  1  0
 25 23  1  0
 26 25  2  0
M  END
$$$$
