NHI.pdb
     RDKit          3D

 27 27  0  0  1  0  0  0  0  0999 V2000
    6.7684  -16.9149   17.4718 N   0  0  0  0  0  0  0  0  0  0  0  0
    6.2112  -17.7486   18.4716 C   0  0  0  0  0  0  0  0  0  0  0  0
    5.3755  -18.6221   18.0907 O   0  0  0  0  0  0  0  0  0  0  0  0
    6.5137  -17.6922   19.9039 C   0  0  0  0  0  0  0  0  0  0  0  0
    7.3167  -16.4894   20.2976 C   0  0  2  0  0  0  0  0  0  0  0  0
    8.2939  -16.0876   19.3470 N   0  0  0  0  0  0  0  0  0  0  0  0
    8.0072  -16.8189   21.5985 C   0  0  0  0  0  0  0  0  0  0  0  0
    7.2884  -17.2869   22.5410 O   0  0  0  0  0  0  0  0  0  0  0  0
    9.3868  -16.5895   21.6835 N   0  0  0  0  0  0  0  0  0  0  0  0
   10.2216  -16.7811   22.8245 C   0  0  1  0  0  0  0  0  0  0  0  0
   11.6699  -17.1186   22.5288 C   0  0  0  0  0  0  0  0  0  0  0  0
   11.8046  -18.2693   21.6055 C   0  0  0  0  0  0  0  0  0  0  0  0
   11.8363  -19.5939   21.9134 C   0  0  0  0  0  0  0  0  0  0  0  0
   11.9688  -20.3226   20.7866 N   0  0  0  0  0  0  0  0  0  0  0  0
   12.0192  -19.4428   19.7773 C   0  0  0  0  0  0  0  0  0  0  0  0
   11.9195  -18.1836   20.2671 N   0  0  0  0  0  0  0  0  0  0  0  0
   10.0122  -15.7506   23.8279 C   0  0  0  0  0  0  0  0  0  0  0  0
   10.8114  -14.7613   23.9496 O   0  0  0  0  0  0  0  0  0  0  0  0
    6.2858  -12.3716   24.6585 C   0  0  0  0  0  0  0  0  0  0  0  0
    7.5700  -13.1450   24.7474 C   0  0  0  0  0  0  0  0  0  0  0  0
    7.6619  -14.0319   25.9689 C   0  0  2  0  0  0  0  0  0  0  0  0
    7.5846  -13.1441   27.1704 C   0  0  0  0  0  0  0  0  0  0  0  0
    8.8928  -14.9034   25.9377 C   0  0  2  0  0  0  0  0  0  0  0  0
    8.9181  -15.7446   24.7532 N   0  0  0  0  0  0  0  0  0  0  0  0
    9.0756  -15.6792   27.1764 C   0  0  0  0  0  0  0  0  0  0  0  0
    8.6361  -16.8355   27.3580 O   0  0  0  0  0  0  0  0  0  0  0  0
    9.7864  -15.1285   28.2612 O   0  0  0  0  0  0  0  0  0  0  0  0
  1  2  1  0
  2  3  2  0
  4  2  1  0
  5  4  1  0
  5  6  1  6
  7  5  1  0
  7  8  2  0
  9  7  1  0
 10 11  1  6
 10  9  1  0
 12 13  2  0
 12 11  1  0
 14 13  1  0
 15 16  2  0
 15 14  1  0
 16 12  1  0
 17 10  1  0
 18 17  2  0
 20 19  1  0
 21 23  1  0
 21 20  1  0
 21 22  1  1
 23 24  1  6
 24 17  1  0
 25 27  1  0
 25 23  1  0
 26 25  2  0
M  END
$$$$
