NHI.pdb
     RDKit          3D

 27 27  0  0  1  0  0  0  0  0999 V2000
    9.3761  -13.8377   16.1482 N   0  0  0  0  0  0  0  0  0  0  0  0
    8.0468  -13.6267   16.5884 C   0  0  0  0  0  0  0  0  0  0  0  0
    7.1630  -13.4737   15.6930 O   0  0  0  0  0  0  0  0  0  0  0  0
    7.6027  -13.5697   17.9832 C   0  0  0  0  0  0  0  0  0  0  0  0
    8.7248  -13.6712   18.9718 C   0  0  2  0  0  0  0  0  0  0  0  0
    9.8275  -14.4588   18.5434 N   0  0  0  0  0  0  0  0  0  0  0  0
    8.1560  -14.2725   20.2338 C   0  0  0  0  0  0  0  0  0  0  0  0
    7.1483  -13.6931   20.7562 O   0  0  0  0  0  0  0  0  0  0  0  0
    8.7708  -15.4229   20.7454 N   0  0  0  0  0  0  0  0  0  0  0  0
    8.4144  -16.1341   21.9297 C   0  0  1  0  0  0  0  0  0  0  0  0
    8.6956  -17.6238   21.9105 C   0  0  0  0  0  0  0  0  0  0  0  0
    7.9171  -18.3322   20.8679 C   0  0  0  0  0  0  0  0  0  0  0  0
    6.5669  -18.4679   20.7750 C   0  0  0  0  0  0  0  0  0  0  0  0
    6.2534  -19.1839   19.6763 N   0  0  0  0  0  0  0  0  0  0  0  0
    7.4168  -19.4919   19.0874 C   0  0  0  0  0  0  0  0  0  0  0  0
    8.4412  -18.9757   19.8081 N   0  0  0  0  0  0  0  0  0  0  0  0
    8.8385  -15.4333   23.1304 C   0  0  0  0  0  0  0  0  0  0  0  0
   10.0474  -15.0535   23.2931 O   0  0  0  0  0  0  0  0  0  0  0  0
    7.1968  -11.1745   27.1528 C   0  0  0  0  0  0  0  0  0  0  0  0
    8.0320  -12.3859   26.8524 C   0  0  0  0  0  0  0  0  0  0  0  0
    7.5148  -13.2084   25.6935 C   0  0  2  0  0  0  0  0  0  0  0  0
    6.1047  -13.5916   26.0139 C   0  0  0  0  0  0  0  0  0  0  0  0
    8.4103  -14.3859   25.3979 C   0  0  2  0  0  0  0  0  0  0  0  0
    7.9649  -15.1091   24.2190 N   0  0  0  0  0  0  0  0  0  0  0  0
    8.5916  -15.2723   26.5603 C   0  0  0  0  0  0  0  0  0  0  0  0
    8.0956  -16.4154   26.6621 O   0  0  0  0  0  0  0  0  0  0  0  0
    9.3674  -14.8531   27.6592 O   0  0  0  0  0  0  0  0  0  0  0  0
  1  2  1  0
  2  3  2  0
  4  2  1  0
  5  4  1  0
  5  6  1  6
  7  5  1  0
  7  8  2  0
  9  7  1  0
 10 11  1  6
 10  9  1  0
 12 13  2  0
 12 11  1  0
 14 13  1  0
 15 16  2  0
 15 14  1  0
 16 12  1  0
 17 10  1  0
 18 17  2  0
 20 19  1  0
 21 23  1  0
 21 20  1  0
 21 22  1  1
 23 24  1  6
 24 17  1  0
 25 27  1  0
 25 23  1  0
 26 25  2  0
M  END
$$$$
