NHI.pdb
     RDKit          3D

 27 27  0  0  1  0  0  0  0  0999 V2000
   14.8707  -17.7021   20.4981 N   0  0  0  0  0  0  0  0  0  0  0  0
   14.2863  -16.6836   19.7067 C   0  0  0  0  0  0  0  0  0  0  0  0
   14.9819  -16.2304   18.7491 O   0  0  0  0  0  0  0  0  0  0  0  0
   12.9524  -16.1081   19.8953 C   0  0  0  0  0  0  0  0  0  0  0  0
   12.2236  -16.6657   21.0805 C   0  0  2  0  0  0  0  0  0  0  0  0
   11.5152  -17.8724   20.8314 N   0  0  0  0  0  0  0  0  0  0  0  0
   11.2466  -15.6118   21.5412 C   0  0  0  0  0  0  0  0  0  0  0  0
   11.7291  -14.5121   21.9678 O   0  0  0  0  0  0  0  0  0  0  0  0
    9.8796  -15.9108   21.4698 N   0  0  0  0  0  0  0  0  0  0  0  0
    8.7992  -15.1178   21.9589 C   0  0  1  0  0  0  0  0  0  0  0  0
    7.5013  -15.2265   21.1828 C   0  0  0  0  0  0  0  0  0  0  0  0
    7.5943  -14.6125   19.8377 C   0  0  0  0  0  0  0  0  0  0  0  0
    8.6482  -13.9519   19.2872 C   0  0  0  0  0  0  0  0  0  0  0  0
    8.3332  -13.5462   18.0404 N   0  0  0  0  0  0  0  0  0  0  0  0
    7.0777  -13.9588   17.8200 C   0  0  0  0  0  0  0  0  0  0  0  0
    6.6160  -14.6125   18.9131 N   0  0  0  0  0  0  0  0  0  0  0  0
    8.6727  -15.2073   23.4041 C   0  0  0  0  0  0  0  0  0  0  0  0
    9.2519  -16.1298   24.0718 O   0  0  0  0  0  0  0  0  0  0  0  0
    6.7449  -10.7895   26.1922 C   0  0  0  0  0  0  0  0  0  0  0  0
    7.5837  -11.9825   25.8339 C   0  0  0  0  0  0  0  0  0  0  0  0
    6.9611  -13.3034   26.2273 C   0  0  2  0  0  0  0  0  0  0  0  0
    6.8964  -13.3374   27.7215 C   0  0  0  0  0  0  0  0  0  0  0  0
    7.7002  -14.4729   25.6261 C   0  0  2  0  0  0  0  0  0  0  0  0
    7.9065  -14.2937   24.1989 N   0  0  0  0  0  0  0  0  0  0  0  0
    7.0734  -15.7681   25.9404 C   0  0  0  0  0  0  0  0  0  0  0  0
    6.1182  -16.2645   25.3045 O   0  0  0  0  0  0  0  0  0  0  0  0
    7.5434  -16.5413   27.0206 O   0  0  0  0  0  0  0  0  0  0  0  0
  1  2  1  0
  2  3  2  0
  4  2  1  0
  5  4  1  0
  5  6  1  6
  7  5  1  0
  7  8  2  0
  9  7  1  0
 10 11  1  6
 10  9  1  0
 12 13  2  0
 12 11  1  0
 14 13  1  0
 15 16  2  0
 15 14  1  0
 16 12  1  0
 17 10  1  0
 18 17  2  0
 20 19  1  0
 21 23  1  0
 21 20  1  0
 21 22  1  1
 23 24  1  6
 24 17  1  0
 25 27  1  0
 25 23  1  0
 26 25  2  0
M  END
$$$$
