NHI.pdb
     RDKit          3D

 27 27  0  0  1  0  0  0  0  0999 V2000
   11.3245  -17.9223   16.8906 N   0  0  0  0  0  0  0  0  0  0  0  0
    9.9975  -18.3551   17.1295 C   0  0  0  0  0  0  0  0  0  0  0  0
    9.4145  -18.9671   16.1851 O   0  0  0  0  0  0  0  0  0  0  0  0
    9.2399  -18.1591   18.3679 C   0  0  0  0  0  0  0  0  0  0  0  0
    9.9860  -17.3781   19.4071 C   0  0  2  0  0  0  0  0  0  0  0  0
   11.0394  -18.0882   20.0444 N   0  0  0  0  0  0  0  0  0  0  0  0
    8.9833  -16.9509   20.4510 C   0  0  0  0  0  0  0  0  0  0  0  0
    8.0977  -16.1042   20.1007 O   0  0  0  0  0  0  0  0  0  0  0  0
    9.0921  -17.5111   21.7308 N   0  0  0  0  0  0  0  0  0  0  0  0
    8.2180  -17.3007   22.8385 C   0  0  1  0  0  0  0  0  0  0  0  0
    7.7418  -18.5542   23.5461 C   0  0  0  0  0  0  0  0  0  0  0  0
    6.7437  -19.3070   22.7511 C   0  0  0  0  0  0  0  0  0  0  0  0
    5.9040  -18.8331   21.7917 C   0  0  0  0  0  0  0  0  0  0  0  0
    5.1508  -19.8400   21.3048 N   0  0  0  0  0  0  0  0  0  0  0  0
    5.5279  -20.9419   21.9673 C   0  0  0  0  0  0  0  0  0  0  0  0
    6.5021  -20.6271   22.8546 N   0  0  0  0  0  0  0  0  0  0  0  0
    8.6903  -16.2344   23.7060 C   0  0  0  0  0  0  0  0  0  0  0  0
    9.9321  -16.0806   23.9640 O   0  0  0  0  0  0  0  0  0  0  0  0
    7.0202  -10.9551   26.6459 C   0  0  0  0  0  0  0  0  0  0  0  0
    7.8826  -12.1779   26.5173 C   0  0  0  0  0  0  0  0  0  0  0  0
    7.3540  -13.1930   25.5288 C   0  0  2  0  0  0  0  0  0  0  0  0
    5.9846  -13.5867   25.9844 C   0  0  0  0  0  0  0  0  0  0  0  0
    8.2966  -14.3593   25.3647 C   0  0  2  0  0  0  0  0  0  0  0  0
    7.8317  -15.2776   24.3391 N   0  0  0  0  0  0  0  0  0  0  0  0
    8.5857  -15.0440   26.6364 C   0  0  0  0  0  0  0  0  0  0  0  0
    8.0279  -16.0968   27.0156 O   0  0  0  0  0  0  0  0  0  0  0  0
    9.5475  -14.5198   27.5228 O   0  0  0  0  0  0  0  0  0  0  0  0
  1  2  1  0
  2  3  2  0
  4  2  1  0
  5  4  1  0
  5  6  1  1
  7  5  1  0
  7  8  2  0
  9  7  1  0
 10 11  1  1
 10  9  1  0
 12 13  2  0
 12 11  1  0
 14 13  1  0
 15 16  2  0
 15 14  1  0
 16 12  1  0
 17 10  1  0
 18 17  2  0
 20 19  1  0
 21 23  1  0
 21 20  1  0
 21 22  1  1
 23 24  1  6
 24 17  1  0
 25 27  1  0
 25 23  1  0
 26 25  2  0
M  END
$$$$
