NHI.pdb
     RDKit          3D

 27 27  0  0  1  0  0  0  0  0999 V2000
    6.5677  -20.5230   20.2756 N   0  0  0  0  0  0  0  0  0  0  0  0
    6.1590  -20.6973   21.6202 C   0  0  0  0  0  0  0  0  0  0  0  0
    4.9348  -20.9585   21.8188 O   0  0  0  0  0  0  0  0  0  0  0  0
    7.0227  -20.6032   22.7996 C   0  0  0  0  0  0  0  0  0  0  0  0
    6.8961  -19.3004   23.5300 C   0  0  2  0  0  0  0  0  0  0  0  0
    5.9416  -18.4006   22.9832 N   0  0  0  0  0  0  0  0  0  0  0  0
    8.2544  -18.6430   23.5107 C   0  0  0  0  0  0  0  0  0  0  0  0
    9.2458  -19.3347   23.9140 O   0  0  0  0  0  0  0  0  0  0  0  0
    8.3353  -17.3213   23.0525 N   0  0  0  0  0  0  0  0  0  0  0  0
    9.5142  -16.5301   22.9133 C   0  0  1  0  0  0  0  0  0  0  0  0
    9.6540  -15.7860   21.5997 C   0  0  0  0  0  0  0  0  0  0  0  0
    9.8990  -16.6973   20.4576 C   0  0  0  0  0  0  0  0  0  0  0  0
   10.1560  -18.0326   20.4889 C   0  0  0  0  0  0  0  0  0  0  0  0
   10.3196  -18.4967   19.2334 N   0  0  0  0  0  0  0  0  0  0  0  0
   10.1626  -17.4418   18.4225 C   0  0  0  0  0  0  0  0  0  0  0  0
    9.9048  -16.3356   19.1610 N   0  0  0  0  0  0  0  0  0  0  0  0
    9.7847  -15.7467   24.1073 C   0  0  0  0  0  0  0  0  0  0  0  0
   10.8913  -15.1285   24.2670 O   0  0  0  0  0  0  0  0  0  0  0  0
    6.4401  -12.2490   25.7450 C   0  0  0  0  0  0  0  0  0  0  0  0
    7.6685  -13.0824   25.5174 C   0  0  0  0  0  0  0  0  0  0  0  0
    8.1153  -13.8526   26.7397 C   0  0  2  0  0  0  0  0  0  0  0  0
    8.5372  -12.8508   27.7674 C   0  0  0  0  0  0  0  0  0  0  0  0
    9.1834  -14.8642   26.4055 C   0  0  2  0  0  0  0  0  0  0  0  0
    8.8609  -15.5958   25.1923 N   0  0  0  0  0  0  0  0  0  0  0  0
    9.4935  -15.7614   27.5318 C   0  0  0  0  0  0  0  0  0  0  0  0
    8.9924  -16.8957   27.6912 O   0  0  0  0  0  0  0  0  0  0  0  0
   10.4107  -15.3640   28.5249 O   0  0  0  0  0  0  0  0  0  0  0  0
  1  2  1  0
  2  3  2  0
  4  2  1  0
  5  4  1  0
  5  6  1  6
  7  5  1  0
  7  8  2  0
  9  7  1  0
 10 11  1  6
 10  9  1  0
 12 13  2  0
 12 11  1  0
 14 13  1  0
 15 16  2  0
 15 14  1  0
 16 12  1  0
 17 10  1  0
 18 17  2  0
 20 19  1  0
 21 23  1  0
 21 20  1  0
 21 22  1  1
 23 24  1  6
 24 17  1  0
 25 27  1  0
 25 23  1  0
 26 25  2  0
M  END
$$$$
