NHI.pdb
     RDKit          3D

 27 27  0  0  1  0  0  0  0  0999 V2000
    9.7331  -17.4903   16.5745 N   0  0  0  0  0  0  0  0  0  0  0  0
    8.4210  -17.8951   16.9210 C   0  0  0  0  0  0  0  0  0  0  0  0
    7.7607  -18.5193   16.0375 O   0  0  0  0  0  0  0  0  0  0  0  0
    7.7601  -17.6574   18.2066 C   0  0  0  0  0  0  0  0  0  0  0  0
    8.5548  -16.7896   19.1352 C   0  0  2  0  0  0  0  0  0  0  0  0
    9.8507  -17.2819   19.4487 N   0  0  0  0  0  0  0  0  0  0  0  0
    7.7608  -16.6560   20.4116 C   0  0  0  0  0  0  0  0  0  0  0  0
    6.5814  -16.1819   20.3210 O   0  0  0  0  0  0  0  0  0  0  0  0
    8.3704  -17.0601   21.6068 N   0  0  0  0  0  0  0  0  0  0  0  0
    7.7832  -17.0825   22.9068 C   0  0  1  0  0  0  0  0  0  0  0  0
    7.6960  -18.4460   23.5642 C   0  0  0  0  0  0  0  0  0  0  0  0
    6.7999  -19.3703   22.8310 C   0  0  0  0  0  0  0  0  0  0  0  0
    5.4409  -19.4216   22.8596 C   0  0  0  0  0  0  0  0  0  0  0  0
    5.0030  -20.4063   22.0492 N   0  0  0  0  0  0  0  0  0  0  0  0
    6.0979  -20.9660   21.5171 C   0  0  0  0  0  0  0  0  0  0  0  0
    7.2028  -20.3398   21.9886 N   0  0  0  0  0  0  0  0  0  0  0  0
    8.2928  -16.0136   23.7496 C   0  0  0  0  0  0  0  0  0  0  0  0
    9.5101  -15.6312   23.6845 O   0  0  0  0  0  0  0  0  0  0  0  0
    6.7877  -10.7711   26.6174 C   0  0  0  0  0  0  0  0  0  0  0  0
    7.6842  -11.9705   26.5032 C   0  0  0  0  0  0  0  0  0  0  0  0
    7.0994  -13.0891   25.6703 C   0  0  2  0  0  0  0  0  0  0  0  0
    5.7722  -13.4398   26.2649 C   0  0  0  0  0  0  0  0  0  0  0  0
    8.0436  -14.2607   25.5627 C   0  0  2  0  0  0  0  0  0  0  0  0
    7.5003  -15.3041   24.7098 N   0  0  0  0  0  0  0  0  0  0  0  0
    8.4653  -14.7775   26.8759 C   0  0  0  0  0  0  0  0  0  0  0  0
    8.0836  -15.8632   27.3646 O   0  0  0  0  0  0  0  0  0  0  0  0
    9.3586  -14.0385   27.6767 O   0  0  0  0  0  0  0  0  0  0  0  0
  1  2  1  0
  2  3  2  0
  4  2  1  0
  5  4  1  0
  5  6  1  1
  7  5  1  0
  7  8  2  0
  9  7  1  0
 10 11  1  1
 10  9  1  0
 12 13  2  0
 12 11  1  0
 14 13  1  0
 15 16  2  0
 15 14  1  0
 16 12  1  0
 17 10  1  0
 18 17  2  0
 20 19  1  0
 21 23  1  0
 21 20  1  0
 21 22  1  1
 23 24  1  1
 24 17  1  0
 25 27  1  0
 25 23  1  0
 26 25  2  0
M  END
$$$$
