VES.pdb
     RDKit          3D

 23 22  0  0  1  0  0  0  0  0999 V2000
   13.8243   -9.3551  -13.4433 C   0  0  0  0  0  0  0  0  0  0  0  0
   14.5907   -9.9908  -14.5766 C   0  0  2  0  0  0  0  0  0  0  0  0
   14.0970  -11.4304  -14.6766 C   0  0  0  0  0  0  0  0  0  0  0  0
   16.0540  -10.0482  -14.1662 C   0  0  2  0  0  0  0  0  0  0  0  0
   16.1599  -10.9863  -13.0731 N   0  0  0  0  0  0  0  0  0  0  0  0
   16.5891   -8.7034  -13.8355 C   0  0  0  0  0  0  0  0  0  0  0  0
   16.5751   -7.7943  -14.7343 O   0  0  0  0  0  0  0  0  0  0  0  0
   17.0997   -8.4587  -12.5403 N   0  0  0  0  0  0  0  0  0  0  0  0
   17.6681   -7.2048  -12.1615 C   0  0  1  0  0  0  0  0  0  0  0  0
   17.4745   -6.9561  -10.6780 C   0  0  0  0  0  0  0  0  0  0  0  0
   16.2178   -6.1779  -10.4201 C   0  0  0  0  0  0  0  0  0  0  0  0
   16.0163   -6.0515   -8.9732 C   0  0  0  0  0  0  0  0  0  0  0  0
   16.8301   -6.5427   -8.1691 O   0  0  0  0  0  0  0  0  0  0  0  0
   19.1330   -7.1362  -12.4299 C   0  0  0  0  0  0  0  0  0  0  0  0
   19.8164   -8.1866  -12.3135 O   0  0  0  0  0  0  0  0  0  0  0  0
   14.9170   -5.3832   -8.4532 O   0  0  0  0  0  0  0  0  0  0  0  0
   22.6004   -6.7846  -15.0133 O   0  0  0  0  0  0  0  0  0  0  0  0
   21.3062   -6.8090  -14.5201 C   0  0  0  0  0  0  0  0  0  0  0  0
   21.1006   -5.8908  -13.3517 C   0  0  2  0  0  0  0  0  0  0  0  0
   19.7761   -5.9312  -12.8099 N   0  0  0  0  0  0  0  0  0  0  0  0
   21.5198   -4.5270  -13.7562 C   0  0  0  0  0  0  0  0  0  0  0  0
   22.8692   -4.2184  -13.6495 O   0  0  0  0  0  0  0  0  0  0  0  0
   20.7337   -3.6500  -14.1833 O   0  0  0  0  0  0  0  0  0  0  0  0
  2  1  1  1
  2  3  1  0
  4  2  1  0
  4  6  1  0
  4  5  1  1
  6  8  1  0
  6  7  2  0
  8  9  1  0
  9 14  1  0
 10 11  1  0
  9 10  1  1
 12 11  1  0
 13 12  2  0
 14 20  1  0
 14 15  2  0
 16 12  1  0
 17 18  1  0
 19 18  1  6
 19 21  1  0
 20 19  1  0
 21 22  1  0
 23 21  2  0
M  END
$$$$
