VES.pdb
     RDKit          3D

 23 22  0  0  1  0  0  0  0  0999 V2000
   21.5238  -13.3499  -18.2923 C   0  0  0  0  0  0  0  0  0  0  0  0
   22.4230  -13.4390  -17.0842 C   0  0  2  0  0  0  0  0  0  0  0  0
   21.5059  -13.5820  -15.8740 C   0  0  0  0  0  0  0  0  0  0  0  0
   23.1399  -12.1049  -16.9458 C   0  0  2  0  0  0  0  0  0  0  0  0
   23.9207  -12.1575  -15.7319 N   0  0  0  0  0  0  0  0  0  0  0  0
   22.1934  -10.9617  -16.9822 C   0  0  0  0  0  0  0  0  0  0  0  0
   21.6111  -10.6761  -18.0840 O   0  0  0  0  0  0  0  0  0  0  0  0
   21.9578  -10.2177  -15.8037 N   0  0  0  0  0  0  0  0  0  0  0  0
   21.0680   -9.1016  -15.7632 C   0  0  1  0  0  0  0  0  0  0  0  0
   19.7876   -9.4646  -15.0361 C   0  0  0  0  0  0  0  0  0  0  0  0
   18.7373   -9.9403  -15.9962 C   0  0  0  0  0  0  0  0  0  0  0  0
   17.5266  -10.2973  -15.2498 C   0  0  0  0  0  0  0  0  0  0  0  0
   16.4313   -9.7696  -15.5181 O   0  0  0  0  0  0  0  0  0  0  0  0
   21.6552   -7.9272  -15.0571 C   0  0  0  0  0  0  0  0  0  0  0  0
   22.2694   -8.1199  -13.9757 O   0  0  0  0  0  0  0  0  0  0  0  0
   17.5602  -11.2311  -14.2240 O   0  0  0  0  0  0  0  0  0  0  0  0
   22.6544   -3.1270  -15.1030 O   0  0  0  0  0  0  0  0  0  0  0  0
   22.1050   -4.2228  -15.7481 C   0  0  0  0  0  0  0  0  0  0  0  0
   22.1281   -5.4717  -14.9173 C   0  0  2  0  0  0  0  0  0  0  0  0
   21.5435   -6.6076  -15.5635 N   0  0  0  0  0  0  0  0  0  0  0  0
   21.5052   -5.1666  -13.6065 C   0  0  0  0  0  0  0  0  0  0  0  0
   20.2696   -5.7411  -13.3403 O   0  0  0  0  0  0  0  0  0  0  0  0
   22.0257   -4.4290  -12.7380 O   0  0  0  0  0  0  0  0  0  0  0  0
  2  1  1  6
  2  3  1  0
  4  2  1  0
  4  6  1  0
  4  5  1  1
  6  8  1  0
  6  7  2  0
  8  9  1  0
  9 14  1  0
 10 11  1  0
  9 10  1  1
 12 11  1  0
 13 12  2  0
 14 20  1  0
 14 15  2  0
 16 12  1  0
 17 18  1  0
 19 18  1  6
 19 21  1  0
 20 19  1  0
 21 22  1  0
 23 21  2  0
M  END
$$$$
