VES.pdb
     RDKit          3D

 23 22  0  0  1  0  0  0  0  0999 V2000
   21.5089  -13.3087  -18.7446 C   0  0  0  0  0  0  0  0  0  0  0  0
   22.7117  -12.9984  -19.6008 C   0  0  2  0  0  0  0  0  0  0  0  0
   23.6614  -14.1829  -19.4554 C   0  0  0  0  0  0  0  0  0  0  0  0
   23.4084  -11.7905  -18.9936 C   0  0  2  0  0  0  0  0  0  0  0  0
   24.0347  -12.2243  -17.7666 N   0  0  0  0  0  0  0  0  0  0  0  0
   22.4752  -10.6518  -18.8019 C   0  0  0  0  0  0  0  0  0  0  0  0
   21.9199  -10.1283  -19.8276 O   0  0  0  0  0  0  0  0  0  0  0  0
   22.2222  -10.1739  -17.4959 N   0  0  0  0  0  0  0  0  0  0  0  0
   21.3836   -9.0474  -17.2378 C   0  0  1  0  0  0  0  0  0  0  0  0
   19.9776   -9.4960  -16.8886 C   0  0  0  0  0  0  0  0  0  0  0  0
   19.9770  -10.3720  -15.6704 C   0  0  0  0  0  0  0  0  0  0  0  0
   18.5923  -10.6692  -15.2899 C   0  0  0  0  0  0  0  0  0  0  0  0
   18.3131  -11.0460  -14.1366 O   0  0  0  0  0  0  0  0  0  0  0  0
   21.8741   -8.2177  -16.1004 C   0  0  0  0  0  0  0  0  0  0  0  0
   22.2384   -8.7980  -15.0448 O   0  0  0  0  0  0  0  0  0  0  0  0
   17.5510  -10.5411  -16.1980 O   0  0  0  0  0  0  0  0  0  0  0  0
   23.3315   -4.4259  -16.7636 O   0  0  0  0  0  0  0  0  0  0  0  0
   22.7253   -4.5655  -15.5260 C   0  0  0  0  0  0  0  0  0  0  0  0
   22.5069   -5.9964  -15.1319 C   0  0  2  0  0  0  0  0  0  0  0  0
   21.9423   -6.8033  -16.1710 N   0  0  0  0  0  0  0  0  0  0  0  0
   21.7059   -6.0151  -13.8839 C   0  0  0  0  0  0  0  0  0  0  0  0
   22.2588   -5.4088  -12.7640 O   0  0  0  0  0  0  0  0  0  0  0  0
   20.5730   -6.5408  -13.7862 O   0  0  0  0  0  0  0  0  0  0  0  0
  2  1  1  1
  2  3  1  0
  4  2  1  0
  4  6  1  0
  4  5  1  1
  6  8  1  0
  6  7  2  0
  8  9  1  0
  9 14  1  0
 10 11  1  0
  9 10  1  1
 12 11  1  0
 13 12  2  0
 14 20  1  0
 14 15  2  0
 16 12  1  0
 17 18  1  0
 19 18  1  6
 19 21  1  0
 20 19  1  0
 21 22  1  0
 23 21  2  0
M  END
$$$$
