VES.pdb
     RDKit          3D

 23 22  0  0  1  0  0  0  0  0999 V2000
   17.5517  -12.2937  -17.9039 C   0  0  0  0  0  0  0  0  0  0  0  0
   18.7793  -12.8348  -17.2137 C   0  0  2  0  0  0  0  0  0  0  0  0
   18.3344  -14.0835  -16.4594 C   0  0  0  0  0  0  0  0  0  0  0  0
   19.2084  -11.8132  -16.1721 C   0  0  2  0  0  0  0  0  0  0  0  0
   18.1848  -11.7782  -15.1536 N   0  0  0  0  0  0  0  0  0  0  0  0
   19.4753  -10.4841  -16.7775 C   0  0  0  0  0  0  0  0  0  0  0  0
   20.3918  -10.3809  -17.6629 O   0  0  0  0  0  0  0  0  0  0  0  0
   18.7138   -9.3673  -16.3640 N   0  0  0  0  0  0  0  0  0  0  0  0
   19.0265   -8.0325  -16.7630 C   0  0  1  0  0  0  0  0  0  0  0  0
   17.7813   -7.3121  -17.2430 C   0  0  0  0  0  0  0  0  0  0  0  0
   18.1158   -5.9477  -17.7702 C   0  0  0  0  0  0  0  0  0  0  0  0
   16.8851   -5.2874  -18.2171 C   0  0  0  0  0  0  0  0  0  0  0  0
   16.4945   -4.2334  -17.6818 O   0  0  0  0  0  0  0  0  0  0  0  0
   19.6001   -7.2224  -15.6506 C   0  0  0  0  0  0  0  0  0  0  0  0
   19.0858   -7.3214  -14.5062 O   0  0  0  0  0  0  0  0  0  0  0  0
   16.1176   -5.8123  -19.2471 O   0  0  0  0  0  0  0  0  0  0  0  0
   23.3047   -4.6633  -13.8586 O   0  0  0  0  0  0  0  0  0  0  0  0
   22.7480   -5.3411  -14.9307 C   0  0  0  0  0  0  0  0  0  0  0  0
   21.2732   -5.5729  -14.7832 C   0  0  2  0  0  0  0  0  0  0  0  0
   20.7006   -6.3490  -15.8412 N   0  0  0  0  0  0  0  0  0  0  0  0
   20.6136   -4.2562  -14.6080 C   0  0  0  0  0  0  0  0  0  0  0  0
   20.2370   -3.8998  -13.3202 O   0  0  0  0  0  0  0  0  0  0  0  0
   20.3807   -3.4588  -15.5457 O   0  0  0  0  0  0  0  0  0  0  0  0
  2  1  1  1
  2  3  1  0
  4  2  1  0
  4  6  1  0
  4  5  1  1
  6  8  1  0
  6  7  2  0
  8  9  1  0
  9 14  1  0
 10 11  1  0
  9 10  1  1
 12 11  1  0
 13 12  2  0
 14 20  1  0
 14 15  2  0
 16 12  1  0
 17 18  1  0
 19 18  1  6
 19 21  1  0
 20 19  1  0
 21 22  1  0
 23 21  2  0
M  END
$$$$
