VES.pdb
     RDKit          3D

 23 22  0  0  1  0  0  0  0  0999 V2000
   21.1340   -8.9629  -19.0737 C   0  0  0  0  0  0  0  0  0  0  0  0
   21.2642  -10.2541  -18.3042 C   0  0  2  0  0  0  0  0  0  0  0  0
   21.5871  -11.3361  -19.3295 C   0  0  0  0  0  0  0  0  0  0  0  0
   19.8974  -10.5826  -17.7239 C   0  0  2  0  0  0  0  0  0  0  0  0
   19.0483  -10.9874  -18.8198 N   0  0  0  0  0  0  0  0  0  0  0  0
   19.3412   -9.4496  -16.9420 C   0  0  0  0  0  0  0  0  0  0  0  0
   18.7981   -8.4752  -17.5666 O   0  0  0  0  0  0  0  0  0  0  0  0
   19.4238   -9.4730  -15.5311 N   0  0  0  0  0  0  0  0  0  0  0  0
   19.0337   -8.3652  -14.7191 C   0  0  1  0  0  0  0  0  0  0  0  0
   18.1940   -8.8317  -13.5454 C   0  0  0  0  0  0  0  0  0  0  0  0
   17.7569   -7.6724  -12.6991 C   0  0  0  0  0  0  0  0  0  0  0  0
   16.9113   -8.1637  -11.6064 C   0  0  0  0  0  0  0  0  0  0  0  0
   16.7010   -9.3819  -11.4591 O   0  0  0  0  0  0  0  0  0  0  0  0
   20.2016   -7.6285  -14.1570 C   0  0  0  0  0  0  0  0  0  0  0  0
   21.2419   -8.2767  -13.8718 O   0  0  0  0  0  0  0  0  0  0  0  0
   16.3197   -7.2917  -10.7036 O   0  0  0  0  0  0  0  0  0  0  0  0
   23.3642   -4.8064  -15.1078 O   0  0  0  0  0  0  0  0  0  0  0  0
   22.2510   -5.6309  -15.1081 C   0  0  0  0  0  0  0  0  0  0  0  0
   21.3572   -5.4190  -13.9220 C   0  0  2  0  0  0  0  0  0  0  0  0
   20.1764   -6.2283  -13.9352 N   0  0  0  0  0  0  0  0  0  0  0  0
   21.0645   -3.9689  -13.8170 C   0  0  0  0  0  0  0  0  0  0  0  0
   22.0245   -3.1683  -13.2131 O   0  0  0  0  0  0  0  0  0  0  0  0
   20.0127   -3.4340  -14.2378 O   0  0  0  0  0  0  0  0  0  0  0  0
  2  1  1  6
  2  3  1  0
  4  2  1  0
  4  6  1  0
  4  5  1  6
  6  8  1  0
  6  7  2  0
  8  9  1  0
  9 14  1  0
 10 11  1  0
  9 10  1  1
 12 11  1  0
 13 12  2  0
 14 20  1  0
 14 15  2  0
 16 12  1  0
 17 18  1  0
 19 18  1  6
 19 21  1  0
 20 19  1  0
 21 22  1  0
 23 21  2  0
M  END
$$$$
