VES.pdb
     RDKit          3D

 23 22  0  0  1  0  0  0  0  0999 V2000
   16.7404  -12.1114  -15.4963 C   0  0  0  0  0  0  0  0  0  0  0  0
   18.0899  -12.1648  -16.1685 C   0  0  2  0  0  0  0  0  0  0  0  0
   19.1290  -12.1298  -15.0526 C   0  0  0  0  0  0  0  0  0  0  0  0
   18.2540  -10.8837  -16.9715 C   0  0  2  0  0  0  0  0  0  0  0  0
   19.5096  -10.9750  -17.6795 N   0  0  0  0  0  0  0  0  0  0  0  0
   18.1539   -9.6762  -16.1136 C   0  0  0  0  0  0  0  0  0  0  0  0
   17.0644   -9.4550  -15.4823 O   0  0  0  0  0  0  0  0  0  0  0  0
   19.2601   -8.8018  -16.0140 N   0  0  0  0  0  0  0  0  0  0  0  0
   19.2049   -7.5703  -15.2933 C   0  0  1  0  0  0  0  0  0  0  0  0
   20.5973   -7.1220  -14.8930 C   0  0  0  0  0  0  0  0  0  0  0  0
   20.5493   -5.8403  -14.1144 C   0  0  0  0  0  0  0  0  0  0  0  0
   21.9152   -5.4330  -13.7698 C   0  0  0  0  0  0  0  0  0  0  0  0
   22.8859   -6.1688  -14.0273 O   0  0  0  0  0  0  0  0  0  0  0  0
   18.6021   -6.4659  -16.0931 C   0  0  0  0  0  0  0  0  0  0  0  0
   18.9803   -6.3082  -17.2831 O   0  0  0  0  0  0  0  0  0  0  0  0
   22.1712   -4.2192  -13.1478 O   0  0  0  0  0  0  0  0  0  0  0  0
   15.2131   -4.2277  -14.7577 O   0  0  0  0  0  0  0  0  0  0  0  0
   15.5582   -4.3708  -16.0916 C   0  0  0  0  0  0  0  0  0  0  0  0
   17.0347   -4.5244  -16.3079 C   0  0  2  0  0  0  0  0  0  0  0  0
   17.6215   -5.5931  -15.5575 N   0  0  0  0  0  0  0  0  0  0  0  0
   17.6785   -3.2135  -16.0499 C   0  0  0  0  0  0  0  0  0  0  0  0
   17.2502   -2.1338  -16.8103 O   0  0  0  0  0  0  0  0  0  0  0  0
   18.5754   -3.0295  -15.1948 O   0  0  0  0  0  0  0  0  0  0  0  0
  2  1  1  1
  2  3  1  0
  4  2  1  0
  4  6  1  0
  4  5  1  1
  6  8  1  0
  6  7  2  0
  8  9  1  0
  9 14  1  0
 10 11  1  0
  9 10  1  6
 12 11  1  0
 13 12  2  0
 14 20  1  0
 14 15  2  0
 16 12  1  0
 17 18  1  0
 19 18  1  1
 19 21  1  0
 20 19  1  0
 21 22  1  0
 23 21  2  0
M  END
$$$$
