VES.pdb
     RDKit          3D

 23 22  0  0  1  0  0  0  0  0999 V2000
   18.6261  -12.6206  -18.0019 C   0  0  0  0  0  0  0  0  0  0  0  0
   18.5913  -13.0948  -16.5701 C   0  0  2  0  0  0  0  0  0  0  0  0
   17.2916  -13.8759  -16.4063 C   0  0  0  0  0  0  0  0  0  0  0  0
   18.4881  -11.8650  -15.6814 C   0  0  2  0  0  0  0  0  0  0  0  0
   17.1691  -11.3067  -15.8673 N   0  0  0  0  0  0  0  0  0  0  0  0
   19.5771  -10.8930  -15.9529 C   0  0  0  0  0  0  0  0  0  0  0  0
   20.7879  -11.2479  -15.7469 O   0  0  0  0  0  0  0  0  0  0  0  0
   19.2529   -9.6030  -16.4310 N   0  0  0  0  0  0  0  0  0  0  0  0
   20.2464   -8.6262  -16.7439 C   0  0  1  0  0  0  0  0  0  0  0  0
   20.0116   -8.0482  -18.1262 C   0  0  0  0  0  0  0  0  0  0  0  0
   21.1092   -7.0994  -18.5087 C   0  0  0  0  0  0  0  0  0  0  0  0
   20.8470   -6.5738  -19.8523 C   0  0  0  0  0  0  0  0  0  0  0  0
   19.7897   -6.8466  -20.4503 O   0  0  0  0  0  0  0  0  0  0  0  0
   20.2474   -7.4840  -15.7857 C   0  0  0  0  0  0  0  0  0  0  0  0
   19.1462   -6.9661  -15.4649 O   0  0  0  0  0  0  0  0  0  0  0  0
   21.7641   -5.7582  -20.4999 O   0  0  0  0  0  0  0  0  0  0  0  0
   22.5489   -4.9280  -12.3671 O   0  0  0  0  0  0  0  0  0  0  0  0
   22.5426   -5.9859  -13.2614 C   0  0  0  0  0  0  0  0  0  0  0  0
   21.4644   -5.8776  -14.2988 C   0  0  2  0  0  0  0  0  0  0  0  0
   21.4438   -6.9665  -15.2280 N   0  0  0  0  0  0  0  0  0  0  0  0
   21.5887   -4.5552  -14.9585 C   0  0  0  0  0  0  0  0  0  0  0  0
   20.8450   -3.5085  -14.4305 O   0  0  0  0  0  0  0  0  0  0  0  0
   22.3182   -4.3338  -15.9525 O   0  0  0  0  0  0  0  0  0  0  0  0
  2  1  1  6
  2  3  1  0
  4  2  1  0
  4  6  1  0
  4  5  1  6
  6  8  1  0
  6  7  2  0
  8  9  1  0
  9 14  1  0
 10 11  1  0
  9 10  1  6
 12 11  1  0
 13 12  2  0
 14 20  1  0
 14 15  2  0
 16 12  1  0
 17 18  1  0
 19 18  1  1
 19 21  1  0
 20 19  1  0
 21 22  1  0
 23 21  2  0
M  END
$$$$
