VES.pdb
     RDKit          3D

 23 22  0  0  1  0  0  0  0  0999 V2000
   26.9487  -16.4782  -18.6113 C   0  0  0  0  0  0  0  0  0  0  0  0
   26.4369  -17.8882  -18.7734 C   0  0  2  0  0  0  0  0  0  0  0  0
   25.2513  -17.8090  -19.7296 C   0  0  0  0  0  0  0  0  0  0  0  0
   25.8941  -18.3375  -17.4257 C   0  0  2  0  0  0  0  0  0  0  0  0
   25.7666  -19.7756  -17.4686 N   0  0  0  0  0  0  0  0  0  0  0  0
   24.6243  -17.6488  -17.0829 C   0  0  0  0  0  0  0  0  0  0  0  0
   24.6409  -16.3866  -16.8801 O   0  0  0  0  0  0  0  0  0  0  0  0
   23.4306  -18.3999  -16.9890 N   0  0  0  0  0  0  0  0  0  0  0  0
   22.1788  -17.8137  -16.6306 C   0  0  1  0  0  0  0  0  0  0  0  0
   21.3271  -17.5764  -17.8628 C   0  0  0  0  0  0  0  0  0  0  0  0
   20.0683  -16.8373  -17.5153 C   0  0  0  0  0  0  0  0  0  0  0  0
   19.2786  -16.6292  -18.7332 C   0  0  0  0  0  0  0  0  0  0  0  0
   18.5171  -17.5165  -19.1607 O   0  0  0  0  0  0  0  0  0  0  0  0
   21.3858  -18.6768  -15.7092 C   0  0  0  0  0  0  0  0  0  0  0  0
   21.4935  -19.9264  -15.8126 O   0  0  0  0  0  0  0  0  0  0  0  0
   19.3526  -15.4417  -19.4473 O   0  0  0  0  0  0  0  0  0  0  0  0
   20.4779  -18.0173  -11.6725 O   0  0  0  0  0  0  0  0  0  0  0  0
   19.4128  -18.2231  -12.5339 C   0  0  0  0  0  0  0  0  0  0  0  0
   19.7989  -18.9459  -13.7905 C   0  0  2  0  0  0  0  0  0  0  0  0
   20.5191  -18.1362  -14.7260 N   0  0  0  0  0  0  0  0  0  0  0  0
   18.5754  -19.5514  -14.3700 C   0  0  0  0  0  0  0  0  0  0  0  0
   17.9041  -20.4908  -13.5991 O   0  0  0  0  0  0  0  0  0  0  0  0
   18.1205  -19.2654  -15.5017 O   0  0  0  0  0  0  0  0  0  0  0  0
  2  1  1  1
  2  3  1  0
  4  2  1  0
  4  6  1  0
  4  5  1  6
  6  8  1  0
  6  7  2  0
  8  9  1  0
  9 14  1  0
 10 11  1  0
  9 10  1  6
 12 11  1  0
 13 12  2  0
 14 20  1  0
 14 15  2  0
 16 12  1  0
 17 18  1  0
 19 18  1  1
 19 21  1  0
 20 19  1  0
 21 22  1  0
 23 21  2  0
M  END
$$$$
