VES.pdb
     RDKit          3D

 23 22  0  0  1  0  0  0  0  0999 V2000
   18.3408  -13.4916  -17.5410 C   0  0  0  0  0  0  0  0  0  0  0  0
   17.3615  -13.1721  -16.4387 C   0  0  2  0  0  0  0  0  0  0  0  0
   16.2883  -12.2840  -17.0597 C   0  0  0  0  0  0  0  0  0  0  0  0
   18.0930  -12.3311  -15.4040 C   0  0  2  0  0  0  0  0  0  0  0  0
   17.1751  -12.0903  -14.3153 N   0  0  0  0  0  0  0  0  0  0  0  0
   18.6412  -11.0831  -15.9924 C   0  0  0  0  0  0  0  0  0  0  0  0
   19.5894  -11.1666  -16.8459 O   0  0  0  0  0  0  0  0  0  0  0  0
   18.1051   -9.8360  -15.5983 N   0  0  0  0  0  0  0  0  0  0  0  0
   18.5394   -8.5986  -16.1634 C   0  0  1  0  0  0  0  0  0  0  0  0
   17.3708   -7.8513  -16.7765 C   0  0  0  0  0  0  0  0  0  0  0  0
   17.0935   -8.3320  -18.1706 C   0  0  0  0  0  0  0  0  0  0  0  0
   15.6580   -8.2139  -18.4457 C   0  0  0  0  0  0  0  0  0  0  0  0
   15.1518   -8.7576  -19.4448 O   0  0  0  0  0  0  0  0  0  0  0  0
   19.1567   -7.6934  -15.1524 C   0  0  0  0  0  0  0  0  0  0  0  0
   18.6723   -7.6681  -13.9911 O   0  0  0  0  0  0  0  0  0  0  0  0
   14.8189   -7.4956  -17.6058 O   0  0  0  0  0  0  0  0  0  0  0  0
   23.0294   -5.1441  -13.7357 O   0  0  0  0  0  0  0  0  0  0  0  0
   22.4086   -5.9527  -14.6736 C   0  0  0  0  0  0  0  0  0  0  0  0
   20.9242   -6.0513  -14.4803 C   0  0  2  0  0  0  0  0  0  0  0  0
   20.2661   -6.8649  -15.4573 N   0  0  0  0  0  0  0  0  0  0  0  0
   20.3752   -4.6756  -14.4071 C   0  0  0  0  0  0  0  0  0  0  0  0
   20.0434   -4.0585  -15.6056 O   0  0  0  0  0  0  0  0  0  0  0  0
   20.1967   -4.0483  -13.3375 O   0  0  0  0  0  0  0  0  0  0  0  0
  2  1  1  6
  2  3  1  0
  4  2  1  0
  4  6  1  0
  4  5  1  1
  6  8  1  0
  6  7  2  0
  8  9  1  0
  9 14  1  0
 10 11  1  0
  9 10  1  1
 12 11  1  0
 13 12  2  0
 14 20  1  0
 14 15  2  0
 16 12  1  0
 17 18  1  0
 19 18  1  6
 19 21  1  0
 20 19  1  0
 21 22  1  0
 23 21  2  0
M  END
$$$$
