CML.pdb
     RDKit          3D

 23 22  0  0  1  0  0  0  0  0999 V2000
    7.4691  -15.6661   18.3121 N   0  0  0  0  0  0  0  0  0  0  0  0
    8.1520  -14.8484   19.2848 C   0  0  1  0  0  0  0  0  0  0  0  0
    7.5637  -13.4771   19.3929 C   0  0  0  0  0  0  0  0  0  0  0  0
    8.5484  -12.4282   20.5032 S   0  0  0  0  0  0  0  0  0  0  0  0
    8.0962  -15.5166   20.6200 C   0  0  0  0  0  0  0  0  0  0  0  0
    7.0096  -16.0213   21.0281 O   0  0  0  0  0  0  0  0  0  0  0  0
   12.8913  -18.8788   23.7286 C   0  0  0  0  0  0  0  0  0  0  0  0
   11.2790  -19.6447   23.9986 S   0  0  0  0  0  0  0  0  0  0  0  0
    9.9636  -18.4015   23.8556 C   0  0  0  0  0  0  0  0  0  0  0  0
   10.2076  -17.5248   22.6497 C   0  0  0  0  0  0  0  0  0  0  0  0
    9.1735  -16.4478   22.6299 C   0  0  2  0  0  0  0  0  0  0  0  0
    9.2286  -15.6113   21.4654 N   0  0  0  0  0  0  0  0  0  0  0  0
    9.2452  -15.5888   23.8492 C   0  0  0  0  0  0  0  0  0  0  0  0
   10.1217  -14.6893   23.8682 O   0  0  0  0  0  0  0  0  0  0  0  0
    7.7340  -11.7411   25.5216 C   0  0  0  0  0  0  0  0  0  0  0  0
    6.9486  -12.9708   25.6688 C   0  0  2  0  0  0  0  0  0  0  0  0
    5.5872  -12.5561   26.2908 C   0  0  0  0  0  0  0  0  0  0  0  0
    7.4064  -14.1181   26.4343 C   0  0  0  0  0  0  0  0  0  0  0  0
    8.6057  -14.8938   26.1422 C   0  0  2  0  0  0  0  0  0  0  0  0
    8.3916  -15.7468   24.9442 N   0  0  0  0  0  0  0  0  0  0  0  0
    9.1895  -15.7276   27.1791 C   0  0  0  0  0  0  0  0  0  0  0  0
    9.0886  -17.0208   27.1503 O   0  0  0  0  0  0  0  0  0  0  0  0
    9.8839  -15.1704   28.2381 O   0  0  0  0  0  0  0  0  0  0  0  0
  2  1  1  6
  2  3  1  0
  2  5  1  0
  4  3  1  0
  5  6  2  0
  5 12  1  0
  7  8  1  0
  9 10  1  0
  9  8  1  0
 11 10  1  6
 11 13  1  0
 12 11  1  0
 13 20  1  0
 13 14  2  0
 16 17  1  1
 16 15  1  0
 16 18  1  0
 19 18  1  1
 19 21  1  0
 20 19  1  0
 21 23  1  0
 22 21  2  0
M  END
$$$$
