CML.pdb
     RDKit          3D

 23 22  0  0  1  0  0  0  0  0999 V2000
    4.6058  -20.5057   21.6164 N   0  0  0  0  0  0  0  0  0  0  0  0
    5.6835  -19.5640   21.7974 C   0  0  1  0  0  0  0  0  0  0  0  0
    5.6042  -18.4141   20.8437 C   0  0  0  0  0  0  0  0  0  0  0  0
    6.9585  -17.2356   21.1254 S   0  0  0  0  0  0  0  0  0  0  0  0
    5.6586  -19.0463   23.1986 C   0  0  0  0  0  0  0  0  0  0  0  0
    4.5587  -18.7115   23.7282 O   0  0  0  0  0  0  0  0  0  0  0  0
    7.9460  -21.6882   28.3340 C   0  0  0  0  0  0  0  0  0  0  0  0
    7.9635  -19.9814   28.9221 S   0  0  0  0  0  0  0  0  0  0  0  0
    7.1622  -18.8934   27.7095 C   0  0  0  0  0  0  0  0  0  0  0  0
    7.3652  -19.4343   26.3136 C   0  0  0  0  0  0  0  0  0  0  0  0
    6.7349  -18.4902   25.3434 C   0  0  2  0  0  0  0  0  0  0  0  0
    6.8353  -18.9109   23.9753 N   0  0  0  0  0  0  0  0  0  0  0  0
    7.2934  -17.1112   25.4701 C   0  0  0  0  0  0  0  0  0  0  0  0
    7.7762  -16.7864   26.5833 O   0  0  0  0  0  0  0  0  0  0  0  0
    6.1592  -12.1314   27.0256 C   0  0  0  0  0  0  0  0  0  0  0  0
    7.0873  -12.7713   26.0876 C   0  0  2  0  0  0  0  0  0  0  0  0
    7.2710  -11.7847   24.9023 C   0  0  0  0  0  0  0  0  0  0  0  0
    6.8409  -14.0733   25.4911 C   0  0  0  0  0  0  0  0  0  0  0  0
    7.7971  -14.8156   24.6788 C   0  0  2  0  0  0  0  0  0  0  0  0
    7.2978  -16.1910   24.4186 N   0  0  0  0  0  0  0  0  0  0  0  0
    9.1782  -14.9232   25.1174 C   0  0  0  0  0  0  0  0  0  0  0  0
    9.4953  -15.5075   26.2315 O   0  0  0  0  0  0  0  0  0  0  0  0
   10.2123  -14.4089   24.3557 O   0  0  0  0  0  0  0  0  0  0  0  0
  2  1  1  1
  2  3  1  0
  2  5  1  0
  4  3  1  0
  5  6  2  0
  5 12  1  0
  7  8  1  0
  9 10  1  0
  9  8  1  0
 11 10  1  1
 11 13  1  0
 12 11  1  0
 13 20  1  0
 13 14  2  0
 16 17  1  6
 16 15  1  0
 16 18  1  0
 19 18  1  1
 19 21  1  0
 20 19  1  0
 21 23  1  0
 22 21  2  0
M  END
$$$$
