CML.pdb
     RDKit          3D

 23 22  0  0  1  0  0  0  0  0999 V2000
   10.1218  -16.7472   19.2466 N   0  0  0  0  0  0  0  0  0  0  0  0
    9.4043  -17.3418   20.3478 C   0  0  1  0  0  0  0  0  0  0  0  0
    9.9307  -18.6947   20.7093 C   0  0  0  0  0  0  0  0  0  0  0  0
    8.8988  -20.0102   19.9970 S   0  0  0  0  0  0  0  0  0  0  0  0
    9.4916  -16.4434   21.5384 C   0  0  0  0  0  0  0  0  0  0  0  0
   10.5397  -15.7628   21.7398 O   0  0  0  0  0  0  0  0  0  0  0  0
    6.2882  -12.1595   27.2340 C   0  0  0  0  0  0  0  0  0  0  0  0
    6.0695  -12.9699   25.6357 S   0  0  0  0  0  0  0  0  0  0  0  0
    7.5746  -13.8790   25.1838 C   0  0  0  0  0  0  0  0  0  0  0  0
    7.2818  -14.8373   24.0532 C   0  0  0  0  0  0  0  0  0  0  0  0
    8.5720  -15.4247   23.5839 C   0  0  2  0  0  0  0  0  0  0  0  0
    8.4320  -16.3180   22.4698 N   0  0  0  0  0  0  0  0  0  0  0  0
    9.2922  -16.1304   24.6853 C   0  0  0  0  0  0  0  0  0  0  0  0
    9.3125  -17.3858   24.6472 O   0  0  0  0  0  0  0  0  0  0  0  0
    9.7309  -13.2893   28.2077 C   0  0  0  0  0  0  0  0  0  0  0  0
   10.1518  -14.6335   28.6162 C   0  0  2  0  0  0  0  0  0  0  0  0
   10.7636  -14.4944   30.0369 C   0  0  0  0  0  0  0  0  0  0  0  0
   11.0907  -15.4375   27.8522 C   0  0  0  0  0  0  0  0  0  0  0  0
   10.7458  -16.2484   26.6909 C   0  0  2  0  0  0  0  0  0  0  0  0
    9.9293  -15.4592   25.7322 N   0  0  0  0  0  0  0  0  0  0  0  0
   10.0866  -17.5292   26.8820 C   0  0  0  0  0  0  0  0  0  0  0  0
   10.6786  -18.5175   27.4788 O   0  0  0  0  0  0  0  0  0  0  0  0
    8.7936  -17.7412   26.4377 O   0  0  0  0  0  0  0  0  0  0  0  0
  2  1  1  6
  2  3  1  0
  2  5  1  0
  4  3  1  0
  5  6  2  0
  5 12  1  0
  7  8  1  0
  9 10  1  0
  9  8  1  0
 11 10  1  1
 11 13  1  0
 12 11  1  0
 13 20  1  0
 13 14  2  0
 16 17  1  1
 16 15  1  0
 16 18  1  0
 19 18  1  1
 19 21  1  0
 20 19  1  0
 21 23  1  0
 22 21  2  0
M  END
$$$$
