CML.pdb
     RDKit          3D

 23 22  0  0  1  0  0  0  0  0999 V2000
    7.1888  -17.6999   18.4115 N   0  0  0  0  0  0  0  0  0  0  0  0
    7.8736  -16.7764   19.2829 C   0  0  1  0  0  0  0  0  0  0  0  0
    7.7277  -15.3555   18.8382 C   0  0  0  0  0  0  0  0  0  0  0  0
    8.4378  -14.2115   20.0587 S   0  0  0  0  0  0  0  0  0  0  0  0
    7.3395  -16.9168   20.6711 C   0  0  0  0  0  0  0  0  0  0  0  0
    6.1077  -16.7306   20.8952 O   0  0  0  0  0  0  0  0  0  0  0  0
    6.3886  -21.3939   25.6064 C   0  0  0  0  0  0  0  0  0  0  0  0
    7.6332  -20.1565   26.0298 S   0  0  0  0  0  0  0  0  0  0  0  0
    7.2939  -18.6026   25.1544 C   0  0  0  0  0  0  0  0  0  0  0  0
    7.8414  -18.6696   23.7480 C   0  0  0  0  0  0  0  0  0  0  0  0
    7.5966  -17.3560   23.0812 C   0  0  2  0  0  0  0  0  0  0  0  0
    8.1679  -17.2557   21.7688 N   0  0  0  0  0  0  0  0  0  0  0  0
    8.0832  -16.2144   23.9117 C   0  0  0  0  0  0  0  0  0  0  0  0
    9.3060  -15.9348   23.8450 O   0  0  0  0  0  0  0  0  0  0  0  0
    7.8098  -11.7933   27.5393 C   0  0  0  0  0  0  0  0  0  0  0  0
    7.0403  -11.9920   26.3068 C   0  0  2  0  0  0  0  0  0  0  0  0
    5.6400  -11.3666   26.5521 C   0  0  0  0  0  0  0  0  0  0  0  0
    6.7984  -13.3012   25.7245 C   0  0  0  0  0  0  0  0  0  0  0  0
    7.8226  -14.3086   25.4768 C   0  0  2  0  0  0  0  0  0  0  0  0
    7.2457  -15.4637   24.7409 N   0  0  0  0  0  0  0  0  0  0  0  0
    8.5933  -14.8353   26.5904 C   0  0  0  0  0  0  0  0  0  0  0  0
    8.1731  -15.8410   27.2942 O   0  0  0  0  0  0  0  0  0  0  0  0
    9.8136  -14.2845   26.9393 O   0  0  0  0  0  0  0  0  0  0  0  0
  2  1  1  6
  2  3  1  0
  2  5  1  0
  4  3  1  0
  5  6  2  0
  5 12  1  0
  7  8  1  0
  9 10  1  0
  9  8  1  0
 11 10  1  1
 11 13  1  0
 12 11  1  0
 13 20  1  0
 13 14  2  0
 16 17  1  1
 16 15  1  0
 16 18  1  0
 19 18  1  1
 19 21  1  0
 20 19  1  0
 21 23  1  0
 22 21  2  0
M  END
$$$$
