CML.pdb
     RDKit          3D

 23 22  0  0  1  0  0  0  0  0999 V2000
    8.9680  -20.1499   21.2791 N   0  0  0  0  0  0  0  0  0  0  0  0
    7.9451  -19.3505   21.9083 C   0  0  1  0  0  0  0  0  0  0  0  0
    7.6846  -19.7649   23.3220 C   0  0  0  0  0  0  0  0  0  0  0  0
    9.1543  -19.5102   24.3601 S   0  0  0  0  0  0  0  0  0  0  0  0
    8.3535  -17.9136   21.8819 C   0  0  0  0  0  0  0  0  0  0  0  0
    9.5807  -17.6071   21.8358 O   0  0  0  0  0  0  0  0  0  0  0  0
    8.8807  -11.3647   19.5838 C   0  0  0  0  0  0  0  0  0  0  0  0
    8.2617  -13.0375   19.8624 S   0  0  0  0  0  0  0  0  0  0  0  0
    7.4447  -13.1412   21.4804 C   0  0  0  0  0  0  0  0  0  0  0  0
    6.7979  -14.4960   21.6488 C   0  0  0  0  0  0  0  0  0  0  0  0
    7.8669  -15.4994   21.9323 C   0  0  2  0  0  0  0  0  0  0  0  0
    7.4085  -16.8589   21.9070 N   0  0  0  0  0  0  0  0  0  0  0  0
    8.5396  -15.2375   23.2393 C   0  0  0  0  0  0  0  0  0  0  0  0
    9.4934  -14.4202   23.2416 O   0  0  0  0  0  0  0  0  0  0  0  0
    7.5691  -12.0405   26.3005 C   0  0  0  0  0  0  0  0  0  0  0  0
    6.8426  -13.2820   26.0147 C   0  0  2  0  0  0  0  0  0  0  0  0
    5.4731  -13.1716   26.7389 C   0  0  0  0  0  0  0  0  0  0  0  0
    7.3633  -14.5991   26.3400 C   0  0  0  0  0  0  0  0  0  0  0  0
    8.5302  -15.2139   25.7191 C   0  0  2  0  0  0  0  0  0  0  0  0
    8.1545  -15.8552   24.4321 N   0  0  0  0  0  0  0  0  0  0  0  0
    9.3227  -16.1699   26.4736 C   0  0  0  0  0  0  0  0  0  0  0  0
    9.7775  -15.8940   27.6570 O   0  0  0  0  0  0  0  0  0  0  0  0
    9.6180  -17.4192   25.9576 O   0  0  0  0  0  0  0  0  0  0  0  0
  2  1  1  1
  2  3  1  0
  2  5  1  0
  4  3  1  0
  5  6  2  0
  5 12  1  0
  7  8  1  0
  9 10  1  0
  9  8  1  0
 11 10  1  1
 11 13  1  0
 12 11  1  0
 13 20  1  0
 13 14  2  0
 16 17  1  1
 16 15  1  0
 16 18  1  0
 19 18  1  1
 19 21  1  0
 20 19  1  0
 21 23  1  0
 22 21  2  0
M  END
$$$$
