CML.pdb
     RDKit          3D

 23 22  0  0  1  0  0  0  0  0999 V2000
    7.7779  -14.6747   19.3243 N   0  0  0  0  0  0  0  0  0  0  0  0
    8.2482  -15.6500   20.2775 C   0  0  1  0  0  0  0  0  0  0  0  0
    9.3599  -16.4908   19.7339 C   0  0  0  0  0  0  0  0  0  0  0  0
    8.7837  -17.5268   18.3566 S   0  0  0  0  0  0  0  0  0  0  0  0
    8.7161  -14.9503   21.5119 C   0  0  0  0  0  0  0  0  0  0  0  0
    8.7584  -13.6856   21.5427 O   0  0  0  0  0  0  0  0  0  0  0  0
    6.9748  -11.5743   25.8460 C   0  0  0  0  0  0  0  0  0  0  0  0
    5.9286  -12.9274   25.2685 S   0  0  0  0  0  0  0  0  0  0  0  0
    6.8187  -14.5047   25.3953 C   0  0  0  0  0  0  0  0  0  0  0  0
    7.1734  -15.0122   24.0173 C   0  0  0  0  0  0  0  0  0  0  0  0
    8.6494  -15.2307   23.9582 C   0  0  2  0  0  0  0  0  0  0  0  0
    9.1225  -15.6545   22.6716 N   0  0  0  0  0  0  0  0  0  0  0  0
    9.1061  -16.2083   24.9903 C   0  0  0  0  0  0  0  0  0  0  0  0
    9.1387  -17.4198   24.6603 O   0  0  0  0  0  0  0  0  0  0  0  0
    9.9187  -13.4791   28.3256 C   0  0  0  0  0  0  0  0  0  0  0  0
   10.5310  -14.7322   28.7790 C   0  0  2  0  0  0  0  0  0  0  0  0
   11.5041  -14.3593   29.9307 C   0  0  0  0  0  0  0  0  0  0  0  0
   11.2734  -15.6172   27.8975 C   0  0  0  0  0  0  0  0  0  0  0  0
   10.6781  -16.4846   26.8883 C   0  0  2  0  0  0  0  0  0  0  0  0
    9.4896  -15.8317   26.2802 N   0  0  0  0  0  0  0  0  0  0  0  0
   10.3024  -17.8428   27.2427 C   0  0  0  0  0  0  0  0  0  0  0  0
    9.0656  -18.2343   27.2234 O   0  0  0  0  0  0  0  0  0  0  0  0
   11.2559  -18.7756   27.6098 O   0  0  0  0  0  0  0  0  0  0  0  0
  2  1  1  6
  2  3  1  0
  2  5  1  0
  4  3  1  0
  5  6  2  0
  5 12  1  0
  7  8  1  0
  9 10  1  0
  9  8  1  0
 11 10  1  6
 11 13  1  0
 12 11  1  0
 13 20  1  0
 13 14  2  0
 16 17  1  1
 16 15  1  0
 16 18  1  0
 19 18  1  1
 19 21  1  0
 20 19  1  0
 21 23  1  0
 22 21  2  0
M  END
$$$$
