CML.pdb
     RDKit          3D

 23 22  0  0  1  0  0  0  0  0999 V2000
   10.1346  -16.3916   18.9002 N   0  0  0  0  0  0  0  0  0  0  0  0
    9.3860  -16.9958   19.9752 C   0  0  1  0  0  0  0  0  0  0  0  0
    9.8744  -18.3695   20.3105 C   0  0  0  0  0  0  0  0  0  0  0  0
   11.5765  -18.3221   20.9454 S   0  0  0  0  0  0  0  0  0  0  0  0
    9.4759  -16.1295   21.1892 C   0  0  0  0  0  0  0  0  0  0  0  0
   10.3452  -15.2112   21.2461 O   0  0  0  0  0  0  0  0  0  0  0  0
    5.9255  -12.8119   26.0745 C   0  0  0  0  0  0  0  0  0  0  0  0
    7.1909  -12.3869   24.8591 S   0  0  0  0  0  0  0  0  0  0  0  0
    7.0372  -13.4522   23.3970 C   0  0  0  0  0  0  0  0  0  0  0  0
    7.2465  -14.8974   23.7841 C   0  0  0  0  0  0  0  0  0  0  0  0
    8.6127  -15.3121   23.3465 C   0  0  2  0  0  0  0  0  0  0  0  0
    8.6141  -16.2947   22.3009 N   0  0  0  0  0  0  0  0  0  0  0  0
    9.4306  -15.8170   24.4892 C   0  0  0  0  0  0  0  0  0  0  0  0
    9.6549  -17.0521   24.5343 O   0  0  0  0  0  0  0  0  0  0  0  0
   10.4061  -13.9595   30.3220 C   0  0  0  0  0  0  0  0  0  0  0  0
   10.5618  -14.9463   29.2484 C   0  0  2  0  0  0  0  0  0  0  0  0
   12.0193  -15.4750   29.3396 C   0  0  0  0  0  0  0  0  0  0  0  0
   10.3343  -14.6370   27.8469 C   0  0  0  0  0  0  0  0  0  0  0  0
   10.4163  -15.5985   26.7542 C   0  0  2  0  0  0  0  0  0  0  0  0
    9.9432  -14.9834   25.4867 N   0  0  0  0  0  0  0  0  0  0  0  0
    9.7658  -16.8910   26.8872 C   0  0  0  0  0  0  0  0  0  0  0  0
    8.4742  -17.0098   26.8560 O   0  0  0  0  0  0  0  0  0  0  0  0
   10.5043  -18.0500   27.0466 O   0  0  0  0  0  0  0  0  0  0  0  0
  2  1  1  6
  2  3  1  0
  2  5  1  0
  4  3  1  0
  5  6  2  0
  5 12  1  0
  7  8  1  0
  9 10  1  0
  9  8  1  0
 11 10  1  1
 11 13  1  0
 12 11  1  0
 13 20  1  0
 13 14  2  0
 16 17  1  6
 16 15  1  0
 16 18  1  0
 19 18  1  1
 19 21  1  0
 20 19  1  0
 21 23  1  0
 22 21  2  0
M  END
$$$$
