CML.pdb
     RDKit          3D

 23 22  0  0  1  0  0  0  0  0999 V2000
    4.1453  -19.3011   23.3276 N   0  0  0  0  0  0  0  0  0  0  0  0
    5.4328  -19.1704   23.9650 C   0  0  1  0  0  0  0  0  0  0  0  0
    6.4829  -20.0109   23.3102 C   0  0  0  0  0  0  0  0  0  0  0  0
    6.6883  -21.5947   24.1773 S   0  0  0  0  0  0  0  0  0  0  0  0
    5.8568  -17.7380   23.9351 C   0  0  0  0  0  0  0  0  0  0  0  0
    5.6942  -17.0536   22.8829 O   0  0  0  0  0  0  0  0  0  0  0  0
    5.7013  -13.0835   27.4920 C   0  0  0  0  0  0  0  0  0  0  0  0
    7.2482  -12.4908   26.7744 S   0  0  0  0  0  0  0  0  0  0  0  0
    8.0876  -13.8394   25.8953 C   0  0  0  0  0  0  0  0  0  0  0  0
    7.4112  -15.1558   26.1982 C   0  0  0  0  0  0  0  0  0  0  0  0
    7.0055  -15.7880   24.9076 C   0  0  2  0  0  0  0  0  0  0  0  0
    6.4447  -17.1005   25.0550 N   0  0  0  0  0  0  0  0  0  0  0  0
    8.1414  -15.8506   23.9405 C   0  0  0  0  0  0  0  0  0  0  0  0
    8.8654  -16.8766   23.9694 O   0  0  0  0  0  0  0  0  0  0  0  0
    6.8172  -14.1613   19.9748 C   0  0  0  0  0  0  0  0  0  0  0  0
    7.9873  -13.4809   20.5394 C   0  0  2  0  0  0  0  0  0  0  0  0
    8.3585  -12.3423   19.5504 C   0  0  0  0  0  0  0  0  0  0  0  0
    9.2313  -14.1656   20.8480 C   0  0  0  0  0  0  0  0  0  0  0  0
    9.4247  -15.0878   21.9603 C   0  0  2  0  0  0  0  0  0  0  0  0
    8.4209  -14.8318   23.0258 N   0  0  0  0  0  0  0  0  0  0  0  0
   10.7284  -15.1805   22.5954 C   0  0  0  0  0  0  0  0  0  0  0  0
   10.8859  -14.9544   23.8632 O   0  0  0  0  0  0  0  0  0  0  0  0
   11.8551  -15.5215   21.8685 O   0  0  0  0  0  0  0  0  0  0  0  0
  2  1  1  6
  2  3  1  0
  2  5  1  0
  4  3  1  0
  5  6  2  0
  5 12  1  0
  7  8  1  0
  9 10  1  0
  9  8  1  0
 11 10  1  1
 11 13  1  0
 12 11  1  0
 13 20  1  0
 13 14  2  0
 16 17  1  6
 16 15  1  0
 16 18  1  0
 19 18  1  6
 19 21  1  0
 20 19  1  0
 21 23  1  0
 22 21  2  0
M  END
$$$$
