CML.pdb
     RDKit          3D

 23 22  0  0  1  0  0  0  0  0999 V2000
    6.5892  -20.0933   21.9920 N   0  0  0  0  0  0  0  0  0  0  0  0
    6.1063  -18.7718   22.3108 C   0  0  1  0  0  0  0  0  0  0  0  0
    5.4181  -18.7194   23.6381 C   0  0  0  0  0  0  0  0  0  0  0  0
    6.6122  -18.8613   25.0006 S   0  0  0  0  0  0  0  0  0  0  0  0
    7.2518  -17.8126   22.3101 C   0  0  0  0  0  0  0  0  0  0  0  0
    8.4308  -18.2374   22.4880 O   0  0  0  0  0  0  0  0  0  0  0  0
    7.7671  -11.6974   19.6698 C   0  0  0  0  0  0  0  0  0  0  0  0
    7.7168  -13.2782   18.7995 S   0  0  0  0  0  0  0  0  0  0  0  0
    7.4053  -14.6287   19.9722 C   0  0  0  0  0  0  0  0  0  0  0  0
    7.9922  -14.2889   21.3221 C   0  0  0  0  0  0  0  0  0  0  0  0
    8.2185  -15.5593   22.0737 C   0  0  2  0  0  0  0  0  0  0  0  0
    7.0721  -16.4212   22.1155 N   0  0  0  0  0  0  0  0  0  0  0  0
    8.6842  -15.3018   23.4689 C   0  0  0  0  0  0  0  0  0  0  0  0
    9.6109  -14.4677   23.6211 O   0  0  0  0  0  0  0  0  0  0  0  0
    8.1447  -12.1224   26.3585 C   0  0  0  0  0  0  0  0  0  0  0  0
    7.2400  -13.2399   26.0693 C   0  0  2  0  0  0  0  0  0  0  0  0
    5.8594  -12.8605   26.6712 C   0  0  0  0  0  0  0  0  0  0  0  0
    7.5022  -14.6041   26.4958 C   0  0  0  0  0  0  0  0  0  0  0  0
    8.5331  -15.4711   25.9383 C   0  0  2  0  0  0  0  0  0  0  0  0
    8.1381  -15.9412   24.5849 N   0  0  0  0  0  0  0  0  0  0  0  0
    8.9812  -16.6284   26.6941 C   0  0  0  0  0  0  0  0  0  0  0  0
    8.8214  -17.8364   26.2484 O   0  0  0  0  0  0  0  0  0  0  0  0
    9.6041  -16.4837   27.9210 O   0  0  0  0  0  0  0  0  0  0  0  0
  2  1  1  1
  2  3  1  0
  2  5  1  0
  4  3  1  0
  5  6  2  0
  5 12  1  0
  7  8  1  0
  9 10  1  0
  9  8  1  0
 11 10  1  1
 11 13  1  0
 12 11  1  0
 13 20  1  0
 13 14  2  0
 16 17  1  1
 16 15  1  0
 16 18  1  0
 19 18  1  1
 19 21  1  0
 20 19  1  0
 21 23  1  0
 22 21  2  0
M  END
$$$$
