CML.pdb
     RDKit          3D

 23 22  0  0  1  0  0  0  0  0999 V2000
    7.5438  -20.0566   22.1776 N   0  0  0  0  0  0  0  0  0  0  0  0
    7.0163  -19.1311   23.1504 C   0  0  1  0  0  0  0  0  0  0  0  0
    7.0225  -19.6936   24.5367 C   0  0  0  0  0  0  0  0  0  0  0  0
    5.8547  -21.0779   24.6865 S   0  0  0  0  0  0  0  0  0  0  0  0
    7.8214  -17.8728   23.1242 C   0  0  0  0  0  0  0  0  0  0  0  0
    9.0081  -17.8920   22.6842 O   0  0  0  0  0  0  0  0  0  0  0  0
    6.9087  -11.6972   25.7532 C   0  0  0  0  0  0  0  0  0  0  0  0
    6.6890  -13.4555   26.0989 S   0  0  0  0  0  0  0  0  0  0  0  0
    6.2399  -14.3409   24.5789 C   0  0  0  0  0  0  0  0  0  0  0  0
    7.3297  -14.1816   23.5448 C   0  0  0  0  0  0  0  0  0  0  0  0
    8.1108  -15.4526   23.4800 C   0  0  2  0  0  0  0  0  0  0  0  0
    7.3044  -16.6353   23.5796 N   0  0  0  0  0  0  0  0  0  0  0  0
    9.1764  -15.5016   24.5249 C   0  0  0  0  0  0  0  0  0  0  0  0
    9.9150  -14.4923   24.6408 O   0  0  0  0  0  0  0  0  0  0  0  0
    9.3960  -14.1845   29.6875 C   0  0  0  0  0  0  0  0  0  0  0  0
   10.1579  -14.9886   28.7263 C   0  0  2  0  0  0  0  0  0  0  0  0
   11.4667  -14.2060   28.4319 C   0  0  0  0  0  0  0  0  0  0  0  0
    9.6307  -15.3894   27.4328 C   0  0  0  0  0  0  0  0  0  0  0  0
   10.1979  -16.4307   26.5847 C   0  0  2  0  0  0  0  0  0  0  0  0
    9.3761  -16.6050   25.3588 N   0  0  0  0  0  0  0  0  0  0  0  0
   10.4470  -17.7501   27.1402 C   0  0  0  0  0  0  0  0  0  0  0  0
   11.5721  -18.0459   27.7145 O   0  0  0  0  0  0  0  0  0  0  0  0
    9.4855  -18.7433   27.0825 O   0  0  0  0  0  0  0  0  0  0  0  0
  2  1  1  6
  2  3  1  0
  2  5  1  0
  4  3  1  0
  5  6  2  0
  5 12  1  0
  7  8  1  0
  9 10  1  0
  9  8  1  0
 11 10  1  1
 11 13  1  0
 12 11  1  0
 13 20  1  0
 13 14  2  0
 16 17  1  6
 16 15  1  0
 16 18  1  0
 19 18  1  1
 19 21  1  0
 20 19  1  0
 21 23  1  0
 22 21  2  0
M  END
$$$$
