CML.pdb
     RDKit          3D

 23 22  0  0  1  0  0  0  0  0999 V2000
    6.6647  -20.3053   22.9088 N   0  0  0  0  0  0  0  0  0  0  0  0
    6.1162  -18.9974   23.1727 C   0  0  1  0  0  0  0  0  0  0  0  0
    5.6956  -18.8309   24.5987 C   0  0  0  0  0  0  0  0  0  0  0  0
    7.1077  -19.0305   25.7251 S   0  0  0  0  0  0  0  0  0  0  0  0
    7.1325  -17.9564   22.8326 C   0  0  0  0  0  0  0  0  0  0  0  0
    8.3625  -18.2552   22.8217 O   0  0  0  0  0  0  0  0  0  0  0  0
    6.4676  -12.5256   19.1583 C   0  0  0  0  0  0  0  0  0  0  0  0
    7.8996  -12.1312   20.1845 S   0  0  0  0  0  0  0  0  0  0  0  0
    8.4697  -13.6157   21.0605 C   0  0  0  0  0  0  0  0  0  0  0  0
    7.2909  -14.4876   21.4248 C   0  0  0  0  0  0  0  0  0  0  0  0
    7.7951  -15.6775   22.1731 C   0  0  2  0  0  0  0  0  0  0  0  0
    6.7724  -16.6237   22.5161 N   0  0  0  0  0  0  0  0  0  0  0  0
    8.5273  -15.2823   23.4130 C   0  0  0  0  0  0  0  0  0  0  0  0
    9.5745  -14.6033   23.2708 O   0  0  0  0  0  0  0  0  0  0  0  0
    7.6012  -11.7737   25.8533 C   0  0  0  0  0  0  0  0  0  0  0  0
    7.0334  -13.1032   26.1000 C   0  0  2  0  0  0  0  0  0  0  0  0
    5.8461  -12.9036   27.0812 C   0  0  0  0  0  0  0  0  0  0  0  0
    7.8095  -14.2117   26.6297 C   0  0  0  0  0  0  0  0  0  0  0  0
    8.7654  -15.0040   25.8656 C   0  0  2  0  0  0  0  0  0  0  0  0
    8.0987  -15.6331   24.6959 N   0  0  0  0  0  0  0  0  0  0  0  0
    9.5418  -16.0325   26.5370 C   0  0  0  0  0  0  0  0  0  0  0  0
    9.3697  -17.2924   26.2796 O   0  0  0  0  0  0  0  0  0  0  0  0
   10.5030  -15.7039   27.4762 O   0  0  0  0  0  0  0  0  0  0  0  0
  2  1  1  1
  2  3  1  0
  2  5  1  0
  4  3  1  0
  5  6  2  0
  5 12  1  0
  7  8  1  0
  9 10  1  0
  9  8  1  0
 11 10  1  1
 11 13  1  0
 12 11  1  0
 13 20  1  0
 13 14  2  0
 16 17  1  1
 16 15  1  0
 16 18  1  0
 19 18  1  1
 19 21  1  0
 20 19  1  0
 21 23  1  0
 22 21  2  0
M  END
$$$$
