CML.pdb
     RDKit          3D

 23 22  0  0  1  0  0  0  0  0999 V2000
    7.0986  -18.8575   19.8368 N   0  0  0  0  0  0  0  0  0  0  0  0
    8.1464  -18.4124   20.7228 C   0  0  1  0  0  0  0  0  0  0  0  0
    9.0602  -17.4208   20.0749 C   0  0  0  0  0  0  0  0  0  0  0  0
   10.4293  -16.9715   21.1821 S   0  0  0  0  0  0  0  0  0  0  0  0
    7.5372  -17.7998   21.9418 C   0  0  0  0  0  0  0  0  0  0  0  0
    6.6567  -16.8983   21.8221 O   0  0  0  0  0  0  0  0  0  0  0  0
    6.9385  -19.6454   28.5160 C   0  0  0  0  0  0  0  0  0  0  0  0
    7.4900  -20.6086   27.0922 S   0  0  0  0  0  0  0  0  0  0  0  0
    7.9477  -19.5022   25.7274 C   0  0  0  0  0  0  0  0  0  0  0  0
    6.8010  -18.5723   25.4070 C   0  0  0  0  0  0  0  0  0  0  0  0
    7.2604  -17.5900   24.3804 C   0  0  2  0  0  0  0  0  0  0  0  0
    7.9096  -18.1914   23.2510 N   0  0  0  0  0  0  0  0  0  0  0  0
    8.1649  -16.5573   24.9679 C   0  0  0  0  0  0  0  0  0  0  0  0
    9.3931  -16.6647   24.7276 O   0  0  0  0  0  0  0  0  0  0  0  0
    6.6180  -12.1479   24.6890 C   0  0  0  0  0  0  0  0  0  0  0  0
    6.7460  -12.8186   25.9869 C   0  0  2  0  0  0  0  0  0  0  0  0
    6.1096  -11.8716   27.0406 C   0  0  0  0  0  0  0  0  0  0  0  0
    8.0224  -13.2362   26.5420 C   0  0  0  0  0  0  0  0  0  0  0  0
    8.6862  -14.5016   26.2532 C   0  0  2  0  0  0  0  0  0  0  0  0
    7.7038  -15.5003   25.7572 N   0  0  0  0  0  0  0  0  0  0  0  0
    9.4853  -15.1427   27.2837 C   0  0  0  0  0  0  0  0  0  0  0  0
   10.4899  -14.5393   27.8404 O   0  0  0  0  0  0  0  0  0  0  0  0
    9.1987  -16.4253   27.7161 O   0  0  0  0  0  0  0  0  0  0  0  0
  2  1  1  6
  2  3  1  0
  2  5  1  0
  4  3  1  0
  5  6  2  0
  5 12  1  0
  7  8  1  0
  9 10  1  0
  9  8  1  0
 11 10  1  1
 11 13  1  0
 12 11  1  0
 13 20  1  0
 13 14  2  0
 16 17  1  1
 16 15  1  0
 16 18  1  0
 19 18  1  1
 19 21  1  0
 20 19  1  0
 21 23  1  0
 22 21  2  0
M  END
$$$$
