CML.pdb
     RDKit          3D

 23 22  0  0  1  0  0  0  0  0999 V2000
   12.3423  -17.5690   18.9061 N   0  0  0  0  0  0  0  0  0  0  0  0
   11.8121  -18.2212   20.0785 C   0  0  1  0  0  0  0  0  0  0  0  0
   12.7657  -19.2171   20.6592 C   0  0  0  0  0  0  0  0  0  0  0  0
   14.4726  -18.8664   20.1436 S   0  0  0  0  0  0  0  0  0  0  0  0
   11.4826  -17.1926   21.1109 C   0  0  0  0  0  0  0  0  0  0  0  0
   12.1332  -16.1076   21.1508 O   0  0  0  0  0  0  0  0  0  0  0  0
    7.0870  -13.1705   20.7093 C   0  0  0  0  0  0  0  0  0  0  0  0
    6.7264  -13.7906   22.3660 S   0  0  0  0  0  0  0  0  0  0  0  0
    8.2064  -14.5607   23.0819 C   0  0  0  0  0  0  0  0  0  0  0  0
    8.6766  -15.6962   22.2035 C   0  0  0  0  0  0  0  0  0  0  0  0
    9.9360  -16.2524   22.7817 C   0  0  2  0  0  0  0  0  0  0  0  0
   10.4539  -17.3829   22.0657 N   0  0  0  0  0  0  0  0  0  0  0  0
    9.7695  -16.6220   24.2188 C   0  0  0  0  0  0  0  0  0  0  0  0
    9.9267  -17.8303   24.5238 O   0  0  0  0  0  0  0  0  0  0  0  0
   11.4356  -13.8633   28.2213 C   0  0  0  0  0  0  0  0  0  0  0  0
   10.1071  -13.8366   27.6005 C   0  0  2  0  0  0  0  0  0  0  0  0
    9.2890  -12.7495   28.3494 C   0  0  0  0  0  0  0  0  0  0  0  0
    9.2448  -15.0036   27.5208 C   0  0  0  0  0  0  0  0  0  0  0  0
    9.4541  -16.1389   26.6306 C   0  0  2  0  0  0  0  0  0  0  0  0
    9.4523  -15.6927   25.2130 N   0  0  0  0  0  0  0  0  0  0  0  0
    8.5822  -17.2971   26.7298 C   0  0  0  0  0  0  0  0  0  0  0  0
    7.5184  -17.4134   25.9964 O   0  0  0  0  0  0  0  0  0  0  0  0
    8.8594  -18.3273   27.6107 O   0  0  0  0  0  0  0  0  0  0  0  0
  2  1  1  6
  2  3  1  0
  2  5  1  0
  4  3  1  0
  5  6  2  0
  5 12  1  0
  7  8  1  0
  9 10  1  0
  9  8  1  0
 11 10  1  6
 11 13  1  0
 12 11  1  0
 13 20  1  0
 13 14  2  0
 16 17  1  1
 16 15  1  0
 16 18  1  0
 19 18  1  1
 19 21  1  0
 20 19  1  0
 21 23  1  0
 22 21  2  0
M  END
$$$$
