KYF.pdb
     RDKit          3D

 33 34  0  0  1  0  0  0  0  0999 V2000
    9.9713  -17.2779   19.8047 N   0  0  0  0  0  0  0  0  0  0  0  0
    9.7886  -16.1289   20.7119 C   0  0  1  0  0  0  0  0  0  0  0  0
    8.3562  -15.7147   20.5743 C   0  0  0  0  0  0  0  0  0  0  0  0
    8.0194  -15.3664   19.1628 C   0  0  0  0  0  0  0  0  0  0  0  0
    8.0732  -13.8786   18.9784 C   0  0  0  0  0  0  0  0  0  0  0  0
    7.6966  -13.4992   17.5739 C   0  0  0  0  0  0  0  0  0  0  0  0
    7.7577  -12.0355   17.5217 N   0  0  0  0  0  0  0  0  0  0  0  0
   10.0665  -16.5325   22.0997 C   0  0  0  0  0  0  0  0  0  0  0  0
    9.6798  -17.6544   22.5003 O   0  0  0  0  0  0  0  0  0  0  0  0
   11.6647  -15.7894   30.7785 O   0  0  0  0  0  0  0  0  0  0  0  0
   11.6216  -15.5616   29.4154 C   0  0  0  0  0  0  0  0  0  0  0  0
   12.2393  -16.4367   28.5615 C   0  0  0  0  0  0  0  0  0  0  0  0
   12.2282  -16.2605   27.2060 C   0  0  0  0  0  0  0  0  0  0  0  0
   11.5769  -15.1659   26.6348 C   0  0  0  0  0  0  0  0  0  0  0  0
   11.5912  -14.9996   25.1807 C   0  0  0  0  0  0  0  0  0  0  0  0
   10.7280  -16.0101   24.4359 C   0  0  2  0  0  0  0  0  0  0  0  0
   10.7633  -15.6985   23.0223 N   0  0  0  0  0  0  0  0  0  0  0  0
    9.3330  -15.9254   24.9168 C   0  0  0  0  0  0  0  0  0  0  0  0
    8.7256  -14.8492   25.1247 O   0  0  0  0  0  0  0  0  0  0  0  0
   10.9548  -14.2851   27.5022 C   0  0  0  0  0  0  0  0  0  0  0  0
   10.9745  -14.4757   28.8638 C   0  0  0  0  0  0  0  0  0  0  0  0
    8.6221  -17.1287   25.1635 N   0  0  0  0  0  0  0  0  0  0  0  0
    7.3503  -17.0795   25.8930 C   0  0  1  0  0  0  0  0  0  0  0  0
    6.3862  -16.3373   24.9868 C   0  0  0  0  0  0  0  0  0  0  0  0
    6.4688  -14.8809   25.2141 C   0  0  0  0  0  0  0  0  0  0  0  0
    7.0749  -14.0429   24.3107 C   0  0  0  0  0  0  0  0  0  0  0  0
    7.1416  -12.6639   24.5362 C   0  0  0  0  0  0  0  0  0  0  0  0
    6.5785  -12.1499   25.7024 C   0  0  0  0  0  0  0  0  0  0  0  0
    5.9696  -12.9797   26.6134 C   0  0  0  0  0  0  0  0  0  0  0  0
    5.9268  -14.3335   26.3499 C   0  0  0  0  0  0  0  0  0  0  0  0
    6.9440  -18.4639   26.1794 C   0  0  0  0  0  0  0  0  0  0  0  0
    7.3763  -19.3957   25.4658 O   0  0  0  0  0  0  0  0  0  0  0  0
    6.0920  -18.7708   27.2212 O   0  0  0  0  0  0  0  0  0  0  0  0
  2  3  1  0
  2  1  1  6
  4  3  1  0
  5  4  1  0
  6  5  1  0
  7  6  1  0
  8  2  1  0
  9  8  2  0
 10 11  1  0
 11 12  2  0
 11 21  1  0
 12 13  1  0
 13 14  2  0
 14 15  1  0
 16 15  1  1
 16 17  1  0
 17  8  1  0
 18 16  1  0
 18 22  1  0
 19 18  2  0
 20 14  1  0
 21 20  2  0
 23 22  1  0
 23 31  1  0
 23 24  1  6
 24 25  1  0
 25 30  1  0
 25 26  2  0
 26 27  1  0
 27 28  2  0
 29 28  1  0
 30 29  2  0
 31 33  1  0
 32 31  2  0
M  END
$$$$
