KYF.pdb
     RDKit          3D

 33 34  0  0  1  0  0  0  0  0999 V2000
    7.5687  -18.4544   21.0756 N   0  0  0  0  0  0  0  0  0  0  0  0
    9.0113  -18.2597   20.8352 C   0  0  1  0  0  0  0  0  0  0  0  0
    9.1720  -18.1339   19.3518 C   0  0  0  0  0  0  0  0  0  0  0  0
    7.9093  -18.4739   18.6327 C   0  0  0  0  0  0  0  0  0  0  0  0
    8.1417  -18.4402   17.1512 C   0  0  0  0  0  0  0  0  0  0  0  0
    7.0818  -17.6285   16.4611 C   0  0  0  0  0  0  0  0  0  0  0  0
    7.3911  -17.6953   15.0298 N   0  0  0  0  0  0  0  0  0  0  0  0
    9.4720  -17.0297   21.4992 C   0  0  0  0  0  0  0  0  0  0  0  0
   10.6816  -16.7121   21.4289 O   0  0  0  0  0  0  0  0  0  0  0  0
    8.1256  -13.3810   16.6126 O   0  0  0  0  0  0  0  0  0  0  0  0
    8.1029  -13.4900   17.9907 C   0  0  0  0  0  0  0  0  0  0  0  0
    9.2367  -13.2217   18.7112 C   0  0  0  0  0  0  0  0  0  0  0  0
    9.2708  -13.3134   20.0746 C   0  0  0  0  0  0  0  0  0  0  0  0
    8.1342  -13.6893   20.7924 C   0  0  0  0  0  0  0  0  0  0  0  0
    8.2052  -13.7881   22.2510 C   0  0  0  0  0  0  0  0  0  0  0  0
    9.0989  -14.9166   22.7498 C   0  0  2  0  0  0  0  0  0  0  0  0
    8.5981  -16.1709   22.2279 N   0  0  0  0  0  0  0  0  0  0  0  0
    9.0709  -14.9598   24.2268 C   0  0  0  0  0  0  0  0  0  0  0  0
    8.6586  -14.0226   24.9494 O   0  0  0  0  0  0  0  0  0  0  0  0
    6.9918  -13.9594   20.0594 C   0  0  0  0  0  0  0  0  0  0  0  0
    6.9728  -13.8628   18.6879 C   0  0  0  0  0  0  0  0  0  0  0  0
    9.5363  -16.1282   24.8842 N   0  0  0  0  0  0  0  0  0  0  0  0
    9.4191  -16.2313   26.3429 C   0  0  1  0  0  0  0  0  0  0  0  0
    7.9333  -16.1584   26.6411 C   0  0  0  0  0  0  0  0  0  0  0  0
    7.4807  -14.7549   26.7098 C   0  0  0  0  0  0  0  0  0  0  0  0
    6.3185  -14.3412   26.1064 C   0  0  0  0  0  0  0  0  0  0  0  0
    5.8987  -13.0091   26.1836 C   0  0  0  0  0  0  0  0  0  0  0  0
    6.6856  -12.1007   26.8885 C   0  0  0  0  0  0  0  0  0  0  0  0
    7.8507  -12.5040   27.4960 C   0  0  0  0  0  0  0  0  0  0  0  0
    8.2262  -13.8279   27.3940 C   0  0  0  0  0  0  0  0  0  0  0  0
   10.0420  -17.4988   26.7541 C   0  0  0  0  0  0  0  0  0  0  0  0
   10.3711  -18.3368   25.8858 O   0  0  0  0  0  0  0  0  0  0  0  0
   10.2774  -17.7962   28.0813 O   0  0  0  0  0  0  0  0  0  0  0  0
  2  3  1  0
  2  1  1  6
  4  3  1  0
  5  4  1  0
  6  5  1  0
  7  6  1  0
  8  2  1  0
  9  8  2  0
 10 11  1  0
 11 12  2  0
 11 21  1  0
 12 13  1  0
 13 14  2  0
 14 15  1  0
 16 15  1  6
 16 17  1  0
 17  8  1  0
 18 16  1  0
 18 22  1  0
 19 18  2  0
 20 14  1  0
 21 20  2  0
 23 22  1  0
 23 31  1  0
 23 24  1  6
 24 25  1  0
 25 30  1  0
 25 26  2  0
 26 27  1  0
 27 28  2  0
 29 28  1  0
 30 29  2  0
 31 33  1  0
 32 31  2  0
M  END
$$$$
