KYF.pdb
     RDKit          3D

 33 34  0  0  1  0  0  0  0  0999 V2000
    7.0620  -17.9670   20.5330 N   0  0  0  0  0  0  0  0  0  0  0  0
    8.5114  -18.1279   20.3093 C   0  0  1  0  0  0  0  0  0  0  0  0
    8.7364  -17.8812   18.8496 C   0  0  0  0  0  0  0  0  0  0  0  0
    7.6384  -18.4591   18.0203 C   0  0  0  0  0  0  0  0  0  0  0  0
    8.0735  -18.5450   16.5873 C   0  0  0  0  0  0  0  0  0  0  0  0
    6.9534  -19.0400   15.7163 C   0  0  0  0  0  0  0  0  0  0  0  0
    7.5111  -19.1481   14.3650 N   0  0  0  0  0  0  0  0  0  0  0  0
    9.2579  -17.1432   21.1089 C   0  0  0  0  0  0  0  0  0  0  0  0
   10.5093  -17.1354   21.0580 O   0  0  0  0  0  0  0  0  0  0  0  0
    7.8729  -12.8732   16.9433 O   0  0  0  0  0  0  0  0  0  0  0  0
    8.0795  -13.1066   18.2903 C   0  0  0  0  0  0  0  0  0  0  0  0
    9.3576  -13.1963   18.7750 C   0  0  0  0  0  0  0  0  0  0  0  0
    9.6198  -13.4255   20.0968 C   0  0  0  0  0  0  0  0  0  0  0  0
    8.5787  -13.5786   21.0140 C   0  0  0  0  0  0  0  0  0  0  0  0
    8.8917  -13.8329   22.4209 C   0  0  0  0  0  0  0  0  0  0  0  0
    9.4209  -15.2358   22.6910 C   0  0  2  0  0  0  0  0  0  0  0  0
    8.6183  -16.1857   21.9492 N   0  0  0  0  0  0  0  0  0  0  0  0
    9.3201  -15.5380   24.1342 C   0  0  0  0  0  0  0  0  0  0  0  0
   10.1106  -15.0973   25.0012 O   0  0  0  0  0  0  0  0  0  0  0  0
    7.2896  -13.4872   20.5186 C   0  0  0  0  0  0  0  0  0  0  0  0
    7.0415  -13.2561   19.1861 C   0  0  0  0  0  0  0  0  0  0  0  0
    8.2684  -16.3781   24.5837 N   0  0  0  0  0  0  0  0  0  0  0  0
    8.2101  -16.7693   25.9963 C   0  0  1  0  0  0  0  0  0  0  0  0
    6.9120  -16.1921   26.5286 C   0  0  0  0  0  0  0  0  0  0  0  0
    7.0223  -14.7308   26.7071 C   0  0  0  0  0  0  0  0  0  0  0  0
    6.1970  -13.8582   26.0414 C   0  0  0  0  0  0  0  0  0  0  0  0
    6.3091  -12.4759   26.2237 C   0  0  0  0  0  0  0  0  0  0  0  0
    7.2801  -11.9943   27.0992 C   0  0  0  0  0  0  0  0  0  0  0  0
    8.1115  -12.8588   27.7706 C   0  0  0  0  0  0  0  0  0  0  0  0
    7.9653  -14.2147   27.5602 C   0  0  0  0  0  0  0  0  0  0  0  0
    8.2719  -18.2377   26.0576 C   0  0  0  0  0  0  0  0  0  0  0  0
    8.1690  -18.8157   27.1621 O   0  0  0  0  0  0  0  0  0  0  0  0
    8.4417  -19.0062   24.9236 O   0  0  0  0  0  0  0  0  0  0  0  0
  2  3  1  0
  2  1  1  6
  4  3  1  0
  5  4  1  0
  6  5  1  0
  7  6  1  0
  8  2  1  0
  9  8  2  0
 10 11  1  0
 11 12  2  0
 11 21  1  0
 12 13  1  0
 13 14  2  0
 14 15  1  0
 16 15  1  1
 16 17  1  0
 17  8  1  0
 18 16  1  0
 18 22  1  0
 19 18  2  0
 20 14  1  0
 21 20  2  0
 23 22  1  0
 23 31  1  0
 23 24  1  6
 24 25  1  0
 25 30  1  0
 25 26  2  0
 26 27  1  0
 27 28  2  0
 29 28  1  0
 30 29  2  0
 31 33  1  0
 32 31  2  0
M  END
$$$$
