KYF.pdb
     RDKit          3D

 33 34  0  0  1  0  0  0  0  0999 V2000
    9.0849  -18.4653   19.2867 N   0  0  0  0  0  0  0  0  0  0  0  0
    8.1132  -18.0444   20.3139 C   0  0  1  0  0  0  0  0  0  0  0  0
    7.8308  -19.2599   21.1415 C   0  0  0  0  0  0  0  0  0  0  0  0
    7.5555  -20.4526   20.2877 C   0  0  0  0  0  0  0  0  0  0  0  0
    7.1895  -21.6236   21.1509 C   0  0  0  0  0  0  0  0  0  0  0  0
    6.7899  -22.8039   20.3109 C   0  0  0  0  0  0  0  0  0  0  0  0
    6.4395  -23.8698   21.2543 N   0  0  0  0  0  0  0  0  0  0  0  0
    8.6943  -16.9850   21.1543 C   0  0  0  0  0  0  0  0  0  0  0  0
    9.9328  -16.9611   21.3401 O   0  0  0  0  0  0  0  0  0  0  0  0
    8.2505  -12.6784   16.6515 O   0  0  0  0  0  0  0  0  0  0  0  0
    8.2501  -12.8901   18.0178 C   0  0  0  0  0  0  0  0  0  0  0  0
    7.1632  -13.4732   18.6137 C   0  0  0  0  0  0  0  0  0  0  0  0
    7.1092  -13.7061   19.9595 C   0  0  0  0  0  0  0  0  0  0  0  0
    8.1761  -13.3527   20.7875 C   0  0  0  0  0  0  0  0  0  0  0  0
    8.0840  -13.6059   22.2261 C   0  0  0  0  0  0  0  0  0  0  0  0
    8.5439  -14.9988   22.6377 C   0  0  2  0  0  0  0  0  0  0  0  0
    7.9068  -15.9720   21.7753 N   0  0  0  0  0  0  0  0  0  0  0  0
    8.1511  -15.2606   24.0382 C   0  0  0  0  0  0  0  0  0  0  0  0
    7.3042  -14.5851   24.6683 O   0  0  0  0  0  0  0  0  0  0  0  0
    9.2714  -12.7637   20.1801 C   0  0  0  0  0  0  0  0  0  0  0  0
    9.3111  -12.5359   18.8247 C   0  0  0  0  0  0  0  0  0  0  0  0
    8.7611  -16.3407   24.7275 N   0  0  0  0  0  0  0  0  0  0  0  0
    9.1113  -16.1880   26.1438 C   0  0  1  0  0  0  0  0  0  0  0  0
    7.7913  -16.0672   26.8819 C   0  0  0  0  0  0  0  0  0  0  0  0
    7.3397  -14.6622   26.9219 C   0  0  0  0  0  0  0  0  0  0  0  0
    8.1373  -13.6619   27.4210 C   0  0  0  0  0  0  0  0  0  0  0  0
    7.6987  -12.3338   27.4483 C   0  0  0  0  0  0  0  0  0  0  0  0
    6.4286  -12.0397   26.9569 C   0  0  0  0  0  0  0  0  0  0  0  0
    5.6220  -13.0332   26.4552 C   0  0  0  0  0  0  0  0  0  0  0  0
    6.0956  -14.3293   26.4479 C   0  0  0  0  0  0  0  0  0  0  0  0
    9.9030  -17.3630   26.5391 C   0  0  0  0  0  0  0  0  0  0  0  0
   10.3135  -17.4649   27.7162 O   0  0  0  0  0  0  0  0  0  0  0  0
   10.2106  -18.3672   25.6434 O   0  0  0  0  0  0  0  0  0  0  0  0
  2  3  1  0
  2  1  1  6
  4  3  1  0
  5  4  1  0
  6  5  1  0
  7  6  1  0
  8  2  1  0
  9  8  2  0
 10 11  1  0
 11 12  2  0
 11 21  1  0
 12 13  1  0
 13 14  2  0
 14 15  1  0
 16 15  1  6
 16 17  1  0
 17  8  1  0
 18 16  1  0
 18 22  1  0
 19 18  2  0
 20 14  1  0
 21 20  2  0
 23 22  1  0
 23 31  1  0
 23 24  1  1
 24 25  1  0
 25 30  1  0
 25 26  2  0
 26 27  1  0
 27 28  2  0
 29 28  1  0
 30 29  2  0
 31 33  1  0
 32 31  2  0
M  END
$$$$
