KYF.pdb
     RDKit          3D

 33 34  0  0  1  0  0  0  0  0999 V2000
   10.3307  -17.7239   18.6416 N   0  0  0  0  0  0  0  0  0  0  0  0
    9.0672  -17.0739   19.0386 C   0  0  1  0  0  0  0  0  0  0  0  0
    7.9726  -17.8606   18.3867 C   0  0  0  0  0  0  0  0  0  0  0  0
    8.2935  -18.1706   16.9626 C   0  0  0  0  0  0  0  0  0  0  0  0
    7.0965  -18.7753   16.2905 C   0  0  0  0  0  0  0  0  0  0  0  0
    7.4167  -19.1640   14.8747 C   0  0  0  0  0  0  0  0  0  0  0  0
    6.1639  -19.6639   14.3007 N   0  0  0  0  0  0  0  0  0  0  0  0
    8.9164  -17.1154   20.5021 C   0  0  0  0  0  0  0  0  0  0  0  0
    7.8807  -16.6431   21.0245 O   0  0  0  0  0  0  0  0  0  0  0  0
   10.2933  -24.1894   21.9478 O   0  0  0  0  0  0  0  0  0  0  0  0
   10.3618  -22.8635   22.3337 C   0  0  0  0  0  0  0  0  0  0  0  0
   11.0741  -21.9722   21.5756 C   0  0  0  0  0  0  0  0  0  0  0  0
   11.1751  -20.6507   21.9098 C   0  0  0  0  0  0  0  0  0  0  0  0
   10.5465  -20.1545   23.0532 C   0  0  0  0  0  0  0  0  0  0  0  0
   10.6817  -18.7366   23.3897 C   0  0  0  0  0  0  0  0  0  0  0  0
    9.6073  -17.8509   22.7714 C   0  0  2  0  0  0  0  0  0  0  0  0
    9.9039  -17.6740   21.3652 N   0  0  0  0  0  0  0  0  0  0  0  0
    9.6047  -16.5311   23.4366 C   0  0  0  0  0  0  0  0  0  0  0  0
   10.3844  -15.5949   23.1432 O   0  0  0  0  0  0  0  0  0  0  0  0
    9.8286  -21.0595   23.8154 C   0  0  0  0  0  0  0  0  0  0  0  0
    9.7359  -22.3861   23.4662 C   0  0  0  0  0  0  0  0  0  0  0  0
    8.6670  -16.2920   24.4747 N   0  0  0  0  0  0  0  0  0  0  0  0
    8.6756  -15.0017   25.1725 C   0  0  1  0  0  0  0  0  0  0  0  0
    7.4983  -14.2251   24.6133 C   0  0  0  0  0  0  0  0  0  0  0  0
    7.2496  -13.0060   25.4078 C   0  0  0  0  0  0  0  0  0  0  0  0
    6.2186  -12.9317   26.3119 C   0  0  0  0  0  0  0  0  0  0  0  0
    5.9973  -11.7719   27.0620 C   0  0  0  0  0  0  0  0  0  0  0  0
    6.8469  -10.6835   26.8753 C   0  0  0  0  0  0  0  0  0  0  0  0
    7.8818  -10.7470   25.9729 C   0  0  0  0  0  0  0  0  0  0  0  0
    8.0629  -11.9113   25.2547 C   0  0  0  0  0  0  0  0  0  0  0  0
    8.5729  -15.2715   26.6149 C   0  0  0  0  0  0  0  0  0  0  0  0
    7.9206  -16.2612   27.0142 O   0  0  0  0  0  0  0  0  0  0  0  0
    9.1797  -14.4591   27.5515 O   0  0  0  0  0  0  0  0  0  0  0  0
  2  3  1  0
  2  1  1  1
  4  3  1  0
  5  4  1  0
  6  5  1  0
  7  6  1  0
  8  2  1  0
  9  8  2  0
 10 11  1  0
 11 12  2  0
 11 21  1  0
 12 13  1  0
 13 14  2  0
 14 15  1  0
 16 15  1  1
 16 17  1  0
 17  8  1  0
 18 16  1  0
 18 22  1  0
 19 18  2  0
 20 14  1  0
 21 20  2  0
 23 22  1  0
 23 31  1  0
 23 24  1  6
 24 25  1  0
 25 30  1  0
 25 26  2  0
 26 27  1  0
 27 28  2  0
 29 28  1  0
 30 29  2  0
 31 33  1  0
 32 31  2  0
M  END
$$$$
