KYF.pdb
     RDKit          3D

 33 34  0  0  1  0  0  0  0  0999 V2000
    7.2856  -17.3769   19.7961 N   0  0  0  0  0  0  0  0  0  0  0  0
    8.7064  -17.2093   20.1565 C   0  0  1  0  0  0  0  0  0  0  0  0
    9.0772  -15.8172   19.7480 C   0  0  0  0  0  0  0  0  0  0  0  0
    8.2070  -15.3202   18.6421 C   0  0  0  0  0  0  0  0  0  0  0  0
    8.6886  -13.9771   18.1792 C   0  0  0  0  0  0  0  0  0  0  0  0
    7.9133  -13.5152   16.9776 C   0  0  0  0  0  0  0  0  0  0  0  0
    8.5318  -12.2537   16.5594 N   0  0  0  0  0  0  0  0  0  0  0  0
    8.8815  -17.3730   21.6086 C   0  0  0  0  0  0  0  0  0  0  0  0
    7.9178  -17.1345   22.3723 O   0  0  0  0  0  0  0  0  0  0  0  0
    9.8081  -22.7324   28.0767 O   0  0  0  0  0  0  0  0  0  0  0  0
   10.0982  -21.8488   27.0536 C   0  0  0  0  0  0  0  0  0  0  0  0
   11.1974  -22.0618   26.2644 C   0  0  0  0  0  0  0  0  0  0  0  0
   11.5311  -21.2211   25.2396 C   0  0  0  0  0  0  0  0  0  0  0  0
   10.7517  -20.0982   24.9563 C   0  0  0  0  0  0  0  0  0  0  0  0
   11.1408  -19.2115   23.8587 C   0  0  0  0  0  0  0  0  0  0  0  0
   10.1672  -18.0647   23.6178 C   0  0  2  0  0  0  0  0  0  0  0  0
   10.1097  -17.7953   22.1963 N   0  0  0  0  0  0  0  0  0  0  0  0
   10.6379  -16.8540   24.3226 C   0  0  0  0  0  0  0  0  0  0  0  0
   11.3627  -15.9746   23.8012 O   0  0  0  0  0  0  0  0  0  0  0  0
    9.6426  -19.8878   25.7569 C   0  0  0  0  0  0  0  0  0  0  0  0
    9.3196  -20.7426   26.7843 C   0  0  0  0  0  0  0  0  0  0  0  0
   10.2543  -16.6592   25.6750 N   0  0  0  0  0  0  0  0  0  0  0  0
   10.8605  -15.5696   26.4478 C   0  0  1  0  0  0  0  0  0  0  0  0
   10.2598  -14.2909   25.8948 C   0  0  0  0  0  0  0  0  0  0  0  0
    8.9105  -14.0632   26.4488 C   0  0  0  0  0  0  0  0  0  0  0  0
    7.8483  -14.8671   26.1151 C   0  0  0  0  0  0  0  0  0  0  0  0
    6.5760  -14.6430   26.6515 C   0  0  0  0  0  0  0  0  0  0  0  0
    6.4020  -13.5818   27.5373 C   0  0  0  0  0  0  0  0  0  0  0  0
    7.4583  -12.7709   27.8780 C   0  0  0  0  0  0  0  0  0  0  0  0
    8.6958  -13.0289   27.3249 C   0  0  0  0  0  0  0  0  0  0  0  0
   10.5516  -15.8010   27.8672 C   0  0  0  0  0  0  0  0  0  0  0  0
   10.9416  -14.9805   28.7270 O   0  0  0  0  0  0  0  0  0  0  0  0
    9.8376  -16.9060   28.2851 O   0  0  0  0  0  0  0  0  0  0  0  0
  2  3  1  0
  2  1  1  1
  4  3  1  0
  5  4  1  0
  6  5  1  0
  7  6  1  0
  8  2  1  0
  9  8  2  0
 10 11  1  0
 11 12  2  0
 11 21  1  0
 12 13  1  0
 13 14  2  0
 14 15  1  0
 16 15  1  6
 16 17  1  0
 17  8  1  0
 18 16  1  0
 18 22  1  0
 19 18  2  0
 20 14  1  0
 21 20  2  0
 23 22  1  0
 23 31  1  0
 23 24  1  6
 24 25  1  0
 25 30  1  0
 25 26  2  0
 26 27  1  0
 27 28  2  0
 29 28  1  0
 30 29  2  0
 31 33  1  0
 32 31  2  0
M  END
$$$$
