KYF.pdb
     RDKit          3D

 33 34  0  0  1  0  0  0  0  0999 V2000
    7.4127  -19.8719   22.4736 N   0  0  0  0  0  0  0  0  0  0  0  0
    8.8062  -19.7517   22.0043 C   0  0  1  0  0  0  0  0  0  0  0  0
    8.7963  -20.1608   20.5640 C   0  0  0  0  0  0  0  0  0  0  0  0
    8.0358  -21.4284   20.3593 C   0  0  0  0  0  0  0  0  0  0  0  0
    8.1192  -21.8460   18.9209 C   0  0  0  0  0  0  0  0  0  0  0  0
    8.0343  -23.3408   18.7915 C   0  0  0  0  0  0  0  0  0  0  0  0
    8.2109  -23.6327   17.3659 N   0  0  0  0  0  0  0  0  0  0  0  0
    9.2628  -18.3582   22.1305 C   0  0  0  0  0  0  0  0  0  0  0  0
   10.4071  -18.0497   21.7253 O   0  0  0  0  0  0  0  0  0  0  0  0
    7.7859  -12.4521   17.4413 O   0  0  0  0  0  0  0  0  0  0  0  0
    7.7552  -13.1160   18.6537 C   0  0  0  0  0  0  0  0  0  0  0  0
    8.2692  -12.5124   19.7709 C   0  0  0  0  0  0  0  0  0  0  0  0
    8.2649  -13.1221   20.9943 C   0  0  0  0  0  0  0  0  0  0  0  0
    7.7284  -14.4012   21.1513 C   0  0  0  0  0  0  0  0  0  0  0  0
    7.7476  -15.0315   22.4721 C   0  0  0  0  0  0  0  0  0  0  0  0
    8.9333  -15.9620   22.6941 C   0  0  2  0  0  0  0  0  0  0  0  0
    8.4562  -17.3291   22.6985 N   0  0  0  0  0  0  0  0  0  0  0  0
    9.5645  -15.6641   23.9968 C   0  0  0  0  0  0  0  0  0  0  0  0
   10.6453  -15.0436   24.1283 O   0  0  0  0  0  0  0  0  0  0  0  0
    7.2109  -15.0063   20.0193 C   0  0  0  0  0  0  0  0  0  0  0  0
    7.2222  -14.3801   18.7952 C   0  0  0  0  0  0  0  0  0  0  0  0
    8.9196  -16.1007   25.1833 N   0  0  0  0  0  0  0  0  0  0  0  0
    9.6052  -15.9579   26.4723 C   0  0  1  0  0  0  0  0  0  0  0  0
    8.5362  -15.5302   27.4602 C   0  0  0  0  0  0  0  0  0  0  0  0
    8.0615  -14.1648   27.1605 C   0  0  0  0  0  0  0  0  0  0  0  0
    8.8259  -13.0581   27.4378 C   0  0  0  0  0  0  0  0  0  0  0  0
    8.3659  -11.7701   27.1440 C   0  0  0  0  0  0  0  0  0  0  0  0
    7.1088  -11.6268   26.5605 C   0  0  0  0  0  0  0  0  0  0  0  0
    6.3354  -12.7277   26.2789 C   0  0  0  0  0  0  0  0  0  0  0  0
    6.8292  -13.9792   26.5858 C   0  0  0  0  0  0  0  0  0  0  0  0
   10.2243  -17.2522   26.7965 C   0  0  0  0  0  0  0  0  0  0  0  0
   11.4259  -17.2942   27.1413 O   0  0  0  0  0  0  0  0  0  0  0  0
    9.5145  -18.4343   26.7317 O   0  0  0  0  0  0  0  0  0  0  0  0
  2  3  1  0
  2  1  1  6
  4  3  1  0
  5  4  1  0
  6  5  1  0
  7  6  1  0
  8  2  1  0
  9  8  2  0
 10 11  1  0
 11 12  2  0
 11 21  1  0
 12 13  1  0
 13 14  2  0
 14 15  1  0
 16 15  1  1
 16 17  1  0
 17  8  1  0
 18 16  1  0
 18 22  1  0
 19 18  2  0
 20 14  1  0
 21 20  2  0
 23 22  1  0
 23 31  1  0
 23 24  1  1
 24 25  1  0
 25 30  1  0
 25 26  2  0
 26 27  1  0
 27 28  2  0
 29 28  1  0
 30 29  2  0
 31 33  1  0
 32 31  2  0
M  END
$$$$
