KYF.pdb
     RDKit          3D

 33 34  0  0  1  0  0  0  0  0999 V2000
    9.0537  -18.8648   19.6632 N   0  0  0  0  0  0  0  0  0  0  0  0
    8.2693  -18.4639   20.8467 C   0  0  1  0  0  0  0  0  0  0  0  0
    8.4368  -19.5643   21.8482 C   0  0  0  0  0  0  0  0  0  0  0  0
    7.9415  -20.8684   21.3179 C   0  0  0  0  0  0  0  0  0  0  0  0
    8.0382  -21.9210   22.3823 C   0  0  0  0  0  0  0  0  0  0  0  0
    7.6574  -23.2691   21.8383 C   0  0  0  0  0  0  0  0  0  0  0  0
    7.8241  -24.2131   22.9474 N   0  0  0  0  0  0  0  0  0  0  0  0
    8.7900  -17.2003   21.3929 C   0  0  0  0  0  0  0  0  0  0  0  0
    9.9971  -16.9116   21.2243 O   0  0  0  0  0  0  0  0  0  0  0  0
    7.6422  -13.1530   16.5363 O   0  0  0  0  0  0  0  0  0  0  0  0
    7.6191  -13.3565   17.9037 C   0  0  0  0  0  0  0  0  0  0  0  0
    8.5147  -12.6967   18.7030 C   0  0  0  0  0  0  0  0  0  0  0  0
    8.5366  -12.8600   20.0600 C   0  0  0  0  0  0  0  0  0  0  0  0
    7.6331  -13.7181   20.6893 C   0  0  0  0  0  0  0  0  0  0  0  0
    7.6881  -13.8794   22.1429 C   0  0  0  0  0  0  0  0  0  0  0  0
    8.5576  -15.0432   22.6017 C   0  0  2  0  0  0  0  0  0  0  0  0
    7.9776  -16.2769   22.1136 N   0  0  0  0  0  0  0  0  0  0  0  0
    8.6041  -15.0798   24.0784 C   0  0  0  0  0  0  0  0  0  0  0  0
    8.5337  -14.0639   24.8090 O   0  0  0  0  0  0  0  0  0  0  0  0
    6.7307  -14.3822   19.8768 C   0  0  0  0  0  0  0  0  0  0  0  0
    6.7209  -14.2075   18.5130 C   0  0  0  0  0  0  0  0  0  0  0  0
    8.7363  -16.3356   24.7261 N   0  0  0  0  0  0  0  0  0  0  0  0
    8.6989  -16.4001   26.1912 C   0  0  1  0  0  0  0  0  0  0  0  0
    7.3202  -15.9071   26.5884 C   0  0  0  0  0  0  0  0  0  0  0  0
    7.2973  -14.4340   26.6831 C   0  0  0  0  0  0  0  0  0  0  0  0
    6.1939  -13.7043   26.3144 C   0  0  0  0  0  0  0  0  0  0  0  0
    6.1841  -12.3090   26.4139 C   0  0  0  0  0  0  0  0  0  0  0  0
    7.3216  -11.6658   26.8973 C   0  0  0  0  0  0  0  0  0  0  0  0
    8.4315  -12.3865   27.2690 C   0  0  0  0  0  0  0  0  0  0  0  0
    8.3969  -13.7611   27.1539 C   0  0  0  0  0  0  0  0  0  0  0  0
    8.9641  -17.7922   26.5855 C   0  0  0  0  0  0  0  0  0  0  0  0
    9.0095  -18.0936   27.7986 O   0  0  0  0  0  0  0  0  0  0  0  0
    9.1665  -18.7868   25.6501 O   0  0  0  0  0  0  0  0  0  0  0  0
  2  3  1  0
  2  1  1  6
  4  3  1  0
  5  4  1  0
  6  5  1  0
  7  6  1  0
  8  2  1  0
  9  8  2  0
 10 11  1  0
 11 12  2  0
 11 21  1  0
 12 13  1  0
 13 14  2  0
 14 15  1  0
 16 15  1  1
 16 17  1  0
 17  8  1  0
 18 16  1  0
 18 22  1  0
 19 18  2  0
 20 14  1  0
 21 20  2  0
 23 22  1  0
 23 31  1  0
 23 24  1  6
 24 25  1  0
 25 30  1  0
 25 26  2  0
 26 27  1  0
 27 28  2  0
 29 28  1  0
 30 29  2  0
 31 33  1  0
 32 31  2  0
M  END
$$$$
