KYF.pdb
     RDKit          3D

 33 34  0  0  1  0  0  0  0  0999 V2000
    7.0920  -18.6203   21.2069 N   0  0  0  0  0  0  0  0  0  0  0  0
    8.3733  -18.9162   20.5382 C   0  0  1  0  0  0  0  0  0  0  0  0
    8.0787  -18.9459   19.0704 C   0  0  0  0  0  0  0  0  0  0  0  0
    6.8122  -19.6800   18.7801 C   0  0  0  0  0  0  0  0  0  0  0  0
    6.9268  -20.3939   17.4658 C   0  0  0  0  0  0  0  0  0  0  0  0
    5.6585  -21.1338   17.1460 C   0  0  0  0  0  0  0  0  0  0  0  0
    5.2398  -20.6626   15.8226 N   0  0  0  0  0  0  0  0  0  0  0  0
    9.3536  -17.8594   20.8353 C   0  0  0  0  0  0  0  0  0  0  0  0
   10.5000  -17.9295   20.3358 O   0  0  0  0  0  0  0  0  0  0  0  0
    7.6231  -13.5108   16.3073 O   0  0  0  0  0  0  0  0  0  0  0  0
    7.9989  -13.7102   17.6229 C   0  0  0  0  0  0  0  0  0  0  0  0
    9.3227  -13.8777   17.9323 C   0  0  0  0  0  0  0  0  0  0  0  0
    9.7502  -14.0780   19.2152 C   0  0  0  0  0  0  0  0  0  0  0  0
    8.8390  -14.1195   20.2719 C   0  0  0  0  0  0  0  0  0  0  0  0
    9.3267  -14.3456   21.6331 C   0  0  0  0  0  0  0  0  0  0  0  0
   10.0314  -15.6831   21.8215 C   0  0  2  0  0  0  0  0  0  0  0  0
    9.0585  -16.7454   21.6745 N   0  0  0  0  0  0  0  0  0  0  0  0
   10.6221  -15.7499   23.1746 C   0  0  0  0  0  0  0  0  0  0  0  0
   11.7096  -15.2149   23.4937 O   0  0  0  0  0  0  0  0  0  0  0  0
    7.5028  -13.9500   19.9533 C   0  0  0  0  0  0  0  0  0  0  0  0
    7.0880  -13.7493   18.6578 C   0  0  0  0  0  0  0  0  0  0  0  0
    9.9276  -16.4602   24.1880 N   0  0  0  0  0  0  0  0  0  0  0  0
    9.4278  -15.7380   25.3631 C   0  0  1  0  0  0  0  0  0  0  0  0
    8.5202  -14.6501   24.8204 C   0  0  0  0  0  0  0  0  0  0  0  0
    8.0022  -13.8054   25.9147 C   0  0  0  0  0  0  0  0  0  0  0  0
    6.6641  -13.5209   26.0351 C   0  0  0  0  0  0  0  0  0  0  0  0
    6.1861  -12.7231   27.0800 C   0  0  0  0  0  0  0  0  0  0  0  0
    7.0973  -12.2171   28.0047 C   0  0  0  0  0  0  0  0  0  0  0  0
    8.4388  -12.4956   27.8935 C   0  0  0  0  0  0  0  0  0  0  0  0
    8.8657  -13.2870   26.8469 C   0  0  0  0  0  0  0  0  0  0  0  0
    8.7357  -16.7085   26.2248 C   0  0  0  0  0  0  0  0  0  0  0  0
    8.8490  -16.6235   27.4676 O   0  0  0  0  0  0  0  0  0  0  0  0
    7.9571  -17.7206   25.7006 O   0  0  0  0  0  0  0  0  0  0  0  0
  2  3  1  0
  2  1  1  1
  4  3  1  0
  5  4  1  0
  6  5  1  0
  7  6  1  0
  8  2  1  0
  9  8  2  0
 10 11  1  0
 11 12  2  0
 11 21  1  0
 12 13  1  0
 13 14  2  0
 14 15  1  0
 16 15  1  1
 16 17  1  0
 17  8  1  0
 18 16  1  0
 18 22  1  0
 19 18  2  0
 20 14  1  0
 21 20  2  0
 23 22  1  0
 23 31  1  0
 23 24  1  6
 24 25  1  0
 25 30  1  0
 25 26  2  0
 26 27  1  0
 27 28  2  0
 29 28  1  0
 30 29  2  0
 31 33  1  0
 32 31  2  0
M  END
$$$$
