KYF.pdb
     RDKit          3D

 33 34  0  0  1  0  0  0  0  0999 V2000
    6.7406  -17.8521   17.3631 N   0  0  0  0  0  0  0  0  0  0  0  0
    7.8773  -17.3776   18.1753 C   0  0  1  0  0  0  0  0  0  0  0  0
    7.9478  -15.8966   17.9660 C   0  0  0  0  0  0  0  0  0  0  0  0
    7.5134  -15.5161   16.5899 C   0  0  0  0  0  0  0  0  0  0  0  0
    8.7143  -15.2380   15.7351 C   0  0  0  0  0  0  0  0  0  0  0  0
    8.3041  -14.8940   14.3309 C   0  0  0  0  0  0  0  0  0  0  0  0
    9.5496  -14.6828   13.5874 N   0  0  0  0  0  0  0  0  0  0  0  0
    7.6410  -17.6761   19.5970 C   0  0  0  0  0  0  0  0  0  0  0  0
    6.4947  -17.5129   20.0747 O   0  0  0  0  0  0  0  0  0  0  0  0
    8.6678  -20.6777   27.8658 O   0  0  0  0  0  0  0  0  0  0  0  0
    8.7611  -20.4228   26.5101 C   0  0  0  0  0  0  0  0  0  0  0  0
    9.9019  -19.8590   26.0028 C   0  0  0  0  0  0  0  0  0  0  0  0
   10.0483  -19.5856   24.6715 C   0  0  0  0  0  0  0  0  0  0  0  0
    9.0249  -19.8756   23.7675 C   0  0  0  0  0  0  0  0  0  0  0  0
    9.2079  -19.5619   22.3497 C   0  0  0  0  0  0  0  0  0  0  0  0
    8.3630  -18.3912   21.8632 C   0  0  2  0  0  0  0  0  0  0  0  0
    8.6659  -18.1479   20.4683 N   0  0  0  0  0  0  0  0  0  0  0  0
    8.6868  -17.1816   22.6482 C   0  0  0  0  0  0  0  0  0  0  0  0
    9.7136  -16.4846   22.4735 O   0  0  0  0  0  0  0  0  0  0  0  0
    7.8746  -20.4448   24.2857 C   0  0  0  0  0  0  0  0  0  0  0  0
    7.7421  -20.7141   25.6275 C   0  0  0  0  0  0  0  0  0  0  0  0
    7.7898  -16.7694   23.6678 N   0  0  0  0  0  0  0  0  0  0  0  0
    8.0628  -15.5368   24.4148 C   0  0  1  0  0  0  0  0  0  0  0  0
    6.7176  -14.8577   24.5913 C   0  0  0  0  0  0  0  0  0  0  0  0
    6.8392  -13.6720   25.4624 C   0  0  0  0  0  0  0  0  0  0  0  0
    6.1599  -13.5779   26.6521 C   0  0  0  0  0  0  0  0  0  0  0  0
    6.2882  -12.4507   27.4703 C   0  0  0  0  0  0  0  0  0  0  0  0
    7.1234  -11.4156   27.0552 C   0  0  0  0  0  0  0  0  0  0  0  0
    7.8079  -11.4993   25.8661 C   0  0  0  0  0  0  0  0  0  0  0  0
    7.6514  -12.6300   25.0908 C   0  0  0  0  0  0  0  0  0  0  0  0
    8.7042  -15.9143   25.6836 C   0  0  0  0  0  0  0  0  0  0  0  0
    8.2197  -16.8410   26.3700 O   0  0  0  0  0  0  0  0  0  0  0  0
    9.8352  -15.2721   26.1458 O   0  0  0  0  0  0  0  0  0  0  0  0
  2  3  1  0
  2  1  1  6
  4  3  1  0
  5  4  1  0
  6  5  1  0
  7  6  1  0
  8  2  1  0
  9  8  2  0
 10 11  1  0
 11 12  2  0
 11 21  1  0
 12 13  1  0
 13 14  2  0
 14 15  1  0
 16 15  1  1
 16 17  1  0
 17  8  1  0
 18 16  1  0
 18 22  1  0
 19 18  2  0
 20 14  1  0
 21 20  2  0
 23 22  1  0
 23 31  1  0
 23 24  1  1
 24 25  1  0
 25 30  1  0
 25 26  2  0
 26 27  1  0
 27 28  2  0
 29 28  1  0
 30 29  2  0
 31 33  1  0
 32 31  2  0
M  END
$$$$
