QEN.pdb
     RDKit          3D

 27 26  0  0  1  0  0  0  0  0999 V2000
    9.1692  -12.5681   18.3626 N   0  0  0  0  0  0  0  0  0  0  0  0
    8.1098  -13.3473   17.8093 C   0  0  0  0  0  0  0  0  0  0  0  0
    7.8727  -13.2378   16.5872 O   0  0  0  0  0  0  0  0  0  0  0  0
    7.3026  -14.2685   18.6221 C   0  0  0  0  0  0  0  0  0  0  0  0
    7.5456  -14.3254   20.0660 C   0  0  0  0  0  0  0  0  0  0  0  0
    8.9140  -14.5370   20.5804 C   0  0  2  0  0  0  0  0  0  0  0  0
    9.6386  -15.2666   19.4817 N   0  0  0  0  0  0  0  0  0  0  0  0
    9.0038  -15.3710   21.7763 C   0  0  0  0  0  0  0  0  0  0  0  0
    8.2976  -15.1409   22.8229 O   0  0  0  0  0  0  0  0  0  0  0  0
    9.8781  -16.5234   21.8842 N   0  0  0  0  0  0  0  0  0  0  0  0
    9.9380  -17.2258   23.1101 C   0  0  1  0  0  0  0  0  0  0  0  0
   10.7630  -18.4823   23.0610 C   0  0  0  0  0  0  0  0  0  0  0  0
   10.7788  -19.3095   24.2791 C   0  0  0  0  0  0  0  0  0  0  0  0
   11.6626  -20.4770   24.2764 C   0  0  0  0  0  0  0  0  0  0  0  0
   12.3590  -20.7890   23.3069 O   0  0  0  0  0  0  0  0  0  0  0  0
   10.4627  -16.3987   24.2333 C   0  0  0  0  0  0  0  0  0  0  0  0
   11.4980  -15.7260   24.1240 O   0  0  0  0  0  0  0  0  0  0  0  0
   11.7562  -21.3117   25.4095 O   0  0  0  0  0  0  0  0  0  0  0  0
    9.1225  -12.4857   28.1144 N   0  0  0  0  0  0  0  0  0  0  0  0
    9.4023  -13.8940   28.2032 C   0  0  0  0  0  0  0  0  0  0  0  0
    9.8185  -14.3374   29.2803 O   0  0  0  0  0  0  0  0  0  0  0  0
    9.1642  -14.6806   26.9916 C   0  0  0  0  0  0  0  0  0  0  0  0
   10.2845  -15.6044   26.6061 C   0  0  2  0  0  0  0  0  0  0  0  0
    9.7699  -16.3747   25.4517 N   0  0  0  0  0  0  0  0  0  0  0  0
   10.6631  -16.5652   27.6529 C   0  0  0  0  0  0  0  0  0  0  0  0
   11.7108  -16.4897   28.3221 O   0  0  0  0  0  0  0  0  0  0  0  0
    9.8037  -17.6338   27.9239 O   0  0  0  0  0  0  0  0  0  0  0  0
  2  1  1  0
  3  2  2  0
  4  2  1  0
  5  4  1  0
  5  6  1  0
  6  7  1  6
  6  8  1  0
  8  9  2  0
 10  8  1  0
 10 11  1  0
 11 12  1  6
 12 13  1  0
 13 14  1  0
 14 15  2  0
 14 18  1  0
 16 11  1  0
 16 17  2  0
 19 20  1  0
 20 22  1  0
 20 21  2  0
 23 22  1  1
 23 24  1  0
 24 16  1  0
 25 23  1  0
 25 27  1  0
 26 25  2  0
M  END
$$$$
