QEN.pdb
     RDKit          3D

 27 26  0  0  1  0  0  0  0  0999 V2000
    7.4012  -15.5180   15.9102 N   0  0  0  0  0  0  0  0  0  0  0  0
    7.2722  -14.1025   15.7864 C   0  0  0  0  0  0  0  0  0  0  0  0
    7.2943  -13.6059   14.6397 O   0  0  0  0  0  0  0  0  0  0  0  0
    7.1097  -13.2218   16.9520 C   0  0  0  0  0  0  0  0  0  0  0  0
    6.9766  -13.8315   18.2776 C   0  0  0  0  0  0  0  0  0  0  0  0
    8.0842  -13.7409   19.2507 C   0  0  2  0  0  0  0  0  0  0  0  0
    9.2521  -13.2044   18.4681 N   0  0  0  0  0  0  0  0  0  0  0  0
    8.5074  -15.0145   19.8275 C   0  0  0  0  0  0  0  0  0  0  0  0
    7.6923  -15.7854   20.4508 O   0  0  0  0  0  0  0  0  0  0  0  0
    9.8639  -15.5209   19.7403 N   0  0  0  0  0  0  0  0  0  0  0  0
   10.1513  -16.8039   20.2609 C   0  0  1  0  0  0  0  0  0  0  0  0
   10.4586  -17.8392   19.2142 C   0  0  0  0  0  0  0  0  0  0  0  0
   11.5535  -17.5284   18.2799 C   0  0  0  0  0  0  0  0  0  0  0  0
   11.8334  -18.5150   17.2347 C   0  0  0  0  0  0  0  0  0  0  0  0
   12.3049  -18.2122   16.1354 O   0  0  0  0  0  0  0  0  0  0  0  0
   11.2873  -16.8029   21.2255 C   0  0  0  0  0  0  0  0  0  0  0  0
   12.1819  -17.6598   21.1855 O   0  0  0  0  0  0  0  0  0  0  0  0
   11.5697  -19.8841   17.4476 O   0  0  0  0  0  0  0  0  0  0  0  0
    9.4412  -14.4694   25.0204 N   0  0  0  0  0  0  0  0  0  0  0  0
    8.8138  -15.6404   24.4687 C   0  0  0  0  0  0  0  0  0  0  0  0
    7.6034  -15.7998   24.6671 O   0  0  0  0  0  0  0  0  0  0  0  0
    9.6810  -16.5463   23.7132 C   0  0  0  0  0  0  0  0  0  0  0  0
   11.1213  -16.1259   23.6353 C   0  0  2  0  0  0  0  0  0  0  0  0
   11.3535  -15.8060   22.2089 N   0  0  0  0  0  0  0  0  0  0  0  0
   12.0785  -17.1733   24.0211 C   0  0  0  0  0  0  0  0  0  0  0  0
   13.0669  -16.9785   24.7534 O   0  0  0  0  0  0  0  0  0  0  0  0
   11.8789  -18.4719   23.5439 O   0  0  0  0  0  0  0  0  0  0  0  0
  2  1  1  0
  3  2  2  0
  4  2  1  0
  5  4  1  0
  5  6  1  0
  6  7  1  6
  6  8  1  0
  8  9  2  0
 10  8  1  0
 10 11  1  0
 11 12  1  6
 12 13  1  0
 13 14  1  0
 14 15  2  0
 14 18  1  0
 16 11  1  0
 16 17  2  0
 19 20  1  0
 20 22  1  0
 20 21  2  0
 23 22  1  6
 23 24  1  0
 24 16  1  0
 25 23  1  0
 25 27  1  0
 26 25  2  0
M  END
$$$$
