QEN.pdb
     RDKit          3D

 27 26  0  0  1  0  0  0  0  0999 V2000
    8.9036  -12.2512   19.9269 N   0  0  0  0  0  0  0  0  0  0  0  0
    8.2022  -12.9790   18.9199 C   0  0  0  0  0  0  0  0  0  0  0  0
    8.2051  -12.5268   17.7548 O   0  0  0  0  0  0  0  0  0  0  0  0
    7.4901  -14.2326   19.2065 C   0  0  0  0  0  0  0  0  0  0  0  0
    7.5750  -14.7935   20.5575 C   0  0  0  0  0  0  0  0  0  0  0  0
    6.9400  -16.0917   20.8632 C   0  0  2  0  0  0  0  0  0  0  0  0
    5.5338  -15.9743   20.3405 N   0  0  0  0  0  0  0  0  0  0  0  0
    6.8402  -16.4125   22.2849 C   0  0  0  0  0  0  0  0  0  0  0  0
    6.1168  -15.7234   23.0905 O   0  0  0  0  0  0  0  0  0  0  0  0
    7.5306  -17.5281   22.9036 N   0  0  0  0  0  0  0  0  0  0  0  0
    7.4393  -17.6988   24.3045 C   0  0  1  0  0  0  0  0  0  0  0  0
    7.2821  -19.1289   24.7423 C   0  0  0  0  0  0  0  0  0  0  0  0
    7.1256  -19.3632   26.1877 C   0  0  0  0  0  0  0  0  0  0  0  0
    7.0084  -20.7558   26.6248 C   0  0  0  0  0  0  0  0  0  0  0  0
    7.0768  -21.7111   25.8470 O   0  0  0  0  0  0  0  0  0  0  0  0
    8.6090  -17.1396   25.0395 C   0  0  0  0  0  0  0  0  0  0  0  0
    9.7544  -17.1674   24.5667 O   0  0  0  0  0  0  0  0  0  0  0  0
    6.8083  -21.0689   27.9855 O   0  0  0  0  0  0  0  0  0  0  0  0
    9.5628  -12.8807   29.2078 N   0  0  0  0  0  0  0  0  0  0  0  0
   10.0598  -13.9712   28.4122 C   0  0  0  0  0  0  0  0  0  0  0  0
   11.2771  -14.1903   28.4215 O   0  0  0  0  0  0  0  0  0  0  0  0
    9.0622  -14.7299   27.6554 C   0  0  0  0  0  0  0  0  0  0  0  0
    9.5566  -16.0255   27.0775 C   0  0  2  0  0  0  0  0  0  0  0  0
    8.4158  -16.5628   26.3024 N   0  0  0  0  0  0  0  0  0  0  0  0
    9.9296  -17.0323   28.0821 C   0  0  0  0  0  0  0  0  0  0  0  0
    9.1763  -17.9473   28.4648 O   0  0  0  0  0  0  0  0  0  0  0  0
   11.2051  -16.9707   28.6507 O   0  0  0  0  0  0  0  0  0  0  0  0
  2  1  1  0
  3  2  2  0
  4  2  1  0
  5  4  1  0
  5  6  1  0
  6  7  1  1
  6  8  1  0
  8  9  2  0
 10  8  1  0
 10 11  1  0
 11 12  1  6
 12 13  1  0
 13 14  1  0
 14 15  2  0
 14 18  1  0
 16 11  1  0
 16 17  2  0
 19 20  1  0
 20 22  1  0
 20 21  2  0
 23 22  1  1
 23 24  1  0
 24 16  1  0
 25 23  1  0
 25 27  1  0
 26 25  2  0
M  END
$$$$
