QEN.pdb
     RDKit          3D

 27 26  0  0  1  0  0  0  0  0999 V2000
    6.8040  -12.3731   18.3468 N   0  0  0  0  0  0  0  0  0  0  0  0
    7.5054  -13.4295   17.6928 C   0  0  0  0  0  0  0  0  0  0  0  0
    7.3903  -13.5354   16.4528 O   0  0  0  0  0  0  0  0  0  0  0  0
    8.3538  -14.3818   18.4234 C   0  0  0  0  0  0  0  0  0  0  0  0
    8.3409  -14.3509   19.8883 C   0  0  0  0  0  0  0  0  0  0  0  0
    9.3300  -15.1347   20.6559 C   0  0  2  0  0  0  0  0  0  0  0  0
    9.5324  -16.3971   19.8623 N   0  0  0  0  0  0  0  0  0  0  0  0
    8.8989  -15.5366   21.9924 C   0  0  0  0  0  0  0  0  0  0  0  0
    8.5706  -14.6797   22.8897 O   0  0  0  0  0  0  0  0  0  0  0  0
    8.7941  -16.9196   22.4171 N   0  0  0  0  0  0  0  0  0  0  0  0
    8.3306  -17.2024   23.7229 C   0  0  1  0  0  0  0  0  0  0  0  0
    7.9225  -18.6342   23.9356 C   0  0  0  0  0  0  0  0  0  0  0  0
    7.3522  -18.9694   25.2512 C   0  0  0  0  0  0  0  0  0  0  0  0
    6.8960  -20.3474   25.4445 C   0  0  0  0  0  0  0  0  0  0  0  0
    6.3579  -20.7362   26.4845 O   0  0  0  0  0  0  0  0  0  0  0  0
    9.3237  -16.8660   24.7819 C   0  0  0  0  0  0  0  0  0  0  0  0
   10.5307  -17.1159   24.6518 O   0  0  0  0  0  0  0  0  0  0  0  0
    7.0566  -21.3087   24.4250 O   0  0  0  0  0  0  0  0  0  0  0  0
    9.6487  -12.8988   29.3569 N   0  0  0  0  0  0  0  0  0  0  0  0
   10.1305  -14.1091   28.7466 C   0  0  0  0  0  0  0  0  0  0  0  0
   11.1410  -14.6389   29.2242 O   0  0  0  0  0  0  0  0  0  0  0  0
    9.3672  -14.6064   27.6005 C   0  0  0  0  0  0  0  0  0  0  0  0
    9.8391  -15.9213   27.0480 C   0  0  2  0  0  0  0  0  0  0  0  0
    8.8877  -16.2475   25.9620 N   0  0  0  0  0  0  0  0  0  0  0  0
    9.8115  -17.0284   28.0153 C   0  0  0  0  0  0  0  0  0  0  0  0
    8.8222  -17.7596   28.2096 O   0  0  0  0  0  0  0  0  0  0  0  0
   10.9594  -17.2873   28.7699 O   0  0  0  0  0  0  0  0  0  0  0  0
  2  1  1  0
  3  2  2  0
  4  2  1  0
  5  4  1  0
  5  6  1  0
  6  7  1  6
  6  8  1  0
  8  9  2  0
 10  8  1  0
 10 11  1  0
 11 12  1  6
 12 13  1  0
 13 14  1  0
 14 15  2  0
 14 18  1  0
 16 11  1  0
 16 17  2  0
 19 20  1  0
 20 22  1  0
 20 21  2  0
 23 22  1  1
 23 24  1  0
 24 16  1  0
 25 23  1  0
 25 27  1  0
 26 25  2  0
M  END
$$$$
