QEN.pdb
     RDKit          3D

 27 26  0  0  1  0  0  0  0  0999 V2000
    7.6992  -15.6535   17.4099 N   0  0  0  0  0  0  0  0  0  0  0  0
    7.7231  -14.2634   17.0890 C   0  0  0  0  0  0  0  0  0  0  0  0
    7.7509  -13.9367   15.8830 O   0  0  0  0  0  0  0  0  0  0  0  0
    7.7098  -13.2168   18.1209 C   0  0  0  0  0  0  0  0  0  0  0  0
    7.6943  -13.6215   19.5291 C   0  0  0  0  0  0  0  0  0  0  0  0
    8.9466  -13.6304   20.3125 C   0  0  2  0  0  0  0  0  0  0  0  0
   10.0228  -14.0034   19.3290 N   0  0  0  0  0  0  0  0  0  0  0  0
    8.9955  -14.6148   21.3906 C   0  0  0  0  0  0  0  0  0  0  0  0
    8.1436  -14.6180   22.3505 O   0  0  0  0  0  0  0  0  0  0  0  0
    9.9895  -15.6684   21.4674 N   0  0  0  0  0  0  0  0  0  0  0  0
    9.9216  -16.5986   22.5304 C   0  0  1  0  0  0  0  0  0  0  0  0
   10.5350  -17.9360   22.2195 C   0  0  0  0  0  0  0  0  0  0  0  0
   10.3970  -18.9806   23.2481 C   0  0  0  0  0  0  0  0  0  0  0  0
   11.0033  -20.2815   22.9576 C   0  0  0  0  0  0  0  0  0  0  0  0
   10.3823  -21.3445   23.0405 O   0  0  0  0  0  0  0  0  0  0  0  0
   10.5587  -16.1029   23.7832 C   0  0  0  0  0  0  0  0  0  0  0  0
   11.6537  -15.5222   23.7763 O   0  0  0  0  0  0  0  0  0  0  0  0
   12.3537  -20.3741   22.5612 O   0  0  0  0  0  0  0  0  0  0  0  0
    9.6682  -13.0837   28.5108 N   0  0  0  0  0  0  0  0  0  0  0  0
    9.8541  -14.4887   28.2648 C   0  0  0  0  0  0  0  0  0  0  0  0
   10.2936  -15.1873   29.1862 O   0  0  0  0  0  0  0  0  0  0  0  0
    9.4999  -14.9658   26.9268 C   0  0  0  0  0  0  0  0  0  0  0  0
   10.5247  -15.8531   26.2791 C   0  0  2  0  0  0  0  0  0  0  0  0
    9.9059  -16.2944   25.0090 N   0  0  0  0  0  0  0  0  0  0  0  0
   10.8604  -17.0559   27.0555 C   0  0  0  0  0  0  0  0  0  0  0  0
   10.2826  -18.1517   26.9274 O   0  0  0  0  0  0  0  0  0  0  0  0
   11.8891  -16.9788   27.9988 O   0  0  0  0  0  0  0  0  0  0  0  0
  2  1  1  0
  3  2  2  0
  4  2  1  0
  5  4  1  0
  5  6  1  0
  6  7  1  6
  6  8  1  0
  8  9  2  0
 10  8  1  0
 10 11  1  0
 11 12  1  6
 12 13  1  0
 13 14  1  0
 14 15  2  0
 14 18  1  0
 16 11  1  0
 16 17  2  0
 19 20  1  0
 20 22  1  0
 20 21  2  0
 23 22  1  1
 23 24  1  0
 24 16  1  0
 25 23  1  0
 25 27  1  0
 26 25  2  0
M  END
$$$$
