QEN.pdb
     RDKit          3D

 27 26  0  0  1  0  0  0  0  0999 V2000
    6.5905  -12.4814   18.0696 N   0  0  0  0  0  0  0  0  0  0  0  0
    6.5024  -13.2284   16.8572 C   0  0  0  0  0  0  0  0  0  0  0  0
    5.9056  -12.7122   15.8880 O   0  0  0  0  0  0  0  0  0  0  0  0
    7.0905  -14.5678   16.7132 C   0  0  0  0  0  0  0  0  0  0  0  0
    7.7631  -15.1656   17.8696 C   0  0  0  0  0  0  0  0  0  0  0  0
    9.2260  -15.3695   17.8536 C   0  0  2  0  0  0  0  0  0  0  0  0
    9.5108  -16.0716   16.5534 N   0  0  0  0  0  0  0  0  0  0  0  0
    9.7439  -16.2227   18.9202 C   0  0  0  0  0  0  0  0  0  0  0  0
    9.4839  -16.0016   20.1574 O   0  0  0  0  0  0  0  0  0  0  0  0
   10.5776  -17.3854   18.6811 N   0  0  0  0  0  0  0  0  0  0  0  0
   11.1452  -18.0608   19.7863 C   0  0  1  0  0  0  0  0  0  0  0  0
   11.9561  -19.2726   19.4181 C   0  0  0  0  0  0  0  0  0  0  0  0
   11.4012  -20.1443   18.3690 C   0  0  0  0  0  0  0  0  0  0  0  0
   12.3456  -21.0048   17.6536 C   0  0  0  0  0  0  0  0  0  0  0  0
   12.9482  -20.6422   16.6399 O   0  0  0  0  0  0  0  0  0  0  0  0
   12.0157  -17.1863   20.6222 C   0  0  0  0  0  0  0  0  0  0  0  0
   12.0130  -15.9526   20.5030 O   0  0  0  0  0  0  0  0  0  0  0  0
   12.6113  -22.3141   18.1058 O   0  0  0  0  0  0  0  0  0  0  0  0
   11.8828  -15.4847   24.7767 N   0  0  0  0  0  0  0  0  0  0  0  0
   10.9972  -16.5649   24.4330 C   0  0  0  0  0  0  0  0  0  0  0  0
    9.8609  -16.5631   24.9217 O   0  0  0  0  0  0  0  0  0  0  0  0
   11.5331  -17.5793   23.5234 C   0  0  0  0  0  0  0  0  0  0  0  0
   12.8963  -17.2762   22.9694 C   0  0  2  0  0  0  0  0  0  0  0  0
   12.8642  -17.7688   21.5740 N   0  0  0  0  0  0  0  0  0  0  0  0
   13.9967  -17.9631   23.6618 C   0  0  0  0  0  0  0  0  0  0  0  0
   14.8622  -17.3816   24.3429 O   0  0  0  0  0  0  0  0  0  0  0  0
   14.0890  -19.3540   23.5578 O   0  0  0  0  0  0  0  0  0  0  0  0
  2  1  1  0
  3  2  2  0
  4  2  1  0
  5  4  1  0
  5  6  1  0
  6  7  1  6
  6  8  1  0
  8  9  2  0
 10  8  1  0
 10 11  1  0
 11 12  1  6
 12 13  1  0
 13 14  1  0
 14 15  2  0
 14 18  1  0
 16 11  1  0
 16 17  2  0
 19 20  1  0
 20 22  1  0
 20 21  2  0
 23 22  1  1
 23 24  1  0
 24 16  1  0
 25 23  1  0
 25 27  1  0
 26 25  2  0
M  END
$$$$
