QEN.pdb
     RDKit          3D

 27 26  0  0  1  0  0  0  0  0999 V2000
    9.6878  -14.2551   17.7959 N   0  0  0  0  0  0  0  0  0  0  0  0
    8.2630  -14.1935   17.8413 C   0  0  0  0  0  0  0  0  0  0  0  0
    7.6616  -13.7093   16.8586 O   0  0  0  0  0  0  0  0  0  0  0  0
    7.4902  -14.6821   18.9922 C   0  0  0  0  0  0  0  0  0  0  0  0
    7.3017  -13.7899   20.1391 C   0  0  0  0  0  0  0  0  0  0  0  0
    8.4160  -13.5399   21.0759 C   0  0  2  0  0  0  0  0  0  0  0  0
    9.6057  -13.2467   20.2023 N   0  0  0  0  0  0  0  0  0  0  0  0
    8.7790  -14.6734   21.9229 C   0  0  0  0  0  0  0  0  0  0  0  0
    7.9388  -15.2252   22.7208 O   0  0  0  0  0  0  0  0  0  0  0  0
   10.0985  -15.2756   21.9312 N   0  0  0  0  0  0  0  0  0  0  0  0
   10.3504  -16.3625   22.8001 C   0  0  1  0  0  0  0  0  0  0  0  0
   11.3423  -17.3600   22.2682 C   0  0  0  0  0  0  0  0  0  0  0  0
   11.6280  -18.5258   23.1213 C   0  0  0  0  0  0  0  0  0  0  0  0
   12.5976  -19.4980   22.6126 C   0  0  0  0  0  0  0  0  0  0  0  0
   13.3471  -20.1458   23.3481 O   0  0  0  0  0  0  0  0  0  0  0  0
   10.8321  -15.9371   24.1448 C   0  0  0  0  0  0  0  0  0  0  0  0
   11.5819  -14.9615   24.2939 O   0  0  0  0  0  0  0  0  0  0  0  0
   12.7164  -19.7395   21.2281 O   0  0  0  0  0  0  0  0  0  0  0  0
   10.4175  -13.3716   28.6147 N   0  0  0  0  0  0  0  0  0  0  0  0
   10.0932  -14.7656   28.4699 C   0  0  0  0  0  0  0  0  0  0  0  0
   10.0118  -15.4533   29.4948 O   0  0  0  0  0  0  0  0  0  0  0  0
    9.8870  -15.2453   27.1021 C   0  0  0  0  0  0  0  0  0  0  0  0
   10.8853  -16.2645   26.6313 C   0  0  2  0  0  0  0  0  0  0  0  0
   10.4289  -16.6559   25.2788 N   0  0  0  0  0  0  0  0  0  0  0  0
   10.9412  -17.4813   27.4549 C   0  0  0  0  0  0  0  0  0  0  0  0
   10.1433  -18.4317   27.3488 O   0  0  0  0  0  0  0  0  0  0  0  0
   11.9464  -17.5915   28.4199 O   0  0  0  0  0  0  0  0  0  0  0  0
  2  1  1  0
  3  2  2  0
  4  2  1  0
  5  4  1  0
  5  6  1  0
  6  7  1  6
  6  8  1  0
  8  9  2  0
 10  8  1  0
 10 11  1  0
 11 12  1  6
 12 13  1  0
 13 14  1  0
 14 15  2  0
 14 18  1  0
 16 11  1  0
 16 17  2  0
 19 20  1  0
 20 22  1  0
 20 21  2  0
 23 22  1  1
 23 24  1  0
 24 16  1  0
 25 23  1  0
 25 27  1  0
 26 25  2  0
M  END
$$$$
