QEN.pdb
     RDKit          3D

 27 26  0  0  1  0  0  0  0  0999 V2000
   10.5945  -12.2188   18.7829 N   0  0  0  0  0  0  0  0  0  0  0  0
    9.4321  -12.7175   18.1226 C   0  0  0  0  0  0  0  0  0  0  0  0
    9.5507  -13.1269   16.9478 O   0  0  0  0  0  0  0  0  0  0  0  0
    8.1166  -12.7694   18.7764 C   0  0  0  0  0  0  0  0  0  0  0  0
    7.8802  -13.7963   19.7945 C   0  0  0  0  0  0  0  0  0  0  0  0
    8.4436  -15.1514   19.6265 C   0  0  2  0  0  0  0  0  0  0  0  0
    7.3786  -15.9332   18.9061 N   0  0  0  0  0  0  0  0  0  0  0  0
    8.7260  -15.8632   20.8705 C   0  0  0  0  0  0  0  0  0  0  0  0
    7.8060  -16.4554   21.5414 O   0  0  0  0  0  0  0  0  0  0  0  0
   10.0529  -15.9725   21.4461 N   0  0  0  0  0  0  0  0  0  0  0  0
   10.2300  -16.7435   22.6183 C   0  0  1  0  0  0  0  0  0  0  0  0
   11.6485  -17.1809   22.8600 C   0  0  0  0  0  0  0  0  0  0  0  0
   11.8719  -18.1038   23.9854 C   0  0  0  0  0  0  0  0  0  0  0  0
   13.2447  -18.5645   24.2028 C   0  0  0  0  0  0  0  0  0  0  0  0
   13.6171  -19.0909   25.2547 O   0  0  0  0  0  0  0  0  0  0  0  0
    9.7682  -16.0468   23.8522 C   0  0  0  0  0  0  0  0  0  0  0  0
    9.7227  -14.8105   23.9287 O   0  0  0  0  0  0  0  0  0  0  0  0
   14.2201  -18.4223   23.1939 O   0  0  0  0  0  0  0  0  0  0  0  0
    6.6532  -13.3988   26.5451 N   0  0  0  0  0  0  0  0  0  0  0  0
    6.5959  -14.8344   26.4736 C   0  0  0  0  0  0  0  0  0  0  0  0
    5.8068  -15.4230   27.2226 O   0  0  0  0  0  0  0  0  0  0  0  0
    7.4906  -15.4723   25.5061 C   0  0  0  0  0  0  0  0  0  0  0  0
    8.6752  -16.1745   26.1065 C   0  0  2  0  0  0  0  0  0  0  0  0
    9.3710  -16.8051   24.9623 N   0  0  0  0  0  0  0  0  0  0  0  0
    8.3279  -17.2379   27.0608 C   0  0  0  0  0  0  0  0  0  0  0  0
    7.8466  -18.3387   26.7327 O   0  0  0  0  0  0  0  0  0  0  0  0
    8.5463  -17.0129   28.4231 O   0  0  0  0  0  0  0  0  0  0  0  0
  2  1  1  0
  3  2  2  0
  4  2  1  0
  5  4  1  0
  5  6  1  0
  6  7  1  6
  6  8  1  0
  8  9  2  0
 10  8  1  0
 10 11  1  0
 11 12  1  1
 12 13  1  0
 13 14  1  0
 14 15  2  0
 14 18  1  0
 16 11  1  0
 16 17  2  0
 19 20  1  0
 20 22  1  0
 20 21  2  0
 23 22  1  6
 23 24  1  0
 24 16  1  0
 25 23  1  0
 25 27  1  0
 26 25  2  0
M  END
$$$$
