QEN.pdb
     RDKit          3D

 27 26  0  0  1  0  0  0  0  0999 V2000
    9.1351  -13.7741   16.0003 N   0  0  0  0  0  0  0  0  0  0  0  0
    7.8192  -13.5017   16.4799 C   0  0  0  0  0  0  0  0  0  0  0  0
    6.9017  -13.3681   15.6420 O   0  0  0  0  0  0  0  0  0  0  0  0
    7.5126  -13.3812   17.9124 C   0  0  0  0  0  0  0  0  0  0  0  0
    8.5824  -13.6329   18.8815 C   0  0  0  0  0  0  0  0  0  0  0  0
    8.5643  -14.8589   19.7052 C   0  0  2  0  0  0  0  0  0  0  0  0
    7.1490  -15.3643   19.6266 N   0  0  0  0  0  0  0  0  0  0  0  0
    8.8667  -14.6586   21.1202 C   0  0  0  0  0  0  0  0  0  0  0  0
   10.0593  -14.4342   21.5377 O   0  0  0  0  0  0  0  0  0  0  0  0
    7.8605  -14.6843   22.1647 N   0  0  0  0  0  0  0  0  0  0  0  0
    8.2700  -14.5726   23.5137 C   0  0  1  0  0  0  0  0  0  0  0  0
    7.2548  -13.9250   24.4146 C   0  0  0  0  0  0  0  0  0  0  0  0
    7.6658  -13.6868   25.8084 C   0  0  0  0  0  0  0  0  0  0  0  0
    6.6983  -13.0168   26.6798 C   0  0  0  0  0  0  0  0  0  0  0  0
    6.7153  -11.8014   26.8914 O   0  0  0  0  0  0  0  0  0  0  0  0
    8.6296  -15.8828   24.1264 C   0  0  0  0  0  0  0  0  0  0  0  0
    7.9640  -16.9077   23.9196 O   0  0  0  0  0  0  0  0  0  0  0  0
    5.6833  -13.7514   27.3274 O   0  0  0  0  0  0  0  0  0  0  0  0
   13.3617  -19.0071   24.9690 N   0  0  0  0  0  0  0  0  0  0  0  0
   11.9327  -18.9774   25.1308 C   0  0  0  0  0  0  0  0  0  0  0  0
   11.3865  -19.9548   25.6566 O   0  0  0  0  0  0  0  0  0  0  0  0
   11.2499  -17.7747   24.6504 C   0  0  0  0  0  0  0  0  0  0  0  0
   10.1670  -17.2577   25.5543 C   0  0  2  0  0  0  0  0  0  0  0  0
    9.7528  -15.9664   24.9610 N   0  0  0  0  0  0  0  0  0  0  0  0
   10.6042  -16.9971   26.9338 C   0  0  0  0  0  0  0  0  0  0  0  0
   11.0509  -17.8714   27.7001 O   0  0  0  0  0  0  0  0  0  0  0  0
   10.5187  -15.6926   27.4286 O   0  0  0  0  0  0  0  0  0  0  0  0
  2  1  1  0
  3  2  2  0
  4  2  1  0
  5  4  1  0
  5  6  1  0
  6  7  1  1
  6  8  1  0
  8  9  2  0
 10  8  1  0
 10 11  1  0
 11 12  1  1
 12 13  1  0
 13 14  1  0
 14 15  2  0
 14 18  1  0
 16 11  1  0
 16 17  2  0
 19 20  1  0
 20 22  1  0
 20 21  2  0
 23 22  1  6
 23 24  1  0
 24 16  1  0
 25 23  1  0
 25 27  1  0
 26 25  2  0
M  END
$$$$
