QEN.pdb
     RDKit          3D

 27 26  0  0  1  0  0  0  0  0999 V2000
    6.4507  -15.9357   14.4721 N   0  0  0  0  0  0  0  0  0  0  0  0
    6.6888  -14.5571   14.1921 C   0  0  0  0  0  0  0  0  0  0  0  0
    6.3672  -14.1194   13.0665 O   0  0  0  0  0  0  0  0  0  0  0  0
    7.2880  -13.6456   15.1773 C   0  0  0  0  0  0  0  0  0  0  0  0
    7.6286  -14.1714   16.5019 C   0  0  0  0  0  0  0  0  0  0  0  0
    9.0282  -14.5142   16.8268 C   0  0  2  0  0  0  0  0  0  0  0  0
    9.3659  -15.6766   15.9327 N   0  0  0  0  0  0  0  0  0  0  0  0
    9.2548  -14.9545   18.2011 C   0  0  0  0  0  0  0  0  0  0  0  0
    9.0746  -14.1759   19.2053 O   0  0  0  0  0  0  0  0  0  0  0  0
    9.6872  -16.2942   18.5509 N   0  0  0  0  0  0  0  0  0  0  0  0
    9.9556  -16.5957   19.9063 C   0  0  1  0  0  0  0  0  0  0  0  0
    9.2891  -17.8490   20.4028 C   0  0  0  0  0  0  0  0  0  0  0  0
    8.9057  -18.8406   19.3839 C   0  0  0  0  0  0  0  0  0  0  0  0
    8.2961  -20.0826   19.8636 C   0  0  0  0  0  0  0  0  0  0  0  0
    8.8624  -20.8486   20.6477 O   0  0  0  0  0  0  0  0  0  0  0  0
   11.4111  -16.7256   20.1995 C   0  0  0  0  0  0  0  0  0  0  0  0
   12.1227  -17.5638   19.6274 O   0  0  0  0  0  0  0  0  0  0  0  0
    7.0057  -20.4620   19.4390 O   0  0  0  0  0  0  0  0  0  0  0  0
   13.4012  -13.6772   18.9446 N   0  0  0  0  0  0  0  0  0  0  0  0
   14.2675  -14.6008   19.6271 C   0  0  0  0  0  0  0  0  0  0  0  0
   15.1076  -15.2136   18.9572 O   0  0  0  0  0  0  0  0  0  0  0  0
   14.0695  -14.7297   21.0719 C   0  0  0  0  0  0  0  0  0  0  0  0
   13.4282  -16.0154   21.5109 C   0  0  2  0  0  0  0  0  0  0  0  0
   11.9998  -15.8779   21.1481 N   0  0  0  0  0  0  0  0  0  0  0  0
   13.5009  -16.2639   22.9584 C   0  0  0  0  0  0  0  0  0  0  0  0
   12.5305  -16.1621   23.7325 O   0  0  0  0  0  0  0  0  0  0  0  0
   14.7282  -16.6381   23.5130 O   0  0  0  0  0  0  0  0  0  0  0  0
  2  1  1  0
  3  2  2  0
  4  2  1  0
  5  4  1  0
  5  6  1  0
  6  7  1  6
  6  8  1  0
  8  9  2  0
 10  8  1  0
 10 11  1  0
 11 12  1  6
 12 13  1  0
 13 14  1  0
 14 15  2  0
 14 18  1  0
 16 11  1  0
 16 17  2  0
 19 20  1  0
 20 22  1  0
 20 21  2  0
 23 22  1  1
 23 24  1  0
 24 16  1  0
 25 23  1  0
 25 27  1  0
 26 25  2  0
M  END
$$$$
