QEN.pdb
     RDKit          3D

 27 26  0  0  1  0  0  0  0  0999 V2000
   12.9564  -14.1337   15.8164 N   0  0  0  0  0  0  0  0  0  0  0  0
   12.9821  -13.7883   17.2005 C   0  0  0  0  0  0  0  0  0  0  0  0
   14.0697  -13.4257   17.6981 O   0  0  0  0  0  0  0  0  0  0  0  0
   11.7816  -13.8395   18.0472 C   0  0  0  0  0  0  0  0  0  0  0  0
   10.6209  -14.5969   17.5720 C   0  0  0  0  0  0  0  0  0  0  0  0
    9.3828  -14.6399   18.3764 C   0  0  2  0  0  0  0  0  0  0  0  0
    9.0701  -13.2025   18.6936 N   0  0  0  0  0  0  0  0  0  0  0  0
    9.4975  -15.3420   19.6523 C   0  0  0  0  0  0  0  0  0  0  0  0
    9.7335  -14.7241   20.7521 O   0  0  0  0  0  0  0  0  0  0  0  0
    9.3470  -16.7780   19.7915 N   0  0  0  0  0  0  0  0  0  0  0  0
    9.5269  -17.3656   21.0652 C   0  0  1  0  0  0  0  0  0  0  0  0
    8.9354  -18.7419   21.1983 C   0  0  0  0  0  0  0  0  0  0  0  0
    9.0426  -19.3813   22.5204 C   0  0  0  0  0  0  0  0  0  0  0  0
    8.5610  -20.7597   22.6314 C   0  0  0  0  0  0  0  0  0  0  0  0
    9.3046  -21.7120   22.8812 O   0  0  0  0  0  0  0  0  0  0  0  0
   10.9585  -17.4612   21.4685 C   0  0  0  0  0  0  0  0  0  0  0  0
   11.8383  -17.8346   20.6792 O   0  0  0  0  0  0  0  0  0  0  0  0
    7.1948  -21.0615   22.4536 O   0  0  0  0  0  0  0  0  0  0  0  0
   15.3761  -16.9198   23.8706 N   0  0  0  0  0  0  0  0  0  0  0  0
   14.8274  -15.8710   23.0531 C   0  0  0  0  0  0  0  0  0  0  0  0
   15.5804  -14.9560   22.6983 O   0  0  0  0  0  0  0  0  0  0  0  0
   13.4082  -15.9881   22.7134 C   0  0  0  0  0  0  0  0  0  0  0  0
   12.7352  -17.2302   23.2243 C   0  0  2  0  0  0  0  0  0  0  0  0
   11.3287  -17.1193   22.7766 N   0  0  0  0  0  0  0  0  0  0  0  0
   12.7304  -17.3562   24.6893 C   0  0  0  0  0  0  0  0  0  0  0  0
   13.7378  -17.6301   25.3685 O   0  0  0  0  0  0  0  0  0  0  0  0
   11.5281  -17.1590   25.3747 O   0  0  0  0  0  0  0  0  0  0  0  0
  2  1  1  0
  3  2  2  0
  4  2  1  0
  5  4  1  0
  5  6  1  0
  6  7  1  1
  6  8  1  0
  8  9  2  0
 10  8  1  0
 10 11  1  0
 11 12  1  6
 12 13  1  0
 13 14  1  0
 14 15  2  0
 14 18  1  0
 16 11  1  0
 16 17  2  0
 19 20  1  0
 20 22  1  0
 20 21  2  0
 23 22  1  1
 23 24  1  0
 24 16  1  0
 25 23  1  0
 25 27  1  0
 26 25  2  0
M  END
$$$$
