QEN.pdb
     RDKit          3D

 27 26  0  0  1  0  0  0  0  0999 V2000
    6.7510  -14.1593   15.4302 N   0  0  0  0  0  0  0  0  0  0  0  0
    7.3552  -13.5258   16.5569 C   0  0  0  0  0  0  0  0  0  0  0  0
    7.8808  -12.4040   16.3916 O   0  0  0  0  0  0  0  0  0  0  0  0
    7.3724  -14.1421   17.8912 C   0  0  0  0  0  0  0  0  0  0  0  0
    8.6442  -14.6504   18.4118 C   0  0  0  0  0  0  0  0  0  0  0  0
    9.6827  -15.1419   17.4834 C   0  0  2  0  0  0  0  0  0  0  0  0
    9.1553  -16.4508   16.9608 N   0  0  0  0  0  0  0  0  0  0  0  0
   10.9794  -15.4198   18.0960 C   0  0  0  0  0  0  0  0  0  0  0  0
   11.2614  -16.5627   18.6073 O   0  0  0  0  0  0  0  0  0  0  0  0
   12.0533  -14.4477   18.1716 N   0  0  0  0  0  0  0  0  0  0  0  0
   13.2862  -14.8317   18.7481 C   0  0  1  0  0  0  0  0  0  0  0  0
   14.4748  -14.0746   18.2229 C   0  0  0  0  0  0  0  0  0  0  0  0
   15.7760  -14.3767   18.8425 C   0  0  0  0  0  0  0  0  0  0  0  0
   16.9518  -13.7173   18.2706 C   0  0  0  0  0  0  0  0  0  0  0  0
   16.8733  -12.7760   17.4769 O   0  0  0  0  0  0  0  0  0  0  0  0
   13.3033  -14.7026   20.2327 C   0  0  0  0  0  0  0  0  0  0  0  0
   12.5975  -13.8749   20.8268 O   0  0  0  0  0  0  0  0  0  0  0  0
   18.2527  -14.1415   18.6129 O   0  0  0  0  0  0  0  0  0  0  0  0
   13.4811  -15.9583   25.1144 N   0  0  0  0  0  0  0  0  0  0  0  0
   12.5709  -16.5883   24.1958 C   0  0  0  0  0  0  0  0  0  0  0  0
   11.6708  -17.2967   24.6628 O   0  0  0  0  0  0  0  0  0  0  0  0
   12.7998  -16.3272   22.7735 C   0  0  0  0  0  0  0  0  0  0  0  0
   14.0576  -15.5663   22.4639 C   0  0  2  0  0  0  0  0  0  0  0  0
   14.1385  -15.5392   20.9862 N   0  0  0  0  0  0  0  0  0  0  0  0
   15.2859  -16.1979   22.9683 C   0  0  0  0  0  0  0  0  0  0  0  0
   15.7333  -17.2829   22.5516 O   0  0  0  0  0  0  0  0  0  0  0  0
   16.0057  -15.5516   23.9774 O   0  0  0  0  0  0  0  0  0  0  0  0
  2  1  1  0
  3  2  2  0
  4  2  1  0
  5  4  1  0
  5  6  1  0
  6  7  1  1
  6  8  1  0
  8  9  2  0
 10  8  1  0
 10 11  1  0
 11 12  1  6
 12 13  1  0
 13 14  1  0
 14 15  2  0
 14 18  1  0
 16 11  1  0
 16 17  2  0
 19 20  1  0
 20 22  1  0
 20 21  2  0
 23 22  1  6
 23 24  1  0
 24 16  1  0
 25 23  1  0
 25 27  1  0
 26 25  2  0
M  END
$$$$
