QEN.pdb
     RDKit          3D

 27 26  0  0  1  0  0  0  0  0999 V2000
    7.7162  -12.6674   19.1636 N   0  0  0  0  0  0  0  0  0  0  0  0
    7.6644  -13.7432   18.2278 C   0  0  0  0  0  0  0  0  0  0  0  0
    7.5107  -13.4667   17.0188 O   0  0  0  0  0  0  0  0  0  0  0  0
    7.7910  -15.1493   18.6370 C   0  0  0  0  0  0  0  0  0  0  0  0
    7.5785  -15.4909   20.0459 C   0  0  0  0  0  0  0  0  0  0  0  0
    8.6478  -15.2525   21.0367 C   0  0  2  0  0  0  0  0  0  0  0  0
    9.6605  -14.3974   20.3241 N   0  0  0  0  0  0  0  0  0  0  0  0
    9.3479  -16.4508   21.4925 C   0  0  0  0  0  0  0  0  0  0  0  0
    8.7246  -17.4606   21.9813 O   0  0  0  0  0  0  0  0  0  0  0  0
   10.7881  -16.6101   21.4254 N   0  0  0  0  0  0  0  0  0  0  0  0
   11.3632  -17.8307   21.8489 C   0  0  1  0  0  0  0  0  0  0  0  0
   12.6134  -18.2137   21.1060 C   0  0  0  0  0  0  0  0  0  0  0  0
   12.4504  -18.5989   19.6941 C   0  0  0  0  0  0  0  0  0  0  0  0
   13.6618  -18.9858   18.9682 C   0  0  0  0  0  0  0  0  0  0  0  0
   13.9516  -18.5335   17.8575 O   0  0  0  0  0  0  0  0  0  0  0  0
   11.6919  -17.8493   23.3024 C   0  0  0  0  0  0  0  0  0  0  0  0
   12.1369  -16.8509   23.8866 O   0  0  0  0  0  0  0  0  0  0  0  0
   14.5684  -19.9130   19.5230 O   0  0  0  0  0  0  0  0  0  0  0  0
   10.4921  -19.5804   28.4740 N   0  0  0  0  0  0  0  0  0  0  0  0
   11.0684  -20.4200   27.4581 C   0  0  0  0  0  0  0  0  0  0  0  0
   11.7320  -21.3991   27.8203 O   0  0  0  0  0  0  0  0  0  0  0  0
   10.8108  -20.0301   26.0707 C   0  0  0  0  0  0  0  0  0  0  0  0
   11.8219  -19.0894   25.4791 C   0  0  2  0  0  0  0  0  0  0  0  0
   11.4935  -19.0265   24.0373 N   0  0  0  0  0  0  0  0  0  0  0  0
   13.2149  -19.5440   25.6020 C   0  0  0  0  0  0  0  0  0  0  0  0
   13.7040  -20.4782   24.9394 O   0  0  0  0  0  0  0  0  0  0  0  0
   14.0528  -18.8965   26.5145 O   0  0  0  0  0  0  0  0  0  0  0  0
  2  1  1  0
  3  2  2  0
  4  2  1  0
  5  4  1  0
  5  6  1  0
  6  7  1  6
  6  8  1  0
  8  9  2  0
 10  8  1  0
 10 11  1  0
 11 12  1  6
 12 13  1  0
 13 14  1  0
 14 15  2  0
 14 18  1  0
 16 11  1  0
 16 17  2  0
 19 20  1  0
 20 22  1  0
 20 21  2  0
 23 22  1  1
 23 24  1  0
 24 16  1  0
 25 23  1  0
 25 27  1  0
 26 25  2  0
M  END
$$$$
