QEN.pdb
     RDKit          3D

 27 26  0  0  1  0  0  0  0  0999 V2000
    9.3810  -26.0273   19.7799 N   0  0  0  0  0  0  0  0  0  0  0  0
    9.2352  -24.6093   19.8414 C   0  0  0  0  0  0  0  0  0  0  0  0
    9.3850  -23.9544   18.7875 O   0  0  0  0  0  0  0  0  0  0  0  0
    8.9122  -23.9045   21.0902 C   0  0  0  0  0  0  0  0  0  0  0  0
    8.7920  -24.6851   22.3244 C   0  0  0  0  0  0  0  0  0  0  0  0
    8.4259  -24.0191   23.5910 C   0  0  2  0  0  0  0  0  0  0  0  0
    8.0375  -22.6186   23.2007 N   0  0  0  0  0  0  0  0  0  0  0  0
    9.5079  -23.9048   24.5657 C   0  0  0  0  0  0  0  0  0  0  0  0
    9.9149  -24.9087   25.2539 O   0  0  0  0  0  0  0  0  0  0  0  0
   10.2168  -22.6678   24.8326 N   0  0  0  0  0  0  0  0  0  0  0  0
   11.2189  -22.6537   25.8303 C   0  0  1  0  0  0  0  0  0  0  0  0
   12.3027  -21.6365   25.6012 C   0  0  0  0  0  0  0  0  0  0  0  0
   13.4929  -21.7348   26.4627 C   0  0  0  0  0  0  0  0  0  0  0  0
   14.5358  -20.7250   26.2706 C   0  0  0  0  0  0  0  0  0  0  0  0
   14.4615  -19.5863   26.7399 O   0  0  0  0  0  0  0  0  0  0  0  0
   10.6783  -22.4197   27.1993 C   0  0  0  0  0  0  0  0  0  0  0  0
    9.7310  -21.6478   27.4068 O   0  0  0  0  0  0  0  0  0  0  0  0
   15.6954  -21.0205   25.5240 O   0  0  0  0  0  0  0  0  0  0  0  0
    9.8303  -25.7159   32.0661 N   0  0  0  0  0  0  0  0  0  0  0  0
    9.9617  -24.3922   31.5186 C   0  0  0  0  0  0  0  0  0  0  0  0
    9.4483  -23.4529   32.1384 O   0  0  0  0  0  0  0  0  0  0  0  0
   10.7020  -24.2807   30.2604 C   0  0  0  0  0  0  0  0  0  0  0  0
   10.7269  -22.9037   29.6603 C   0  0  2  0  0  0  0  0  0  0  0  0
   11.2520  -23.0896   28.2889 N   0  0  0  0  0  0  0  0  0  0  0  0
   11.6126  -21.9574   30.3547 C   0  0  0  0  0  0  0  0  0  0  0  0
   11.2502  -20.8410   30.7712 O   0  0  0  0  0  0  0  0  0  0  0  0
   12.9457  -22.3204   30.5673 O   0  0  0  0  0  0  0  0  0  0  0  0
  2  1  1  0
  3  2  2  0
  4  2  1  0
  5  4  1  0
  5  6  1  0
  6  7  1  6
  6  8  1  0
  8  9  2  0
 10  8  1  0
 10 11  1  0
 11 12  1  6
 12 13  1  0
 13 14  1  0
 14 15  2  0
 14 18  1  0
 16 11  1  0
 16 17  2  0
 19 20  1  0
 20 22  1  0
 20 21  2  0
 23 22  1  1
 23 24  1  0
 24 16  1  0
 25 23  1  0
 25 27  1  0
 26 25  2  0
M  END
$$$$
