QEN.pdb
     RDKit          3D

 27 26  0  0  1  0  0  0  0  0999 V2000
    7.0710  -12.4509   18.1372 N   0  0  0  0  0  0  0  0  0  0  0  0
    7.7128  -13.6969   17.8705 C   0  0  0  0  0  0  0  0  0  0  0  0
    7.2370  -14.4258   16.9736 O   0  0  0  0  0  0  0  0  0  0  0  0
    8.9059  -14.1412   18.6052 C   0  0  0  0  0  0  0  0  0  0  0  0
    9.4409  -13.2771   19.6607 C   0  0  0  0  0  0  0  0  0  0  0  0
   10.5576  -13.7441   20.5072 C   0  0  2  0  0  0  0  0  0  0  0  0
   11.5158  -14.4137   19.5597 N   0  0  0  0  0  0  0  0  0  0  0  0
   10.1961  -14.7351   21.5177 C   0  0  0  0  0  0  0  0  0  0  0  0
    9.2835  -14.5152   22.3930 O   0  0  0  0  0  0  0  0  0  0  0  0
   10.8186  -16.0416   21.6156 N   0  0  0  0  0  0  0  0  0  0  0  0
   10.4411  -16.9033   22.6715 C   0  0  1  0  0  0  0  0  0  0  0  0
   10.8244  -18.3420   22.4601 C   0  0  0  0  0  0  0  0  0  0  0  0
   10.4335  -19.2912   23.5159 C   0  0  0  0  0  0  0  0  0  0  0  0
   10.9208  -20.6659   23.3854 C   0  0  0  0  0  0  0  0  0  0  0  0
   11.0842  -21.2189   22.2947 O   0  0  0  0  0  0  0  0  0  0  0  0
   10.9962  -16.4894   23.9913 C   0  0  0  0  0  0  0  0  0  0  0  0
   12.1797  -16.1471   24.1263 O   0  0  0  0  0  0  0  0  0  0  0  0
   11.2310  -21.4313   24.5287 O   0  0  0  0  0  0  0  0  0  0  0  0
   11.1130  -14.9553   28.9080 N   0  0  0  0  0  0  0  0  0  0  0  0
    9.9892  -14.4015   28.2011 C   0  0  0  0  0  0  0  0  0  0  0  0
    9.3442  -13.4998   28.7495 O   0  0  0  0  0  0  0  0  0  0  0  0
    9.7115  -14.9666   26.8793 C   0  0  0  0  0  0  0  0  0  0  0  0
   10.6641  -16.0407   26.4370 C   0  0  2  0  0  0  0  0  0  0  0  0
   10.1610  -16.4834   25.1172 N   0  0  0  0  0  0  0  0  0  0  0  0
   10.7017  -17.2163   27.3194 C   0  0  0  0  0  0  0  0  0  0  0  0
   10.0158  -18.2410   27.1446 O   0  0  0  0  0  0  0  0  0  0  0  0
   11.5554  -17.1961   28.4261 O   0  0  0  0  0  0  0  0  0  0  0  0
  2  1  1  0
  3  2  2  0
  4  2  1  0
  5  4  1  0
  5  6  1  0
  6  7  1  6
  6  8  1  0
  8  9  2  0
 10  8  1  0
 10 11  1  0
 11 12  1  6
 12 13  1  0
 13 14  1  0
 14 15  2  0
 14 18  1  0
 16 11  1  0
 16 17  2  0
 19 20  1  0
 20 22  1  0
 20 21  2  0
 23 22  1  1
 23 24  1  0
 24 16  1  0
 25 23  1  0
 25 27  1  0
 26 25  2  0
M  END
$$$$
