QEN.pdb
     RDKit          3D

 27 26  0  0  1  0  0  0  0  0999 V2000
    6.8253  -15.0090   16.5221 N   0  0  0  0  0  0  0  0  0  0  0  0
    7.4917  -13.7651   16.7325 C   0  0  0  0  0  0  0  0  0  0  0  0
    8.1996  -13.3110   15.8081 O   0  0  0  0  0  0  0  0  0  0  0  0
    7.3675  -13.0076   17.9861 C   0  0  0  0  0  0  0  0  0  0  0  0
    7.6117  -13.7034   19.2523 C   0  0  0  0  0  0  0  0  0  0  0  0
    8.9669  -13.7216   19.8396 C   0  0  2  0  0  0  0  0  0  0  0  0
    9.8984  -13.9104   18.6729 N   0  0  0  0  0  0  0  0  0  0  0  0
    9.2234  -14.8176   20.7707 C   0  0  0  0  0  0  0  0  0  0  0  0
    8.4778  -15.0329   21.7928 O   0  0  0  0  0  0  0  0  0  0  0  0
   10.3210  -15.7541   20.6211 N   0  0  0  0  0  0  0  0  0  0  0  0
   10.4917  -16.7703   21.5896 C   0  0  1  0  0  0  0  0  0  0  0  0
   11.2974  -17.9472   21.1128 C   0  0  0  0  0  0  0  0  0  0  0  0
   10.7904  -18.6570   19.9264 C   0  0  0  0  0  0  0  0  0  0  0  0
   11.6125  -19.7519   19.4070 C   0  0  0  0  0  0  0  0  0  0  0  0
   12.3352  -19.6353   18.4139 O   0  0  0  0  0  0  0  0  0  0  0  0
   11.1283  -16.2810   22.8452 C   0  0  0  0  0  0  0  0  0  0  0  0
   11.5754  -15.1295   22.9477 O   0  0  0  0  0  0  0  0  0  0  0  0
   11.6118  -21.0140   20.0366 O   0  0  0  0  0  0  0  0  0  0  0  0
   10.4921  -15.6518   27.8022 N   0  0  0  0  0  0  0  0  0  0  0  0
    9.5411  -15.3744   26.7592 C   0  0  0  0  0  0  0  0  0  0  0  0
    8.5558  -14.6813   27.0398 O   0  0  0  0  0  0  0  0  0  0  0  0
    9.8343  -15.9475   25.4443 C   0  0  0  0  0  0  0  0  0  0  0  0
   11.1736  -16.6186   25.3305 C   0  0  2  0  0  0  0  0  0  0  0  0
   11.2269  -17.1420   23.9470 N   0  0  0  0  0  0  0  0  0  0  0  0
   11.3609  -17.7536   26.2464 C   0  0  0  0  0  0  0  0  0  0  0  0
   10.4581  -18.5520   26.5603 O   0  0  0  0  0  0  0  0  0  0  0  0
   12.6248  -17.9609   26.8063 O   0  0  0  0  0  0  0  0  0  0  0  0
  2  1  1  0
  3  2  2  0
  4  2  1  0
  5  4  1  0
  5  6  1  0
  6  7  1  6
  6  8  1  0
  8  9  2  0
 10  8  1  0
 10 11  1  0
 11 12  1  6
 12 13  1  0
 13 14  1  0
 14 15  2  0
 14 18  1  0
 16 11  1  0
 16 17  2  0
 19 20  1  0
 20 22  1  0
 20 21  2  0
 23 22  1  1
 23 24  1  0
 24 16  1  0
 25 23  1  0
 25 27  1  0
 26 25  2  0
M  END
$$$$
