YQA.pdb
     RDKit          3D

 27 27  0  0  1  0  0  0  0  0999 V2000
   30.0851  -11.8031  -16.6835 O   0  0  0  0  0  0  0  0  0  0  0  0
   28.8354  -11.1675  -16.7514 C   0  0  0  0  0  0  0  0  0  0  0  0
   27.9399  -11.4521  -15.7631 C   0  0  0  0  0  0  0  0  0  0  0  0
   26.6878  -10.8362  -15.8019 C   0  0  0  0  0  0  0  0  0  0  0  0
   26.3417   -9.9619  -16.7992 C   0  0  0  0  0  0  0  0  0  0  0  0
   25.0145   -9.3408  -16.7954 C   0  0  0  0  0  0  0  0  0  0  0  0
   23.9087  -10.3627  -17.0923 C   0  0  2  0  0  0  0  0  0  0  0  0
   24.1208  -11.0171  -18.3432 N   0  0  0  0  0  0  0  0  0  0  0  0
   22.6383   -9.5955  -17.0497 C   0  0  0  0  0  0  0  0  0  0  0  0
   22.0429   -9.4263  -18.1408 O   0  0  0  0  0  0  0  0  0  0  0  0
   27.2561   -9.6889  -17.7836 C   0  0  0  0  0  0  0  0  0  0  0  0
   28.5181  -10.2974  -17.7618 C   0  0  0  0  0  0  0  0  0  0  0  0
   18.3868   -9.4472  -12.2720 N   0  0  0  0  0  0  0  0  0  0  0  0
   17.8427   -8.5649  -13.2441 C   0  0  0  0  0  0  0  0  0  0  0  0
   16.6906   -8.1387  -13.0804 O   0  0  0  0  0  0  0  0  0  0  0  0
   18.6486   -8.1877  -14.4057 C   0  0  0  0  0  0  0  0  0  0  0  0
   20.0136   -8.7345  -14.5097 C   0  0  0  0  0  0  0  0  0  0  0  0
   20.7985   -8.4779  -15.7394 C   0  0  2  0  0  0  0  0  0  0  0  0
   22.0886   -9.0618  -15.8524 N   0  0  0  0  0  0  0  0  0  0  0  0
   20.9391   -6.9916  -15.8746 C   0  0  0  0  0  0  0  0  0  0  0  0
   21.6760   -6.4270  -15.0271 O   0  0  0  0  0  0  0  0  0  0  0  0
   20.0006   -4.2151  -18.2394 C   0  0  0  0  0  0  0  0  0  0  0  0
   20.5326   -4.8045  -16.9528 C   0  0  2  0  0  0  0  0  0  0  0  0
   20.3168   -6.2177  -16.8598 N   0  0  0  0  0  0  0  0  0  0  0  0
   19.8640   -4.0859  -15.8369 C   0  0  0  0  0  0  0  0  0  0  0  0
   19.0445   -4.7097  -14.9372 O   0  0  0  0  0  0  0  0  0  0  0  0
   20.0591   -2.8557  -15.7146 O   0  0  0  0  0  0  0  0  0  0  0  0
  2  3  2  0
  2  1  1  0
  4  3  1  0
  5  4  2  0
  6  5  1  0
  7  9  1  0
  7  6  1  0
  7  8  1  6
  9 10  2  0
 11  5  1  0
 11 12  2  0
 12  2  1  0
 14 15  2  0
 14 13  1  0
 16 14  1  0
 17 16  1  0
 18 17  1  1
 19  9  1  0
 19 18  1  0
 20 24  1  0
 20 18  1  0
 21 20  2  0
 23 22  1  6
 23 24  1  0
 25 23  1  0
 25 26  1  0
 27 25  2  0
M  END
$$$$
