YQA.pdb
     RDKit          3D

 27 27  0  0  1  0  0  0  0  0999 V2000
   24.3163  -21.5925   -7.5756 O   0  0  0  0  0  0  0  0  0  0  0  0
   24.6455  -21.2454   -8.8953 C   0  0  0  0  0  0  0  0  0  0  0  0
   25.9624  -21.3082   -9.2435 C   0  0  0  0  0  0  0  0  0  0  0  0
   26.3226  -20.9692  -10.5488 C   0  0  0  0  0  0  0  0  0  0  0  0
   25.3935  -20.5790  -11.4780 C   0  0  0  0  0  0  0  0  0  0  0  0
   25.8221  -20.2333  -12.8360 C   0  0  0  0  0  0  0  0  0  0  0  0
   25.2413  -21.1988  -13.8777 C   0  0  2  0  0  0  0  0  0  0  0  0
   25.8233  -22.4981  -13.7713 N   0  0  0  0  0  0  0  0  0  0  0  0
   25.4922  -20.5595  -15.1941 C   0  0  0  0  0  0  0  0  0  0  0  0
   26.4711  -20.9860  -15.8525 O   0  0  0  0  0  0  0  0  0  0  0  0
   24.0745  -20.5224  -11.1083 C   0  0  0  0  0  0  0  0  0  0  0  0
   23.6935  -20.8589   -9.8025 C   0  0  0  0  0  0  0  0  0  0  0  0
   21.4113  -17.2524  -18.5760 N   0  0  0  0  0  0  0  0  0  0  0  0
   21.1544  -18.2799  -17.6284 C   0  0  0  0  0  0  0  0  0  0  0  0
   20.0115  -18.3842  -17.1609 O   0  0  0  0  0  0  0  0  0  0  0  0
   22.2376  -19.1792  -17.2297 C   0  0  0  0  0  0  0  0  0  0  0  0
   23.5496  -19.0162  -17.8818 C   0  0  0  0  0  0  0  0  0  0  0  0
   24.7717  -19.0082  -17.0448 C   0  0  2  0  0  0  0  0  0  0  0  0
   24.6869  -19.5126  -15.7194 N   0  0  0  0  0  0  0  0  0  0  0  0
   25.2572  -17.5915  -16.9810 C   0  0  0  0  0  0  0  0  0  0  0  0
   24.4639  -16.7578  -16.4753 O   0  0  0  0  0  0  0  0  0  0  0  0
   28.2504  -15.6308  -16.6337 C   0  0  0  0  0  0  0  0  0  0  0  0
   26.9115  -15.7858  -17.3187 C   0  0  2  0  0  0  0  0  0  0  0  0
   26.5051  -17.1543  -17.4377 N   0  0  0  0  0  0  0  0  0  0  0  0
   27.0300  -15.1441  -18.6539 C   0  0  0  0  0  0  0  0  0  0  0  0
   27.1572  -13.7925  -18.8196 O   0  0  0  0  0  0  0  0  0  0  0  0
   27.0128  -15.8719  -19.6719 O   0  0  0  0  0  0  0  0  0  0  0  0
  2  3  2  0
  2  1  1  0
  4  3  1  0
  5  4  2  0
  6  5  1  0
  7  9  1  0
  7  6  1  0
  7  8  1  6
  9 10  2  0
 11  5  1  0
 11 12  2  0
 12  2  1  0
 14 15  2  0
 14 13  1  0
 16 14  1  0
 17 16  1  0
 18 17  1  1
 19  9  1  0
 19 18  1  0
 20 24  1  0
 20 18  1  0
 21 20  2  0
 23 22  1  6
 23 24  1  0
 25 23  1  0
 25 26  1  0
 27 25  2  0
M  END
$$$$
