YQA.pdb
     RDKit          3D

 27 27  0  0  1  0  0  0  0  0999 V2000
   26.3683  -20.3252   -6.5687 O   0  0  0  0  0  0  0  0  0  0  0  0
   26.1914  -20.2138   -7.9568 C   0  0  0  0  0  0  0  0  0  0  0  0
   25.3278  -21.0902   -8.5447 C   0  0  0  0  0  0  0  0  0  0  0  0
   25.1298  -21.0055   -9.9238 C   0  0  0  0  0  0  0  0  0  0  0  0
   25.7761  -20.0722  -10.6920 C   0  0  0  0  0  0  0  0  0  0  0  0
   25.5342  -20.0237  -12.1365 C   0  0  0  0  0  0  0  0  0  0  0  0
   24.7676  -21.2598  -12.6255 C   0  0  2  0  0  0  0  0  0  0  0  0
   25.6063  -22.4143  -12.6695 N   0  0  0  0  0  0  0  0  0  0  0  0
   24.2252  -20.8887  -13.9569 C   0  0  0  0  0  0  0  0  0  0  0  0
   24.9128  -21.2075  -14.9565 O   0  0  0  0  0  0  0  0  0  0  0  0
   26.6403  -19.2000  -10.0820 C   0  0  0  0  0  0  0  0  0  0  0  0
   26.8522  -19.2695   -8.6986 C   0  0  0  0  0  0  0  0  0  0  0  0
   20.5373  -21.1426  -12.4300 N   0  0  0  0  0  0  0  0  0  0  0  0
   20.2777  -22.1883  -13.3567 C   0  0  0  0  0  0  0  0  0  0  0  0
   19.9636  -23.3046  -12.9197 O   0  0  0  0  0  0  0  0  0  0  0  0
   20.3901  -21.9235  -14.7915 C   0  0  0  0  0  0  0  0  0  0  0  0
   20.7752  -20.5660  -15.2179 C   0  0  0  0  0  0  0  0  0  0  0  0
   22.2133  -20.2269  -15.3227 C   0  0  2  0  0  0  0  0  0  0  0  0
   22.9914  -20.2056  -14.1342 N   0  0  0  0  0  0  0  0  0  0  0  0
   22.3059  -18.8792  -15.9722 C   0  0  0  0  0  0  0  0  0  0  0  0
   21.9204  -17.9040  -15.2789 O   0  0  0  0  0  0  0  0  0  0  0  0
   23.6791  -17.2446  -19.0666 C   0  0  0  0  0  0  0  0  0  0  0  0
   22.8048  -17.3341  -17.8364 C   0  0  2  0  0  0  0  0  0  0  0  0
   22.7820  -18.6486  -17.2672 N   0  0  0  0  0  0  0  0  0  0  0  0
   21.4416  -16.9014  -18.2401 C   0  0  0  0  0  0  0  0  0  0  0  0
   21.1028  -15.5891  -18.4234 O   0  0  0  0  0  0  0  0  0  0  0  0
   20.5645  -17.7757  -18.4204 O   0  0  0  0  0  0  0  0  0  0  0  0
  2  3  2  0
  2  1  1  0
  4  3  1  0
  5  4  2  0
  6  5  1  0
  7  9  1  0
  7  6  1  0
  7  8  1  6
  9 10  2  0
 11  5  1  0
 11 12  2  0
 12  2  1  0
 14 15  2  0
 14 13  1  0
 16 14  1  0
 17 16  1  0
 18 17  1  1
 19  9  1  0
 19 18  1  0
 20 24  1  0
 20 18  1  0
 21 20  2  0
 23 22  1  6
 23 24  1  0
 25 23  1  0
 25 26  1  0
 27 25  2  0
M  END
$$$$
