YQA.pdb
     RDKit          3D

 27 27  0  0  1  0  0  0  0  0999 V2000
   37.1427  -32.5181  -23.0697 O   0  0  0  0  0  0  0  0  0  0  0  0
   36.2591  -32.1145  -22.0564 C   0  0  0  0  0  0  0  0  0  0  0  0
   36.8045  -31.5130  -20.9608 C   0  0  0  0  0  0  0  0  0  0  0  0
   35.9525  -31.0998  -19.9351 C   0  0  0  0  0  0  0  0  0  0  0  0
   34.5958  -31.2827  -20.0032 C   0  0  0  0  0  0  0  0  0  0  0  0
   33.7436  -30.8311  -18.9000 C   0  0  0  0  0  0  0  0  0  0  0  0
   33.2062  -29.4140  -19.1413 C   0  0  2  0  0  0  0  0  0  0  0  0
   34.2473  -28.4394  -19.0752 N   0  0  0  0  0  0  0  0  0  0  0  0
   32.1558  -29.2080  -18.1124 C   0  0  0  0  0  0  0  0  0  0  0  0
   32.4356  -28.4340  -17.1656 O   0  0  0  0  0  0  0  0  0  0  0  0
   34.0670  -31.8894  -21.1131 C   0  0  0  0  0  0  0  0  0  0  0  0
   34.9061  -32.3111  -22.1531 C   0  0  0  0  0  0  0  0  0  0  0  0
   29.4360  -26.0860  -16.1073 N   0  0  0  0  0  0  0  0  0  0  0  0
   28.1412  -26.4311  -16.5805 C   0  0  0  0  0  0  0  0  0  0  0  0
   27.1524  -25.9518  -16.0076 O   0  0  0  0  0  0  0  0  0  0  0  0
   28.0092  -27.3387  -17.7207 C   0  0  0  0  0  0  0  0  0  0  0  0
   29.2318  -27.9711  -18.2486 C   0  0  0  0  0  0  0  0  0  0  0  0
   29.6737  -29.2655  -17.6801 C   0  0  2  0  0  0  0  0  0  0  0  0
   30.8823  -29.8375  -18.1601 N   0  0  0  0  0  0  0  0  0  0  0  0
   28.5648  -30.2496  -17.9012 C   0  0  0  0  0  0  0  0  0  0  0  0
   28.3347  -30.5634  -19.0965 O   0  0  0  0  0  0  0  0  0  0  0  0
   27.1118  -33.0088  -16.0063 C   0  0  0  0  0  0  0  0  0  0  0  0
   26.9937  -31.9894  -17.1166 C   0  0  2  0  0  0  0  0  0  0  0  0
   27.7928  -30.8232  -16.8854 N   0  0  0  0  0  0  0  0  0  0  0  0
   25.5543  -31.6383  -17.2322 C   0  0  0  0  0  0  0  0  0  0  0  0
   24.6097  -32.5167  -17.6870 O   0  0  0  0  0  0  0  0  0  0  0  0
   25.1896  -30.4884  -16.8991 O   0  0  0  0  0  0  0  0  0  0  0  0
  2  3  2  0
  2  1  1  0
  4  3  1  0
  5  4  2  0
  6  5  1  0
  7  9  1  0
  7  6  1  0
  7  8  1  1
  9 10  2  0
 11  5  1  0
 11 12  2  0
 12  2  1  0
 14 15  2  0
 14 13  1  0
 16 14  1  0
 17 16  1  0
 18 17  1  6
 19  9  1  0
 19 18  1  0
 20 24  1  0
 20 18  1  0
 21 20  2  0
 23 22  1  1
 23 24  1  0
 25 23  1  0
 25 26  1  0
 27 25  2  0
M  END
$$$$
