YQA.pdb
     RDKit          3D

 27 27  0  0  1  0  0  0  0  0999 V2000
   15.8256  -16.6005    3.9063 O   0  0  0  0  0  0  0  0  0  0  0  0
   16.6875  -15.5340    4.2065 C   0  0  0  0  0  0  0  0  0  0  0  0
   18.0073  -15.8317    4.3766 C   0  0  0  0  0  0  0  0  0  0  0  0
   18.8906  -14.7932    4.6761 C   0  0  0  0  0  0  0  0  0  0  0  0
   18.4667  -13.4957    4.8016 C   0  0  0  0  0  0  0  0  0  0  0  0
   19.4335  -12.4407    5.1170 C   0  0  0  0  0  0  0  0  0  0  0  0
   19.3059  -11.9703    6.5721 C   0  0  2  0  0  0  0  0  0  0  0  0
   19.3748  -10.5478    6.6720 N   0  0  0  0  0  0  0  0  0  0  0  0
   20.3993  -12.6547    7.3072 C   0  0  0  0  0  0  0  0  0  0  0  0
   21.5714  -12.2972    7.0388 O   0  0  0  0  0  0  0  0  0  0  0  0
   17.1357  -13.2170    4.6268 C   0  0  0  0  0  0  0  0  0  0  0  0
   16.2337  -14.2461    4.3257 C   0  0  0  0  0  0  0  0  0  0  0  0
   22.7070  -13.1552   12.7442 N   0  0  0  0  0  0  0  0  0  0  0  0
   23.2713  -14.3146   12.1468 C   0  0  0  0  0  0  0  0  0  0  0  0
   24.2585  -14.8380   12.6827 O   0  0  0  0  0  0  0  0  0  0  0  0
   22.6792  -14.8548   10.9225 C   0  0  0  0  0  0  0  0  0  0  0  0
   21.5988  -14.0869   10.2775 C   0  0  0  0  0  0  0  0  0  0  0  0
   21.1897  -14.4416    8.8988 C   0  0  2  0  0  0  0  0  0  0  0  0
   20.1725  -13.6702    8.2755 N   0  0  0  0  0  0  0  0  0  0  0  0
   20.7496  -15.8744    8.9207 C   0  0  0  0  0  0  0  0  0  0  0  0
   19.5499  -16.0886    8.6126 O   0  0  0  0  0  0  0  0  0  0  0  0
   19.7526  -18.3829   10.0737 C   0  0  0  0  0  0  0  0  0  0  0  0
   21.0616  -18.2936    9.3225 C   0  0  2  0  0  0  0  0  0  0  0  0
   21.5711  -16.9564    9.2542 N   0  0  0  0  0  0  0  0  0  0  0  0
   20.8209  -18.8452    7.9637 C   0  0  0  0  0  0  0  0  0  0  0  0
   21.0076  -18.1155    6.8221 O   0  0  0  0  0  0  0  0  0  0  0  0
   20.4302  -20.0295    7.8586 O   0  0  0  0  0  0  0  0  0  0  0  0
  2  3  2  0
  2  1  1  0
  4  3  1  0
  5  4  2  0
  6  5  1  0
  7  9  1  0
  7  6  1  0
  7  8  1  6
  9 10  2  0
 11  5  1  0
 11 12  2  0
 12  2  1  0
 14 15  2  0
 14 13  1  0
 16 14  1  0
 17 16  1  0
 18 17  1  1
 19  9  1  0
 19 18  1  0
 20 24  1  0
 20 18  1  0
 21 20  2  0
 23 22  1  1
 23 24  1  0
 25 23  1  0
 25 26  1  0
 27 25  2  0
M  END
$$$$
