YQA.pdb
     RDKit          3D

 27 27  0  0  1  0  0  0  0  0999 V2000
   24.3184  -20.8804   -7.3799 O   0  0  0  0  0  0  0  0  0  0  0  0
   24.4696  -20.7163   -8.7657 C   0  0  0  0  0  0  0  0  0  0  0  0
   25.7417  -20.7261   -9.2567 C   0  0  0  0  0  0  0  0  0  0  0  0
   25.9260  -20.5653  -10.6310 C   0  0  0  0  0  0  0  0  0  0  0  0
   24.8696  -20.3998  -11.4886 C   0  0  0  0  0  0  0  0  0  0  0  0
   25.1153  -20.2350  -12.9237 C   0  0  0  0  0  0  0  0  0  0  0  0
   24.6190  -21.4445  -13.7272 C   0  0  2  0  0  0  0  0  0  0  0  0
   25.4057  -22.6068  -13.4661 N   0  0  0  0  0  0  0  0  0  0  0  0
   24.6669  -21.0222  -15.1498 C   0  0  0  0  0  0  0  0  0  0  0  0
   25.7624  -21.1622  -15.7447 O   0  0  0  0  0  0  0  0  0  0  0  0
   23.5983  -20.3929  -10.9753 C   0  0  0  0  0  0  0  0  0  0  0  0
   23.3932  -20.5528   -9.5984 C   0  0  0  0  0  0  0  0  0  0  0  0
   22.8330  -23.3765  -20.5024 N   0  0  0  0  0  0  0  0  0  0  0  0
   22.3157  -23.3636  -19.1788 C   0  0  0  0  0  0  0  0  0  0  0  0
   21.3058  -24.0371  -18.9294 O   0  0  0  0  0  0  0  0  0  0  0  0
   22.9812  -22.5595  -18.1533 C   0  0  0  0  0  0  0  0  0  0  0  0
   22.6554  -21.1238  -18.0782 C   0  0  0  0  0  0  0  0  0  0  0  0
   23.4975  -20.2390  -17.2402 C   0  0  2  0  0  0  0  0  0  0  0  0
   23.5492  -20.4809  -15.8413 N   0  0  0  0  0  0  0  0  0  0  0  0
   23.0216  -18.8346  -17.4596 C   0  0  0  0  0  0  0  0  0  0  0  0
   22.1000  -18.4388  -16.7019 O   0  0  0  0  0  0  0  0  0  0  0  0
   23.9830  -15.9266  -17.1416 C   0  0  0  0  0  0  0  0  0  0  0  0
   23.3200  -16.5478  -18.3500 C   0  0  2  0  0  0  0  0  0  0  0  0
   23.5277  -17.9630  -18.4297 N   0  0  0  0  0  0  0  0  0  0  0  0
   23.8663  -15.8580  -19.5476 C   0  0  0  0  0  0  0  0  0  0  0  0
   23.5220  -14.5793  -19.8897 O   0  0  0  0  0  0  0  0  0  0  0  0
   24.6771  -16.4734  -20.2756 O   0  0  0  0  0  0  0  0  0  0  0  0
  2  3  2  0
  2  1  1  0
  4  3  1  0
  5  4  2  0
  6  5  1  0
  7  9  1  0
  7  6  1  0
  7  8  1  6
  9 10  2  0
 11  5  1  0
 11 12  2  0
 12  2  1  0
 14 15  2  0
 14 13  1  0
 16 14  1  0
 17 16  1  0
 18 17  1  6
 19  9  1  0
 19 18  1  0
 20 24  1  0
 20 18  1  0
 21 20  2  0
 23 22  1  1
 23 24  1  0
 25 23  1  0
 25 26  1  0
 27 25  2  0
M  END
$$$$
