YQA.pdb
     RDKit          3D

 27 27  0  0  1  0  0  0  0  0999 V2000
   29.1451  -19.4042   -5.4586 O   0  0  0  0  0  0  0  0  0  0  0  0
   28.5086  -19.8517   -6.6270 C   0  0  0  0  0  0  0  0  0  0  0  0
   29.2578  -20.5835   -7.5004 C   0  0  0  0  0  0  0  0  0  0  0  0
   28.6540  -21.0434   -8.6719 C   0  0  0  0  0  0  0  0  0  0  0  0
   27.3404  -20.7795   -8.9612 C   0  0  0  0  0  0  0  0  0  0  0  0
   26.7525  -21.2850  -10.2046 C   0  0  0  0  0  0  0  0  0  0  0  0
   25.6977  -20.3223  -10.7663 C   0  0  2  0  0  0  0  0  0  0  0  0
   24.4977  -20.3495   -9.9934 N   0  0  0  0  0  0  0  0  0  0  0  0
   25.4874  -20.7425  -12.1747 C   0  0  0  0  0  0  0  0  0  0  0  0
   24.5159  -21.5039  -12.3986 O   0  0  0  0  0  0  0  0  0  0  0  0
   26.6042  -20.0421   -8.0702 C   0  0  0  0  0  0  0  0  0  0  0  0
   27.1927  -19.5716   -6.8888 C   0  0  0  0  0  0  0  0  0  0  0  0
   27.3213  -17.0884  -17.1100 N   0  0  0  0  0  0  0  0  0  0  0  0
   28.2990  -17.8963  -16.4689 C   0  0  0  0  0  0  0  0  0  0  0  0
   29.4963  -17.6211  -16.6318 O   0  0  0  0  0  0  0  0  0  0  0  0
   27.8710  -19.0251  -15.6420 C   0  0  0  0  0  0  0  0  0  0  0  0
   26.4247  -19.2754  -15.5055 C   0  0  0  0  0  0  0  0  0  0  0  0
   25.9658  -20.3713  -14.6209 C   0  0  2  0  0  0  0  0  0  0  0  0
   26.3225  -20.3255  -13.2466 N   0  0  0  0  0  0  0  0  0  0  0  0
   26.4803  -21.6546  -15.2000 C   0  0  0  0  0  0  0  0  0  0  0  0
   27.6129  -22.0261  -14.8008 O   0  0  0  0  0  0  0  0  0  0  0  0
   25.6523  -24.8855  -16.2665 C   0  0  0  0  0  0  0  0  0  0  0  0
   26.3762  -23.6266  -16.6872 C   0  0  2  0  0  0  0  0  0  0  0  0
   25.7946  -22.4411  -16.1318 N   0  0  0  0  0  0  0  0  0  0  0  0
   26.3540  -23.5889  -18.1727 C   0  0  0  0  0  0  0  0  0  0  0  0
   27.0017  -24.5101  -18.9488 O   0  0  0  0  0  0  0  0  0  0  0  0
   25.7147  -22.6742  -18.7392 O   0  0  0  0  0  0  0  0  0  0  0  0
  2  3  2  0
  2  1  1  0
  4  3  1  0
  5  4  2  0
  6  5  1  0
  7  9  1  0
  7  6  1  0
  7  8  1  1
  9 10  2  0
 11  5  1  0
 11 12  2  0
 12  2  1  0
 14 15  2  0
 14 13  1  0
 16 14  1  0
 17 16  1  0
 18 17  1  6
 19  9  1  0
 19 18  1  0
 20 24  1  0
 20 18  1  0
 21 20  2  0
 23 22  1  1
 23 24  1  0
 25 23  1  0
 25 26  1  0
 27 25  2  0
M  END
$$$$
