YQA.pdb
     RDKit          3D

 27 27  0  0  1  0  0  0  0  0999 V2000
   29.5031  -18.6424   -4.7792 O   0  0  0  0  0  0  0  0  0  0  0  0
   28.7311  -19.0266   -5.8868 C   0  0  0  0  0  0  0  0  0  0  0  0
   28.9093  -20.2938   -6.3579 C   0  0  0  0  0  0  0  0  0  0  0  0
   28.1564  -20.7067   -7.4585 C   0  0  0  0  0  0  0  0  0  0  0  0
   27.2525  -19.8770   -8.0696 C   0  0  0  0  0  0  0  0  0  0  0  0
   26.4860  -20.3576   -9.2223 C   0  0  0  0  0  0  0  0  0  0  0  0
   25.0011  -20.5398   -8.8806 C   0  0  2  0  0  0  0  0  0  0  0  0
   24.8112  -21.5441   -7.8839 N   0  0  0  0  0  0  0  0  0  0  0  0
   24.3359  -20.8691  -10.1665 C   0  0  0  0  0  0  0  0  0  0  0  0
   24.4019  -22.0622  -10.5481 O   0  0  0  0  0  0  0  0  0  0  0  0
   27.0880  -18.6067   -7.5809 C   0  0  0  0  0  0  0  0  0  0  0  0
   27.8346  -18.1740   -6.4769 C   0  0  0  0  0  0  0  0  0  0  0  0
   19.6263  -17.4060  -13.0249 N   0  0  0  0  0  0  0  0  0  0  0  0
   19.7194  -18.6058  -13.7809 C   0  0  0  0  0  0  0  0  0  0  0  0
   18.9106  -18.7919  -14.7012 O   0  0  0  0  0  0  0  0  0  0  0  0
   20.7572  -19.5842  -13.4543 C   0  0  0  0  0  0  0  0  0  0  0  0
   21.6546  -19.2913  -12.3220 C   0  0  0  0  0  0  0  0  0  0  0  0
   22.7731  -20.2186  -12.0334 C   0  0  2  0  0  0  0  0  0  0  0  0
   23.6474  -19.9093  -10.9572 N   0  0  0  0  0  0  0  0  0  0  0  0
   23.5883  -20.3349  -13.2859 C   0  0  0  0  0  0  0  0  0  0  0  0
   24.4594  -19.4460  -13.4627 O   0  0  0  0  0  0  0  0  0  0  0  0
   24.6142  -22.8503  -15.7828 C   0  0  0  0  0  0  0  0  0  0  0  0
   24.2986  -21.4255  -15.3877 C   0  0  2  0  0  0  0  0  0  0  0  0
   23.4416  -21.3449  -14.2426 N   0  0  0  0  0  0  0  0  0  0  0  0
   23.6757  -20.7749  -16.5698 C   0  0  0  0  0  0  0  0  0  0  0  0
   24.3677  -20.5004  -17.7170 O   0  0  0  0  0  0  0  0  0  0  0  0
   22.4646  -20.4642  -16.5137 O   0  0  0  0  0  0  0  0  0  0  0  0
  2  3  2  0
  2  1  1  0
  4  3  1  0
  5  4  2  0
  6  5  1  0
  7  9  1  0
  7  6  1  0
  7  8  1  1
  9 10  2  0
 11  5  1  0
 11 12  2  0
 12  2  1  0
 14 15  2  0
 14 13  1  0
 16 14  1  0
 17 16  1  0
 18 17  1  6
 19  9  1  0
 19 18  1  0
 20 24  1  0
 20 18  1  0
 21 20  2  0
 23 22  1  6
 23 24  1  0
 25 23  1  0
 25 26  1  0
 27 25  2  0
M  END
$$$$
