YQA.pdb
     RDKit          3D

 27 27  0  0  1  0  0  0  0  0999 V2000
   20.9692  -20.0414  -13.8268 O   0  0  0  0  0  0  0  0  0  0  0  0
   21.1109  -18.7379  -14.3280 C   0  0  0  0  0  0  0  0  0  0  0  0
   22.1635  -18.5051  -15.1631 C   0  0  0  0  0  0  0  0  0  0  0  0
   22.3323  -17.2189  -15.6786 C   0  0  0  0  0  0  0  0  0  0  0  0
   21.4741  -16.1962  -15.3682 C   0  0  0  0  0  0  0  0  0  0  0  0
   21.6941  -14.8631  -15.9353 C   0  0  0  0  0  0  0  0  0  0  0  0
   20.8578  -14.6402  -17.2025 C   0  0  2  0  0  0  0  0  0  0  0  0
   21.2983  -15.4725  -18.2754 N   0  0  0  0  0  0  0  0  0  0  0  0
   20.9786  -13.1921  -17.5076 C   0  0  0  0  0  0  0  0  0  0  0  0
   21.9186  -12.8502  -18.2647 O   0  0  0  0  0  0  0  0  0  0  0  0
   20.4220  -16.4505  -14.5267 C   0  0  0  0  0  0  0  0  0  0  0  0
   20.2360  -17.7353  -13.9992 C   0  0  0  0  0  0  0  0  0  0  0  0
   19.4692   -9.5763  -20.7755 N   0  0  0  0  0  0  0  0  0  0  0  0
   19.1334   -8.5566  -19.8442 C   0  0  0  0  0  0  0  0  0  0  0  0
   19.1416   -7.3777  -20.2260 O   0  0  0  0  0  0  0  0  0  0  0  0
   18.7925   -8.9213  -18.4688 C   0  0  0  0  0  0  0  0  0  0  0  0
   18.8594  -10.3449  -18.0921 C   0  0  0  0  0  0  0  0  0  0  0  0
   20.0641  -10.8467  -17.3914 C   0  0  2  0  0  0  0  0  0  0  0  0
   20.0938  -12.2086  -16.9880 N   0  0  0  0  0  0  0  0  0  0  0  0
   20.2611   -9.9899  -16.1773 C   0  0  0  0  0  0  0  0  0  0  0  0
   19.6341  -10.3408  -15.1458 O   0  0  0  0  0  0  0  0  0  0  0  0
   22.1325   -6.8934  -15.0998 C   0  0  0  0  0  0  0  0  0  0  0  0
   21.2025   -8.0734  -14.9315 C   0  0  2  0  0  0  0  0  0  0  0  0
   21.0779   -8.8554  -16.1253 N   0  0  0  0  0  0  0  0  0  0  0  0
   19.8857   -7.5312  -14.5063 C   0  0  0  0  0  0  0  0  0  0  0  0
   19.5614   -7.3106  -13.1962 O   0  0  0  0  0  0  0  0  0  0  0  0
   19.0357   -7.2645  -15.3853 O   0  0  0  0  0  0  0  0  0  0  0  0
  2  3  2  0
  2  1  1  0
  4  3  1  0
  5  4  2  0
  6  5  1  0
  7  9  1  0
  7  6  1  0
  7  8  1  6
  9 10  2  0
 11  5  1  0
 11 12  2  0
 12  2  1  0
 14 15  2  0
 14 13  1  0
 16 14  1  0
 17 16  1  0
 18 17  1  1
 19  9  1  0
 19 18  1  0
 20 24  1  0
 20 18  1  0
 21 20  2  0
 23 22  1  6
 23 24  1  0
 25 23  1  0
 25 26  1  0
 27 25  2  0
M  END
$$$$
