YQA.pdb
     RDKit          3D

 27 27  0  0  1  0  0  0  0  0999 V2000
   35.9853  -27.5881  -21.7358 O   0  0  0  0  0  0  0  0  0  0  0  0
   35.3561  -28.3733  -20.7571 C   0  0  0  0  0  0  0  0  0  0  0  0
   35.0515  -27.7653  -19.5751 C   0  0  0  0  0  0  0  0  0  0  0  0
   34.4252  -28.5190  -18.5810 C   0  0  0  0  0  0  0  0  0  0  0  0
   34.1130  -29.8412  -18.7635 C   0  0  0  0  0  0  0  0  0  0  0  0
   33.4554  -30.5895  -17.6889 C   0  0  0  0  0  0  0  0  0  0  0  0
   31.9268  -30.5346  -17.8121 C   0  0  2  0  0  0  0  0  0  0  0  0
   31.4302  -29.2129  -17.6014 N   0  0  0  0  0  0  0  0  0  0  0  0
   31.4137  -31.5100  -16.8171 C   0  0  0  0  0  0  0  0  0  0  0  0
   31.0319  -31.0465  -15.7157 O   0  0  0  0  0  0  0  0  0  0  0  0
   34.4276  -30.4341  -19.9589 C   0  0  0  0  0  0  0  0  0  0  0  0
   35.0564  -29.6939  -20.9690 C   0  0  0  0  0  0  0  0  0  0  0  0
   26.3815  -33.1994  -15.6358 N   0  0  0  0  0  0  0  0  0  0  0  0
   27.0068  -34.2849  -14.9648 C   0  0  0  0  0  0  0  0  0  0  0  0
   26.3308  -34.9680  -14.1824 O   0  0  0  0  0  0  0  0  0  0  0  0
   28.4221  -34.5642  -15.2100 C   0  0  0  0  0  0  0  0  0  0  0  0
   29.1653  -33.6514  -16.0974 C   0  0  0  0  0  0  0  0  0  0  0  0
   30.6259  -33.8378  -16.2590 C   0  0  2  0  0  0  0  0  0  0  0  0
   31.3416  -32.9085  -17.0605 N   0  0  0  0  0  0  0  0  0  0  0  0
   30.8389  -35.2103  -16.8227 C   0  0  0  0  0  0  0  0  0  0  0  0
   30.6170  -35.3430  -18.0529 O   0  0  0  0  0  0  0  0  0  0  0  0
   32.3820  -38.4867  -15.8397 C   0  0  0  0  0  0  0  0  0  0  0  0
   31.5430  -37.5773  -16.7085 C   0  0  2  0  0  0  0  0  0  0  0  0
   31.2581  -36.3208  -16.0823 N   0  0  0  0  0  0  0  0  0  0  0  0
   30.2917  -38.3134  -17.0263 C   0  0  0  0  0  0  0  0  0  0  0  0
   30.2356  -39.3172  -17.9535 O   0  0  0  0  0  0  0  0  0  0  0  0
   29.2427  -38.0016  -16.4192 O   0  0  0  0  0  0  0  0  0  0  0  0
  2  3  2  0
  2  1  1  0
  4  3  1  0
  5  4  2  0
  6  5  1  0
  7  9  1  0
  7  6  1  0
  7  8  1  1
  9 10  2  0
 11  5  1  0
 11 12  2  0
 12  2  1  0
 14 15  2  0
 14 13  1  0
 16 14  1  0
 17 16  1  0
 18 17  1  6
 19  9  1  0
 19 18  1  0
 20 24  1  0
 20 18  1  0
 21 20  2  0
 23 22  1  1
 23 24  1  0
 25 23  1  0
 25 26  1  0
 27 25  2  0
M  END
$$$$
