YQA.pdb
     RDKit          3D

 27 27  0  0  1  0  0  0  0  0999 V2000
   17.4501  -14.3074  -15.8241 O   0  0  0  0  0  0  0  0  0  0  0  0
   17.8081  -12.9690  -15.5986 C   0  0  0  0  0  0  0  0  0  0  0  0
   18.6265  -12.3821  -16.5181 C   0  0  0  0  0  0  0  0  0  0  0  0
   19.0009  -11.0517  -16.3226 C   0  0  0  0  0  0  0  0  0  0  0  0
   18.5699  -10.3298  -15.2401 C   0  0  0  0  0  0  0  0  0  0  0  0
   18.9910   -8.9355  -15.0797 C   0  0  0  0  0  0  0  0  0  0  0  0
   20.4054   -8.8336  -14.4932 C   0  0  2  0  0  0  0  0  0  0  0  0
   20.4637   -9.3620  -13.1683 N   0  0  0  0  0  0  0  0  0  0  0  0
   20.7579   -7.3927  -14.5565 C   0  0  0  0  0  0  0  0  0  0  0  0
   20.9530   -6.8097  -13.4630 O   0  0  0  0  0  0  0  0  0  0  0  0
   17.7476  -10.9379  -14.3270 C   0  0  0  0  0  0  0  0  0  0  0  0
   17.3607  -12.2728  -14.5060 C   0  0  0  0  0  0  0  0  0  0  0  0
   26.0504   -3.8610  -17.9844 N   0  0  0  0  0  0  0  0  0  0  0  0
   25.1935   -4.9438  -17.6486 C   0  0  0  0  0  0  0  0  0  0  0  0
   25.5464   -6.0942  -17.9450 O   0  0  0  0  0  0  0  0  0  0  0  0
   23.9254   -4.6751  -16.9698 C   0  0  0  0  0  0  0  0  0  0  0  0
   23.0082   -5.8062  -16.7408 C   0  0  0  0  0  0  0  0  0  0  0  0
   21.7545   -5.5732  -15.9873 C   0  0  2  0  0  0  0  0  0  0  0  0
   20.8787   -6.6716  -15.7754 N   0  0  0  0  0  0  0  0  0  0  0  0
   20.9976   -4.4973  -16.7060 C   0  0  0  0  0  0  0  0  0  0  0  0
   20.5274   -4.8087  -17.8294 O   0  0  0  0  0  0  0  0  0  0  0  0
   19.4773   -1.1377  -16.0664 C   0  0  0  0  0  0  0  0  0  0  0  0
   20.0291   -2.2357  -16.9472 C   0  0  2  0  0  0  0  0  0  0  0  0
   20.7894   -3.2041  -16.2149 N   0  0  0  0  0  0  0  0  0  0  0  0
   20.8601   -1.5793  -17.9900 C   0  0  0  0  0  0  0  0  0  0  0  0
   20.3453   -1.1252  -19.1728 O   0  0  0  0  0  0  0  0  0  0  0  0
   22.0849   -1.4356  -17.7770 O   0  0  0  0  0  0  0  0  0  0  0  0
  2  3  2  0
  2  1  1  0
  4  3  1  0
  5  4  2  0
  6  5  1  0
  7  9  1  0
  7  6  1  0
  7  8  1  1
  9 10  2  0
 11  5  1  0
 11 12  2  0
 12  2  1  0
 14 15  2  0
 14 13  1  0
 16 14  1  0
 17 16  1  0
 18 17  1  6
 19  9  1  0
 19 18  1  0
 20 24  1  0
 20 18  1  0
 21 20  2  0
 23 22  1  1
 23 24  1  0
 25 23  1  0
 25 26  1  0
 27 25  2  0
M  END
$$$$
