YQA.pdb
     RDKit          3D

 27 27  0  0  1  0  0  0  0  0999 V2000
   24.9679  -21.2230   -7.9062 O   0  0  0  0  0  0  0  0  0  0  0  0
   24.8990  -20.9302   -9.2773 C   0  0  0  0  0  0  0  0  0  0  0  0
   23.6583  -20.7360   -9.8089 C   0  0  0  0  0  0  0  0  0  0  0  0
   23.5558  -20.4431  -11.1698 C   0  0  0  0  0  0  0  0  0  0  0  0
   24.6609  -20.3472  -11.9750 C   0  0  0  0  0  0  0  0  0  0  0  0
   24.5006  -20.0373  -13.3982 C   0  0  0  0  0  0  0  0  0  0  0  0
   23.8866  -21.2132  -14.1697 C   0  0  2  0  0  0  0  0  0  0  0  0
   24.7618  -22.3408  -14.1917 N   0  0  0  0  0  0  0  0  0  0  0  0
   23.5895  -20.6859  -15.5255 C   0  0  0  0  0  0  0  0  0  0  0  0
   24.4234  -20.9417  -16.4270 O   0  0  0  0  0  0  0  0  0  0  0  0
   25.8994  -20.5459  -11.4215 C   0  0  0  0  0  0  0  0  0  0  0  0
   26.0226  -20.8409  -10.0573 C   0  0  0  0  0  0  0  0  0  0  0  0
   23.0241  -21.5655  -20.2734 N   0  0  0  0  0  0  0  0  0  0  0  0
   21.8855  -20.7552  -20.5314 C   0  0  0  0  0  0  0  0  0  0  0  0
   21.5917  -20.5014  -21.7083 O   0  0  0  0  0  0  0  0  0  0  0  0
   21.0973  -20.2425  -19.4102 C   0  0  0  0  0  0  0  0  0  0  0  0
   21.5133  -20.6106  -18.0446 C   0  0  0  0  0  0  0  0  0  0  0  0
   22.0187  -19.5536  -17.1383 C   0  0  2  0  0  0  0  0  0  0  0  0
   22.4286  -19.9241  -15.8295 N   0  0  0  0  0  0  0  0  0  0  0  0
   20.9421  -18.5172  -17.0205 C   0  0  0  0  0  0  0  0  0  0  0  0
   19.9790  -18.8043  -16.2654 O   0  0  0  0  0  0  0  0  0  0  0  0
   20.1612  -15.0233  -18.2159 C   0  0  0  0  0  0  0  0  0  0  0  0
   19.9189  -16.3102  -17.4604 C   0  0  2  0  0  0  0  0  0  0  0  0
   20.9453  -17.2847  -17.6821 N   0  0  0  0  0  0  0  0  0  0  0  0
   18.5918  -16.8228  -17.8902 C   0  0  0  0  0  0  0  0  0  0  0  0
   18.4434  -17.7955  -18.8400 O   0  0  0  0  0  0  0  0  0  0  0  0
   17.5643  -16.3436  -17.3601 O   0  0  0  0  0  0  0  0  0  0  0  0
  2  3  2  0
  2  1  1  0
  4  3  1  0
  5  4  2  0
  6  5  1  0
  7  9  1  0
  7  6  1  0
  7  8  1  6
  9 10  2  0
 11  5  1  0
 11 12  2  0
 12  2  1  0
 14 15  2  0
 14 13  1  0
 16 14  1  0
 17 16  1  0
 18 17  1  1
 19  9  1  0
 19 18  1  0
 20 24  1  0
 20 18  1  0
 21 20  2  0
 23 22  1  6
 23 24  1  0
 25 23  1  0
 25 26  1  0
 27 25  2  0
M  END
$$$$
