YQA.pdb
     RDKit          3D

 27 27  0  0  1  0  0  0  0  0999 V2000
   34.2995  -27.6194  -17.6919 O   0  0  0  0  0  0  0  0  0  0  0  0
   32.9119  -27.6863  -17.8932 C   0  0  0  0  0  0  0  0  0  0  0  0
   32.1438  -26.7760  -17.2290 C   0  0  0  0  0  0  0  0  0  0  0  0
   30.7601  -26.8161  -17.4079 C   0  0  0  0  0  0  0  0  0  0  0  0
   30.1623  -27.7388  -18.2266 C   0  0  0  0  0  0  0  0  0  0  0  0
   28.7052  -27.7397  -18.3814 C   0  0  0  0  0  0  0  0  0  0  0  0
   28.0102  -28.4455  -17.2092 C   0  0  2  0  0  0  0  0  0  0  0  0
   28.2907  -29.8452  -17.1984 N   0  0  0  0  0  0  0  0  0  0  0  0
   26.5644  -28.1472  -17.3679 C   0  0  0  0  0  0  0  0  0  0  0  0
   25.8961  -28.9446  -18.0688 O   0  0  0  0  0  0  0  0  0  0  0  0
   30.9520  -28.6454  -18.8855 C   0  0  0  0  0  0  0  0  0  0  0  0
   32.3430  -28.6210  -18.7186 C   0  0  0  0  0  0  0  0  0  0  0  0
   20.9767  -26.4940  -15.7707 N   0  0  0  0  0  0  0  0  0  0  0  0
   21.6648  -27.4302  -14.9524 C   0  0  0  0  0  0  0  0  0  0  0  0
   21.0055  -28.2886  -14.3490 O   0  0  0  0  0  0  0  0  0  0  0  0
   23.1220  -27.3556  -14.8415 C   0  0  0  0  0  0  0  0  0  0  0  0
   23.8255  -26.3274  -15.6296 C   0  0  0  0  0  0  0  0  0  0  0  0
   24.5418  -26.7318  -16.8614 C   0  0  2  0  0  0  0  0  0  0  0  0
   25.9292  -27.0240  -16.7719 N   0  0  0  0  0  0  0  0  0  0  0  0
   24.3539  -25.6345  -17.8652 C   0  0  0  0  0  0  0  0  0  0  0  0
   25.1125  -24.6395  -17.7446 O   0  0  0  0  0  0  0  0  0  0  0  0
   22.9611  -25.1158  -21.2490 C   0  0  0  0  0  0  0  0  0  0  0  0
   23.3531  -24.6090  -19.8796 C   0  0  2  0  0  0  0  0  0  0  0  0
   23.4113  -25.6514  -18.8987 N   0  0  0  0  0  0  0  0  0  0  0  0
   22.3596  -23.5710  -19.5000 C   0  0  0  0  0  0  0  0  0  0  0  0
   21.5458  -23.6864  -18.4070 O   0  0  0  0  0  0  0  0  0  0  0  0
   22.2628  -22.5459  -20.2114 O   0  0  0  0  0  0  0  0  0  0  0  0
  2  3  2  0
  2  1  1  0
  4  3  1  0
  5  4  2  0
  6  5  1  0
  7  9  1  0
  7  6  1  0
  7  8  1  6
  9 10  2  0
 11  5  1  0
 11 12  2  0
 12  2  1  0
 14 15  2  0
 14 13  1  0
 16 14  1  0
 17 16  1  0
 18 17  1  1
 19  9  1  0
 19 18  1  0
 20 24  1  0
 20 18  1  0
 21 20  2  0
 23 22  1  6
 23 24  1  0
 25 23  1  0
 25 26  1  0
 27 25  2  0
M  END
$$$$
