HTM.pdb
     RDKit          3D

 26 26  0  0  1  0  0  0  0  0999 V2000
   17.6795  -13.5208  -18.4696 N   0  0  0  0  0  0  0  0  0  0  0  0
   18.1709  -12.8764  -17.3009 C   0  0  1  0  0  0  0  0  0  0  0  0
   18.9799  -13.8305  -16.4651 C   0  0  0  0  0  0  0  0  0  0  0  0
   18.1064  -14.9891  -16.1151 C   0  0  0  0  0  0  0  0  0  0  0  0
   16.7810  -15.0227  -15.7823 C   0  0  0  0  0  0  0  0  0  0  0  0
   16.4708  -16.3102  -15.5573 N   0  0  0  0  0  0  0  0  0  0  0  0
   17.5651  -17.0652  -15.7423 C   0  0  0  0  0  0  0  0  0  0  0  0
   18.6022  -16.2583  -16.0924 N   0  0  0  0  0  0  0  0  0  0  0  0
   18.8981  -11.6143  -17.5862 C   0  0  0  0  0  0  0  0  0  0  0  0
   19.8247  -11.6361  -18.4334 O   0  0  0  0  0  0  0  0  0  0  0  0
   17.5656   -8.2475  -18.6860 C   0  0  0  0  0  0  0  0  0  0  0  0
   18.3608   -8.0396  -17.4299 C   0  0  1  0  0  0  0  0  0  0  0  0
   17.4940   -8.0314  -16.3444 O   0  0  0  0  0  0  0  0  0  0  0  0
   19.3641   -9.1680  -17.1933 C   0  0  2  0  0  0  0  0  0  0  0  0
   18.5896  -10.3865  -16.9423 N   0  0  0  0  0  0  0  0  0  0  0  0
   20.1600   -8.7999  -15.9977 C   0  0  0  0  0  0  0  0  0  0  0  0
   20.1165   -9.5778  -14.9833 O   0  0  0  0  0  0  0  0  0  0  0  0
   26.6279   -9.3784  -14.8927 C   0  0  0  0  0  0  0  0  0  0  0  0
   25.1430   -9.9938  -14.0523 S   0  0  0  0  0  0  0  0  0  0  0  0
   24.0284   -8.5800  -13.8142 C   0  0  0  0  0  0  0  0  0  0  0  0
   22.9255   -8.7072  -14.8340 C   0  0  0  0  0  0  0  0  0  0  0  0
   21.9829   -7.5138  -14.8246 C   0  0  2  0  0  0  0  0  0  0  0  0
   20.9721   -7.6629  -15.8659 N   0  0  0  0  0  0  0  0  0  0  0  0
   22.6888   -6.2363  -15.0846 C   0  0  0  0  0  0  0  0  0  0  0  0
   23.2975   -5.4900  -14.0708 O   0  0  0  0  0  0  0  0  0  0  0  0
   22.7861   -5.7360  -16.2489 O   0  0  0  0  0  0  0  0  0  0  0  0
  2  9  1  0
  2  1  1  6
  3  2  1  0
  4  8  1  0
  4  3  1  0
  5  4  2  0
  6  5  1  0
  6  7  1  0
  7  8  2  0
  9 10  2  0
 12 11  1  6
 12 14  1  0
 13 12  1  0
 14 15  1  1
 15  9  1  0
 16 14  1  0
 16 17  2  0
 19 18  1  0
 19 20  1  0
 20 21  1  0
 22 21  1  6
 22 23  1  0
 22 24  1  0
 23 16  1  0
 24 26  2  0
 24 25  1  0
M  END
$$$$
