HTM.pdb
     RDKit          3D

 26 26  0  0  1  0  0  0  0  0999 V2000
   27.9425  -21.3841  -17.4615 N   0  0  0  0  0  0  0  0  0  0  0  0
   27.3681  -22.6352  -17.1048 C   0  0  1  0  0  0  0  0  0  0  0  0
   25.8931  -22.6495  -17.4010 C   0  0  0  0  0  0  0  0  0  0  0  0
   25.2629  -21.5238  -16.6501 C   0  0  0  0  0  0  0  0  0  0  0  0
   24.6899  -21.5058  -15.4091 C   0  0  0  0  0  0  0  0  0  0  0  0
   24.2714  -20.2476  -15.1942 N   0  0  0  0  0  0  0  0  0  0  0  0
   24.5705  -19.4955  -16.2650 C   0  0  0  0  0  0  0  0  0  0  0  0
   25.1923  -20.2746  -17.1899 N   0  0  0  0  0  0  0  0  0  0  0  0
   28.0771  -23.7981  -17.6950 C   0  0  0  0  0  0  0  0  0  0  0  0
   28.6536  -23.6492  -18.8006 O   0  0  0  0  0  0  0  0  0  0  0  0
   30.7937  -24.4567  -17.8868 C   0  0  0  0  0  0  0  0  0  0  0  0
   30.4196  -25.7802  -17.2851 C   0  0  1  0  0  0  0  0  0  0  0  0
   30.5464  -25.6989  -15.9042 O   0  0  0  0  0  0  0  0  0  0  0  0
   28.9673  -26.1539  -17.5803 C   0  0  2  0  0  0  0  0  0  0  0  0
   28.1300  -25.0685  -17.0622 N   0  0  0  0  0  0  0  0  0  0  0  0
   28.6876  -27.4187  -16.8588 C   0  0  0  0  0  0  0  0  0  0  0  0
   28.2760  -27.3433  -15.6501 O   0  0  0  0  0  0  0  0  0  0  0  0
   25.7444  -34.6017  -17.1148 C   0  0  0  0  0  0  0  0  0  0  0  0
   26.0548  -32.9814  -17.8687 S   0  0  0  0  0  0  0  0  0  0  0  0
   27.2892  -32.1324  -16.8423 C   0  0  0  0  0  0  0  0  0  0  0  0
   27.5241  -30.7774  -17.4599 C   0  0  0  0  0  0  0  0  0  0  0  0
   28.4767  -29.9209  -16.6404 C   0  0  2  0  0  0  0  0  0  0  0  0
   28.8307  -28.7141  -17.3796 N   0  0  0  0  0  0  0  0  0  0  0  0
   29.7430  -30.6265  -16.3294 C   0  0  0  0  0  0  0  0  0  0  0  0
   29.8201  -31.6617  -15.3925 O   0  0  0  0  0  0  0  0  0  0  0  0
   30.8427  -30.3350  -16.8959 O   0  0  0  0  0  0  0  0  0  0  0  0
  2  9  1  0
  2  1  1  6
  3  2  1  0
  4  8  1  0
  4  3  1  0
  5  4  2  0
  6  5  1  0
  6  7  1  0
  7  8  2  0
  9 10  2  0
 12 11  1  6
 12 14  1  0
 13 12  1  0
 14 15  1  1
 15  9  1  0
 16 14  1  0
 16 17  2  0
 19 18  1  0
 19 20  1  0
 20 21  1  0
 22 21  1  6
 22 23  1  0
 22 24  1  0
 23 16  1  0
 24 26  2  0
 24 25  1  0
M  END
$$$$
