HTM.pdb
     RDKit          3D

 26 26  0  0  1  0  0  0  0  0999 V2000
   29.9900  -10.5696  -18.5612 N   0  0  0  0  0  0  0  0  0  0  0  0
   30.5200   -9.2636  -18.7505 C   0  0  1  0  0  0  0  0  0  0  0  0
   29.4983   -8.3593  -19.3843 C   0  0  0  0  0  0  0  0  0  0  0  0
   29.1877   -8.8971  -20.7416 C   0  0  0  0  0  0  0  0  0  0  0  0
   27.9816   -9.1135  -21.3474 C   0  0  0  0  0  0  0  0  0  0  0  0
   28.2447   -9.6092  -22.5679 N   0  0  0  0  0  0  0  0  0  0  0  0
   29.5742   -9.7026  -22.7275 C   0  0  0  0  0  0  0  0  0  0  0  0
   30.1852   -9.2618  -21.5955 N   0  0  0  0  0  0  0  0  0  0  0  0
   31.1060   -8.6817  -17.5171 C   0  0  0  0  0  0  0  0  0  0  0  0
   30.4677   -8.7927  -16.4414 O   0  0  0  0  0  0  0  0  0  0  0  0
   34.1592   -9.6194  -15.8150 C   0  0  0  0  0  0  0  0  0  0  0  0
   34.2911   -8.1474  -16.0783 C   0  0  1  0  0  0  0  0  0  0  0  0
   35.0027   -7.9628  -17.2569 O   0  0  0  0  0  0  0  0  0  0  0  0
   32.9317   -7.4747  -16.2658 C   0  0  2  0  0  0  0  0  0  0  0  0
   32.3556   -8.0067  -17.5038 N   0  0  0  0  0  0  0  0  0  0  0  0
   33.1797   -6.0181  -16.3894 C   0  0  0  0  0  0  0  0  0  0  0  0
   33.2630   -5.5197  -17.5645 O   0  0  0  0  0  0  0  0  0  0  0  0
   31.0918    1.0276  -16.5343 C   0  0  0  0  0  0  0  0  0  0  0  0
   30.8408   -0.7196  -16.1167 S   0  0  0  0  0  0  0  0  0  0  0  0
   32.4801   -1.4567  -15.8567 C   0  0  0  0  0  0  0  0  0  0  0  0
   32.2808   -2.9443  -15.7156 C   0  0  0  0  0  0  0  0  0  0  0  0
   33.5901   -3.6908  -15.5128 C   0  0  2  0  0  0  0  0  0  0  0  0
   33.3337   -5.1147  -15.3264 N   0  0  0  0  0  0  0  0  0  0  0  0
   34.3263   -3.2218  -14.3144 C   0  0  0  0  0  0  0  0  0  0  0  0
   35.1216   -2.0717  -14.3189 O   0  0  0  0  0  0  0  0  0  0  0  0
   34.2817   -3.8367  -13.2031 O   0  0  0  0  0  0  0  0  0  0  0  0
  2  9  1  0
  2  1  1  1
  3  2  1  0
  4  8  1  0
  4  3  1  0
  5  4  2  0
  6  5  1  0
  6  7  1  0
  7  8  2  0
  9 10  2  0
 12 11  1  6
 12 14  1  0
 13 12  1  0
 14 15  1  6
 15  9  1  0
 16 14  1  0
 16 17  2  0
 19 18  1  0
 19 20  1  0
 20 21  1  0
 22 21  1  1
 22 23  1  0
 22 24  1  0
 23 16  1  0
 24 26  2  0
 24 25  1  0
M  END
$$$$
