HTM.pdb
     RDKit          3D

 26 26  0  0  1  0  0  0  0  0999 V2000
   17.1155  -13.8467  -17.1463 N   0  0  0  0  0  0  0  0  0  0  0  0
   17.1106  -12.4265  -17.0720 C   0  0  1  0  0  0  0  0  0  0  0  0
   16.1771  -11.9515  -15.9920 C   0  0  0  0  0  0  0  0  0  0  0  0
   14.7982  -12.3989  -16.3472 C   0  0  0  0  0  0  0  0  0  0  0  0
   14.0361  -12.1134  -17.4455 C   0  0  0  0  0  0  0  0  0  0  0  0
   12.8706  -12.7623  -17.2874 N   0  0  0  0  0  0  0  0  0  0  0  0
   12.8960  -13.4359  -16.1267 C   0  0  0  0  0  0  0  0  0  0  0  0
   14.0945  -13.2227  -15.5205 N   0  0  0  0  0  0  0  0  0  0  0  0
   18.4681  -11.8389  -16.9481 C   0  0  0  0  0  0  0  0  0  0  0  0
   19.3099  -12.4249  -16.2237 O   0  0  0  0  0  0  0  0  0  0  0  0
   20.9234  -10.9516  -19.6928 C   0  0  0  0  0  0  0  0  0  0  0  0
   20.6990   -9.7254  -18.8564 C   0  0  1  0  0  0  0  0  0  0  0  0
   19.7243   -8.9409  -19.4598 O   0  0  0  0  0  0  0  0  0  0  0  0
   20.1922  -10.0713  -17.4566 C   0  0  2  0  0  0  0  0  0  0  0  0
   18.8527  -10.6446  -17.6135 N   0  0  0  0  0  0  0  0  0  0  0  0
   20.1308   -8.8037  -16.6898 C   0  0  0  0  0  0  0  0  0  0  0  0
   19.0062   -8.1988  -16.6169 O   0  0  0  0  0  0  0  0  0  0  0  0
   21.0030   -7.4304  -10.7810 C   0  0  0  0  0  0  0  0  0  0  0  0
   22.0866   -6.1273  -11.4273 S   0  0  0  0  0  0  0  0  0  0  0  0
   21.5512   -5.7682  -13.1251 C   0  0  0  0  0  0  0  0  0  0  0  0
   21.5646   -7.0728  -13.8803 C   0  0  0  0  0  0  0  0  0  0  0  0
   21.0883   -6.9195  -15.3164 C   0  0  2  0  0  0  0  0  0  0  0  0
   21.2027   -8.1907  -16.0228 N   0  0  0  0  0  0  0  0  0  0  0  0
   21.8901   -5.9285  -16.0733 C   0  0  0  0  0  0  0  0  0  0  0  0
   21.6810   -4.5499  -15.9688 O   0  0  0  0  0  0  0  0  0  0  0  0
   22.8216   -6.2694  -16.8679 O   0  0  0  0  0  0  0  0  0  0  0  0
  2  9  1  0
  2  1  1  1
  3  2  1  0
  4  8  1  0
  4  3  1  0
  5  4  2  0
  6  5  1  0
  6  7  1  0
  7  8  2  0
  9 10  2  0
 12 11  1  6
 12 14  1  0
 13 12  1  0
 14 15  1  6
 15  9  1  0
 16 14  1  0
 16 17  2  0
 19 18  1  0
 19 20  1  0
 20 21  1  0
 22 21  1  1
 22 23  1  0
 22 24  1  0
 23 16  1  0
 24 26  2  0
 24 25  1  0
M  END
$$$$
