HTM.pdb
     RDKit          3D

 26 26  0  0  1  0  0  0  0  0999 V2000
   18.5181  -11.2942  -16.4657 N   0  0  0  0  0  0  0  0  0  0  0  0
   18.7959   -9.9909  -16.9624 C   0  0  1  0  0  0  0  0  0  0  0  0
   17.6466   -9.4770  -17.7859 C   0  0  0  0  0  0  0  0  0  0  0  0
   17.4237  -10.4329  -18.9105 C   0  0  0  0  0  0  0  0  0  0  0  0
   18.2084  -10.7156  -19.9935 C   0  0  0  0  0  0  0  0  0  0  0  0
   17.5587  -11.6482  -20.7094 N   0  0  0  0  0  0  0  0  0  0  0  0
   16.4011  -11.9448  -20.0982 C   0  0  0  0  0  0  0  0  0  0  0  0
   16.2954  -11.1950  -18.9686 N   0  0  0  0  0  0  0  0  0  0  0  0
   19.2098   -9.0341  -15.9056 C   0  0  0  0  0  0  0  0  0  0  0  0
   18.4737   -8.9016  -14.8969 O   0  0  0  0  0  0  0  0  0  0  0  0
   21.8569   -9.0634  -13.5657 C   0  0  0  0  0  0  0  0  0  0  0  0
   22.0522   -7.7725  -14.3065 C   0  0  1  0  0  0  0  0  0  0  0  0
   22.9726   -7.9740  -15.3273 O   0  0  0  0  0  0  0  0  0  0  0  0
   20.7591   -7.2850  -14.9593 C   0  0  2  0  0  0  0  0  0  0  0  0
   20.4007   -8.2648  -15.9884 N   0  0  0  0  0  0  0  0  0  0  0  0
   21.0507   -5.9669  -15.5726 C   0  0  0  0  0  0  0  0  0  0  0  0
   21.0336   -5.8802  -16.8487 O   0  0  0  0  0  0  0  0  0  0  0  0
   19.4385   -0.0710  -19.1691 C   0  0  0  0  0  0  0  0  0  0  0  0
   19.3181   -1.7271  -18.4391 S   0  0  0  0  0  0  0  0  0  0  0  0
   20.6347   -1.8699  -17.1965 C   0  0  0  0  0  0  0  0  0  0  0  0
   20.5426   -3.2551  -16.6089 C   0  0  0  0  0  0  0  0  0  0  0  0
   21.5957   -3.5061  -15.5410 C   0  0  2  0  0  0  0  0  0  0  0  0
   21.3478   -4.7828  -14.8802 N   0  0  0  0  0  0  0  0  0  0  0  0
   21.5894   -2.4634  -14.4871 C   0  0  0  0  0  0  0  0  0  0  0  0
   22.3270   -1.2801  -14.5913 O   0  0  0  0  0  0  0  0  0  0  0  0
   20.9111   -2.5785  -13.4185 O   0  0  0  0  0  0  0  0  0  0  0  0
  2  9  1  0
  2  1  1  1
  3  2  1  0
  4  8  1  0
  4  3  1  0
  5  4  2  0
  6  5  1  0
  6  7  1  0
  7  8  2  0
  9 10  2  0
 12 11  1  6
 12 14  1  0
 13 12  1  0
 14 15  1  6
 15  9  1  0
 16 14  1  0
 16 17  2  0
 19 18  1  0
 19 20  1  0
 20 21  1  0
 22 21  1  6
 22 23  1  0
 22 24  1  0
 23 16  1  0
 24 26  2  0
 24 25  1  0
M  END
$$$$
