HTM.pdb
     RDKit          3D

 26 26  0  0  1  0  0  0  0  0999 V2000
   20.6934  -15.9291  -17.4608 N   0  0  0  0  0  0  0  0  0  0  0  0
   20.5617  -14.9404  -16.4470 C   0  0  1  0  0  0  0  0  0  0  0  0
   21.4628  -15.2467  -15.2819 C   0  0  0  0  0  0  0  0  0  0  0  0
   21.1487  -16.6271  -14.8087 C   0  0  0  0  0  0  0  0  0  0  0  0
   19.9800  -17.1474  -14.3272 C   0  0  0  0  0  0  0  0  0  0  0  0
   20.2201  -18.4373  -14.0391 N   0  0  0  0  0  0  0  0  0  0  0  0
   21.4993  -18.7222  -14.3293 C   0  0  0  0  0  0  0  0  0  0  0  0
   22.1005  -17.6024  -14.8131 N   0  0  0  0  0  0  0  0  0  0  0  0
   20.7353  -13.5547  -16.9502 C   0  0  0  0  0  0  0  0  0  0  0  0
   21.7447  -13.2945  -17.6504 O   0  0  0  0  0  0  0  0  0  0  0  0
   18.4254  -11.6607  -19.1688 C   0  0  0  0  0  0  0  0  0  0  0  0
   18.6467  -10.8280  -17.9395 C   0  0  1  0  0  0  0  0  0  0  0  0
   17.6265  -11.0846  -17.0323 O   0  0  0  0  0  0  0  0  0  0  0  0
   19.9626  -11.1729  -17.2429 C   0  0  2  0  0  0  0  0  0  0  0  0
   19.8091  -12.5143  -16.6730 N   0  0  0  0  0  0  0  0  0  0  0  0
   20.1634  -10.1698  -16.1696 C   0  0  0  0  0  0  0  0  0  0  0  0
   19.8825  -10.5093  -14.9688 O   0  0  0  0  0  0  0  0  0  0  0  0
   22.9051   -4.1530  -16.7344 C   0  0  0  0  0  0  0  0  0  0  0  0
   23.3312   -4.7072  -15.0607 S   0  0  0  0  0  0  0  0  0  0  0  0
   22.0206   -5.8390  -14.5133 C   0  0  0  0  0  0  0  0  0  0  0  0
   21.8873   -6.9075  -15.5683 C   0  0  0  0  0  0  0  0  0  0  0  0
   20.7882   -7.9085  -15.2479 C   0  0  2  0  0  0  0  0  0  0  0  0
   20.6408   -8.8614  -16.3426 N   0  0  0  0  0  0  0  0  0  0  0  0
   19.4700   -7.2568  -15.0592 C   0  0  0  0  0  0  0  0  0  0  0  0
   19.0173   -6.8157  -13.8119 O   0  0  0  0  0  0  0  0  0  0  0  0
   18.6646   -7.0567  -16.0218 O   0  0  0  0  0  0  0  0  0  0  0  0
  2  9  1  0
  2  1  1  6
  3  2  1  0
  4  8  1  0
  4  3  1  0
  5  4  2  0
  6  5  1  0
  6  7  1  0
  7  8  2  0
  9 10  2  0
 12 11  1  6
 12 14  1  0
 13 12  1  0
 14 15  1  1
 15  9  1  0
 16 14  1  0
 16 17  2  0
 19 18  1  0
 19 20  1  0
 20 21  1  0
 22 21  1  6
 22 23  1  0
 22 24  1  0
 23 16  1  0
 24 26  2  0
 24 25  1  0
M  END
$$$$
