HTM.pdb
     RDKit          3D

 26 26  0  0  1  0  0  0  0  0999 V2000
   33.6257  -35.3572   -3.2094 N   0  0  0  0  0  0  0  0  0  0  0  0
   33.9087  -35.2076   -1.8237 C   0  0  1  0  0  0  0  0  0  0  0  0
   34.2461  -33.7779   -1.4988 C   0  0  0  0  0  0  0  0  0  0  0  0
   35.7323  -33.6632   -1.4198 C   0  0  0  0  0  0  0  0  0  0  0  0
   36.6959  -34.6270   -1.5255 C   0  0  0  0  0  0  0  0  0  0  0  0
   37.8796  -34.0083   -1.3829 N   0  0  0  0  0  0  0  0  0  0  0  0
   37.6701  -32.6961   -1.1932 C   0  0  0  0  0  0  0  0  0  0  0  0
   36.3316  -32.4570   -1.2126 N   0  0  0  0  0  0  0  0  0  0  0  0
   32.8458  -35.7543   -0.9436 C   0  0  0  0  0  0  0  0  0  0  0  0
   31.6467  -35.5474   -1.2540 O   0  0  0  0  0  0  0  0  0  0  0  0
   32.5655  -39.4216    0.4522 C   0  0  0  0  0  0  0  0  0  0  0  0
   32.5267  -38.4134    1.5637 C   0  0  1  0  0  0  0  0  0  0  0  0
   33.8102  -38.2516    2.0699 O   0  0  0  0  0  0  0  0  0  0  0  0
   32.0610  -37.0414    1.0771 C   0  0  2  0  0  0  0  0  0  0  0  0
   33.1285  -36.4997    0.2318 N   0  0  0  0  0  0  0  0  0  0  0  0
   31.8671  -36.1954    2.2792 C   0  0  0  0  0  0  0  0  0  0  0  0
   32.7500  -35.3070    2.5383 O   0  0  0  0  0  0  0  0  0  0  0  0
   27.0774  -34.0533    8.2105 C   0  0  0  0  0  0  0  0  0  0  0  0
   27.2583  -34.7388    6.5410 S   0  0  0  0  0  0  0  0  0  0  0  0
   29.0155  -34.6283    6.0960 C   0  0  0  0  0  0  0  0  0  0  0  0
   29.2032  -35.4218    4.8280 C   0  0  0  0  0  0  0  0  0  0  0  0
   30.6384  -35.3872    4.3263 C   0  0  2  0  0  0  0  0  0  0  0  0
   30.7911  -36.2726    3.1771 N   0  0  0  0  0  0  0  0  0  0  0  0
   31.6058  -35.8398    5.3545 C   0  0  0  0  0  0  0  0  0  0  0  0
   32.1347  -34.9815    6.3235 O   0  0  0  0  0  0  0  0  0  0  0  0
   32.0176  -37.0403    5.4214 O   0  0  0  0  0  0  0  0  0  0  0  0
  2  9  1  0
  2  1  1  6
  3  2  1  0
  4  8  1  0
  4  3  1  0
  5  4  2  0
  6  5  1  0
  6  7  1  0
  7  8  2  0
  9 10  2  0
 12 11  1  6
 12 14  1  0
 13 12  1  0
 14 15  1  6
 15  9  1  0
 16 14  1  0
 16 17  2  0
 19 18  1  0
 19 20  1  0
 20 21  1  0
 22 21  1  1
 22 23  1  0
 22 24  1  0
 23 16  1  0
 24 26  2  0
 24 25  1  0
M  END
$$$$
