HTM.pdb
     RDKit          3D

 26 26  0  0  1  0  0  0  0  0999 V2000
   28.6555  -24.1231  -18.4641 N   0  0  0  0  0  0  0  0  0  0  0  0
   27.9591  -24.1546  -17.2245 C   0  0  1  0  0  0  0  0  0  0  0  0
   28.4998  -25.2413  -16.3356 C   0  0  0  0  0  0  0  0  0  0  0  0
   28.0897  -26.5547  -16.9144 C   0  0  0  0  0  0  0  0  0  0  0  0
   28.8503  -27.5551  -17.4522 C   0  0  0  0  0  0  0  0  0  0  0  0
   28.0021  -28.5256  -17.8306 N   0  0  0  0  0  0  0  0  0  0  0  0
   26.7464  -28.1500  -17.5410 C   0  0  0  0  0  0  0  0  0  0  0  0
   26.7773  -26.9180  -16.9661 N   0  0  0  0  0  0  0  0  0  0  0  0
   27.9094  -22.8365  -16.5437 C   0  0  0  0  0  0  0  0  0  0  0  0
   28.9615  -22.1535  -16.4846 O   0  0  0  0  0  0  0  0  0  0  0  0
   26.5511  -19.5689  -17.1234 C   0  0  0  0  0  0  0  0  0  0  0  0
   25.8855  -20.0619  -15.8715 C   0  0  1  0  0  0  0  0  0  0  0  0
   24.6893  -20.6811  -16.2115 O   0  0  0  0  0  0  0  0  0  0  0  0
   26.7358  -21.1010  -15.1413 C   0  0  2  0  0  0  0  0  0  0  0  0
   26.7240  -22.3176  -15.9583 N   0  0  0  0  0  0  0  0  0  0  0  0
   26.0911  -21.3474  -13.8291 C   0  0  0  0  0  0  0  0  0  0  0  0
   25.2694  -22.3232  -13.7363 O   0  0  0  0  0  0  0  0  0  0  0  0
   26.1125  -19.9569   -6.0375 C   0  0  0  0  0  0  0  0  0  0  0  0
   26.7223  -19.5024   -7.6841 S   0  0  0  0  0  0  0  0  0  0  0  0
   25.8134  -20.5046   -8.8956 C   0  0  0  0  0  0  0  0  0  0  0  0
   26.4365  -20.2450  -10.2436 C   0  0  0  0  0  0  0  0  0  0  0  0
   25.6966  -20.9465  -11.3720 C   0  0  2  0  0  0  0  0  0  0  0  0
   26.2972  -20.6040  -12.6566 N   0  0  0  0  0  0  0  0  0  0  0  0
   24.2693  -20.5516  -11.4411 C   0  0  0  0  0  0  0  0  0  0  0  0
   23.2608  -21.2437  -10.7635 O   0  0  0  0  0  0  0  0  0  0  0  0
   23.8697  -19.5560  -12.1224 O   0  0  0  0  0  0  0  0  0  0  0  0
  2  9  1  0
  2  1  1  6
  3  2  1  0
  4  8  1  0
  4  3  1  0
  5  4  2  0
  6  5  1  0
  6  7  1  0
  7  8  2  0
  9 10  2  0
 12 11  1  6
 12 14  1  0
 13 12  1  0
 14 15  1  6
 15  9  1  0
 16 14  1  0
 16 17  2  0
 19 18  1  0
 19 20  1  0
 20 21  1  0
 22 21  1  1
 22 23  1  0
 22 24  1  0
 23 16  1  0
 24 26  2  0
 24 25  1  0
M  END
$$$$
