HTM.pdb
     RDKit          3D

 26 26  0  0  1  0  0  0  0  0999 V2000
   21.1133  -12.3914  -19.6451 N   0  0  0  0  0  0  0  0  0  0  0  0
   20.5501  -11.5190  -18.6734 C   0  0  1  0  0  0  0  0  0  0  0  0
   20.2262  -12.2664  -17.4085 C   0  0  0  0  0  0  0  0  0  0  0  0
   19.1982  -13.2982  -17.7350 C   0  0  0  0  0  0  0  0  0  0  0  0
   19.3343  -14.6440  -17.9326 C   0  0  0  0  0  0  0  0  0  0  0  0
   18.1077  -15.1220  -18.1998 N   0  0  0  0  0  0  0  0  0  0  0  0
   17.2256  -14.1106  -18.1719 C   0  0  0  0  0  0  0  0  0  0  0  0
   17.8868  -12.9581  -17.8825 N   0  0  0  0  0  0  0  0  0  0  0  0
   21.3714  -10.3082  -18.4230 C   0  0  0  0  0  0  0  0  0  0  0  0
   22.6041  -10.4507  -18.2302 O   0  0  0  0  0  0  0  0  0  0  0  0
   21.7428   -7.3384  -20.6049 C   0  0  0  0  0  0  0  0  0  0  0  0
   21.3549   -6.8138  -19.2530 C   0  0  1  0  0  0  0  0  0  0  0  0
   19.9852   -6.5827  -19.2357 O   0  0  0  0  0  0  0  0  0  0  0  0
   21.6536   -7.8189  -18.1409 C   0  0  2  0  0  0  0  0  0  0  0  0
   20.8219   -8.9989  -18.3929 N   0  0  0  0  0  0  0  0  0  0  0  0
   21.2738   -7.1767  -16.8596 C   0  0  0  0  0  0  0  0  0  0  0  0
   20.2694   -7.6496  -16.2242 O   0  0  0  0  0  0  0  0  0  0  0  0
   22.5899   -8.9985  -12.3893 C   0  0  0  0  0  0  0  0  0  0  0  0
   21.7999   -7.6925  -11.4094 S   0  0  0  0  0  0  0  0  0  0  0  0
   21.6177   -6.2410  -12.4855 C   0  0  0  0  0  0  0  0  0  0  0  0
   21.8189   -6.7114  -13.9036 C   0  0  0  0  0  0  0  0  0  0  0  0
   21.6087   -5.6009  -14.9210 C   0  0  2  0  0  0  0  0  0  0  0  0
   21.9188   -6.0825  -16.2627 N   0  0  0  0  0  0  0  0  0  0  0  0
   22.4830   -4.4309  -14.6669 C   0  0  0  0  0  0  0  0  0  0  0  0
   22.1796   -3.4546  -13.7129 O   0  0  0  0  0  0  0  0  0  0  0  0
   23.5673   -4.2396  -15.3017 O   0  0  0  0  0  0  0  0  0  0  0  0
  2  9  1  0
  2  1  1  6
  3  2  1  0
  4  8  1  0
  4  3  1  0
  5  4  2  0
  6  5  1  0
  6  7  1  0
  7  8  2  0
  9 10  2  0
 12 11  1  6
 12 14  1  0
 13 12  1  0
 14 15  1  6
 15  9  1  0
 16 14  1  0
 16 17  2  0
 19 18  1  0
 19 20  1  0
 20 21  1  0
 22 21  1  1
 22 23  1  0
 22 24  1  0
 23 16  1  0
 24 26  2  0
 24 25  1  0
M  END
$$$$
