HTM.pdb
     RDKit          3D

 26 26  0  0  1  0  0  0  0  0999 V2000
   19.3083  -10.4512  -15.4107 N   0  0  0  0  0  0  0  0  0  0  0  0
   18.3237  -10.4156  -14.3852 C   0  0  1  0  0  0  0  0  0  0  0  0
   18.1234  -11.7825  -13.7894 C   0  0  0  0  0  0  0  0  0  0  0  0
   17.4563  -12.6374  -14.8152 C   0  0  0  0  0  0  0  0  0  0  0  0
   17.0266  -12.3265  -16.0750 C   0  0  0  0  0  0  0  0  0  0  0  0
   16.4937  -13.4470  -16.5899 N   0  0  0  0  0  0  0  0  0  0  0  0
   16.5841  -14.4335  -15.6842 C   0  0  0  0  0  0  0  0  0  0  0  0
   17.1841  -13.9489  -14.5642 N   0  0  0  0  0  0  0  0  0  0  0  0
   18.5844   -9.3796  -13.3546 C   0  0  0  0  0  0  0  0  0  0  0  0
   19.6740   -9.4165  -12.7314 O   0  0  0  0  0  0  0  0  0  0  0  0
   19.6673   -6.2390  -13.5456 C   0  0  0  0  0  0  0  0  0  0  0  0
   18.3605   -6.0593  -12.8289 C   0  0  1  0  0  0  0  0  0  0  0  0
   17.3631   -5.8173  -13.7651 O   0  0  0  0  0  0  0  0  0  0  0  0
   17.9539   -7.3132  -12.0553 C   0  0  2  0  0  0  0  0  0  0  0  0
   17.6548   -8.3513  -13.0454 N   0  0  0  0  0  0  0  0  0  0  0  0
   16.7401   -6.9700  -11.2761 C   0  0  0  0  0  0  0  0  0  0  0  0
   15.7303   -7.7504  -11.3607 O   0  0  0  0  0  0  0  0  0  0  0  0
   12.8963   -9.0821   -7.7119 C   0  0  0  0  0  0  0  0  0  0  0  0
   13.7581   -7.8647   -6.6798 S   0  0  0  0  0  0  0  0  0  0  0  0
   14.0241   -6.3829   -7.6954 C   0  0  0  0  0  0  0  0  0  0  0  0
   15.1659   -6.6855   -8.6320 C   0  0  0  0  0  0  0  0  0  0  0  0
   15.3771   -5.5904   -9.6659 C   0  0  2  0  0  0  0  0  0  0  0  0
   16.5861   -5.8544  -10.4385 N   0  0  0  0  0  0  0  0  0  0  0  0
   15.5415   -4.2539   -9.0457 C   0  0  0  0  0  0  0  0  0  0  0  0
   14.4586   -3.4908   -8.5982 O   0  0  0  0  0  0  0  0  0  0  0  0
   16.6804   -3.7146   -8.8803 O   0  0  0  0  0  0  0  0  0  0  0  0
  2  9  1  0
  2  1  1  6
  3  2  1  0
  4  8  1  0
  4  3  1  0
  5  4  2  0
  6  5  1  0
  6  7  1  0
  7  8  2  0
  9 10  2  0
 12 11  1  6
 12 14  1  0
 13 12  1  0
 14 15  1  6
 15  9  1  0
 16 14  1  0
 16 17  2  0
 19 18  1  0
 19 20  1  0
 20 21  1  0
 22 21  1  1
 22 23  1  0
 22 24  1  0
 23 16  1  0
 24 26  2  0
 24 25  1  0
M  END
$$$$
