HTM.pdb
     RDKit          3D

 26 26  0  0  1  0  0  0  0  0999 V2000
   19.4737  -13.1698  -18.3682 N   0  0  0  0  0  0  0  0  0  0  0  0
   20.5903  -12.2925  -18.4472 C   0  0  1  0  0  0  0  0  0  0  0  0
   21.2934  -12.4407  -19.7689 C   0  0  0  0  0  0  0  0  0  0  0  0
   21.7396  -13.8595  -19.8954 C   0  0  0  0  0  0  0  0  0  0  0  0
   21.3550  -14.8270  -20.7812 C   0  0  0  0  0  0  0  0  0  0  0  0
   22.0527  -15.9330  -20.4737 N   0  0  0  0  0  0  0  0  0  0  0  0
   22.8521  -15.6720  -19.4274 C   0  0  0  0  0  0  0  0  0  0  0  0
   22.6725  -14.3785  -19.0484 N   0  0  0  0  0  0  0  0  0  0  0  0
   20.2522  -10.8804  -18.1390 C   0  0  0  0  0  0  0  0  0  0  0  0
   19.5467  -10.2416  -18.9582 O   0  0  0  0  0  0  0  0  0  0  0  0
   17.9450   -9.6426  -16.0254 C   0  0  0  0  0  0  0  0  0  0  0  0
   19.2016   -8.9906  -15.5261 C   0  0  1  0  0  0  0  0  0  0  0  0
   19.7495   -9.7789  -14.5221 O   0  0  0  0  0  0  0  0  0  0  0  0
   20.2576   -8.8655  -16.6238 C   0  0  2  0  0  0  0  0  0  0  0  0
   20.6927  -10.2242  -16.9590 N   0  0  0  0  0  0  0  0  0  0  0  0
   21.3824   -8.0818  -16.0591 C   0  0  0  0  0  0  0  0  0  0  0  0
   22.3730   -8.7220  -15.5641 O   0  0  0  0  0  0  0  0  0  0  0  0
   26.1379   -2.0223  -16.8939 C   0  0  0  0  0  0  0  0  0  0  0  0
   24.6973   -2.9833  -17.4333 S   0  0  0  0  0  0  0  0  0  0  0  0
   24.3191   -4.1788  -16.1195 C   0  0  0  0  0  0  0  0  0  0  0  0
   23.1531   -5.0075  -16.5953 C   0  0  0  0  0  0  0  0  0  0  0  0
   22.6465   -5.9664  -15.5292 C   0  0  2  0  0  0  0  0  0  0  0  0
   21.4711   -6.6818  -16.0136 N   0  0  0  0  0  0  0  0  0  0  0  0
   22.2462   -5.2658  -14.2855 C   0  0  0  0  0  0  0  0  0  0  0  0
   23.1625   -4.9102  -13.2908 O   0  0  0  0  0  0  0  0  0  0  0  0
   21.0413   -4.9425  -14.0428 O   0  0  0  0  0  0  0  0  0  0  0  0
  2  9  1  0
  2  1  1  6
  3  2  1  0
  4  8  1  0
  4  3  1  0
  5  4  2  0
  6  5  1  0
  6  7  1  0
  7  8  2  0
  9 10  2  0
 12 11  1  6
 12 14  1  0
 13 12  1  0
 14 15  1  1
 15  9  1  0
 16 14  1  0
 16 17  2  0
 19 18  1  0
 19 20  1  0
 20 21  1  0
 22 21  1  6
 22 23  1  0
 22 24  1  0
 23 16  1  0
 24 26  2  0
 24 25  1  0
M  END
$$$$
