HTM.pdb
     RDKit          3D

 26 26  0  0  1  0  0  0  0  0999 V2000
   15.4054  -10.9232  -11.7994 N   0  0  0  0  0  0  0  0  0  0  0  0
   15.1565   -9.5509  -11.5214 C   0  0  1  0  0  0  0  0  0  0  0  0
   14.8359   -9.3506  -10.0652 C   0  0  0  0  0  0  0  0  0  0  0  0
   13.4925   -9.9467   -9.8044 C   0  0  0  0  0  0  0  0  0  0  0  0
   12.2448   -9.4463  -10.0525 C   0  0  0  0  0  0  0  0  0  0  0  0
   11.3661  -10.3716   -9.6329 N   0  0  0  0  0  0  0  0  0  0  0  0
   12.0374  -11.4224   -9.1358 C   0  0  0  0  0  0  0  0  0  0  0  0
   13.3716  -11.1780   -9.2332 N   0  0  0  0  0  0  0  0  0  0  0  0
   16.2367   -8.6493  -11.9942 C   0  0  0  0  0  0  0  0  0  0  0  0
   17.3943   -8.8100  -11.5347 O   0  0  0  0  0  0  0  0  0  0  0  0
   18.3604   -8.7050  -14.5319 C   0  0  0  0  0  0  0  0  0  0  0  0
   17.5716   -7.4507  -14.7727 C   0  0  1  0  0  0  0  0  0  0  0  0
   16.4258   -7.7701  -15.4903 O   0  0  0  0  0  0  0  0  0  0  0  0
   17.1153   -6.8011  -13.4666 C   0  0  2  0  0  0  0  0  0  0  0  0
   16.0154   -7.6153  -12.9424 N   0  0  0  0  0  0  0  0  0  0  0  0
   16.6412   -5.4367  -13.8011 C   0  0  0  0  0  0  0  0  0  0  0  0
   15.3965   -5.2761  -14.0483 O   0  0  0  0  0  0  0  0  0  0  0  0
   14.6666    1.5419  -12.2324 C   0  0  0  0  0  0  0  0  0  0  0  0
   15.1577   -0.1658  -11.8679 S   0  0  0  0  0  0  0  0  0  0  0  0
   15.9201   -0.8441  -13.3701 C   0  0  0  0  0  0  0  0  0  0  0  0
   16.3334   -2.2598  -13.0580 C   0  0  0  0  0  0  0  0  0  0  0  0
   16.9203   -2.9749  -14.2650 C   0  0  2  0  0  0  0  0  0  0  0  0
   17.4360   -4.2822  -13.8736 N   0  0  0  0  0  0  0  0  0  0  0  0
   18.0483   -2.2266  -14.8697 C   0  0  0  0  0  0  0  0  0  0  0  0
   17.8596   -1.1768  -15.7739 O   0  0  0  0  0  0  0  0  0  0  0  0
   19.2625   -2.4920  -14.6044 O   0  0  0  0  0  0  0  0  0  0  0  0
  2  9  1  0
  2  1  1  1
  3  2  1  0
  4  8  1  0
  4  3  1  0
  5  4  2  0
  6  5  1  0
  6  7  1  0
  7  8  2  0
  9 10  2  0
 12 11  1  1
 12 14  1  0
 13 12  1  0
 14 15  1  6
 15  9  1  0
 16 14  1  0
 16 17  2  0
 19 18  1  0
 19 20  1  0
 20 21  1  0
 22 21  1  1
 22 23  1  0
 22 24  1  0
 23 16  1  0
 24 26  2  0
 24 25  1  0
M  END
$$$$
