HTM.pdb
     RDKit          3D

 26 26  0  0  1  0  0  0  0  0999 V2000
   18.3143  -12.4934  -15.9486 N   0  0  0  0  0  0  0  0  0  0  0  0
   17.3301  -11.9243  -15.0942 C   0  0  1  0  0  0  0  0  0  0  0  0
   16.6374  -12.9920  -14.2920 C   0  0  0  0  0  0  0  0  0  0  0  0
   15.8309  -13.8234  -15.2334 C   0  0  0  0  0  0  0  0  0  0  0  0
   15.6050  -13.6673  -16.5725 C   0  0  0  0  0  0  0  0  0  0  0  0
   14.8117  -14.6827  -16.9522 N   0  0  0  0  0  0  0  0  0  0  0  0
   14.5453  -15.4549  -15.8871 C   0  0  0  0  0  0  0  0  0  0  0  0
   15.1737  -14.9353  -14.7989 N   0  0  0  0  0  0  0  0  0  0  0  0
   17.8527  -10.8250  -14.2446 C   0  0  0  0  0  0  0  0  0  0  0  0
   18.9307  -11.0070  -13.6268 O   0  0  0  0  0  0  0  0  0  0  0  0
   19.0055   -7.5907  -15.2707 C   0  0  0  0  0  0  0  0  0  0  0  0
   17.9629   -7.3038  -14.2294 C   0  0  1  0  0  0  0  0  0  0  0  0
   16.7512   -7.0559  -14.8618 O   0  0  0  0  0  0  0  0  0  0  0  0
   17.7449   -8.4926  -13.2939 C   0  0  2  0  0  0  0  0  0  0  0  0
   17.1855   -9.5793  -14.1025 N   0  0  0  0  0  0  0  0  0  0  0  0
   16.7755   -8.0602  -12.2586 C   0  0  0  0  0  0  0  0  0  0  0  0
   15.5976   -8.5576  -12.2923 O   0  0  0  0  0  0  0  0  0  0  0  0
   12.2881   -7.3325   -7.0299 C   0  0  0  0  0  0  0  0  0  0  0  0
   13.5557   -8.0261   -8.1263 S   0  0  0  0  0  0  0  0  0  0  0  0
   15.0170   -6.9538   -8.0138 C   0  0  0  0  0  0  0  0  0  0  0  0
   16.0171   -7.4585   -9.0227 C   0  0  0  0  0  0  0  0  0  0  0  0
   15.9955   -6.6574  -10.3151 C   0  0  2  0  0  0  0  0  0  0  0  0
   17.0263   -7.1437  -11.2257 N   0  0  0  0  0  0  0  0  0  0  0  0
   16.2605   -5.2163  -10.0894 C   0  0  0  0  0  0  0  0  0  0  0  0
   15.2524   -4.3063   -9.7563 O   0  0  0  0  0  0  0  0  0  0  0  0
   17.4241   -4.7142  -10.1843 O   0  0  0  0  0  0  0  0  0  0  0  0
  2  9  1  0
  2  1  1  1
  3  2  1  0
  4  8  1  0
  4  3  1  0
  5  4  2  0
  6  5  1  0
  6  7  1  0
  7  8  2  0
  9 10  2  0
 12 11  1  6
 12 14  1  0
 13 12  1  0
 14 15  1  6
 15  9  1  0
 16 14  1  0
 16 17  2  0
 19 18  1  0
 19 20  1  0
 20 21  1  0
 22 21  1  1
 22 23  1  0
 22 24  1  0
 23 16  1  0
 24 26  2  0
 24 25  1  0
M  END
$$$$
