KLH.pdb
     RDKit          3D

 28 28  0  0  1  0  0  0  0  0999 V2000
    7.2789  -15.8080   21.1996 N   0  0  0  0  0  0  0  0  0  0  0  0
    8.4305  -14.9748   21.3279 C   0  0  1  0  0  0  0  0  0  0  0  0
    8.2184  -13.6342   20.6601 C   0  0  0  0  0  0  0  0  0  0  0  0
    7.7146  -13.7714   19.2589 C   0  0  0  0  0  0  0  0  0  0  0  0
    8.3769  -12.8522   18.2798 C   0  0  0  0  0  0  0  0  0  0  0  0
    7.8279  -12.9963   16.8799 C   0  0  0  0  0  0  0  0  0  0  0  0
    8.7421  -13.8444   16.1361 N   0  0  0  0  0  0  0  0  0  0  0  0
    8.8304  -14.8113   22.7549 C   0  0  0  0  0  0  0  0  0  0  0  0
    9.9748  -14.3522   22.9651 O   0  0  0  0  0  0  0  0  0  0  0  0
    5.5547  -12.9416   26.6743 C   0  0  0  0  0  0  0  0  0  0  0  0
    6.7858  -13.2188   25.7984 C   0  0  1  0  0  0  0  0  0  0  0  0
    7.8001  -12.1616   26.2484 C   0  0  0  0  0  0  0  0  0  0  0  0
    7.2467  -14.5918   26.1348 C   0  0  0  0  0  0  0  0  0  0  0  0
    8.3251  -15.1390   25.2167 C   0  0  2  0  0  0  0  0  0  0  0  0
    8.0027  -15.1408   23.8320 N   0  0  0  0  0  0  0  0  0  0  0  0
    8.8238  -16.4070   25.7548 C   0  0  0  0  0  0  0  0  0  0  0  0
    7.9915  -17.3599   25.9928 O   0  0  0  0  0  0  0  0  0  0  0  0
   10.1681  -16.6709   26.0370 N   0  0  0  0  0  0  0  0  0  0  0  0
   10.5503  -17.9794   26.6422 C   0  0  1  0  0  0  0  0  0  0  0  0
   11.8910  -18.2970   26.0506 C   0  0  0  0  0  0  0  0  0  0  0  0
   11.8358  -18.6213   24.6180 C   0  0  0  0  0  0  0  0  0  0  0  0
   10.8764  -19.1641   23.8208 C   0  0  0  0  0  0  0  0  0  0  0  0
   11.3101  -19.1945   22.5450 N   0  0  0  0  0  0  0  0  0  0  0  0
   12.5253  -18.6737   22.5576 C   0  0  0  0  0  0  0  0  0  0  0  0
   12.8631  -18.3227   23.7849 N   0  0  0  0  0  0  0  0  0  0  0  0
   10.7720  -17.6787   28.0996 C   0  0  0  0  0  0  0  0  0  0  0  0
   11.1249  -18.6479   28.8397 O   0  0  0  0  0  0  0  0  0  0  0  0
   10.6222  -16.4514   28.6820 O   0  0  0  0  0  0  0  0  0  0  0  0
  2  1  1  1
  3  2  1  0
  3  4  1  0
  5  4  1  0
  5  6  1  0
  7  6  1  0
  8  9  2  0
  8  2  1  0
 11 10  1  1
 11 12  1  0
 11 13  1  0
 14 13  1  1
 14 15  1  0
 15  8  1  0
 16 18  1  0
 16 14  1  0
 17 16  2  0
 19 18  1  0
 19 26  1  0
 19 20  1  6
 20 21  1  0
 21 22  2  0
 22 23  1  0
 24 23  1  0
 25 21  1  0
 25 24  2  0
 26 28  1  0
 27 26  2  0
M  END
$$$$
