KLH.pdb
     RDKit          3D

 28 28  0  0  1  0  0  0  0  0999 V2000
    7.4545  -15.9760   20.9214 N   0  0  0  0  0  0  0  0  0  0  0  0
    8.7339  -15.3774   21.1257 C   0  0  1  0  0  0  0  0  0  0  0  0
    8.9755  -14.2463   20.1509 C   0  0  0  0  0  0  0  0  0  0  0  0
    8.0150  -14.2692   19.0053 C   0  0  0  0  0  0  0  0  0  0  0  0
    8.6176  -13.8638   17.6958 C   0  0  0  0  0  0  0  0  0  0  0  0
    7.5876  -13.7100   16.6015 C   0  0  0  0  0  0  0  0  0  0  0  0
    8.2910  -13.3369   15.3873 N   0  0  0  0  0  0  0  0  0  0  0  0
    8.9059  -14.9232   22.5354 C   0  0  0  0  0  0  0  0  0  0  0  0
   10.0583  -14.5722   22.8723 O   0  0  0  0  0  0  0  0  0  0  0  0
    8.2052  -12.0283   26.5807 C   0  0  0  0  0  0  0  0  0  0  0  0
    7.0401  -13.0243   26.6799 C   0  0  1  0  0  0  0  0  0  0  0  0
    5.8550  -12.1579   27.1203 C   0  0  0  0  0  0  0  0  0  0  0  0
    6.8331  -13.5742   25.3140 C   0  0  0  0  0  0  0  0  0  0  0  0
    7.9288  -14.5107   24.8371 C   0  0  2  0  0  0  0  0  0  0  0  0
    7.8629  -14.8761   23.4647 N   0  0  0  0  0  0  0  0  0  0  0  0
    8.0662  -15.6198   25.7843 C   0  0  0  0  0  0  0  0  0  0  0  0
    7.2566  -15.6987   26.7821 O   0  0  0  0  0  0  0  0  0  0  0  0
    9.0325  -16.6264   25.6868 N   0  0  0  0  0  0  0  0  0  0  0  0
    9.0698  -17.7128   26.7081 C   0  0  1  0  0  0  0  0  0  0  0  0
    9.2068  -18.9781   25.9152 C   0  0  0  0  0  0  0  0  0  0  0  0
    8.0453  -19.2608   25.0599 C   0  0  0  0  0  0  0  0  0  0  0  0
    6.7540  -18.8330   25.0693 C   0  0  0  0  0  0  0  0  0  0  0  0
    6.0964  -19.3517   24.0132 N   0  0  0  0  0  0  0  0  0  0  0  0
    6.9764  -20.0909   23.3594 C   0  0  0  0  0  0  0  0  0  0  0  0
    8.1494  -20.0530   23.9645 N   0  0  0  0  0  0  0  0  0  0  0  0
   10.3685  -17.5084   27.4396 C   0  0  0  0  0  0  0  0  0  0  0  0
   11.1639  -16.6390   26.9672 O   0  0  0  0  0  0  0  0  0  0  0  0
   10.7535  -18.1832   28.5639 O   0  0  0  0  0  0  0  0  0  0  0  0
  2  1  1  1
  3  2  1  0
  3  4  1  0
  5  4  1  0
  5  6  1  0
  7  6  1  0
  8  9  2  0
  8  2  1  0
 11 10  1  6
 11 12  1  0
 11 13  1  0
 14 13  1  1
 14 15  1  0
 15  8  1  0
 16 18  1  0
 16 14  1  0
 17 16  2  0
 19 18  1  0
 19 26  1  0
 19 20  1  6
 20 21  1  0
 21 22  2  0
 22 23  1  0
 24 23  1  0
 25 21  1  0
 25 24  2  0
 26 28  1  0
 27 26  2  0
M  END
$$$$
