KLH.pdb
     RDKit          3D

 28 28  0  0  1  0  0  0  0  0999 V2000
    6.8375  -15.8683   21.2018 N   0  0  0  0  0  0  0  0  0  0  0  0
    8.1164  -15.2350   21.1886 C   0  0  1  0  0  0  0  0  0  0  0  0
    8.1003  -13.9771   20.3486 C   0  0  0  0  0  0  0  0  0  0  0  0
    7.5165  -14.2082   18.9916 C   0  0  0  0  0  0  0  0  0  0  0  0
    8.2922  -13.5754   17.8780 C   0  0  0  0  0  0  0  0  0  0  0  0
    7.7249  -13.8961   16.5152 C   0  0  0  0  0  0  0  0  0  0  0  0
    8.5374  -13.2064   15.5292 N   0  0  0  0  0  0  0  0  0  0  0  0
    8.6029  -14.9570   22.5703 C   0  0  0  0  0  0  0  0  0  0  0  0
    9.7880  -14.5717   22.6782 O   0  0  0  0  0  0  0  0  0  0  0  0
    5.7488  -12.5122   26.6175 C   0  0  0  0  0  0  0  0  0  0  0  0
    6.8676  -12.9447   25.6579 C   0  0  1  0  0  0  0  0  0  0  0  0
    8.0240  -11.9965   25.9937 C   0  0  0  0  0  0  0  0  0  0  0  0
    7.2019  -14.3522   26.0011 C   0  0  0  0  0  0  0  0  0  0  0  0
    8.2105  -15.0063   25.0737 C   0  0  2  0  0  0  0  0  0  0  0  0
    7.8113  -15.1057   23.7127 N   0  0  0  0  0  0  0  0  0  0  0  0
    8.7003  -16.2445   25.6844 C   0  0  0  0  0  0  0  0  0  0  0  0
    7.8579  -17.1635   26.0054 O   0  0  0  0  0  0  0  0  0  0  0  0
   10.0464  -16.5142   25.9523 N   0  0  0  0  0  0  0  0  0  0  0  0
   10.4346  -17.8417   26.5105 C   0  0  1  0  0  0  0  0  0  0  0  0
   11.8542  -18.0408   26.0709 C   0  0  0  0  0  0  0  0  0  0  0  0
   11.9916  -18.2751   24.6263 C   0  0  0  0  0  0  0  0  0  0  0  0
   11.0962  -18.3568   23.6054 C   0  0  0  0  0  0  0  0  0  0  0  0
   11.7512  -18.5270   22.4397 N   0  0  0  0  0  0  0  0  0  0  0  0
   13.0383  -18.5484   22.7414 C   0  0  0  0  0  0  0  0  0  0  0  0
   13.2089  -18.3995   24.0423 N   0  0  0  0  0  0  0  0  0  0  0  0
   10.4592  -17.6394   28.0012 C   0  0  0  0  0  0  0  0  0  0  0  0
   10.2439  -16.4625   28.4255 O   0  0  0  0  0  0  0  0  0  0  0  0
   10.6951  -18.6188   28.9248 O   0  0  0  0  0  0  0  0  0  0  0  0
  2  1  1  1
  3  2  1  0
  3  4  1  0
  5  4  1  0
  5  6  1  0
  7  6  1  0
  8  9  2  0
  8  2  1  0
 11 10  1  1
 11 12  1  0
 11 13  1  0
 14 13  1  1
 14 15  1  0
 15  8  1  0
 16 18  1  0
 16 14  1  0
 17 16  2  0
 19 18  1  0
 19 26  1  0
 19 20  1  6
 20 21  1  0
 21 22  2  0
 22 23  1  0
 24 23  1  0
 25 21  1  0
 25 24  2  0
 26 28  1  0
 27 26  2  0
M  END
$$$$
