KLH.pdb
     RDKit          3D

 28 28  0  0  1  0  0  0  0  0999 V2000
    8.2569  -18.2253   17.5215 N   0  0  0  0  0  0  0  0  0  0  0  0
    9.5971  -17.7518   17.3926 C   0  0  1  0  0  0  0  0  0  0  0  0
    9.7930  -16.9968   16.0965 C   0  0  0  0  0  0  0  0  0  0  0  0
    8.7582  -17.3449   15.0748 C   0  0  0  0  0  0  0  0  0  0  0  0
    8.9234  -16.6282   13.7705 C   0  0  0  0  0  0  0  0  0  0  0  0
    7.9068  -17.0536   12.7374 C   0  0  0  0  0  0  0  0  0  0  0  0
    8.1593  -16.2848   11.5319 N   0  0  0  0  0  0  0  0  0  0  0  0
   10.0002  -16.9255   18.5665 C   0  0  0  0  0  0  0  0  0  0  0  0
   11.2191  -16.6666   18.6750 O   0  0  0  0  0  0  0  0  0  0  0  0
    6.4251  -13.1816   20.5407 C   0  0  0  0  0  0  0  0  0  0  0  0
    7.6821  -13.8608   19.9767 C   0  0  1  0  0  0  0  0  0  0  0  0
    8.6131  -12.6892   19.6454 C   0  0  0  0  0  0  0  0  0  0  0  0
    8.2367  -14.7032   21.0691 C   0  0  0  0  0  0  0  0  0  0  0  0
    9.3696  -15.6213   20.6460 C   0  0  2  0  0  0  0  0  0  0  0  0
    9.0976  -16.4448   19.5193 N   0  0  0  0  0  0  0  0  0  0  0  0
    9.9016  -16.3110   21.8238 C   0  0  0  0  0  0  0  0  0  0  0  0
    9.2590  -17.3161   22.3077 O   0  0  0  0  0  0  0  0  0  0  0  0
   11.0841  -15.9548   22.4805 N   0  0  0  0  0  0  0  0  0  0  0  0
   11.8567  -16.9934   23.2214 C   0  0  1  0  0  0  0  0  0  0  0  0
   12.3710  -17.9178   22.1587 C   0  0  0  0  0  0  0  0  0  0  0  0
   11.9834  -19.3204   22.3661 C   0  0  0  0  0  0  0  0  0  0  0  0
   11.2319  -19.9507   23.3087 C   0  0  0  0  0  0  0  0  0  0  0  0
   11.1292  -21.2602   23.0062 N   0  0  0  0  0  0  0  0  0  0  0  0
   11.8107  -21.4331   21.8865 C   0  0  0  0  0  0  0  0  0  0  0  0
   12.3311  -20.2886   21.4829 N   0  0  0  0  0  0  0  0  0  0  0  0
   13.0456  -16.2613   23.7817 C   0  0  0  0  0  0  0  0  0  0  0  0
   13.3857  -15.1859   23.1992 O   0  0  0  0  0  0  0  0  0  0  0  0
   13.7815  -16.6641   24.8606 O   0  0  0  0  0  0  0  0  0  0  0  0
  2  1  1  1
  3  2  1  0
  3  4  1  0
  5  4  1  0
  5  6  1  0
  7  6  1  0
  8  9  2  0
  8  2  1  0
 11 10  1  1
 11 12  1  0
 11 13  1  0
 14 13  1  1
 14 15  1  0
 15  8  1  0
 16 18  1  0
 16 14  1  0
 17 16  2  0
 19 18  1  0
 19 26  1  0
 19 20  1  6
 20 21  1  0
 21 22  2  0
 22 23  1  0
 24 23  1  0
 25 21  1  0
 25 24  2  0
 26 28  1  0
 27 26  2  0
M  END
$$$$
