KLH.pdb
     RDKit          3D

 28 28  0  0  1  0  0  0  0  0999 V2000
 4328.1621 3452.8572 1187.2408 N   0  0  0  0  0  0  0  0  0  0  0  0
 4328.8667 3453.6367 1186.2754 C   0  0  1  0  0  0  0  0  0  0  0  0
 4329.0854 3452.8618 1184.9941 C   0  0  0  0  0  0  0  0  0  0  0  0
 4328.6943 3451.4258 1185.1254 C   0  0  0  0  0  0  0  0  0  0  0  0
 4329.3232 3450.5261 1184.1078 C   0  0  0  0  0  0  0  0  0  0  0  0
 4329.3799 3449.0852 1184.5566 C   0  0  0  0  0  0  0  0  0  0  0  0
 4330.7671 3448.6582 1184.4901 N   0  0  0  0  0  0  0  0  0  0  0  0
 4328.1816 3454.9341 1186.0135 C   0  0  0  0  0  0  0  0  0  0  0  0
 4328.7837 3455.7434 1185.2723 O   0  0  0  0  0  0  0  0  0  0  0  0
 4323.7559 3457.0393 1187.8840 C   0  0  0  0  0  0  0  0  0  0  0  0
 4325.1421 3457.0559 1188.5477 C   0  0  1  0  0  0  0  0  0  0  0  0
 4325.3379 3455.6101 1189.0183 C   0  0  0  0  0  0  0  0  0  0  0  0
 4326.1182 3457.4202 1187.4868 C   0  0  0  0  0  0  0  0  0  0  0  0
 4326.1743 3456.4495 1186.3202 C   0  0  2  0  0  0  0  0  0  0  0  0
 4326.9336 3455.2693 1186.5461 N   0  0  0  0  0  0  0  0  0  0  0  0
 4326.4902 3457.1838 1185.0927 C   0  0  0  0  0  0  0  0  0  0  0  0
 4325.6060 3457.9692 1184.5846 O   0  0  0  0  0  0  0  0  0  0  0  0
 4327.7075 3457.0967 1184.4121 N   0  0  0  0  0  0  0  0  0  0  0  0
 4328.0308 3458.0933 1183.3496 C   0  0  1  0  0  0  0  0  0  0  0  0
 4327.6606 3459.4194 1183.9437 C   0  0  0  0  0  0  0  0  0  0  0  0
 4327.7568 3459.4509 1185.4103 C   0  0  0  0  0  0  0  0  0  0  0  0
 4327.0293 3460.0652 1186.3802 C   0  0  0  0  0  0  0  0  0  0  0  0
 4327.5015 3459.7163 1187.5935 N   0  0  0  0  0  0  0  0  0  0  0  0
 4328.5098 3458.8928 1187.3707 C   0  0  0  0  0  0  0  0  0  0  0  0
 4328.6841 3458.7175 1186.0740 N   0  0  0  0  0  0  0  0  0  0  0  0
 4329.5303 3458.0642 1183.2384 C   0  0  0  0  0  0  0  0  0  0  0  0
 4330.1870 3458.6233 1184.1698 O   0  0  0  0  0  0  0  0  0  0  0  0
 4330.2339 3457.4868 1182.2186 O   0  0  0  0  0  0  0  0  0  0  0  0
  2  1  1  1
  3  2  1  0
  3  4  1  0
  5  4  1  0
  5  6  1  0
  7  6  1  0
  8  9  2  0
  8  2  1  0
 11 10  1  6
 11 12  1  0
 11 13  1  0
 14 13  1  1
 14 15  1  0
 15  8  1  0
 16 18  1  0
 16 14  1  0
 17 16  2  0
 19 18  1  0
 19 26  1  0
 19 20  1  1
 20 21  1  0
 21 22  2  0
 22 23  1  0
 24 23  1  0
 25 21  1  0
 25 24  2  0
 26 28  1  0
 27 26  2  0
M  END
$$$$
