KLH.pdb
     RDKit          3D

 28 28  0  0  1  0  0  0  0  0999 V2000
   10.0461  -18.7806   18.2946 N   0  0  0  0  0  0  0  0  0  0  0  0
    9.2756  -18.4502   19.4496 C   0  0  1  0  0  0  0  0  0  0  0  0
    9.1682  -19.6255   20.3957 C   0  0  0  0  0  0  0  0  0  0  0  0
    7.8395  -20.3056   20.3076 C   0  0  0  0  0  0  0  0  0  0  0  0
    7.7085  -21.5055   21.1938 C   0  0  0  0  0  0  0  0  0  0  0  0
    6.3179  -22.0954   21.1765 C   0  0  0  0  0  0  0  0  0  0  0  0
    6.3395  -23.2920   21.9986 N   0  0  0  0  0  0  0  0  0  0  0  0
    9.8174  -17.2458   20.1418 C   0  0  0  0  0  0  0  0  0  0  0  0
   11.0621  -17.1711   20.2404 O   0  0  0  0  0  0  0  0  0  0  0  0
    7.0433  -12.4158   20.0833 C   0  0  0  0  0  0  0  0  0  0  0  0
    8.1116  -13.5120   19.9540 C   0  0  1  0  0  0  0  0  0  0  0  0
    9.2632  -12.8153   19.2209 C   0  0  0  0  0  0  0  0  0  0  0  0
    8.4998  -13.8929   21.3378 C   0  0  0  0  0  0  0  0  0  0  0  0
    9.4186  -15.0983   21.4272 C   0  0  2  0  0  0  0  0  0  0  0  0
    9.0140  -16.2301   20.6675 N   0  0  0  0  0  0  0  0  0  0  0  0
    9.7431  -15.3587   22.8318 C   0  0  0  0  0  0  0  0  0  0  0  0
   10.3438  -14.4496   23.5174 O   0  0  0  0  0  0  0  0  0  0  0  0
    9.4433  -16.5479   23.5043 N   0  0  0  0  0  0  0  0  0  0  0  0
    9.8444  -16.7079   24.9319 C   0  0  1  0  0  0  0  0  0  0  0  0
    8.5561  -16.9186   25.6696 C   0  0  0  0  0  0  0  0  0  0  0  0
    7.7222  -15.7106   25.7465 C   0  0  0  0  0  0  0  0  0  0  0  0
    8.0046  -14.3799   25.7339 C   0  0  0  0  0  0  0  0  0  0  0  0
    6.8580  -13.6722   25.7682 N   0  0  0  0  0  0  0  0  0  0  0  0
    5.8790  -14.5603   25.8003 C   0  0  0  0  0  0  0  0  0  0  0  0
    6.3691  -15.7864   25.7878 N   0  0  0  0  0  0  0  0  0  0  0  0
   10.5956  -18.0107   24.9763 C   0  0  0  0  0  0  0  0  0  0  0  0
   11.0083  -18.3981   26.1127 O   0  0  0  0  0  0  0  0  0  0  0  0
   10.8659  -18.8011   23.8946 O   0  0  0  0  0  0  0  0  0  0  0  0
  2  1  1  6
  3  2  1  0
  3  4  1  0
  5  4  1  0
  5  6  1  0
  7  6  1  0
  8  9  2  0
  8  2  1  0
 11 10  1  1
 11 12  1  0
 11 13  1  0
 14 13  1  1
 14 15  1  0
 15  8  1  0
 16 18  1  0
 16 14  1  0
 17 16  2  0
 19 18  1  0
 19 26  1  0
 19 20  1  1
 20 21  1  0
 21 22  2  0
 22 23  1  0
 24 23  1  0
 25 21  1  0
 25 24  2  0
 26 28  1  0
 27 26  2  0
M  END
$$$$
