KLH.pdb
     RDKit          3D

 28 28  0  0  1  0  0  0  0  0999 V2000
   10.5493  -18.1684   16.6569 N   0  0  0  0  0  0  0  0  0  0  0  0
    9.4541  -18.0456   17.5638 C   0  0  1  0  0  0  0  0  0  0  0  0
    8.9049  -19.4006   17.9520 C   0  0  0  0  0  0  0  0  0  0  0  0
    8.4228  -20.1778   16.7690 C   0  0  0  0  0  0  0  0  0  0  0  0
    7.6932  -21.4368   17.1225 C   0  0  0  0  0  0  0  0  0  0  0  0
    7.1287  -22.1439   15.9129 C   0  0  0  0  0  0  0  0  0  0  0  0
    6.4470  -23.3371   16.3816 N   0  0  0  0  0  0  0  0  0  0  0  0
    9.8276  -17.2481   18.7669 C   0  0  0  0  0  0  0  0  0  0  0  0
   11.0236  -17.3089   19.1280 O   0  0  0  0  0  0  0  0  0  0  0  0
    6.5675  -12.8987   20.3929 C   0  0  0  0  0  0  0  0  0  0  0  0
    7.7237  -13.7735   19.8855 C   0  0  1  0  0  0  0  0  0  0  0  0
    8.8393  -12.7665   19.5851 C   0  0  0  0  0  0  0  0  0  0  0  0
    8.0955  -14.6782   21.0053 C   0  0  0  0  0  0  0  0  0  0  0  0
    9.1622  -15.7028   20.6623 C   0  0  2  0  0  0  0  0  0  0  0  0
    8.9220  -16.4607   19.4835 N   0  0  0  0  0  0  0  0  0  0  0  0
    9.4938  -16.4784   21.8600 C   0  0  0  0  0  0  0  0  0  0  0  0
    8.6200  -17.2893   22.3460 O   0  0  0  0  0  0  0  0  0  0  0  0
   10.7172  -16.4060   22.5341 N   0  0  0  0  0  0  0  0  0  0  0  0
   10.9389  -17.2413   23.7497 C   0  0  1  0  0  0  0  0  0  0  0  0
   12.4104  -17.5290   23.7527 C   0  0  0  0  0  0  0  0  0  0  0  0
   12.8145  -18.5194   22.7445 C   0  0  0  0  0  0  0  0  0  0  0  0
   12.1291  -19.4404   22.0147 C   0  0  0  0  0  0  0  0  0  0  0  0
   12.9715  -20.0694   21.1712 N   0  0  0  0  0  0  0  0  0  0  0  0
   14.1644  -19.5385   21.3797 C   0  0  0  0  0  0  0  0  0  0  0  0
   14.0975  -18.6092   22.3153 N   0  0  0  0  0  0  0  0  0  0  0  0
   10.6684  -16.3171   24.9057 C   0  0  0  0  0  0  0  0  0  0  0  0
   10.8301  -16.7920   26.0718 O   0  0  0  0  0  0  0  0  0  0  0  0
   10.2640  -15.0162   24.7957 O   0  0  0  0  0  0  0  0  0  0  0  0
  2  1  1  6
  3  2  1  0
  3  4  1  0
  5  4  1  0
  5  6  1  0
  7  6  1  0
  8  9  2  0
  8  2  1  0
 11 10  1  1
 11 12  1  0
 11 13  1  0
 14 13  1  1
 14 15  1  0
 15  8  1  0
 16 18  1  0
 16 14  1  0
 17 16  2  0
 19 18  1  0
 19 26  1  0
 19 20  1  1
 20 21  1  0
 21 22  2  0
 22 23  1  0
 24 23  1  0
 25 21  1  0
 25 24  2  0
 26 28  1  0
 27 26  2  0
M  END
$$$$
