KLH.pdb
     RDKit          3D

 28 28  0  0  1  0  0  0  0  0999 V2000
    6.5246  -15.9541   21.2687 N   0  0  0  0  0  0  0  0  0  0  0  0
    7.8526  -15.4529   21.4174 C   0  0  1  0  0  0  0  0  0  0  0  0
    8.0475  -14.1687   20.6423 C   0  0  0  0  0  0  0  0  0  0  0  0
    7.9461  -14.3763   19.1650 C   0  0  0  0  0  0  0  0  0  0  0  0
    8.3392  -13.1813   18.3527 C   0  0  0  0  0  0  0  0  0  0  0  0
    8.3377  -13.4584   16.8678 C   0  0  0  0  0  0  0  0  0  0  0  0
    8.7650  -12.2445   16.1953 N   0  0  0  0  0  0  0  0  0  0  0  0
    8.2132  -15.2784   22.8536 C   0  0  0  0  0  0  0  0  0  0  0  0
    9.4290  -15.1354   23.1107 O   0  0  0  0  0  0  0  0  0  0  0  0
    5.2457  -12.2815   26.3611 C   0  0  0  0  0  0  0  0  0  0  0  0
    6.3544  -12.9395   25.5260 C   0  0  1  0  0  0  0  0  0  0  0  0
    7.5857  -12.0700   25.8034 C   0  0  0  0  0  0  0  0  0  0  0  0
    6.5296  -14.3158   26.0606 C   0  0  0  0  0  0  0  0  0  0  0  0
    7.5162  -15.1730   25.2880 C   0  0  2  0  0  0  0  0  0  0  0  0
    7.2754  -15.2688   23.8900 N   0  0  0  0  0  0  0  0  0  0  0  0
    7.7072  -16.4452   25.9887 C   0  0  0  0  0  0  0  0  0  0  0  0
    6.6755  -17.1222   26.3555 O   0  0  0  0  0  0  0  0  0  0  0  0
    8.9548  -16.9970   26.2979 N   0  0  0  0  0  0  0  0  0  0  0  0
    9.0265  -18.2508   27.1025 C   0  0  1  0  0  0  0  0  0  0  0  0
    9.4331  -19.3107   26.1230 C   0  0  0  0  0  0  0  0  0  0  0  0
    8.3203  -19.8025   25.2980 C   0  0  0  0  0  0  0  0  0  0  0  0
    6.9915  -19.5143   25.2570 C   0  0  0  0  0  0  0  0  0  0  0  0
    6.4074  -20.2074   24.2594 N   0  0  0  0  0  0  0  0  0  0  0  0
    7.3693  -20.9146   23.6912 C   0  0  0  0  0  0  0  0  0  0  0  0
    8.5228  -20.6902   24.2933 N   0  0  0  0  0  0  0  0  0  0  0  0
   10.1888  -18.0433   28.0349 C   0  0  0  0  0  0  0  0  0  0  0  0
   10.3593  -18.9128   28.9439 O   0  0  0  0  0  0  0  0  0  0  0  0
   11.0668  -16.9974   27.9780 O   0  0  0  0  0  0  0  0  0  0  0  0
  2  1  1  1
  3  2  1  0
  3  4  1  0
  5  4  1  0
  5  6  1  0
  7  6  1  0
  8  9  2  0
  8  2  1  0
 11 10  1  1
 11 12  1  0
 11 13  1  0
 14 13  1  1
 14 15  1  0
 15  8  1  0
 16 18  1  0
 16 14  1  0
 17 16  2  0
 19 18  1  0
 19 26  1  0
 19 20  1  6
 20 21  1  0
 21 22  2  0
 22 23  1  0
 24 23  1  0
 25 21  1  0
 25 24  2  0
 26 28  1  0
 27 26  2  0
M  END
$$$$
