KLH.pdb
     RDKit          3D

 28 28  0  0  1  0  0  0  0  0999 V2000
    8.3646  -16.5708   20.3820 N   0  0  0  0  0  0  0  0  0  0  0  0
    7.8895  -16.7505   21.7158 C   0  0  1  0  0  0  0  0  0  0  0  0
    8.2989  -18.0970   22.2703 C   0  0  0  0  0  0  0  0  0  0  0  0
    8.5923  -19.0899   21.1914 C   0  0  0  0  0  0  0  0  0  0  0  0
    8.9182  -20.4613   21.6967 C   0  0  0  0  0  0  0  0  0  0  0  0
    9.1480  -21.4549   20.5824 C   0  0  0  0  0  0  0  0  0  0  0  0
    9.3934  -22.7491   21.1933 N   0  0  0  0  0  0  0  0  0  0  0  0
    8.3319  -15.6407   22.6077 C   0  0  0  0  0  0  0  0  0  0  0  0
    9.5267  -15.2848   22.5059 O   0  0  0  0  0  0  0  0  0  0  0  0
    7.4804  -11.0727   25.4935 C   0  0  0  0  0  0  0  0  0  0  0  0
    7.0464  -12.3540   26.2210 C   0  0  1  0  0  0  0  0  0  0  0  0
    5.8297  -11.9135   27.0426 C   0  0  0  0  0  0  0  0  0  0  0  0
    6.6656  -13.3327   25.1684 C   0  0  0  0  0  0  0  0  0  0  0  0
    7.8370  -14.0343   24.5045 C   0  0  2  0  0  0  0  0  0  0  0  0
    7.4901  -15.0032   23.5235 N   0  0  0  0  0  0  0  0  0  0  0  0
    8.7819  -14.4799   25.5316 C   0  0  0  0  0  0  0  0  0  0  0  0
    9.2543  -13.6214   26.3665 O   0  0  0  0  0  0  0  0  0  0  0  0
    9.2218  -15.7992   25.6808 N   0  0  0  0  0  0  0  0  0  0  0  0
   10.2105  -16.1296   26.7476 C   0  0  1  0  0  0  0  0  0  0  0  0
    9.7022  -17.4007   27.3594 C   0  0  0  0  0  0  0  0  0  0  0  0
   10.5392  -17.8942   28.4624 C   0  0  0  0  0  0  0  0  0  0  0  0
   11.6240  -17.3880   29.1086 C   0  0  0  0  0  0  0  0  0  0  0  0
   11.9869  -18.2191   30.1059 N   0  0  0  0  0  0  0  0  0  0  0  0
   11.1316  -19.2269   30.0737 C   0  0  0  0  0  0  0  0  0  0  0  0
   10.2557  -19.0565   29.1004 N   0  0  0  0  0  0  0  0  0  0  0  0
   11.4748  -16.4717   26.0074 C   0  0  0  0  0  0  0  0  0  0  0  0
   12.4986  -16.7368   26.7096 O   0  0  0  0  0  0  0  0  0  0  0  0
   11.6032  -16.5171   24.6475 O   0  0  0  0  0  0  0  0  0  0  0  0
  2  1  1  6
  3  2  1  0
  3  4  1  0
  5  4  1  0
  5  6  1  0
  7  6  1  0
  8  9  2  0
  8  2  1  0
 11 10  1  6
 11 12  1  0
 11 13  1  0
 14 13  1  1
 14 15  1  0
 15  8  1  0
 16 18  1  0
 16 14  1  0
 17 16  2  0
 19 18  1  0
 19 26  1  0
 19 20  1  6
 20 21  1  0
 21 22  2  0
 22 23  1  0
 24 23  1  0
 25 21  1  0
 25 24  2  0
 26 28  1  0
 27 26  2  0
M  END
$$$$
