KLH.pdb
     RDKit          3D

 28 28  0  0  1  0  0  0  0  0999 V2000
    9.0142  -15.2903   20.3676 N   0  0  0  0  0  0  0  0  0  0  0  0
    8.1881  -15.8347   21.3961 C   0  0  1  0  0  0  0  0  0  0  0  0
    8.0492  -17.3345   21.2560 C   0  0  0  0  0  0  0  0  0  0  0  0
    7.4526  -17.7291   19.9430 C   0  0  0  0  0  0  0  0  0  0  0  0
    7.2978  -19.2076   19.7630 C   0  0  0  0  0  0  0  0  0  0  0  0
    6.6425  -19.5708   18.4513 C   0  0  0  0  0  0  0  0  0  0  0  0
    7.6843  -19.6256   17.4415 N   0  0  0  0  0  0  0  0  0  0  0  0
    8.6852  -15.4615   22.7513 C   0  0  0  0  0  0  0  0  0  0  0  0
    9.9263  -15.4480   22.9067 O   0  0  0  0  0  0  0  0  0  0  0  0
    5.5957  -12.4475   26.4713 C   0  0  0  0  0  0  0  0  0  0  0  0
    6.7444  -12.9105   25.5627 C   0  0  1  0  0  0  0  0  0  0  0  0
    7.8487  -11.8779   25.8147 C   0  0  0  0  0  0  0  0  0  0  0  0
    7.1448  -14.2612   26.0380 C   0  0  0  0  0  0  0  0  0  0  0  0
    8.1975  -14.9452   25.1842 C   0  0  2  0  0  0  0  0  0  0  0  0
    7.8451  -15.1366   23.8201 N   0  0  0  0  0  0  0  0  0  0  0  0
    8.6954  -16.1316   25.8846 C   0  0  0  0  0  0  0  0  0  0  0  0
    7.8886  -17.1062   26.1226 O   0  0  0  0  0  0  0  0  0  0  0  0
   10.0128  -16.2934   26.3258 N   0  0  0  0  0  0  0  0  0  0  0  0
   10.3987  -17.5380   27.0516 C   0  0  1  0  0  0  0  0  0  0  0  0
   11.8113  -17.8060   26.6263 C   0  0  0  0  0  0  0  0  0  0  0  0
   11.9168  -18.3805   25.2774 C   0  0  0  0  0  0  0  0  0  0  0  0
   10.9960  -18.7646   24.3526 C   0  0  0  0  0  0  0  0  0  0  0  0
   11.6224  -19.1773   23.2327 N   0  0  0  0  0  0  0  0  0  0  0  0
   12.9171  -19.0467   23.4667 C   0  0  0  0  0  0  0  0  0  0  0  0
   13.1198  -18.5719   24.6820 N   0  0  0  0  0  0  0  0  0  0  0  0
   10.4433  -17.1392   28.5016 C   0  0  0  0  0  0  0  0  0  0  0  0
   10.7828  -18.0352   29.3343 O   0  0  0  0  0  0  0  0  0  0  0  0
   10.1472  -15.8958   28.9857 O   0  0  0  0  0  0  0  0  0  0  0  0
  2  1  1  6
  3  2  1  0
  3  4  1  0
  5  4  1  0
  5  6  1  0
  7  6  1  0
  8  9  2  0
  8  2  1  0
 11 10  1  1
 11 12  1  0
 11 13  1  0
 14 13  1  1
 14 15  1  0
 15  8  1  0
 16 18  1  0
 16 14  1  0
 17 16  2  0
 19 18  1  0
 19 26  1  0
 19 20  1  6
 20 21  1  0
 21 22  2  0
 22 23  1  0
 24 23  1  0
 25 21  1  0
 25 24  2  0
 26 28  1  0
 27 26  2  0
M  END
$$$$
