KLH.pdb
     RDKit          3D

 28 28  0  0  1  0  0  0  0  0999 V2000
    9.8637  -18.1259   16.6562 N   0  0  0  0  0  0  0  0  0  0  0  0
    8.9299  -17.9365   17.7188 C   0  0  1  0  0  0  0  0  0  0  0  0
    8.4623  -19.2591   18.2846 C   0  0  0  0  0  0  0  0  0  0  0  0
    9.5769  -20.2477   18.4123 C   0  0  0  0  0  0  0  0  0  0  0  0
    9.1566  -21.5721   18.9704 C   0  0  0  0  0  0  0  0  0  0  0  0
   10.3072  -22.5420   19.1023 C   0  0  0  0  0  0  0  0  0  0  0  0
    9.7903  -23.7546   19.7110 N   0  0  0  0  0  0  0  0  0  0  0  0
    9.4878  -17.0579   18.7865 C   0  0  0  0  0  0  0  0  0  0  0  0
   10.7346  -16.9835   18.8537 O   0  0  0  0  0  0  0  0  0  0  0  0
    6.2760  -12.9927   21.1559 C   0  0  0  0  0  0  0  0  0  0  0  0
    7.3494  -13.7682   20.3775 C   0  0  1  0  0  0  0  0  0  0  0  0
    8.2657  -12.6703   19.8260 C   0  0  0  0  0  0  0  0  0  0  0  0
    8.0589  -14.6218   21.3668 C   0  0  0  0  0  0  0  0  0  0  0  0
    9.1240  -15.5260   20.7725 C   0  0  2  0  0  0  0  0  0  0  0  0
    8.6968  -16.3377   19.6861 N   0  0  0  0  0  0  0  0  0  0  0  0
    9.8244  -16.2261   21.8519 C   0  0  0  0  0  0  0  0  0  0  0  0
    9.3941  -17.3761   22.2388 O   0  0  0  0  0  0  0  0  0  0  0  0
   10.9538  -15.7309   22.5120 N   0  0  0  0  0  0  0  0  0  0  0  0
   11.5548  -16.5129   23.6309 C   0  0  1  0  0  0  0  0  0  0  0  0
   12.9369  -15.9532   23.7891 C   0  0  0  0  0  0  0  0  0  0  0  0
   13.8588  -16.3609   22.7192 C   0  0  0  0  0  0  0  0  0  0  0  0
   13.7517  -17.2267   21.6755 C   0  0  0  0  0  0  0  0  0  0  0  0
   14.8800  -17.1913   20.9389 N   0  0  0  0  0  0  0  0  0  0  0  0
   15.6733  -16.3102   21.5241 C   0  0  0  0  0  0  0  0  0  0  0  0
   15.0861  -15.7990   22.5906 N   0  0  0  0  0  0  0  0  0  0  0  0
   10.7720  -16.1046   24.8490 C   0  0  0  0  0  0  0  0  0  0  0  0
   11.1227  -16.6170   25.9564 O   0  0  0  0  0  0  0  0  0  0  0  0
    9.7202  -15.2320   24.8531 O   0  0  0  0  0  0  0  0  0  0  0  0
  2  1  1  6
  3  2  1  0
  3  4  1  0
  5  4  1  0
  5  6  1  0
  7  6  1  0
  8  9  2  0
  8  2  1  0
 11 10  1  1
 11 12  1  0
 11 13  1  0
 14 13  1  1
 14 15  1  0
 15  8  1  0
 16 18  1  0
 16 14  1  0
 17 16  2  0
 19 18  1  0
 19 26  1  0
 19 20  1  1
 20 21  1  0
 21 22  2  0
 22 23  1  0
 24 23  1  0
 25 21  1  0
 25 24  2  0
 26 28  1  0
 27 26  2  0
M  END
$$$$
