KLH.pdb
     RDKit          3D

 28 28  0  0  1  0  0  0  0  0999 V2000
    8.5996  -17.8037   17.2509 N   0  0  0  0  0  0  0  0  0  0  0  0
    9.9488  -17.9795   17.6820 C   0  0  1  0  0  0  0  0  0  0  0  0
   10.9280  -17.6555   16.5755 C   0  0  0  0  0  0  0  0  0  0  0  0
   11.3988  -18.8798   15.8577 C   0  0  0  0  0  0  0  0  0  0  0  0
   12.5883  -18.6512   14.9773 C   0  0  0  0  0  0  0  0  0  0  0  0
   12.9806  -19.8820   14.1943 C   0  0  0  0  0  0  0  0  0  0  0  0
   12.0088  -20.0514   13.1288 N   0  0  0  0  0  0  0  0  0  0  0  0
   10.2379  -17.1853   18.9103 C   0  0  0  0  0  0  0  0  0  0  0  0
   11.3933  -17.2833   19.3795 O   0  0  0  0  0  0  0  0  0  0  0  0
    7.9391  -13.6835   19.0453 C   0  0  0  0  0  0  0  0  0  0  0  0
    8.1924  -13.4687   20.5450 C   0  0  1  0  0  0  0  0  0  0  0  0
    6.9686  -12.6729   21.0120 C   0  0  0  0  0  0  0  0  0  0  0  0
    8.2325  -14.8185   21.1673 C   0  0  0  0  0  0  0  0  0  0  0  0
    9.4295  -15.6629   20.7682 C   0  0  2  0  0  0  0  0  0  0  0  0
    9.2981  -16.3624   19.5373 N   0  0  0  0  0  0  0  0  0  0  0  0
    9.8597  -16.4680   21.9140 C   0  0  0  0  0  0  0  0  0  0  0  0
    9.4138  -17.6689   22.0416 O   0  0  0  0  0  0  0  0  0  0  0  0
   10.7404  -16.0233   22.9055 N   0  0  0  0  0  0  0  0  0  0  0  0
   11.2424  -16.9845   23.9295 C   0  0  1  0  0  0  0  0  0  0  0  0
   12.7065  -17.1238   23.6376 C   0  0  0  0  0  0  0  0  0  0  0  0
   13.0261  -18.2816   22.7901 C   0  0  0  0  0  0  0  0  0  0  0  0
   12.2648  -19.2317   22.1832 C   0  0  0  0  0  0  0  0  0  0  0  0
   13.0530  -20.0495   21.4575 N   0  0  0  0  0  0  0  0  0  0  0  0
   14.2881  -19.6051   21.6158 C   0  0  0  0  0  0  0  0  0  0  0  0
   14.2993  -18.5487   22.4079 N   0  0  0  0  0  0  0  0  0  0  0  0
   11.1219  -16.2506   25.2373 C   0  0  0  0  0  0  0  0  0  0  0  0
   10.7459  -15.0392   25.1844 O   0  0  0  0  0  0  0  0  0  0  0  0
   11.3855  -16.7849   26.4673 O   0  0  0  0  0  0  0  0  0  0  0  0
  2  1  1  6
  3  2  1  0
  3  4  1  0
  5  4  1  0
  5  6  1  0
  7  6  1  0
  8  9  2  0
  8  2  1  0
 11 10  1  6
 11 12  1  0
 11 13  1  0
 14 13  1  1
 14 15  1  0
 15  8  1  0
 16 18  1  0
 16 14  1  0
 17 16  2  0
 19 18  1  0
 19 26  1  0
 19 20  1  6
 20 21  1  0
 21 22  2  0
 22 23  1  0
 24 23  1  0
 25 21  1  0
 25 24  2  0
 26 28  1  0
 27 26  2  0
M  END
$$$$
