KLH.pdb
     RDKit          3D

 28 28  0  0  1  0  0  0  0  0999 V2000
    9.4976  -16.0973   19.5738 N   0  0  0  0  0  0  0  0  0  0  0  0
    8.5621  -16.4277   20.5998 C   0  0  1  0  0  0  0  0  0  0  0  0
    8.4721  -17.9239   20.8032 C   0  0  0  0  0  0  0  0  0  0  0  0
    7.8996  -18.6252   19.6131 C   0  0  0  0  0  0  0  0  0  0  0  0
    7.6582  -20.0878   19.8247 C   0  0  0  0  0  0  0  0  0  0  0  0
    7.0156  -20.7525   18.6301 C   0  0  0  0  0  0  0  0  0  0  0  0
    6.9420  -22.1758   18.9078 N   0  0  0  0  0  0  0  0  0  0  0  0
    8.8804  -15.7261   21.8762 C   0  0  0  0  0  0  0  0  0  0  0  0
   10.0914  -15.6328   22.1753 O   0  0  0  0  0  0  0  0  0  0  0  0
    7.8395  -11.8203   25.5229 C   0  0  0  0  0  0  0  0  0  0  0  0
    7.0878  -13.1268   25.8186 C   0  0  1  0  0  0  0  0  0  0  0  0
    5.7621  -12.6561   26.4268 C   0  0  0  0  0  0  0  0  0  0  0  0
    6.8763  -13.8013   24.5105 C   0  0  0  0  0  0  0  0  0  0  0  0
    8.1042  -14.4994   23.9537 C   0  0  2  0  0  0  0  0  0  0  0  0
    7.9092  -15.1861   22.7241 N   0  0  0  0  0  0  0  0  0  0  0  0
    8.7480  -15.2728   25.0184 C   0  0  0  0  0  0  0  0  0  0  0  0
    8.2103  -16.3760   25.4075 O   0  0  0  0  0  0  0  0  0  0  0  0
    9.9320  -14.8976   25.6616 N   0  0  0  0  0  0  0  0  0  0  0  0
   10.5070  -15.7790   26.7186 C   0  0  1  0  0  0  0  0  0  0  0  0
   10.5872  -14.9107   27.9384 C   0  0  0  0  0  0  0  0  0  0  0  0
   10.7929  -15.6670   29.1819 C   0  0  0  0  0  0  0  0  0  0  0  0
   11.0798  -16.9706   29.4441 C   0  0  0  0  0  0  0  0  0  0  0  0
   11.2299  -17.1441   30.7723 N   0  0  0  0  0  0  0  0  0  0  0  0
   11.0383  -15.9569   31.3218 C   0  0  0  0  0  0  0  0  0  0  0  0
   10.7757  -15.0564   30.3925 N   0  0  0  0  0  0  0  0  0  0  0  0
    9.4426  -16.8096   26.9806 C   0  0  0  0  0  0  0  0  0  0  0  0
    9.8353  -17.9876   27.2445 O   0  0  0  0  0  0  0  0  0  0  0  0
    8.0964  -16.5752   26.9551 O   0  0  0  0  0  0  0  0  0  0  0  0
  2  1  1  6
  3  2  1  0
  3  4  1  0
  5  4  1  0
  5  6  1  0
  7  6  1  0
  8  9  2  0
  8  2  1  0
 11 10  1  6
 11 12  1  0
 11 13  1  0
 14 13  1  1
 14 15  1  0
 15  8  1  0
 16 18  1  0
 16 14  1  0
 17 16  2  0
 19 18  1  0
 19 26  1  0
 19 20  1  1
 20 21  1  0
 21 22  2  0
 22 23  1  0
 24 23  1  0
 25 21  1  0
 25 24  2  0
 26 28  1  0
 27 26  2  0
M  END
$$$$
