KLH.pdb
     RDKit          3D

 28 28  0  0  1  0  0  0  0  0999 V2000
    5.2876  -19.5415   23.4232 N   0  0  0  0  0  0  0  0  0  0  0  0
    5.8841  -18.9978   24.6002 C   0  0  1  0  0  0  0  0  0  0  0  0
    6.8491  -19.9765   25.2320 C   0  0  0  0  0  0  0  0  0  0  0  0
    6.2017  -21.2858   25.5519 C   0  0  0  0  0  0  0  0  0  0  0  0
    7.1401  -22.3097   26.1115 C   0  0  0  0  0  0  0  0  0  0  0  0
    6.4919  -23.6631   26.2850 C   0  0  0  0  0  0  0  0  0  0  0  0
    7.4517  -24.5264   26.9496 N   0  0  0  0  0  0  0  0  0  0  0  0
    6.5433  -17.6893   24.3243 C   0  0  0  0  0  0  0  0  0  0  0  0
    7.1686  -17.5955   23.2450 O   0  0  0  0  0  0  0  0  0  0  0  0
    6.2624  -11.9357   26.7005 C   0  0  0  0  0  0  0  0  0  0  0  0
    7.0003  -12.8627   25.7229 C   0  0  1  0  0  0  0  0  0  0  0  0
    8.4700  -12.7379   26.1396 C   0  0  0  0  0  0  0  0  0  0  0  0
    6.4818  -14.2351   25.9646 C   0  0  0  0  0  0  0  0  0  0  0  0
    6.9769  -15.2801   24.9807 C   0  0  2  0  0  0  0  0  0  0  0  0
    6.4913  -16.5987   25.1971 N   0  0  0  0  0  0  0  0  0  0  0  0
    8.4284  -15.1544   24.8280 C   0  0  0  0  0  0  0  0  0  0  0  0
    8.9047  -14.1978   24.1100 O   0  0  0  0  0  0  0  0  0  0  0  0
    9.3618  -16.0137   25.4168 N   0  0  0  0  0  0  0  0  0  0  0  0
   10.4257  -16.6336   24.5751 C   0  0  1  0  0  0  0  0  0  0  0  0
   11.1867  -15.4738   24.0057 C   0  0  0  0  0  0  0  0  0  0  0  0
   12.4119  -15.8700   23.2966 C   0  0  0  0  0  0  0  0  0  0  0  0
   13.0147  -17.0691   23.0747 C   0  0  0  0  0  0  0  0  0  0  0  0
   14.1046  -16.8930   22.3015 N   0  0  0  0  0  0  0  0  0  0  0  0
   14.1704  -15.5968   22.0492 C   0  0  0  0  0  0  0  0  0  0  0  0
   13.1697  -14.9628   22.6324 N   0  0  0  0  0  0  0  0  0  0  0  0
   11.3381  -17.3214   25.5538 C   0  0  0  0  0  0  0  0  0  0  0  0
   12.3434  -17.9296   25.0731 O   0  0  0  0  0  0  0  0  0  0  0  0
   11.1670  -17.3415   26.9095 O   0  0  0  0  0  0  0  0  0  0  0  0
  2  1  1  6
  3  2  1  0
  3  4  1  0
  5  4  1  0
  5  6  1  0
  7  6  1  0
  8  9  2  0
  8  2  1  0
 11 10  1  1
 11 12  1  0
 11 13  1  0
 14 13  1  1
 14 15  1  0
 15  8  1  0
 16 18  1  0
 16 14  1  0
 17 16  2  0
 19 18  1  0
 19 26  1  0
 19 20  1  1
 20 21  1  0
 21 22  2  0
 22 23  1  0
 24 23  1  0
 25 21  1  0
 25 24  2  0
 26 28  1  0
 27 26  2  0
M  END
$$$$
