KLH.pdb
     RDKit          3D

 28 28  0  0  1  0  0  0  0  0999 V2000
    8.1027  -14.3217   20.1702 N   0  0  0  0  0  0  0  0  0  0  0  0
    7.6273  -15.0922   21.2735 C   0  0  1  0  0  0  0  0  0  0  0  0
    7.8088  -16.5741   21.0303 C   0  0  0  0  0  0  0  0  0  0  0  0
    7.2284  -17.0100   19.7230 C   0  0  0  0  0  0  0  0  0  0  0  0
    7.7095  -18.3498   19.2585 C   0  0  0  0  0  0  0  0  0  0  0  0
    7.0259  -18.8090   17.9921 C   0  0  0  0  0  0  0  0  0  0  0  0
    7.6027  -20.0892   17.6225 N   0  0  0  0  0  0  0  0  0  0  0  0
    8.2694  -14.6708   22.5514 C   0  0  0  0  0  0  0  0  0  0  0  0
    9.5002  -14.4513   22.5122 O   0  0  0  0  0  0  0  0  0  0  0  0
    5.3574  -12.2439   26.8154 C   0  0  0  0  0  0  0  0  0  0  0  0
    6.3580  -12.5311   25.6859 C   0  0  1  0  0  0  0  0  0  0  0  0
    7.2781  -11.3053   25.6923 C   0  0  0  0  0  0  0  0  0  0  0  0
    7.0933  -13.7643   26.0724 C   0  0  0  0  0  0  0  0  0  0  0  0
    8.1008  -14.2476   25.0446 C   0  0  2  0  0  0  0  0  0  0  0  0
    7.5715  -14.5165   23.7526 N   0  0  0  0  0  0  0  0  0  0  0  0
    8.9197  -15.3119   25.6301 C   0  0  0  0  0  0  0  0  0  0  0  0
    9.4153  -15.1487   26.8070 O   0  0  0  0  0  0  0  0  0  0  0  0
    9.2124  -16.5232   24.9949 N   0  0  0  0  0  0  0  0  0  0  0  0
   10.1844  -17.4663   25.6196 C   0  0  1  0  0  0  0  0  0  0  0  0
    9.6603  -18.8312   25.2870 C   0  0  0  0  0  0  0  0  0  0  0  0
    8.6136  -19.2961   26.2085 C   0  0  0  0  0  0  0  0  0  0  0  0
    8.4415  -19.1912   27.5538 C   0  0  0  0  0  0  0  0  0  0  0  0
    7.2635  -19.7441   27.9052 N   0  0  0  0  0  0  0  0  0  0  0  0
    6.7155  -20.1839   26.7851 C   0  0  0  0  0  0  0  0  0  0  0  0
    7.5025  -19.9281   25.7562 N   0  0  0  0  0  0  0  0  0  0  0  0
   11.4566  -17.2805   24.8384 C   0  0  0  0  0  0  0  0  0  0  0  0
   11.4285  -16.4438   23.8840 O   0  0  0  0  0  0  0  0  0  0  0  0
   12.6299  -17.9397   25.0761 O   0  0  0  0  0  0  0  0  0  0  0  0
  2  1  1  6
  3  2  1  0
  3  4  1  0
  5  4  1  0
  5  6  1  0
  7  6  1  0
  8  9  2  0
  8  2  1  0
 11 10  1  1
 11 12  1  0
 11 13  1  0
 14 13  1  1
 14 15  1  0
 15  8  1  0
 16 18  1  0
 16 14  1  0
 17 16  2  0
 19 18  1  0
 19 26  1  0
 19 20  1  6
 20 21  1  0
 21 22  2  0
 22 23  1  0
 24 23  1  0
 25 21  1  0
 25 24  2  0
 26 28  1  0
 27 26  2  0
M  END
$$$$
