TIR.pdb
     RDKit          3D

 27 26  0  0  1  0  0  0  0  0999 V2000
    6.7108  -15.0206   18.7444 C   0  0  0  0  0  0  0  0  0  0  0  0
    7.3663  -14.9106   20.1062 C   0  0  1  0  0  0  0  0  0  0  0  0
    8.7160  -15.2457   20.0584 O   0  0  0  0  0  0  0  0  0  0  0  0
    7.3045  -13.4695   20.6276 C   0  0  2  0  0  0  0  0  0  0  0  0
    7.9025  -12.5693   19.6912 N   0  0  0  0  0  0  0  0  0  0  0  0
    7.9391  -13.4030   21.9683 C   0  0  0  0  0  0  0  0  0  0  0  0
    9.1811  -13.1145   21.9866 O   0  0  0  0  0  0  0  0  0  0  0  0
    5.6243  -11.5059   26.5117 C   0  0  0  0  0  0  0  0  0  0  0  0
    6.6769  -11.8124   25.4194 C   0  0  0  0  0  0  0  0  0  0  0  0
    7.0331  -13.2566   25.5642 C   0  0  2  0  0  0  0  0  0  0  0  0
    7.4819  -13.6130   26.9601 C   0  0  0  0  0  0  0  0  0  0  0  0
    7.9160  -13.7553   24.4749 C   0  0  2  0  0  0  0  0  0  0  0  0
    7.2490  -13.6373   23.1773 N   0  0  0  0  0  0  0  0  0  0  0  0
    8.4140  -15.1158   24.5820 C   0  0  0  0  0  0  0  0  0  0  0  0
    7.6291  -16.0873   24.3934 O   0  0  0  0  0  0  0  0  0  0  0  0
   15.8002  -19.1131   22.1400 N   0  0  0  0  0  0  0  0  0  0  0  0
   14.9004  -20.1446   22.5324 C   0  0  0  0  0  0  0  0  0  0  0  0
   15.2821  -21.3587   22.3043 N   0  0  0  0  0  0  0  0  0  0  0  0
   13.6568  -19.8731   23.1380 N   0  0  0  0  0  0  0  0  0  0  0  0
   13.2651  -18.5068   23.3434 C   0  0  0  0  0  0  0  0  0  0  0  0
   11.9477  -18.4474   24.1277 C   0  0  0  0  0  0  0  0  0  0  0  0
   11.4287  -17.0430   24.0884 C   0  0  0  0  0  0  0  0  0  0  0  0
   10.1640  -16.8962   24.8990 C   0  0  2  0  0  0  0  0  0  0  0  0
    9.7510  -15.4826   24.8861 N   0  0  0  0  0  0  0  0  0  0  0  0
   10.2862  -17.3578   26.2900 C   0  0  0  0  0  0  0  0  0  0  0  0
   10.4389  -18.7284   26.5372 O   0  0  0  0  0  0  0  0  0  0  0  0
   10.2646  -16.6081   27.3043 O   0  0  0  0  0  0  0  0  0  0  0  0
  2  1  1  6
  2  4  1  0
  3  2  1  0
  4  6  1  0
  4  5  1  6
  6  7  2  0
  9  8  1  0
 10  9  1  0
 10 11  1  1
 12 10  1  0
 12 13  1  6
 13  6  1  0
 14 15  2  0
 14 12  1  0
 16 17  1  0
 17 18  2  0
 19 17  1  0
 19 20  1  0
 21 20  1  0
 21 22  1  0
 23 22  1  1
 23 24  1  0
 24 14  1  0
 25 23  1  0
 25 26  1  0
 27 25  2  0
M  END
$$$$
