TIR.pdb
     RDKit          3D

 27 26  0  0  1  0  0  0  0  0999 V2000
    5.9137  -15.9693   19.4882 C   0  0  0  0  0  0  0  0  0  0  0  0
    6.7103  -15.7972   20.7658 C   0  0  1  0  0  0  0  0  0  0  0  0
    7.8895  -16.5358   20.7426 O   0  0  0  0  0  0  0  0  0  0  0  0
    7.1290  -14.3340   20.9558 C   0  0  2  0  0  0  0  0  0  0  0  0
    7.9123  -13.8864   19.8464 N   0  0  0  0  0  0  0  0  0  0  0  0
    7.8395  -14.1891   22.2515 C   0  0  0  0  0  0  0  0  0  0  0  0
    9.1128  -14.2390   22.2009 O   0  0  0  0  0  0  0  0  0  0  0  0
    5.6095  -11.2795   26.3113 C   0  0  0  0  0  0  0  0  0  0  0  0
    6.6185  -11.8137   25.2665 C   0  0  0  0  0  0  0  0  0  0  0  0
    7.0732  -13.1499   25.7578 C   0  0  2  0  0  0  0  0  0  0  0  0
    7.6510  -13.0972   27.1508 C   0  0  0  0  0  0  0  0  0  0  0  0
    7.8973  -13.8910   24.7645 C   0  0  2  0  0  0  0  0  0  0  0  0
    7.1870  -14.0055   23.4898 N   0  0  0  0  0  0  0  0  0  0  0  0
    8.3515  -15.2226   25.1266 C   0  0  0  0  0  0  0  0  0  0  0  0
    7.5619  -16.2032   25.0257 O   0  0  0  0  0  0  0  0  0  0  0  0
   15.4236  -19.7740   25.1463 N   0  0  0  0  0  0  0  0  0  0  0  0
   14.4599  -20.7235   24.7021 C   0  0  0  0  0  0  0  0  0  0  0  0
   14.8026  -21.9682   24.7747 N   0  0  0  0  0  0  0  0  0  0  0  0
   13.1961  -20.3432   24.2073 N   0  0  0  0  0  0  0  0  0  0  0  0
   12.8552  -18.9488   24.1644 C   0  0  0  0  0  0  0  0  0  0  0  0
   11.7547  -18.6425   25.1887 C   0  0  0  0  0  0  0  0  0  0  0  0
   11.1801  -17.2928   24.8866 C   0  0  0  0  0  0  0  0  0  0  0  0
   10.0426  -16.9529   25.8186 C   0  0  2  0  0  0  0  0  0  0  0  0
    9.6491  -15.5508   25.5989 N   0  0  0  0  0  0  0  0  0  0  0  0
   10.3518  -17.1573   27.2418 C   0  0  0  0  0  0  0  0  0  0  0  0
   10.3221  -16.0548   28.1058 O   0  0  0  0  0  0  0  0  0  0  0  0
   10.6488  -18.2663   27.7643 O   0  0  0  0  0  0  0  0  0  0  0  0
  2  1  1  6
  2  4  1  0
  3  2  1  0
  4  6  1  0
  4  5  1  6
  6  7  2  0
  9  8  1  0
 10  9  1  0
 10 11  1  1
 12 10  1  0
 12 13  1  6
 13  6  1  0
 14 15  2  0
 14 12  1  0
 16 17  1  0
 17 18  2  0
 19 17  1  0
 19 20  1  0
 21 20  1  0
 21 22  1  0
 23 22  1  6
 23 24  1  0
 24 14  1  0
 25 23  1  0
 25 26  1  0
 27 25  2  0
M  END
$$$$
