TIR.pdb
     RDKit          3D

 27 26  0  0  1  0  0  0  0  0999 V2000
    6.6966  -16.7485   19.7876 C   0  0  0  0  0  0  0  0  0  0  0  0
    7.2670  -16.4857   21.1668 C   0  0  1  0  0  0  0  0  0  0  0  0
    8.3455  -17.3192   21.4470 O   0  0  0  0  0  0  0  0  0  0  0  0
    7.7994  -15.0514   21.2738 C   0  0  2  0  0  0  0  0  0  0  0  0
    8.8254  -14.8216   20.3045 N   0  0  0  0  0  0  0  0  0  0  0  0
    8.2596  -14.7989   22.6627 C   0  0  0  0  0  0  0  0  0  0  0  0
    9.5135  -14.9106   22.8664 O   0  0  0  0  0  0  0  0  0  0  0  0
    5.8798  -11.2059   25.9635 C   0  0  0  0  0  0  0  0  0  0  0  0
    6.9685  -12.0186   25.2223 C   0  0  0  0  0  0  0  0  0  0  0  0
    7.0001  -13.3696   25.8605 C   0  0  2  0  0  0  0  0  0  0  0  0
    7.2562  -13.3105   27.3464 C   0  0  0  0  0  0  0  0  0  0  0  0
    7.8384  -14.3498   25.1180 C   0  0  2  0  0  0  0  0  0  0  0  0
    7.3977  -14.4534   23.7260 N   0  0  0  0  0  0  0  0  0  0  0  0
    7.9213  -15.7007   25.6461 C   0  0  0  0  0  0  0  0  0  0  0  0
    7.1071  -16.5804   25.2480 O   0  0  0  0  0  0  0  0  0  0  0  0
   10.3746  -20.7385   21.7135 N   0  0  0  0  0  0  0  0  0  0  0  0
   11.5504  -21.0445   22.4561 C   0  0  0  0  0  0  0  0  0  0  0  0
   12.0074  -22.2484   22.3398 N   0  0  0  0  0  0  0  0  0  0  0  0
   12.1933  -20.0970   23.2781 N   0  0  0  0  0  0  0  0  0  0  0  0
   11.5512  -18.8358   23.5220 C   0  0  0  0  0  0  0  0  0  0  0  0
   10.9298  -18.8223   24.9248 C   0  0  0  0  0  0  0  0  0  0  0  0
   10.1496  -17.5547   25.0917 C   0  0  0  0  0  0  0  0  0  0  0  0
    9.5162  -17.4693   26.4591 C   0  0  2  0  0  0  0  0  0  0  0  0
    8.8667  -16.1552   26.6023 N   0  0  0  0  0  0  0  0  0  0  0  0
   10.4580  -17.6734   27.5701 C   0  0  0  0  0  0  0  0  0  0  0  0
   11.1493  -16.5679   28.0829 O   0  0  0  0  0  0  0  0  0  0  0  0
   10.7031  -18.7848   28.1142 O   0  0  0  0  0  0  0  0  0  0  0  0
  2  1  1  6
  2  4  1  0
  3  2  1  0
  4  6  1  0
  4  5  1  6
  6  7  2  0
  9  8  1  0
 10  9  1  0
 10 11  1  1
 12 10  1  0
 12 13  1  6
 13  6  1  0
 14 15  2  0
 14 12  1  0
 16 17  1  0
 17 18  2  0
 19 17  1  0
 19 20  1  0
 21 20  1  0
 21 22  1  0
 23 22  1  6
 23 24  1  0
 24 14  1  0
 25 23  1  0
 25 26  1  0
 27 25  2  0
M  END
$$$$
