TIR.pdb
     RDKit          3D

 27 26  0  0  1  0  0  0  0  0999 V2000
    7.3077  -18.8710   20.8681 C   0  0  0  0  0  0  0  0  0  0  0  0
    7.9923  -17.8698   21.7765 C   0  0  1  0  0  0  0  0  0  0  0  0
    9.3776  -17.9927   21.7295 O   0  0  0  0  0  0  0  0  0  0  0  0
    7.6781  -16.4331   21.3413 C   0  0  2  0  0  0  0  0  0  0  0  0
    8.1357  -16.1998   20.0068 N   0  0  0  0  0  0  0  0  0  0  0  0
    8.2642  -15.4825   22.3199 C   0  0  0  0  0  0  0  0  0  0  0  0
    9.3966  -14.9854   22.0089 O   0  0  0  0  0  0  0  0  0  0  0  0
    6.7164  -11.7652   26.9241 C   0  0  0  0  0  0  0  0  0  0  0  0
    7.8891  -12.5328   26.2678 C   0  0  0  0  0  0  0  0  0  0  0  0
    7.2805  -13.4879   25.2927 C   0  0  2  0  0  0  0  0  0  0  0  0
    6.1378  -14.2784   25.8811 C   0  0  0  0  0  0  0  0  0  0  0  0
    8.2895  -14.2971   24.5563 C   0  0  2  0  0  0  0  0  0  0  0  0
    7.6419  -15.1208   23.5343 N   0  0  0  0  0  0  0  0  0  0  0  0
    9.1488  -15.1721   25.3352 C   0  0  0  0  0  0  0  0  0  0  0  0
    8.8447  -16.3905   25.4710 O   0  0  0  0  0  0  0  0  0  0  0  0
    9.6425  -19.8912   31.5149 N   0  0  0  0  0  0  0  0  0  0  0  0
   10.9462  -20.1135   30.9871 C   0  0  0  0  0  0  0  0  0  0  0  0
   11.6428  -21.0470   31.5485 N   0  0  0  0  0  0  0  0  0  0  0  0
   11.4640  -19.3646   29.9111 N   0  0  0  0  0  0  0  0  0  0  0  0
   10.7083  -18.2514   29.4090 C   0  0  0  0  0  0  0  0  0  0  0  0
   11.4288  -17.6221   28.2095 C   0  0  0  0  0  0  0  0  0  0  0  0
   10.6040  -16.4808   27.6991 C   0  0  0  0  0  0  0  0  0  0  0  0
   11.2725  -15.7903   26.5353 C   0  0  2  0  0  0  0  0  0  0  0  0
   10.3496  -14.7834   25.9845 N   0  0  0  0  0  0  0  0  0  0  0  0
   11.7001  -16.7010   25.4627 C   0  0  0  0  0  0  0  0  0  0  0  0
   10.8152  -17.6962   25.0272 O   0  0  0  0  0  0  0  0  0  0  0  0
   12.8219  -16.6627   24.8871 O   0  0  0  0  0  0  0  0  0  0  0  0
  2  1  1  6
  2  4  1  0
  3  2  1  0
  4  6  1  0
  4  5  1  6
  6  7  2  0
  9  8  1  0
 10  9  1  0
 10 11  1  1
 12 10  1  0
 12 13  1  6
 13  6  1  0
 14 15  2  0
 14 12  1  0
 16 17  1  0
 17 18  2  0
 19 17  1  0
 19 20  1  0
 21 20  1  0
 21 22  1  0
 23 22  1  1
 23 24  1  0
 24 14  1  0
 25 23  1  0
 25 26  1  0
 27 25  2  0
M  END
$$$$
