TIR.pdb
     RDKit          3D

 27 26  0  0  1  0  0  0  0  0999 V2000
    6.4826  -14.8904   18.7726 C   0  0  0  0  0  0  0  0  0  0  0  0
    7.1614  -14.8537   20.1269 C   0  0  1  0  0  0  0  0  0  0  0  0
    8.4385  -15.4044   20.0796 O   0  0  0  0  0  0  0  0  0  0  0  0
    7.3392  -13.4091   20.6101 C   0  0  2  0  0  0  0  0  0  0  0  0
    8.1273  -12.6607   19.6807 N   0  0  0  0  0  0  0  0  0  0  0  0
    7.9203  -13.4145   21.9765 C   0  0  0  0  0  0  0  0  0  0  0  0
    9.1813  -13.2391   22.0497 O   0  0  0  0  0  0  0  0  0  0  0  0
    5.2918  -11.2815   26.2349 C   0  0  0  0  0  0  0  0  0  0  0  0
    6.3414  -11.6675   25.1651 C   0  0  0  0  0  0  0  0  0  0  0  0
    6.7883  -13.0565   25.4883 C   0  0  2  0  0  0  0  0  0  0  0  0
    7.2021  -13.2189   26.9303 C   0  0  0  0  0  0  0  0  0  0  0  0
    7.7473  -13.6106   24.4942 C   0  0  2  0  0  0  0  0  0  0  0  0
    7.1619  -13.5990   23.1527 N   0  0  0  0  0  0  0  0  0  0  0  0
    8.2619  -14.9487   24.7290 C   0  0  0  0  0  0  0  0  0  0  0  0
    7.4594  -15.8999   24.9450 O   0  0  0  0  0  0  0  0  0  0  0  0
   15.6316  -19.3611   22.5881 N   0  0  0  0  0  0  0  0  0  0  0  0
   14.6551  -20.3117   23.0007 C   0  0  0  0  0  0  0  0  0  0  0  0
   14.9224  -21.5534   22.7585 N   0  0  0  0  0  0  0  0  0  0  0  0
   13.4566  -19.9355   23.6400 N   0  0  0  0  0  0  0  0  0  0  0  0
   13.2028  -18.5427   23.8813 C   0  0  0  0  0  0  0  0  0  0  0  0
   11.8390  -18.3646   24.5613 C   0  0  0  0  0  0  0  0  0  0  0  0
   11.3639  -16.9640   24.3244 C   0  0  0  0  0  0  0  0  0  0  0  0
   10.0446  -16.7025   25.0094 C   0  0  2  0  0  0  0  0  0  0  0  0
    9.6332  -15.3148   24.7373 N   0  0  0  0  0  0  0  0  0  0  0  0
   10.0676  -16.9304   26.4621 C   0  0  0  0  0  0  0  0  0  0  0  0
    9.9479  -18.2407   26.9434 O   0  0  0  0  0  0  0  0  0  0  0  0
   10.1885  -16.0261   27.3332 O   0  0  0  0  0  0  0  0  0  0  0  0
  2  1  1  6
  2  4  1  0
  3  2  1  0
  4  6  1  0
  4  5  1  6
  6  7  2  0
  9  8  1  0
 10  9  1  0
 10 11  1  1
 12 10  1  0
 12 13  1  6
 13  6  1  0
 14 15  2  0
 14 12  1  0
 16 17  1  0
 17 18  2  0
 19 17  1  0
 19 20  1  0
 21 20  1  0
 21 22  1  0
 23 22  1  1
 23 24  1  0
 24 14  1  0
 25 23  1  0
 25 26  1  0
 27 25  2  0
M  END
$$$$
