TIR.pdb
     RDKit          3D

 27 26  0  0  1  0  0  0  0  0999 V2000
    6.5759  -16.3873   20.9844 C   0  0  0  0  0  0  0  0  0  0  0  0
    7.3588  -15.4555   20.0815 C   0  0  1  0  0  0  0  0  0  0  0  0
    6.8621  -15.4576   18.7816 O   0  0  0  0  0  0  0  0  0  0  0  0
    7.2580  -14.0061   20.5726 C   0  0  2  0  0  0  0  0  0  0  0  0
    7.7777  -13.1048   19.5915 N   0  0  0  0  0  0  0  0  0  0  0  0
    7.9446  -13.8809   21.8831 C   0  0  0  0  0  0  0  0  0  0  0  0
    9.2185  -13.9337   21.8555 O   0  0  0  0  0  0  0  0  0  0  0  0
    6.8921  -11.7044   27.5192 C   0  0  0  0  0  0  0  0  0  0  0  0
    7.8390  -12.5821   26.6660 C   0  0  0  0  0  0  0  0  0  0  0  0
    7.1457  -12.8142   25.3625 C   0  0  2  0  0  0  0  0  0  0  0  0
    5.7210  -13.2820   25.5309 C   0  0  0  0  0  0  0  0  0  0  0  0
    7.9569  -13.6078   24.3996 C   0  0  2  0  0  0  0  0  0  0  0  0
    7.2697  -13.7122   23.1115 N   0  0  0  0  0  0  0  0  0  0  0  0
    8.3433  -14.9519   24.7929 C   0  0  0  0  0  0  0  0  0  0  0  0
    7.5139  -15.8987   24.6875 O   0  0  0  0  0  0  0  0  0  0  0  0
   15.3779  -19.5734   24.3726 N   0  0  0  0  0  0  0  0  0  0  0  0
   14.3790  -20.5882   24.3629 C   0  0  0  0  0  0  0  0  0  0  0  0
   14.7872  -21.7993   24.5592 N   0  0  0  0  0  0  0  0  0  0  0  0
   13.0146  -20.3042   24.1519 N   0  0  0  0  0  0  0  0  0  0  0  0
   12.6109  -18.9424   23.9399 C   0  0  0  0  0  0  0  0  0  0  0  0
   11.5560  -18.5368   24.9776 C   0  0  0  0  0  0  0  0  0  0  0  0
   11.0678  -17.1587   24.6522 C   0  0  0  0  0  0  0  0  0  0  0  0
    9.9366  -16.7421   25.5605 C   0  0  2  0  0  0  0  0  0  0  0  0
    9.6136  -15.3287   25.3019 N   0  0  0  0  0  0  0  0  0  0  0  0
   10.2182  -16.9259   26.9922 C   0  0  0  0  0  0  0  0  0  0  0  0
   10.5283  -15.8028   27.7704 O   0  0  0  0  0  0  0  0  0  0  0  0
   10.2046  -18.0341   27.5946 O   0  0  0  0  0  0  0  0  0  0  0  0
  2  1  1  1
  2  4  1  0
  3  2  1  0
  4  6  1  0
  4  5  1  6
  6  7  2  0
  9  8  1  0
 10  9  1  0
 10 11  1  1
 12 10  1  0
 12 13  1  6
 13  6  1  0
 14 15  2  0
 14 12  1  0
 16 17  1  0
 17 18  2  0
 19 17  1  0
 19 20  1  0
 21 20  1  0
 21 22  1  0
 23 22  1  6
 23 24  1  0
 24 14  1  0
 25 23  1  0
 25 26  1  0
 27 25  2  0
M  END
$$$$
