TIR.pdb
     RDKit          3D

 27 26  0  0  1  0  0  0  0  0999 V2000
    5.7889  -17.5495   20.6618 C   0  0  0  0  0  0  0  0  0  0  0  0
    6.6261  -17.0216   21.8092 C   0  0  1  0  0  0  0  0  0  0  0  0
    7.7717  -17.7863   22.0073 O   0  0  0  0  0  0  0  0  0  0  0  0
    7.1116  -15.5956   21.5207 C   0  0  2  0  0  0  0  0  0  0  0  0
    7.8568  -15.5548   20.3009 N   0  0  0  0  0  0  0  0  0  0  0  0
    7.8900  -15.0956   22.6820 C   0  0  0  0  0  0  0  0  0  0  0  0
    9.1511  -15.2779   22.6314 O   0  0  0  0  0  0  0  0  0  0  0  0
    7.2843  -11.0197   27.2288 C   0  0  0  0  0  0  0  0  0  0  0  0
    8.1358  -12.2050   26.7142 C   0  0  0  0  0  0  0  0  0  0  0  0
    7.3451  -12.8571   25.6265 C   0  0  2  0  0  0  0  0  0  0  0  0
    5.9493  -13.2321   26.0600 C   0  0  0  0  0  0  0  0  0  0  0  0
    8.0933  -13.9331   24.9213 C   0  0  2  0  0  0  0  0  0  0  0  0
    7.3121  -14.4513   23.7972 N   0  0  0  0  0  0  0  0  0  0  0  0
    8.5298  -15.0748   25.7064 C   0  0  0  0  0  0  0  0  0  0  0  0
    7.6947  -15.9614   26.0412 O   0  0  0  0  0  0  0  0  0  0  0  0
   14.2599  -17.2635   22.2656 N   0  0  0  0  0  0  0  0  0  0  0  0
   13.0855  -17.9978   21.9350 C   0  0  0  0  0  0  0  0  0  0  0  0
   12.8261  -18.1318   20.6755 N   0  0  0  0  0  0  0  0  0  0  0  0
   12.2410  -18.5549   22.9164 N   0  0  0  0  0  0  0  0  0  0  0  0
   12.4385  -18.1941   24.2924 C   0  0  0  0  0  0  0  0  0  0  0  0
   11.1691  -17.5406   24.8543 C   0  0  0  0  0  0  0  0  0  0  0  0
   11.4154  -17.1642   26.2829 C   0  0  0  0  0  0  0  0  0  0  0  0
   10.1972  -16.5279   26.9068 C   0  0  2  0  0  0  0  0  0  0  0  0
    9.8566  -15.3098   26.1524 N   0  0  0  0  0  0  0  0  0  0  0  0
   10.3575  -16.1936   28.3299 C   0  0  0  0  0  0  0  0  0  0  0  0
   10.0948  -17.1793   29.2904 O   0  0  0  0  0  0  0  0  0  0  0  0
   10.7198  -15.0687   28.7712 O   0  0  0  0  0  0  0  0  0  0  0  0
  2  1  1  6
  2  4  1  0
  3  2  1  0
  4  6  1  0
  4  5  1  6
  6  7  2  0
  9  8  1  0
 10  9  1  0
 10 11  1  1
 12 10  1  0
 12 13  1  6
 13  6  1  0
 14 15  2  0
 14 12  1  0
 16 17  1  0
 17 18  2  0
 19 17  1  0
 19 20  1  0
 21 20  1  0
 21 22  1  0
 23 22  1  6
 23 24  1  0
 24 14  1  0
 25 23  1  0
 25 26  1  0
 27 25  2  0
M  END
$$$$
