TIR.pdb
     RDKit          3D

 27 26  0  0  1  0  0  0  0  0999 V2000
   10.3509  -17.1713   27.1675 C   0  0  0  0  0  0  0  0  0  0  0  0
    9.4120  -18.2751   27.6107 C   0  0  1  0  0  0  0  0  0  0  0  0
    9.8979  -18.9495   28.7267 O   0  0  0  0  0  0  0  0  0  0  0  0
    8.0496  -17.7020   28.0204 C   0  0  2  0  0  0  0  0  0  0  0  0
    7.2009  -18.7351   28.5277 N   0  0  0  0  0  0  0  0  0  0  0  0
    7.4494  -16.9854   26.8668 C   0  0  0  0  0  0  0  0  0  0  0  0
    6.7984  -17.7038   26.0382 O   0  0  0  0  0  0  0  0  0  0  0  0
    6.3703  -11.9408   27.4269 C   0  0  0  0  0  0  0  0  0  0  0  0
    5.9298  -13.2375   26.7062 C   0  0  0  0  0  0  0  0  0  0  0  0
    6.9350  -13.4889   25.6292 C   0  0  2  0  0  0  0  0  0  0  0  0
    6.6675  -12.6881   24.3786 C   0  0  0  0  0  0  0  0  0  0  0  0
    7.2029  -14.9352   25.4027 C   0  0  2  0  0  0  0  0  0  0  0  0
    7.5660  -15.5941   26.6583 N   0  0  0  0  0  0  0  0  0  0  0  0
    8.2159  -15.2865   24.4224 C   0  0  0  0  0  0  0  0  0  0  0  0
    9.3603  -14.7556   24.4858 O   0  0  0  0  0  0  0  0  0  0  0  0
    8.3644  -11.9407   17.1711 N   0  0  0  0  0  0  0  0  0  0  0  0
    8.1240  -13.3432   17.2245 C   0  0  0  0  0  0  0  0  0  0  0  0
    7.5293  -13.8645   16.2016 N   0  0  0  0  0  0  0  0  0  0  0  0
    8.5077  -14.1346   18.3260 N   0  0  0  0  0  0  0  0  0  0  0  0
    9.1323  -13.5028   19.4543 C   0  0  0  0  0  0  0  0  0  0  0  0
    9.7041  -14.5637   20.4039 C   0  0  0  0  0  0  0  0  0  0  0  0
    8.7417  -14.7653   21.5336 C   0  0  0  0  0  0  0  0  0  0  0  0
    8.8902  -16.1346   22.1511 C   0  0  2  0  0  0  0  0  0  0  0  0
    8.0467  -16.2080   23.3562 N   0  0  0  0  0  0  0  0  0  0  0  0
   10.2744  -16.4882   22.5002 C   0  0  0  0  0  0  0  0  0  0  0  0
   10.6851  -16.3767   23.8350 O   0  0  0  0  0  0  0  0  0  0  0  0
   11.1448  -16.8928   21.6817 O   0  0  0  0  0  0  0  0  0  0  0  0
  2  1  1  1
  2  4  1  0
  3  2  1  0
  4  6  1  0
  4  5  1  6
  6  7  2  0
  9  8  1  0
 10  9  1  0
 10 11  1  6
 12 10  1  0
 12 13  1  1
 13  6  1  0
 14 15  2  0
 14 12  1  0
 16 17  1  0
 17 18  2  0
 19 17  1  0
 19 20  1  0
 21 20  1  0
 21 22  1  0
 23 22  1  1
 23 24  1  0
 24 14  1  0
 25 23  1  0
 25 26  1  0
 27 25  2  0
M  END
$$$$
