TIR.pdb
     RDKit          3D

 27 26  0  0  1  0  0  0  0  0999 V2000
    8.5341  -18.8142   17.3238 C   0  0  0  0  0  0  0  0  0  0  0  0
    9.3696  -18.1480   16.2493 C   0  0  1  0  0  0  0  0  0  0  0  0
    9.0446  -18.6144   14.9791 O   0  0  0  0  0  0  0  0  0  0  0  0
    9.1205  -16.6349   16.2230 C   0  0  2  0  0  0  0  0  0  0  0  0
    9.8428  -16.0244   15.1504 N   0  0  0  0  0  0  0  0  0  0  0  0
    9.4656  -16.0557   17.5459 C   0  0  0  0  0  0  0  0  0  0  0  0
   10.7095  -15.9116   17.7871 O   0  0  0  0  0  0  0  0  0  0  0  0
    6.1572  -12.4024   19.9009 C   0  0  0  0  0  0  0  0  0  0  0  0
    7.4289  -13.0876   19.3458 C   0  0  0  0  0  0  0  0  0  0  0  0
    7.7591  -14.2000   20.2876 C   0  0  2  0  0  0  0  0  0  0  0  0
    7.9014  -13.7362   21.7164 C   0  0  0  0  0  0  0  0  0  0  0  0
    8.8598  -15.0748   19.7994 C   0  0  2  0  0  0  0  0  0  0  0  0
    8.5085  -15.6728   18.5104 N   0  0  0  0  0  0  0  0  0  0  0  0
    9.2994  -16.1520   20.6695 C   0  0  0  0  0  0  0  0  0  0  0  0
    8.8428  -17.3179   20.5032 O   0  0  0  0  0  0  0  0  0  0  0  0
   12.5586  -22.0115   18.1102 N   0  0  0  0  0  0  0  0  0  0  0  0
   13.3058  -22.0614   19.3213 C   0  0  0  0  0  0  0  0  0  0  0  0
   13.9644  -23.1510   19.5466 N   0  0  0  0  0  0  0  0  0  0  0  0
   13.3359  -20.9892   20.2357 N   0  0  0  0  0  0  0  0  0  0  0  0
   12.4842  -19.8554   20.0088 C   0  0  0  0  0  0  0  0  0  0  0  0
   12.6960  -18.8073   21.1091 C   0  0  0  0  0  0  0  0  0  0  0  0
   11.8112  -17.6318   20.8288 C   0  0  0  0  0  0  0  0  0  0  0  0
   11.1342  -17.1355   22.0832 C   0  0  2  0  0  0  0  0  0  0  0  0
   10.2329  -16.0253   21.7310 N   0  0  0  0  0  0  0  0  0  0  0  0
   12.0651  -16.6960   23.1334 C   0  0  0  0  0  0  0  0  0  0  0  0
   12.5399  -17.6388   24.0547 O   0  0  0  0  0  0  0  0  0  0  0  0
   12.4831  -15.5149   23.2800 O   0  0  0  0  0  0  0  0  0  0  0  0
  2  1  1  1
  2  4  1  0
  3  2  1  0
  4  6  1  0
  4  5  1  6
  6  7  2  0
  9  8  1  0
 10  9  1  0
 10 11  1  1
 12 10  1  0
 12 13  1  6
 13  6  1  0
 14 15  2  0
 14 12  1  0
 16 17  1  0
 17 18  2  0
 19 17  1  0
 19 20  1  0
 21 20  1  0
 21 22  1  0
 23 22  1  6
 23 24  1  0
 24 14  1  0
 25 23  1  0
 25 26  1  0
 27 25  2  0
M  END
$$$$
