TIR.pdb
     RDKit          3D

 27 26  0  0  1  0  0  0  0  0999 V2000
    6.2897  -21.1123   24.9601 C   0  0  0  0  0  0  0  0  0  0  0  0
    6.8631  -19.7329   24.7053 C   0  0  1  0  0  0  0  0  0  0  0  0
    7.8572  -19.7586   23.7320 O   0  0  0  0  0  0  0  0  0  0  0  0
    5.7813  -18.7795   24.1829 C   0  0  2  0  0  0  0  0  0  0  0  0
    5.1108  -19.3484   23.0553 N   0  0  0  0  0  0  0  0  0  0  0  0
    6.3921  -17.4609   23.8780 C   0  0  0  0  0  0  0  0  0  0  0  0
    6.4688  -17.1510   22.6434 O   0  0  0  0  0  0  0  0  0  0  0  0
    6.6312  -12.0226   26.5510 C   0  0  0  0  0  0  0  0  0  0  0  0
    7.1460  -12.8403   25.3422 C   0  0  0  0  0  0  0  0  0  0  0  0
    6.8799  -14.2772   25.6554 C   0  0  2  0  0  0  0  0  0  0  0  0
    7.3357  -14.6700   27.0392 C   0  0  0  0  0  0  0  0  0  0  0  0
    7.3030  -15.2026   24.5693 C   0  0  2  0  0  0  0  0  0  0  0  0
    6.8730  -16.5707   24.8625 N   0  0  0  0  0  0  0  0  0  0  0  0
    8.7177  -15.2553   24.2433 C   0  0  0  0  0  0  0  0  0  0  0  0
    9.3730  -14.1826   24.1205 O   0  0  0  0  0  0  0  0  0  0  0  0
   12.9160  -15.1241   18.0973 N   0  0  0  0  0  0  0  0  0  0  0  0
   13.3052  -14.4268   19.2762 C   0  0  0  0  0  0  0  0  0  0  0  0
   14.5267  -14.0049   19.3185 N   0  0  0  0  0  0  0  0  0  0  0  0
   12.4184  -14.2006   20.3483 N   0  0  0  0  0  0  0  0  0  0  0  0
   11.0757  -14.7023   20.2600 C   0  0  0  0  0  0  0  0  0  0  0  0
   10.8701  -15.8408   21.2678 C   0  0  0  0  0  0  0  0  0  0  0  0
   11.1040  -15.3079   22.6479 C   0  0  0  0  0  0  0  0  0  0  0  0
   10.9037  -16.3754   23.6960 C   0  0  2  0  0  0  0  0  0  0  0  0
    9.4740  -16.4397   24.0437 N   0  0  0  0  0  0  0  0  0  0  0  0
   11.6960  -16.1721   24.9182 C   0  0  0  0  0  0  0  0  0  0  0  0
   13.0461  -16.5466   24.9195 O   0  0  0  0  0  0  0  0  0  0  0  0
   11.2542  -15.6778   25.9915 O   0  0  0  0  0  0  0  0  0  0  0  0
  2  1  1  6
  2  4  1  0
  3  2  1  0
  4  6  1  0
  4  5  1  6
  6  7  2  0
  9  8  1  0
 10  9  1  0
 10 11  1  1
 12 10  1  0
 12 13  1  1
 13  6  1  0
 14 15  2  0
 14 12  1  0
 16 17  1  0
 17 18  2  0
 19 17  1  0
 19 20  1  0
 21 20  1  0
 21 22  1  0
 23 22  1  6
 23 24  1  0
 24 14  1  0
 25 23  1  0
 25 26  1  0
 27 25  2  0
M  END
$$$$
