TIR.pdb
     RDKit          3D

 27 26  0  0  1  0  0  0  0  0999 V2000
    7.0680  -16.5069   21.1158 C   0  0  0  0  0  0  0  0  0  0  0  0
    7.6571  -15.5108   20.1375 C   0  0  1  0  0  0  0  0  0  0  0  0
    7.1723  -15.7052   18.8476 O   0  0  0  0  0  0  0  0  0  0  0  0
    7.2765  -14.0759   20.5227 C   0  0  2  0  0  0  0  0  0  0  0  0
    7.6399  -13.1626   19.4840 N   0  0  0  0  0  0  0  0  0  0  0  0
    7.8990  -13.7341   21.8266 C   0  0  0  0  0  0  0  0  0  0  0  0
    9.1432  -13.4558   21.7976 O   0  0  0  0  0  0  0  0  0  0  0  0
    6.6068  -11.6984   27.4363 C   0  0  0  0  0  0  0  0  0  0  0  0
    7.6109  -12.5443   26.6171 C   0  0  0  0  0  0  0  0  0  0  0  0
    6.9775  -12.7859   25.2852 C   0  0  2  0  0  0  0  0  0  0  0  0
    5.5613  -13.2953   25.3929 C   0  0  0  0  0  0  0  0  0  0  0  0
    7.8492  -13.5487   24.3506 C   0  0  2  0  0  0  0  0  0  0  0  0
    7.1957  -13.7061   23.0504 N   0  0  0  0  0  0  0  0  0  0  0  0
    8.2967  -14.8653   24.7710 C   0  0  0  0  0  0  0  0  0  0  0  0
    7.5031  -15.8461   24.7101 O   0  0  0  0  0  0  0  0  0  0  0  0
   14.7909  -20.1900   22.2068 N   0  0  0  0  0  0  0  0  0  0  0  0
   13.9426  -20.5396   23.2956 C   0  0  0  0  0  0  0  0  0  0  0  0
   14.4593  -21.2964   24.2078 N   0  0  0  0  0  0  0  0  0  0  0  0
   12.6089  -20.0929   23.3887 N   0  0  0  0  0  0  0  0  0  0  0  0
   12.3436  -18.6816   23.3696 C   0  0  0  0  0  0  0  0  0  0  0  0
   11.7037  -18.2467   24.6945 C   0  0  0  0  0  0  0  0  0  0  0  0
   11.2097  -16.8401   24.5499 C   0  0  0  0  0  0  0  0  0  0  0  0
   10.0168  -16.5773   25.4365 C   0  0  2  0  0  0  0  0  0  0  0  0
    9.5915  -15.1783   25.2609 N   0  0  0  0  0  0  0  0  0  0  0  0
   10.2603  -16.8396   26.8629 C   0  0  0  0  0  0  0  0  0  0  0  0
   10.5310  -18.1516   27.2731 O   0  0  0  0  0  0  0  0  0  0  0  0
   10.2461  -15.9641   27.7710 O   0  0  0  0  0  0  0  0  0  0  0  0
  2  1  1  1
  2  4  1  0
  3  2  1  0
  4  6  1  0
  4  5  1  6
  6  7  2  0
  9  8  1  0
 10  9  1  0
 10 11  1  1
 12 10  1  0
 12 13  1  6
 13  6  1  0
 14 15  2  0
 14 12  1  0
 16 17  1  0
 17 18  2  0
 19 17  1  0
 19 20  1  0
 21 20  1  0
 21 22  1  0
 23 22  1  6
 23 24  1  0
 24 14  1  0
 25 23  1  0
 25 26  1  0
 27 25  2  0
M  END
$$$$
