LGS.pdb
     RDKit          3D

 19 18  0  0  1  0  0  0  0  0999 V2000
   27.2741  -18.0749   -5.9710 C   0  0  0  0  0  0  0  0  0  0  0  0
   27.4022  -19.5553   -5.8407 C   0  0  2  0  0  0  0  0  0  0  0  0
   28.6970  -19.9449   -5.1252 C   0  0  0  0  0  0  0  0  0  0  0  0
   27.2364  -20.2850   -7.1141 C   0  0  0  0  0  0  0  0  0  0  0  0
   25.9486  -20.1343   -7.7826 C   0  0  2  0  0  0  0  0  0  0  0  0
   24.8662  -20.7210   -6.9469 N   0  0  0  0  0  0  0  0  0  0  0  0
   25.7607  -20.6922   -9.1190 C   0  0  0  0  0  0  0  0  0  0  0  0
   25.7321  -21.9326   -9.1380 O   0  0  0  0  0  0  0  0  0  0  0  0
   25.6141  -19.8937  -10.3026 N   0  0  0  0  0  0  0  0  0  0  0  0
   25.4962  -20.6491  -11.4804 C   0  0  0  0  0  0  0  0  0  0  0  0
   25.6697  -20.3771  -12.8679 C   0  0  0  0  0  0  0  0  0  0  0  0
   25.1901  -19.2404  -13.2275 O   0  0  0  0  0  0  0  0  0  0  0  0
   28.6794  -20.8038  -15.2763 O   0  0  0  0  0  0  0  0  0  0  0  0
   27.5293  -21.2340  -15.9426 C   0  0  0  0  0  0  0  0  0  0  0  0
   26.3545  -20.5745  -15.2874 C   0  0  2  0  0  0  0  0  0  0  0  0
   26.2363  -21.0583  -13.9132 N   0  0  0  0  0  0  0  0  0  0  0  0
   25.0913  -20.7837  -15.9795 C   0  0  0  0  0  0  0  0  0  0  0  0
   24.7282  -20.0294  -17.0712 O   0  0  0  0  0  0  0  0  0  0  0  0
   24.2966  -21.6944  -15.5608 O   0  0  0  0  0  0  0  0  0  0  0  0
  2  1  1  6
  2  3  1  0
  4  2  1  0
  5  4  1  0
  5  6  1  1
  7  5  1  0
  8  7  2  0
  9  7  1  0
 10  9  1  0
 11 10  1  0
 11 16  1  0
 12 11  2  0
 14 13  1  0
 15 17  1  0
 15 16  1  0
 15 14  1  6
 17 18  1  0
 19 17  2  0
M  END
$$$$
