LGS.pdb
     RDKit          3D

 19 18  0  0  1  0  0  0  0  0999 V2000
   18.9451  -13.6950  -19.1063 C   0  0  0  0  0  0  0  0  0  0  0  0
   18.1308  -12.7282  -19.8981 C   0  0  2  0  0  0  0  0  0  0  0  0
   18.1998  -13.0321  -21.3958 C   0  0  0  0  0  0  0  0  0  0  0  0
   18.4349  -11.3119  -19.6096 C   0  0  0  0  0  0  0  0  0  0  0  0
   18.3327  -10.9000  -18.2139 C   0  0  2  0  0  0  0  0  0  0  0  0
   16.9384  -11.0827  -17.7272 N   0  0  0  0  0  0  0  0  0  0  0  0
   18.7074   -9.5406  -17.8344 C   0  0  0  0  0  0  0  0  0  0  0  0
   17.7741   -8.7274  -17.9210 O   0  0  0  0  0  0  0  0  0  0  0  0
   20.0223   -9.1697  -17.3947 N   0  0  0  0  0  0  0  0  0  0  0  0
   20.1589   -7.7993  -17.1210 C   0  0  0  0  0  0  0  0  0  0  0  0
   20.4312   -7.0323  -15.9519 C   0  0  0  0  0  0  0  0  0  0  0  0
   20.2599   -7.6893  -14.8608 O   0  0  0  0  0  0  0  0  0  0  0  0
   22.7067   -5.3248  -12.6564 O   0  0  0  0  0  0  0  0  0  0  0  0
   22.2910   -5.9846  -13.8155 C   0  0  0  0  0  0  0  0  0  0  0  0
   21.1920   -5.1716  -14.4284 C   0  0  2  0  0  0  0  0  0  0  0  0
   20.8374   -5.7432  -15.7260 N   0  0  0  0  0  0  0  0  0  0  0  0
   21.5164   -3.7628  -14.5977 C   0  0  0  0  0  0  0  0  0  0  0  0
   21.4557   -2.8731  -13.5502 O   0  0  0  0  0  0  0  0  0  0  0  0
   21.8677   -3.3404  -15.7528 O   0  0  0  0  0  0  0  0  0  0  0  0
  2  1  1  1
  2  3  1  0
  4  2  1  0
  5  4  1  0
  5  6  1  6
  7  5  1  0
  8  7  2  0
  9  7  1  0
 10  9  1  0
 11 10  1  0
 11 16  1  0
 12 11  2  0
 14 13  1  0
 15 17  1  0
 15 16  1  0
 15 14  1  6
 17 18  1  0
 19 17  2  0
M  END
$$$$
