LGS.pdb
     RDKit          3D

 19 18  0  0  1  0  0  0  0  0999 V2000
   27.8968  -17.4161  -17.7722 C   0  0  0  0  0  0  0  0  0  0  0  0
   28.6278  -18.7126  -17.6742 C   0  0  2  0  0  0  0  0  0  0  0  0
   29.3046  -19.0756  -18.9973 C   0  0  0  0  0  0  0  0  0  0  0  0
   27.8075  -19.8246  -17.1527 C   0  0  0  0  0  0  0  0  0  0  0  0
   27.1036  -19.5762  -15.8993 C   0  0  2  0  0  0  0  0  0  0  0  0
   28.0764  -19.2459  -14.8227 N   0  0  0  0  0  0  0  0  0  0  0  0
   26.2362  -20.6107  -15.3427 C   0  0  0  0  0  0  0  0  0  0  0  0
   25.3328  -20.9674  -16.1150 O   0  0  0  0  0  0  0  0  0  0  0  0
   26.4063  -21.1740  -14.0337 N   0  0  0  0  0  0  0  0  0  0  0  0
   25.3935  -22.0775  -13.6734 C   0  0  0  0  0  0  0  0  0  0  0  0
   23.9819  -21.9869  -13.5057 C   0  0  0  0  0  0  0  0  0  0  0  0
   23.4138  -23.1287  -13.3480 O   0  0  0  0  0  0  0  0  0  0  0  0
   19.8134  -20.2691  -12.0821 O   0  0  0  0  0  0  0  0  0  0  0  0
   21.1874  -20.0900  -12.2595 C   0  0  0  0  0  0  0  0  0  0  0  0
   21.6407  -21.0719  -13.2962 C   0  0  2  0  0  0  0  0  0  0  0  0
   23.0863  -20.9501  -13.4743 N   0  0  0  0  0  0  0  0  0  0  0  0
   20.9844  -20.9215  -14.5866 C   0  0  0  0  0  0  0  0  0  0  0  0
   19.7500  -21.4726  -14.8417 O   0  0  0  0  0  0  0  0  0  0  0  0
   21.5720  -20.2583  -15.5092 O   0  0  0  0  0  0  0  0  0  0  0  0
  2  1  1  6
  2  3  1  0
  4  2  1  0
  5  4  1  0
  5  6  1  1
  7  5  1  0
  8  7  2  0
  9  7  1  0
 10  9  1  0
 11 10  1  0
 11 16  1  0
 12 11  2  0
 14 13  1  0
 15 17  1  0
 15 16  1  0
 15 14  1  1
 17 18  1  0
 19 17  2  0
M  END
$$$$
