LGS.pdb
     RDKit          3D

 19 18  0  0  1  0  0  0  0  0999 V2000
   28.3035  -14.8012  -16.7961 C   0  0  0  0  0  0  0  0  0  0  0  0
   27.3590  -13.7878  -16.2431 C   0  0  2  0  0  0  0  0  0  0  0  0
   28.0973  -12.7077  -15.4501 C   0  0  0  0  0  0  0  0  0  0  0  0
   26.2412  -14.3688  -15.4721 C   0  0  0  0  0  0  0  0  0  0  0  0
   25.0662  -14.7685  -16.2386 C   0  0  2  0  0  0  0  0  0  0  0  0
   24.4057  -13.5709  -16.8248 N   0  0  0  0  0  0  0  0  0  0  0  0
   24.0019  -15.5247  -15.5843 C   0  0  0  0  0  0  0  0  0  0  0  0
   24.0598  -15.4898  -14.3452 O   0  0  0  0  0  0  0  0  0  0  0  0
   22.9778  -16.2367  -16.2942 N   0  0  0  0  0  0  0  0  0  0  0  0
   22.0208  -16.8309  -15.4559 C   0  0  0  0  0  0  0  0  0  0  0  0
   20.7572  -17.4558  -15.6614 C   0  0  0  0  0  0  0  0  0  0  0  0
   20.2040  -17.1311  -16.7749 O   0  0  0  0  0  0  0  0  0  0  0  0
   18.5621  -19.9181  -13.2490 O   0  0  0  0  0  0  0  0  0  0  0  0
   18.4423  -20.1527  -14.6210 C   0  0  0  0  0  0  0  0  0  0  0  0
   18.6839  -18.8521  -15.3242 C   0  0  2  0  0  0  0  0  0  0  0  0
   19.9929  -18.3310  -14.9351 N   0  0  0  0  0  0  0  0  0  0  0  0
   17.6698  -17.8396  -15.0694 C   0  0  0  0  0  0  0  0  0  0  0  0
   16.3976  -17.9412  -15.5829 O   0  0  0  0  0  0  0  0  0  0  0  0
   17.9701  -16.8270  -14.3477 O   0  0  0  0  0  0  0  0  0  0  0  0
  2  1  1  1
  2  3  1  0
  4  2  1  0
  5  4  1  0
  5  6  1  1
  7  5  1  0
  8  7  2  0
  9  7  1  0
 10  9  1  0
 11 10  1  0
 11 16  1  0
 12 11  2  0
 14 13  1  0
 15 17  1  0
 15 16  1  0
 15 14  1  1
 17 18  1  0
 19 17  2  0
M  END
$$$$
