LGS.pdb
     RDKit          3D

 19 18  0  0  1  0  0  0  0  0999 V2000
   36.8106   -6.5242   -7.8464 C   0  0  0  0  0  0  0  0  0  0  0  0
   36.8058   -7.1802   -6.5068 C   0  0  2  0  0  0  0  0  0  0  0  0
   36.2370   -6.2531   -5.4310 C   0  0  0  0  0  0  0  0  0  0  0  0
   38.1122   -7.7447   -6.1117 C   0  0  0  0  0  0  0  0  0  0  0  0
   38.6776   -8.7515   -7.0032 C   0  0  2  0  0  0  0  0  0  0  0  0
   38.1678  -10.1014   -6.6396 N   0  0  0  0  0  0  0  0  0  0  0  0
   40.1276   -8.8920   -7.1040 C   0  0  0  0  0  0  0  0  0  0  0  0
   40.6982   -7.8638   -7.5003 O   0  0  0  0  0  0  0  0  0  0  0  0
   40.8367  -10.0949   -6.7723 N   0  0  0  0  0  0  0  0  0  0  0  0
   42.2333   -9.9519   -6.8030 C   0  0  0  0  0  0  0  0  0  0  0  0
   43.2810  -10.1324   -5.8549 C   0  0  0  0  0  0  0  0  0  0  0  0
   42.8727  -10.1184   -4.6364 O   0  0  0  0  0  0  0  0  0  0  0  0
   46.3586  -12.1494   -6.2944 O   0  0  0  0  0  0  0  0  0  0  0  0
   46.7700  -11.2455   -5.3119 C   0  0  0  0  0  0  0  0  0  0  0  0
   45.5524  -10.5188   -4.8285 C   0  0  2  0  0  0  0  0  0  0  0  0
   44.6353  -10.3189   -5.9489 N   0  0  0  0  0  0  0  0  0  0  0  0
   45.8337   -9.2343   -4.2044 C   0  0  0  0  0  0  0  0  0  0  0  0
   46.4899   -9.1413   -2.9989 O   0  0  0  0  0  0  0  0  0  0  0  0
   45.4602   -8.1620   -4.7935 O   0  0  0  0  0  0  0  0  0  0  0  0
  2  1  1  6
  2  3  1  0
  4  2  1  0
  5  4  1  0
  5  6  1  1
  7  5  1  0
  8  7  2  0
  9  7  1  0
 10  9  1  0
 11 10  1  0
 11 16  1  0
 12 11  2  0
 14 13  1  0
 15 17  1  0
 15 16  1  0
 15 14  1  6
 17 18  1  0
 19 17  2  0
M  END
$$$$
