LGS.pdb
     RDKit          3D

 19 18  0  0  1  0  0  0  0  0999 V2000
   21.8073  -14.1533  -20.0019 C   0  0  0  0  0  0  0  0  0  0  0  0
   20.9036  -13.0704  -20.4874 C   0  0  2  0  0  0  0  0  0  0  0  0
   20.8122  -13.0595  -22.0144 C   0  0  0  0  0  0  0  0  0  0  0  0
   21.2253  -11.7344  -19.9460 C   0  0  0  0  0  0  0  0  0  0  0  0
   21.2747  -11.6206  -18.4925 C   0  0  2  0  0  0  0  0  0  0  0  0
   19.9610  -11.9983  -17.9045 N   0  0  0  0  0  0  0  0  0  0  0  0
   21.6268  -10.3418  -17.8814 C   0  0  0  0  0  0  0  0  0  0  0  0
   22.7833   -9.9724  -18.1379 O   0  0  0  0  0  0  0  0  0  0  0  0
   20.7286   -9.5734  -17.0674 N   0  0  0  0  0  0  0  0  0  0  0  0
   21.2509   -8.3321  -16.6700 C   0  0  0  0  0  0  0  0  0  0  0  0
   20.8867   -7.3550  -15.6995 C   0  0  0  0  0  0  0  0  0  0  0  0
   19.7878   -7.6269  -15.0912 O   0  0  0  0  0  0  0  0  0  0  0  0
   22.8733   -5.4303  -12.9809 O   0  0  0  0  0  0  0  0  0  0  0  0
   22.0201   -4.5213  -13.6115 C   0  0  0  0  0  0  0  0  0  0  0  0
   20.9032   -5.3049  -14.2302 C   0  0  2  0  0  0  0  0  0  0  0  0
   21.4470   -6.1825  -15.2649 N   0  0  0  0  0  0  0  0  0  0  0  0
   19.8465   -4.4848  -14.8041 C   0  0  0  0  0  0  0  0  0  0  0  0
   18.8464   -3.9435  -14.0300 O   0  0  0  0  0  0  0  0  0  0  0  0
   19.8481   -4.2611  -16.0636 O   0  0  0  0  0  0  0  0  0  0  0  0
  2  1  1  6
  2  3  1  0
  4  2  1  0
  5  4  1  0
  5  6  1  1
  7  5  1  0
  8  7  2  0
  9  7  1  0
 10  9  1  0
 11 10  1  0
 11 16  1  0
 12 11  2  0
 14 13  1  0
 15 17  1  0
 15 16  1  0
 15 14  1  6
 17 18  1  0
 19 17  2  0
M  END
$$$$
