LGS.pdb
     RDKit          3D

 19 18  0  0  1  0  0  0  0  0999 V2000
   18.7458  -14.2488  -19.5628 C   0  0  0  0  0  0  0  0  0  0  0  0
   17.9536  -13.1396  -18.9571 C   0  0  2  0  0  0  0  0  0  0  0  0
   16.6393  -12.9152  -19.7071 C   0  0  0  0  0  0  0  0  0  0  0  0
   18.7127  -11.8837  -18.7895 C   0  0  0  0  0  0  0  0  0  0  0  0
   19.8662  -11.9396  -17.8982 C   0  0  2  0  0  0  0  0  0  0  0  0
   19.5003  -12.6264  -16.6299 N   0  0  0  0  0  0  0  0  0  0  0  0
   20.5287  -10.7011  -17.4986 C   0  0  0  0  0  0  0  0  0  0  0  0
   21.1361  -10.1432  -18.4258 O   0  0  0  0  0  0  0  0  0  0  0  0
   20.4827  -10.1663  -16.1676 N   0  0  0  0  0  0  0  0  0  0  0  0
   21.0404   -8.8823  -16.0570 C   0  0  0  0  0  0  0  0  0  0  0  0
   20.6870   -7.6921  -15.3588 C   0  0  0  0  0  0  0  0  0  0  0  0
   19.4830   -7.7039  -14.9098 O   0  0  0  0  0  0  0  0  0  0  0  0
   22.1622   -6.0002  -12.4445 O   0  0  0  0  0  0  0  0  0  0  0  0
   21.8657   -4.9454  -13.3112 C   0  0  0  0  0  0  0  0  0  0  0  0
   20.8111   -5.4244  -14.2613 C   0  0  2  0  0  0  0  0  0  0  0  0
   21.3452   -6.5291  -15.0555 N   0  0  0  0  0  0  0  0  0  0  0  0
   20.3015   -4.3944  -15.1546 C   0  0  0  0  0  0  0  0  0  0  0  0
   19.2767   -3.5546  -14.7843 O   0  0  0  0  0  0  0  0  0  0  0  0
   20.8213   -4.2665  -16.3163 O   0  0  0  0  0  0  0  0  0  0  0  0
  2  1  1  6
  2  3  1  0
  4  2  1  0
  5  4  1  0
  5  6  1  1
  7  5  1  0
  8  7  2  0
  9  7  1  0
 10  9  1  0
 11 10  1  0
 11 16  1  0
 12 11  2  0
 14 13  1  0
 15 17  1  0
 15 16  1  0
 15 14  1  6
 17 18  1  0
 19 17  2  0
M  END
$$$$
