LGS.pdb
     RDKit          3D

 19 18  0  0  1  0  0  0  0  0999 V2000
   19.4636  -15.1962  -18.1491 C   0  0  0  0  0  0  0  0  0  0  0  0
   18.8653  -14.0715  -18.9251 C   0  0  2  0  0  0  0  0  0  0  0  0
   18.7879  -14.3991  -20.4174 C   0  0  0  0  0  0  0  0  0  0  0  0
   19.5110  -12.7657  -18.6814 C   0  0  0  0  0  0  0  0  0  0  0  0
   19.4510  -12.2599  -17.3144 C   0  0  2  0  0  0  0  0  0  0  0  0
   18.0339  -12.0853  -16.8950 N   0  0  0  0  0  0  0  0  0  0  0  0
   20.1181  -11.0045  -16.9806 C   0  0  0  0  0  0  0  0  0  0  0  0
   21.3564  -11.0847  -16.9886 O   0  0  0  0  0  0  0  0  0  0  0  0
   19.4206   -9.7871  -16.6785 N   0  0  0  0  0  0  0  0  0  0  0  0
   20.2679   -8.6810  -16.5046 C   0  0  0  0  0  0  0  0  0  0  0  0
   20.4033   -7.6675  -15.5128 C   0  0  0  0  0  0  0  0  0  0  0  0
   19.4394   -7.6550  -14.6630 O   0  0  0  0  0  0  0  0  0  0  0  0
   22.5226   -4.1175  -13.0088 O   0  0  0  0  0  0  0  0  0  0  0  0
   22.6087   -5.0322  -14.0613 C   0  0  0  0  0  0  0  0  0  0  0  0
   21.2841   -5.7240  -14.1678 C   0  0  2  0  0  0  0  0  0  0  0  0
   21.3356   -6.6959  -15.2582 N   0  0  0  0  0  0  0  0  0  0  0  0
   20.1582   -4.8261  -14.3787 C   0  0  0  0  0  0  0  0  0  0  0  0
   19.3553   -4.4125  -13.3410 O   0  0  0  0  0  0  0  0  0  0  0  0
   19.9084   -4.4099  -15.5622 O   0  0  0  0  0  0  0  0  0  0  0  0
  2  1  1  1
  2  3  1  0
  4  2  1  0
  5  4  1  0
  5  6  1  6
  7  5  1  0
  8  7  2  0
  9  7  1  0
 10  9  1  0
 11 10  1  0
 11 16  1  0
 12 11  2  0
 14 13  1  0
 15 17  1  0
 15 16  1  0
 15 14  1  6
 17 18  1  0
 19 17  2  0
M  END
$$$$
