LGS.pdb
     RDKit          3D

 19 18  0  0  1  0  0  0  0  0999 V2000
   25.0384  -15.6786  -15.2273 C   0  0  0  0  0  0  0  0  0  0  0  0
   26.0177  -14.8036  -15.9346 C   0  0  2  0  0  0  0  0  0  0  0  0
   27.4588  -15.1723  -15.5772 C   0  0  0  0  0  0  0  0  0  0  0  0
   25.7614  -13.3590  -15.7653 C   0  0  0  0  0  0  0  0  0  0  0  0
   24.4386  -12.8866  -16.1592 C   0  0  2  0  0  0  0  0  0  0  0  0
   24.1874  -13.2036  -17.5912 N   0  0  0  0  0  0  0  0  0  0  0  0
   24.1019  -11.4742  -16.0034 C   0  0  0  0  0  0  0  0  0  0  0  0
   24.2252  -11.0614  -14.8397 O   0  0  0  0  0  0  0  0  0  0  0  0
   23.6761  -10.6324  -17.0850 N   0  0  0  0  0  0  0  0  0  0  0  0
   23.3340   -9.3307  -16.6845 C   0  0  0  0  0  0  0  0  0  0  0  0
   22.1088   -8.6300  -16.4919 C   0  0  0  0  0  0  0  0  0  0  0  0
   21.7846   -7.8881  -17.4898 O   0  0  0  0  0  0  0  0  0  0  0  0
   19.2959   -8.8643  -13.4941 O   0  0  0  0  0  0  0  0  0  0  0  0
   18.8749   -8.7221  -14.8186 C   0  0  0  0  0  0  0  0  0  0  0  0
   19.8975   -7.8901  -15.5305 C   0  0  2  0  0  0  0  0  0  0  0  0
   21.1913   -8.5678  -15.4760 N   0  0  0  0  0  0  0  0  0  0  0  0
   20.0403   -6.5411  -15.0027 C   0  0  0  0  0  0  0  0  0  0  0  0
   21.2077   -6.1114  -14.4154 O   0  0  0  0  0  0  0  0  0  0  0  0
   19.0525   -5.7328  -15.0875 O   0  0  0  0  0  0  0  0  0  0  0  0
  2  1  1  1
  2  3  1  0
  4  2  1  0
  5  4  1  0
  5  6  1  6
  7  5  1  0
  8  7  2  0
  9  7  1  0
 10  9  1  0
 11 10  1  0
 11 16  1  0
 12 11  2  0
 14 13  1  0
 15 17  1  0
 15 16  1  0
 15 14  1  1
 17 18  1  0
 19 17  2  0
M  END
$$$$
