LGS.pdb
     RDKit          3D

 19 18  0  0  1  0  0  0  0  0999 V2000
   17.6924  -12.8707  -18.6716 C   0  0  0  0  0  0  0  0  0  0  0  0
   18.3271  -13.5875  -17.5278 C   0  0  2  0  0  0  0  0  0  0  0  0
   17.4185  -14.6923  -16.9853 C   0  0  0  0  0  0  0  0  0  0  0  0
   18.8084  -12.6945  -16.4543 C   0  0  0  0  0  0  0  0  0  0  0  0
   19.5951  -11.5411  -16.8770 C   0  0  2  0  0  0  0  0  0  0  0  0
   20.9654  -11.9711  -17.2665 N   0  0  0  0  0  0  0  0  0  0  0  0
   19.7798  -10.4196  -15.9601 C   0  0  0  0  0  0  0  0  0  0  0  0
   18.7147   -9.8963  -15.5973 O   0  0  0  0  0  0  0  0  0  0  0  0
   21.0631   -9.9623  -15.5086 N   0  0  0  0  0  0  0  0  0  0  0  0
   20.9974   -8.8362  -14.6725 C   0  0  0  0  0  0  0  0  0  0  0  0
   21.2719   -7.4480  -14.8363 C   0  0  0  0  0  0  0  0  0  0  0  0
   22.0879   -7.2006  -15.7978 O   0  0  0  0  0  0  0  0  0  0  0  0
   18.8432   -4.4588  -14.8359 O   0  0  0  0  0  0  0  0  0  0  0  0
   20.0033   -4.0532  -14.1717 C   0  0  0  0  0  0  0  0  0  0  0  0
   21.1205   -4.9385  -14.6328 C   0  0  2  0  0  0  0  0  0  0  0  0
   20.8596   -6.3087  -14.1961 N   0  0  0  0  0  0  0  0  0  0  0  0
   22.4368   -4.5290  -14.1657 C   0  0  0  0  0  0  0  0  0  0  0  0
   23.2389   -3.6879  -14.9017 O   0  0  0  0  0  0  0  0  0  0  0  0
   22.8594   -4.9634  -13.0392 O   0  0  0  0  0  0  0  0  0  0  0  0
  2  1  1  6
  2  3  1  0
  4  2  1  0
  5  4  1  0
  5  6  1  1
  7  5  1  0
  8  7  2  0
  9  7  1  0
 10  9  1  0
 11 10  1  0
 11 16  1  0
 12 11  2  0
 14 13  1  0
 15 17  1  0
 15 16  1  0
 15 14  1  1
 17 18  1  0
 19 17  2  0
M  END
$$$$
