LGS.pdb
     RDKit          3D

 19 18  0  0  1  0  0  0  0  0999 V2000
   25.7973  -21.3795  -10.5890 C   0  0  0  0  0  0  0  0  0  0  0  0
   26.2863  -21.7863  -11.9382 C   0  0  2  0  0  0  0  0  0  0  0  0
   27.8135  -21.7442  -12.0169 C   0  0  0  0  0  0  0  0  0  0  0  0
   25.6576  -21.0464  -13.0512 C   0  0  0  0  0  0  0  0  0  0  0  0
   24.1992  -21.0444  -13.0839 C   0  0  2  0  0  0  0  0  0  0  0  0
   23.6854  -22.4410  -13.0878 N   0  0  0  0  0  0  0  0  0  0  0  0
   23.5037  -20.3658  -14.1740 C   0  0  0  0  0  0  0  0  0  0  0  0
   23.4063  -21.0530  -15.2027 O   0  0  0  0  0  0  0  0  0  0  0  0
   22.9727  -19.0361  -14.0750 N   0  0  0  0  0  0  0  0  0  0  0  0
   22.4440  -18.5497  -15.2815 C   0  0  0  0  0  0  0  0  0  0  0  0
   21.1472  -18.1598  -15.7233 C   0  0  0  0  0  0  0  0  0  0  0  0
   20.2508  -18.2428  -14.8062 O   0  0  0  0  0  0  0  0  0  0  0  0
   19.9865  -15.2972  -18.0632 O   0  0  0  0  0  0  0  0  0  0  0  0
   19.1952  -16.4129  -18.3475 C   0  0  0  0  0  0  0  0  0  0  0  0
   19.2490  -17.3200  -17.1564 C   0  0  2  0  0  0  0  0  0  0  0  0
   20.6356  -17.7130  -16.9135 N   0  0  0  0  0  0  0  0  0  0  0  0
   18.4267  -18.5147  -17.2797 C   0  0  0  0  0  0  0  0  0  0  0  0
   17.1077  -18.5313  -16.8894 O   0  0  0  0  0  0  0  0  0  0  0  0
   18.9453  -19.5787  -17.7645 O   0  0  0  0  0  0  0  0  0  0  0  0
  2  1  1  1
  2  3  1  0
  4  2  1  0
  5  4  1  0
  5  6  1  6
  7  5  1  0
  8  7  2  0
  9  7  1  0
 10  9  1  0
 11 10  1  0
 11 16  1  0
 12 11  2  0
 14 13  1  0
 15 17  1  0
 15 16  1  0
 15 14  1  6
 17 18  1  0
 19 17  2  0
M  END
$$$$
