LGS.pdb
     RDKit          3D

 19 18  0  0  1  0  0  0  0  0999 V2000
   19.1326  -15.2442  -15.7239 C   0  0  0  0  0  0  0  0  0  0  0  0
   18.9631  -14.6186  -17.0673 C   0  0  2  0  0  0  0  0  0  0  0  0
   19.3707  -15.5775  -18.1874 C   0  0  0  0  0  0  0  0  0  0  0  0
   19.6210  -13.3032  -17.2027 C   0  0  0  0  0  0  0  0  0  0  0  0
   19.2249  -12.2803  -16.2411 C   0  0  2  0  0  0  0  0  0  0  0  0
   17.7838  -11.9501  -16.4094 N   0  0  0  0  0  0  0  0  0  0  0  0
   19.9235  -10.9979  -16.2243 C   0  0  0  0  0  0  0  0  0  0  0  0
   21.1436  -11.1016  -16.0231 O   0  0  0  0  0  0  0  0  0  0  0  0
   19.2745   -9.7341  -16.4274 N   0  0  0  0  0  0  0  0  0  0  0  0
   20.1360   -8.6323  -16.3031 C   0  0  0  0  0  0  0  0  0  0  0  0
   20.2622   -7.5573  -15.3770 C   0  0  0  0  0  0  0  0  0  0  0  0
   19.3044   -7.5073  -14.5217 O   0  0  0  0  0  0  0  0  0  0  0  0
   22.5365   -4.1966  -12.8023 O   0  0  0  0  0  0  0  0  0  0  0  0
   22.5762   -5.1031  -13.8645 C   0  0  0  0  0  0  0  0  0  0  0  0
   21.1768   -5.5831  -14.1011 C   0  0  2  0  0  0  0  0  0  0  0  0
   21.1804   -6.5573  -15.1907 N   0  0  0  0  0  0  0  0  0  0  0  0
   20.2275   -4.5235  -14.4086 C   0  0  0  0  0  0  0  0  0  0  0  0
   19.4686   -3.9227  -13.4310 O   0  0  0  0  0  0  0  0  0  0  0  0
   20.0953   -4.1403  -15.6218 O   0  0  0  0  0  0  0  0  0  0  0  0
  2  1  1  1
  2  3  1  0
  4  2  1  0
  5  4  1  0
  5  6  1  6
  7  5  1  0
  8  7  2  0
  9  7  1  0
 10  9  1  0
 11 10  1  0
 11 16  1  0
 12 11  2  0
 14 13  1  0
 15 17  1  0
 15 16  1  0
 15 14  1  6
 17 18  1  0
 19 17  2  0
M  END
$$$$
