VQK.pdb
     RDKit          3D

 26 25  0  0  1  0  0  0  0  0999 V2000
    5.8865  -16.6752   18.8797 C   0  0  0  0  0  0  0  0  0  0  0  0
    6.6888  -16.4696   20.1246 C   0  0  1  0  0  0  0  0  0  0  0  0
    7.8466  -17.4657   20.1750 C   0  0  0  0  0  0  0  0  0  0  0  0
    7.2135  -15.0618   20.1696 C   0  0  2  0  0  0  0  0  0  0  0  0
    8.0198  -14.8020   19.0221 N   0  0  0  0  0  0  0  0  0  0  0  0
    7.9587  -14.7821   21.4223 C   0  0  0  0  0  0  0  0  0  0  0  0
    9.2053  -14.9011   21.4701 O   0  0  0  0  0  0  0  0  0  0  0  0
    5.3762  -12.0684   26.4075 N   0  0  0  0  0  0  0  0  0  0  0  0
    6.6921  -12.2688   26.8932 C   0  0  0  0  0  0  0  0  0  0  0  0
    7.0145  -11.7753   27.9925 O   0  0  0  0  0  0  0  0  0  0  0  0
    7.7057  -13.0658   26.1066 C   0  0  0  0  0  0  0  0  0  0  0  0
    7.1254  -13.3990   24.7718 C   0  0  0  0  0  0  0  0  0  0  0  0
    8.0254  -14.1184   23.8235 C   0  0  2  0  0  0  0  0  0  0  0  0
    7.2701  -14.3788   22.5725 N   0  0  0  0  0  0  0  0  0  0  0  0
    8.5710  -15.3949   24.3241 C   0  0  0  0  0  0  0  0  0  0  0  0
    7.8190  -16.4377   24.3810 O   0  0  0  0  0  0  0  0  0  0  0  0
    9.8874  -15.5659   24.7475 N   0  0  0  0  0  0  0  0  0  0  0  0
   10.4005  -16.9410   25.1375 C   0  0  1  0  0  0  0  0  0  0  0  0
   11.6462  -17.0079   24.2990 C   0  0  0  0  0  0  0  0  0  0  0  0
   12.6086  -18.0515   24.5516 C   0  0  0  0  0  0  0  0  0  0  0  0
   13.8530  -18.0795   23.7577 C   0  0  0  0  0  0  0  0  0  0  0  0
   14.6722  -19.2848   24.3467 C   0  0  0  0  0  0  0  0  0  0  0  0
   15.8977  -19.3090   23.5827 N   0  0  0  0  0  0  0  0  0  0  0  0
   10.6034  -16.7959   26.5796 C   0  0  0  0  0  0  0  0  0  0  0  0
   10.2808  -15.5863   27.2219 O   0  0  0  0  0  0  0  0  0  0  0  0
   11.0565  -17.6848   27.3109 O   0  0  0  0  0  0  0  0  0  0  0  0
  2  1  1  6
  2  4  1  0
  3  2  1  0
  4  5  1  6
  4  6  1  0
  6 14  1  0
  6  7  2  0
  8  9  1  0
  9 10  2  0
 11  9  1  0
 11 12  1  0
 13 12  1  1
 13 15  1  0
 14 13  1  0
 15 16  2  0
 17 18  1  0
 17 15  1  0
 18 24  1  0
 18 19  1  6
 20 19  1  0
 21 20  1  0
 22 21  1  0
 23 22  1  0
 24 25  1  0
 26 24  2  0
M  END
$$$$
