VQK.pdb
     RDKit          3D

 26 25  0  0  1  0  0  0  0  0999 V2000
    8.7186  -12.7939   17.9586 C   0  0  0  0  0  0  0  0  0  0  0  0
    8.7802  -13.4977   19.2764 C   0  0  1  0  0  0  0  0  0  0  0  0
    7.6936  -12.9643   20.2092 C   0  0  0  0  0  0  0  0  0  0  0  0
    8.6104  -14.9776   19.0756 C   0  0  2  0  0  0  0  0  0  0  0  0
    7.4296  -15.2377   18.3189 N   0  0  0  0  0  0  0  0  0  0  0  0
    8.5969  -15.7190   20.3612 C   0  0  0  0  0  0  0  0  0  0  0  0
    7.5201  -15.9541   20.9575 O   0  0  0  0  0  0  0  0  0  0  0  0
   12.7346  -19.9275   21.8206 N   0  0  0  0  0  0  0  0  0  0  0  0
   12.0456  -19.8888   23.0581 C   0  0  0  0  0  0  0  0  0  0  0  0
   12.3304  -20.7265   23.9373 O   0  0  0  0  0  0  0  0  0  0  0  0
   10.9775  -18.8557   23.3293 C   0  0  0  0  0  0  0  0  0  0  0  0
   10.8329  -17.9852   22.1248 C   0  0  0  0  0  0  0  0  0  0  0  0
    9.7668  -16.9431   22.1898 C   0  0  2  0  0  0  0  0  0  0  0  0
    9.7975  -16.1670   20.9249 N   0  0  0  0  0  0  0  0  0  0  0  0
    9.8747  -16.0065   23.3251 C   0  0  0  0  0  0  0  0  0  0  0  0
   10.7845  -15.0963   23.3240 O   0  0  0  0  0  0  0  0  0  0  0  0
    9.0318  -16.0277   24.4343 N   0  0  0  0  0  0  0  0  0  0  0  0
    9.2021  -15.0149   25.5529 C   0  0  1  0  0  0  0  0  0  0  0  0
    7.9151  -14.2501   25.4178 C   0  0  0  0  0  0  0  0  0  0  0  0
    7.6008  -13.2265   26.3835 C   0  0  0  0  0  0  0  0  0  0  0  0
    6.3354  -12.4793   26.2423 C   0  0  0  0  0  0  0  0  0  0  0  0
    6.3566  -11.4373   27.4191 C   0  0  0  0  0  0  0  0  0  0  0  0
    5.1806  -10.6239   27.2154 N   0  0  0  0  0  0  0  0  0  0  0  0
    9.3181  -15.8749   26.7314 C   0  0  0  0  0  0  0  0  0  0  0  0
    9.0868  -17.2586   26.6237 O   0  0  0  0  0  0  0  0  0  0  0  0
    9.6121  -15.4689   27.8623 O   0  0  0  0  0  0  0  0  0  0  0  0
  2  1  1  6
  2  4  1  0
  3  2  1  0
  4  5  1  1
  4  6  1  0
  6 14  1  0
  6  7  2  0
  8  9  1  0
  9 10  2  0
 11  9  1  0
 11 12  1  0
 13 12  1  6
 13 15  1  0
 14 13  1  0
 15 16  2  0
 17 18  1  0
 17 15  1  0
 18 24  1  0
 18 19  1  1
 20 19  1  0
 21 20  1  0
 22 21  1  0
 23 22  1  0
 24 25  1  0
 26 24  2  0
M  END
$$$$
