VQK.pdb
     RDKit          3D

 26 25  0  0  1  0  0  0  0  0999 V2000
    7.7864  -13.4131   18.4106 C   0  0  0  0  0  0  0  0  0  0  0  0
    8.1810  -13.2651   19.8452 C   0  0  1  0  0  0  0  0  0  0  0  0
    7.2604  -12.2652   20.5438 C   0  0  0  0  0  0  0  0  0  0  0  0
    8.1161  -14.5990   20.5349 C   0  0  2  0  0  0  0  0  0  0  0  0
    6.8382  -15.1973   20.3265 N   0  0  0  0  0  0  0  0  0  0  0  0
    8.4303  -14.4969   21.9818 C   0  0  0  0  0  0  0  0  0  0  0  0
    9.5791  -14.1812   22.3704 O   0  0  0  0  0  0  0  0  0  0  0  0
    7.2103  -11.6109   26.2290 N   0  0  0  0  0  0  0  0  0  0  0  0
    7.4136  -12.8242   26.9320 C   0  0  0  0  0  0  0  0  0  0  0  0
    8.2488  -12.8561   27.8579 O   0  0  0  0  0  0  0  0  0  0  0  0
    6.6401  -14.0732   26.5811 C   0  0  0  0  0  0  0  0  0  0  0  0
    6.5357  -14.1733   25.0949 C   0  0  0  0  0  0  0  0  0  0  0  0
    7.7608  -14.6341   24.3784 C   0  0  2  0  0  0  0  0  0  0  0  0
    7.4376  -14.7544   22.9347 N   0  0  0  0  0  0  0  0  0  0  0  0
    8.3168  -15.9174   24.8498 C   0  0  0  0  0  0  0  0  0  0  0  0
    7.6635  -17.0098   24.6602 O   0  0  0  0  0  0  0  0  0  0  0  0
    9.5424  -16.0423   25.5005 N   0  0  0  0  0  0  0  0  0  0  0  0
   10.0349  -17.4017   25.9648 C   0  0  1  0  0  0  0  0  0  0  0  0
   11.2643  -17.5450   25.1118 C   0  0  0  0  0  0  0  0  0  0  0  0
   11.9786  -18.7975   25.1126 C   0  0  0  0  0  0  0  0  0  0  0  0
   13.2421  -18.8968   24.3554 C   0  0  0  0  0  0  0  0  0  0  0  0
   13.6751  -20.4007   24.5018 C   0  0  0  0  0  0  0  0  0  0  0  0
   14.8441  -20.5333   23.6639 N   0  0  0  0  0  0  0  0  0  0  0  0
   10.2657  -17.1743   27.3920 C   0  0  0  0  0  0  0  0  0  0  0  0
   10.3966  -18.2654   28.2708 O   0  0  0  0  0  0  0  0  0  0  0  0
   10.3565  -16.0556   27.9120 O   0  0  0  0  0  0  0  0  0  0  0  0
  2  1  1  6
  2  4  1  0
  3  2  1  0
  4  5  1  1
  4  6  1  0
  6 14  1  0
  6  7  2  0
  8  9  1  0
  9 10  2  0
 11  9  1  0
 11 12  1  0
 13 12  1  1
 13 15  1  0
 14 13  1  0
 15 16  2  0
 17 18  1  0
 17 15  1  0
 18 24  1  0
 18 19  1  6
 20 19  1  0
 21 20  1  0
 22 21  1  0
 23 22  1  0
 24 25  1  0
 26 24  2  0
M  END
$$$$
