VQK.pdb
     RDKit          3D

 26 25  0  0  1  0  0  0  0  0999 V2000
    8.7367  -12.9222   20.8375 C   0  0  0  0  0  0  0  0  0  0  0  0
    7.5547  -13.5441   20.1652 C   0  0  1  0  0  0  0  0  0  0  0  0
    6.8219  -12.5030   19.3200 C   0  0  0  0  0  0  0  0  0  0  0  0
    8.0006  -14.6915   19.3027 C   0  0  2  0  0  0  0  0  0  0  0  0
    6.8872  -15.2362   18.5969 N   0  0  0  0  0  0  0  0  0  0  0  0
    8.7038  -15.7391   20.0843 C   0  0  0  0  0  0  0  0  0  0  0  0
    8.0639  -16.6412   20.6733 O   0  0  0  0  0  0  0  0  0  0  0  0
   14.9913  -19.0394   19.2826 N   0  0  0  0  0  0  0  0  0  0  0  0
   13.5898  -18.9180   19.1134 C   0  0  0  0  0  0  0  0  0  0  0  0
   13.0899  -19.1657   17.9977 O   0  0  0  0  0  0  0  0  0  0  0  0
   12.6955  -18.4961   20.2551 C   0  0  0  0  0  0  0  0  0  0  0  0
   11.8122  -17.3857   19.7898 C   0  0  0  0  0  0  0  0  0  0  0  0
   10.8043  -16.8903   20.7723 C   0  0  2  0  0  0  0  0  0  0  0  0
   10.1010  -15.7293   20.1717 N   0  0  0  0  0  0  0  0  0  0  0  0
   11.3516  -16.4887   22.0827 C   0  0  0  0  0  0  0  0  0  0  0  0
   11.9622  -15.3627   22.2071 O   0  0  0  0  0  0  0  0  0  0  0  0
   11.2473  -17.2592   23.2388 N   0  0  0  0  0  0  0  0  0  0  0  0
   11.8298  -16.7649   24.5513 C   0  0  1  0  0  0  0  0  0  0  0  0
   11.1325  -17.6840   25.5149 C   0  0  0  0  0  0  0  0  0  0  0  0
   11.5607  -17.7156   26.8914 C   0  0  0  0  0  0  0  0  0  0  0  0
   10.8209  -18.5628   27.8477 C   0  0  0  0  0  0  0  0  0  0  0  0
   11.4549  -18.2287   29.2466 C   0  0  0  0  0  0  0  0  0  0  0  0
   10.8221  -19.1429   30.1685 N   0  0  0  0  0  0  0  0  0  0  0  0
   13.2616  -17.0001   24.3603 C   0  0  0  0  0  0  0  0  0  0  0  0
   14.2057  -16.1525   24.9687 O   0  0  0  0  0  0  0  0  0  0  0  0
   13.7303  -17.9190   23.6777 O   0  0  0  0  0  0  0  0  0  0  0  0
  2  1  1  6
  2  4  1  0
  3  2  1  0
  4  5  1  1
  4  6  1  0
  6 14  1  0
  6  7  2  0
  8  9  1  0
  9 10  2  0
 11  9  1  0
 11 12  1  0
 13 12  1  6
 13 15  1  0
 14 13  1  0
 15 16  2  0
 17 18  1  0
 17 15  1  0
 18 24  1  0
 18 19  1  1
 20 19  1  0
 21 20  1  0
 22 21  1  0
 23 22  1  0
 24 25  1  0
 26 24  2  0
M  END
$$$$
