VQK.pdb
     RDKit          3D

 26 25  0  0  1  0  0  0  0  0999 V2000
    8.6103  -13.1006   20.3654 C   0  0  0  0  0  0  0  0  0  0  0  0
    7.9139  -13.8022   19.2436 C   0  0  1  0  0  0  0  0  0  0  0  0
    6.7705  -12.9390   18.7119 C   0  0  0  0  0  0  0  0  0  0  0  0
    8.8913  -14.1037   18.1422 C   0  0  2  0  0  0  0  0  0  0  0  0
    8.2362  -14.7956   17.0808 N   0  0  0  0  0  0  0  0  0  0  0  0
   10.0685  -14.8640   18.6311 C   0  0  0  0  0  0  0  0  0  0  0  0
   10.0537  -16.1163   18.6735 O   0  0  0  0  0  0  0  0  0  0  0  0
   14.9973  -15.2914   16.9815 N   0  0  0  0  0  0  0  0  0  0  0  0
   15.6086  -15.3275   18.2592 C   0  0  0  0  0  0  0  0  0  0  0  0
   16.7091  -15.9001   18.3891 O   0  0  0  0  0  0  0  0  0  0  0  0
   14.9535  -14.6878   19.4605 C   0  0  0  0  0  0  0  0  0  0  0  0
   13.6283  -14.1361   19.0494 C   0  0  0  0  0  0  0  0  0  0  0  0
   12.4338  -14.9542   19.4108 C   0  0  2  0  0  0  0  0  0  0  0  0
   11.2167  -14.1834   19.0531 N   0  0  0  0  0  0  0  0  0  0  0  0
   12.3487  -15.3450   20.8314 C   0  0  0  0  0  0  0  0  0  0  0  0
   12.1326  -14.4520   21.7324 O   0  0  0  0  0  0  0  0  0  0  0  0
   12.4811  -16.6549   21.2874 N   0  0  0  0  0  0  0  0  0  0  0  0
   12.4272  -16.9643   22.7732 C   0  0  1  0  0  0  0  0  0  0  0  0
   12.0072  -18.4069   22.7296 C   0  0  0  0  0  0  0  0  0  0  0  0
   10.6136  -18.7283   22.5460 C   0  0  0  0  0  0  0  0  0  0  0  0
   10.2354  -20.1307   22.2819 C   0  0  0  0  0  0  0  0  0  0  0  0
    8.6687  -20.1023   22.1575 C   0  0  0  0  0  0  0  0  0  0  0  0
    8.3054  -21.4370   21.7420 N   0  0  0  0  0  0  0  0  0  0  0  0
   13.8063  -16.7087   23.1909 C   0  0  0  0  0  0  0  0  0  0  0  0
   14.0983  -16.4342   24.5397 O   0  0  0  0  0  0  0  0  0  0  0  0
   14.7769  -16.7113   22.4240 O   0  0  0  0  0  0  0  0  0  0  0  0
  2  1  1  1
  2  4  1  0
  3  2  1  0
  4  5  1  6
  4  6  1  0
  6 14  1  0
  6  7  2  0
  8  9  1  0
  9 10  2  0
 11  9  1  0
 11 12  1  0
 13 12  1  1
 13 15  1  0
 14 13  1  0
 15 16  2  0
 17 18  1  0
 17 15  1  0
 18 24  1  0
 18 19  1  6
 20 19  1  0
 21 20  1  0
 22 21  1  0
 23 22  1  0
 24 25  1  0
 26 24  2  0
M  END
$$$$
