VQK.pdb
     RDKit          3D

 26 25  0  0  1  0  0  0  0  0999 V2000
    7.4625  -12.2064   19.4599 C   0  0  0  0  0  0  0  0  0  0  0  0
    8.6232  -13.0444   19.8914 C   0  0  1  0  0  0  0  0  0  0  0  0
    8.2680  -13.8238   21.1569 C   0  0  0  0  0  0  0  0  0  0  0  0
    9.0090  -13.9917   18.7900 C   0  0  2  0  0  0  0  0  0  0  0  0
    7.9062  -14.8332   18.4582 N   0  0  0  0  0  0  0  0  0  0  0  0
   10.2093  -14.7932   19.1360 C   0  0  0  0  0  0  0  0  0  0  0  0
   10.1021  -15.9844   19.5100 O   0  0  0  0  0  0  0  0  0  0  0  0
   15.7504  -13.7788   16.6720 N   0  0  0  0  0  0  0  0  0  0  0  0
   14.7166  -14.5466   16.0809 C   0  0  0  0  0  0  0  0  0  0  0  0
   14.7714  -14.8005   14.8609 O   0  0  0  0  0  0  0  0  0  0  0  0
   13.5553  -15.0602   16.8989 C   0  0  0  0  0  0  0  0  0  0  0  0
   13.7449  -14.6420   18.3197 C   0  0  0  0  0  0  0  0  0  0  0  0
   12.6824  -15.0657   19.2781 C   0  0  2  0  0  0  0  0  0  0  0  0
   11.4839  -14.2211   19.0468 N   0  0  0  0  0  0  0  0  0  0  0  0
   13.0551  -14.9822   20.7036 C   0  0  0  0  0  0  0  0  0  0  0  0
   13.1226  -13.8360   21.2847 O   0  0  0  0  0  0  0  0  0  0  0  0
   13.3421  -16.0895   21.4990 N   0  0  0  0  0  0  0  0  0  0  0  0
   13.6745  -15.9175   22.9708 C   0  0  1  0  0  0  0  0  0  0  0  0
   13.3183  -17.2841   23.4856 C   0  0  0  0  0  0  0  0  0  0  0  0
   12.0639  -17.4721   24.1713 C   0  0  0  0  0  0  0  0  0  0  0  0
   11.7684  -18.7908   24.7658 C   0  0  0  0  0  0  0  0  0  0  0  0
   10.3649  -18.6116   25.4506 C   0  0  0  0  0  0  0  0  0  0  0  0
   10.0749  -19.8963   26.0434 N   0  0  0  0  0  0  0  0  0  0  0  0
   15.1023  -15.5987   22.9284 C   0  0  0  0  0  0  0  0  0  0  0  0
   15.8567  -15.8802   21.7745 O   0  0  0  0  0  0  0  0  0  0  0  0
   15.7277  -15.0833   23.8629 O   0  0  0  0  0  0  0  0  0  0  0  0
  2  1  1  6
  2  4  1  0
  3  2  1  0
  4  5  1  1
  4  6  1  0
  6 14  1  0
  6  7  2  0
  8  9  1  0
  9 10  2  0
 11  9  1  0
 11 12  1  0
 13 12  1  6
 13 15  1  0
 14 13  1  0
 15 16  2  0
 17 18  1  0
 17 15  1  0
 18 24  1  0
 18 19  1  1
 20 19  1  0
 21 20  1  0
 22 21  1  0
 23 22  1  0
 24 25  1  0
 26 24  2  0
M  END
$$$$
