VQK.pdb
     RDKit          3D

 26 25  0  0  1  0  0  0  0  0999 V2000
    7.2994  -13.1046   19.5164 C   0  0  0  0  0  0  0  0  0  0  0  0
    7.7567  -14.3129   18.7637 C   0  0  1  0  0  0  0  0  0  0  0  0
    8.2986  -13.9060   17.3940 C   0  0  0  0  0  0  0  0  0  0  0  0
    8.8173  -15.0341   19.5476 C   0  0  2  0  0  0  0  0  0  0  0  0
    9.3205  -16.1355   18.7939 N   0  0  0  0  0  0  0  0  0  0  0  0
    8.3281  -15.4742   20.8779 C   0  0  0  0  0  0  0  0  0  0  0  0
    7.7548  -14.6716   21.6508 O   0  0  0  0  0  0  0  0  0  0  0  0
    6.1761  -20.4387   22.7369 N   0  0  0  0  0  0  0  0  0  0  0  0
    6.7754  -20.1733   23.9930 C   0  0  0  0  0  0  0  0  0  0  0  0
    6.2922  -20.6948   25.0179 O   0  0  0  0  0  0  0  0  0  0  0  0
    7.9833  -19.2741   24.1115 C   0  0  0  0  0  0  0  0  0  0  0  0
    8.2818  -18.6896   22.7703 C   0  0  0  0  0  0  0  0  0  0  0  0
    7.9720  -17.2399   22.6002 C   0  0  2  0  0  0  0  0  0  0  0  0
    8.5038  -16.8019   21.2854 N   0  0  0  0  0  0  0  0  0  0  0  0
    8.5137  -16.3560   23.6506 C   0  0  0  0  0  0  0  0  0  0  0  0
    9.7237  -15.9258   23.5683 O   0  0  0  0  0  0  0  0  0  0  0  0
    7.7868  -15.9299   24.7602 N   0  0  0  0  0  0  0  0  0  0  0  0
    8.3163  -14.8187   25.6497 C   0  0  1  0  0  0  0  0  0  0  0  0
    7.0399  -14.0801   25.9411 C   0  0  0  0  0  0  0  0  0  0  0  0
    7.0892  -12.8768   26.7340 C   0  0  0  0  0  0  0  0  0  0  0  0
    5.8327  -12.1503   27.0039 C   0  0  0  0  0  0  0  0  0  0  0  0
    6.2493  -10.9825   27.9701 C   0  0  0  0  0  0  0  0  0  0  0  0
    5.0260  -10.2586   28.2260 N   0  0  0  0  0  0  0  0  0  0  0  0
    8.8947  -15.5676   26.7661 C   0  0  0  0  0  0  0  0  0  0  0  0
    8.6850  -16.9549   26.8724 O   0  0  0  0  0  0  0  0  0  0  0  0
    9.5792  -15.0605   27.6630 O   0  0  0  0  0  0  0  0  0  0  0  0
  2  1  1  1
  2  4  1  0
  3  2  1  0
  4  5  1  6
  4  6  1  0
  6 14  1  0
  6  7  2  0
  8  9  1  0
  9 10  2  0
 11  9  1  0
 11 12  1  0
 13 12  1  1
 13 15  1  0
 14 13  1  0
 15 16  2  0
 17 18  1  0
 17 15  1  0
 18 24  1  0
 18 19  1  1
 20 19  1  0
 21 20  1  0
 22 21  1  0
 23 22  1  0
 24 25  1  0
 26 24  2  0
M  END
$$$$
