VQK.pdb
     RDKit          3D

 26 25  0  0  1  0  0  0  0  0999 V2000
    8.9396  -12.9357   20.3379 C   0  0  0  0  0  0  0  0  0  0  0  0
    7.7226  -13.5295   19.7039 C   0  0  1  0  0  0  0  0  0  0  0  0
    7.1796  -12.5915   18.6266 C   0  0  0  0  0  0  0  0  0  0  0  0
    8.0571  -14.8673   19.1059 C   0  0  2  0  0  0  0  0  0  0  0  0
    6.9235  -15.3951   18.4197 N   0  0  0  0  0  0  0  0  0  0  0  0
    8.5616  -15.8242   20.1220 C   0  0  0  0  0  0  0  0  0  0  0  0
    7.7731  -16.4214   20.8914 O   0  0  0  0  0  0  0  0  0  0  0  0
    8.2869  -20.1212   20.0514 N   0  0  0  0  0  0  0  0  0  0  0  0
    9.6758  -19.9616   20.2817 C   0  0  0  0  0  0  0  0  0  0  0  0
   10.2268  -20.6479   21.1656 O   0  0  0  0  0  0  0  0  0  0  0  0
   10.4963  -18.9796   19.4793 C   0  0  0  0  0  0  0  0  0  0  0  0
   11.2400  -18.0910   20.4209 C   0  0  0  0  0  0  0  0  0  0  0  0
   10.4193  -17.1038   21.1816 C   0  0  2  0  0  0  0  0  0  0  0  0
    9.9352  -16.0712   20.2314 N   0  0  0  0  0  0  0  0  0  0  0  0
   11.1180  -16.4345   22.2959 C   0  0  0  0  0  0  0  0  0  0  0  0
   11.9053  -15.4443   22.0594 O   0  0  0  0  0  0  0  0  0  0  0  0
   10.9796  -16.8004   23.6331 N   0  0  0  0  0  0  0  0  0  0  0  0
   11.7330  -16.0536   24.7198 C   0  0  1  0  0  0  0  0  0  0  0  0
   10.6532  -15.9349   25.7588 C   0  0  0  0  0  0  0  0  0  0  0  0
   10.9953  -15.4630   27.0776 C   0  0  0  0  0  0  0  0  0  0  0  0
    9.9139  -15.2476   28.0592 C   0  0  0  0  0  0  0  0  0  0  0  0
   10.6517  -14.7807   29.3663 C   0  0  0  0  0  0  0  0  0  0  0  0
    9.5946  -14.3901   30.2695 N   0  0  0  0  0  0  0  0  0  0  0  0
   12.8238  -16.9790   25.0293 C   0  0  0  0  0  0  0  0  0  0  0  0
   12.6923  -18.3501   24.7416 O   0  0  0  0  0  0  0  0  0  0  0  0
   13.8956  -16.6422   25.5469 O   0  0  0  0  0  0  0  0  0  0  0  0
  2  1  1  6
  2  4  1  0
  3  2  1  0
  4  5  1  1
  4  6  1  0
  6 14  1  0
  6  7  2  0
  8  9  1  0
  9 10  2  0
 11  9  1  0
 11 12  1  0
 13 12  1  6
 13 15  1  0
 14 13  1  0
 15 16  2  0
 17 18  1  0
 17 15  1  0
 18 24  1  0
 18 19  1  1
 20 19  1  0
 21 20  1  0
 22 21  1  0
 23 22  1  0
 24 25  1  0
 26 24  2  0
M  END
$$$$
