VQK.pdb
     RDKit          3D

 26 25  0  0  1  0  0  0  0  0999 V2000
    7.7198  -12.1801   18.4625 C   0  0  0  0  0  0  0  0  0  0  0  0
    7.7182  -13.3263   19.4227 C   0  0  1  0  0  0  0  0  0  0  0  0
    7.0541  -14.5461   18.7850 C   0  0  0  0  0  0  0  0  0  0  0  0
    9.1271  -13.6564   19.8293 C   0  0  2  0  0  0  0  0  0  0  0  0
    9.8877  -14.0487   18.6882 N   0  0  0  0  0  0  0  0  0  0  0  0
    9.1753  -14.6952   20.8882 C   0  0  0  0  0  0  0  0  0  0  0  0
    8.5146  -14.5679   21.9454 O   0  0  0  0  0  0  0  0  0  0  0  0
   11.1184  -20.4479   19.7525 N   0  0  0  0  0  0  0  0  0  0  0  0
    9.8236  -19.9667   19.4367 C   0  0  0  0  0  0  0  0  0  0  0  0
    9.1302  -20.5905   18.6085 O   0  0  0  0  0  0  0  0  0  0  0  0
    9.2718  -18.7179   20.0826 C   0  0  0  0  0  0  0  0  0  0  0  0
   10.2696  -18.2039   21.0673 C   0  0  0  0  0  0  0  0  0  0  0  0
    9.9304  -16.9137   21.7360 C   0  0  2  0  0  0  0  0  0  0  0  0
    9.9660  -15.8372   20.7146 N   0  0  0  0  0  0  0  0  0  0  0  0
   10.8152  -16.5366   22.8553 C   0  0  0  0  0  0  0  0  0  0  0  0
   11.9952  -16.0817   22.6173 O   0  0  0  0  0  0  0  0  0  0  0  0
   10.4551  -16.6313   24.1979 N   0  0  0  0  0  0  0  0  0  0  0  0
   11.4658  -16.3327   25.2912 C   0  0  1  0  0  0  0  0  0  0  0  0
   10.5622  -15.7341   26.3328 C   0  0  0  0  0  0  0  0  0  0  0  0
   11.0864  -15.4682   27.6494 C   0  0  0  0  0  0  0  0  0  0  0  0
   10.1676  -14.9772   28.6955 C   0  0  0  0  0  0  0  0  0  0  0  0
   11.0765  -14.7851   29.9635 C   0  0  0  0  0  0  0  0  0  0  0  0
   10.1856  -14.2896   30.9867 N   0  0  0  0  0  0  0  0  0  0  0  0
   11.9979  -17.6629   25.5898 C   0  0  0  0  0  0  0  0  0  0  0  0
   11.2411  -18.8114   25.2926 O   0  0  0  0  0  0  0  0  0  0  0  0
   13.1029  -17.8701   26.1057 O   0  0  0  0  0  0  0  0  0  0  0  0
  2  1  1  6
  2  4  1  0
  3  2  1  0
  4  5  1  6
  4  6  1  0
  6 14  1  0
  6  7  2  0
  8  9  1  0
  9 10  2  0
 11  9  1  0
 11 12  1  0
 13 12  1  6
 13 15  1  0
 14 13  1  0
 15 16  2  0
 17 18  1  0
 17 15  1  0
 18 24  1  0
 18 19  1  1
 20 19  1  0
 21 20  1  0
 22 21  1  0
 23 22  1  0
 24 25  1  0
 26 24  2  0
M  END
$$$$
