VQK.pdb
     RDKit          3D

 26 25  0  0  1  0  0  0  0  0999 V2000
    7.0005  -17.6214   21.2459 C   0  0  0  0  0  0  0  0  0  0  0  0
    7.7738  -16.9833   20.1366 C   0  0  1  0  0  0  0  0  0  0  0  0
    7.0974  -17.2625   18.7950 C   0  0  0  0  0  0  0  0  0  0  0  0
    7.8744  -15.5016   20.3682 C   0  0  2  0  0  0  0  0  0  0  0  0
    8.5964  -14.8865   19.3030 N   0  0  0  0  0  0  0  0  0  0  0  0
    8.4829  -15.1806   21.6833 C   0  0  0  0  0  0  0  0  0  0  0  0
    9.7227  -15.2481   21.8526 O   0  0  0  0  0  0  0  0  0  0  0  0
    5.4887  -12.1136   26.1719 N   0  0  0  0  0  0  0  0  0  0  0  0
    6.7260  -12.3414   26.8236 C   0  0  0  0  0  0  0  0  0  0  0  0
    6.9413  -11.7954   27.9243 O   0  0  0  0  0  0  0  0  0  0  0  0
    7.7834  -13.2294   26.2114 C   0  0  0  0  0  0  0  0  0  0  0  0
    7.3466  -13.6218   24.8385 C   0  0  0  0  0  0  0  0  0  0  0  0
    8.2911  -14.4826   24.0680 C   0  0  2  0  0  0  0  0  0  0  0  0
    7.6705  -14.7957   22.7565 N   0  0  0  0  0  0  0  0  0  0  0  0
    8.6683  -15.7467   24.7295 C   0  0  0  0  0  0  0  0  0  0  0  0
    7.7795  -16.6536   24.9384 O   0  0  0  0  0  0  0  0  0  0  0  0
    9.9610  -16.0478   25.1532 N   0  0  0  0  0  0  0  0  0  0  0  0
   10.2523  -17.3502   25.8777 C   0  0  1  0  0  0  0  0  0  0  0  0
   11.5347  -17.7492   25.2027 C   0  0  0  0  0  0  0  0  0  0  0  0
   11.4779  -18.4801   23.9610 C   0  0  0  0  0  0  0  0  0  0  0  0
   12.7396  -18.7942   23.2616 C   0  0  0  0  0  0  0  0  0  0  0  0
   12.2954  -19.5877   21.9795 C   0  0  0  0  0  0  0  0  0  0  0  0
   13.5238  -19.8707   21.2745 N   0  0  0  0  0  0  0  0  0  0  0  0
   10.3682  -16.9092   27.2684 C   0  0  0  0  0  0  0  0  0  0  0  0
   10.2462  -15.5451   27.5912 O   0  0  0  0  0  0  0  0  0  0  0  0
   10.5759  -17.6676   28.2233 O   0  0  0  0  0  0  0  0  0  0  0  0
  2  1  1  1
  2  4  1  0
  3  2  1  0
  4  5  1  6
  4  6  1  0
  6 14  1  0
  6  7  2  0
  8  9  1  0
  9 10  2  0
 11  9  1  0
 11 12  1  0
 13 12  1  1
 13 15  1  0
 14 13  1  0
 15 16  2  0
 17 18  1  0
 17 15  1  0
 18 24  1  0
 18 19  1  6
 20 19  1  0
 21 20  1  0
 22 21  1  0
 23 22  1  0
 24 25  1  0
 26 24  2  0
M  END
$$$$
