QSC.pdb
     RDKit          3D

 22 21  0  0  1  0  0  0  0  0999 V2000
    8.2016  -12.5055   17.3648 N   0  0  0  0  0  0  0  0  0  0  0  0
    8.1009  -13.8461   16.9421 C   0  0  0  0  0  0  0  0  0  0  0  0
    8.2514  -14.1547   15.7393 O   0  0  0  0  0  0  0  0  0  0  0  0
    7.8167  -14.9052   17.9119 C   0  0  0  0  0  0  0  0  0  0  0  0
    7.6317  -14.3707   19.3199 C   0  0  0  0  0  0  0  0  0  0  0  0
    8.5340  -15.1636   20.2597 C   0  0  2  0  0  0  0  0  0  0  0  0
    8.4270  -16.5576   19.9375 N   0  0  0  0  0  0  0  0  0  0  0  0
    8.0654  -14.9229   21.6598 C   0  0  0  0  0  0  0  0  0  0  0  0
    7.9748  -13.7535   22.1113 O   0  0  0  0  0  0  0  0  0  0  0  0
    7.4606  -18.1751   24.3398 O   0  0  0  0  0  0  0  0  0  0  0  0
    6.5600  -17.1348   24.3177 C   0  0  0  0  0  0  0  0  0  0  0  0
    7.1919  -15.8478   23.8021 C   0  0  2  0  0  0  0  0  0  0  0  0
    7.7236  -16.0238   22.4760 N   0  0  0  0  0  0  0  0  0  0  0  0
    8.2836  -15.4447   24.7219 C   0  0  0  0  0  0  0  0  0  0  0  0
    9.4883  -15.7195   24.4292 O   0  0  0  0  0  0  0  0  0  0  0  0
    7.9706  -14.7602   25.9120 N   0  0  0  0  0  0  0  0  0  0  0  0
    9.0231  -14.3596   26.8214 C   0  0  1  0  0  0  0  0  0  0  0  0
    8.4870  -13.1710   27.6049 C   0  0  0  0  0  0  0  0  0  0  0  0
    7.1016  -12.4030   26.7448 S   0  0  0  0  0  0  0  0  0  0  0  0
    9.3565  -15.4908   27.7053 C   0  0  0  0  0  0  0  0  0  0  0  0
    8.6748  -16.5481   27.6697 O   0  0  0  0  0  0  0  0  0  0  0  0
   10.4121  -15.4629   28.6062 O   0  0  0  0  0  0  0  0  0  0  0  0
  2  1  1  0
  2  3  2  0
  4  5  1  0
  4  2  1  0
  6  8  1  0
  6  5  1  0
  6  7  1  6
  8 13  1  0
  9  8  2  0
 10 11  1  0
 12 11  1  1
 12 14  1  0
 13 12  1  0
 14 15  2  0
 14 16  1  0
 16 17  1  0
 17 18  1  1
 17 20  1  0
 19 18  1  0
 20 22  1  0
 21 20  2  0
M  END
$$$$
