QSC.pdb
     RDKit          3D

 22 21  0  0  1  0  0  0  0  0999 V2000
   14.1671  -20.3416   21.9598 N   0  0  0  0  0  0  0  0  0  0  0  0
   14.2535  -18.9533   21.7333 C   0  0  0  0  0  0  0  0  0  0  0  0
   15.3276  -18.3378   21.9118 O   0  0  0  0  0  0  0  0  0  0  0  0
   13.0784  -18.2057   21.2825 C   0  0  0  0  0  0  0  0  0  0  0  0
   11.8359  -18.5320   22.0900 C   0  0  0  0  0  0  0  0  0  0  0  0
   10.6774  -17.6992   21.5513 C   0  0  2  0  0  0  0  0  0  0  0  0
   11.1681  -16.8423   20.5104 N   0  0  0  0  0  0  0  0  0  0  0  0
   10.1365  -16.8787   22.6791 C   0  0  0  0  0  0  0  0  0  0  0  0
   10.4036  -15.6535   22.7635 O   0  0  0  0  0  0  0  0  0  0  0  0
    7.6537  -18.7614   25.4830 O   0  0  0  0  0  0  0  0  0  0  0  0
    7.3683  -17.4628   25.1279 C   0  0  0  0  0  0  0  0  0  0  0  0
    8.6071  -16.7223   24.6398 C   0  0  2  0  0  0  0  0  0  0  0  0
    9.3193  -17.4925   23.6540 N   0  0  0  0  0  0  0  0  0  0  0  0
    9.4974  -16.4574   25.7965 C   0  0  0  0  0  0  0  0  0  0  0  0
   10.5285  -17.1765   25.9760 O   0  0  0  0  0  0  0  0  0  0  0  0
    9.1878  -15.4092   26.6842 N   0  0  0  0  0  0  0  0  0  0  0  0
   10.0321  -15.1516   27.8314 C   0  0  1  0  0  0  0  0  0  0  0  0
    9.5336  -13.8550   28.4514 C   0  0  0  0  0  0  0  0  0  0  0  0
    9.5636  -12.5117   27.2500 S   0  0  0  0  0  0  0  0  0  0  0  0
    9.9297  -16.2815   28.7720 C   0  0  0  0  0  0  0  0  0  0  0  0
    9.0560  -17.1717   28.6041 O   0  0  0  0  0  0  0  0  0  0  0  0
   10.7655  -16.4315   29.8701 O   0  0  0  0  0  0  0  0  0  0  0  0
  2  1  1  0
  2  3  2  0
  4  5  1  0
  4  2  1  0
  6  8  1  0
  6  5  1  0
  6  7  1  6
  8 13  1  0
  9  8  2  0
 10 11  1  0
 12 11  1  1
 12 14  1  0
 13 12  1  0
 14 15  2  0
 14 16  1  0
 16 17  1  0
 17 18  1  1
 17 20  1  0
 19 18  1  0
 20 22  1  0
 21 20  2  0
M  END
$$$$
