QSC.pdb
     RDKit          3D

 22 21  0  0  1  0  0  0  0  0999 V2000
    5.7096  -20.1682   18.3010 N   0  0  0  0  0  0  0  0  0  0  0  0
    7.0874  -20.0799   18.5840 C   0  0  0  0  0  0  0  0  0  0  0  0
    7.8414  -21.0652   18.4255 O   0  0  0  0  0  0  0  0  0  0  0  0
    7.6606  -18.8241   19.0712 C   0  0  0  0  0  0  0  0  0  0  0  0
    6.6112  -17.7488   19.2830 C   0  0  0  0  0  0  0  0  0  0  0  0
    7.2087  -16.4049   18.8793 C   0  0  2  0  0  0  0  0  0  0  0  0
    7.8719  -16.5540   17.6158 N   0  0  0  0  0  0  0  0  0  0  0  0
    8.1933  -16.0039   19.9316 C   0  0  0  0  0  0  0  0  0  0  0  0
    9.4230  -16.2039   19.7657 O   0  0  0  0  0  0  0  0  0  0  0  0
    6.8413  -14.8366   23.7442 O   0  0  0  0  0  0  0  0  0  0  0  0
    7.9085  -14.1477   23.2147 C   0  0  0  0  0  0  0  0  0  0  0  0
    8.6358  -14.9588   22.1497 C   0  0  2  0  0  0  0  0  0  0  0  0
    7.7304  -15.3959   21.1195 N   0  0  0  0  0  0  0  0  0  0  0  0
    9.2633  -16.1412   22.7891 C   0  0  0  0  0  0  0  0  0  0  0  0
    8.7897  -17.2996   22.5744 O   0  0  0  0  0  0  0  0  0  0  0  0
   10.3797  -15.9647   23.6290 N   0  0  0  0  0  0  0  0  0  0  0  0
   11.1717  -17.1049   24.0388 C   0  0  1  0  0  0  0  0  0  0  0  0
   12.4712  -17.0330   23.2514 C   0  0  0  0  0  0  0  0  0  0  0  0
   13.5706  -18.3907   23.6951 S   0  0  0  0  0  0  0  0  0  0  0  0
   11.4087  -17.0332   25.4917 C   0  0  0  0  0  0  0  0  0  0  0  0
   11.3038  -15.9363   26.0999 O   0  0  0  0  0  0  0  0  0  0  0  0
   11.7526  -18.1378   26.2588 O   0  0  0  0  0  0  0  0  0  0  0  0
  2  1  1  0
  2  3  2  0
  4  5  1  0
  4  2  1  0
  6  8  1  0
  6  5  1  0
  6  7  1  6
  8 13  1  0
  9  8  2  0
 10 11  1  0
 12 11  1  1
 12 14  1  0
 13 12  1  0
 14 15  2  0
 14 16  1  0
 16 17  1  0
 17 18  1  6
 17 20  1  0
 19 18  1  0
 20 22  1  0
 21 20  2  0
M  END
$$$$
