QSC.pdb
     RDKit          3D

 22 21  0  0  1  0  0  0  0  0999 V2000
    8.3080  -19.4381   15.4667 N   0  0  0  0  0  0  0  0  0  0  0  0
    9.0027  -18.8570   14.3870 C   0  0  0  0  0  0  0  0  0  0  0  0
    9.6611  -19.5624   13.5910 O   0  0  0  0  0  0  0  0  0  0  0  0
    8.9636  -17.4085   14.1796 C   0  0  0  0  0  0  0  0  0  0  0  0
    8.1369  -16.6921   15.2311 C   0  0  0  0  0  0  0  0  0  0  0  0
    8.1876  -15.1944   14.9473 C   0  0  2  0  0  0  0  0  0  0  0  0
    8.8076  -14.9860   13.6703 N   0  0  0  0  0  0  0  0  0  0  0  0
    9.0008  -14.5489   16.0242 C   0  0  0  0  0  0  0  0  0  0  0  0
   10.2220  -14.3108   15.8469 O   0  0  0  0  0  0  0  0  0  0  0  0
    7.3709  -14.0816   19.8736 O   0  0  0  0  0  0  0  0  0  0  0  0
    8.1670  -13.0642   19.3993 C   0  0  0  0  0  0  0  0  0  0  0  0
    9.1083  -13.5445   18.3018 C   0  0  2  0  0  0  0  0  0  0  0  0
    8.3847  -14.2067   17.2482 N   0  0  0  0  0  0  0  0  0  0  0  0
   10.0942  -14.4843   18.8894 C   0  0  0  0  0  0  0  0  0  0  0  0
    9.9189  -15.7365   18.7722 O   0  0  0  0  0  0  0  0  0  0  0  0
   11.2158  -13.9757   19.5721 N   0  0  0  0  0  0  0  0  0  0  0  0
   12.2200  -14.8760   20.0975 C   0  0  1  0  0  0  0  0  0  0  0  0
   13.5134  -14.0793   20.1793 C   0  0  0  0  0  0  0  0  0  0  0  0
   14.0399  -13.5340   18.5440 S   0  0  0  0  0  0  0  0  0  0  0  0
   11.7918  -15.3597   21.4222 C   0  0  0  0  0  0  0  0  0  0  0  0
   12.5198  -16.1513   22.0760 O   0  0  0  0  0  0  0  0  0  0  0  0
   10.5944  -14.9843   22.0153 O   0  0  0  0  0  0  0  0  0  0  0  0
  2  1  1  0
  2  3  2  0
  4  5  1  0
  4  2  1  0
  6  8  1  0
  6  5  1  0
  6  7  1  6
  8 13  1  0
  9  8  2  0
 10 11  1  0
 12 11  1  1
 12 14  1  0
 13 12  1  0
 14 15  2  0
 14 16  1  0
 16 17  1  0
 17 18  1  1
 17 20  1  0
 19 18  1  0
 20 22  1  0
 21 20  2  0
M  END
$$$$
