QSC.pdb
     RDKit          3D

 22 21  0  0  1  0  0  0  0  0999 V2000
   12.4900  -22.7849   18.1496 N   0  0  0  0  0  0  0  0  0  0  0  0
   12.9293  -22.0576   17.0252 C   0  0  0  0  0  0  0  0  0  0  0  0
   13.7638  -22.5436   16.2303 O   0  0  0  0  0  0  0  0  0  0  0  0
   12.4116  -20.7124   16.7693 C   0  0  0  0  0  0  0  0  0  0  0  0
   11.4315  -20.2539   17.8331 C   0  0  0  0  0  0  0  0  0  0  0  0
   10.9259  -18.8650   17.4573 C   0  0  2  0  0  0  0  0  0  0  0  0
   11.5977  -18.4349   16.2647 N   0  0  0  0  0  0  0  0  0  0  0  0
   11.2429  -17.9381   18.5877 C   0  0  0  0  0  0  0  0  0  0  0  0
   12.3642  -17.3745   18.6567 O   0  0  0  0  0  0  0  0  0  0  0  0
    8.3707  -17.3396   21.6224 O   0  0  0  0  0  0  0  0  0  0  0  0
    9.1842  -16.2899   21.2613 C   0  0  0  0  0  0  0  0  0  0  0  0
   10.4985  -16.7712   20.6595 C   0  0  2  0  0  0  0  0  0  0  0  0
   10.2694  -17.6986   19.5827 N   0  0  0  0  0  0  0  0  0  0  0  0
   11.2998  -17.4327   21.7182 C   0  0  0  0  0  0  0  0  0  0  0  0
   11.3299  -18.7003   21.7867 O   0  0  0  0  0  0  0  0  0  0  0  0
   12.0195  -16.6453   22.6373 N   0  0  0  0  0  0  0  0  0  0  0  0
   12.8309  -17.2739   23.6580 C   0  0  1  0  0  0  0  0  0  0  0  0
   13.9252  -16.2786   24.0129 C   0  0  0  0  0  0  0  0  0  0  0  0
   14.8856  -15.8284   22.5556 S   0  0  0  0  0  0  0  0  0  0  0  0
   11.9846  -17.5932   24.8215 C   0  0  0  0  0  0  0  0  0  0  0  0
   10.7812  -17.2260   24.8526 O   0  0  0  0  0  0  0  0  0  0  0  0
   12.4471  -18.2981   25.9242 O   0  0  0  0  0  0  0  0  0  0  0  0
  2  1  1  0
  2  3  2  0
  4  5  1  0
  4  2  1  0
  6  8  1  0
  6  5  1  0
  6  7  1  6
  8 13  1  0
  9  8  2  0
 10 11  1  0
 12 11  1  1
 12 14  1  0
 13 12  1  0
 14 15  2  0
 14 16  1  0
 16 17  1  0
 17 18  1  1
 17 20  1  0
 19 18  1  0
 20 22  1  0
 21 20  2  0
M  END
$$$$
