QSC.pdb
     RDKit          3D

 22 21  0  0  1  0  0  0  0  0999 V2000
   13.8410  -18.7103   22.8566 N   0  0  0  0  0  0  0  0  0  0  0  0
   13.7657  -17.6818   21.8959 C   0  0  0  0  0  0  0  0  0  0  0  0
   14.7371  -16.9213   21.6898 O   0  0  0  0  0  0  0  0  0  0  0  0
   12.5401  -17.4871   21.1194 C   0  0  0  0  0  0  0  0  0  0  0  0
   11.4715  -18.5117   21.4519 C   0  0  0  0  0  0  0  0  0  0  0  0
   10.2210  -18.1854   20.6420 C   0  0  2  0  0  0  0  0  0  0  0  0
   10.6172  -17.5828   19.4016 N   0  0  0  0  0  0  0  0  0  0  0  0
    9.3942  -17.2259   21.4378 C   0  0  0  0  0  0  0  0  0  0  0  0
    9.5156  -15.9862   21.2703 O   0  0  0  0  0  0  0  0  0  0  0  0
    6.8249  -18.6248   24.5292 O   0  0  0  0  0  0  0  0  0  0  0  0
    6.3854  -17.6543   23.6582 C   0  0  0  0  0  0  0  0  0  0  0  0
    7.5413  -16.8602   23.0628 C   0  0  2  0  0  0  0  0  0  0  0  0
    8.4713  -17.7240   22.3838 N   0  0  0  0  0  0  0  0  0  0  0  0
    8.2431  -16.1395   24.1530 C   0  0  0  0  0  0  0  0  0  0  0  0
    9.3293  -16.6039   24.6186 O   0  0  0  0  0  0  0  0  0  0  0  0
    7.6950  -14.9457   24.6604 N   0  0  0  0  0  0  0  0  0  0  0  0
    8.2676  -14.3212   25.8340 C   0  0  1  0  0  0  0  0  0  0  0  0
    7.3825  -13.1287   26.1634 C   0  0  0  0  0  0  0  0  0  0  0  0
    8.1648  -12.0633   27.3889 S   0  0  0  0  0  0  0  0  0  0  0  0
    8.2994  -15.2989   26.9364 C   0  0  0  0  0  0  0  0  0  0  0  0
    7.4091  -16.1837   27.0276 O   0  0  0  0  0  0  0  0  0  0  0  0
    9.2838  -15.3057   27.9150 O   0  0  0  0  0  0  0  0  0  0  0  0
  2  1  1  0
  2  3  2  0
  4  5  1  0
  4  2  1  0
  6  8  1  0
  6  5  1  0
  6  7  1  6
  8 13  1  0
  9  8  2  0
 10 11  1  0
 12 11  1  1
 12 14  1  0
 13 12  1  0
 14 15  2  0
 14 16  1  0
 16 17  1  0
 17 18  1  1
 17 20  1  0
 19 18  1  0
 20 22  1  0
 21 20  2  0
M  END
$$$$
