QSC.pdb
     RDKit          3D

 22 21  0  0  1  0  0  0  0  0999 V2000
   13.4210  -19.6862   19.8069 N   0  0  0  0  0  0  0  0  0  0  0  0
   13.4494  -18.2916   19.6058 C   0  0  0  0  0  0  0  0  0  0  0  0
   14.2767  -17.7707   18.8256 O   0  0  0  0  0  0  0  0  0  0  0  0
   12.5039  -17.4258   20.3124 C   0  0  0  0  0  0  0  0  0  0  0  0
   11.7135  -18.1700   21.3724 C   0  0  0  0  0  0  0  0  0  0  0  0
   10.2291  -17.9075   21.1411 C   0  0  2  0  0  0  0  0  0  0  0  0
   10.0638  -17.2816   19.8606 N   0  0  0  0  0  0  0  0  0  0  0  0
    9.7486  -16.9947   22.2244 C   0  0  0  0  0  0  0  0  0  0  0  0
    9.9689  -15.7588   22.1632 O   0  0  0  0  0  0  0  0  0  0  0  0
    7.4194  -18.5977   25.3713 O   0  0  0  0  0  0  0  0  0  0  0  0
    7.1791  -17.3296   24.8937 C   0  0  0  0  0  0  0  0  0  0  0  0
    8.4381  -16.6904   24.3215 C   0  0  2  0  0  0  0  0  0  0  0  0
    9.0418  -17.5328   23.3225 N   0  0  0  0  0  0  0  0  0  0  0  0
    9.4051  -16.4604   25.4227 C   0  0  0  0  0  0  0  0  0  0  0  0
   10.4092  -17.2271   25.5504 O   0  0  0  0  0  0  0  0  0  0  0  0
    9.1977  -15.3918   26.3159 N   0  0  0  0  0  0  0  0  0  0  0  0
   10.1232  -15.1612   27.4048 C   0  0  1  0  0  0  0  0  0  0  0  0
    9.6177  -13.9339   28.1480 C   0  0  0  0  0  0  0  0  0  0  0  0
   10.7529  -13.4654   29.4674 S   0  0  0  0  0  0  0  0  0  0  0  0
   10.1554  -16.3511   28.2737 C   0  0  0  0  0  0  0  0  0  0  0  0
    9.1224  -17.0530   28.4295 O   0  0  0  0  0  0  0  0  0  0  0  0
   11.2930  -16.7612   28.9552 O   0  0  0  0  0  0  0  0  0  0  0  0
  2  1  1  0
  2  3  2  0
  4  5  1  0
  4  2  1  0
  6  8  1  0
  6  5  1  0
  6  7  1  6
  8 13  1  0
  9  8  2  0
 10 11  1  0
 12 11  1  1
 12 14  1  0
 13 12  1  0
 14 15  2  0
 14 16  1  0
 16 17  1  0
 17 18  1  1
 17 20  1  0
 19 18  1  0
 20 22  1  0
 21 20  2  0
M  END
$$$$
