QSC.pdb
     RDKit          3D

 22 21  0  0  1  0  0  0  0  0999 V2000
    8.3729  -12.6281   17.4133 N   0  0  0  0  0  0  0  0  0  0  0  0
    8.0138  -13.9562   17.1078 C   0  0  0  0  0  0  0  0  0  0  0  0
    7.3992  -14.2303   16.0535 O   0  0  0  0  0  0  0  0  0  0  0  0
    8.3574  -15.0425   18.0269 C   0  0  0  0  0  0  0  0  0  0  0  0
    9.1291  -14.5566   19.2396 C   0  0  0  0  0  0  0  0  0  0  0  0
    9.4259  -15.7551   20.1350 C   0  0  2  0  0  0  0  0  0  0  0  0
    9.2307  -16.9581   19.3779 N   0  0  0  0  0  0  0  0  0  0  0  0
    8.4747  -15.7146   21.2888 C   0  0  0  0  0  0  0  0  0  0  0  0
    7.2729  -15.3906   21.1151 O   0  0  0  0  0  0  0  0  0  0  0  0
    9.3255  -17.6400   24.9376 O   0  0  0  0  0  0  0  0  0  0  0  0
    8.0689  -17.2920   24.4972 C   0  0  0  0  0  0  0  0  0  0  0  0
    8.0796  -15.9727   23.7352 C   0  0  2  0  0  0  0  0  0  0  0  0
    8.9377  -16.0447   22.5817 N   0  0  0  0  0  0  0  0  0  0  0  0
    8.5572  -14.8978   24.6391 C   0  0  0  0  0  0  0  0  0  0  0  0
    9.7949  -14.6183   24.6873 O   0  0  0  0  0  0  0  0  0  0  0  0
    7.6301  -14.1983   25.4353 N   0  0  0  0  0  0  0  0  0  0  0  0
    8.0859  -13.1980   26.3771 C   0  0  1  0  0  0  0  0  0  0  0  0
    6.9648  -12.1769   26.4982 C   0  0  0  0  0  0  0  0  0  0  0  0
    5.4730  -12.9331   27.1702 S   0  0  0  0  0  0  0  0  0  0  0  0
    8.3769  -13.8454   27.6687 C   0  0  0  0  0  0  0  0  0  0  0  0
    8.9316  -13.1974   28.5942 O   0  0  0  0  0  0  0  0  0  0  0  0
    8.0671  -15.1712   27.9386 O   0  0  0  0  0  0  0  0  0  0  0  0
  2  1  1  0
  2  3  2  0
  4  5  1  0
  4  2  1  0
  6  8  1  0
  6  5  1  0
  6  7  1  6
  8 13  1  0
  9  8  2  0
 10 11  1  0
 12 11  1  1
 12 14  1  0
 13 12  1  0
 14 15  2  0
 14 16  1  0
 16 17  1  0
 17 18  1  1
 17 20  1  0
 19 18  1  0
 20 22  1  0
 21 20  2  0
M  END
$$$$
