QSC.pdb
     RDKit          3D

 22 21  0  0  1  0  0  0  0  0999 V2000
    8.7320  -13.0550   17.3989 N   0  0  0  0  0  0  0  0  0  0  0  0
    7.9552  -14.2279   17.4820 C   0  0  0  0  0  0  0  0  0  0  0  0
    7.7172  -14.9155   16.4646 O   0  0  0  0  0  0  0  0  0  0  0  0
    7.4114  -14.6619   18.7700 C   0  0  0  0  0  0  0  0  0  0  0  0
    7.5891  -13.6193   19.8579 C   0  0  0  0  0  0  0  0  0  0  0  0
    8.8924  -13.9083   20.5954 C   0  0  2  0  0  0  0  0  0  0  0  0
    9.6954  -14.7835   19.7906 N   0  0  0  0  0  0  0  0  0  0  0  0
    8.5506  -14.5723   21.8915 C   0  0  0  0  0  0  0  0  0  0  0  0
    7.7274  -14.0456   22.6818 O   0  0  0  0  0  0  0  0  0  0  0  0
   10.7443  -18.0162   23.2203 O   0  0  0  0  0  0  0  0  0  0  0  0
    9.4013  -17.8807   23.4884 C   0  0  0  0  0  0  0  0  0  0  0  0
    8.9713  -16.4192   23.5100 C   0  0  2  0  0  0  0  0  0  0  0  0
    9.1619  -15.8014   22.2239 N   0  0  0  0  0  0  0  0  0  0  0  0
    9.7720  -15.6961   24.5282 C   0  0  0  0  0  0  0  0  0  0  0  0
   10.7823  -15.0159   24.1690 O   0  0  0  0  0  0  0  0  0  0  0  0
    9.4015  -15.7728   25.8845 N   0  0  0  0  0  0  0  0  0  0  0  0
   10.2297  -15.1620   26.9025 C   0  0  1  0  0  0  0  0  0  0  0  0
    9.3957  -14.0559   27.5309 C   0  0  0  0  0  0  0  0  0  0  0  0
   10.3323  -13.1829   28.7996 S   0  0  0  0  0  0  0  0  0  0  0  0
   10.6151  -16.1845   27.8915 C   0  0  0  0  0  0  0  0  0  0  0  0
   11.4938  -15.9331   28.7568 O   0  0  0  0  0  0  0  0  0  0  0  0
   10.0505  -17.4519   27.9304 O   0  0  0  0  0  0  0  0  0  0  0  0
  2  1  1  0
  2  3  2  0
  4  5  1  0
  4  2  1  0
  6  8  1  0
  6  5  1  0
  6  7  1  6
  8 13  1  0
  9  8  2  0
 10 11  1  0
 12 11  1  6
 12 14  1  0
 13 12  1  0
 14 15  2  0
 14 16  1  0
 16 17  1  0
 17 18  1  1
 17 20  1  0
 19 18  1  0
 20 22  1  0
 21 20  2  0
M  END
$$$$
