QSC.pdb
     RDKit          3D

 22 21  0  0  1  0  0  0  0  0999 V2000
   15.7519  -15.2074   19.3031 N   0  0  0  0  0  0  0  0  0  0  0  0
   14.8436  -14.2962   19.8783 C   0  0  0  0  0  0  0  0  0  0  0  0
   15.2438  -13.3639   20.6099 O   0  0  0  0  0  0  0  0  0  0  0  0
   13.4077  -14.4284   19.6261 C   0  0  0  0  0  0  0  0  0  0  0  0
   12.8687  -15.7881   20.0296 C   0  0  0  0  0  0  0  0  0  0  0  0
   11.3960  -15.8589   19.6395 C   0  0  2  0  0  0  0  0  0  0  0  0
   11.1051  -14.7853   18.7332 N   0  0  0  0  0  0  0  0  0  0  0  0
   10.5819  -15.7132   20.8859 C   0  0  0  0  0  0  0  0  0  0  0  0
   10.0121  -14.6255   21.1535 O   0  0  0  0  0  0  0  0  0  0  0  0
   10.1463  -19.0338   23.4993 O   0  0  0  0  0  0  0  0  0  0  0  0
    9.0820  -18.2032   23.2326 C   0  0  0  0  0  0  0  0  0  0  0  0
    9.5375  -16.7945   22.8728 C   0  0  2  0  0  0  0  0  0  0  0  0
   10.4567  -16.8115   21.7653 N   0  0  0  0  0  0  0  0  0  0  0  0
   10.1982  -16.1853   24.0531 C   0  0  0  0  0  0  0  0  0  0  0  0
   11.4659  -16.1518   24.1184 O   0  0  0  0  0  0  0  0  0  0  0  0
    9.4100  -15.6502   25.0899 N   0  0  0  0  0  0  0  0  0  0  0  0
   10.0320  -15.1704   26.3058 C   0  0  1  0  0  0  0  0  0  0  0  0
    8.9972  -14.3030   27.0065 C   0  0  0  0  0  0  0  0  0  0  0  0
    9.6803  -13.5648   28.5023 S   0  0  0  0  0  0  0  0  0  0  0  0
   10.4297  -16.3228   27.1339 C   0  0  0  0  0  0  0  0  0  0  0  0
    9.7703  -17.3940   27.0920 O   0  0  0  0  0  0  0  0  0  0  0  0
   11.5242  -16.3008   27.9874 O   0  0  0  0  0  0  0  0  0  0  0  0
  2  1  1  0
  2  3  2  0
  4  5  1  0
  4  2  1  0
  6  8  1  0
  6  5  1  0
  6  7  1  6
  8 13  1  0
  9  8  2  0
 10 11  1  0
 12 11  1  1
 12 14  1  0
 13 12  1  0
 14 15  2  0
 14 16  1  0
 16 17  1  0
 17 18  1  1
 17 20  1  0
 19 18  1  0
 20 22  1  0
 21 20  2  0
M  END
$$$$
