QSC.pdb
     RDKit          3D

 22 21  0  0  1  0  0  0  0  0999 V2000
    2.7700  -19.8720   19.9209 N   0  0  0  0  0  0  0  0  0  0  0  0
    1.9079  -19.6078   21.0040 C   0  0  0  0  0  0  0  0  0  0  0  0
    0.7521  -20.0847   21.0376 O   0  0  0  0  0  0  0  0  0  0  0  0
    2.3559  -18.7649   22.1139 C   0  0  0  0  0  0  0  0  0  0  0  0
    3.6769  -18.0764   21.8254 C   0  0  0  0  0  0  0  0  0  0  0  0
    4.8077  -19.0503   22.1395 C   0  0  2  0  0  0  0  0  0  0  0  0
    4.2406  -20.2849   22.6006 N   0  0  0  0  0  0  0  0  0  0  0  0
    5.6546  -18.4423   23.2122 C   0  0  0  0  0  0  0  0  0  0  0  0
    5.2418  -18.3873   24.3980 O   0  0  0  0  0  0  0  0  0  0  0  0
    9.4475  -16.5798   22.3363 O   0  0  0  0  0  0  0  0  0  0  0  0
    9.2755  -17.4585   23.3814 C   0  0  0  0  0  0  0  0  0  0  0  0
    7.8403  -17.4586   23.8926 C   0  0  2  0  0  0  0  0  0  0  0  0
    6.9279  -17.9274   22.8827 N   0  0  0  0  0  0  0  0  0  0  0  0
    7.4698  -16.0782   24.2897 C   0  0  0  0  0  0  0  0  0  0  0  0
    6.6806  -15.4025   23.5596 O   0  0  0  0  0  0  0  0  0  0  0  0
    7.9991  -15.5316   25.4745 N   0  0  0  0  0  0  0  0  0  0  0  0
    7.7222  -14.1562   25.8306 C   0  0  1  0  0  0  0  0  0  0  0  0
    6.2433  -14.0905   26.1805 C   0  0  0  0  0  0  0  0  0  0  0  0
    5.8292  -12.5086   26.9388 S   0  0  0  0  0  0  0  0  0  0  0  0
    8.5711  -13.7708   26.9721 C   0  0  0  0  0  0  0  0  0  0  0  0
    9.2187  -14.6438   27.6065 O   0  0  0  0  0  0  0  0  0  0  0  0
    8.7065  -12.4596   27.4071 O   0  0  0  0  0  0  0  0  0  0  0  0
  2  1  1  0
  2  3  2  0
  4  5  1  0
  4  2  1  0
  6  8  1  0
  6  5  1  0
  6  7  1  1
  8 13  1  0
  9  8  2  0
 10 11  1  0
 12 11  1  6
 12 14  1  0
 13 12  1  0
 14 15  2  0
 14 16  1  0
 16 17  1  0
 17 18  1  1
 17 20  1  0
 19 18  1  0
 20 22  1  0
 21 20  2  0
M  END
$$$$
