QSC.pdb
     RDKit          3D

 22 21  0  0  1  0  0  0  0  0999 V2000
   10.9942  -13.1193   19.0930 N   0  0  0  0  0  0  0  0  0  0  0  0
    9.7620  -13.3224   18.4399 C   0  0  0  0  0  0  0  0  0  0  0  0
    9.6873  -14.0325   17.4129 O   0  0  0  0  0  0  0  0  0  0  0  0
    8.5422  -12.7005   18.9579 C   0  0  0  0  0  0  0  0  0  0  0  0
    8.1267  -13.2660   20.3032 C   0  0  0  0  0  0  0  0  0  0  0  0
    8.2549  -14.7847   20.2491 C   0  0  2  0  0  0  0  0  0  0  0  0
    7.1738  -15.3129   19.4676 N   0  0  0  0  0  0  0  0  0  0  0  0
    8.1770  -15.3037   21.6499 C   0  0  0  0  0  0  0  0  0  0  0  0
    7.1273  -15.1620   22.3264 O   0  0  0  0  0  0  0  0  0  0  0  0
   11.4749  -17.4469   23.3587 O   0  0  0  0  0  0  0  0  0  0  0  0
   10.1605  -17.7814   23.5917 C   0  0  0  0  0  0  0  0  0  0  0  0
    9.2433  -16.5673   23.5138 C   0  0  2  0  0  0  0  0  0  0  0  0
    9.2962  -15.9576   22.2109 N   0  0  0  0  0  0  0  0  0  0  0  0
    9.6629  -15.5797   24.5381 C   0  0  0  0  0  0  0  0  0  0  0  0
   10.0154  -14.4130   24.1817 O   0  0  0  0  0  0  0  0  0  0  0  0
    9.6654  -15.9484   25.8970 N   0  0  0  0  0  0  0  0  0  0  0  0
    9.8480  -14.9454   26.9246 C   0  0  1  0  0  0  0  0  0  0  0  0
    8.5780  -14.1081   26.9408 C   0  0  0  0  0  0  0  0  0  0  0  0
    8.6377  -12.8704   28.2497 S   0  0  0  0  0  0  0  0  0  0  0  0
   10.0784  -15.6131   28.2181 C   0  0  0  0  0  0  0  0  0  0  0  0
    9.5033  -16.7007   28.4838 O   0  0  0  0  0  0  0  0  0  0  0  0
   10.9192  -15.1005   29.1963 O   0  0  0  0  0  0  0  0  0  0  0  0
  2  1  1  0
  2  3  2  0
  4  5  1  0
  4  2  1  0
  6  8  1  0
  6  5  1  0
  6  7  1  6
  8 13  1  0
  9  8  2  0
 10 11  1  0
 12 11  1  6
 12 14  1  0
 13 12  1  0
 14 15  2  0
 14 16  1  0
 16 17  1  0
 17 18  1  1
 17 20  1  0
 19 18  1  0
 20 22  1  0
 21 20  2  0
M  END
$$$$
