EFT.pdb
     RDKit          3D

 28 28  0  0  1  0  0  0  0  0999 V2000
   10.4583  -16.3907   19.5749 N   0  0  0  0  0  0  0  0  0  0  0  0
    9.6187  -16.9759   20.5665 C   0  0  1  0  0  0  0  0  0  0  0  0
    9.9958  -18.4173   20.7800 C   0  0  0  0  0  0  0  0  0  0  0  0
    9.7387  -19.1223   19.4389 C   0  0  0  0  0  0  0  0  0  0  0  0
    9.9637  -20.5619   19.5387 C   0  0  0  0  0  0  0  0  0  0  0  0
    8.9457  -21.3084   19.7235 O   0  0  0  0  0  0  0  0  0  0  0  0
    9.7445  -16.1783   21.8229 C   0  0  0  0  0  0  0  0  0  0  0  0
   10.8522  -15.6538   22.1342 O   0  0  0  0  0  0  0  0  0  0  0  0
   11.2536  -21.0684   19.4333 O   0  0  0  0  0  0  0  0  0  0  0  0
    8.6765  -15.9643   22.7133 N   0  0  0  0  0  0  0  0  0  0  0  0
    8.7987  -15.1494   23.9491 C   0  0  1  0  0  0  0  0  0  0  0  0
    7.5490  -14.3575   24.0514 C   0  0  0  0  0  0  0  0  0  0  0  0
    7.3464  -13.5006   25.1986 C   0  0  0  0  0  0  0  0  0  0  0  0
    6.2421  -13.7774   26.0196 C   0  0  0  0  0  0  0  0  0  0  0  0
    5.9488  -13.0721   27.1452 C   0  0  0  0  0  0  0  0  0  0  0  0
    6.7612  -12.0308   27.5176 C   0  0  0  0  0  0  0  0  0  0  0  0
    7.8452  -11.7300   26.7452 C   0  0  0  0  0  0  0  0  0  0  0  0
    8.1299  -12.4603   25.5999 C   0  0  0  0  0  0  0  0  0  0  0  0
    8.9520  -16.1146   25.0503 C   0  0  0  0  0  0  0  0  0  0  0  0
    7.9908  -16.9350   25.2769 O   0  0  0  0  0  0  0  0  0  0  0  0
   10.6847  -19.0870   25.3643 C   0  0  0  0  0  0  0  0  0  0  0  0
   11.0582  -18.3640   26.6281 C   0  0  1  0  0  0  0  0  0  0  0  0
   12.3035  -17.7619   26.4384 O   0  0  0  0  0  0  0  0  0  0  0  0
   10.0749  -17.2368   26.9413 C   0  0  2  0  0  0  0  0  0  0  0  0
   10.0789  -16.2439   25.9048 N   0  0  0  0  0  0  0  0  0  0  0  0
   10.2914  -16.6893   28.2734 C   0  0  0  0  0  0  0  0  0  0  0  0
   10.5362  -15.4463   28.4416 O   0  0  0  0  0  0  0  0  0  0  0  0
   10.2388  -17.4982   29.3900 O   0  0  0  0  0  0  0  0  0  0  0  0
  2  1  1  6
  2  3  1  0
  2  7  1  0
  4  5  1  0
  4  3  1  0
  5  6  2  0
  7  8  2  0
  9  5  1  0
 10  7  1  0
 10 11  1  0
 11 12  1  1
 12 13  1  0
 13 14  2  0
 14 15  1  0
 16 15  2  0
 17 16  1  0
 18 13  1  0
 18 17  2  0
 19 11  1  0
 19 20  2  0
 22 21  1  6
 22 24  1  0
 23 22  1  0
 24 25  1  6
 24 26  1  0
 25 19  1  0
 26 28  1  0
 27 26  2  0
M  END
$$$$
