EFT.pdb
     RDKit          3D

 28 28  0  0  1  0  0  0  0  0999 V2000
    8.1246  -17.9437   20.5929 N   0  0  0  0  0  0  0  0  0  0  0  0
    9.4183  -17.3551   20.4884 C   0  0  1  0  0  0  0  0  0  0  0  0
    9.5788  -16.6911   19.1473 C   0  0  0  0  0  0  0  0  0  0  0  0
   10.6098  -17.5345   18.3811 C   0  0  0  0  0  0  0  0  0  0  0  0
   10.8560  -16.9967   17.0457 C   0  0  0  0  0  0  0  0  0  0  0  0
   10.2927  -17.5791   16.0603 O   0  0  0  0  0  0  0  0  0  0  0  0
    9.5880  -16.3848   21.6111 C   0  0  0  0  0  0  0  0  0  0  0  0
   10.6892  -15.7843   21.7708 O   0  0  0  0  0  0  0  0  0  0  0  0
   11.6812  -15.8896   16.8884 O   0  0  0  0  0  0  0  0  0  0  0  0
    8.5697  -16.0843   22.5341 N   0  0  0  0  0  0  0  0  0  0  0  0
    8.7638  -15.1737   23.6914 C   0  0  1  0  0  0  0  0  0  0  0  0
    7.5221  -14.3705   23.8025 C   0  0  0  0  0  0  0  0  0  0  0  0
    7.3365  -13.5100   24.9500 C   0  0  0  0  0  0  0  0  0  0  0  0
    6.2766  -13.8167   25.8176 C   0  0  0  0  0  0  0  0  0  0  0  0
    6.0049  -13.1111   26.9484 C   0  0  0  0  0  0  0  0  0  0  0  0
    6.7950  -12.0391   27.2789 C   0  0  0  0  0  0  0  0  0  0  0  0
    7.8358  -11.7086   26.4604 C   0  0  0  0  0  0  0  0  0  0  0  0
    8.0990  -12.4397   25.3104 C   0  0  0  0  0  0  0  0  0  0  0  0
    8.9812  -16.0485   24.8556 C   0  0  0  0  0  0  0  0  0  0  0  0
    8.1296  -16.9825   25.0807 O   0  0  0  0  0  0  0  0  0  0  0  0
   10.9153  -18.7042   25.1910 C   0  0  0  0  0  0  0  0  0  0  0  0
   11.2311  -18.0004   26.4811 C   0  0  1  0  0  0  0  0  0  0  0  0
   12.4363  -17.3136   26.3235 O   0  0  0  0  0  0  0  0  0  0  0  0
   10.1745  -16.9496   26.8202 C   0  0  2  0  0  0  0  0  0  0  0  0
   10.0614  -15.9732   25.7743 N   0  0  0  0  0  0  0  0  0  0  0  0
   10.3971  -16.3693   28.1374 C   0  0  0  0  0  0  0  0  0  0  0  0
   10.5390  -15.1077   28.2847 O   0  0  0  0  0  0  0  0  0  0  0  0
   10.4614  -17.1661   29.2621 O   0  0  0  0  0  0  0  0  0  0  0  0
  2  1  1  6
  2  3  1  0
  2  7  1  0
  4  5  1  0
  4  3  1  0
  5  6  2  0
  7  8  2  0
  9  5  1  0
 10  7  1  0
 10 11  1  0
 11 12  1  1
 12 13  1  0
 13 14  2  0
 14 15  1  0
 16 15  2  0
 17 16  1  0
 18 13  1  0
 18 17  2  0
 19 11  1  0
 19 20  2  0
 22 21  1  6
 22 24  1  0
 23 22  1  0
 24 25  1  6
 24 26  1  0
 25 19  1  0
 26 28  1  0
 27 26  2  0
M  END
$$$$
