EFT.pdb
     RDKit          3D

 28 28  0  0  1  0  0  0  0  0999 V2000
    6.7048  -17.8300   20.4249 N   0  0  0  0  0  0  0  0  0  0  0  0
    7.9391  -17.2385   20.0279 C   0  0  1  0  0  0  0  0  0  0  0  0
    7.7648  -16.4976   18.7295 C   0  0  0  0  0  0  0  0  0  0  0  0
    9.1822  -16.2724   18.1803 C   0  0  0  0  0  0  0  0  0  0  0  0
    9.4797  -17.1812   17.0764 C   0  0  0  0  0  0  0  0  0  0  0  0
   10.6918  -17.2612   16.6862 O   0  0  0  0  0  0  0  0  0  0  0  0
    8.4042  -16.3358   21.1230 C   0  0  0  0  0  0  0  0  0  0  0  0
    9.5480  -15.8001   21.0619 O   0  0  0  0  0  0  0  0  0  0  0  0
    8.4557  -17.9173   16.4925 O   0  0  0  0  0  0  0  0  0  0  0  0
    7.6284  -16.0314   22.2564 N   0  0  0  0  0  0  0  0  0  0  0  0
    8.1277  -15.2065   23.3862 C   0  0  1  0  0  0  0  0  0  0  0  0
    7.0095  -14.3139   23.7766 C   0  0  0  0  0  0  0  0  0  0  0  0
    7.1503  -13.4731   24.9448 C   0  0  0  0  0  0  0  0  0  0  0  0
    6.1108  -13.5047   25.8875 C   0  0  0  0  0  0  0  0  0  0  0  0
    6.1250  -12.7885   27.0438 C   0  0  0  0  0  0  0  0  0  0  0  0
    7.2019  -11.9860   27.3252 C   0  0  0  0  0  0  0  0  0  0  0  0
    8.2331  -11.9280   26.4332 C   0  0  0  0  0  0  0  0  0  0  0  0
    8.2023  -12.6657   25.2581 C   0  0  0  0  0  0  0  0  0  0  0  0
    8.4907  -16.1605   24.4473 C   0  0  0  0  0  0  0  0  0  0  0  0
    7.5848  -16.9604   24.8805 O   0  0  0  0  0  0  0  0  0  0  0  0
   10.4853  -19.0321   24.2824 C   0  0  0  0  0  0  0  0  0  0  0  0
   10.9690  -18.3717   25.5431 C   0  0  1  0  0  0  0  0  0  0  0  0
   12.1562  -17.6951   25.2573 O   0  0  0  0  0  0  0  0  0  0  0  0
    9.9790  -17.3191   26.0405 C   0  0  2  0  0  0  0  0  0  0  0  0
    9.7678  -16.2996   25.0525 N   0  0  0  0  0  0  0  0  0  0  0  0
   10.3610  -16.7960   27.3450 C   0  0  0  0  0  0  0  0  0  0  0  0
   10.5272  -15.5421   27.5276 O   0  0  0  0  0  0  0  0  0  0  0  0
   10.5545  -17.6403   28.4191 O   0  0  0  0  0  0  0  0  0  0  0  0
  2  1  1  1
  2  3  1  0
  2  7  1  0
  4  5  1  0
  4  3  1  0
  5  6  2  0
  7  8  2  0
  9  5  1  0
 10  7  1  0
 10 11  1  0
 11 12  1  1
 12 13  1  0
 13 14  2  0
 14 15  1  0
 16 15  2  0
 17 16  1  0
 18 13  1  0
 18 17  2  0
 19 11  1  0
 19 20  2  0
 22 21  1  6
 22 24  1  0
 23 22  1  0
 24 25  1  6
 24 26  1  0
 25 19  1  0
 26 28  1  0
 27 26  2  0
M  END
$$$$
