EFT.pdb
     RDKit          3D

 28 28  0  0  1  0  0  0  0  0999 V2000
   10.4527  -16.2227   19.3292 N   0  0  0  0  0  0  0  0  0  0  0  0
    9.4417  -16.7747   20.1682 C   0  0  1  0  0  0  0  0  0  0  0  0
    9.5434  -18.2762   20.1831 C   0  0  0  0  0  0  0  0  0  0  0  0
    8.4325  -18.7636   21.1264 C   0  0  0  0  0  0  0  0  0  0  0  0
    8.4160  -20.2205   21.2272 C   0  0  0  0  0  0  0  0  0  0  0  0
    7.5152  -20.7530   21.9571 O   0  0  0  0  0  0  0  0  0  0  0  0
    9.5947  -16.1953   21.5363 C   0  0  0  0  0  0  0  0  0  0  0  0
   10.7293  -16.1748   22.0943 O   0  0  0  0  0  0  0  0  0  0  0  0
    9.3632  -20.9711   20.5410 O   0  0  0  0  0  0  0  0  0  0  0  0
    8.5244  -15.6524   22.2704 N   0  0  0  0  0  0  0  0  0  0  0  0
    8.6961  -14.9871   23.5872 C   0  0  1  0  0  0  0  0  0  0  0  0
    7.5421  -14.0688   23.7437 C   0  0  0  0  0  0  0  0  0  0  0  0
    7.3996  -13.3142   24.9692 C   0  0  0  0  0  0  0  0  0  0  0  0
    6.1413  -13.3311   25.5908 C   0  0  0  0  0  0  0  0  0  0  0  0
    5.8742  -12.6910   26.7610 C   0  0  0  0  0  0  0  0  0  0  0  0
    6.8719  -11.9853   27.3849 C   0  0  0  0  0  0  0  0  0  0  0  0
    8.1097  -11.9446   26.8118 C   0  0  0  0  0  0  0  0  0  0  0  0
    8.3650  -12.6038   25.6175 C   0  0  0  0  0  0  0  0  0  0  0  0
    8.6999  -16.0704   24.5844 C   0  0  0  0  0  0  0  0  0  0  0  0
    7.6751  -16.8410   24.6477 O   0  0  0  0  0  0  0  0  0  0  0  0
    9.7409  -19.1802   24.6851 C   0  0  0  0  0  0  0  0  0  0  0  0
   10.2708  -18.6993   26.0070 C   0  0  1  0  0  0  0  0  0  0  0  0
   11.6199  -18.3770   25.8488 O   0  0  0  0  0  0  0  0  0  0  0  0
    9.5695  -17.4193   26.4605 C   0  0  2  0  0  0  0  0  0  0  0  0
    9.7435  -16.3663   25.5009 N   0  0  0  0  0  0  0  0  0  0  0  0
    9.9572  -17.0446   27.8135 C   0  0  0  0  0  0  0  0  0  0  0  0
    9.8001  -17.8536   28.7903 O   0  0  0  0  0  0  0  0  0  0  0  0
   10.5041  -15.8056   28.0774 O   0  0  0  0  0  0  0  0  0  0  0  0
  2  1  1  6
  2  3  1  0
  2  7  1  0
  4  5  1  0
  4  3  1  0
  5  6  2  0
  7  8  2  0
  9  5  1  0
 10  7  1  0
 10 11  1  0
 11 12  1  1
 12 13  1  0
 13 14  2  0
 14 15  1  0
 16 15  2  0
 17 16  1  0
 18 13  1  0
 18 17  2  0
 19 11  1  0
 19 20  2  0
 22 21  1  6
 22 24  1  0
 23 22  1  0
 24 25  1  6
 24 26  1  0
 25 19  1  0
 26 28  1  0
 27 26  2  0
M  END
$$$$
