EFT.pdb
     RDKit          3D

 28 28  0  0  1  0  0  0  0  0999 V2000
    8.6673  -16.2948   19.3385 N   0  0  0  0  0  0  0  0  0  0  0  0
    9.2391  -17.0851   20.3774 C   0  0  1  0  0  0  0  0  0  0  0  0
   10.5382  -17.6879   19.9147 C   0  0  0  0  0  0  0  0  0  0  0  0
   10.4586  -17.7320   18.3807 C   0  0  0  0  0  0  0  0  0  0  0  0
   11.6798  -18.2802   17.7963 C   0  0  0  0  0  0  0  0  0  0  0  0
   12.6954  -17.5119   17.7193 O   0  0  0  0  0  0  0  0  0  0  0  0
    9.4269  -16.2201   21.5803 C   0  0  0  0  0  0  0  0  0  0  0  0
   10.5717  -15.7625   21.8613 O   0  0  0  0  0  0  0  0  0  0  0  0
   11.7010  -19.5955   17.3481 O   0  0  0  0  0  0  0  0  0  0  0  0
    8.3794  -15.8685   22.4512 N   0  0  0  0  0  0  0  0  0  0  0  0
    8.5846  -15.0814   23.6941 C   0  0  1  0  0  0  0  0  0  0  0  0
    7.3406  -14.3018   23.9037 C   0  0  0  0  0  0  0  0  0  0  0  0
    7.1590  -13.5794   25.1434 C   0  0  0  0  0  0  0  0  0  0  0  0
    7.8562  -12.3700   25.2897 C   0  0  0  0  0  0  0  0  0  0  0  0
    7.7563  -11.5749   26.3889 C   0  0  0  0  0  0  0  0  0  0  0  0
    6.9365  -11.9545   27.4217 C   0  0  0  0  0  0  0  0  0  0  0  0
    6.2415  -13.1243   27.3175 C   0  0  0  0  0  0  0  0  0  0  0  0
    6.3551  -13.9235   26.1885 C   0  0  0  0  0  0  0  0  0  0  0  0
    8.8218  -16.0707   24.7585 C   0  0  0  0  0  0  0  0  0  0  0  0
    7.9583  -17.0069   24.9207 O   0  0  0  0  0  0  0  0  0  0  0  0
   11.0050  -18.7475   24.9482 C   0  0  0  0  0  0  0  0  0  0  0  0
   11.1839  -18.1028   26.2943 C   0  0  1  0  0  0  0  0  0  0  0  0
   12.3418  -17.3238   26.2582 O   0  0  0  0  0  0  0  0  0  0  0  0
   10.0319  -17.1525   26.6189 C   0  0  2  0  0  0  0  0  0  0  0  0
    9.9334  -16.1061   25.6416 N   0  0  0  0  0  0  0  0  0  0  0  0
   10.1074  -16.6648   27.9892 C   0  0  0  0  0  0  0  0  0  0  0  0
   10.1350  -15.4120   28.2406 O   0  0  0  0  0  0  0  0  0  0  0  0
   10.1517  -17.5422   29.0531 O   0  0  0  0  0  0  0  0  0  0  0  0
  2  1  1  6
  2  3  1  0
  2  7  1  0
  4  5  1  0
  4  3  1  0
  5  6  2  0
  7  8  2  0
  9  5  1  0
 10  7  1  0
 10 11  1  0
 11 12  1  1
 12 13  1  0
 13 14  2  0
 14 15  1  0
 16 15  2  0
 17 16  1  0
 18 13  1  0
 18 17  2  0
 19 11  1  0
 19 20  2  0
 22 21  1  6
 22 24  1  0
 23 22  1  0
 24 25  1  6
 24 26  1  0
 25 19  1  0
 26 28  1  0
 27 26  2  0
M  END
$$$$
