EFT.pdb
     RDKit          3D

 28 28  0  0  1  0  0  0  0  0999 V2000
   10.3648  -16.3434   19.1851 N   0  0  0  0  0  0  0  0  0  0  0  0
    9.4558  -16.8800   20.1424 C   0  0  1  0  0  0  0  0  0  0  0  0
    9.6923  -18.3568   20.3106 C   0  0  0  0  0  0  0  0  0  0  0  0
    9.5486  -18.9682   18.9081 C   0  0  0  0  0  0  0  0  0  0  0  0
    9.6980  -20.4207   18.9389 C   0  0  0  0  0  0  0  0  0  0  0  0
    8.6341  -21.1249   18.9426 O   0  0  0  0  0  0  0  0  0  0  0  0
    9.6323  -16.1405   21.4279 C   0  0  0  0  0  0  0  0  0  0  0  0
   10.7901  -15.8205   21.8229 O   0  0  0  0  0  0  0  0  0  0  0  0
   10.9682  -20.9841   18.9646 O   0  0  0  0  0  0  0  0  0  0  0  0
    8.5599  -15.7635   22.2568 N   0  0  0  0  0  0  0  0  0  0  0  0
    8.7373  -15.0064   23.5224 C   0  0  1  0  0  0  0  0  0  0  0  0
    7.4998  -14.2107   23.7089 C   0  0  0  0  0  0  0  0  0  0  0  0
    7.3328  -13.4356   24.9184 C   0  0  0  0  0  0  0  0  0  0  0  0
    8.1913  -12.3406   25.1028 C   0  0  0  0  0  0  0  0  0  0  0  0
    8.1268  -11.5096   26.1778 C   0  0  0  0  0  0  0  0  0  0  0  0
    7.1806  -11.7339   27.1459 C   0  0  0  0  0  0  0  0  0  0  0  0
    6.3270  -12.7891   27.0031 C   0  0  0  0  0  0  0  0  0  0  0  0
    6.4066  -13.6269   25.8995 C   0  0  0  0  0  0  0  0  0  0  0  0
    8.9240  -16.0218   24.5721 C   0  0  0  0  0  0  0  0  0  0  0  0
    8.0192  -16.9214   24.7146 O   0  0  0  0  0  0  0  0  0  0  0  0
   10.9490  -18.8064   24.6646 C   0  0  0  0  0  0  0  0  0  0  0  0
   11.1969  -18.1943   26.0149 C   0  0  1  0  0  0  0  0  0  0  0  0
   12.3817  -17.4585   25.9531 O   0  0  0  0  0  0  0  0  0  0  0  0
   10.0933  -17.2077   26.3949 C   0  0  2  0  0  0  0  0  0  0  0  0
   10.0274  -16.1201   25.4607 N   0  0  0  0  0  0  0  0  0  0  0  0
   10.2103  -16.7784   27.7816 C   0  0  0  0  0  0  0  0  0  0  0  0
   10.2809  -15.5383   28.0823 O   0  0  0  0  0  0  0  0  0  0  0  0
   10.2487  -17.6992   28.8086 O   0  0  0  0  0  0  0  0  0  0  0  0
  2  1  1  6
  2  3  1  0
  2  7  1  0
  4  5  1  0
  4  3  1  0
  5  6  2  0
  7  8  2  0
  9  5  1  0
 10  7  1  0
 10 11  1  0
 11 12  1  1
 12 13  1  0
 13 14  2  0
 14 15  1  0
 16 15  2  0
 17 16  1  0
 18 13  1  0
 18 17  2  0
 19 11  1  0
 19 20  2  0
 22 21  1  6
 22 24  1  0
 23 22  1  0
 24 25  1  6
 24 26  1  0
 25 19  1  0
 26 28  1  0
 27 26  2  0
M  END
$$$$
