EFT.pdb
     RDKit          3D

 28 28  0  0  1  0  0  0  0  0999 V2000
    9.4837  -16.3376   19.2100 N   0  0  0  0  0  0  0  0  0  0  0  0
    8.7715  -16.9712   20.2692 C   0  0  1  0  0  0  0  0  0  0  0  0
    9.1516  -18.4251   20.3523 C   0  0  0  0  0  0  0  0  0  0  0  0
    8.7376  -19.0455   19.0088 C   0  0  0  0  0  0  0  0  0  0  0  0
    8.9855  -20.4847   18.9841 C   0  0  0  0  0  0  0  0  0  0  0  0
    8.6573  -21.1235   17.9296 O   0  0  0  0  0  0  0  0  0  0  0  0
    9.0715  -16.2465   21.5402 C   0  0  0  0  0  0  0  0  0  0  0  0
   10.2701  -16.0401   21.8861 O   0  0  0  0  0  0  0  0  0  0  0  0
    9.5584  -21.1059   20.0873 O   0  0  0  0  0  0  0  0  0  0  0  0
    8.0756  -15.7617   22.4076 N   0  0  0  0  0  0  0  0  0  0  0  0
    8.3776  -15.0325   23.6659 C   0  0  1  0  0  0  0  0  0  0  0  0
    7.1810  -14.2103   23.9685 C   0  0  0  0  0  0  0  0  0  0  0  0
    7.1261  -13.4715   25.2106 C   0  0  0  0  0  0  0  0  0  0  0  0
    8.1789  -12.5818   25.4753 C   0  0  0  0  0  0  0  0  0  0  0  0
    8.2407  -11.8031   26.5890 C   0  0  0  0  0  0  0  0  0  0  0  0
    7.2320  -11.8740   27.5165 C   0  0  0  0  0  0  0  0  0  0  0  0
    6.1904  -12.7275   27.2954 C   0  0  0  0  0  0  0  0  0  0  0  0
    6.1431  -13.5147   26.1534 C   0  0  0  0  0  0  0  0  0  0  0  0
    8.6250  -16.0712   24.6797 C   0  0  0  0  0  0  0  0  0  0  0  0
    7.6825  -16.9036   24.9387 O   0  0  0  0  0  0  0  0  0  0  0  0
   10.4066  -19.0160   24.5373 C   0  0  0  0  0  0  0  0  0  0  0  0
   10.8823  -18.4248   25.8348 C   0  0  1  0  0  0  0  0  0  0  0  0
   12.1054  -17.7913   25.6069 O   0  0  0  0  0  0  0  0  0  0  0  0
    9.9251  -17.3484   26.3453 C   0  0  2  0  0  0  0  0  0  0  0  0
    9.8256  -16.2607   25.4142 N   0  0  0  0  0  0  0  0  0  0  0  0
   10.2616  -16.9280   27.6986 C   0  0  0  0  0  0  0  0  0  0  0  0
   10.5403  -15.7080   27.9579 O   0  0  0  0  0  0  0  0  0  0  0  0
   10.2891  -17.8358   28.7373 O   0  0  0  0  0  0  0  0  0  0  0  0
  2  1  1  6
  2  3  1  0
  2  7  1  0
  4  5  1  0
  4  3  1  0
  5  6  2  0
  7  8  2  0
  9  5  1  0
 10  7  1  0
 10 11  1  0
 11 12  1  1
 12 13  1  0
 13 14  2  0
 14 15  1  0
 16 15  2  0
 17 16  1  0
 18 13  1  0
 18 17  2  0
 19 11  1  0
 19 20  2  0
 22 21  1  6
 22 24  1  0
 23 22  1  0
 24 25  1  6
 24 26  1  0
 25 19  1  0
 26 28  1  0
 27 26  2  0
M  END
$$$$
