EFT.pdb
     RDKit          3D

 28 28  0  0  1  0  0  0  0  0999 V2000
    9.4978  -16.3024   19.2281 N   0  0  0  0  0  0  0  0  0  0  0  0
    8.8327  -16.9142   20.3300 C   0  0  1  0  0  0  0  0  0  0  0  0
    9.3127  -18.3301   20.5038 C   0  0  0  0  0  0  0  0  0  0  0  0
    8.0768  -19.2208   20.3023 C   0  0  0  0  0  0  0  0  0  0  0  0
    8.3088  -20.5776   20.7906 C   0  0  0  0  0  0  0  0  0  0  0  0
    7.3340  -21.3992   20.7406 O   0  0  0  0  0  0  0  0  0  0  0  0
    9.0837  -16.0903   21.5501 C   0  0  0  0  0  0  0  0  0  0  0  0
   10.2186  -15.5661   21.7403 O   0  0  0  0  0  0  0  0  0  0  0  0
    9.5583  -20.9287   21.2875 O   0  0  0  0  0  0  0  0  0  0  0  0
    8.1086  -15.8503   22.5353 N   0  0  0  0  0  0  0  0  0  0  0  0
    8.3593  -15.0235   23.7435 C   0  0  1  0  0  0  0  0  0  0  0  0
    7.0992  -14.2903   24.0156 C   0  0  0  0  0  0  0  0  0  0  0  0
    6.9753  -13.5257   25.2368 C   0  0  0  0  0  0  0  0  0  0  0  0
    7.9751  -12.5777   25.5050 C   0  0  0  0  0  0  0  0  0  0  0  0
    7.9691  -11.7705   26.5998 C   0  0  0  0  0  0  0  0  0  0  0  0
    6.9415  -11.8701   27.5037 C   0  0  0  0  0  0  0  0  0  0  0  0
    5.9499  -12.7803   27.2785 C   0  0  0  0  0  0  0  0  0  0  0  0
    5.9716  -13.5960   26.1559 C   0  0  0  0  0  0  0  0  0  0  0  0
    8.7062  -15.9742   24.8130 C   0  0  0  0  0  0  0  0  0  0  0  0
    7.8502  -16.8800   25.1213 O   0  0  0  0  0  0  0  0  0  0  0  0
   11.0430  -18.6084   24.8617 C   0  0  0  0  0  0  0  0  0  0  0  0
   11.2745  -17.9355   26.1857 C   0  0  1  0  0  0  0  0  0  0  0  0
   12.4070  -17.1266   26.0756 O   0  0  0  0  0  0  0  0  0  0  0  0
   10.1154  -17.0105   26.5554 C   0  0  2  0  0  0  0  0  0  0  0  0
    9.9179  -16.0025   25.5529 N   0  0  0  0  0  0  0  0  0  0  0  0
   10.2647  -16.4730   27.9007 C   0  0  0  0  0  0  0  0  0  0  0  0
   10.3080  -15.2120   28.1039 O   0  0  0  0  0  0  0  0  0  0  0  0
   10.3643  -17.3108   28.9925 O   0  0  0  0  0  0  0  0  0  0  0  0
  2  1  1  6
  2  3  1  0
  2  7  1  0
  4  5  1  0
  4  3  1  0
  5  6  2  0
  7  8  2  0
  9  5  1  0
 10  7  1  0
 10 11  1  0
 11 12  1  1
 12 13  1  0
 13 14  2  0
 14 15  1  0
 16 15  2  0
 17 16  1  0
 18 13  1  0
 18 17  2  0
 19 11  1  0
 19 20  2  0
 22 21  1  6
 22 24  1  0
 23 22  1  0
 24 25  1  6
 24 26  1  0
 25 19  1  0
 26 28  1  0
 27 26  2  0
M  END
$$$$
