EFT.pdb
     RDKit          3D

 28 28  0  0  1  0  0  0  0  0999 V2000
   10.0260  -16.5277   19.6475 N   0  0  0  0  0  0  0  0  0  0  0  0
    9.6575  -17.2350   20.8284 C   0  0  1  0  0  0  0  0  0  0  0  0
   10.5091  -18.4665   20.9820 C   0  0  0  0  0  0  0  0  0  0  0  0
   10.2602  -19.3098   19.7217 C   0  0  0  0  0  0  0  0  0  0  0  0
   11.0523  -20.5368   19.7330 C   0  0  0  0  0  0  0  0  0  0  0  0
   10.4588  -21.6269   19.4378 O   0  0  0  0  0  0  0  0  0  0  0  0
    9.8002  -16.3136   21.9951 C   0  0  0  0  0  0  0  0  0  0  0  0
   10.9208  -15.7897   22.2575 O   0  0  0  0  0  0  0  0  0  0  0  0
   12.4021  -20.4846   20.0597 O   0  0  0  0  0  0  0  0  0  0  0  0
    8.7349  -15.9781   22.8505 N   0  0  0  0  0  0  0  0  0  0  0  0
    8.8801  -15.0596   24.0087 C   0  0  1  0  0  0  0  0  0  0  0  0
    7.5988  -14.3208   24.1178 C   0  0  0  0  0  0  0  0  0  0  0  0
    7.4024  -13.4041   25.2190 C   0  0  0  0  0  0  0  0  0  0  0  0
    6.4080  -13.7287   26.1549 C   0  0  0  0  0  0  0  0  0  0  0  0
    6.1364  -12.9733   27.2531 C   0  0  0  0  0  0  0  0  0  0  0  0
    6.8598  -11.8293   27.4787 C   0  0  0  0  0  0  0  0  0  0  0  0
    7.8356  -11.4793   26.5913 C   0  0  0  0  0  0  0  0  0  0  0  0
    8.0998  -12.2619   25.4760 C   0  0  0  0  0  0  0  0  0  0  0  0
    9.1395  -15.9229   25.1728 C   0  0  0  0  0  0  0  0  0  0  0  0
    8.3370  -16.9001   25.3950 O   0  0  0  0  0  0  0  0  0  0  0  0
   11.2700  -18.5124   25.7272 C   0  0  0  0  0  0  0  0  0  0  0  0
   11.4725  -17.6946   26.9720 C   0  0  1  0  0  0  0  0  0  0  0  0
   12.6259  -16.9250   26.8096 O   0  0  0  0  0  0  0  0  0  0  0  0
   10.3228  -16.7118   27.1910 C   0  0  2  0  0  0  0  0  0  0  0  0
   10.2121  -15.7925   26.0945 N   0  0  0  0  0  0  0  0  0  0  0  0
   10.4128  -16.0604   28.4906 C   0  0  0  0  0  0  0  0  0  0  0  0
   10.4749  -16.7465   29.5671 O   0  0  0  0  0  0  0  0  0  0  0  0
   10.4330  -14.6847   28.5948 O   0  0  0  0  0  0  0  0  0  0  0  0
  2  1  1  6
  2  3  1  0
  2  7  1  0
  4  5  1  0
  4  3  1  0
  5  6  2  0
  7  8  2  0
  9  5  1  0
 10  7  1  0
 10 11  1  0
 11 12  1  1
 12 13  1  0
 13 14  2  0
 14 15  1  0
 16 15  2  0
 17 16  1  0
 18 13  1  0
 18 17  2  0
 19 11  1  0
 19 20  2  0
 22 21  1  6
 22 24  1  0
 23 22  1  0
 24 25  1  6
 24 26  1  0
 25 19  1  0
 26 28  1  0
 27 26  2  0
M  END
$$$$
