EFT.pdb
     RDKit          3D

 28 28  0  0  1  0  0  0  0  0999 V2000
   10.5958  -16.4678   19.6052 N   0  0  0  0  0  0  0  0  0  0  0  0
    9.6923  -17.0014   20.5695 C   0  0  1  0  0  0  0  0  0  0  0  0
   10.0218  -18.4437   20.8460 C   0  0  0  0  0  0  0  0  0  0  0  0
    9.5970  -19.2203   19.5898 C   0  0  0  0  0  0  0  0  0  0  0  0
    8.5717  -20.2145   19.8957 C   0  0  0  0  0  0  0  0  0  0  0  0
    8.2037  -20.3300   21.1118 O   0  0  0  0  0  0  0  0  0  0  0  0
    9.7741  -16.1675   21.8058 C   0  0  0  0  0  0  0  0  0  0  0  0
   10.8994  -15.8056   22.2548 O   0  0  0  0  0  0  0  0  0  0  0  0
    8.0374  -20.9921   18.8753 O   0  0  0  0  0  0  0  0  0  0  0  0
    8.6442  -15.7435   22.5288 N   0  0  0  0  0  0  0  0  0  0  0  0
    8.7309  -14.9578   23.7863 C   0  0  1  0  0  0  0  0  0  0  0  0
    7.4676  -14.1871   23.8842 C   0  0  0  0  0  0  0  0  0  0  0  0
    7.1663  -13.4751   25.1064 C   0  0  0  0  0  0  0  0  0  0  0  0
    8.0061  -12.4038   25.4489 C   0  0  0  0  0  0  0  0  0  0  0  0
    7.8227  -11.6304   26.5528 C   0  0  0  0  0  0  0  0  0  0  0  0
    6.7679  -11.8922   27.3904 C   0  0  0  0  0  0  0  0  0  0  0  0
    5.9285  -12.9260   27.0918 C   0  0  0  0  0  0  0  0  0  0  0  0
    6.1301  -13.7050   25.9611 C   0  0  0  0  0  0  0  0  0  0  0  0
    8.8782  -15.9477   24.8662 C   0  0  0  0  0  0  0  0  0  0  0  0
    8.0048  -16.8845   24.9545 O   0  0  0  0  0  0  0  0  0  0  0  0
   10.9192  -18.6011   25.0396 C   0  0  0  0  0  0  0  0  0  0  0  0
   11.0880  -18.0445   26.4256 C   0  0  1  0  0  0  0  0  0  0  0  0
   12.2770  -17.3139   26.4641 O   0  0  0  0  0  0  0  0  0  0  0  0
    9.9671  -17.0675   26.7784 C   0  0  2  0  0  0  0  0  0  0  0  0
    9.9115  -15.9831   25.8398 N   0  0  0  0  0  0  0  0  0  0  0  0
   10.0496  -16.6332   28.1661 C   0  0  0  0  0  0  0  0  0  0  0  0
   10.1129  -15.3921   28.4640 O   0  0  0  0  0  0  0  0  0  0  0  0
   10.0621  -17.5504   29.1969 O   0  0  0  0  0  0  0  0  0  0  0  0
  2  1  1  6
  2  3  1  0
  2  7  1  0
  4  5  1  0
  4  3  1  0
  5  6  2  0
  7  8  2  0
  9  5  1  0
 10  7  1  0
 10 11  1  0
 11 12  1  1
 12 13  1  0
 13 14  2  0
 14 15  1  0
 16 15  2  0
 17 16  1  0
 18 13  1  0
 18 17  2  0
 19 11  1  0
 19 20  2  0
 22 21  1  6
 22 24  1  0
 23 22  1  0
 24 25  1  6
 24 26  1  0
 25 19  1  0
 26 28  1  0
 27 26  2  0
M  END
$$$$
