EFT.pdb
     RDKit          3D

 28 28  0  0  1  0  0  0  0  0999 V2000
   10.2161  -16.6773   19.3372 N   0  0  0  0  0  0  0  0  0  0  0  0
    9.0040  -16.7495   20.0830 C   0  0  1  0  0  0  0  0  0  0  0  0
    8.5631  -18.1822   20.2179 C   0  0  0  0  0  0  0  0  0  0  0  0
    9.8419  -18.9928   20.4807 C   0  0  0  0  0  0  0  0  0  0  0  0
    9.5528  -20.4168   20.6286 C   0  0  0  0  0  0  0  0  0  0  0  0
    9.6992  -20.9331   21.7860 O   0  0  0  0  0  0  0  0  0  0  0  0
    9.2296  -16.1115   21.4144 C   0  0  0  0  0  0  0  0  0  0  0  0
   10.4002  -16.0164   21.8831 O   0  0  0  0  0  0  0  0  0  0  0  0
    9.1367  -21.1551   19.5272 O   0  0  0  0  0  0  0  0  0  0  0  0
    8.1914  -15.5915   22.2087 N   0  0  0  0  0  0  0  0  0  0  0  0
    8.4269  -14.8790   23.4906 C   0  0  1  0  0  0  0  0  0  0  0  0
    7.2223  -14.0487   23.7332 C   0  0  0  0  0  0  0  0  0  0  0  0
    7.1182  -13.2957   24.9635 C   0  0  0  0  0  0  0  0  0  0  0  0
    8.0905  -12.3108   25.1975 C   0  0  0  0  0  0  0  0  0  0  0  0
    8.0974  -11.5100   26.2971 C   0  0  0  0  0  0  0  0  0  0  0  0
    7.1119  -11.6543   27.2409 C   0  0  0  0  0  0  0  0  0  0  0  0
    6.1481  -12.6014   27.0498 C   0  0  0  0  0  0  0  0  0  0  0  0
    6.1560  -13.4099   25.9218 C   0  0  0  0  0  0  0  0  0  0  0  0
    8.6061  -15.9310   24.5050 C   0  0  0  0  0  0  0  0  0  0  0  0
    7.6553  -16.7763   24.6776 O   0  0  0  0  0  0  0  0  0  0  0  0
   10.4961  -18.8036   24.4578 C   0  0  0  0  0  0  0  0  0  0  0  0
   10.7980  -18.2703   25.8303 C   0  0  1  0  0  0  0  0  0  0  0  0
   12.0392  -17.6324   25.7907 O   0  0  0  0  0  0  0  0  0  0  0  0
    9.7806  -17.2131   26.2578 C   0  0  2  0  0  0  0  0  0  0  0  0
    9.7480  -16.1205   25.3277 N   0  0  0  0  0  0  0  0  0  0  0  0
    9.9859  -16.7970   27.6384 C   0  0  0  0  0  0  0  0  0  0  0  0
   10.2186  -15.5744   27.9290 O   0  0  0  0  0  0  0  0  0  0  0  0
    9.9352  -17.7118   28.6701 O   0  0  0  0  0  0  0  0  0  0  0  0
  2  1  1  6
  2  3  1  0
  2  7  1  0
  4  5  1  0
  4  3  1  0
  5  6  2  0
  7  8  2  0
  9  5  1  0
 10  7  1  0
 10 11  1  0
 11 12  1  1
 12 13  1  0
 13 14  2  0
 14 15  1  0
 16 15  2  0
 17 16  1  0
 18 13  1  0
 18 17  2  0
 19 11  1  0
 19 20  2  0
 22 21  1  6
 22 24  1  0
 23 22  1  0
 24 25  1  6
 24 26  1  0
 25 19  1  0
 26 28  1  0
 27 26  2  0
M  END
$$$$
