YQM.pdb
     RDKit          3D

 30 30  0  0  1  0  0  0  0  0999 V2000
    7.2303  -12.1686   16.6490 O   0  0  0  0  0  0  0  0  0  0  0  0
    7.3952  -12.8922   17.8440 C   0  0  0  0  0  0  0  0  0  0  0  0
    6.5779  -13.9622   18.1232 C   0  0  0  0  0  0  0  0  0  0  0  0
    6.7597  -14.6679   19.3182 C   0  0  0  0  0  0  0  0  0  0  0  0
    7.7435  -14.3046   20.2138 C   0  0  0  0  0  0  0  0  0  0  0  0
    7.9182  -15.0616   21.4708 C   0  0  0  0  0  0  0  0  0  0  0  0
    8.6466  -16.3726   21.2451 C   0  0  2  0  0  0  0  0  0  0  0  0
    7.8689  -17.2107   20.3088 N   0  0  0  0  0  0  0  0  0  0  0  0
    8.8902  -17.0733   22.5031 C   0  0  0  0  0  0  0  0  0  0  0  0
    8.3777  -18.1873   22.8269 O   0  0  0  0  0  0  0  0  0  0  0  0
    8.5434  -13.2325   19.9070 C   0  0  0  0  0  0  0  0  0  0  0  0
    8.3823  -12.5104   18.7196 C   0  0  0  0  0  0  0  0  0  0  0  0
   12.5756  -21.1272   23.5971 N   0  0  0  0  0  0  0  0  0  0  0  0
   13.1310  -20.0523   24.3530 C   0  0  0  0  0  0  0  0  0  0  0  0
   14.3596  -20.0105   24.4983 O   0  0  0  0  0  0  0  0  0  0  0  0
   12.2274  -19.0682   24.9151 C   0  0  0  0  0  0  0  0  0  0  0  0
   11.4799  -18.2782   23.8878 C   0  0  0  0  0  0  0  0  0  0  0  0
   10.4910  -17.2782   24.4261 C   0  0  2  0  0  0  0  0  0  0  0  0
    9.7638  -16.5210   23.4898 N   0  0  0  0  0  0  0  0  0  0  0  0
   11.2483  -16.4532   25.4152 C   0  0  0  0  0  0  0  0  0  0  0  0
   12.0804  -15.6376   24.9547 O   0  0  0  0  0  0  0  0  0  0  0  0
    7.0290  -11.3621   27.1680 C   0  0  0  0  0  0  0  0  0  0  0  0
    7.1915  -13.1752   27.3611 S   0  0  0  0  0  0  0  0  0  0  0  0
    8.7916  -13.7481   26.8316 C   0  0  0  0  0  0  0  0  0  0  0  0
    9.0803  -15.1902   26.9489 C   0  0  0  0  0  0  0  0  0  0  0  0
   10.3315  -15.5673   27.6249 C   0  0  2  0  0  0  0  0  0  0  0  0
   11.0898  -16.5319   26.8034 N   0  0  0  0  0  0  0  0  0  0  0  0
   10.3256  -16.0176   28.9996 C   0  0  0  0  0  0  0  0  0  0  0  0
   10.5363  -15.2694   30.1379 O   0  0  0  0  0  0  0  0  0  0  0  0
   10.1058  -17.2639   29.2291 O   0  0  0  0  0  0  0  0  0  0  0  0
  2  1  1  0
  3  2  2  0
  4  3  1  0
  5  4  2  0
  5 11  1  0
  6  5  1  0
  7  6  1  0
  7  9  1  0
  7  8  1  6
  9 10  2  0
 11 12  2  0
 12  2  1  0
 13 14  1  0
 14 15  2  0
 16 17  1  0
 16 14  1  0
 18 17  1  6
 19 18  1  0
 19  9  1  0
 20 18  1  0
 20 21  2  0
 23 22  1  0
 23 24  1  0
 24 25  1  0
 26 25  1  6
 26 27  1  0
 26 28  1  0
 27 20  1  0
 28 30  2  0
 28 29  1  0
M  END
$$$$
