YQM.pdb
     RDKit          3D

 30 30  0  0  1  0  0  0  0  0999 V2000
    7.1393  -11.7634   17.4431 O   0  0  0  0  0  0  0  0  0  0  0  0
    7.4929  -12.6423   18.4831 C   0  0  0  0  0  0  0  0  0  0  0  0
    8.7790  -12.6565   18.9694 C   0  0  0  0  0  0  0  0  0  0  0  0
    9.1088  -13.5391   20.0045 C   0  0  0  0  0  0  0  0  0  0  0  0
    8.1641  -14.3898   20.5393 C   0  0  0  0  0  0  0  0  0  0  0  0
    8.5327  -15.3152   21.6306 C   0  0  0  0  0  0  0  0  0  0  0  0
    9.2364  -16.5534   21.1091 C   0  0  2  0  0  0  0  0  0  0  0  0
    8.3358  -17.2779   20.1882 N   0  0  0  0  0  0  0  0  0  0  0  0
    9.6810  -17.4162   22.2002 C   0  0  0  0  0  0  0  0  0  0  0  0
    8.9359  -18.2108   22.8498 O   0  0  0  0  0  0  0  0  0  0  0  0
    6.8891  -14.3521   20.0330 C   0  0  0  0  0  0  0  0  0  0  0  0
    6.5337  -13.4795   18.9987 C   0  0  0  0  0  0  0  0  0  0  0  0
   13.5722  -21.1267   21.6298 N   0  0  0  0  0  0  0  0  0  0  0  0
   13.8350  -19.8148   21.1345 C   0  0  0  0  0  0  0  0  0  0  0  0
   14.3657  -19.7031   20.0218 O   0  0  0  0  0  0  0  0  0  0  0  0
   13.4711  -18.6818   21.9621 C   0  0  0  0  0  0  0  0  0  0  0  0
   12.8072  -19.0615   23.2479 C   0  0  0  0  0  0  0  0  0  0  0  0
   11.5777  -18.2695   23.6062 C   0  0  2  0  0  0  0  0  0  0  0  0
   11.0471  -17.4191   22.6193 N   0  0  0  0  0  0  0  0  0  0  0  0
   11.9023  -17.5785   24.8906 C   0  0  0  0  0  0  0  0  0  0  0  0
   12.5210  -16.4921   24.8097 O   0  0  0  0  0  0  0  0  0  0  0  0
    9.2502  -13.0353   29.4532 C   0  0  0  0  0  0  0  0  0  0  0  0
   10.2524  -14.1287   28.3803 S   0  0  0  0  0  0  0  0  0  0  0  0
    9.2876  -15.4826   27.7438 C   0  0  0  0  0  0  0  0  0  0  0  0
    9.9263  -16.3833   26.7653 C   0  0  0  0  0  0  0  0  0  0  0  0
   11.0164  -17.2392   27.2589 C   0  0  2  0  0  0  0  0  0  0  0  0
   11.5639  -18.0601   26.1603 N   0  0  0  0  0  0  0  0  0  0  0  0
   10.8349  -18.0722   28.4275 C   0  0  0  0  0  0  0  0  0  0  0  0
   11.2281  -17.8132   29.7229 O   0  0  0  0  0  0  0  0  0  0  0  0
   10.2426  -19.2043   28.2798 O   0  0  0  0  0  0  0  0  0  0  0  0
  2  1  1  0
  3  2  2  0
  4  3  1  0
  5  4  2  0
  5 11  1  0
  6  5  1  0
  7  6  1  0
  7  9  1  0
  7  8  1  6
  9 10  2  0
 11 12  2  0
 12  2  1  0
 13 14  1  0
 14 15  2  0
 16 17  1  0
 16 14  1  0
 18 17  1  6
 19 18  1  0
 19  9  1  0
 20 18  1  0
 20 21  2  0
 23 22  1  0
 23 24  1  0
 24 25  1  0
 26 25  1  6
 26 27  1  0
 26 28  1  0
 27 20  1  0
 28 30  2  0
 28 29  1  0
M  END
$$$$
