YQM.pdb
     RDKit          3D

 30 30  0  0  1  0  0  0  0  0999 V2000
    8.5067  -12.8967   17.2459 O   0  0  0  0  0  0  0  0  0  0  0  0
    8.0953  -13.4143   18.4876 C   0  0  0  0  0  0  0  0  0  0  0  0
    8.0060  -14.7737   18.6750 C   0  0  0  0  0  0  0  0  0  0  0  0
    7.5946  -15.2668   19.9187 C   0  0  0  0  0  0  0  0  0  0  0  0
    7.2795  -14.4100   20.9525 C   0  0  0  0  0  0  0  0  0  0  0  0
    6.8456  -14.9505   22.2574 C   0  0  0  0  0  0  0  0  0  0  0  0
    7.0293  -16.4540   22.3365 C   0  0  2  0  0  0  0  0  0  0  0  0
    5.7159  -17.1164   22.1941 N   0  0  0  0  0  0  0  0  0  0  0  0
    7.6875  -16.8485   23.5789 C   0  0  0  0  0  0  0  0  0  0  0  0
    7.1152  -16.9472   24.7064 O   0  0  0  0  0  0  0  0  0  0  0  0
    7.3786  -13.0586   20.7348 C   0  0  0  0  0  0  0  0  0  0  0  0
    7.7872  -12.5401   19.5013 C   0  0  0  0  0  0  0  0  0  0  0  0
   13.4238  -19.6642   24.2159 N   0  0  0  0  0  0  0  0  0  0  0  0
   12.9804  -19.5072   25.5628 C   0  0  0  0  0  0  0  0  0  0  0  0
   13.6778  -19.9807   26.4692 O   0  0  0  0  0  0  0  0  0  0  0  0
   11.7342  -18.8056   25.7988 C   0  0  0  0  0  0  0  0  0  0  0  0
   11.0721  -18.3138   24.5507 C   0  0  0  0  0  0  0  0  0  0  0  0
    9.7990  -17.5349   24.7507 C   0  0  2  0  0  0  0  0  0  0  0  0
    9.0810  -17.1642   23.5993 N   0  0  0  0  0  0  0  0  0  0  0  0
   10.1629  -16.3858   25.6337 C   0  0  0  0  0  0  0  0  0  0  0  0
   10.9225  -15.5157   25.1484 O   0  0  0  0  0  0  0  0  0  0  0  0
    6.5702  -11.6319   25.6413 C   0  0  0  0  0  0  0  0  0  0  0  0
    7.0503  -12.4999   27.1798 S   0  0  0  0  0  0  0  0  0  0  0  0
    8.4983  -13.5066   26.9376 C   0  0  0  0  0  0  0  0  0  0  0  0
    9.0577  -14.2025   28.1121 C   0  0  0  0  0  0  0  0  0  0  0  0
   10.1559  -15.1501   27.8657 C   0  0  2  0  0  0  0  0  0  0  0  0
    9.7156  -16.2212   26.9495 N   0  0  0  0  0  0  0  0  0  0  0  0
   10.8888  -15.7389   28.9651 C   0  0  0  0  0  0  0  0  0  0  0  0
   11.1050  -17.0760   29.2206 O   0  0  0  0  0  0  0  0  0  0  0  0
   11.4138  -14.9511   29.8356 O   0  0  0  0  0  0  0  0  0  0  0  0
  2  1  1  0
  3  2  2  0
  4  3  1  0
  5  4  2  0
  5 11  1  0
  6  5  1  0
  7  6  1  0
  7  9  1  0
  7  8  1  1
  9 10  2  0
 11 12  2  0
 12  2  1  0
 13 14  1  0
 14 15  2  0
 16 17  1  0
 16 14  1  0
 18 17  1  6
 19 18  1  0
 19  9  1  0
 20 18  1  0
 20 21  2  0
 23 22  1  0
 23 24  1  0
 24 25  1  0
 26 25  1  1
 26 27  1  0
 26 28  1  0
 27 20  1  0
 28 30  2  0
 28 29  1  0
M  END
$$$$
