YQM.pdb
     RDKit          3D

 30 30  0  0  1  0  0  0  0  0999 V2000
   10.8677  -17.4080   30.5282 O   0  0  0  0  0  0  0  0  0  0  0  0
   11.3033  -16.8210   29.3263 C   0  0  0  0  0  0  0  0  0  0  0  0
   11.8203  -17.6045   28.3214 C   0  0  0  0  0  0  0  0  0  0  0  0
   12.2476  -16.9993   27.1338 C   0  0  0  0  0  0  0  0  0  0  0  0
   12.1567  -15.6340   26.9608 C   0  0  0  0  0  0  0  0  0  0  0  0
   12.6148  -15.0142   25.7001 C   0  0  0  0  0  0  0  0  0  0  0  0
   13.1116  -16.0489   24.7088 C   0  0  2  0  0  0  0  0  0  0  0  0
   14.5331  -15.7888   24.3995 N   0  0  0  0  0  0  0  0  0  0  0  0
   12.3006  -16.0596   23.4943 C   0  0  0  0  0  0  0  0  0  0  0  0
   12.4086  -15.2317   22.5396 O   0  0  0  0  0  0  0  0  0  0  0  0
   11.6362  -14.8789   27.9818 C   0  0  0  0  0  0  0  0  0  0  0  0
   11.2021  -15.4591   29.1786 C   0  0  0  0  0  0  0  0  0  0  0  0
    8.3288  -19.7656   20.4373 N   0  0  0  0  0  0  0  0  0  0  0  0
    7.6922  -18.4953   20.3091 C   0  0  0  0  0  0  0  0  0  0  0  0
    6.6080  -18.4397   19.7145 O   0  0  0  0  0  0  0  0  0  0  0  0
    8.3506  -17.3359   20.8775 C   0  0  0  0  0  0  0  0  0  0  0  0
    9.6785  -17.6384   21.4967 C   0  0  0  0  0  0  0  0  0  0  0  0
   10.0402  -16.8111   22.7018 C   0  0  2  0  0  0  0  0  0  0  0  0
   11.2911  -17.0518   23.2985 N   0  0  0  0  0  0  0  0  0  0  0  0
    8.8859  -16.9401   23.6418 C   0  0  0  0  0  0  0  0  0  0  0  0
    8.8054  -18.0039   24.2988 O   0  0  0  0  0  0  0  0  0  0  0  0
    7.2270  -10.7419   25.1522 C   0  0  0  0  0  0  0  0  0  0  0  0
    6.7934  -12.4036   25.7864 S   0  0  0  0  0  0  0  0  0  0  0  0
    6.6761  -13.5956   24.4695 C   0  0  0  0  0  0  0  0  0  0  0  0
    5.9527  -14.8525   24.7407 C   0  0  0  0  0  0  0  0  0  0  0  0
    6.7454  -16.0919   24.7406 C   0  0  2  0  0  0  0  0  0  0  0  0
    7.9028  -15.9625   23.8329 N   0  0  0  0  0  0  0  0  0  0  0  0
    6.1152  -17.3759   24.5245 C   0  0  0  0  0  0  0  0  0  0  0  0
    6.2210  -18.1977   23.4230 O   0  0  0  0  0  0  0  0  0  0  0  0
    5.3501  -17.8397   25.4484 O   0  0  0  0  0  0  0  0  0  0  0  0
  2  1  1  0
  3  2  2  0
  4  3  1  0
  5  4  2  0
  5 11  1  0
  6  5  1  0
  7  6  1  0
  7  9  1  0
  7  8  1  6
  9 10  2  0
 11 12  2  0
 12  2  1  0
 13 14  1  0
 14 15  2  0
 16 17  1  0
 16 14  1  0
 18 17  1  6
 19 18  1  0
 19  9  1  0
 20 18  1  0
 20 21  2  0
 23 22  1  0
 23 24  1  0
 24 25  1  0
 26 25  1  6
 26 27  1  0
 26 28  1  0
 27 20  1  0
 28 30  2  0
 28 29  1  0
M  END
$$$$
