YQM.pdb
     RDKit          3D

 30 30  0  0  1  0  0  0  0  0999 V2000
    7.5676  -11.9642   16.7630 O   0  0  0  0  0  0  0  0  0  0  0  0
    7.6394  -12.7892   17.9001 C   0  0  0  0  0  0  0  0  0  0  0  0
    6.6678  -13.7345   18.1314 C   0  0  0  0  0  0  0  0  0  0  0  0
    6.7591  -14.5446   19.2691 C   0  0  0  0  0  0  0  0  0  0  0  0
    7.8063  -14.4066   20.1559 C   0  0  0  0  0  0  0  0  0  0  0  0
    7.8838  -15.2706   21.3521 C   0  0  0  0  0  0  0  0  0  0  0  0
    8.7048  -16.5198   21.0956 C   0  0  2  0  0  0  0  0  0  0  0  0
    8.0397  -17.3398   20.0615 N   0  0  0  0  0  0  0  0  0  0  0  0
    8.9135  -17.2846   22.3221 C   0  0  0  0  0  0  0  0  0  0  0  0
    8.1580  -18.2147   22.7375 O   0  0  0  0  0  0  0  0  0  0  0  0
    8.7605  -13.4545   19.8978 C   0  0  0  0  0  0  0  0  0  0  0  0
    8.6924  -12.6321   18.7680 C   0  0  0  0  0  0  0  0  0  0  0  0
   12.7026  -20.3291   22.5564 N   0  0  0  0  0  0  0  0  0  0  0  0
   13.3764  -19.1473   22.9859 C   0  0  0  0  0  0  0  0  0  0  0  0
   14.4814  -18.8892   22.4912 O   0  0  0  0  0  0  0  0  0  0  0  0
   12.7342  -18.3133   23.9824 C   0  0  0  0  0  0  0  0  0  0  0  0
   11.3563  -18.7648   24.3507 C   0  0  0  0  0  0  0  0  0  0  0  0
   10.3019  -17.6899   24.3741 C   0  0  2  0  0  0  0  0  0  0  0  0
   10.0358  -17.0201   23.1661 N   0  0  0  0  0  0  0  0  0  0  0  0
   10.6751  -16.7822   25.5007 C   0  0  0  0  0  0  0  0  0  0  0  0
   11.6910  -16.0669   25.3402 O   0  0  0  0  0  0  0  0  0  0  0  0
    6.9961  -11.1089   27.2052 C   0  0  0  0  0  0  0  0  0  0  0  0
    6.6245  -12.8288   27.7103 S   0  0  0  0  0  0  0  0  0  0  0  0
    8.1053  -13.7177   28.1412 C   0  0  0  0  0  0  0  0  0  0  0  0
    8.4504  -14.9092   27.3424 C   0  0  0  0  0  0  0  0  0  0  0  0
    9.8139  -15.4411   27.4927 C   0  0  2  0  0  0  0  0  0  0  0  0
    9.9722  -16.6810   26.7066 N   0  0  0  0  0  0  0  0  0  0  0  0
   10.3949  -15.6339   28.8034 C   0  0  0  0  0  0  0  0  0  0  0  0
   10.9725  -16.7760   29.3153 O   0  0  0  0  0  0  0  0  0  0  0  0
   10.3861  -14.6428   29.6230 O   0  0  0  0  0  0  0  0  0  0  0  0
  2  1  1  0
  3  2  2  0
  4  3  1  0
  5  4  2  0
  5 11  1  0
  6  5  1  0
  7  6  1  0
  7  9  1  0
  7  8  1  6
  9 10  2  0
 11 12  2  0
 12  2  1  0
 13 14  1  0
 14 15  2  0
 16 17  1  0
 16 14  1  0
 18 17  1  6
 19 18  1  0
 19  9  1  0
 20 18  1  0
 20 21  2  0
 23 22  1  0
 23 24  1  0
 24 25  1  0
 26 25  1  1
 26 27  1  0
 26 28  1  0
 27 20  1  0
 28 30  2  0
 28 29  1  0
M  END
$$$$
