YQM.pdb
     RDKit          3D

 30 30  0  0  1  0  0  0  0  0999 V2000
   10.3451  -24.7199   17.6860 O   0  0  0  0  0  0  0  0  0  0  0  0
   10.3124  -23.3346   17.9283 C   0  0  0  0  0  0  0  0  0  0  0  0
   11.4571  -22.6704   18.3017 C   0  0  0  0  0  0  0  0  0  0  0  0
   11.4016  -21.2919   18.5377 C   0  0  0  0  0  0  0  0  0  0  0  0
   10.2189  -20.5959   18.4007 C   0  0  0  0  0  0  0  0  0  0  0  0
   10.1809  -19.1409   18.6560 C   0  0  0  0  0  0  0  0  0  0  0  0
   10.3323  -18.8211   20.1308 C   0  0  2  0  0  0  0  0  0  0  0  0
    9.1445  -19.3087   20.8626 N   0  0  0  0  0  0  0  0  0  0  0  0
   10.5377  -17.3921   20.3505 C   0  0  0  0  0  0  0  0  0  0  0  0
   11.4778  -16.7058   19.8467 O   0  0  0  0  0  0  0  0  0  0  0  0
    9.0935  -21.2865   18.0266 C   0  0  0  0  0  0  0  0  0  0  0  0
    9.1221  -22.6642   17.7850 C   0  0  0  0  0  0  0  0  0  0  0  0
    6.8331  -12.6305   19.7980 N   0  0  0  0  0  0  0  0  0  0  0  0
    7.4344  -13.5375   18.8755 C   0  0  0  0  0  0  0  0  0  0  0  0
    7.0897  -13.4811   17.6879 O   0  0  0  0  0  0  0  0  0  0  0  0
    8.4137  -14.4806   19.3778 C   0  0  0  0  0  0  0  0  0  0  0  0
    8.6260  -14.4008   20.8566 C   0  0  0  0  0  0  0  0  0  0  0  0
    9.7358  -15.2590   21.4038 C   0  0  2  0  0  0  0  0  0  0  0  0
    9.6484  -16.6455   21.1834 N   0  0  0  0  0  0  0  0  0  0  0  0
    9.8661  -14.8815   22.8436 C   0  0  0  0  0  0  0  0  0  0  0  0
   10.1638  -13.6903   23.0931 O   0  0  0  0  0  0  0  0  0  0  0  0
    7.0976  -11.3365   26.3203 C   0  0  0  0  0  0  0  0  0  0  0  0
    7.4297  -12.9886   27.0355 S   0  0  0  0  0  0  0  0  0  0  0  0
    6.8560  -14.2910   25.9662 C   0  0  0  0  0  0  0  0  0  0  0  0
    7.7164  -14.6807   24.8328 C   0  0  0  0  0  0  0  0  0  0  0  0
    8.9335  -15.4438   25.1506 C   0  0  2  0  0  0  0  0  0  0  0  0
    9.6793  -15.7607   23.9162 N   0  0  0  0  0  0  0  0  0  0  0  0
    8.8724  -16.6249   25.9835 C   0  0  0  0  0  0  0  0  0  0  0  0
    9.2494  -17.9108   25.6604 O   0  0  0  0  0  0  0  0  0  0  0  0
    8.4105  -16.5024   27.1776 O   0  0  0  0  0  0  0  0  0  0  0  0
  2  1  1  0
  3  2  2  0
  4  3  1  0
  5  4  2  0
  5 11  1  0
  6  5  1  0
  7  6  1  0
  7  9  1  0
  7  8  1  1
  9 10  2  0
 11 12  2  0
 12  2  1  0
 13 14  1  0
 14 15  2  0
 16 17  1  0
 16 14  1  0
 18 17  1  1
 19 18  1  0
 19  9  1  0
 20 18  1  0
 20 21  2  0
 23 22  1  0
 23 24  1  0
 24 25  1  0
 26 25  1  6
 26 27  1  0
 26 28  1  0
 27 20  1  0
 28 30  2  0
 28 29  1  0
M  END
$$$$
