YQM.pdb
     RDKit          3D

 30 30  0  0  1  0  0  0  0  0999 V2000
    7.8007  -12.3219   16.7987 O   0  0  0  0  0  0  0  0  0  0  0  0
    7.7665  -13.0144   18.0227 C   0  0  0  0  0  0  0  0  0  0  0  0
    6.9421  -14.1040   18.1782 C   0  0  0  0  0  0  0  0  0  0  0  0
    6.9241  -14.7781   19.4047 C   0  0  0  0  0  0  0  0  0  0  0  0
    7.7191  -14.3647   20.4531 C   0  0  0  0  0  0  0  0  0  0  0  0
    7.6843  -15.0891   21.7405 C   0  0  0  0  0  0  0  0  0  0  0  0
    8.7555  -16.1601   21.8163 C   0  0  2  0  0  0  0  0  0  0  0  0
    8.5878  -17.1017   20.6897 N   0  0  0  0  0  0  0  0  0  0  0  0
    8.7237  -16.8594   23.0980 C   0  0  0  0  0  0  0  0  0  0  0  0
    8.0160  -17.8805   23.3528 O   0  0  0  0  0  0  0  0  0  0  0  0
    8.5313  -13.2742   20.2672 C   0  0  0  0  0  0  0  0  0  0  0  0
    8.5679  -12.5829   19.0514 C   0  0  0  0  0  0  0  0  0  0  0  0
   12.4547  -20.2261   23.0337 N   0  0  0  0  0  0  0  0  0  0  0  0
   12.9648  -18.8979   23.1394 C   0  0  0  0  0  0  0  0  0  0  0  0
   14.1470  -18.6973   22.8323 O   0  0  0  0  0  0  0  0  0  0  0  0
   12.0735  -17.8541   23.6053 C   0  0  0  0  0  0  0  0  0  0  0  0
   11.0723  -18.3207   24.6143 C   0  0  0  0  0  0  0  0  0  0  0  0
   10.1319  -17.2667   25.1360 C   0  0  2  0  0  0  0  0  0  0  0  0
    9.5281  -16.4158   24.1925 N   0  0  0  0  0  0  0  0  0  0  0  0
   10.8858  -16.5465   26.2062 C   0  0  0  0  0  0  0  0  0  0  0  0
   11.5738  -17.2466   26.9848 O   0  0  0  0  0  0  0  0  0  0  0  0
    5.5453  -12.2525   26.8375 C   0  0  0  0  0  0  0  0  0  0  0  0
    7.3460  -11.9244   26.8039 S   0  0  0  0  0  0  0  0  0  0  0  0
    8.2846  -13.3925   27.1679 C   0  0  0  0  0  0  0  0  0  0  0  0
    9.7409  -13.2497   27.3564 C   0  0  0  0  0  0  0  0  0  0  0  0
   10.4995  -14.4765   27.6465 C   0  0  2  0  0  0  0  0  0  0  0  0
   10.8733  -15.1594   26.3918 N   0  0  0  0  0  0  0  0  0  0  0  0
    9.9975  -15.4546   28.5866 C   0  0  0  0  0  0  0  0  0  0  0  0
   10.1959  -15.5002   29.9499 O   0  0  0  0  0  0  0  0  0  0  0  0
    9.2777  -16.4191   28.1328 O   0  0  0  0  0  0  0  0  0  0  0  0
  2  1  1  0
  3  2  2  0
  4  3  1  0
  5  4  2  0
  5 11  1  0
  6  5  1  0
  7  6  1  0
  7  9  1  0
  7  8  1  6
  9 10  2  0
 11 12  2  0
 12  2  1  0
 13 14  1  0
 14 15  2  0
 16 17  1  0
 16 14  1  0
 18 17  1  6
 19 18  1  0
 19  9  1  0
 20 18  1  0
 20 21  2  0
 23 22  1  0
 23 24  1  0
 24 25  1  0
 26 25  1  6
 26 27  1  0
 26 28  1  0
 27 20  1  0
 28 30  2  0
 28 29  1  0
M  END
$$$$
