YQM.pdb
     RDKit          3D

 30 30  0  0  1  0  0  0  0  0999 V2000
   11.1156  -15.3521   29.5333 O   0  0  0  0  0  0  0  0  0  0  0  0
   10.1219  -16.1729   28.9696 C   0  0  0  0  0  0  0  0  0  0  0  0
   10.0325  -17.4971   29.3291 C   0  0  0  0  0  0  0  0  0  0  0  0
    9.0360  -18.2955   28.7557 C   0  0  0  0  0  0  0  0  0  0  0  0
    8.1478  -17.7723   27.8395 C   0  0  0  0  0  0  0  0  0  0  0  0
    7.1039  -18.6322   27.2444 C   0  0  0  0  0  0  0  0  0  0  0  0
    7.6943  -19.6887   26.3304 C   0  0  2  0  0  0  0  0  0  0  0  0
    8.5909  -20.5667   27.1111 N   0  0  0  0  0  0  0  0  0  0  0  0
    8.3972  -19.0872   25.2005 C   0  0  0  0  0  0  0  0  0  0  0  0
    9.6564  -18.9693   25.1057 O   0  0  0  0  0  0  0  0  0  0  0  0
    8.2623  -16.4472   27.5010 C   0  0  0  0  0  0  0  0  0  0  0  0
    9.2494  -15.6279   28.0594 C   0  0  0  0  0  0  0  0  0  0  0  0
    5.8291  -17.1463   19.6040 N   0  0  0  0  0  0  0  0  0  0  0  0
    7.2156  -16.8412   19.4630 C   0  0  0  0  0  0  0  0  0  0  0  0
    7.6088  -16.3837   18.3821 O   0  0  0  0  0  0  0  0  0  0  0  0
    8.0919  -17.0873   20.5911 C   0  0  0  0  0  0  0  0  0  0  0  0
    7.3897  -17.6354   21.7931 C   0  0  0  0  0  0  0  0  0  0  0  0
    8.2598  -17.8983   22.9936 C   0  0  2  0  0  0  0  0  0  0  0  0
    7.6744  -18.5735   24.0800 N   0  0  0  0  0  0  0  0  0  0  0  0
    8.8612  -16.5787   23.3536 C   0  0  0  0  0  0  0  0  0  0  0  0
    8.0803  -15.6022   23.4330 O   0  0  0  0  0  0  0  0  0  0  0  0
    7.6023  -11.2983   24.9449 C   0  0  0  0  0  0  0  0  0  0  0  0
    7.8122  -12.9048   25.7971 S   0  0  0  0  0  0  0  0  0  0  0  0
    8.6269  -14.0960   24.7548 C   0  0  0  0  0  0  0  0  0  0  0  0
   10.0181  -14.4611   25.0833 C   0  0  0  0  0  0  0  0  0  0  0  0
   10.8164  -15.0783   24.0125 C   0  0  2  0  0  0  0  0  0  0  0  0
   10.2216  -16.3667   23.6044 N   0  0  0  0  0  0  0  0  0  0  0  0
   12.2470  -15.2405   24.1529 C   0  0  0  0  0  0  0  0  0  0  0  0
   13.2118  -14.2569   24.1950 O   0  0  0  0  0  0  0  0  0  0  0  0
   12.7161  -16.4342   24.2478 O   0  0  0  0  0  0  0  0  0  0  0  0
  2  1  1  0
  3  2  2  0
  4  3  1  0
  5  4  2  0
  5 11  1  0
  6  5  1  0
  7  6  1  0
  7  9  1  0
  7  8  1  1
  9 10  2  0
 11 12  2  0
 12  2  1  0
 13 14  1  0
 14 15  2  0
 16 17  1  0
 16 14  1  0
 18 17  1  6
 19 18  1  0
 19  9  1  0
 20 18  1  0
 20 21  2  0
 23 22  1  0
 23 24  1  0
 24 25  1  0
 26 25  1  1
 26 27  1  0
 26 28  1  0
 27 20  1  0
 28 30  2  0
 28 29  1  0
M  END
$$$$
