YQM.pdb
     RDKit          3D

 30 30  0  0  1  0  0  0  0  0999 V2000
    8.4402  -12.9029   16.4704 O   0  0  0  0  0  0  0  0  0  0  0  0
    8.2343  -13.3987   17.7706 C   0  0  0  0  0  0  0  0  0  0  0  0
    8.9348  -14.4971   18.2110 C   0  0  0  0  0  0  0  0  0  0  0  0
    8.7142  -14.9734   19.5086 C   0  0  0  0  0  0  0  0  0  0  0  0
    7.8076  -14.3575   20.3457 C   0  0  0  0  0  0  0  0  0  0  0  0
    7.5880  -14.8768   21.7115 C   0  0  0  0  0  0  0  0  0  0  0  0
    6.9758  -16.2644   21.6976 C   0  0  2  0  0  0  0  0  0  0  0  0
    5.6072  -16.1908   21.1448 N   0  0  0  0  0  0  0  0  0  0  0  0
    6.9755  -16.8629   23.0297 C   0  0  0  0  0  0  0  0  0  0  0  0
    6.2872  -16.4518   24.0124 O   0  0  0  0  0  0  0  0  0  0  0  0
    7.1241  -13.2634   19.8776 C   0  0  0  0  0  0  0  0  0  0  0  0
    7.3260  -12.7675   18.5850 C   0  0  0  0  0  0  0  0  0  0  0  0
    7.7367  -22.9703   25.7033 N   0  0  0  0  0  0  0  0  0  0  0  0
    7.9155  -22.3040   24.4545 C   0  0  0  0  0  0  0  0  0  0  0  0
    8.4550  -22.9254   23.5298 O   0  0  0  0  0  0  0  0  0  0  0  0
    7.4605  -20.9330   24.3355 C   0  0  0  0  0  0  0  0  0  0  0  0
    8.4824  -19.9198   24.7447 C   0  0  0  0  0  0  0  0  0  0  0  0
    8.0625  -18.4797   24.6131 C   0  0  2  0  0  0  0  0  0  0  0  0
    7.7871  -18.0030   23.3186 N   0  0  0  0  0  0  0  0  0  0  0  0
    9.0991  -17.6883   25.3422 C   0  0  0  0  0  0  0  0  0  0  0  0
   10.0529  -17.2415   24.6638 O   0  0  0  0  0  0  0  0  0  0  0  0
    7.7210  -12.5802   28.1973 C   0  0  0  0  0  0  0  0  0  0  0  0
    9.4102  -12.7017   28.8923 S   0  0  0  0  0  0  0  0  0  0  0  0
   10.1501  -14.2818   28.5388 C   0  0  0  0  0  0  0  0  0  0  0  0
    9.3708  -15.2429   27.7352 C   0  0  0  0  0  0  0  0  0  0  0  0
   10.0163  -16.5270   27.4203 C   0  0  2  0  0  0  0  0  0  0  0  0
    9.0732  -17.4177   26.7151 N   0  0  0  0  0  0  0  0  0  0  0  0
   10.7053  -17.2819   28.4440 C   0  0  0  0  0  0  0  0  0  0  0  0
   11.9139  -16.9940   29.0411 O   0  0  0  0  0  0  0  0  0  0  0  0
   10.1579  -18.3641   28.8722 O   0  0  0  0  0  0  0  0  0  0  0  0
  2  1  1  0
  3  2  2  0
  4  3  1  0
  5  4  2  0
  5 11  1  0
  6  5  1  0
  7  6  1  0
  7  9  1  0
  7  8  1  1
  9 10  2  0
 11 12  2  0
 12  2  1  0
 13 14  1  0
 14 15  2  0
 16 17  1  0
 16 14  1  0
 18 17  1  6
 19 18  1  0
 19  9  1  0
 20 18  1  0
 20 21  2  0
 23 22  1  0
 23 24  1  0
 24 25  1  0
 26 25  1  1
 26 27  1  0
 26 28  1  0
 27 20  1  0
 28 30  2  0
 28 29  1  0
M  END
$$$$
