YQM.pdb
     RDKit          3D

 30 30  0  0  1  0  0  0  0  0999 V2000
    7.4457  -11.9594   16.8328 O   0  0  0  0  0  0  0  0  0  0  0  0
    7.6146  -12.7996   17.9484 C   0  0  0  0  0  0  0  0  0  0  0  0
    8.5707  -12.5104   18.8935 C   0  0  0  0  0  0  0  0  0  0  0  0
    8.7214  -13.3601   19.9956 C   0  0  0  0  0  0  0  0  0  0  0  0
    7.9268  -14.4776   20.1436 C   0  0  0  0  0  0  0  0  0  0  0  0
    8.1029  -15.3629   21.3135 C   0  0  0  0  0  0  0  0  0  0  0  0
    9.2557  -16.3299   21.1229 C   0  0  2  0  0  0  0  0  0  0  0  0
    9.0165  -17.1457   19.9141 N   0  0  0  0  0  0  0  0  0  0  0  0
    9.4472  -17.1733   22.2996 C   0  0  0  0  0  0  0  0  0  0  0  0
    9.0939  -18.3880   22.3898 O   0  0  0  0  0  0  0  0  0  0  0  0
    6.9815  -14.7394   19.1838 C   0  0  0  0  0  0  0  0  0  0  0  0
    6.8106  -13.9063   18.0729 C   0  0  0  0  0  0  0  0  0  0  0  0
   13.4550  -20.2624   22.0635 N   0  0  0  0  0  0  0  0  0  0  0  0
   13.1875  -19.6156   23.3067 C   0  0  0  0  0  0  0  0  0  0  0  0
   13.7893  -20.0092   24.3142 O   0  0  0  0  0  0  0  0  0  0  0  0
   12.2219  -18.5348   23.3256 C   0  0  0  0  0  0  0  0  0  0  0  0
   11.2708  -18.5947   24.4788 C   0  0  0  0  0  0  0  0  0  0  0  0
   10.3522  -17.4110   24.6292 C   0  0  2  0  0  0  0  0  0  0  0  0
   10.0762  -16.6570   23.4742 N   0  0  0  0  0  0  0  0  0  0  0  0
   10.9103  -16.6073   25.7583 C   0  0  0  0  0  0  0  0  0  0  0  0
   12.0049  -16.0316   25.5582 O   0  0  0  0  0  0  0  0  0  0  0  0
    6.5607  -12.8638   26.2060 C   0  0  0  0  0  0  0  0  0  0  0  0
    7.5719  -12.0499   27.4968 S   0  0  0  0  0  0  0  0  0  0  0  0
    8.8772  -13.1146   28.0725 C   0  0  0  0  0  0  0  0  0  0  0  0
    9.1007  -14.3820   27.3512 C   0  0  0  0  0  0  0  0  0  0  0  0
   10.2452  -15.2009   27.7803 C   0  0  2  0  0  0  0  0  0  0  0  0
   10.2971  -16.4581   27.0074 N   0  0  0  0  0  0  0  0  0  0  0  0
   10.4636  -15.4959   29.1796 C   0  0  0  0  0  0  0  0  0  0  0  0
   10.8125  -14.6212   30.1861 O   0  0  0  0  0  0  0  0  0  0  0  0
   10.3305  -16.7137   29.5712 O   0  0  0  0  0  0  0  0  0  0  0  0
  2  1  1  0
  3  2  2  0
  4  3  1  0
  5  4  2  0
  5 11  1  0
  6  5  1  0
  7  6  1  0
  7  9  1  0
  7  8  1  6
  9 10  2  0
 11 12  2  0
 12  2  1  0
 13 14  1  0
 14 15  2  0
 16 17  1  0
 16 14  1  0
 18 17  1  6
 19 18  1  0
 19  9  1  0
 20 18  1  0
 20 21  2  0
 23 22  1  0
 23 24  1  0
 24 25  1  0
 26 25  1  1
 26 27  1  0
 26 28  1  0
 27 20  1  0
 28 30  2  0
 28 29  1  0
M  END
$$$$
