YQM.pdb
     RDKit          3D

 30 30  0  0  1  0  0  0  0  0999 V2000
    0.0557  -20.4890   20.9667 O   0  0  0  0  0  0  0  0  0  0  0  0
    1.3070  -19.9350   21.2926 C   0  0  0  0  0  0  0  0  0  0  0  0
    1.8491  -20.1369   22.5401 C   0  0  0  0  0  0  0  0  0  0  0  0
    3.0955  -19.5763   22.8428 C   0  0  0  0  0  0  0  0  0  0  0  0
    3.7821  -18.8281   21.9097 C   0  0  0  0  0  0  0  0  0  0  0  0
    5.0960  -18.2434   22.2495 C   0  0  0  0  0  0  0  0  0  0  0  0
    6.1516  -18.5845   21.2153 C   0  0  2  0  0  0  0  0  0  0  0  0
    6.3900  -20.0430   21.2208 N   0  0  0  0  0  0  0  0  0  0  0  0
    7.3896  -17.8464   21.4501 C   0  0  0  0  0  0  0  0  0  0  0  0
    8.4039  -18.3016   22.0602 O   0  0  0  0  0  0  0  0  0  0  0  0
    3.2152  -18.6443   20.6735 C   0  0  0  0  0  0  0  0  0  0  0  0
    1.9709  -19.1937   20.3458 C   0  0  0  0  0  0  0  0  0  0  0  0
    8.7209  -12.0673   19.0189 N   0  0  0  0  0  0  0  0  0  0  0  0
    8.4052  -13.2369   18.2653 C   0  0  0  0  0  0  0  0  0  0  0  0
    8.0950  -13.1016   17.0746 O   0  0  0  0  0  0  0  0  0  0  0  0
    8.4597  -14.5215   18.9345 C   0  0  0  0  0  0  0  0  0  0  0  0
    8.7804  -14.4297   20.3929 C   0  0  0  0  0  0  0  0  0  0  0  0
    8.6946  -15.7211   21.1624 C   0  0  2  0  0  0  0  0  0  0  0  0
    7.5403  -16.5046   20.9823 N   0  0  0  0  0  0  0  0  0  0  0  0
    8.9664  -15.3615   22.5869 C   0  0  0  0  0  0  0  0  0  0  0  0
   10.0658  -14.8139   22.8340 O   0  0  0  0  0  0  0  0  0  0  0  0
    7.7639  -10.6046   26.4745 C   0  0  0  0  0  0  0  0  0  0  0  0
    6.8558  -12.0670   27.0971 S   0  0  0  0  0  0  0  0  0  0  0  0
    7.7510  -13.5737   26.7852 C   0  0  0  0  0  0  0  0  0  0  0  0
    7.3594  -14.3770   25.6112 C   0  0  0  0  0  0  0  0  0  0  0  0
    8.3689  -15.2982   25.0664 C   0  0  2  0  0  0  0  0  0  0  0  0
    8.0839  -15.5937   23.6480 N   0  0  0  0  0  0  0  0  0  0  0  0
    8.6955  -16.5302   25.7505 C   0  0  0  0  0  0  0  0  0  0  0  0
    9.4054  -16.6874   26.9215 O   0  0  0  0  0  0  0  0  0  0  0  0
    8.2966  -17.6371   25.2310 O   0  0  0  0  0  0  0  0  0  0  0  0
  2  1  1  0
  3  2  2  0
  4  3  1  0
  5  4  2  0
  5 11  1  0
  6  5  1  0
  7  6  1  0
  7  9  1  0
  7  8  1  1
  9 10  2  0
 11 12  2  0
 12  2  1  0
 13 14  1  0
 14 15  2  0
 16 17  1  0
 16 14  1  0
 18 17  1  6
 19 18  1  0
 19  9  1  0
 20 18  1  0
 20 21  2  0
 23 22  1  0
 23 24  1  0
 24 25  1  0
 26 25  1  1
 26 27  1  0
 26 28  1  0
 27 20  1  0
 28 30  2  0
 28 29  1  0
M  END
$$$$
