DPH.pdb
     RDKit          3D

 26 27  0  0  1  0  0  0  0  0999 V2000
   11.0402  -14.8868   15.8765 N   0  0  0  0  0  0  0  0  0  0  0  0
    9.8709  -15.0804   16.6359 C   0  0  1  0  0  0  0  0  0  0  0  0
    9.3866  -16.5091   16.3000 C   0  0  0  0  0  0  0  0  0  0  0  0
    9.1707  -16.6054   14.8121 C   0  0  0  0  0  0  0  0  0  0  0  0
    8.0067  -16.4946   14.3524 O   0  0  0  0  0  0  0  0  0  0  0  0
    9.9495  -14.9171   18.0898 C   0  0  0  0  0  0  0  0  0  0  0  0
   10.8157  -15.6804   18.6570 O   0  0  0  0  0  0  0  0  0  0  0  0
   10.1994  -16.8101   13.9348 O   0  0  0  0  0  0  0  0  0  0  0  0
    9.2165  -14.0563   18.8988 N   0  0  0  0  0  0  0  0  0  0  0  0
    8.7222  -12.7395   18.5326 C   0  0  0  0  0  0  0  0  0  0  0  0
    7.2350  -12.9158   18.8760 C   0  0  0  0  0  0  0  0  0  0  0  0
    7.1878  -14.0888   19.8809 C   0  0  0  0  0  0  0  0  0  0  0  0
    8.6488  -14.1634   20.2244 C   0  0  1  0  0  0  0  0  0  0  0  0
    9.0330  -15.2105   21.1074 C   0  0  0  0  0  0  0  0  0  0  0  0
    8.3534  -16.3095   21.0442 O   0  0  0  0  0  0  0  0  0  0  0  0
   10.0542  -15.2693   22.0780 N   0  0  0  0  0  0  0  0  0  0  0  0
   10.4286  -16.4649   22.8014 C   0  0  1  0  0  0  0  0  0  0  0  0
   11.5410  -17.2387   22.1743 C   0  0  0  0  0  0  0  0  0  0  0  0
   12.7489  -16.4237   21.9025 C   0  0  0  0  0  0  0  0  0  0  0  0
   12.9588  -15.8060   20.6858 C   0  0  0  0  0  0  0  0  0  0  0  0
   14.1091  -15.1479   20.7166 N   0  0  0  0  0  0  0  0  0  0  0  0
   14.6206  -15.3479   21.9405 C   0  0  0  0  0  0  0  0  0  0  0  0
   13.7956  -16.1240   22.6653 N   0  0  0  0  0  0  0  0  0  0  0  0
   10.8567  -16.0695   24.1709 C   0  0  0  0  0  0  0  0  0  0  0  0
   11.1991  -17.0245   25.1255 O   0  0  0  0  0  0  0  0  0  0  0  0
   10.9316  -14.8673   24.5356 O   0  0  0  0  0  0  0  0  0  0  0  0
  2  1  1  6
  2  3  1  0
  3  4  1  0
  4  8  1  0
  4  5  2  0
  6  2  1  0
  7  6  2  0
  9  6  1  0
  9 13  1  0
 10 11  1  0
 10  9  1  0
 11 12  1  0
 12 13  1  0
 13 14  1  6
 14 15  2  0
 16 14  1  0
 17 16  1  0
 17 24  1  0
 17 18  1  6
 19 23  1  0
 19 18  1  0
 20 19  2  0
 21 20  1  0
 21 22  1  0
 22 23  2  0
 24 25  1  0
 26 24  2  0
M  END
$$$$
