DPH.pdb
     RDKit          3D

 26 27  0  0  1  0  0  0  0  0999 V2000
   10.4496  -16.1833   16.3086 N   0  0  0  0  0  0  0  0  0  0  0  0
    9.3780  -15.7063   17.0869 C   0  0  1  0  0  0  0  0  0  0  0  0
    8.2985  -16.8109   17.0329 C   0  0  0  0  0  0  0  0  0  0  0  0
    8.0760  -17.1948   15.5931 C   0  0  0  0  0  0  0  0  0  0  0  0
    7.9277  -18.4067   15.2970 O   0  0  0  0  0  0  0  0  0  0  0  0
    9.6384  -15.3411   18.4817 C   0  0  0  0  0  0  0  0  0  0  0  0
   10.3788  -16.1816   19.1141 O   0  0  0  0  0  0  0  0  0  0  0  0
    8.0288  -16.2693   14.5877 O   0  0  0  0  0  0  0  0  0  0  0  0
    9.1898  -14.2230   19.1755 N   0  0  0  0  0  0  0  0  0  0  0  0
    9.1127  -12.8644   18.6652 C   0  0  0  0  0  0  0  0  0  0  0  0
    7.6382  -12.5564   18.9684 C   0  0  0  0  0  0  0  0  0  0  0  0
    7.2369  -13.5523   20.0799 C   0  0  0  0  0  0  0  0  0  0  0  0
    8.6071  -14.0194   20.4832 C   0  0  1  0  0  0  0  0  0  0  0  0
    8.6560  -15.0358   21.4772 C   0  0  0  0  0  0  0  0  0  0  0  0
    7.6249  -15.8112   21.5740 O   0  0  0  0  0  0  0  0  0  0  0  0
    9.6584  -15.3612   22.4140 N   0  0  0  0  0  0  0  0  0  0  0  0
    9.5966  -16.4852   23.3226 C   0  0  1  0  0  0  0  0  0  0  0  0
    9.4689  -17.8120   22.6499 C   0  0  0  0  0  0  0  0  0  0  0  0
   10.7050  -18.2449   21.9558 C   0  0  0  0  0  0  0  0  0  0  0  0
   11.6060  -17.3410   21.4293 C   0  0  0  0  0  0  0  0  0  0  0  0
   12.6131  -17.9959   20.8690 N   0  0  0  0  0  0  0  0  0  0  0  0
   12.3510  -19.3003   21.0399 C   0  0  0  0  0  0  0  0  0  0  0  0
   11.1905  -19.4560   21.7010 N   0  0  0  0  0  0  0  0  0  0  0  0
   10.8423  -16.4991   24.1369 C   0  0  0  0  0  0  0  0  0  0  0  0
   11.0346  -17.4372   25.1486 O   0  0  0  0  0  0  0  0  0  0  0  0
   11.7767  -15.6751   23.9579 O   0  0  0  0  0  0  0  0  0  0  0  0
  2  1  1  1
  2  3  1  0
  3  4  1  0
  4  8  1  0
  4  5  2  0
  6  2  1  0
  7  6  2  0
  9  6  1  0
  9 13  1  0
 10 11  1  0
 10  9  1  0
 11 12  1  0
 12 13  1  0
 13 14  1  1
 14 15  2  0
 16 14  1  0
 17 16  1  0
 17 24  1  0
 17 18  1  6
 19 23  1  0
 19 18  1  0
 20 19  2  0
 21 20  1  0
 21 22  1  0
 22 23  2  0
 24 25  1  0
 26 24  2  0
M  END
$$$$
