DPH.pdb
     RDKit          3D

 26 27  0  0  1  0  0  0  0  0999 V2000
   10.4531  -16.6613   18.5732 N   0  0  0  0  0  0  0  0  0  0  0  0
    9.5362  -16.8793   19.6189 C   0  0  1  0  0  0  0  0  0  0  0  0
    9.4371  -18.4138   19.7742 C   0  0  0  0  0  0  0  0  0  0  0  0
    9.2671  -19.0247   18.4076 C   0  0  0  0  0  0  0  0  0  0  0  0
   10.2837  -19.2459   17.7034 O   0  0  0  0  0  0  0  0  0  0  0  0
    9.8090  -16.2698   20.9230 C   0  0  0  0  0  0  0  0  0  0  0  0
   10.9823  -16.5236   21.3852 O   0  0  0  0  0  0  0  0  0  0  0  0
    8.0404  -19.3506   17.8989 O   0  0  0  0  0  0  0  0  0  0  0  0
    8.9687  -15.4725   21.6917 N   0  0  0  0  0  0  0  0  0  0  0  0
    8.1476  -14.3726   21.2138 C   0  0  0  0  0  0  0  0  0  0  0  0
    6.7802  -14.8136   21.7584 C   0  0  0  0  0  0  0  0  0  0  0  0
    7.1000  -15.7916   22.9114 C   0  0  0  0  0  0  0  0  0  0  0  0
    8.5620  -15.4875   23.0793 C   0  0  1  0  0  0  0  0  0  0  0  0
    9.2588  -16.2693   24.0421 C   0  0  0  0  0  0  0  0  0  0  0  0
    9.4030  -17.5283   23.7817 O   0  0  0  0  0  0  0  0  0  0  0  0
    9.8382  -15.9096   25.2764 N   0  0  0  0  0  0  0  0  0  0  0  0
   10.6784  -16.7788   26.0709 C   0  0  1  0  0  0  0  0  0  0  0  0
   11.5289  -16.0654   27.0695 C   0  0  0  0  0  0  0  0  0  0  0  0
   10.7607  -15.1766   27.9734 C   0  0  0  0  0  0  0  0  0  0  0  0
   10.6750  -15.4081   29.3318 C   0  0  0  0  0  0  0  0  0  0  0  0
    9.9317  -14.4661   29.8949 N   0  0  0  0  0  0  0  0  0  0  0  0
    9.5517  -13.6476   28.9022 C   0  0  0  0  0  0  0  0  0  0  0  0
   10.0543  -14.0768   27.7312 N   0  0  0  0  0  0  0  0  0  0  0  0
    9.8039  -17.7318   26.8070 C   0  0  0  0  0  0  0  0  0  0  0  0
   10.3409  -18.7857   27.5428 O   0  0  0  0  0  0  0  0  0  0  0  0
    8.5488  -17.6384   26.8046 O   0  0  0  0  0  0  0  0  0  0  0  0
  2  1  1  6
  2  3  1  0
  3  4  1  0
  4  8  1  0
  4  5  2  0
  6  2  1  0
  7  6  2  0
  9  6  1  0
  9 13  1  0
 10 11  1  0
 10  9  1  0
 11 12  1  0
 12 13  1  0
 13 14  1  1
 14 15  2  0
 16 14  1  0
 17 16  1  0
 17 24  1  0
 17 18  1  1
 19 23  1  0
 19 18  1  0
 20 19  2  0
 21 20  1  0
 21 22  1  0
 22 23  2  0
 24 25  1  0
 26 24  2  0
M  END
$$$$
