DPH.pdb
     RDKit          3D

 26 27  0  0  1  0  0  0  0  0999 V2000
    9.6654  -14.8665   15.7739 N   0  0  0  0  0  0  0  0  0  0  0  0
    9.5261  -15.9772   16.6274 C   0  0  1  0  0  0  0  0  0  0  0  0
   10.7113  -16.9114   16.2940 C   0  0  0  0  0  0  0  0  0  0  0  0
   10.6345  -17.2826   14.8359 C   0  0  0  0  0  0  0  0  0  0  0  0
   11.0468  -16.4682   13.9727 O   0  0  0  0  0  0  0  0  0  0  0  0
    9.4761  -15.7432   18.0729 C   0  0  0  0  0  0  0  0  0  0  0  0
    9.8092  -16.7641   18.7810 O   0  0  0  0  0  0  0  0  0  0  0  0
   10.1298  -18.4804   14.4111 O   0  0  0  0  0  0  0  0  0  0  0  0
    9.1213  -14.5780   18.7432 N   0  0  0  0  0  0  0  0  0  0  0  0
    9.2792  -13.2188   18.2536 C   0  0  0  0  0  0  0  0  0  0  0  0
    7.8387  -12.7121   18.4247 C   0  0  0  0  0  0  0  0  0  0  0  0
    7.2020  -13.6497   19.4753 C   0  0  0  0  0  0  0  0  0  0  0  0
    8.4512  -14.3038   19.9949 C   0  0  1  0  0  0  0  0  0  0  0  0
    8.2666  -15.3231   20.9698 C   0  0  0  0  0  0  0  0  0  0  0  0
    7.5623  -16.3498   20.6183 O   0  0  0  0  0  0  0  0  0  0  0  0
    8.7242  -15.4197   22.3001 N   0  0  0  0  0  0  0  0  0  0  0  0
    9.7075  -16.3758   22.7605 C   0  0  1  0  0  0  0  0  0  0  0  0
   11.0524  -16.2254   22.1296 C   0  0  0  0  0  0  0  0  0  0  0  0
   12.0247  -17.2601   22.5552 C   0  0  0  0  0  0  0  0  0  0  0  0
   11.7013  -18.2366   23.4761 C   0  0  0  0  0  0  0  0  0  0  0  0
   12.7491  -19.0245   23.6715 N   0  0  0  0  0  0  0  0  0  0  0  0
   13.7247  -18.5506   22.8821 C   0  0  0  0  0  0  0  0  0  0  0  0
   13.2876  -17.4767   22.2010 N   0  0  0  0  0  0  0  0  0  0  0  0
    9.8672  -16.2128   24.2312 C   0  0  0  0  0  0  0  0  0  0  0  0
    9.8481  -17.3118   25.0870 O   0  0  0  0  0  0  0  0  0  0  0  0
   10.0261  -15.0884   24.7739 O   0  0  0  0  0  0  0  0  0  0  0  0
  2  1  1  6
  2  3  1  0
  3  4  1  0
  4  8  1  0
  4  5  2  0
  6  2  1  0
  7  6  2  0
  9  6  1  0
  9 13  1  0
 10 11  1  0
 10  9  1  0
 11 12  1  0
 12 13  1  0
 13 14  1  6
 14 15  2  0
 16 14  1  0
 17 16  1  0
 17 24  1  0
 17 18  1  6
 19 23  1  0
 19 18  1  0
 20 19  2  0
 21 20  1  0
 21 22  1  0
 22 23  2  0
 24 25  1  0
 26 24  2  0
M  END
$$$$
