DPH.pdb
     RDKit          3D

 26 27  0  0  1  0  0  0  0  0999 V2000
    9.3772  -14.9271   15.2958 N   0  0  0  0  0  0  0  0  0  0  0  0
    8.6566  -15.5890   16.3078 C   0  0  1  0  0  0  0  0  0  0  0  0
    8.6619  -17.0837   15.9150 C   0  0  0  0  0  0  0  0  0  0  0  0
    7.7741  -17.8349   16.8728 C   0  0  0  0  0  0  0  0  0  0  0  0
    7.7326  -17.4806   18.0775 O   0  0  0  0  0  0  0  0  0  0  0  0
    9.1086  -15.4434   17.6939 C   0  0  0  0  0  0  0  0  0  0  0  0
    9.7040  -16.4826   18.1630 O   0  0  0  0  0  0  0  0  0  0  0  0
    7.0055  -18.8954   16.4801 O   0  0  0  0  0  0  0  0  0  0  0  0
    8.9712  -14.3424   18.5315 N   0  0  0  0  0  0  0  0  0  0  0  0
    8.6863  -12.9772   18.1225 C   0  0  0  0  0  0  0  0  0  0  0  0
    7.4576  -12.6940   19.0006 C   0  0  0  0  0  0  0  0  0  0  0  0
    7.5451  -13.7123   20.1596 C   0  0  0  0  0  0  0  0  0  0  0  0
    8.9644  -14.1670   19.9669 C   0  0  1  0  0  0  0  0  0  0  0  0
    9.4165  -15.1980   20.8366 C   0  0  0  0  0  0  0  0  0  0  0  0
    8.7269  -16.2924   20.8564 O   0  0  0  0  0  0  0  0  0  0  0  0
   10.5170  -15.2443   21.7169 N   0  0  0  0  0  0  0  0  0  0  0  0
   10.8670  -16.3878   22.5311 C   0  0  1  0  0  0  0  0  0  0  0  0
   12.3328  -16.6617   22.6069 C   0  0  0  0  0  0  0  0  0  0  0  0
   12.6832  -17.7518   23.5482 C   0  0  0  0  0  0  0  0  0  0  0  0
   12.4126  -17.6696   24.8996 C   0  0  0  0  0  0  0  0  0  0  0  0
   12.8284  -18.7749   25.5018 N   0  0  0  0  0  0  0  0  0  0  0  0
   13.3562  -19.5475   24.5405 C   0  0  0  0  0  0  0  0  0  0  0  0
   13.2697  -18.9282   23.3500 N   0  0  0  0  0  0  0  0  0  0  0  0
   10.3705  -16.1488   23.9135 C   0  0  0  0  0  0  0  0  0  0  0  0
   10.2950  -17.1829   24.8438 O   0  0  0  0  0  0  0  0  0  0  0  0
    9.9969  -15.0148   24.3115 O   0  0  0  0  0  0  0  0  0  0  0  0
  2  1  1  6
  2  3  1  0
  3  4  1  0
  4  8  1  0
  4  5  2  0
  6  2  1  0
  7  6  2  0
  9  6  1  0
  9 13  1  0
 10 11  1  0
 10  9  1  0
 11 12  1  0
 12 13  1  0
 13 14  1  1
 14 15  2  0
 16 14  1  0
 17 16  1  0
 17 24  1  0
 17 18  1  1
 19 23  1  0
 19 18  1  0
 20 19  2  0
 21 20  1  0
 21 22  1  0
 22 23  2  0
 24 25  1  0
 26 24  2  0
M  END
$$$$
