DPH.pdb
     RDKit          3D

 26 27  0  0  1  0  0  0  0  0999 V2000
    9.9819  -15.6567   15.1440 N   0  0  0  0  0  0  0  0  0  0  0  0
    9.0577  -15.6760   16.2057 C   0  0  1  0  0  0  0  0  0  0  0  0
    8.5044  -17.1183   16.2516 C   0  0  0  0  0  0  0  0  0  0  0  0
    8.0158  -17.4890   14.8755 C   0  0  0  0  0  0  0  0  0  0  0  0
    6.8738  -17.1155   14.5084 O   0  0  0  0  0  0  0  0  0  0  0  0
    9.5206  -15.2844   17.5395 C   0  0  0  0  0  0  0  0  0  0  0  0
   10.5087  -15.9820   17.9772 O   0  0  0  0  0  0  0  0  0  0  0  0
    8.7718  -18.2218   14.0030 O   0  0  0  0  0  0  0  0  0  0  0  0
    9.0277  -14.2748   18.3582 N   0  0  0  0  0  0  0  0  0  0  0  0
    8.5901  -12.9556   17.9332 C   0  0  0  0  0  0  0  0  0  0  0  0
    7.1826  -12.9379   18.5494 C   0  0  0  0  0  0  0  0  0  0  0  0
    7.2209  -13.9942   19.6767 C   0  0  0  0  0  0  0  0  0  0  0  0
    8.7083  -14.1893   19.7660 C   0  0  1  0  0  0  0  0  0  0  0  0
    9.1573  -15.1788   20.6841 C   0  0  0  0  0  0  0  0  0  0  0  0
    8.7400  -16.3883   20.4927 O   0  0  0  0  0  0  0  0  0  0  0  0
   10.0014  -15.0769   21.8090 N   0  0  0  0  0  0  0  0  0  0  0  0
   10.3673  -16.1869   22.6616 C   0  0  1  0  0  0  0  0  0  0  0  0
   11.7024  -16.0449   23.3150 C   0  0  0  0  0  0  0  0  0  0  0  0
   12.0805  -17.2112   24.1479 C   0  0  0  0  0  0  0  0  0  0  0  0
   11.5053  -18.4543   23.9745 C   0  0  0  0  0  0  0  0  0  0  0  0
   12.0243  -19.3072   24.8464 N   0  0  0  0  0  0  0  0  0  0  0  0
   12.9183  -18.6100   25.5635 C   0  0  0  0  0  0  0  0  0  0  0  0
   12.9554  -17.3338   25.1413 N   0  0  0  0  0  0  0  0  0  0  0  0
    9.3412  -16.3141   23.7320 C   0  0  0  0  0  0  0  0  0  0  0  0
    9.2213  -17.4806   24.4839 O   0  0  0  0  0  0  0  0  0  0  0  0
    8.5372  -15.3872   24.0120 O   0  0  0  0  0  0  0  0  0  0  0  0
  2  1  1  6
  2  3  1  0
  3  4  1  0
  4  8  1  0
  4  5  2  0
  6  2  1  0
  7  6  2  0
  9  6  1  0
  9 13  1  0
 10 11  1  0
 10  9  1  0
 11 12  1  0
 12 13  1  0
 13 14  1  1
 14 15  2  0
 16 14  1  0
 17 16  1  0
 17 24  1  0
 17 18  1  1
 19 23  1  0
 19 18  1  0
 20 19  2  0
 21 20  1  0
 21 22  1  0
 22 23  2  0
 24 25  1  0
 26 24  2  0
M  END
$$$$
