DPH.pdb
     RDKit          3D

 26 27  0  0  1  0  0  0  0  0999 V2000
    8.2516  -13.5931   17.1160 N   0  0  0  0  0  0  0  0  0  0  0  0
    8.8728  -14.7457   17.6328 C   0  0  1  0  0  0  0  0  0  0  0  0
   10.0890  -15.0110   16.7169 C   0  0  0  0  0  0  0  0  0  0  0  0
   10.6670  -16.3582   17.0647 C   0  0  0  0  0  0  0  0  0  0  0  0
   11.8817  -16.5826   16.8352 O   0  0  0  0  0  0  0  0  0  0  0  0
    9.3046  -14.7360   19.0328 C   0  0  0  0  0  0  0  0  0  0  0  0
   10.4791  -15.2252   19.2225 O   0  0  0  0  0  0  0  0  0  0  0  0
    9.9163  -17.3544   17.6248 O   0  0  0  0  0  0  0  0  0  0  0  0
    8.6096  -14.2711   20.1435 N   0  0  0  0  0  0  0  0  0  0  0  0
    7.6875  -13.1482   20.1764 C   0  0  0  0  0  0  0  0  0  0  0  0
    6.4603  -13.8380   20.7922 C   0  0  0  0  0  0  0  0  0  0  0  0
    7.0174  -15.0842   21.5164 C   0  0  0  0  0  0  0  0  0  0  0  0
    8.4772  -14.7278   21.5091 C   0  0  1  0  0  0  0  0  0  0  0  0
    9.3633  -15.7009   22.0490 C   0  0  0  0  0  0  0  0  0  0  0  0
    9.2630  -16.9053   21.5873 O   0  0  0  0  0  0  0  0  0  0  0  0
   10.3647  -15.5890   23.0354 N   0  0  0  0  0  0  0  0  0  0  0  0
   11.2084  -16.6795   23.4735 C   0  0  1  0  0  0  0  0  0  0  0  0
   12.6718  -16.4166   23.3365 C   0  0  0  0  0  0  0  0  0  0  0  0
   13.0917  -16.1174   21.9468 C   0  0  0  0  0  0  0  0  0  0  0  0
   12.9052  -14.8746   21.3753 C   0  0  0  0  0  0  0  0  0  0  0  0
   13.3694  -14.8847   20.1337 N   0  0  0  0  0  0  0  0  0  0  0  0
   13.8444  -16.1215   19.9231 C   0  0  0  0  0  0  0  0  0  0  0  0
   13.6772  -16.8747   21.0244 N   0  0  0  0  0  0  0  0  0  0  0  0
   10.9204  -16.9478   24.9087 C   0  0  0  0  0  0  0  0  0  0  0  0
   11.5345  -17.9992   25.5853 O   0  0  0  0  0  0  0  0  0  0  0  0
   10.1173  -16.2487   25.5798 O   0  0  0  0  0  0  0  0  0  0  0  0
  2  1  1  6
  2  3  1  0
  3  4  1  0
  4  8  1  0
  4  5  2  0
  6  2  1  0
  7  6  2  0
  9  6  1  0
  9 13  1  0
 10 11  1  0
 10  9  1  0
 11 12  1  0
 12 13  1  0
 13 14  1  6
 14 15  2  0
 16 14  1  0
 17 16  1  0
 17 24  1  0
 17 18  1  1
 19 23  1  0
 19 18  1  0
 20 19  2  0
 21 20  1  0
 21 22  1  0
 22 23  2  0
 24 25  1  0
 26 24  2  0
M  END
$$$$
