DPH.pdb
     RDKit          3D

 26 27  0  0  1  0  0  0  0  0999 V2000
    9.4495  -18.8480   19.4601 N   0  0  0  0  0  0  0  0  0  0  0  0
    8.5819  -18.1123   20.2892 C   0  0  1  0  0  0  0  0  0  0  0  0
    8.1437  -19.0876   21.4051 C   0  0  0  0  0  0  0  0  0  0  0  0
    7.8000  -20.4130   20.7766 C   0  0  0  0  0  0  0  0  0  0  0  0
    7.4337  -20.4460   19.5754 O   0  0  0  0  0  0  0  0  0  0  0  0
    9.0772  -16.8704   20.8883 C   0  0  0  0  0  0  0  0  0  0  0  0
   10.2474  -16.9715   21.4125 O   0  0  0  0  0  0  0  0  0  0  0  0
    7.8715  -21.5911   21.4672 O   0  0  0  0  0  0  0  0  0  0  0  0
    8.4443  -15.6341   20.9507 N   0  0  0  0  0  0  0  0  0  0  0  0
    7.5868  -15.0514   19.9321 C   0  0  0  0  0  0  0  0  0  0  0  0
    6.3437  -14.7469   20.7824 C   0  0  0  0  0  0  0  0  0  0  0  0
    6.8541  -14.6904   22.2399 C   0  0  0  0  0  0  0  0  0  0  0  0
    8.3304  -14.6143   21.9695 C   0  0  1  0  0  0  0  0  0  0  0  0
    9.1783  -14.6169   23.1117 C   0  0  0  0  0  0  0  0  0  0  0  0
    9.5710  -13.4659   23.5528 O   0  0  0  0  0  0  0  0  0  0  0  0
    9.6915  -15.6850   23.8760 N   0  0  0  0  0  0  0  0  0  0  0  0
   10.1923  -15.5587   25.2273 C   0  0  1  0  0  0  0  0  0  0  0  0
    9.2083  -14.9907   26.1960 C   0  0  0  0  0  0  0  0  0  0  0  0
    9.7419  -14.8585   27.5726 C   0  0  0  0  0  0  0  0  0  0  0  0
   11.0567  -14.5179   27.8205 C   0  0  0  0  0  0  0  0  0  0  0  0
   11.2620  -14.4707   29.1292 N   0  0  0  0  0  0  0  0  0  0  0  0
   10.0888  -14.7784   29.7022 C   0  0  0  0  0  0  0  0  0  0  0  0
    9.1611  -15.0152   28.7581 N   0  0  0  0  0  0  0  0  0  0  0  0
   10.5865  -16.9103   25.7096 C   0  0  0  0  0  0  0  0  0  0  0  0
   11.3620  -17.0717   26.8554 O   0  0  0  0  0  0  0  0  0  0  0  0
   10.2452  -17.9665   25.1162 O   0  0  0  0  0  0  0  0  0  0  0  0
  2  1  1  1
  2  3  1  0
  3  4  1  0
  4  8  1  0
  4  5  2  0
  6  2  1  0
  7  6  2  0
  9  6  1  0
  9 13  1  0
 10 11  1  0
 10  9  1  0
 11 12  1  0
 12 13  1  0
 13 14  1  1
 14 15  2  0
 16 14  1  0
 17 16  1  0
 17 24  1  0
 17 18  1  1
 19 23  1  0
 19 18  1  0
 20 19  2  0
 21 20  1  0
 21 22  1  0
 22 23  2  0
 24 25  1  0
 26 24  2  0
M  END
$$$$
