DPH.pdb
     RDKit          3D

 26 27  0  0  1  0  0  0  0  0999 V2000
   10.2613  -14.5705   15.4733 N   0  0  0  0  0  0  0  0  0  0  0  0
    9.6169  -15.3793   16.4283 C   0  0  1  0  0  0  0  0  0  0  0  0
   10.0473  -16.8285   16.1071 C   0  0  0  0  0  0  0  0  0  0  0  0
    9.3093  -17.7640   17.0291 C   0  0  0  0  0  0  0  0  0  0  0  0
    8.0629  -17.6558   17.1441 O   0  0  0  0  0  0  0  0  0  0  0  0
    9.8492  -15.1008   17.8478 C   0  0  0  0  0  0  0  0  0  0  0  0
   10.7626  -15.8315   18.3828 O   0  0  0  0  0  0  0  0  0  0  0  0
    9.9471  -18.7340   17.7516 O   0  0  0  0  0  0  0  0  0  0  0  0
    9.2137  -14.1642   18.6551 N   0  0  0  0  0  0  0  0  0  0  0  0
    8.5909  -12.9269   18.2153 C   0  0  0  0  0  0  0  0  0  0  0  0
    7.1943  -13.1062   18.8304 C   0  0  0  0  0  0  0  0  0  0  0  0
    7.3825  -14.1335   19.9694 C   0  0  0  0  0  0  0  0  0  0  0  0
    8.8822  -14.1105   20.0617 C   0  0  1  0  0  0  0  0  0  0  0  0
    9.4675  -15.0148   20.9909 C   0  0  0  0  0  0  0  0  0  0  0  0
    9.0993  -16.2527   20.9155 O   0  0  0  0  0  0  0  0  0  0  0  0
   10.4069  -14.7989   22.0201 N   0  0  0  0  0  0  0  0  0  0  0  0
   10.9437  -15.8389   22.8704 C   0  0  1  0  0  0  0  0  0  0  0  0
   12.3534  -15.6093   23.3056 C   0  0  0  0  0  0  0  0  0  0  0  0
   13.3138  -15.5237   22.1797 C   0  0  0  0  0  0  0  0  0  0  0  0
   13.0022  -15.9768   20.9133 C   0  0  0  0  0  0  0  0  0  0  0  0
   14.0352  -15.7794   20.1065 N   0  0  0  0  0  0  0  0  0  0  0  0
   14.9898  -15.2074   20.8556 C   0  0  0  0  0  0  0  0  0  0  0  0
   14.5544  -15.0501   22.1182 N   0  0  0  0  0  0  0  0  0  0  0  0
   10.0945  -15.9333   24.0889 C   0  0  0  0  0  0  0  0  0  0  0  0
    9.0330  -15.0565   24.3003 O   0  0  0  0  0  0  0  0  0  0  0  0
   10.2870  -16.7988   24.9822 O   0  0  0  0  0  0  0  0  0  0  0  0
  2  1  1  6
  2  3  1  0
  3  4  1  0
  4  8  1  0
  4  5  2  0
  6  2  1  0
  7  6  2  0
  9  6  1  0
  9 13  1  0
 10 11  1  0
 10  9  1  0
 11 12  1  0
 12 13  1  0
 13 14  1  1
 14 15  2  0
 16 14  1  0
 17 16  1  0
 17 24  1  0
 17 18  1  1
 19 23  1  0
 19 18  1  0
 20 19  2  0
 21 20  1  0
 21 22  1  0
 22 23  2  0
 24 25  1  0
 26 24  2  0
M  END
$$$$
