TPH.pdb
     RDKit          3D

 25 26  0  0  1  0  0  0  0  0999 V2000
    8.1269  -18.9961   18.6140 C   0  0  0  0  0  0  0  0  0  0  0  0
    8.2869  -18.0565   19.7707 C   0  0  1  0  0  0  0  0  0  0  0  0
    8.8741  -18.7131   20.8668 O   0  0  0  0  0  0  0  0  0  0  0  0
    9.1929  -16.8855   19.3417 C   0  0  2  0  0  0  0  0  0  0  0  0
   10.3542  -17.4797   18.7764 N   0  0  0  0  0  0  0  0  0  0  0  0
    9.3718  -15.9225   20.4212 C   0  0  0  0  0  0  0  0  0  0  0  0
   10.2634  -16.2689   21.2891 O   0  0  0  0  0  0  0  0  0  0  0  0
    8.7466  -14.7006   20.6699 N   0  0  0  0  0  0  0  0  0  0  0  0
    8.4201  -13.7044   19.6290 C   0  0  0  0  0  0  0  0  0  0  0  0
    6.9057  -13.5931   19.8998 C   0  0  0  0  0  0  0  0  0  0  0  0
    6.7281  -13.9733   21.3766 C   0  0  0  0  0  0  0  0  0  0  0  0
    8.2045  -14.0453   21.8115 C   0  0  1  0  0  0  0  0  0  0  0  0
    8.3010  -14.5678   23.1350 C   0  0  0  0  0  0  0  0  0  0  0  0
    7.8998  -13.8447   24.1090 O   0  0  0  0  0  0  0  0  0  0  0  0
    8.7950  -15.8139   23.6014 N   0  0  0  0  0  0  0  0  0  0  0  0
    8.7934  -16.2591   24.9482 C   0  0  1  0  0  0  0  0  0  0  0  0
    7.7088  -17.0711   25.4856 C   0  0  0  0  0  0  0  0  0  0  0  0
    6.9701  -17.7917   24.4203 C   0  0  0  0  0  0  0  0  0  0  0  0
    6.6813  -17.3402   23.1497 C   0  0  0  0  0  0  0  0  0  0  0  0
    5.9879  -18.3026   22.4852 N   0  0  0  0  0  0  0  0  0  0  0  0
    5.8550  -19.3357   23.3473 C   0  0  0  0  0  0  0  0  0  0  0  0
    6.4498  -19.0252   24.5180 N   0  0  0  0  0  0  0  0  0  0  0  0
   10.0733  -16.9826   25.1887 C   0  0  0  0  0  0  0  0  0  0  0  0
   10.9678  -17.1861   24.1519 O   0  0  0  0  0  0  0  0  0  0  0  0
   10.4001  -17.4342   26.3147 O   0  0  0  0  0  0  0  0  0  0  0  0
  2  1  1  6
  2  3  1  0
  4  2  1  0
  4  5  1  1
  6  4  1  0
  6  8  1  0
  7  6  2  0
  8 12  1  0
  9  8  1  0
  9 10  1  0
 11 10  1  0
 12 11  1  0
 13 15  1  0
 12 13  1  1
 14 13  2  0
 16 17  1  6
 16 15  1  0
 17 18  1  0
 18 19  2  0
 18 22  1  0
 19 20  1  0
 20 21  1  0
 22 21  2  0
 23 16  1  0
 23 24  1  0
 25 23  2  0
M  END
$$$$
