TPH.pdb
     RDKit          3D

 25 26  0  0  1  0  0  0  0  0999 V2000
    6.6677  -17.8339   20.1544 C   0  0  0  0  0  0  0  0  0  0  0  0
    7.8185  -18.2181   19.2744 C   0  0  1  0  0  0  0  0  0  0  0  0
    7.3986  -19.1019   18.2646 O   0  0  0  0  0  0  0  0  0  0  0  0
    8.3949  -16.9460   18.6218 C   0  0  2  0  0  0  0  0  0  0  0  0
    9.1478  -17.3915   17.5011 N   0  0  0  0  0  0  0  0  0  0  0  0
    9.0606  -16.0957   19.6007 C   0  0  0  0  0  0  0  0  0  0  0  0
    9.8566  -16.7336   20.3930 O   0  0  0  0  0  0  0  0  0  0  0  0
    8.9821  -14.7206   19.8215 N   0  0  0  0  0  0  0  0  0  0  0  0
    8.7168  -13.7210   18.7666 C   0  0  0  0  0  0  0  0  0  0  0  0
    7.4774  -13.0570   19.4009 C   0  0  0  0  0  0  0  0  0  0  0  0
    7.6254  -13.2812   20.9125 C   0  0  0  0  0  0  0  0  0  0  0  0
    9.0512  -13.8635   20.9560 C   0  0  1  0  0  0  0  0  0  0  0  0
    9.3520  -14.3262   22.2710 C   0  0  0  0  0  0  0  0  0  0  0  0
    9.7107  -13.4737   23.1526 O   0  0  0  0  0  0  0  0  0  0  0  0
    9.3323  -15.6370   22.8152 N   0  0  0  0  0  0  0  0  0  0  0  0
    9.5166  -15.9749   24.1804 C   0  0  1  0  0  0  0  0  0  0  0  0
    8.3873  -16.1676   25.0814 C   0  0  0  0  0  0  0  0  0  0  0  0
    7.5630  -14.9416   25.2136 C   0  0  0  0  0  0  0  0  0  0  0  0
    8.0077  -13.6505   25.4047 C   0  0  0  0  0  0  0  0  0  0  0  0
    6.9346  -12.8186   25.4748 N   0  0  0  0  0  0  0  0  0  0  0  0
    5.8409  -13.5998   25.3269 C   0  0  0  0  0  0  0  0  0  0  0  0
    6.2226  -14.8844   25.1689 N   0  0  0  0  0  0  0  0  0  0  0  0
   10.3634  -17.1995   24.2346 C   0  0  0  0  0  0  0  0  0  0  0  0
   10.8513  -17.6600   25.4455 O   0  0  0  0  0  0  0  0  0  0  0  0
   10.6713  -17.8614   23.2120 O   0  0  0  0  0  0  0  0  0  0  0  0
  2  1  1  1
  2  3  1  0
  4  2  1  0
  4  5  1  6
  6  4  1  0
  6  8  1  0
  7  6  2  0
  8 12  1  0
  9  8  1  0
  9 10  1  0
 11 10  1  0
 12 11  1  0
 13 15  1  0
 12 13  1  1
 14 13  2  0
 16 17  1  6
 16 15  1  0
 17 18  1  0
 18 19  2  0
 18 22  1  0
 19 20  1  0
 20 21  1  0
 22 21  2  0
 23 16  1  0
 23 24  1  0
 25 23  2  0
M  END
$$$$
