TPH.pdb
     RDKit          3D

 25 26  0  0  1  0  0  0  0  0999 V2000
    7.1103  -18.1106   16.8501 C   0  0  0  0  0  0  0  0  0  0  0  0
    7.6692  -17.5232   18.1106 C   0  0  1  0  0  0  0  0  0  0  0  0
    8.3511  -18.5018   18.8553 O   0  0  0  0  0  0  0  0  0  0  0  0
    8.6530  -16.3949   17.7428 C   0  0  2  0  0  0  0  0  0  0  0  0
    9.4982  -16.9305   16.7329 N   0  0  0  0  0  0  0  0  0  0  0  0
    9.2789  -15.8218   18.9279 C   0  0  0  0  0  0  0  0  0  0  0  0
   10.2893  -16.4975   19.3648 O   0  0  0  0  0  0  0  0  0  0  0  0
    8.9715  -14.6756   19.6610 N   0  0  0  0  0  0  0  0  0  0  0  0
    8.6340  -13.3683   19.0612 C   0  0  0  0  0  0  0  0  0  0  0  0
    7.2625  -13.1649   19.7371 C   0  0  0  0  0  0  0  0  0  0  0  0
    7.3297  -13.9700   21.0427 C   0  0  0  0  0  0  0  0  0  0  0  0
    8.8213  -14.3559   21.0400 C   0  0  1  0  0  0  0  0  0  0  0  0
    9.0908  -15.2794   22.0928 C   0  0  0  0  0  0  0  0  0  0  0  0
    8.2270  -16.1856   22.3479 O   0  0  0  0  0  0  0  0  0  0  0  0
   10.2038  -15.3825   22.9676 N   0  0  0  0  0  0  0  0  0  0  0  0
   10.4061  -16.3927   23.9425 C   0  0  1  0  0  0  0  0  0  0  0  0
   11.5466  -17.2982   23.8825 C   0  0  0  0  0  0  0  0  0  0  0  0
   11.5042  -18.1708   22.6839 C   0  0  0  0  0  0  0  0  0  0  0  0
   10.4488  -18.3477   21.8142 C   0  0  0  0  0  0  0  0  0  0  0  0
   10.8152  -19.2309   20.8475 N   0  0  0  0  0  0  0  0  0  0  0  0
   12.0883  -19.5903   21.1273 C   0  0  0  0  0  0  0  0  0  0  0  0
   12.5041  -18.9481   22.2389 N   0  0  0  0  0  0  0  0  0  0  0  0
   10.4075  -15.7382   25.2809 C   0  0  0  0  0  0  0  0  0  0  0  0
   10.2930  -14.3627   25.3874 O   0  0  0  0  0  0  0  0  0  0  0  0
   10.5098  -16.3823   26.3548 O   0  0  0  0  0  0  0  0  0  0  0  0
  2  1  1  6
  2  3  1  0
  4  2  1  0
  4  5  1  6
  6  4  1  0
  6  8  1  0
  7  6  2  0
  8 12  1  0
  9  8  1  0
  9 10  1  0
 11 10  1  0
 12 11  1  0
 13 15  1  0
 12 13  1  1
 14 13  2  0
 16 17  1  6
 16 15  1  0
 17 18  1  0
 18 19  2  0
 18 22  1  0
 19 20  1  0
 20 21  1  0
 22 21  2  0
 23 16  1  0
 23 24  1  0
 25 23  2  0
M  END
$$$$
