TPH.pdb
     RDKit          3D

 25 26  0  0  1  0  0  0  0  0999 V2000
    7.3594  -17.3380   16.9592 C   0  0  0  0  0  0  0  0  0  0  0  0
    8.5181  -16.9556   16.0887 C   0  0  1  0  0  0  0  0  0  0  0  0
    8.2133  -17.1702   14.7329 O   0  0  0  0  0  0  0  0  0  0  0  0
    8.8327  -15.4619   16.3032 C   0  0  2  0  0  0  0  0  0  0  0  0
    9.5910  -15.0581   15.1705 N   0  0  0  0  0  0  0  0  0  0  0  0
    9.3930  -15.2165   17.6263 C   0  0  0  0  0  0  0  0  0  0  0  0
   10.3712  -16.0017   17.9343 O   0  0  0  0  0  0  0  0  0  0  0  0
    9.0520  -14.2832   18.6053 N   0  0  0  0  0  0  0  0  0  0  0  0
    8.6692  -12.8840   18.3255 C   0  0  0  0  0  0  0  0  0  0  0  0
    7.2951  -12.8886   19.0263 C   0  0  0  0  0  0  0  0  0  0  0  0
    7.3948  -13.9728   20.1087 C   0  0  0  0  0  0  0  0  0  0  0  0
    8.8982  -14.2984   20.0204 C   0  0  1  0  0  0  0  0  0  0  0  0
    9.2027  -15.4323   20.8300 C   0  0  0  0  0  0  0  0  0  0  0  0
    8.6866  -16.5600   20.5227 O   0  0  0  0  0  0  0  0  0  0  0  0
   10.0163  -15.5483   21.9872 N   0  0  0  0  0  0  0  0  0  0  0  0
   10.8839  -16.6287   22.2905 C   0  0  1  0  0  0  0  0  0  0  0  0
   11.9774  -17.0057   21.4037 C   0  0  0  0  0  0  0  0  0  0  0  0
   12.6356  -18.2638   21.8327 C   0  0  0  0  0  0  0  0  0  0  0  0
   12.0251  -19.4324   22.2367 C   0  0  0  0  0  0  0  0  0  0  0  0
   12.9819  -20.3471   22.5473 N   0  0  0  0  0  0  0  0  0  0  0  0
   14.1701  -19.7382   22.3334 C   0  0  0  0  0  0  0  0  0  0  0  0
   13.9591  -18.4774   21.9009 N   0  0  0  0  0  0  0  0  0  0  0  0
   11.4526  -16.3873   23.6463 C   0  0  0  0  0  0  0  0  0  0  0  0
   11.3494  -17.3550   24.6309 O   0  0  0  0  0  0  0  0  0  0  0  0
   12.0401  -15.3218   23.9595 O   0  0  0  0  0  0  0  0  0  0  0  0
  2  1  1  1
  2  3  1  0
  4  2  1  0
  4  5  1  6
  6  4  1  0
  6  8  1  0
  7  6  2  0
  8 12  1  0
  9  8  1  0
  9 10  1  0
 11 10  1  0
 12 11  1  0
 13 15  1  0
 12 13  1  6
 14 13  2  0
 16 17  1  6
 16 15  1  0
 17 18  1  0
 18 19  2  0
 18 22  1  0
 19 20  1  0
 20 21  1  0
 22 21  2  0
 23 16  1  0
 23 24  1  0
 25 23  2  0
M  END
$$$$
