TPH.pdb
     RDKit          3D

 25 26  0  0  1  0  0  0  0  0999 V2000
    7.4056  -17.2650   16.8118 C   0  0  0  0  0  0  0  0  0  0  0  0
    8.5103  -16.8442   15.8903 C   0  0  1  0  0  0  0  0  0  0  0  0
    8.1521  -17.0698   14.5494 O   0  0  0  0  0  0  0  0  0  0  0  0
    8.7836  -15.3406   16.0918 C   0  0  2  0  0  0  0  0  0  0  0  0
    9.4439  -14.9043   14.9107 N   0  0  0  0  0  0  0  0  0  0  0  0
    9.4272  -15.0796   17.3732 C   0  0  0  0  0  0  0  0  0  0  0  0
   10.4014  -15.8835   17.6431 O   0  0  0  0  0  0  0  0  0  0  0  0
    9.1687  -14.1146   18.3469 N   0  0  0  0  0  0  0  0  0  0  0  0
    8.6749  -12.7522   18.0595 C   0  0  0  0  0  0  0  0  0  0  0  0
    7.4091  -12.7879   18.9403 C   0  0  0  0  0  0  0  0  0  0  0  0
    7.7126  -13.8084   20.0464 C   0  0  0  0  0  0  0  0  0  0  0  0
    9.2064  -14.0641   19.7690 C   0  0  1  0  0  0  0  0  0  0  0  0
    9.6788  -15.1383   20.5795 C   0  0  0  0  0  0  0  0  0  0  0  0
    8.9850  -15.4915   21.5925 O   0  0  0  0  0  0  0  0  0  0  0  0
   10.8499  -15.9326   20.4680 N   0  0  0  0  0  0  0  0  0  0  0  0
   11.9601  -15.9078   21.3504 C   0  0  1  0  0  0  0  0  0  0  0  0
   12.9239  -14.8145   21.3391 C   0  0  0  0  0  0  0  0  0  0  0  0
   13.7835  -14.8406   20.1306 C   0  0  0  0  0  0  0  0  0  0  0  0
   13.7078  -15.7164   19.0682 C   0  0  0  0  0  0  0  0  0  0  0  0
   14.6755  -15.4025   18.1662 N   0  0  0  0  0  0  0  0  0  0  0  0
   15.3378  -14.3401   18.6770 C   0  0  0  0  0  0  0  0  0  0  0  0
   14.7970  -14.0010   19.8659 N   0  0  0  0  0  0  0  0  0  0  0  0
   11.4394  -16.0486   22.7392 C   0  0  0  0  0  0  0  0  0  0  0  0
   11.8536  -17.1001   23.5387 O   0  0  0  0  0  0  0  0  0  0  0  0
   10.6191  -15.2423   23.2448 O   0  0  0  0  0  0  0  0  0  0  0  0
  2  1  1  1
  2  3  1  0
  4  2  1  0
  4  5  1  6
  6  4  1  0
  6  8  1  0
  7  6  2  0
  8 12  1  0
  9  8  1  0
  9 10  1  0
 11 10  1  0
 12 11  1  0
 13 15  1  0
 12 13  1  1
 14 13  2  0
 16 17  1  1
 16 15  1  0
 17 18  1  0
 18 19  2  0
 18 22  1  0
 19 20  1  0
 20 21  1  0
 22 21  2  0
 23 16  1  0
 23 24  1  0
 25 23  2  0
M  END
$$$$
