TPH.pdb
     RDKit          3D

 25 26  0  0  1  0  0  0  0  0999 V2000
    7.0801  -17.7066   18.0590 C   0  0  0  0  0  0  0  0  0  0  0  0
    8.1859  -17.5064   17.0673 C   0  0  1  0  0  0  0  0  0  0  0  0
    7.7771  -17.8999   15.7807 O   0  0  0  0  0  0  0  0  0  0  0  0
    8.5675  -16.0132   17.0391 C   0  0  2  0  0  0  0  0  0  0  0  0
    9.2729  -15.8155   15.8206 N   0  0  0  0  0  0  0  0  0  0  0  0
    9.2129  -15.6011   18.2794 C   0  0  0  0  0  0  0  0  0  0  0  0
   10.2180  -16.3387   18.6166 O   0  0  0  0  0  0  0  0  0  0  0  0
    8.9284  -14.5521   19.1538 N   0  0  0  0  0  0  0  0  0  0  0  0
    8.4716  -13.2131   18.7284 C   0  0  0  0  0  0  0  0  0  0  0  0
    7.1676  -13.1553   19.5503 C   0  0  0  0  0  0  0  0  0  0  0  0
    7.4039  -14.0804   20.7526 C   0  0  0  0  0  0  0  0  0  0  0  0
    8.9039  -14.3793   20.5666 C   0  0  1  0  0  0  0  0  0  0  0  0
    9.3212  -15.3857   21.4869 C   0  0  0  0  0  0  0  0  0  0  0  0
    8.4458  -16.1940   21.9482 O   0  0  0  0  0  0  0  0  0  0  0  0
   10.6038  -15.6707   22.0238 N   0  0  0  0  0  0  0  0  0  0  0  0
   10.9028  -16.6776   22.9770 C   0  0  1  0  0  0  0  0  0  0  0  0
   11.6272  -17.8883   22.6114 C   0  0  0  0  0  0  0  0  0  0  0  0
   10.8253  -18.7752   21.7337 C   0  0  0  0  0  0  0  0  0  0  0  0
    9.4770  -19.0488   21.8274 C   0  0  0  0  0  0  0  0  0  0  0  0
    9.1301  -19.9097   20.8338 N   0  0  0  0  0  0  0  0  0  0  0  0
   10.2622  -20.1592   20.1379 C   0  0  0  0  0  0  0  0  0  0  0  0
   11.2874  -19.4720   20.6835 N   0  0  0  0  0  0  0  0  0  0  0  0
   11.6263  -16.0316   24.1079 C   0  0  0  0  0  0  0  0  0  0  0  0
   11.9597  -14.6892   24.0498 O   0  0  0  0  0  0  0  0  0  0  0  0
   11.9631  -16.6539   25.1462 O   0  0  0  0  0  0  0  0  0  0  0  0
  2  1  1  1
  2  3  1  0
  4  2  1  0
  4  5  1  6
  6  4  1  0
  6  8  1  0
  7  6  2  0
  8 12  1  0
  9  8  1  0
  9 10  1  0
 11 10  1  0
 12 11  1  0
 13 15  1  0
 12 13  1  1
 14 13  2  0
 16 17  1  6
 16 15  1  0
 17 18  1  0
 18 19  2  0
 18 22  1  0
 19 20  1  0
 20 21  1  0
 22 21  2  0
 23 16  1  0
 23 24  1  0
 25 23  2  0
M  END
$$$$
