TPH.pdb
     RDKit          3D

 25 26  0  0  1  0  0  0  0  0999 V2000
    7.0346  -17.4686   17.9717 C   0  0  0  0  0  0  0  0  0  0  0  0
    8.2137  -17.3802   17.0506 C   0  0  1  0  0  0  0  0  0  0  0  0
    7.8674  -17.8102   15.7573 O   0  0  0  0  0  0  0  0  0  0  0  0
    8.6868  -15.9147   16.9835 C   0  0  2  0  0  0  0  0  0  0  0  0
    9.4602  -15.8103   15.7952 N   0  0  0  0  0  0  0  0  0  0  0  0
    9.2962  -15.4901   18.2377 C   0  0  0  0  0  0  0  0  0  0  0  0
   10.2599  -16.2522   18.6358 O   0  0  0  0  0  0  0  0  0  0  0  0
    9.0146  -14.4074   19.0710 N   0  0  0  0  0  0  0  0  0  0  0  0
    8.6651  -13.0548   18.5905 C   0  0  0  0  0  0  0  0  0  0  0  0
    7.3145  -12.9053   19.3204 C   0  0  0  0  0  0  0  0  0  0  0  0
    7.4162  -13.8149   20.5531 C   0  0  0  0  0  0  0  0  0  0  0  0
    8.9056  -14.2017   20.4753 C   0  0  1  0  0  0  0  0  0  0  0  0
    9.2017  -15.2089   21.4406 C   0  0  0  0  0  0  0  0  0  0  0  0
    8.3503  -16.1420   21.6322 O   0  0  0  0  0  0  0  0  0  0  0  0
   10.3312  -15.3752   22.2839 N   0  0  0  0  0  0  0  0  0  0  0  0
   10.5242  -16.4228   23.2206 C   0  0  1  0  0  0  0  0  0  0  0  0
   11.7465  -17.2165   23.2418 C   0  0  0  0  0  0  0  0  0  0  0  0
   11.9233  -18.0026   21.9965 C   0  0  0  0  0  0  0  0  0  0  0  0
   11.0308  -18.1298   20.9530 C   0  0  0  0  0  0  0  0  0  0  0  0
   11.5726  -18.9381   20.0034 N   0  0  0  0  0  0  0  0  0  0  0  0
   12.7898  -19.3017   20.4666 C   0  0  0  0  0  0  0  0  0  0  0  0
   13.0008  -18.7348   21.6729 N   0  0  0  0  0  0  0  0  0  0  0  0
   10.3188  -15.8567   24.5834 C   0  0  0  0  0  0  0  0  0  0  0  0
   10.3381  -16.6825   25.6944 O   0  0  0  0  0  0  0  0  0  0  0  0
   10.1224  -14.6332   24.7910 O   0  0  0  0  0  0  0  0  0  0  0  0
  2  1  1  1
  2  3  1  0
  4  2  1  0
  4  5  1  6
  6  4  1  0
  6  8  1  0
  7  6  2  0
  8 12  1  0
  9  8  1  0
  9 10  1  0
 11 10  1  0
 12 11  1  0
 13 15  1  0
 12 13  1  1
 14 13  2  0
 16 17  1  1
 16 15  1  0
 17 18  1  0
 18 19  2  0
 18 22  1  0
 19 20  1  0
 20 21  1  0
 22 21  2  0
 23 16  1  0
 23 24  1  0
 25 23  2  0
M  END
$$$$
