TPH.pdb
     RDKit          3D

 25 26  0  0  1  0  0  0  0  0999 V2000
    7.3543  -17.3768   16.8754 C   0  0  0  0  0  0  0  0  0  0  0  0
    8.5386  -17.0220   16.0280 C   0  0  1  0  0  0  0  0  0  0  0  0
    8.2713  -17.2728   14.6704 O   0  0  0  0  0  0  0  0  0  0  0  0
    8.8528  -15.5240   16.2104 C   0  0  2  0  0  0  0  0  0  0  0  0
    9.6804  -15.1642   15.1118 N   0  0  0  0  0  0  0  0  0  0  0  0
    9.3359  -15.2373   17.5554 C   0  0  0  0  0  0  0  0  0  0  0  0
   10.2810  -16.0239   17.9508 O   0  0  0  0  0  0  0  0  0  0  0  0
    8.9514  -14.2636   18.4772 N   0  0  0  0  0  0  0  0  0  0  0  0
    8.5879  -12.8766   18.1215 C   0  0  0  0  0  0  0  0  0  0  0  0
    7.1814  -12.8497   18.7541 C   0  0  0  0  0  0  0  0  0  0  0  0
    7.2243  -13.8882   19.8840 C   0  0  0  0  0  0  0  0  0  0  0  0
    8.7289  -14.2199   19.8826 C   0  0  1  0  0  0  0  0  0  0  0  0
    8.9895  -15.3198   20.7522 C   0  0  0  0  0  0  0  0  0  0  0  0
    8.1884  -16.3150   20.7370 O   0  0  0  0  0  0  0  0  0  0  0  0
   10.0321  -15.5255   21.6931 N   0  0  0  0  0  0  0  0  0  0  0  0
   10.4692  -16.7797   22.1909 C   0  0  1  0  0  0  0  0  0  0  0  0
   11.0090  -17.8079   21.3102 C   0  0  0  0  0  0  0  0  0  0  0  0
   11.3650  -19.0444   22.0481 C   0  0  0  0  0  0  0  0  0  0  0  0
   12.5165  -19.2883   22.7666 C   0  0  0  0  0  0  0  0  0  0  0  0
   12.4545  -20.5417   23.2897 N   0  0  0  0  0  0  0  0  0  0  0  0
   11.2703  -21.0590   22.8915 C   0  0  0  0  0  0  0  0  0  0  0  0
   10.6120  -20.1518   22.1402 N   0  0  0  0  0  0  0  0  0  0  0  0
   11.4709  -16.5186   23.2625 C   0  0  0  0  0  0  0  0  0  0  0  0
   11.8575  -15.2227   23.5584 O   0  0  0  0  0  0  0  0  0  0  0  0
   12.0034  -17.4358   23.9361 O   0  0  0  0  0  0  0  0  0  0  0  0
  2  1  1  1
  2  3  1  0
  4  2  1  0
  4  5  1  6
  6  4  1  0
  6  8  1  0
  7  6  2  0
  8 12  1  0
  9  8  1  0
  9 10  1  0
 11 10  1  0
 12 11  1  0
 13 15  1  0
 12 13  1  6
 14 13  2  0
 16 17  1  6
 16 15  1  0
 17 18  1  0
 18 19  2  0
 18 22  1  0
 19 20  1  0
 20 21  1  0
 22 21  2  0
 23 16  1  0
 23 24  1  0
 25 23  2  0
M  END
$$$$
