TPH.pdb
     RDKit          3D

 25 26  0  0  1  0  0  0  0  0999 V2000
    6.3201  -16.4378   23.3198 C   0  0  0  0  0  0  0  0  0  0  0  0
    7.2416  -15.8884   22.2732 C   0  0  1  0  0  0  0  0  0  0  0  0
    6.7182  -16.1061   20.9863 O   0  0  0  0  0  0  0  0  0  0  0  0
    7.4071  -14.3725   22.4990 C   0  0  2  0  0  0  0  0  0  0  0  0
    7.9311  -13.8538   21.2834 N   0  0  0  0  0  0  0  0  0  0  0  0
    8.1298  -14.0900   23.7329 C   0  0  0  0  0  0  0  0  0  0  0  0
    9.2465  -14.7295   23.8436 O   0  0  0  0  0  0  0  0  0  0  0  0
    7.8190  -13.2513   24.8033 N   0  0  0  0  0  0  0  0  0  0  0  0
    7.1649  -11.9337   24.6670 C   0  0  0  0  0  0  0  0  0  0  0  0
    5.9587  -12.1912   25.5933 C   0  0  0  0  0  0  0  0  0  0  0  0
    6.4296  -13.2651   26.5842 C   0  0  0  0  0  0  0  0  0  0  0  0
    7.9257  -13.3237   26.2210 C   0  0  1  0  0  0  0  0  0  0  0  0
    8.5546  -14.4051   26.9057 C   0  0  0  0  0  0  0  0  0  0  0  0
    7.9045  -15.4946   27.0567 O   0  0  0  0  0  0  0  0  0  0  0  0
    9.8438  -14.5013   27.4919 N   0  0  0  0  0  0  0  0  0  0  0  0
   10.3950  -15.6542   28.1073 C   0  0  1  0  0  0  0  0  0  0  0  0
   11.6363  -16.2553   27.6359 C   0  0  0  0  0  0  0  0  0  0  0  0
   11.5411  -16.6978   26.2234 C   0  0  0  0  0  0  0  0  0  0  0  0
   10.5055  -17.3888   25.6306 C   0  0  0  0  0  0  0  0  0  0  0  0
   10.8073  -17.6016   24.3221 N   0  0  0  0  0  0  0  0  0  0  0  0
   12.0216  -17.0426   24.1188 C   0  0  0  0  0  0  0  0  0  0  0  0
   12.4646  -16.4959   25.2703 N   0  0  0  0  0  0  0  0  0  0  0  0
   10.5463  -15.3644   29.5608 C   0  0  0  0  0  0  0  0  0  0  0  0
   10.2728  -14.1004   30.0547 O   0  0  0  0  0  0  0  0  0  0  0  0
   10.9201  -16.2284   30.3930 O   0  0  0  0  0  0  0  0  0  0  0  0
  2  1  1  1
  2  3  1  0
  4  2  1  0
  4  5  1  6
  6  4  1  0
  6  8  1  0
  7  6  2  0
  8 12  1  0
  9  8  1  0
  9 10  1  0
 11 10  1  0
 12 11  1  0
 13 15  1  0
 12 13  1  6
 14 13  2  0
 16 17  1  6
 16 15  1  0
 17 18  1  0
 18 19  2  0
 18 22  1  0
 19 20  1  0
 20 21  1  0
 22 21  2  0
 23 16  1  0
 23 24  1  0
 25 23  2  0
M  END
$$$$
