TPH.pdb
     RDKit          3D

 25 26  0  0  1  0  0  0  0  0999 V2000
    6.6895  -18.2808   19.4744 C   0  0  0  0  0  0  0  0  0  0  0  0
    7.8115  -18.3049   18.4810 C   0  0  1  0  0  0  0  0  0  0  0  0
    7.3738  -18.8229   17.2492 O   0  0  0  0  0  0  0  0  0  0  0  0
    8.3220  -16.8659   18.2687 C   0  0  2  0  0  0  0  0  0  0  0  0
    9.0209  -16.8805   17.0307 N   0  0  0  0  0  0  0  0  0  0  0  0
    9.0221  -16.3663   19.4454 C   0  0  0  0  0  0  0  0  0  0  0  0
   10.0066  -17.1114   19.8245 O   0  0  0  0  0  0  0  0  0  0  0  0
    8.8079  -15.2277   20.2223 N   0  0  0  0  0  0  0  0  0  0  0  0
    8.3784  -13.9205   19.6844 C   0  0  0  0  0  0  0  0  0  0  0  0
    7.1115  -13.7354   20.5447 C   0  0  0  0  0  0  0  0  0  0  0  0
    7.3660  -14.5474   21.8225 C   0  0  0  0  0  0  0  0  0  0  0  0
    8.8465  -14.9177   21.6112 C   0  0  1  0  0  0  0  0  0  0  0  0
    9.2676  -15.8445   22.6099 C   0  0  0  0  0  0  0  0  0  0  0  0
    8.5685  -16.8965   22.8023 O   0  0  0  0  0  0  0  0  0  0  0  0
   10.3824  -15.8119   23.4879 N   0  0  0  0  0  0  0  0  0  0  0  0
   10.7860  -16.8546   24.3607 C   0  0  1  0  0  0  0  0  0  0  0  0
   12.1925  -17.1555   24.5965 C   0  0  0  0  0  0  0  0  0  0  0  0
   12.3714  -18.2652   25.5643 C   0  0  0  0  0  0  0  0  0  0  0  0
   11.5012  -18.6558   26.5601 C   0  0  0  0  0  0  0  0  0  0  0  0
   12.0372  -19.7128   27.2265 N   0  0  0  0  0  0  0  0  0  0  0  0
   13.2287  -19.9649   26.6390 C   0  0  0  0  0  0  0  0  0  0  0  0
   13.4297  -19.0880   25.6332 N   0  0  0  0  0  0  0  0  0  0  0  0
   10.1379  -16.6177   25.6812 C   0  0  0  0  0  0  0  0  0  0  0  0
   10.1981  -17.5813   26.6732 O   0  0  0  0  0  0  0  0  0  0  0  0
    9.5192  -15.5595   25.9570 O   0  0  0  0  0  0  0  0  0  0  0  0
  2  1  1  1
  2  3  1  0
  4  2  1  0
  4  5  1  6
  6  4  1  0
  6  8  1  0
  7  6  2  0
  8 12  1  0
  9  8  1  0
  9 10  1  0
 11 10  1  0
 12 11  1  0
 13 15  1  0
 12 13  1  1
 14 13  2  0
 16 17  1  1
 16 15  1  0
 17 18  1  0
 18 19  2  0
 18 22  1  0
 19 20  1  0
 20 21  1  0
 22 21  2  0
 23 16  1  0
 23 24  1  0
 25 23  2  0
M  END
$$$$
