TPH.pdb
     RDKit          3D

 25 26  0  0  1  0  0  0  0  0999 V2000
    7.0819  -17.8786   18.6985 C   0  0  0  0  0  0  0  0  0  0  0  0
    8.3518  -17.9007   17.9028 C   0  0  1  0  0  0  0  0  0  0  0  0
    8.1613  -18.5701   16.6810 O   0  0  0  0  0  0  0  0  0  0  0  0
    8.7888  -16.4500   17.6187 C   0  0  2  0  0  0  0  0  0  0  0  0
    9.6022  -16.5104   16.4541 N   0  0  0  0  0  0  0  0  0  0  0  0
    9.3409  -15.8136   18.8081 C   0  0  0  0  0  0  0  0  0  0  0  0
   10.2801  -16.4932   19.3773 O   0  0  0  0  0  0  0  0  0  0  0  0
    9.0267  -14.6038   19.4275 N   0  0  0  0  0  0  0  0  0  0  0  0
    8.8112  -13.3310   18.7090 C   0  0  0  0  0  0  0  0  0  0  0  0
    7.3963  -13.0181   19.2374 C   0  0  0  0  0  0  0  0  0  0  0  0
    7.3044  -13.7264   20.5964 C   0  0  0  0  0  0  0  0  0  0  0  0
    8.7687  -14.1765   20.7606 C   0  0  1  0  0  0  0  0  0  0  0  0
    8.8949  -15.0304   21.8959 C   0  0  0  0  0  0  0  0  0  0  0  0
    7.8513  -15.6216   22.3359 O   0  0  0  0  0  0  0  0  0  0  0  0
   10.0309  -15.3615   22.6799 N   0  0  0  0  0  0  0  0  0  0  0  0
   10.0505  -16.2534   23.7826 C   0  0  1  0  0  0  0  0  0  0  0  0
    9.6332  -17.6437   23.6513 C   0  0  0  0  0  0  0  0  0  0  0  0
   10.4573  -18.3832   22.6643 C   0  0  0  0  0  0  0  0  0  0  0  0
   11.5343  -17.9056   21.9478 C   0  0  0  0  0  0  0  0  0  0  0  0
   12.0113  -18.8988   21.1511 N   0  0  0  0  0  0  0  0  0  0  0  0
   11.2280  -19.9767   21.3815 C   0  0  0  0  0  0  0  0  0  0  0  0
   10.2880  -19.6633   22.2975 N   0  0  0  0  0  0  0  0  0  0  0  0
   11.4260  -16.2374   24.3550 C   0  0  0  0  0  0  0  0  0  0  0  0
   11.7248  -16.9873   25.4796 O   0  0  0  0  0  0  0  0  0  0  0  0
   12.3623  -15.5607   23.8609 O   0  0  0  0  0  0  0  0  0  0  0  0
  2  1  1  6
  2  3  1  0
  4  2  1  0
  4  5  1  6
  6  4  1  0
  6  8  1  0
  7  6  2  0
  8 12  1  0
  9  8  1  0
  9 10  1  0
 11 10  1  0
 12 11  1  0
 13 15  1  0
 12 13  1  1
 14 13  2  0
 16 17  1  6
 16 15  1  0
 17 18  1  0
 18 19  2  0
 18 22  1  0
 19 20  1  0
 20 21  1  0
 22 21  2  0
 23 16  1  0
 23 24  1  0
 25 23  2  0
M  END
$$$$
