GMK.pdb
     RDKit          3D

 22 21  0  0  1  0  0  0  0  0999 V2000
   26.6302  -25.1234  -16.3204 N   0  0  0  0  0  0  0  0  0  0  0  0
   26.6947  -23.7029  -16.1141 C   0  0  0  0  0  0  0  0  0  0  0  0
   25.7824  -23.2652  -15.0102 C   0  0  0  0  0  0  0  0  0  0  0  0
   24.8794  -24.0157  -14.5639 O   0  0  0  0  0  0  0  0  0  0  0  0
   25.5898  -20.8510   -8.7438 C   0  0  0  0  0  0  0  0  0  0  0  0
   24.4442  -20.9078  -10.1260 S   0  0  0  0  0  0  0  0  0  0  0  0
   24.8125  -19.8348  -11.4832 C   0  0  0  0  0  0  0  0  0  0  0  0
   25.6214  -20.3621  -12.6014 C   0  0  0  0  0  0  0  0  0  0  0  0
   25.0679  -21.4639  -13.4286 C   0  0  2  0  0  0  0  0  0  0  0  0
   25.9448  -21.9689  -14.4557 N   0  0  0  0  0  0  0  0  0  0  0  0
   23.8019  -20.9119  -14.0983 C   0  0  0  0  0  0  0  0  0  0  0  0
   23.8907  -20.0180  -14.9764 O   0  0  0  0  0  0  0  0  0  0  0  0
   22.5231  -21.3834  -13.7542 N   0  0  0  0  0  0  0  0  0  0  0  0
   21.2954  -20.8290  -14.3528 C   0  0  1  0  0  0  0  0  0  0  0  0
   20.2514  -21.9045  -14.1145 C   0  0  0  0  0  0  0  0  0  0  0  0
   18.9097  -21.5904  -14.6267 C   0  0  0  0  0  0  0  0  0  0  0  0
   17.9054  -22.6596  -14.4311 C   0  0  0  0  0  0  0  0  0  0  0  0
   16.5738  -22.4209  -15.0608 C   0  0  0  0  0  0  0  0  0  0  0  0
   15.5717  -23.3996  -14.7907 N   0  0  0  0  0  0  0  0  0  0  0  0
   20.8625  -19.6171  -13.6228 C   0  0  0  0  0  0  0  0  0  0  0  0
   20.3385  -18.5703  -14.3574 O   0  0  0  0  0  0  0  0  0  0  0  0
   20.9530  -19.5146  -12.4042 O   0  0  0  0  0  0  0  0  0  0  0  0
  2  3  1  0
  2  1  1  0
  3 10  1  0
  4  3  2  0
  6  5  1  0
  7  6  1  0
  7  8  1  0
  9  8  1  6
  9 11  1  0
 10  9  1  0
 11 12  2  0
 11 13  1  0
 13 14  1  0
 14 15  1  1
 15 16  1  0
 16 17  1  0
 17 18  1  0
 19 18  1  0
 20 14  1  0
 20 21  1  0
 22 20  2  0
M  END
$$$$
