GMK.pdb
     RDKit          3D

 22 21  0  0  1  0  0  0  0  0999 V2000
   28.7741  -22.2904  -16.2195 N   0  0  0  0  0  0  0  0  0  0  0  0
   27.7501  -21.2912  -16.0867 C   0  0  0  0  0  0  0  0  0  0  0  0
   26.7667  -21.6501  -15.0159 C   0  0  0  0  0  0  0  0  0  0  0  0
   26.3099  -22.8147  -14.9031 O   0  0  0  0  0  0  0  0  0  0  0  0
   26.2051  -20.8738   -8.3975 C   0  0  0  0  0  0  0  0  0  0  0  0
   24.8795  -21.4134   -9.4828 S   0  0  0  0  0  0  0  0  0  0  0  0
   24.4501  -20.3053  -10.7930 C   0  0  0  0  0  0  0  0  0  0  0  0
   25.4281  -20.0807  -11.8773 C   0  0  0  0  0  0  0  0  0  0  0  0
   25.3282  -20.8984  -13.1126 C   0  0  2  0  0  0  0  0  0  0  0  0
   26.3419  -20.6467  -14.1065 N   0  0  0  0  0  0  0  0  0  0  0  0
   23.9563  -20.5910  -13.7287 C   0  0  0  0  0  0  0  0  0  0  0  0
   23.7148  -19.4496  -14.1944 O   0  0  0  0  0  0  0  0  0  0  0  0
   22.9433  -21.5637  -13.7895 N   0  0  0  0  0  0  0  0  0  0  0  0
   21.5826  -21.2505  -14.2620 C   0  0  1  0  0  0  0  0  0  0  0  0
   20.8185  -22.5478  -14.0700 C   0  0  0  0  0  0  0  0  0  0  0  0
   19.4377  -22.5344  -14.5744 C   0  0  0  0  0  0  0  0  0  0  0  0
   18.7360  -23.8349  -14.4950 C   0  0  0  0  0  0  0  0  0  0  0  0
   17.3051  -23.8259  -14.9182 C   0  0  0  0  0  0  0  0  0  0  0  0
   16.6010  -25.0569  -14.7627 N   0  0  0  0  0  0  0  0  0  0  0  0
   20.9535  -20.2294  -13.3956 C   0  0  0  0  0  0  0  0  0  0  0  0
   20.2000  -19.2412  -14.0004 O   0  0  0  0  0  0  0  0  0  0  0  0
   21.0784  -20.2330  -12.1758 O   0  0  0  0  0  0  0  0  0  0  0  0
  2  3  1  0
  2  1  1  0
  3 10  1  0
  4  3  2  0
  6  5  1  0
  7  6  1  0
  7  8  1  0
  9  8  1  1
  9 11  1  0
 10  9  1  0
 11 12  2  0
 11 13  1  0
 13 14  1  0
 14 15  1  1
 15 16  1  0
 16 17  1  0
 17 18  1  0
 19 18  1  0
 20 14  1  0
 20 21  1  0
 22 20  2  0
M  END
$$$$
