GMK.pdb
     RDKit          3D

 22 21  0  0  1  0  0  0  0  0999 V2000
   24.3301  -15.0733  -20.4279 N   0  0  0  0  0  0  0  0  0  0  0  0
   24.5695  -13.6929  -20.7470 C   0  0  0  0  0  0  0  0  0  0  0  0
   24.7814  -12.8716  -19.5128 C   0  0  0  0  0  0  0  0  0  0  0  0
   23.9783  -12.9114  -18.5479 O   0  0  0  0  0  0  0  0  0  0  0  0
   28.3236  -13.0360  -15.1233 C   0  0  0  0  0  0  0  0  0  0  0  0
   27.7362  -11.3396  -15.1825 S   0  0  0  0  0  0  0  0  0  0  0  0
   28.0632  -10.4574  -16.6803 C   0  0  0  0  0  0  0  0  0  0  0  0
   27.6660  -11.0723  -17.9636 C   0  0  0  0  0  0  0  0  0  0  0  0
   26.2216  -11.2632  -18.2496 C   0  0  2  0  0  0  0  0  0  0  0  0
   25.9199  -12.0278  -19.4342 N   0  0  0  0  0  0  0  0  0  0  0  0
   25.6203   -9.8601  -18.4102 C   0  0  0  0  0  0  0  0  0  0  0  0
   25.7901   -9.2187  -19.4769 O   0  0  0  0  0  0  0  0  0  0  0  0
   24.8720   -9.2591  -17.3831 N   0  0  0  0  0  0  0  0  0  0  0  0
   24.2792   -7.9172  -17.5267 C   0  0  1  0  0  0  0  0  0  0  0  0
   23.4440   -7.7473  -16.2709 C   0  0  0  0  0  0  0  0  0  0  0  0
   22.6713   -6.4984  -16.2046 C   0  0  0  0  0  0  0  0  0  0  0  0
   21.9176   -6.3017  -14.9463 C   0  0  0  0  0  0  0  0  0  0  0  0
   21.0649   -5.0786  -14.8861 C   0  0  0  0  0  0  0  0  0  0  0  0
   19.6939   -5.2563  -15.2382 N   0  0  0  0  0  0  0  0  0  0  0  0
   25.3327   -6.8785  -17.5061 C   0  0  0  0  0  0  0  0  0  0  0  0
   25.0762   -5.6822  -18.1487 O   0  0  0  0  0  0  0  0  0  0  0  0
   26.4102   -7.0442  -16.9447 O   0  0  0  0  0  0  0  0  0  0  0  0
  2  3  1  0
  2  1  1  0
  3 10  1  0
  4  3  2  0
  6  5  1  0
  7  6  1  0
  7  8  1  0
  9  8  1  6
  9 11  1  0
 10  9  1  0
 11 12  2  0
 11 13  1  0
 13 14  1  0
 14 15  1  1
 15 16  1  0
 16 17  1  0
 17 18  1  0
 19 18  1  0
 20 14  1  0
 20 21  1  0
 22 20  2  0
M  END
$$$$
