GMK.pdb
     RDKit          3D

 22 21  0  0  1  0  0  0  0  0999 V2000
   29.5039  -21.5641  -13.3866 N   0  0  0  0  0  0  0  0  0  0  0  0
   28.9905  -20.5619  -12.4941 C   0  0  0  0  0  0  0  0  0  0  0  0
   27.8025  -21.0609  -11.7312 C   0  0  0  0  0  0  0  0  0  0  0  0
   27.0513  -21.9562  -12.1915 O   0  0  0  0  0  0  0  0  0  0  0  0
   28.3563  -20.4701   -4.6140 C   0  0  0  0  0  0  0  0  0  0  0  0
   27.2725  -19.7652   -5.8610 S   0  0  0  0  0  0  0  0  0  0  0  0
   26.9924  -20.7596   -7.2968 C   0  0  0  0  0  0  0  0  0  0  0  0
   26.1814  -20.1991   -8.3972 C   0  0  0  0  0  0  0  0  0  0  0  0
   26.2978  -20.7994   -9.7502 C   0  0  2  0  0  0  0  0  0  0  0  0
   27.5207  -20.5064  -10.4555 N   0  0  0  0  0  0  0  0  0  0  0  0
   25.1207  -20.2546  -10.5710 C   0  0  0  0  0  0  0  0  0  0  0  0
   25.0533  -19.0298  -10.8421 O   0  0  0  0  0  0  0  0  0  0  0  0
   24.0972  -21.0977  -11.0375 N   0  0  0  0  0  0  0  0  0  0  0  0
   23.0779  -20.6370  -11.9975 C   0  0  1  0  0  0  0  0  0  0  0  0
   23.0147  -21.7484  -13.0292 C   0  0  0  0  0  0  0  0  0  0  0  0
   21.9971  -21.5668  -14.0745 C   0  0  0  0  0  0  0  0  0  0  0  0
   21.8944  -22.6832  -15.0405 C   0  0  0  0  0  0  0  0  0  0  0  0
   20.9249  -22.4863  -16.1576 C   0  0  0  0  0  0  0  0  0  0  0  0
   20.8083  -23.5682  -17.0801 N   0  0  0  0  0  0  0  0  0  0  0  0
   21.7512  -20.5549  -11.3479 C   0  0  0  0  0  0  0  0  0  0  0  0
   21.5380  -21.3114  -10.2111 O   0  0  0  0  0  0  0  0  0  0  0  0
   20.8484  -19.8469  -11.7808 O   0  0  0  0  0  0  0  0  0  0  0  0
  2  3  1  0
  2  1  1  0
  3 10  1  0
  4  3  2  0
  6  5  1  0
  7  6  1  0
  7  8  1  0
  9  8  1  1
  9 11  1  0
 10  9  1  0
 11 12  2  0
 11 13  1  0
 13 14  1  0
 14 15  1  6
 15 16  1  0
 16 17  1  0
 17 18  1  0
 19 18  1  0
 20 14  1  0
 20 21  1  0
 22 20  2  0
M  END
$$$$
