GMK.pdb
     RDKit          3D

 22 21  0  0  1  0  0  0  0  0999 V2000
   28.4728  -21.6885  -16.1690 N   0  0  0  0  0  0  0  0  0  0  0  0
   27.9241  -20.6409  -15.3528 C   0  0  0  0  0  0  0  0  0  0  0  0
   26.9578  -21.1789  -14.3432 C   0  0  0  0  0  0  0  0  0  0  0  0
   26.1994  -22.1452  -14.6054 O   0  0  0  0  0  0  0  0  0  0  0  0
   26.8096  -19.9702   -7.2893 C   0  0  0  0  0  0  0  0  0  0  0  0
   25.7711  -21.2022   -8.0830 S   0  0  0  0  0  0  0  0  0  0  0  0
   25.1238  -20.7649   -9.6700 C   0  0  0  0  0  0  0  0  0  0  0  0
   26.0697  -20.3741  -10.7355 C   0  0  0  0  0  0  0  0  0  0  0  0
   25.8793  -20.9270  -12.1004 C   0  0  2  0  0  0  0  0  0  0  0  0
   26.8998  -20.5797  -13.0579 N   0  0  0  0  0  0  0  0  0  0  0  0
   24.5344  -20.3864  -12.6055 C   0  0  0  0  0  0  0  0  0  0  0  0
   24.4098  -19.1690  -12.8892 O   0  0  0  0  0  0  0  0  0  0  0  0
   23.4177  -21.2254  -12.7637 N   0  0  0  0  0  0  0  0  0  0  0  0
   22.1155  -20.7180  -13.2323 C   0  0  1  0  0  0  0  0  0  0  0  0
   21.6719  -21.7393  -14.2636 C   0  0  0  0  0  0  0  0  0  0  0  0
   20.3602  -21.4756  -14.8727 C   0  0  0  0  0  0  0  0  0  0  0  0
   19.8908  -22.5199  -15.8104 C   0  0  0  0  0  0  0  0  0  0  0  0
   19.5798  -22.0560  -17.1941 C   0  0  0  0  0  0  0  0  0  0  0  0
   19.2833  -23.0790  -18.1431 N   0  0  0  0  0  0  0  0  0  0  0  0
   21.1251  -20.7342  -12.1333 C   0  0  0  0  0  0  0  0  0  0  0  0
   20.0789  -19.8329  -12.1900 O   0  0  0  0  0  0  0  0  0  0  0  0
   21.2030  -21.5111  -11.1878 O   0  0  0  0  0  0  0  0  0  0  0  0
  2  3  1  0
  2  1  1  0
  3 10  1  0
  4  3  2  0
  6  5  1  0
  7  6  1  0
  7  8  1  0
  9  8  1  1
  9 11  1  0
 10  9  1  0
 11 12  2  0
 11 13  1  0
 13 14  1  0
 14 15  1  6
 15 16  1  0
 16 17  1  0
 17 18  1  0
 19 18  1  0
 20 14  1  0
 20 21  1  0
 22 20  2  0
M  END
$$$$
