GMK.pdb
     RDKit          3D

 22 21  0  0  1  0  0  0  0  0999 V2000
   31.7977  -22.3065  -10.3357 N   0  0  0  0  0  0  0  0  0  0  0  0
   30.8966  -21.2353  -10.6597 C   0  0  0  0  0  0  0  0  0  0  0  0
   29.5468  -21.4474  -10.0470 C   0  0  0  0  0  0  0  0  0  0  0  0
   29.0141  -22.5841  -10.0016 O   0  0  0  0  0  0  0  0  0  0  0  0
   28.5729  -20.1485   -3.7183 C   0  0  0  0  0  0  0  0  0  0  0  0
   27.5979  -20.4153   -5.2031 S   0  0  0  0  0  0  0  0  0  0  0  0
   28.1042  -19.5106   -6.6363 C   0  0  0  0  0  0  0  0  0  0  0  0
   27.2273  -19.5221   -7.8253 C   0  0  0  0  0  0  0  0  0  0  0  0
   27.5360  -20.4604   -8.9338 C   0  0  2  0  0  0  0  0  0  0  0  0
   28.8540  -20.3339   -9.5044 N   0  0  0  0  0  0  0  0  0  0  0  0
   26.5014  -20.1891  -10.0348 C   0  0  0  0  0  0  0  0  0  0  0  0
   26.5205  -19.1026  -10.6651 O   0  0  0  0  0  0  0  0  0  0  0  0
   25.5156  -21.1347  -10.3663 N   0  0  0  0  0  0  0  0  0  0  0  0
   24.5653  -20.9221  -11.4729 C   0  0  1  0  0  0  0  0  0  0  0  0
   24.3987  -22.3008  -12.0852 C   0  0  0  0  0  0  0  0  0  0  0  0
   23.4618  -22.3677  -13.2161 C   0  0  0  0  0  0  0  0  0  0  0  0
   24.0460  -22.0082  -14.5274 C   0  0  0  0  0  0  0  0  0  0  0  0
   23.0917  -21.9725  -15.6740 C   0  0  0  0  0  0  0  0  0  0  0  0
   23.6484  -21.6145  -16.9378 N   0  0  0  0  0  0  0  0  0  0  0  0
   23.2456  -20.5027  -10.9517 C   0  0  0  0  0  0  0  0  0  0  0  0
   22.3969  -19.8245  -11.8059 O   0  0  0  0  0  0  0  0  0  0  0  0
   22.8873  -20.7349   -9.8022 O   0  0  0  0  0  0  0  0  0  0  0  0
  2  3  1  0
  2  1  1  0
  3 10  1  0
  4  3  2  0
  6  5  1  0
  7  6  1  0
  7  8  1  0
  9  8  1  1
  9 11  1  0
 10  9  1  0
 11 12  2  0
 11 13  1  0
 13 14  1  0
 14 15  1  1
 15 16  1  0
 16 17  1  0
 17 18  1  0
 19 18  1  0
 20 14  1  0
 20 21  1  0
 22 20  2  0
M  END
$$$$
