GMK.pdb
     RDKit          3D

 22 21  0  0  1  0  0  0  0  0999 V2000
   30.9728  -22.0779  -11.9005 N   0  0  0  0  0  0  0  0  0  0  0  0
   30.4518  -20.9170  -11.2332 C   0  0  0  0  0  0  0  0  0  0  0  0
   29.3266  -21.2712  -10.3107 C   0  0  0  0  0  0  0  0  0  0  0  0
   28.5823  -22.2596  -10.5271 O   0  0  0  0  0  0  0  0  0  0  0  0
   28.8203  -19.4355   -3.8044 C   0  0  0  0  0  0  0  0  0  0  0  0
   27.1337  -19.7475   -4.3375 S   0  0  0  0  0  0  0  0  0  0  0  0
   26.9377  -20.3029   -6.0054 C   0  0  0  0  0  0  0  0  0  0  0  0
   28.0398  -20.0706   -6.9616 C   0  0  0  0  0  0  0  0  0  0  0  0
   27.9380  -20.6476   -8.3258 C   0  0  2  0  0  0  0  0  0  0  0  0
   29.0978  -20.4678   -9.1633 N   0  0  0  0  0  0  0  0  0  0  0  0
   26.7407  -19.9633   -8.9999 C   0  0  0  0  0  0  0  0  0  0  0  0
   26.7502  -18.7223   -9.1944 O   0  0  0  0  0  0  0  0  0  0  0  0
   25.6137  -20.6942   -9.4140 N   0  0  0  0  0  0  0  0  0  0  0  0
   24.5647  -20.1033  -10.2644 C   0  0  1  0  0  0  0  0  0  0  0  0
   24.7161  -20.8250  -11.5910 C   0  0  0  0  0  0  0  0  0  0  0  0
   23.7326  -20.4492  -12.6169 C   0  0  0  0  0  0  0  0  0  0  0  0
   23.8119  -21.2343  -13.8689 C   0  0  0  0  0  0  0  0  0  0  0  0
   22.8129  -20.8810  -14.9196 C   0  0  0  0  0  0  0  0  0  0  0  0
   22.9307  -21.5859  -16.1543 N   0  0  0  0  0  0  0  0  0  0  0  0
   23.2219  -20.4242   -9.7324 C   0  0  0  0  0  0  0  0  0  0  0  0
   23.1380  -21.3131   -8.6775 O   0  0  0  0  0  0  0  0  0  0  0  0
   22.1967  -19.9330  -10.1919 O   0  0  0  0  0  0  0  0  0  0  0  0
  2  3  1  0
  2  1  1  0
  3 10  1  0
  4  3  2  0
  6  5  1  0
  7  6  1  0
  7  8  1  0
  9  8  1  1
  9 11  1  0
 10  9  1  0
 11 12  2  0
 11 13  1  0
 13 14  1  0
 14 15  1  6
 15 16  1  0
 16 17  1  0
 17 18  1  0
 19 18  1  0
 20 14  1  0
 20 21  1  0
 22 20  2  0
M  END
$$$$
