GMK.pdb
     RDKit          3D

 22 21  0  0  1  0  0  0  0  0999 V2000
   23.8664  -14.7138  -18.6013 N   0  0  0  0  0  0  0  0  0  0  0  0
   23.9428  -13.3326  -18.9898 C   0  0  0  0  0  0  0  0  0  0  0  0
   24.0038  -12.4283  -17.7977 C   0  0  0  0  0  0  0  0  0  0  0  0
   23.3540  -12.6721  -16.7507 O   0  0  0  0  0  0  0  0  0  0  0  0
   28.2511  -12.8752  -14.6460 C   0  0  0  0  0  0  0  0  0  0  0  0
   27.0643  -12.0746  -15.7308 S   0  0  0  0  0  0  0  0  0  0  0  0
   27.0550  -10.3060  -15.6995 C   0  0  0  0  0  0  0  0  0  0  0  0
   26.0648   -9.5899  -16.5298 C   0  0  0  0  0  0  0  0  0  0  0  0
   24.7707  -10.2520  -16.8321 C   0  0  2  0  0  0  0  0  0  0  0  0
   24.8175  -11.2669  -17.8551 N   0  0  0  0  0  0  0  0  0  0  0  0
   23.8112   -9.1446  -17.2893 C   0  0  0  0  0  0  0  0  0  0  0  0
   23.9399   -8.6278  -18.4271 O   0  0  0  0  0  0  0  0  0  0  0  0
   22.7744   -8.6819  -16.4606 N   0  0  0  0  0  0  0  0  0  0  0  0
   21.8586   -7.6047  -16.8773 C   0  0  1  0  0  0  0  0  0  0  0  0
   20.5079   -8.0412  -16.3400 C   0  0  0  0  0  0  0  0  0  0  0  0
   19.4038   -7.1078  -16.6060 C   0  0  0  0  0  0  0  0  0  0  0  0
   18.0760   -7.5703  -16.1445 C   0  0  0  0  0  0  0  0  0  0  0  0
   16.9618   -6.5882  -16.2879 C   0  0  0  0  0  0  0  0  0  0  0  0
   15.7016   -6.9924  -15.7552 N   0  0  0  0  0  0  0  0  0  0  0  0
   22.2143   -6.3328  -16.2105 C   0  0  0  0  0  0  0  0  0  0  0  0
   21.7574   -5.1560  -16.7730 O   0  0  0  0  0  0  0  0  0  0  0  0
   22.8921   -6.2914  -15.1894 O   0  0  0  0  0  0  0  0  0  0  0  0
  2  3  1  0
  2  1  1  0
  3 10  1  0
  4  3  2  0
  6  5  1  0
  7  6  1  0
  7  8  1  0
  9  8  1  6
  9 11  1  0
 10  9  1  0
 11 12  2  0
 11 13  1  0
 13 14  1  0
 14 15  1  1
 15 16  1  0
 16 17  1  0
 17 18  1  0
 19 18  1  0
 20 14  1  0
 20 21  1  0
 22 20  2  0
M  END
$$$$
