GMK.pdb
     RDKit          3D

 22 21  0  0  1  0  0  0  0  0999 V2000
   20.9731  -21.2041   -9.4088 N   0  0  0  0  0  0  0  0  0  0  0  0
   21.4189  -21.3440  -10.7675 C   0  0  0  0  0  0  0  0  0  0  0  0
   22.7099  -20.6216  -11.0001 C   0  0  0  0  0  0  0  0  0  0  0  0
   22.7704  -19.5935  -11.7193 O   0  0  0  0  0  0  0  0  0  0  0  0
   27.8012  -19.2950   -5.8156 C   0  0  0  0  0  0  0  0  0  0  0  0
   27.5548  -20.4796   -7.1431 S   0  0  0  0  0  0  0  0  0  0  0  0
   26.2419  -20.1177   -8.2719 C   0  0  0  0  0  0  0  0  0  0  0  0
   26.2100  -20.8246   -9.5687 C   0  0  0  0  0  0  0  0  0  0  0  0
   25.1666  -20.4574  -10.5592 C   0  0  2  0  0  0  0  0  0  0  0  0
   23.8937  -21.1134  -10.3910 N   0  0  0  0  0  0  0  0  0  0  0  0
   25.7264  -20.8287  -11.9394 C   0  0  0  0  0  0  0  0  0  0  0  0
   25.7180  -22.0249  -12.3230 O   0  0  0  0  0  0  0  0  0  0  0  0
   26.2575  -19.8554  -12.8034 N   0  0  0  0  0  0  0  0  0  0  0  0
   26.6779  -20.1738  -14.1798 C   0  0  1  0  0  0  0  0  0  0  0  0
   27.0454  -18.8263  -14.7736 C   0  0  0  0  0  0  0  0  0  0  0  0
   27.4965  -18.8674  -16.1722 C   0  0  0  0  0  0  0  0  0  0  0  0
   27.9230  -17.5625  -16.7248 C   0  0  0  0  0  0  0  0  0  0  0  0
   28.3773  -17.5779  -18.1460 C   0  0  0  0  0  0  0  0  0  0  0  0
   28.8405  -16.3329  -18.6663 N   0  0  0  0  0  0  0  0  0  0  0  0
   27.9011  -21.0061  -14.1705 C   0  0  0  0  0  0  0  0  0  0  0  0
   28.1252  -21.8414  -15.2485 O   0  0  0  0  0  0  0  0  0  0  0  0
   28.7100  -20.9779  -13.2493 O   0  0  0  0  0  0  0  0  0  0  0  0
  2  3  1  0
  2  1  1  0
  3 10  1  0
  4  3  2  0
  6  5  1  0
  7  6  1  0
  7  8  1  0
  9  8  1  1
  9 11  1  0
 10  9  1  0
 11 12  2  0
 11 13  1  0
 13 14  1  0
 14 15  1  6
 15 16  1  0
 16 17  1  0
 17 18  1  0
 19 18  1  0
 20 14  1  0
 20 21  1  0
 22 20  2  0
M  END
$$$$
