GMK.pdb
     RDKit          3D

 22 21  0  0  1  0  0  0  0  0999 V2000
   24.6000  -16.1494  -19.7952 N   0  0  0  0  0  0  0  0  0  0  0  0
   23.7658  -14.9927  -19.9711 C   0  0  0  0  0  0  0  0  0  0  0  0
   22.5757  -15.0294  -19.0629 C   0  0  0  0  0  0  0  0  0  0  0  0
   21.5320  -15.6584  -19.3681 O   0  0  0  0  0  0  0  0  0  0  0  0
   20.6090  -18.7540  -14.7845 C   0  0  0  0  0  0  0  0  0  0  0  0
   20.5621  -17.0802  -15.4345 S   0  0  0  0  0  0  0  0  0  0  0  0
   21.9188  -16.0366  -14.9883 C   0  0  0  0  0  0  0  0  0  0  0  0
   21.9264  -14.6413  -15.4739 C   0  0  0  0  0  0  0  0  0  0  0  0
   21.5420  -14.3711  -16.8823 C   0  0  2  0  0  0  0  0  0  0  0  0
   22.6313  -14.3351  -17.8263 N   0  0  0  0  0  0  0  0  0  0  0  0
   20.8473  -13.0023  -16.8892 C   0  0  0  0  0  0  0  0  0  0  0  0
   21.5110  -11.9564  -16.6800 O   0  0  0  0  0  0  0  0  0  0  0  0
   19.4672  -12.8796  -17.1264 N   0  0  0  0  0  0  0  0  0  0  0  0
   18.7912  -11.5704  -17.1644 C   0  0  1  0  0  0  0  0  0  0  0  0
   17.5225  -11.8338  -17.9546 C   0  0  0  0  0  0  0  0  0  0  0  0
   16.7177  -10.6398  -18.2511 C   0  0  0  0  0  0  0  0  0  0  0  0
   15.5350  -10.8858  -19.1060 C   0  0  0  0  0  0  0  0  0  0  0  0
   14.7035   -9.6878  -19.4221 C   0  0  0  0  0  0  0  0  0  0  0  0
   13.7178   -9.8633  -20.4384 N   0  0  0  0  0  0  0  0  0  0  0  0
   18.3904  -11.1525  -15.8028 C   0  0  0  0  0  0  0  0  0  0  0  0
   18.2115   -9.8028  -15.5653 O   0  0  0  0  0  0  0  0  0  0  0  0
   18.2149  -11.9549  -14.8924 O   0  0  0  0  0  0  0  0  0  0  0  0
  2  3  1  0
  2  1  1  0
  3 10  1  0
  4  3  2  0
  6  5  1  0
  7  6  1  0
  7  8  1  0
  9  8  1  1
  9 11  1  0
 10  9  1  0
 11 12  2  0
 11 13  1  0
 13 14  1  0
 14 15  1  6
 15 16  1  0
 16 17  1  0
 17 18  1  0
 19 18  1  0
 20 14  1  0
 20 21  1  0
 22 20  2  0
M  END
$$$$
