GMK.pdb
     RDKit          3D

 22 21  0  0  1  0  0  0  0  0999 V2000
   28.9505  -21.1867  -16.7302 N   0  0  0  0  0  0  0  0  0  0  0  0
   28.1383  -20.1722  -16.1172 C   0  0  0  0  0  0  0  0  0  0  0  0
   27.2587  -20.7431  -15.0482 C   0  0  0  0  0  0  0  0  0  0  0  0
   27.1130  -21.9826  -14.9058 O   0  0  0  0  0  0  0  0  0  0  0  0
   24.7356  -21.8382   -8.4096 C   0  0  0  0  0  0  0  0  0  0  0  0
   25.6337  -21.2701   -9.8576 S   0  0  0  0  0  0  0  0  0  0  0  0
   24.9232  -19.9009  -10.7231 C   0  0  0  0  0  0  0  0  0  0  0  0
   25.5931  -19.4138  -11.9465 C   0  0  0  0  0  0  0  0  0  0  0  0
   25.7474  -20.3409  -13.0960 C   0  0  2  0  0  0  0  0  0  0  0  0
   26.5736  -19.8588  -14.1748 N   0  0  0  0  0  0  0  0  0  0  0  0
   24.3358  -20.5969  -13.6416 C   0  0  0  0  0  0  0  0  0  0  0  0
   23.7017  -19.6736  -14.2104 O   0  0  0  0  0  0  0  0  0  0  0  0
   23.7187  -21.8544  -13.5231 N   0  0  0  0  0  0  0  0  0  0  0  0
   22.4247  -22.1564  -14.1610 C   0  0  1  0  0  0  0  0  0  0  0  0
   22.4715  -23.6549  -14.3975 C   0  0  0  0  0  0  0  0  0  0  0  0
   23.6339  -24.1253  -15.1648 C   0  0  0  0  0  0  0  0  0  0  0  0
   23.6717  -25.5859  -15.4000 C   0  0  0  0  0  0  0  0  0  0  0  0
   24.8349  -26.0850  -16.1903 C   0  0  0  0  0  0  0  0  0  0  0  0
   24.8903  -27.4957  -16.3954 N   0  0  0  0  0  0  0  0  0  0  0  0
   21.3091  -21.8865  -13.2274 C   0  0  0  0  0  0  0  0  0  0  0  0
   21.5099  -22.1467  -11.8850 O   0  0  0  0  0  0  0  0  0  0  0  0
   20.2281  -21.4457  -13.6026 O   0  0  0  0  0  0  0  0  0  0  0  0
  2  3  1  0
  2  1  1  0
  3 10  1  0
  4  3  2  0
  6  5  1  0
  7  6  1  0
  7  8  1  0
  9  8  1  1
  9 11  1  0
 10  9  1  0
 11 12  2  0
 11 13  1  0
 13 14  1  0
 14 15  1  1
 15 16  1  0
 16 17  1  0
 17 18  1  0
 19 18  1  0
 20 14  1  0
 20 21  1  0
 22 20  2  0
M  END
$$$$
