GMK.pdb
     RDKit          3D

 22 21  0  0  1  0  0  0  0  0999 V2000
   20.9906  -14.4230  -19.7694 N   0  0  0  0  0  0  0  0  0  0  0  0
   21.3217  -13.0417  -19.9863 C   0  0  0  0  0  0  0  0  0  0  0  0
   21.5513  -12.3214  -18.6937 C   0  0  0  0  0  0  0  0  0  0  0  0
   20.6537  -12.2325  -17.8195 O   0  0  0  0  0  0  0  0  0  0  0  0
   27.7771  -10.4798  -16.3884 C   0  0  0  0  0  0  0  0  0  0  0  0
   26.5681  -10.2050  -15.0888 S   0  0  0  0  0  0  0  0  0  0  0  0
   24.8720  -10.2255  -15.5903 C   0  0  0  0  0  0  0  0  0  0  0  0
   24.5177  -10.8993  -16.8564 C   0  0  0  0  0  0  0  0  0  0  0  0
   23.0888  -10.9735  -17.2528 C   0  0  2  0  0  0  0  0  0  0  0  0
   22.8164  -11.7249  -18.4528 N   0  0  0  0  0  0  0  0  0  0  0  0
   22.6208   -9.5275  -17.4678 C   0  0  0  0  0  0  0  0  0  0  0  0
   23.0108   -8.8803  -18.4714 O   0  0  0  0  0  0  0  0  0  0  0  0
   21.7540   -8.8929  -16.5612 N   0  0  0  0  0  0  0  0  0  0  0  0
   21.3800   -7.4736  -16.6962 C   0  0  1  0  0  0  0  0  0  0  0  0
   19.8624   -7.4926  -16.7124 C   0  0  0  0  0  0  0  0  0  0  0  0
   19.2275   -6.1754  -16.8638 C   0  0  0  0  0  0  0  0  0  0  0  0
   17.7493   -6.1878  -16.7940 C   0  0  0  0  0  0  0  0  0  0  0  0
   17.0799   -4.8699  -16.9980 C   0  0  0  0  0  0  0  0  0  0  0  0
   15.6717   -4.8440  -16.7709 N   0  0  0  0  0  0  0  0  0  0  0  0
   21.8041   -6.7084  -15.5031 C   0  0  0  0  0  0  0  0  0  0  0  0
   22.1509   -7.4167  -14.3681 O   0  0  0  0  0  0  0  0  0  0  0  0
   21.8565   -5.4833  -15.4906 O   0  0  0  0  0  0  0  0  0  0  0  0
  2  3  1  0
  2  1  1  0
  3 10  1  0
  4  3  2  0
  6  5  1  0
  7  6  1  0
  7  8  1  0
  9  8  1  6
  9 11  1  0
 10  9  1  0
 11 12  2  0
 11 13  1  0
 13 14  1  0
 14 15  1  1
 15 16  1  0
 16 17  1  0
 17 18  1  0
 19 18  1  0
 20 14  1  0
 20 21  1  0
 22 20  2  0
M  END
$$$$
