GMK.pdb
     RDKit          3D

 22 21  0  0  1  0  0  0  0  0999 V2000
   20.8171  -18.2407  -15.7916 N   0  0  0  0  0  0  0  0  0  0  0  0
   21.7175  -18.0245  -16.8903 C   0  0  0  0  0  0  0  0  0  0  0  0
   22.6827  -16.9167  -16.6009 C   0  0  0  0  0  0  0  0  0  0  0  0
   22.2969  -15.7339  -16.4277 O   0  0  0  0  0  0  0  0  0  0  0  0
   27.9249  -19.7988  -14.0781 C   0  0  0  0  0  0  0  0  0  0  0  0
   27.8292  -18.0358  -13.7484 S   0  0  0  0  0  0  0  0  0  0  0  0
   26.3645  -17.2198  -14.3120 C   0  0  0  0  0  0  0  0  0  0  0  0
   26.3387  -16.6859  -15.6893 C   0  0  0  0  0  0  0  0  0  0  0  0
   25.0512  -16.1961  -16.2436 C   0  0  2  0  0  0  0  0  0  0  0  0
   24.0682  -17.2138  -16.5206 N   0  0  0  0  0  0  0  0  0  0  0  0
   25.3883  -15.4755  -17.5563 C   0  0  0  0  0  0  0  0  0  0  0  0
   25.6190  -16.1376  -18.5987 O   0  0  0  0  0  0  0  0  0  0  0  0
   25.4481  -14.0731  -17.6307 N   0  0  0  0  0  0  0  0  0  0  0  0
   25.7806  -13.3674  -18.8814 C   0  0  1  0  0  0  0  0  0  0  0  0
   24.4872  -12.6737  -19.2679 C   0  0  0  0  0  0  0  0  0  0  0  0
   24.5212  -11.9741  -20.5603 C   0  0  0  0  0  0  0  0  0  0  0  0
   23.2578  -11.3002  -20.9341 C   0  0  0  0  0  0  0  0  0  0  0  0
   23.2511  -10.6289  -22.2667 C   0  0  0  0  0  0  0  0  0  0  0  0
   22.0099  -10.0510  -22.6677 N   0  0  0  0  0  0  0  0  0  0  0  0
   26.7932  -12.3177  -18.6327 C   0  0  0  0  0  0  0  0  0  0  0  0
   27.4275  -11.7570  -19.7251 O   0  0  0  0  0  0  0  0  0  0  0  0
   27.0825  -11.9357  -17.5040 O   0  0  0  0  0  0  0  0  0  0  0  0
  2  3  1  0
  2  1  1  0
  3 10  1  0
  4  3  2  0
  6  5  1  0
  7  6  1  0
  7  8  1  0
  9  8  1  6
  9 11  1  0
 10  9  1  0
 11 12  2  0
 11 13  1  0
 13 14  1  0
 14 15  1  1
 15 16  1  0
 16 17  1  0
 17 18  1  0
 19 18  1  0
 20 14  1  0
 20 21  1  0
 22 20  2  0
M  END
$$$$
