DEA.pdb
     RDKit          3D

 23 22  0  0  1  0  0  0  0  0999 V2000
   11.5992  -17.2567   20.8989 N   0  0  0  0  0  0  0  0  0  0  0  0
   12.3821  -17.2622   22.1188 C   0  0  1  0  0  0  0  0  0  0  0  0
   13.4944  -16.2404   22.0556 C   0  0  0  0  0  0  0  0  0  0  0  0
   14.4305  -16.5283   20.9422 C   0  0  0  0  0  0  0  0  0  0  0  0
   14.9527  -17.6588   20.8849 O   0  0  0  0  0  0  0  0  0  0  0  0
   11.4663  -17.0396   23.2451 C   0  0  0  0  0  0  0  0  0  0  0  0
   10.5398  -16.1904   23.1799 O   0  0  0  0  0  0  0  0  0  0  0  0
   14.7394  -15.5906   19.9743 O   0  0  0  0  0  0  0  0  0  0  0  0
   11.5482  -17.7553   24.4882 N   0  0  0  0  0  0  0  0  0  0  0  0
   10.7063  -17.5459   25.6129 C   0  0  1  0  0  0  0  0  0  0  0  0
   10.6631  -18.8202   26.4586 C   0  0  0  0  0  0  0  0  0  0  0  0
    9.7418  -18.6179   27.6431 C   0  0  0  0  0  0  0  0  0  0  0  0
    9.7177  -19.8319   28.4861 C   0  0  0  0  0  0  0  0  0  0  0  0
    8.7972  -20.6825   28.3419 O   0  0  0  0  0  0  0  0  0  0  0  0
   11.1297  -16.4481   26.5057 C   0  0  0  0  0  0  0  0  0  0  0  0
   12.3203  -16.3239   26.8980 O   0  0  0  0  0  0  0  0  0  0  0  0
   10.7029  -20.0210   29.4216 O   0  0  0  0  0  0  0  0  0  0  0  0
    9.4156  -13.3531   27.6912 C   0  0  0  0  0  0  0  0  0  0  0  0
   10.4252  -14.4764   27.8166 C   0  0  2  0  0  0  0  0  0  0  0  0
   10.1149  -15.5308   26.9030 N   0  0  0  0  0  0  0  0  0  0  0  0
   10.4744  -15.0132   29.1854 C   0  0  0  0  0  0  0  0  0  0  0  0
   10.9558  -14.2197   30.2085 O   0  0  0  0  0  0  0  0  0  0  0  0
   10.0869  -16.1773   29.4370 O   0  0  0  0  0  0  0  0  0  0  0  0
  2  1  1  6
  2  6  1  0
  3  2  1  0
  3  4  1  0
  4  8  1  0
  5  4  2  0
  6  7  2  0
  9 10  1  0
  9  6  1  0
 10 15  1  0
 11 12  1  0
 10 11  1  1
 12 13  1  0
 13 14  2  0
 15 16  2  0
 17 13  1  0
 19 18  1  1
 19 21  1  0
 20 15  1  0
 20 19  1  0
 21 23  2  0
 21 22  1  0
M  END
$$$$
