DEA.pdb
     RDKit          3D

 23 22  0  0  1  0  0  0  0  0999 V2000
   10.4006  -17.3794   14.1475 N   0  0  0  0  0  0  0  0  0  0  0  0
    9.8008  -16.0671   14.0093 C   0  0  1  0  0  0  0  0  0  0  0  0
    8.9404  -15.9905   12.7686 C   0  0  0  0  0  0  0  0  0  0  0  0
    9.7674  -15.8720   11.5435 C   0  0  0  0  0  0  0  0  0  0  0  0
   10.9588  -16.2350   11.5958 O   0  0  0  0  0  0  0  0  0  0  0  0
    9.0535  -15.7792   15.2403 C   0  0  0  0  0  0  0  0  0  0  0  0
    8.5057  -14.6621   15.4296 O   0  0  0  0  0  0  0  0  0  0  0  0
    9.2630  -15.3759   10.3556 O   0  0  0  0  0  0  0  0  0  0  0  0
    8.8882  -16.7259   16.3083 N   0  0  0  0  0  0  0  0  0  0  0  0
    8.1617  -16.4930   17.5064 C   0  0  1  0  0  0  0  0  0  0  0  0
    8.0548  -17.7986   18.2969 C   0  0  0  0  0  0  0  0  0  0  0  0
    6.6865  -18.4129   18.0888 C   0  0  0  0  0  0  0  0  0  0  0  0
    6.5952  -19.7096   18.7924 C   0  0  0  0  0  0  0  0  0  0  0  0
    7.5786  -20.1381   19.4565 O   0  0  0  0  0  0  0  0  0  0  0  0
    8.7625  -15.4892   18.4080 C   0  0  0  0  0  0  0  0  0  0  0  0
    9.9806  -15.5184   18.7278 O   0  0  0  0  0  0  0  0  0  0  0  0
    5.4349  -20.4371   18.7146 O   0  0  0  0  0  0  0  0  0  0  0  0
    7.3369  -12.4447   20.0886 C   0  0  0  0  0  0  0  0  0  0  0  0
    8.3497  -13.5539   19.8869 C   0  0  2  0  0  0  0  0  0  0  0  0
    7.8870  -14.4792   18.9008 N   0  0  0  0  0  0  0  0  0  0  0  0
    8.6266  -14.2722   21.1406 C   0  0  0  0  0  0  0  0  0  0  0  0
    9.4500  -13.6932   22.0866 O   0  0  0  0  0  0  0  0  0  0  0  0
    8.1278  -15.3993   21.3629 O   0  0  0  0  0  0  0  0  0  0  0  0
  2  1  1  1
  2  6  1  0
  3  2  1  0
  3  4  1  0
  4  8  1  0
  5  4  2  0
  6  7  2  0
  9 10  1  0
  9  6  1  0
 10 15  1  0
 11 12  1  0
 10 11  1  1
 12 13  1  0
 13 14  2  0
 15 16  2  0
 17 13  1  0
 19 18  1  1
 19 21  1  0
 20 15  1  0
 20 19  1  0
 21 23  2  0
 21 22  1  0
M  END
$$$$
