DEA.pdb
     RDKit          3D

 23 22  0  0  1  0  0  0  0  0999 V2000
   10.9431  -17.7842   16.8211 N   0  0  0  0  0  0  0  0  0  0  0  0
    9.5975  -17.2710   16.9867 C   0  0  1  0  0  0  0  0  0  0  0  0
    8.6310  -17.9700   16.0579 C   0  0  0  0  0  0  0  0  0  0  0  0
    9.3465  -18.7836   15.0454 C   0  0  0  0  0  0  0  0  0  0  0  0
    8.6814  -19.3139   14.1342 O   0  0  0  0  0  0  0  0  0  0  0  0
    9.2310  -17.4109   18.4019 C   0  0  0  0  0  0  0  0  0  0  0  0
    8.1068  -17.0395   18.8286 O   0  0  0  0  0  0  0  0  0  0  0  0
   10.7160  -18.9705   15.0801 O   0  0  0  0  0  0  0  0  0  0  0  0
   10.1039  -17.9704   19.3964 N   0  0  0  0  0  0  0  0  0  0  0  0
    9.7712  -18.1676   20.7632 C   0  0  1  0  0  0  0  0  0  0  0  0
   10.2009  -19.5719   21.1924 C   0  0  0  0  0  0  0  0  0  0  0  0
   11.3198  -20.0613   20.2973 C   0  0  0  0  0  0  0  0  0  0  0  0
   11.7212  -21.4309   20.6819 C   0  0  0  0  0  0  0  0  0  0  0  0
   12.6801  -21.6063   21.4829 O   0  0  0  0  0  0  0  0  0  0  0  0
   10.4068  -17.2161   21.6972 C   0  0  0  0  0  0  0  0  0  0  0  0
   11.5882  -16.8087   21.5391 O   0  0  0  0  0  0  0  0  0  0  0  0
   11.0423  -22.5025   20.1603 O   0  0  0  0  0  0  0  0  0  0  0  0
    9.0288  -15.1255   24.4607 C   0  0  0  0  0  0  0  0  0  0  0  0
   10.1458  -15.8564   23.7431 C   0  0  2  0  0  0  0  0  0  0  0  0
    9.6088  -16.7801   22.7937 N   0  0  0  0  0  0  0  0  0  0  0  0
   11.0192  -16.5741   24.6846 C   0  0  0  0  0  0  0  0  0  0  0  0
   11.9100  -15.8603   25.4625 O   0  0  0  0  0  0  0  0  0  0  0  0
   10.9674  -17.8208   24.7914 O   0  0  0  0  0  0  0  0  0  0  0  0
  2  1  1  1
  2  6  1  0
  3  2  1  0
  3  4  1  0
  4  8  1  0
  5  4  2  0
  6  7  2  0
  9 10  1  0
  9  6  1  0
 10 15  1  0
 11 12  1  0
 10 11  1  1
 12 13  1  0
 13 14  2  0
 15 16  2  0
 17 13  1  0
 19 18  1  1
 19 21  1  0
 20 15  1  0
 20 19  1  0
 21 23  2  0
 21 22  1  0
M  END
$$$$
