DEA.pdb
     RDKit          3D

 23 22  0  0  1  0  0  0  0  0999 V2000
    8.9739  -17.6186   20.8649 N   0  0  0  0  0  0  0  0  0  0  0  0
    8.5935  -16.2476   20.5879 C   0  0  1  0  0  0  0  0  0  0  0  0
    7.7879  -16.1541   19.3120 C   0  0  0  0  0  0  0  0  0  0  0  0
    8.6028  -16.5242   18.1297 C   0  0  0  0  0  0  0  0  0  0  0  0
    9.6725  -17.1366   18.3159 O   0  0  0  0  0  0  0  0  0  0  0  0
    7.8704  -15.7333   21.7580 C   0  0  0  0  0  0  0  0  0  0  0  0
    7.4252  -14.5566   21.7896 O   0  0  0  0  0  0  0  0  0  0  0  0
    8.2166  -16.2142   16.8388 O   0  0  0  0  0  0  0  0  0  0  0  0
    7.6158  -16.5112   22.9388 N   0  0  0  0  0  0  0  0  0  0  0  0
    6.9240  -16.0517   24.0911 C   0  0  1  0  0  0  0  0  0  0  0  0
    6.6716  -17.2294   25.0346 C   0  0  0  0  0  0  0  0  0  0  0  0
    7.9885  -17.8731   25.4142 C   0  0  0  0  0  0  0  0  0  0  0  0
    7.7563  -19.0189   26.3186 C   0  0  0  0  0  0  0  0  0  0  0  0
    8.0331  -18.9209   27.5456 O   0  0  0  0  0  0  0  0  0  0  0  0
    7.6378  -15.0190   24.8693 C   0  0  0  0  0  0  0  0  0  0  0  0
    8.8954  -14.9552   24.9043 O   0  0  0  0  0  0  0  0  0  0  0  0
    7.2391  -20.1833   25.8105 O   0  0  0  0  0  0  0  0  0  0  0  0
    6.4382  -11.9957   26.7263 C   0  0  0  0  0  0  0  0  0  0  0  0
    7.4348  -13.0892   26.3981 C   0  0  2  0  0  0  0  0  0  0  0  0
    6.8247  -14.0925   25.5833 N   0  0  0  0  0  0  0  0  0  0  0  0
    7.9801  -13.7112   27.6147 C   0  0  0  0  0  0  0  0  0  0  0  0
    8.7849  -12.9667   28.4550 O   0  0  0  0  0  0  0  0  0  0  0  0
    7.7262  -14.9040   27.8996 O   0  0  0  0  0  0  0  0  0  0  0  0
  2  1  1  1
  2  6  1  0
  3  2  1  0
  3  4  1  0
  4  8  1  0
  5  4  2  0
  6  7  2  0
  9 10  1  0
  9  6  1  0
 10 15  1  0
 11 12  1  0
 10 11  1  1
 12 13  1  0
 13 14  2  0
 15 16  2  0
 17 13  1  0
 19 18  1  1
 19 21  1  0
 20 15  1  0
 20 19  1  0
 21 23  2  0
 21 22  1  0
M  END
$$$$
