DEA.pdb
     RDKit          3D

 23 22  0  0  1  0  0  0  0  0999 V2000
    8.9713  -17.7122   20.9868 N   0  0  0  0  0  0  0  0  0  0  0  0
    8.0503  -16.6648   20.5918 C   0  0  1  0  0  0  0  0  0  0  0  0
    7.1155  -17.1444   19.5048 C   0  0  0  0  0  0  0  0  0  0  0  0
    7.8378  -17.3638   18.2285 C   0  0  0  0  0  0  0  0  0  0  0  0
    8.5739  -18.3649   18.1292 O   0  0  0  0  0  0  0  0  0  0  0  0
    7.3409  -16.2089   21.7941 C   0  0  0  0  0  0  0  0  0  0  0  0
    6.4911  -15.2821   21.7431 O   0  0  0  0  0  0  0  0  0  0  0  0
    7.7213  -16.5006   17.1547 O   0  0  0  0  0  0  0  0  0  0  0  0
    7.5516  -16.7689   23.1003 N   0  0  0  0  0  0  0  0  0  0  0  0
    6.9770  -16.2819   24.3046 C   0  0  1  0  0  0  0  0  0  0  0  0
    7.0491  -17.3703   25.3775 C   0  0  0  0  0  0  0  0  0  0  0  0
    8.4754  -17.8596   25.5159 C   0  0  0  0  0  0  0  0  0  0  0  0
    8.5709  -18.8582   26.6015 C   0  0  0  0  0  0  0  0  0  0  0  0
    9.6961  -19.1552   27.0888 O   0  0  0  0  0  0  0  0  0  0  0  0
    7.6334  -15.0815   24.8610 C   0  0  0  0  0  0  0  0  0  0  0  0
    8.8769  -14.8981   24.7791 O   0  0  0  0  0  0  0  0  0  0  0  0
    7.4278  -19.4544   27.0697 O   0  0  0  0  0  0  0  0  0  0  0  0
    6.2814  -11.9177   26.3275 C   0  0  0  0  0  0  0  0  0  0  0  0
    7.3427  -12.9810   26.1284 C   0  0  2  0  0  0  0  0  0  0  0  0
    6.7813  -14.1353   25.4997 N   0  0  0  0  0  0  0  0  0  0  0  0
    7.9667  -13.3719   27.4020 C   0  0  0  0  0  0  0  0  0  0  0  0
    8.7626  -12.4647   28.0742 O   0  0  0  0  0  0  0  0  0  0  0  0
    7.7877  -14.5133   27.8855 O   0  0  0  0  0  0  0  0  0  0  0  0
  2  1  1  1
  2  6  1  0
  3  2  1  0
  3  4  1  0
  4  8  1  0
  5  4  2  0
  6  7  2  0
  9 10  1  0
  9  6  1  0
 10 15  1  0
 11 12  1  0
 10 11  1  1
 12 13  1  0
 13 14  2  0
 15 16  2  0
 17 13  1  0
 19 18  1  1
 19 21  1  0
 20 15  1  0
 20 19  1  0
 21 23  2  0
 21 22  1  0
M  END
$$$$
