DEA.pdb
     RDKit          3D

 23 22  0  0  1  0  0  0  0  0999 V2000
   11.4120  -14.7719   15.9368 N   0  0  0  0  0  0  0  0  0  0  0  0
   11.8055  -16.1666   15.9706 C   0  0  1  0  0  0  0  0  0  0  0  0
   12.5899  -16.5403   14.7334 C   0  0  0  0  0  0  0  0  0  0  0  0
   11.8688  -16.1506   13.4977 C   0  0  0  0  0  0  0  0  0  0  0  0
   10.8058  -15.5091   13.6097 O   0  0  0  0  0  0  0  0  0  0  0  0
   12.5556  -16.3952   17.2122 C   0  0  0  0  0  0  0  0  0  0  0  0
   12.9568  -17.5435   17.5349 O   0  0  0  0  0  0  0  0  0  0  0  0
   12.3344  -16.4734   12.2365 O   0  0  0  0  0  0  0  0  0  0  0  0
   12.8876  -15.3519   18.1426 N   0  0  0  0  0  0  0  0  0  0  0  0
   13.5794  -15.5357   19.3694 C   0  0  1  0  0  0  0  0  0  0  0  0
   14.5927  -14.4045   19.5549 C   0  0  0  0  0  0  0  0  0  0  0  0
   15.9183  -14.7977   18.9375 C   0  0  0  0  0  0  0  0  0  0  0  0
   16.9168  -13.7277   19.1444 C   0  0  0  0  0  0  0  0  0  0  0  0
   17.3606  -13.0790   18.1575 O   0  0  0  0  0  0  0  0  0  0  0  0
   12.7178  -15.5458   20.5690 C   0  0  0  0  0  0  0  0  0  0  0  0
   11.9780  -14.5723   20.8719 O   0  0  0  0  0  0  0  0  0  0  0  0
   17.3524  -13.4504   20.4151 O   0  0  0  0  0  0  0  0  0  0  0  0
   11.6679  -18.2400   22.9010 C   0  0  0  0  0  0  0  0  0  0  0  0
   11.9972  -16.7976   22.5732 C   0  0  2  0  0  0  0  0  0  0  0  0
   12.7671  -16.7219   21.3714 N   0  0  0  0  0  0  0  0  0  0  0  0
   12.7327  -16.1453   23.6677 C   0  0  0  0  0  0  0  0  0  0  0  0
   12.0800  -15.8685   24.8533 O   0  0  0  0  0  0  0  0  0  0  0  0
   13.9401  -15.8376   23.5411 O   0  0  0  0  0  0  0  0  0  0  0  0
  2  1  1  6
  2  6  1  0
  3  2  1  0
  3  4  1  0
  4  8  1  0
  5  4  2  0
  6  7  2  0
  9 10  1  0
  9  6  1  0
 10 15  1  0
 11 12  1  0
 10 11  1  1
 12 13  1  0
 13 14  2  0
 15 16  2  0
 17 13  1  0
 19 18  1  1
 19 21  1  0
 20 15  1  0
 20 19  1  0
 21 23  2  0
 21 22  1  0
M  END
$$$$
