DEA.pdb
     RDKit          3D

 23 22  0  0  1  0  0  0  0  0999 V2000
    6.5302  -17.1001   19.5915 N   0  0  0  0  0  0  0  0  0  0  0  0
    7.5169  -16.3479   20.3411 C   0  0  1  0  0  0  0  0  0  0  0  0
    7.7771  -15.0034   19.7008 C   0  0  0  0  0  0  0  0  0  0  0  0
    8.5165  -15.1468   18.4234 C   0  0  0  0  0  0  0  0  0  0  0  0
    9.3837  -16.0382   18.3381 O   0  0  0  0  0  0  0  0  0  0  0  0
    7.0446  -16.2378   21.7272 C   0  0  0  0  0  0  0  0  0  0  0  0
    5.8853  -15.8277   21.9951 O   0  0  0  0  0  0  0  0  0  0  0  0
    8.2763  -14.3301   17.3340 O   0  0  0  0  0  0  0  0  0  0  0  0
    7.8468  -16.5806   22.8688 N   0  0  0  0  0  0  0  0  0  0  0  0
    7.4432  -16.4507   24.2244 C   0  0  1  0  0  0  0  0  0  0  0  0
    7.8615  -17.7012   25.0004 C   0  0  0  0  0  0  0  0  0  0  0  0
    7.4904  -17.5462   26.4603 C   0  0  0  0  0  0  0  0  0  0  0  0
    7.8230  -18.7780   27.2065 C   0  0  0  0  0  0  0  0  0  0  0  0
    8.3726  -19.7465   26.6134 O   0  0  0  0  0  0  0  0  0  0  0  0
    8.0195  -15.2893   24.9320 C   0  0  0  0  0  0  0  0  0  0  0  0
    9.2610  -15.0817   24.9804 O   0  0  0  0  0  0  0  0  0  0  0  0
    7.5285  -18.8547   28.5440 O   0  0  0  0  0  0  0  0  0  0  0  0
    6.4428  -12.3280   26.6083 C   0  0  0  0  0  0  0  0  0  0  0  0
    7.5683  -13.3043   26.3317 C   0  0  2  0  0  0  0  0  0  0  0  0
    7.0920  -14.4101   25.5614 N   0  0  0  0  0  0  0  0  0  0  0  0
    8.1764  -13.8002   27.5762 C   0  0  0  0  0  0  0  0  0  0  0  0
    8.9214  -12.9385   28.3575 O   0  0  0  0  0  0  0  0  0  0  0  0
    8.0290  -14.9903   27.9375 O   0  0  0  0  0  0  0  0  0  0  0  0
  2  1  1  6
  2  6  1  0
  3  2  1  0
  3  4  1  0
  4  8  1  0
  5  4  2  0
  6  7  2  0
  9 10  1  0
  9  6  1  0
 10 15  1  0
 11 12  1  0
 10 11  1  1
 12 13  1  0
 13 14  2  0
 15 16  2  0
 17 13  1  0
 19 18  1  1
 19 21  1  0
 20 15  1  0
 20 19  1  0
 21 23  2  0
 21 22  1  0
M  END
$$$$
