DEA.pdb
     RDKit          3D

 23 22  0  0  1  0  0  0  0  0999 V2000
   11.4726  -16.5826   19.5282 N   0  0  0  0  0  0  0  0  0  0  0  0
   12.0111  -15.9161   20.6974 C   0  0  1  0  0  0  0  0  0  0  0  0
   12.4666  -14.5141   20.3624 C   0  0  0  0  0  0  0  0  0  0  0  0
   13.7064  -14.5282   19.5490 C   0  0  0  0  0  0  0  0  0  0  0  0
   14.3744  -15.5798   19.5059 O   0  0  0  0  0  0  0  0  0  0  0  0
   10.9856  -15.9469   21.7482 C   0  0  0  0  0  0  0  0  0  0  0  0
    9.7643  -15.8088   21.4778 O   0  0  0  0  0  0  0  0  0  0  0  0
   14.1407  -13.4215   18.8431 O   0  0  0  0  0  0  0  0  0  0  0  0
   11.2822  -16.1328   23.1417 N   0  0  0  0  0  0  0  0  0  0  0  0
   10.3232  -16.1550   24.1891 C   0  0  1  0  0  0  0  0  0  0  0  0
    9.8254  -17.5876   24.3911 C   0  0  0  0  0  0  0  0  0  0  0  0
   10.9970  -18.5464   24.3585 C   0  0  0  0  0  0  0  0  0  0  0  0
   10.5249  -19.9373   24.5234 C   0  0  0  0  0  0  0  0  0  0  0  0
    9.4714  -20.3193   23.9438 O   0  0  0  0  0  0  0  0  0  0  0  0
   10.8244  -15.6828   25.4958 C   0  0  0  0  0  0  0  0  0  0  0  0
   12.0372  -15.7769   25.8228 O   0  0  0  0  0  0  0  0  0  0  0  0
   11.2421  -20.8025   25.3098 O   0  0  0  0  0  0  0  0  0  0  0  0
    9.3157  -13.4963   28.0905 C   0  0  0  0  0  0  0  0  0  0  0  0
   10.2670  -14.5857   27.6378 C   0  0  2  0  0  0  0  0  0  0  0  0
    9.8584  -15.1114   26.3731 N   0  0  0  0  0  0  0  0  0  0  0  0
   10.3488  -15.6787   28.6191 C   0  0  0  0  0  0  0  0  0  0  0  0
   10.9931  -15.4637   29.8220 O   0  0  0  0  0  0  0  0  0  0  0  0
    9.8439  -16.7998   28.3808 O   0  0  0  0  0  0  0  0  0  0  0  0
  2  1  1  6
  2  6  1  0
  3  2  1  0
  3  4  1  0
  4  8  1  0
  5  4  2  0
  6  7  2  0
  9 10  1  0
  9  6  1  0
 10 15  1  0
 11 12  1  0
 10 11  1  1
 12 13  1  0
 13 14  2  0
 15 16  2  0
 17 13  1  0
 19 18  1  1
 19 21  1  0
 20 15  1  0
 20 19  1  0
 21 23  2  0
 21 22  1  0
M  END
$$$$
