DEA.pdb
     RDKit          3D

 23 22  0  0  1  0  0  0  0  0999 V2000
    8.3981  -16.0886   20.8118 N   0  0  0  0  0  0  0  0  0  0  0  0
    8.4180  -14.7316   21.3210 C   0  0  1  0  0  0  0  0  0  0  0  0
    7.4296  -13.8589   20.5815 C   0  0  0  0  0  0  0  0  0  0  0  0
    7.7298  -13.8122   19.1300 C   0  0  0  0  0  0  0  0  0  0  0  0
    8.6758  -14.4998   18.6985 O   0  0  0  0  0  0  0  0  0  0  0  0
    8.1608  -14.7867   22.7658 C   0  0  0  0  0  0  0  0  0  0  0  0
    7.8637  -13.7532   23.4195 O   0  0  0  0  0  0  0  0  0  0  0  0
    6.9998  -13.0368   18.2483 O   0  0  0  0  0  0  0  0  0  0  0  0
    8.2251  -15.9965   23.5380 N   0  0  0  0  0  0  0  0  0  0  0  0
    8.0120  -16.0882   24.9393 C   0  0  1  0  0  0  0  0  0  0  0  0
    7.6345  -17.5257   25.3022 C   0  0  0  0  0  0  0  0  0  0  0  0
    6.8810  -18.1630   24.1537 C   0  0  0  0  0  0  0  0  0  0  0  0
    6.5601  -19.5707   24.4705 C   0  0  0  0  0  0  0  0  0  0  0  0
    6.6245  -20.4511   23.5691 O   0  0  0  0  0  0  0  0  0  0  0  0
    9.1805  -15.7256   25.7668 C   0  0  0  0  0  0  0  0  0  0  0  0
   10.3523  -16.0730   25.4619 O   0  0  0  0  0  0  0  0  0  0  0  0
    6.1934  -19.9059   25.7490 O   0  0  0  0  0  0  0  0  0  0  0  0
    9.6806  -13.2190   28.4325 C   0  0  0  0  0  0  0  0  0  0  0  0
    9.9870  -14.5558   27.7877 C   0  0  2  0  0  0  0  0  0  0  0  0
    8.9117  -14.9573   26.9360 N   0  0  0  0  0  0  0  0  0  0  0  0
   10.2317  -15.6014   28.7933 C   0  0  0  0  0  0  0  0  0  0  0  0
   11.3520  -15.5203   29.5974 O   0  0  0  0  0  0  0  0  0  0  0  0
    9.4409  -16.5627   28.9311 O   0  0  0  0  0  0  0  0  0  0  0  0
  2  1  1  6
  2  6  1  0
  3  2  1  0
  3  4  1  0
  4  8  1  0
  5  4  2  0
  6  7  2  0
  9 10  1  0
  9  6  1  0
 10 15  1  0
 11 12  1  0
 10 11  1  6
 12 13  1  0
 13 14  2  0
 15 16  2  0
 17 13  1  0
 19 18  1  1
 19 21  1  0
 20 15  1  0
 20 19  1  0
 21 23  2  0
 21 22  1  0
M  END
$$$$
