TQS.pdb
     RDKit          3D

 23 22  0  0  1  0  0  0  0  0999 V2000
   20.4612   -6.3967  -11.3061 C   0  0  0  0  0  0  0  0  0  0  0  0
   20.5088   -7.1654  -12.5969 C   0  0  1  0  0  0  0  0  0  0  0  0
   21.8105   -7.5703  -12.9121 O   0  0  0  0  0  0  0  0  0  0  0  0
   19.6633   -8.4012  -12.4536 C   0  0  2  0  0  0  0  0  0  0  0  0
   19.7479   -9.2677  -13.5951 N   0  0  0  0  0  0  0  0  0  0  0  0
   18.2583   -8.0283  -12.2161 C   0  0  0  0  0  0  0  0  0  0  0  0
   17.5213   -7.6608  -13.1747 O   0  0  0  0  0  0  0  0  0  0  0  0
   13.9564  -10.6738   -8.9431 N   0  0  0  0  0  0  0  0  0  0  0  0
   13.8636  -10.4161  -10.3379 C   0  0  0  0  0  0  0  0  0  0  0  0
   13.0110  -11.0411  -11.0119 O   0  0  0  0  0  0  0  0  0  0  0  0
   14.7431   -9.4347  -11.0093 C   0  0  0  0  0  0  0  0  0  0  0  0
   15.6519   -8.8084   -9.9773 C   0  0  0  0  0  0  0  0  0  0  0  0
   16.3935   -7.6302  -10.5977 C   0  0  2  0  0  0  0  0  0  0  0  0
   17.7354   -8.0848  -10.8979 N   0  0  0  0  0  0  0  0  0  0  0  0
   16.4744   -6.5226   -9.6135 C   0  0  0  0  0  0  0  0  0  0  0  0
   17.1895   -6.6244   -8.5860 O   0  0  0  0  0  0  0  0  0  0  0  0
   16.3051   -1.8988   -8.6810 O   0  0  0  0  0  0  0  0  0  0  0  0
   16.1618   -2.9184   -9.6382 C   0  0  0  0  0  0  0  0  0  0  0  0
   15.9223   -4.2119   -8.8495 C   0  0  2  0  0  0  0  0  0  0  0  0
   15.7518   -5.3085   -9.7900 N   0  0  0  0  0  0  0  0  0  0  0  0
   14.7072   -4.0114   -8.0441 C   0  0  0  0  0  0  0  0  0  0  0  0
   14.7613   -3.2542   -6.8991 O   0  0  0  0  0  0  0  0  0  0  0  0
   13.6313   -4.5252   -8.3963 O   0  0  0  0  0  0  0  0  0  0  0  0
  2  1  1  1
  2  3  1  0
  4  5  1  6
  4  2  1  0
  6  7  2  0
  6  4  1  0
  8  9  1  0
  9 10  2  0
  9 11  1  0
 11 12  1  0
 13 12  1  1
 13 15  1  0
 13 14  1  0
 14  6  1  0
 15 20  1  0
 16 15  2  0
 18 17  1  0
 19 18  1  6
 19 21  1  0
 20 19  1  0
 21 23  2  0
 21 22  1  0
M  END
$$$$
