TQS.pdb
     RDKit          3D

 23 22  0  0  1  0  0  0  0  0999 V2000
   25.0279  -10.8246  -16.7676 C   0  0  0  0  0  0  0  0  0  0  0  0
   24.3972  -11.8295  -17.6905 C   0  0  1  0  0  0  0  0  0  0  0  0
   25.1094  -13.0336  -17.7115 O   0  0  0  0  0  0  0  0  0  0  0  0
   23.0053  -12.1252  -17.2027 C   0  0  2  0  0  0  0  0  0  0  0  0
   22.3677  -13.1753  -17.9455 N   0  0  0  0  0  0  0  0  0  0  0  0
   22.1803  -10.9063  -17.2575 C   0  0  0  0  0  0  0  0  0  0  0  0
   21.9113  -10.3631  -18.3664 O   0  0  0  0  0  0  0  0  0  0  0  0
   17.2115   -9.8280  -14.0729 N   0  0  0  0  0  0  0  0  0  0  0  0
   17.4487   -8.5417  -14.6292 C   0  0  0  0  0  0  0  0  0  0  0  0
   16.5697   -7.6569  -14.5008 O   0  0  0  0  0  0  0  0  0  0  0  0
   18.6995   -8.2236  -15.3514 C   0  0  0  0  0  0  0  0  0  0  0  0
   19.5634   -9.4623  -15.3994 C   0  0  0  0  0  0  0  0  0  0  0  0
   20.8996   -9.1281  -16.0520 C   0  0  2  0  0  0  0  0  0  0  0  0
   21.6871  -10.3435  -16.0515 N   0  0  0  0  0  0  0  0  0  0  0  0
   21.6037   -8.1036  -15.2418 C   0  0  0  0  0  0  0  0  0  0  0  0
   22.2252   -8.4226  -14.1980 O   0  0  0  0  0  0  0  0  0  0  0  0
   22.8252   -3.4702  -14.5827 O   0  0  0  0  0  0  0  0  0  0  0  0
   22.1160   -4.3611  -15.4072 C   0  0  0  0  0  0  0  0  0  0  0  0
   22.2490   -5.7427  -14.7544 C   0  0  2  0  0  0  0  0  0  0  0  0
   21.6051   -6.7279  -15.6092 N   0  0  0  0  0  0  0  0  0  0  0  0
   21.5887   -5.6686  -13.4415 C   0  0  0  0  0  0  0  0  0  0  0  0
   22.3166   -5.3303  -12.3265 O   0  0  0  0  0  0  0  0  0  0  0  0
   20.3738   -5.9112  -13.3375 O   0  0  0  0  0  0  0  0  0  0  0  0
  2  1  1  1
  2  3  1  0
  4  5  1  6
  4  2  1  0
  6  7  2  0
  6  4  1  0
  8  9  1  0
  9 10  2  0
  9 11  1  0
 11 12  1  0
 13 12  1  1
 13 15  1  0
 13 14  1  0
 14  6  1  0
 15 20  1  0
 16 15  2  0
 18 17  1  0
 19 18  1  6
 19 21  1  0
 20 19  1  0
 21 23  2  0
 21 22  1  0
M  END
$$$$
