TQS.pdb
     RDKit          3D

 23 22  0  0  1  0  0  0  0  0999 V2000
   17.5493  -10.8213  -15.9731 C   0  0  0  0  0  0  0  0  0  0  0  0
   18.2675  -10.9212  -17.2897 C   0  0  1  0  0  0  0  0  0  0  0  0
   18.6410   -9.6628  -17.7739 O   0  0  0  0  0  0  0  0  0  0  0  0
   19.5200  -11.7312  -17.0956 C   0  0  2  0  0  0  0  0  0  0  0  0
   19.2515  -13.0777  -16.6763 N   0  0  0  0  0  0  0  0  0  0  0  0
   20.4018  -11.0727  -16.1167 C   0  0  0  0  0  0  0  0  0  0  0  0
   20.0622  -10.9883  -14.9023 O   0  0  0  0  0  0  0  0  0  0  0  0
   26.5015  -11.0178  -16.5437 N   0  0  0  0  0  0  0  0  0  0  0  0
   25.6658  -11.9341  -15.8492 C   0  0  0  0  0  0  0  0  0  0  0  0
   26.1340  -13.0506  -15.5232 O   0  0  0  0  0  0  0  0  0  0  0  0
   24.2660  -11.6046  -15.5038 C   0  0  0  0  0  0  0  0  0  0  0  0
   23.9502  -10.2192  -16.0177 C   0  0  0  0  0  0  0  0  0  0  0  0
   22.5248   -9.8433  -15.6302 C   0  0  2  0  0  0  0  0  0  0  0  0
   21.6408  -10.5312  -16.5482 N   0  0  0  0  0  0  0  0  0  0  0  0
   22.3370   -8.3805  -15.7935 C   0  0  0  0  0  0  0  0  0  0  0  0
   22.2577   -7.8644  -16.9358 O   0  0  0  0  0  0  0  0  0  0  0  0
   20.2032   -4.5467  -15.1667 O   0  0  0  0  0  0  0  0  0  0  0  0
   20.4338   -5.9299  -15.0679 C   0  0  0  0  0  0  0  0  0  0  0  0
   21.9455   -6.0961  -14.8682 C   0  0  2  0  0  0  0  0  0  0  0  0
   22.2393   -7.5073  -14.6730 N   0  0  0  0  0  0  0  0  0  0  0  0
   22.3164   -5.3091  -13.6814 C   0  0  0  0  0  0  0  0  0  0  0  0
   22.4676   -5.9317  -12.4661 O   0  0  0  0  0  0  0  0  0  0  0  0
   22.4934   -4.0821  -13.7746 O   0  0  0  0  0  0  0  0  0  0  0  0
  2  1  1  1
  2  3  1  0
  4  5  1  1
  4  2  1  0
  6  7  2  0
  6  4  1  0
  8  9  1  0
  9 10  2  0
  9 11  1  0
 11 12  1  0
 13 12  1  6
 13 15  1  0
 13 14  1  0
 14  6  1  0
 15 20  1  0
 16 15  2  0
 18 17  1  0
 19 18  1  1
 19 21  1  0
 20 19  1  0
 21 23  2  0
 21 22  1  0
M  END
$$$$
