TQS.pdb
     RDKit          3D

 23 22  0  0  1  0  0  0  0  0999 V2000
   26.6234  -19.3459  -15.6595 C   0  0  0  0  0  0  0  0  0  0  0  0
   26.5554  -20.6622  -16.3821 C   0  0  1  0  0  0  0  0  0  0  0  0
   27.6456  -21.4821  -16.0707 O   0  0  0  0  0  0  0  0  0  0  0  0
   25.3028  -21.3801  -15.9597 C   0  0  2  0  0  0  0  0  0  0  0  0
   25.1534  -22.6582  -16.5962 N   0  0  0  0  0  0  0  0  0  0  0  0
   24.1223  -20.5449  -16.2391 C   0  0  0  0  0  0  0  0  0  0  0  0
   23.7646  -20.3176  -17.4297 O   0  0  0  0  0  0  0  0  0  0  0  0
   19.8057  -19.1463  -11.8825 N   0  0  0  0  0  0  0  0  0  0  0  0
   19.2973  -18.5360  -13.0612 C   0  0  0  0  0  0  0  0  0  0  0  0
   18.1554  -18.0193  -13.0293 O   0  0  0  0  0  0  0  0  0  0  0  0
   20.0778  -18.4960  -14.3169 C   0  0  0  0  0  0  0  0  0  0  0  0
   21.3804  -19.2317  -14.1049 C   0  0  0  0  0  0  0  0  0  0  0  0
   22.2105  -19.1788  -15.3821 C   0  0  2  0  0  0  0  0  0  0  0  0
   23.3858  -19.9948  -15.1577 N   0  0  0  0  0  0  0  0  0  0  0  0
   22.6415  -17.7815  -15.6348 C   0  0  0  0  0  0  0  0  0  0  0  0
   23.3731  -17.1743  -14.8142 O   0  0  0  0  0  0  0  0  0  0  0  0
   23.8574  -14.3252  -18.5334 O   0  0  0  0  0  0  0  0  0  0  0  0
   23.2959  -15.6105  -18.4377 C   0  0  0  0  0  0  0  0  0  0  0  0
   22.7017  -15.7115  -17.0272 C   0  0  2  0  0  0  0  0  0  0  0  0
   22.2479  -17.0759  -16.8072 N   0  0  0  0  0  0  0  0  0  0  0  0
   21.5788  -14.7628  -16.9597 C   0  0  0  0  0  0  0  0  0  0  0  0
   21.7438  -13.5489  -16.3378 O   0  0  0  0  0  0  0  0  0  0  0  0
   20.4808  -15.0560  -17.4636 O   0  0  0  0  0  0  0  0  0  0  0  0
  2  1  1  1
  2  3  1  0
  4  5  1  6
  4  2  1  0
  6  7  2  0
  6  4  1  0
  8  9  1  0
  9 10  2  0
  9 11  1  0
 11 12  1  0
 13 12  1  1
 13 15  1  0
 13 14  1  0
 14  6  1  0
 15 20  1  0
 16 15  2  0
 18 17  1  0
 19 18  1  6
 19 21  1  0
 20 19  1  0
 21 23  2  0
 21 22  1  0
M  END
$$$$
