TQS.pdb
     RDKit          3D

 23 22  0  0  1  0  0  0  0  0999 V2000
   19.1031  -13.0635  -15.7092 C   0  0  0  0  0  0  0  0  0  0  0  0
   18.9800  -11.5738  -15.5511 C   0  0  1  0  0  0  0  0  0  0  0  0
   19.2129  -10.9029  -16.7566 O   0  0  0  0  0  0  0  0  0  0  0  0
   17.5800  -11.2503  -15.1061 C   0  0  2  0  0  0  0  0  0  0  0  0
   16.5927  -11.5792  -16.0951 N   0  0  0  0  0  0  0  0  0  0  0  0
   17.4771   -9.8231  -14.7569 C   0  0  0  0  0  0  0  0  0  0  0  0
   16.9638   -8.9999  -15.5669 O   0  0  0  0  0  0  0  0  0  0  0  0
   16.6819   -7.5851   -9.0925 N   0  0  0  0  0  0  0  0  0  0  0  0
   16.8940   -6.4047   -9.8553 C   0  0  0  0  0  0  0  0  0  0  0  0
   16.6789   -5.2922   -9.3186 O   0  0  0  0  0  0  0  0  0  0  0  0
   17.3594   -6.4565  -11.2582 C   0  0  0  0  0  0  0  0  0  0  0  0
   17.4331   -7.9013  -11.6944 C   0  0  0  0  0  0  0  0  0  0  0  0
   17.9306   -7.9757  -13.1331 C   0  0  2  0  0  0  0  0  0  0  0  0
   17.9603   -9.3765  -13.4993 N   0  0  0  0  0  0  0  0  0  0  0  0
   19.3101   -7.4340  -13.2085 C   0  0  0  0  0  0  0  0  0  0  0  0
   20.2614   -8.0097  -12.6244 O   0  0  0  0  0  0  0  0  0  0  0  0
   22.3644   -4.1428  -15.0065 O   0  0  0  0  0  0  0  0  0  0  0  0
   21.0381   -4.6086  -15.0235 C   0  0  0  0  0  0  0  0  0  0  0  0
   20.9833   -5.7731  -14.0268 C   0  0  2  0  0  0  0  0  0  0  0  0
   19.6117   -6.2496  -13.9390 N   0  0  0  0  0  0  0  0  0  0  0  0
   21.4485   -5.2573  -12.7295 C   0  0  0  0  0  0  0  0  0  0  0  0
   22.7838   -5.3090  -12.4106 O   0  0  0  0  0  0  0  0  0  0  0  0
   20.6371   -4.7746  -11.9207 O   0  0  0  0  0  0  0  0  0  0  0  0
  2  1  1  6
  2  3  1  0
  4  5  1  6
  4  2  1  0
  6  7  2  0
  6  4  1  0
  8  9  1  0
  9 10  2  0
  9 11  1  0
 11 12  1  0
 13 12  1  1
 13 15  1  0
 13 14  1  0
 14  6  1  0
 15 20  1  0
 16 15  2  0
 18 17  1  0
 19 18  1  6
 19 21  1  0
 20 19  1  0
 21 23  2  0
 21 22  1  0
M  END
$$$$
