TQS.pdb
     RDKit          3D

 23 22  0  0  1  0  0  0  0  0999 V2000
   25.1905  -16.6091  -15.6914 C   0  0  0  0  0  0  0  0  0  0  0  0
   26.2990  -17.1211  -16.5680 C   0  0  1  0  0  0  0  0  0  0  0  0
   27.0244  -16.0763  -17.1509 O   0  0  0  0  0  0  0  0  0  0  0  0
   27.2482  -17.9269  -15.7239 C   0  0  2  0  0  0  0  0  0  0  0  0
   28.4041  -18.3664  -16.4531 N   0  0  0  0  0  0  0  0  0  0  0  0
   26.5514  -19.0903  -15.1492 C   0  0  0  0  0  0  0  0  0  0  0  0
   26.2993  -20.1033  -15.8616 O   0  0  0  0  0  0  0  0  0  0  0  0
   25.8018  -19.9327   -8.9510 N   0  0  0  0  0  0  0  0  0  0  0  0
   25.0568  -21.0057   -9.5112 C   0  0  0  0  0  0  0  0  0  0  0  0
   24.5394  -21.8486   -8.7407 O   0  0  0  0  0  0  0  0  0  0  0  0
   24.8781  -21.1513  -10.9722 C   0  0  0  0  0  0  0  0  0  0  0  0
   25.6356  -20.0449  -11.6686 C   0  0  0  0  0  0  0  0  0  0  0  0
   25.4671  -20.1817  -13.1772 C   0  0  2  0  0  0  0  0  0  0  0  0
   26.1633  -19.0661  -13.7842 N   0  0  0  0  0  0  0  0  0  0  0  0
   24.0274  -20.0911  -13.5247 C   0  0  0  0  0  0  0  0  0  0  0  0
   23.3956  -19.0154  -13.3790 O   0  0  0  0  0  0  0  0  0  0  0  0
   19.9556  -22.3839  -14.7731 O   0  0  0  0  0  0  0  0  0  0  0  0
   21.3544  -22.4971  -14.6906 C   0  0  0  0  0  0  0  0  0  0  0  0
   21.8625  -21.1392  -14.1902 C   0  0  2  0  0  0  0  0  0  0  0  0
   23.3070  -21.2090  -14.0334 N   0  0  0  0  0  0  0  0  0  0  0  0
   21.2023  -20.8760  -12.9017 C   0  0  0  0  0  0  0  0  0  0  0  0
   21.8279  -21.2208  -11.7282 O   0  0  0  0  0  0  0  0  0  0  0  0
   20.0799  -20.3424  -12.8713 O   0  0  0  0  0  0  0  0  0  0  0  0
  2  1  1  1
  2  3  1  0
  4  5  1  6
  4  2  1  0
  6  7  2  0
  6  4  1  0
  8  9  1  0
  9 10  2  0
  9 11  1  0
 11 12  1  0
 13 12  1  1
 13 15  1  0
 13 14  1  0
 14  6  1  0
 15 20  1  0
 16 15  2  0
 18 17  1  0
 19 18  1  1
 19 21  1  0
 20 19  1  0
 21 23  2  0
 21 22  1  0
M  END
$$$$
