TQS.pdb
     RDKit          3D

 23 22  0  0  1  0  0  0  0  0999 V2000
   13.7357  -10.3094  -13.6958 C   0  0  0  0  0  0  0  0  0  0  0  0
   14.8829   -9.3395  -13.6456 C   0  0  1  0  0  0  0  0  0  0  0  0
   14.5052   -8.1178  -13.0778 O   0  0  0  0  0  0  0  0  0  0  0  0
   15.9740   -9.9268  -12.7928 C   0  0  2  0  0  0  0  0  0  0  0  0
   15.5887  -10.0680  -11.4171 N   0  0  0  0  0  0  0  0  0  0  0  0
   17.1894   -9.1001  -12.8859 C   0  0  0  0  0  0  0  0  0  0  0  0
   17.4816   -8.2832  -11.9670 O   0  0  0  0  0  0  0  0  0  0  0  0
   22.1391  -10.3361  -16.5011 N   0  0  0  0  0  0  0  0  0  0  0  0
   22.4339   -9.0464  -15.9815 C   0  0  0  0  0  0  0  0  0  0  0  0
   23.5614   -8.5473  -16.2086 O   0  0  0  0  0  0  0  0  0  0  0  0
   21.4491   -8.2836  -15.1843 C   0  0  0  0  0  0  0  0  0  0  0  0
   20.2311   -9.1483  -14.9570 C   0  0  0  0  0  0  0  0  0  0  0  0
   19.1645   -8.3452  -14.2219 C   0  0  2  0  0  0  0  0  0  0  0  0
   18.0341   -9.2276  -14.0194 N   0  0  0  0  0  0  0  0  0  0  0  0
   18.7334   -7.2045  -15.0673 C   0  0  0  0  0  0  0  0  0  0  0  0
   18.0420   -7.3920  -16.0990 O   0  0  0  0  0  0  0  0  0  0  0  0
   17.2780   -2.8145  -15.5403 O   0  0  0  0  0  0  0  0  0  0  0  0
   17.7339   -3.8401  -14.6938 C   0  0  0  0  0  0  0  0  0  0  0  0
   18.5913   -4.7638  -15.5680 C   0  0  2  0  0  0  0  0  0  0  0  0
   19.0815   -5.8612  -14.7485 N   0  0  0  0  0  0  0  0  0  0  0  0
   19.7043   -3.9564  -16.0922 C   0  0  0  0  0  0  0  0  0  0  0  0
   19.4613   -2.9800  -17.0276 O   0  0  0  0  0  0  0  0  0  0  0  0
   20.8643   -4.1548  -15.6914 O   0  0  0  0  0  0  0  0  0  0  0  0
  2  1  1  1
  2  3  1  0
  4  5  1  1
  4  2  1  0
  6  7  2  0
  6  4  1  0
  8  9  1  0
  9 10  2  0
  9 11  1  0
 11 12  1  0
 13 12  1  6
 13 15  1  0
 13 14  1  0
 14  6  1  0
 15 20  1  0
 16 15  2  0
 18 17  1  0
 19 18  1  1
 19 21  1  0
 20 19  1  0
 21 23  2  0
 21 22  1  0
M  END
$$$$
