TQS.pdb
     RDKit          3D

 23 22  0  0  1  0  0  0  0  0999 V2000
   19.8661  -11.9940  -18.7871 C   0  0  0  0  0  0  0  0  0  0  0  0
   19.7693  -13.1783  -17.8666 C   0  0  1  0  0  0  0  0  0  0  0  0
   19.3658  -14.3326  -18.5465 O   0  0  0  0  0  0  0  0  0  0  0  0
   21.1272  -13.4419  -17.2756 C   0  0  2  0  0  0  0  0  0  0  0  0
   21.1871  -14.6802  -16.5515 N   0  0  0  0  0  0  0  0  0  0  0  0
   21.5190  -12.3305  -16.3921 C   0  0  0  0  0  0  0  0  0  0  0  0
   20.8772  -12.0997  -15.3282 O   0  0  0  0  0  0  0  0  0  0  0  0
   27.2918  -10.2764  -16.2168 N   0  0  0  0  0  0  0  0  0  0  0  0
   26.6984  -11.3791  -15.5444 C   0  0  0  0  0  0  0  0  0  0  0  0
   27.4442  -12.2560  -15.0477 O   0  0  0  0  0  0  0  0  0  0  0  0
   25.2312  -11.5165  -15.4172 C   0  0  0  0  0  0  0  0  0  0  0  0
   24.5722  -10.3137  -16.0512 C   0  0  0  0  0  0  0  0  0  0  0  0
   23.0593  -10.4221  -15.9012 C   0  0  2  0  0  0  0  0  0  0  0  0
   22.6271  -11.5168  -16.7451 N   0  0  0  0  0  0  0  0  0  0  0  0
   22.4234   -9.1703  -16.3814 C   0  0  0  0  0  0  0  0  0  0  0  0
   22.1763   -8.9996  -17.6010 O   0  0  0  0  0  0  0  0  0  0  0  0
   19.5535   -7.7957  -17.3099 O   0  0  0  0  0  0  0  0  0  0  0  0
   19.8173   -7.3624  -15.9988 C   0  0  0  0  0  0  0  0  0  0  0  0
   21.3022   -6.9795  -15.9678 C   0  0  2  0  0  0  0  0  0  0  0  0
   22.0693   -8.1189  -15.4889 N   0  0  0  0  0  0  0  0  0  0  0  0
   21.4361   -5.8310  -15.0576 C   0  0  0  0  0  0  0  0  0  0  0  0
   21.2744   -4.5539  -15.5374 O   0  0  0  0  0  0  0  0  0  0  0  0
   21.6951   -6.0124  -13.8552 O   0  0  0  0  0  0  0  0  0  0  0  0
  2  1  1  6
  2  3  1  0
  4  5  1  1
  4  2  1  0
  6  7  2  0
  6  4  1  0
  8  9  1  0
  9 10  2  0
  9 11  1  0
 11 12  1  0
 13 12  1  6
 13 15  1  0
 13 14  1  0
 14  6  1  0
 15 20  1  0
 16 15  2  0
 18 17  1  0
 19 18  1  1
 19 21  1  0
 20 19  1  0
 21 23  2  0
 21 22  1  0
M  END
$$$$
