TQS.pdb
     RDKit          3D

 23 22  0  0  1  0  0  0  0  0999 V2000
-14080985.0000817153.687523758652.0000 C   0  0  0  0  0  0  0  0  0  0  0  0
-14080985.0000817153.687523758652.0000 C   0  0  0  0  0  0  0  0  0  0  0  0
-14080985.0000817152.937523758658.0000 O   0  0  0  0  0  0  0  0  0  0  0  0
-14080986.0000817155.187523758650.0000 C   0  0  1  0  0  0  0  0  0  0  0  0
-14080988.0000817153.187523758648.0000 N   0  0  0  0  0  0  0  0  0  0  0  0
-14080988.0000817153.937523758648.0000 C   0  0  0  0  0  0  0  0  0  0  0  0
-14080986.0000817155.187523758650.0000 O   0  0  0  0  0  0  0  0  0  0  0  0
-14080984.0000817149.687523758652.0000 N   0  0  0  0  0  0  0  0  0  0  0  0
-14080983.0000817148.937523758654.0000 C   0  0  0  0  0  0  0  0  0  0  0  0
-14080985.0000817151.937523758654.0000 O   0  0  0  0  0  0  0  0  0  0  0  0
-14080984.0000817149.687523758652.0000 C   0  0  0  0  0  0  0  0  0  0  0  0
-14080988.0000817152.937523758650.0000 C   0  0  0  0  0  0  0  0  0  0  0  0
-14080988.0000817152.437523758648.0000 C   0  0  1  0  0  0  0  0  0  0  0  0
-14080984.0000817151.937523758656.0000 N   0  0  0  0  0  0  0  0  0  0  0  0
-14080985.0000817149.937523758652.0000 C   0  0  0  0  0  0  0  0  0  0  0  0
-14080988.0000817154.187523758648.0000 O   0  0  0  0  0  0  0  0  0  0  0  0
-14080982.0000817154.687523758646.0000 O   0  0  0  0  0  0  0  0  0  0  0  0
-14080980.0000817153.437523758642.0000 C   0  0  0  0  0  0  0  0  0  0  0  0
-14080981.0000817149.687523758646.0000 C   0  0  0  0  0  0  0  0  0  0  0  0
-14080982.0000817150.437523758652.0000 N   0  0  0  0  0  0  0  0  0  0  0  0
-14080980.0000817153.437523758642.0000 C   0  0  0  0  0  0  0  0  0  0  0  0
-14080980.0000817153.437523758642.0000 O   0  0  0  0  0  0  0  0  0  0  0  0
-14080983.0000817150.937523758652.0000 O   0  0  0  0  0  0  0  0  0  0  0  0
  2  1  1  1
  2  3  1  0
  4  5  1  1
  4  2  1  0
  6  7  2  0
  6  4  1  0
  8  9  1  0
  9 10  2  0
  9 11  1  0
 11 12  1  0
 13 12  1  6
 13 15  1  0
 13 14  1  0
 14  6  1  0
 15 20  1  0
 16 15  2  0
 18 17  1  0
 19 18  1  1
 19 21  1  0
 20 19  1  0
 21 23  2  0
 21 22  1  0
M  END
$$$$
