TQS.pdb
     RDKit          3D

 23 22  0  0  1  0  0  0  0  0999 V2000
   19.2318  -12.1243  -14.6497 C   0  0  0  0  0  0  0  0  0  0  0  0
   18.3772  -10.8907  -14.5657 C   0  0  1  0  0  0  0  0  0  0  0  0
   18.1181  -10.3517  -15.8306 O   0  0  0  0  0  0  0  0  0  0  0  0
   17.0587  -11.2590  -13.9423 C   0  0  2  0  0  0  0  0  0  0  0  0
   16.3040  -12.1813  -14.7428 N   0  0  0  0  0  0  0  0  0  0  0  0
   16.2597  -10.0467  -13.6949 C   0  0  0  0  0  0  0  0  0  0  0  0
   15.3224   -9.7250  -14.4792 O   0  0  0  0  0  0  0  0  0  0  0  0
   15.4410   -7.7334   -8.0941 N   0  0  0  0  0  0  0  0  0  0  0  0
   14.3609   -8.2753   -8.8425 C   0  0  0  0  0  0  0  0  0  0  0  0
   13.3415   -8.6726   -8.2303 O   0  0  0  0  0  0  0  0  0  0  0  0
   14.4100   -8.3811  -10.3169 C   0  0  0  0  0  0  0  0  0  0  0  0
   15.7382   -7.8467  -10.8001 C   0  0  0  0  0  0  0  0  0  0  0  0
   15.8330   -8.0062  -12.3129 C   0  0  2  0  0  0  0  0  0  0  0  0
   16.5507   -9.2386  -12.5649 N   0  0  0  0  0  0  0  0  0  0  0  0
   16.6100   -6.8773  -12.8819 C   0  0  0  0  0  0  0  0  0  0  0  0
   17.8572   -6.8196  -12.7452 O   0  0  0  0  0  0  0  0  0  0  0  0
   16.9267   -3.2384  -15.9663 O   0  0  0  0  0  0  0  0  0  0  0  0
   16.0977   -4.2496  -15.4500 C   0  0  0  0  0  0  0  0  0  0  0  0
   16.7791   -4.7457  -14.1685 C   0  0  2  0  0  0  0  0  0  0  0  0
   15.9811   -5.8210  -13.6005 N   0  0  0  0  0  0  0  0  0  0  0  0
   16.8578   -3.6011  -13.2469 C   0  0  0  0  0  0  0  0  0  0  0  0
   17.9115   -2.7239  -13.3323 O   0  0  0  0  0  0  0  0  0  0  0  0
   15.9735   -3.4252  -12.3909 O   0  0  0  0  0  0  0  0  0  0  0  0
  2  1  1  6
  2  3  1  0
  4  5  1  6
  4  2  1  0
  6  7  2  0
  6  4  1  0
  8  9  1  0
  9 10  2  0
  9 11  1  0
 11 12  1  0
 13 12  1  1
 13 15  1  0
 13 14  1  0
 14  6  1  0
 15 20  1  0
 16 15  2  0
 18 17  1  0
 19 18  1  6
 19 21  1  0
 20 19  1  0
 21 23  2  0
 21 22  1  0
M  END
$$$$
