TQS.pdb
     RDKit          3D

 23 22  0  0  1  0  0  0  0  0999 V2000
   16.5586   -8.5758  -18.9143 C   0  0  0  0  0  0  0  0  0  0  0  0
   16.6975   -9.9178  -18.2517 C   0  0  1  0  0  0  0  0  0  0  0  0
   16.6165  -10.9643  -19.1769 O   0  0  0  0  0  0  0  0  0  0  0  0
   18.0460   -9.9911  -17.5891 C   0  0  2  0  0  0  0  0  0  0  0  0
   18.3209  -11.2847  -17.0304 N   0  0  0  0  0  0  0  0  0  0  0  0
   18.1502   -8.9640  -16.5387 C   0  0  0  0  0  0  0  0  0  0  0  0
   17.5293   -9.0985  -15.4462 O   0  0  0  0  0  0  0  0  0  0  0  0
   23.1467   -6.1994  -14.7480 N   0  0  0  0  0  0  0  0  0  0  0  0
   22.1672   -5.3963  -14.1033 C   0  0  0  0  0  0  0  0  0  0  0  0
   22.5405   -4.5595  -13.2476 O   0  0  0  0  0  0  0  0  0  0  0  0
   20.7271   -5.5229  -14.4155 C   0  0  0  0  0  0  0  0  0  0  0  0
   20.5422   -6.6353  -15.4212 C   0  0  0  0  0  0  0  0  0  0  0  0
   19.0648   -6.7659  -15.7725 C   0  0  2  0  0  0  0  0  0  0  0  0
   18.9560   -7.8173  -16.7625 N   0  0  0  0  0  0  0  0  0  0  0  0
   18.5842   -5.4960  -16.3710 C   0  0  0  0  0  0  0  0  0  0  0  0
   18.8043   -5.2285  -17.5782 O   0  0  0  0  0  0  0  0  0  0  0  0
   15.4743   -2.0868  -16.8204 O   0  0  0  0  0  0  0  0  0  0  0  0
   15.8695   -3.2347  -16.1114 C   0  0  0  0  0  0  0  0  0  0  0  0
   17.3969   -3.3053  -16.2334 C   0  0  2  0  0  0  0  0  0  0  0  0
   17.8597   -4.5352  -15.6097 N   0  0  0  0  0  0  0  0  0  0  0  0
   17.9430   -2.1248  -15.5452 C   0  0  0  0  0  0  0  0  0  0  0  0
   18.0801   -0.9383  -16.2240 O   0  0  0  0  0  0  0  0  0  0  0  0
   18.2809   -2.1974  -14.3510 O   0  0  0  0  0  0  0  0  0  0  0  0
  2  1  1  6
  2  3  1  0
  4  5  1  1
  4  2  1  0
  6  7  2  0
  6  4  1  0
  8  9  1  0
  9 10  2  0
  9 11  1  0
 11 12  1  0
 13 12  1  6
 13 15  1  0
 13 14  1  0
 14  6  1  0
 15 20  1  0
 16 15  2  0
 18 17  1  0
 19 18  1  1
 19 21  1  0
 20 19  1  0
 21 23  2  0
 21 22  1  0
M  END
$$$$
