TQS.pdb
     RDKit          3D

 23 22  0  0  1  0  0  0  0  0999 V2000
   19.6449  -10.7168  -14.8407 C   0  0  0  0  0  0  0  0  0  0  0  0
   18.6841   -9.5825  -14.6179 C   0  0  1  0  0  0  0  0  0  0  0  0
   18.2086   -9.0602  -15.8256 O   0  0  0  0  0  0  0  0  0  0  0  0
   17.5031  -10.0965  -13.8408 C   0  0  2  0  0  0  0  0  0  0  0  0
   16.7514  -11.0848  -14.5615 N   0  0  0  0  0  0  0  0  0  0  0  0
   16.6209   -8.9793  -13.4630 C   0  0  0  0  0  0  0  0  0  0  0  0
   15.7270   -8.5708  -14.2576 O   0  0  0  0  0  0  0  0  0  0  0  0
   15.4256   -7.5126   -7.5431 N   0  0  0  0  0  0  0  0  0  0  0  0
   14.7454   -6.4856   -8.2521 C   0  0  0  0  0  0  0  0  0  0  0  0
   13.9818   -5.7187   -7.6191 O   0  0  0  0  0  0  0  0  0  0  0  0
   14.9156   -6.3006   -9.7096 C   0  0  0  0  0  0  0  0  0  0  0  0
   15.8409   -7.3745  -10.2326 C   0  0  0  0  0  0  0  0  0  0  0  0
   15.8991   -7.3020  -11.7539 C   0  0  2  0  0  0  0  0  0  0  0  0
   16.7818   -8.3619  -12.1952 N   0  0  0  0  0  0  0  0  0  0  0  0
   16.4765   -5.9984  -12.1656 C   0  0  0  0  0  0  0  0  0  0  0  0
   17.7090   -5.7787  -12.0644 O   0  0  0  0  0  0  0  0  0  0  0  0
   16.3927   -2.1326  -14.8534 O   0  0  0  0  0  0  0  0  0  0  0  0
   15.8242   -3.3778  -14.5332 C   0  0  0  0  0  0  0  0  0  0  0  0
   16.2707   -3.6937  -13.1001 C   0  0  2  0  0  0  0  0  0  0  0  0
   15.6660   -4.9508  -12.6880 N   0  0  0  0  0  0  0  0  0  0  0  0
   15.8160   -2.5832  -12.2484 C   0  0  0  0  0  0  0  0  0  0  0  0
   16.5047   -1.3945  -12.2467 O   0  0  0  0  0  0  0  0  0  0  0  0
   14.8102   -2.7169  -11.5300 O   0  0  0  0  0  0  0  0  0  0  0  0
  2  1  1  6
  2  3  1  0
  4  5  1  6
  4  2  1  0
  6  7  2  0
  6  4  1  0
  8  9  1  0
  9 10  2  0
  9 11  1  0
 11 12  1  0
 13 12  1  1
 13 15  1  0
 13 14  1  0
 14  6  1  0
 15 20  1  0
 16 15  2  0
 18 17  1  0
 19 18  1  6
 19 21  1  0
 20 19  1  0
 21 23  2  0
 21 22  1  0
M  END
$$$$
