NMP.pdb
     RDKit          3D

 24 24  0  0  1  0  0  0  0  0999 V2000
    9.9520  -18.8867   19.4835 N   0  0  0  0  0  0  0  0  0  0  0  0
   10.8063  -19.1241   20.5735 C   0  0  0  0  0  0  0  0  0  0  0  0
   11.3580  -20.2316   20.7244 O   0  0  0  0  0  0  0  0  0  0  0  0
   11.0607  -18.0517   21.5607 C   0  0  0  0  0  0  0  0  0  0  0  0
   10.1466  -16.8707   21.2851 C   0  0  2  0  0  0  0  0  0  0  0  0
   10.6399  -16.2152   20.1139 N   0  0  0  0  0  0  0  0  0  0  0  0
   10.1427  -15.9991   22.4966 C   0  0  0  0  0  0  0  0  0  0  0  0
   11.1328  -15.2673   22.7551 O   0  0  0  0  0  0  0  0  0  0  0  0
    5.8303  -11.4144   26.9826 C   0  0  0  0  0  0  0  0  0  0  0  0
    5.8567  -13.0034   26.1382 S   0  0  0  0  0  0  0  0  0  0  0  0
    7.5799  -13.6738   26.0686 C   0  0  0  0  0  0  0  0  0  0  0  0
    7.7362  -14.5167   24.8425 C   0  0  0  0  0  0  0  0  0  0  0  0
    9.1198  -15.0305   24.5627 C   0  0  2  0  0  0  0  0  0  0  0  0
    9.0480  -15.9451   23.4073 N   0  0  0  0  0  0  0  0  0  0  0  0
    9.6299  -15.7784   25.7199 C   0  0  0  0  0  0  0  0  0  0  0  0
    9.8969  -17.0278   25.3797 O   0  0  0  0  0  0  0  0  0  0  0  0
    9.8598  -15.4025   27.0316 N   0  0  0  0  0  0  0  0  0  0  0  0
    9.3881  -14.3733   27.8756 C   0  0  0  0  0  0  0  0  0  0  0  0
   10.7455  -13.7399   28.2793 C   0  0  0  0  0  0  0  0  0  0  0  0
   11.5494  -15.0168   28.5512 C   0  0  0  0  0  0  0  0  0  0  0  0
   10.7718  -16.1546   27.9236 C   0  0  1  0  0  0  0  0  0  0  0  0
   10.0362  -16.9786   28.8855 C   0  0  0  0  0  0  0  0  0  0  0  0
    8.7943  -17.0201   29.0329 O   0  0  0  0  0  0  0  0  0  0  0  0
   10.7892  -17.7962   29.7186 O   0  0  0  0  0  0  0  0  0  0  0  0
  1  2  1  0
  2  3  2  0
  4  2  1  0
  5  7  1  0
  5  4  1  0
  5  6  1  6
  7 14  1  0
  7  8  2  0
  9 10  1  0
 10 11  1  0
 12 11  1  0
 13 12  1  1
 14 13  1  0
 15 17  1  0
 15 13  1  0
 16 15  2  0
 17 21  1  0
 18 19  1  0
 18 17  1  0
 19 20  1  0
 20 21  1  0
 21 22  1  1
 22 24  1  0
 23 22  2  0
M  END
$$$$
