NMP.pdb
     RDKit          3D

 24 24  0  0  1  0  0  0  0  0999 V2000
   10.2813  -19.9496   20.6417 N   0  0  0  0  0  0  0  0  0  0  0  0
   11.0861  -18.8053   20.5107 C   0  0  0  0  0  0  0  0  0  0  0  0
   11.7965  -18.6352   19.5007 O   0  0  0  0  0  0  0  0  0  0  0  0
   11.0975  -17.7831   21.5805 C   0  0  0  0  0  0  0  0  0  0  0  0
   10.0874  -16.6945   21.2633 C   0  0  2  0  0  0  0  0  0  0  0  0
   10.6102  -15.9344   20.1707 N   0  0  0  0  0  0  0  0  0  0  0  0
    9.8764  -15.8877   22.5011 C   0  0  0  0  0  0  0  0  0  0  0  0
   10.7335  -15.0395   22.8596 O   0  0  0  0  0  0  0  0  0  0  0  0
    6.3942  -11.6624   27.3916 C   0  0  0  0  0  0  0  0  0  0  0  0
    6.8301  -12.5207   25.8711 S   0  0  0  0  0  0  0  0  0  0  0  0
    6.7828  -14.3532   26.1226 C   0  0  0  0  0  0  0  0  0  0  0  0
    7.1206  -15.0403   24.8373 C   0  0  0  0  0  0  0  0  0  0  0  0
    8.5826  -15.1596   24.5133 C   0  0  2  0  0  0  0  0  0  0  0  0
    8.7236  -16.0257   23.3273 N   0  0  0  0  0  0  0  0  0  0  0  0
    9.3043  -15.7794   25.6330 C   0  0  0  0  0  0  0  0  0  0  0  0
    9.6780  -17.0075   25.3170 O   0  0  0  0  0  0  0  0  0  0  0  0
    9.6333  -15.3073   26.8914 N   0  0  0  0  0  0  0  0  0  0  0  0
    9.2354  -14.2087   27.6844 C   0  0  0  0  0  0  0  0  0  0  0  0
   10.6252  -13.5680   27.9386 C   0  0  0  0  0  0  0  0  0  0  0  0
   11.4335  -14.8330   28.2507 C   0  0  0  0  0  0  0  0  0  0  0  0
   10.6002  -16.0031   27.7713 C   0  0  1  0  0  0  0  0  0  0  0  0
    9.9282  -16.7385   28.8451 C   0  0  0  0  0  0  0  0  0  0  0  0
    8.7045  -16.7214   29.1057 O   0  0  0  0  0  0  0  0  0  0  0  0
   10.7260  -17.5350   29.6567 O   0  0  0  0  0  0  0  0  0  0  0  0
  1  2  1  0
  2  3  2  0
  4  2  1  0
  5  7  1  0
  5  4  1  0
  5  6  1  6
  7 14  1  0
  7  8  2  0
  9 10  1  0
 10 11  1  0
 12 11  1  0
 13 12  1  1
 14 13  1  0
 15 17  1  0
 15 13  1  0
 16 15  2  0
 17 21  1  0
 18 19  1  0
 18 17  1  0
 19 20  1  0
 20 21  1  0
 21 22  1  1
 22 24  1  0
 23 22  2  0
M  END
$$$$
