NMP.pdb
     RDKit          3D

 24 24  0  0  1  0  0  0  0  0999 V2000
    9.1398  -18.6280   19.2878 N   0  0  0  0  0  0  0  0  0  0  0  0
    9.6687  -19.1610   20.4754 C   0  0  0  0  0  0  0  0  0  0  0  0
    9.8191  -20.3906   20.6133 O   0  0  0  0  0  0  0  0  0  0  0  0
   10.0551  -18.2589   21.5828 C   0  0  0  0  0  0  0  0  0  0  0  0
    9.6552  -16.8325   21.2484 C   0  0  2  0  0  0  0  0  0  0  0  0
   10.5300  -16.3771   20.2130 N   0  0  0  0  0  0  0  0  0  0  0  0
    9.7446  -16.0242   22.4999 C   0  0  0  0  0  0  0  0  0  0  0  0
   10.8560  -15.5868   22.8949 O   0  0  0  0  0  0  0  0  0  0  0  0
    5.6900  -11.5066   27.6242 C   0  0  0  0  0  0  0  0  0  0  0  0
    5.7403  -12.6058   26.2001 S   0  0  0  0  0  0  0  0  0  0  0  0
    7.3915  -13.4310   26.0741 C   0  0  0  0  0  0  0  0  0  0  0  0
    7.4819  -14.1664   24.7744 C   0  0  0  0  0  0  0  0  0  0  0  0
    8.7844  -14.8603   24.4940 C   0  0  2  0  0  0  0  0  0  0  0  0
    8.6082  -15.7082   23.2996 N   0  0  0  0  0  0  0  0  0  0  0  0
    9.1586  -15.7193   25.6258 C   0  0  0  0  0  0  0  0  0  0  0  0
    9.0644  -16.9939   25.2877 O   0  0  0  0  0  0  0  0  0  0  0  0
    9.5687  -15.4207   26.9131 N   0  0  0  0  0  0  0  0  0  0  0  0
    9.3076  -14.3801   27.8312 C   0  0  0  0  0  0  0  0  0  0  0  0
   10.7622  -13.9116   28.0978 C   0  0  0  0  0  0  0  0  0  0  0  0
   11.4446  -15.2767   28.2448 C   0  0  0  0  0  0  0  0  0  0  0  0
   10.4828  -16.2998   27.6779 C   0  0  1  0  0  0  0  0  0  0  0  0
    9.7685  -17.0765   28.6938 C   0  0  0  0  0  0  0  0  0  0  0  0
    8.5508  -16.9974   28.9707 O   0  0  0  0  0  0  0  0  0  0  0  0
   10.5143  -17.9929   29.4242 O   0  0  0  0  0  0  0  0  0  0  0  0
  1  2  1  0
  2  3  2  0
  4  2  1  0
  5  7  1  0
  5  4  1  0
  5  6  1  6
  7 14  1  0
  7  8  2  0
  9 10  1  0
 10 11  1  0
 12 11  1  0
 13 12  1  1
 14 13  1  0
 15 17  1  0
 15 13  1  0
 16 15  2  0
 17 21  1  0
 18 19  1  0
 18 17  1  0
 19 20  1  0
 20 21  1  0
 21 22  1  1
 22 24  1  0
 23 22  2  0
M  END
$$$$
