NMP.pdb
     RDKit          3D

 24 24  0  0  1  0  0  0  0  0999 V2000
   11.1679  -20.1691   20.1350 N   0  0  0  0  0  0  0  0  0  0  0  0
   10.2417  -19.4250   20.8853 C   0  0  0  0  0  0  0  0  0  0  0  0
    9.0263  -19.7001   20.8556 O   0  0  0  0  0  0  0  0  0  0  0  0
   10.7054  -18.2981   21.7247 C   0  0  0  0  0  0  0  0  0  0  0  0
    9.9656  -17.0295   21.3379 C   0  0  2  0  0  0  0  0  0  0  0  0
   10.6278  -16.4827   20.1945 N   0  0  0  0  0  0  0  0  0  0  0  0
    9.9684  -16.1169   22.5189 C   0  0  0  0  0  0  0  0  0  0  0  0
   11.0004  -15.4591   22.8102 O   0  0  0  0  0  0  0  0  0  0  0  0
    5.7811  -11.1980   26.7449 C   0  0  0  0  0  0  0  0  0  0  0  0
    5.7342  -12.8502   26.0331 S   0  0  0  0  0  0  0  0  0  0  0  0
    7.4314  -13.5855   25.9847 C   0  0  0  0  0  0  0  0  0  0  0  0
    7.5751  -14.4238   24.7540 C   0  0  0  0  0  0  0  0  0  0  0  0
    8.9315  -15.0234   24.5144 C   0  0  2  0  0  0  0  0  0  0  0  0
    8.8341  -15.9410   23.3633 N   0  0  0  0  0  0  0  0  0  0  0  0
    9.3642  -15.7920   25.6895 C   0  0  0  0  0  0  0  0  0  0  0  0
    9.4439  -17.0783   25.3948 O   0  0  0  0  0  0  0  0  0  0  0  0
    9.6813  -15.4034   26.9791 N   0  0  0  0  0  0  0  0  0  0  0  0
    9.2508  -14.3792   27.8507 C   0  0  0  0  0  0  0  0  0  0  0  0
   10.6203  -13.7152   28.1511 C   0  0  0  0  0  0  0  0  0  0  0  0
   11.4689  -14.9734   28.3692 C   0  0  0  0  0  0  0  0  0  0  0  0
   10.6719  -16.1309   27.8053 C   0  0  1  0  0  0  0  0  0  0  0  0
   10.0262  -16.9642   28.8222 C   0  0  0  0  0  0  0  0  0  0  0  0
   10.6006  -17.7009   29.6547 O   0  0  0  0  0  0  0  0  0  0  0  0
    8.6382  -16.9361   28.8697 O   0  0  0  0  0  0  0  0  0  0  0  0
  1  2  1  0
  2  3  2  0
  4  2  1  0
  5  7  1  0
  5  4  1  0
  5  6  1  6
  7 14  1  0
  7  8  2  0
  9 10  1  0
 10 11  1  0
 12 11  1  0
 13 12  1  1
 14 13  1  0
 15 17  1  0
 15 13  1  0
 16 15  2  0
 17 21  1  0
 18 19  1  0
 18 17  1  0
 19 20  1  0
 20 21  1  0
 21 22  1  1
 22 24  1  0
 23 22  2  0
M  END
$$$$
