NMP.pdb
     RDKit          3D

 24 24  0  0  1  0  0  0  0  0999 V2000
   12.2141  -18.9013   19.4813 N   0  0  0  0  0  0  0  0  0  0  0  0
   11.3961  -18.8706   20.6233 C   0  0  0  0  0  0  0  0  0  0  0  0
   10.6323  -19.8192   20.8886 O   0  0  0  0  0  0  0  0  0  0  0  0
   11.4347  -17.7013   21.5292 C   0  0  0  0  0  0  0  0  0  0  0  0
   10.1106  -16.9601   21.4700 C   0  0  2  0  0  0  0  0  0  0  0  0
   10.0487  -16.3002   20.2030 N   0  0  0  0  0  0  0  0  0  0  0  0
   10.0551  -16.0237   22.6309 C   0  0  0  0  0  0  0  0  0  0  0  0
   11.0076  -15.2330   22.8546 O   0  0  0  0  0  0  0  0  0  0  0  0
    5.8626  -11.3630   26.2169 C   0  0  0  0  0  0  0  0  0  0  0  0
    5.7802  -13.1503   26.4100 S   0  0  0  0  0  0  0  0  0  0  0  0
    7.4735  -13.8917   26.3277 C   0  0  0  0  0  0  0  0  0  0  0  0
    7.6563  -14.5681   25.0059 C   0  0  0  0  0  0  0  0  0  0  0  0
    9.0321  -15.0972   24.7161 C   0  0  2  0  0  0  0  0  0  0  0  0
    8.9507  -15.9706   23.5299 N   0  0  0  0  0  0  0  0  0  0  0  0
    9.5217  -15.8932   25.8499 C   0  0  0  0  0  0  0  0  0  0  0  0
    9.6140  -17.1680   25.5121 O   0  0  0  0  0  0  0  0  0  0  0  0
    9.8788  -15.5386   27.1388 N   0  0  0  0  0  0  0  0  0  0  0  0
    9.5342  -14.4914   28.0212 C   0  0  0  0  0  0  0  0  0  0  0  0
   10.9522  -13.9337   28.3125 C   0  0  0  0  0  0  0  0  0  0  0  0
   11.7064  -15.2533   28.5142 C   0  0  0  0  0  0  0  0  0  0  0  0
   10.8198  -16.3440   27.9507 C   0  0  1  0  0  0  0  0  0  0  0  0
   10.1230  -17.1339   28.9685 C   0  0  0  0  0  0  0  0  0  0  0  0
    8.9029  -17.0851   29.2416 O   0  0  0  0  0  0  0  0  0  0  0  0
   10.8903  -18.0270   29.7056 O   0  0  0  0  0  0  0  0  0  0  0  0
  1  2  1  0
  2  3  2  0
  4  2  1  0
  5  7  1  0
  5  4  1  0
  5  6  1  6
  7 14  1  0
  7  8  2  0
  9 10  1  0
 10 11  1  0
 12 11  1  0
 13 12  1  1
 14 13  1  0
 15 17  1  0
 15 13  1  0
 16 15  2  0
 17 21  1  0
 18 19  1  0
 18 17  1  0
 19 20  1  0
 20 21  1  0
 21 22  1  1
 22 24  1  0
 23 22  2  0
M  END
$$$$
