NMP.pdb
     RDKit          3D

 24 24  0  0  1  0  0  0  0  0999 V2000
    7.7521  -16.3631   18.1580 N   0  0  0  0  0  0  0  0  0  0  0  0
    8.9716  -16.2832   18.8515 C   0  0  0  0  0  0  0  0  0  0  0  0
    9.9622  -16.9431   18.4815 O   0  0  0  0  0  0  0  0  0  0  0  0
    9.0913  -15.4072   20.0379 C   0  0  0  0  0  0  0  0  0  0  0  0
    9.4767  -16.2342   21.2519 C   0  0  2  0  0  0  0  0  0  0  0  0
    8.5737  -17.3412   21.3166 N   0  0  0  0  0  0  0  0  0  0  0  0
    9.4163  -15.3474   22.4509 C   0  0  0  0  0  0  0  0  0  0  0  0
   10.1703  -14.3442   22.5368 O   0  0  0  0  0  0  0  0  0  0  0  0
    5.8569  -11.8242   25.0054 C   0  0  0  0  0  0  0  0  0  0  0  0
    6.2668  -12.3267   26.6841 S   0  0  0  0  0  0  0  0  0  0  0  0
    7.2189  -13.9132   26.6734 C   0  0  0  0  0  0  0  0  0  0  0  0
    7.2971  -14.4367   25.2741 C   0  0  0  0  0  0  0  0  0  0  0  0
    8.6706  -14.7736   24.7677 C   0  0  2  0  0  0  0  0  0  0  0  0
    8.5256  -15.5775   23.5392 N   0  0  0  0  0  0  0  0  0  0  0  0
    9.4004  -15.5699   25.7638 C   0  0  0  0  0  0  0  0  0  0  0  0
    9.7355  -16.7448   25.2587 O   0  0  0  0  0  0  0  0  0  0  0  0
    9.7688  -15.2990   27.0698 N   0  0  0  0  0  0  0  0  0  0  0  0
    9.3536  -14.3785   28.0568 C   0  0  0  0  0  0  0  0  0  0  0  0
   10.7177  -13.7043   28.3589 C   0  0  0  0  0  0  0  0  0  0  0  0
   11.6092  -14.9506   28.4131 C   0  0  0  0  0  0  0  0  0  0  0  0
   10.8171  -16.0721   27.7744 C   0  0  1  0  0  0  0  0  0  0  0  0
   10.2437  -17.0202   28.7323 C   0  0  0  0  0  0  0  0  0  0  0  0
    9.0352  -17.1302   29.0375 O   0  0  0  0  0  0  0  0  0  0  0  0
   11.1267  -17.8846   29.3669 O   0  0  0  0  0  0  0  0  0  0  0  0
  1  2  1  0
  2  3  2  0
  4  2  1  0
  5  7  1  0
  5  4  1  0
  5  6  1  1
  7 14  1  0
  7  8  2  0
  9 10  1  0
 10 11  1  0
 12 11  1  0
 13 12  1  1
 14 13  1  0
 15 17  1  0
 15 13  1  0
 16 15  2  0
 17 21  1  0
 18 19  1  0
 18 17  1  0
 19 20  1  0
 20 21  1  0
 21 22  1  1
 22 24  1  0
 23 22  2  0
M  END
$$$$
