NMP.pdb
     RDKit          3D

 24 24  0  0  1  0  0  0  0  0999 V2000
    7.0771  -19.6334   18.1737 N   0  0  0  0  0  0  0  0  0  0  0  0
    6.8185  -18.9476   19.3724 C   0  0  0  0  0  0  0  0  0  0  0  0
    5.6647  -18.8905   19.8406 O   0  0  0  0  0  0  0  0  0  0  0  0
    7.9237  -18.2809   20.0960 C   0  0  0  0  0  0  0  0  0  0  0  0
    7.7812  -16.7736   19.9780 C   0  0  2  0  0  0  0  0  0  0  0  0
    8.4331  -16.3781   18.7683 N   0  0  0  0  0  0  0  0  0  0  0  0
    8.3747  -16.1581   21.2013 C   0  0  0  0  0  0  0  0  0  0  0  0
    9.6216  -16.0269   21.3047 O   0  0  0  0  0  0  0  0  0  0  0  0
    6.9637  -11.3626   27.3365 C   0  0  0  0  0  0  0  0  0  0  0  0
    6.3245  -12.5146   26.1105 S   0  0  0  0  0  0  0  0  0  0  0  0
    7.6895  -13.5610   25.4281 C   0  0  0  0  0  0  0  0  0  0  0  0
    7.2463  -14.1773   24.1389 C   0  0  0  0  0  0  0  0  0  0  0  0
    8.2552  -15.0390   23.4344 C   0  0  2  0  0  0  0  0  0  0  0  0
    7.5866  -15.6950   22.2945 N   0  0  0  0  0  0  0  0  0  0  0  0
    8.7601  -16.0788   24.3414 C   0  0  0  0  0  0  0  0  0  0  0  0
    7.9375  -17.1137   24.3593 O   0  0  0  0  0  0  0  0  0  0  0  0
    9.8933  -16.1401   25.1330 N   0  0  0  0  0  0  0  0  0  0  0  0
   10.8781  -15.2158   25.5451 C   0  0  0  0  0  0  0  0  0  0  0  0
   12.1435  -15.9576   25.0400 C   0  0  0  0  0  0  0  0  0  0  0  0
   11.8016  -17.3807   25.4969 C   0  0  0  0  0  0  0  0  0  0  0  0
   10.3203  -17.3856   25.8111 C   0  0  1  0  0  0  0  0  0  0  0  0
   10.0124  -17.3595   27.2428 C   0  0  0  0  0  0  0  0  0  0  0  0
    9.5123  -16.4051   27.8789 O   0  0  0  0  0  0  0  0  0  0  0  0
   10.3035  -18.5069   27.9696 O   0  0  0  0  0  0  0  0  0  0  0  0
  1  2  1  0
  2  3  2  0
  4  2  1  0
  5  7  1  0
  5  4  1  0
  5  6  1  6
  7 14  1  0
  7  8  2  0
  9 10  1  0
 10 11  1  0
 12 11  1  0
 13 12  1  1
 14 13  1  0
 15 17  1  0
 15 13  1  0
 16 15  2  0
 17 21  1  0
 18 19  1  0
 18 17  1  0
 19 20  1  0
 20 21  1  0
 21 22  1  1
 22 24  1  0
 23 22  2  0
M  END
$$$$
