NMP.pdb
     RDKit          3D

 24 24  0  0  1  0  0  0  0  0999 V2000
    9.5443  -16.7057   17.9557 N   0  0  0  0  0  0  0  0  0  0  0  0
   10.4789  -16.5170   18.9878 C   0  0  0  0  0  0  0  0  0  0  0  0
   11.6099  -17.0376   18.9295 O   0  0  0  0  0  0  0  0  0  0  0  0
   10.1253  -15.6912   20.1636 C   0  0  0  0  0  0  0  0  0  0  0  0
   10.1541  -16.5445   21.4195 C   0  0  2  0  0  0  0  0  0  0  0  0
    9.1836  -17.5812   21.2519 N   0  0  0  0  0  0  0  0  0  0  0  0
    9.8782  -15.6555   22.5862 C   0  0  0  0  0  0  0  0  0  0  0  0
   10.6795  -14.7326   22.8843 O   0  0  0  0  0  0  0  0  0  0  0  0
    5.8244  -11.9771   24.9559 C   0  0  0  0  0  0  0  0  0  0  0  0
    6.8514  -12.5196   26.3305 S   0  0  0  0  0  0  0  0  0  0  0  0
    6.9056  -14.3674   26.4115 C   0  0  0  0  0  0  0  0  0  0  0  0
    7.1864  -14.9168   25.0486 C   0  0  0  0  0  0  0  0  0  0  0  0
    8.6338  -15.0161   24.6588 C   0  0  2  0  0  0  0  0  0  0  0  0
    8.7231  -15.7948   23.4089 N   0  0  0  0  0  0  0  0  0  0  0  0
    9.3959  -15.7169   25.7014 C   0  0  0  0  0  0  0  0  0  0  0  0
    9.8904  -16.8482   25.2288 O   0  0  0  0  0  0  0  0  0  0  0  0
    9.6602  -15.3975   27.0216 N   0  0  0  0  0  0  0  0  0  0  0  0
    9.1015  -14.5115   27.9686 C   0  0  0  0  0  0  0  0  0  0  0  0
   10.3741  -13.7042   28.3363 C   0  0  0  0  0  0  0  0  0  0  0  0
   11.3775  -14.8569   28.4609 C   0  0  0  0  0  0  0  0  0  0  0  0
   10.7360  -16.0571   27.7967 C   0  0  1  0  0  0  0  0  0  0  0  0
   10.2026  -17.0465   28.7359 C   0  0  0  0  0  0  0  0  0  0  0  0
    8.9947  -17.2818   28.9621 O   0  0  0  0  0  0  0  0  0  0  0  0
   11.1272  -17.8000   29.4478 O   0  0  0  0  0  0  0  0  0  0  0  0
  1  2  1  0
  2  3  2  0
  4  2  1  0
  5  7  1  0
  5  4  1  0
  5  6  1  6
  7 14  1  0
  7  8  2  0
  9 10  1  0
 10 11  1  0
 12 11  1  0
 13 12  1  1
 14 13  1  0
 15 17  1  0
 15 13  1  0
 16 15  2  0
 17 21  1  0
 18 19  1  0
 18 17  1  0
 19 20  1  0
 20 21  1  0
 21 22  1  1
 22 24  1  0
 23 22  2  0
M  END
$$$$
