NMP.pdb
     RDKit          3D

 24 24  0  0  1  0  0  0  0  0999 V2000
   10.5075  -17.9042   19.3871 N   0  0  0  0  0  0  0  0  0  0  0  0
    9.9807  -16.6167   19.1894 C   0  0  0  0  0  0  0  0  0  0  0  0
    9.9946  -16.0862   18.0616 O   0  0  0  0  0  0  0  0  0  0  0  0
    9.3995  -15.8727   20.3288 C   0  0  0  0  0  0  0  0  0  0  0  0
    9.5342  -16.6914   21.6008 C   0  0  2  0  0  0  0  0  0  0  0  0
    8.3853  -17.5386   21.6850 N   0  0  0  0  0  0  0  0  0  0  0  0
    9.6589  -15.7437   22.7470 C   0  0  0  0  0  0  0  0  0  0  0  0
   10.6953  -15.0435   22.8817 O   0  0  0  0  0  0  0  0  0  0  0  0
    6.2120  -11.3458   26.8709 C   0  0  0  0  0  0  0  0  0  0  0  0
    5.5165  -12.7060   25.9198 S   0  0  0  0  0  0  0  0  0  0  0  0
    6.7978  -13.4425   24.8064 C   0  0  0  0  0  0  0  0  0  0  0  0
    7.6375  -14.4060   25.5840 C   0  0  0  0  0  0  0  0  0  0  0  0
    8.9391  -14.8110   24.9527 C   0  0  2  0  0  0  0  0  0  0  0  0
    8.6399  -15.5796   23.7295 N   0  0  0  0  0  0  0  0  0  0  0  0
    9.7049  -15.6684   25.8677 C   0  0  0  0  0  0  0  0  0  0  0  0
   10.1331  -16.7485   25.2371 O   0  0  0  0  0  0  0  0  0  0  0  0
   10.0277  -15.5308   27.2062 N   0  0  0  0  0  0  0  0  0  0  0  0
    9.5588  -14.7324   28.2724 C   0  0  0  0  0  0  0  0  0  0  0  0
   10.8943  -14.0615   28.6879 C   0  0  0  0  0  0  0  0  0  0  0  0
   11.8181  -15.2842   28.6368 C   0  0  0  0  0  0  0  0  0  0  0  0
   11.0762  -16.3494   27.8571 C   0  0  1  0  0  0  0  0  0  0  0  0
   10.5018  -17.4090   28.6894 C   0  0  0  0  0  0  0  0  0  0  0  0
    9.2852  -17.6131   28.8990 O   0  0  0  0  0  0  0  0  0  0  0  0
   11.3937  -18.2748   29.3093 O   0  0  0  0  0  0  0  0  0  0  0  0
  1  2  1  0
  2  3  2  0
  4  2  1  0
  5  7  1  0
  5  4  1  0
  5  6  1  1
  7 14  1  0
  7  8  2  0
  9 10  1  0
 10 11  1  0
 12 11  1  0
 13 12  1  1
 14 13  1  0
 15 17  1  0
 15 13  1  0
 16 15  2  0
 17 21  1  0
 18 19  1  0
 18 17  1  0
 19 20  1  0
 20 21  1  0
 21 22  1  1
 22 24  1  0
 23 22  2  0
M  END
$$$$
