NMP.pdb
     RDKit          3D

 24 24  0  0  1  0  0  0  0  0999 V2000
   11.4864  -18.4915   19.4043 N   0  0  0  0  0  0  0  0  0  0  0  0
   11.5725  -17.0984   19.2427 C   0  0  0  0  0  0  0  0  0  0  0  0
   12.0319  -16.6033   18.1951 O   0  0  0  0  0  0  0  0  0  0  0  0
   11.1146  -16.1989   20.3246 C   0  0  0  0  0  0  0  0  0  0  0  0
   10.7837  -17.0114   21.5642 C   0  0  2  0  0  0  0  0  0  0  0  0
    9.7465  -17.9287   21.2072 N   0  0  0  0  0  0  0  0  0  0  0  0
   10.3900  -16.0611   22.6457 C   0  0  0  0  0  0  0  0  0  0  0  0
   11.1596  -15.1227   22.9772 O   0  0  0  0  0  0  0  0  0  0  0  0
    6.2029  -11.7429   26.9173 C   0  0  0  0  0  0  0  0  0  0  0  0
    6.8617  -12.6911   25.5369 S   0  0  0  0  0  0  0  0  0  0  0  0
    6.9981  -14.4813   25.9843 C   0  0  0  0  0  0  0  0  0  0  0  0
    7.4351  -15.2616   24.7850 C   0  0  0  0  0  0  0  0  0  0  0  0
    8.9095  -15.2649   24.4970 C   0  0  2  0  0  0  0  0  0  0  0  0
    9.1536  -16.1571   23.3476 N   0  0  0  0  0  0  0  0  0  0  0  0
    9.6541  -15.7794   25.6544 C   0  0  0  0  0  0  0  0  0  0  0  0
   10.3510  -16.8504   25.3148 O   0  0  0  0  0  0  0  0  0  0  0  0
    9.7345  -15.3450   26.9657 N   0  0  0  0  0  0  0  0  0  0  0  0
    9.0441  -14.3951   27.7499 C   0  0  0  0  0  0  0  0  0  0  0  0
   10.2472  -13.5326   28.2138 C   0  0  0  0  0  0  0  0  0  0  0  0
   11.2361  -14.6489   28.5699 C   0  0  0  0  0  0  0  0  0  0  0  0
   10.7023  -15.9141   27.9314 C   0  0  1  0  0  0  0  0  0  0  0  0
   10.0569  -16.8326   28.8723 C   0  0  0  0  0  0  0  0  0  0  0  0
    8.8309  -17.0662   28.9614 O   0  0  0  0  0  0  0  0  0  0  0  0
   10.8857  -17.5135   29.7549 O   0  0  0  0  0  0  0  0  0  0  0  0
  1  2  1  0
  2  3  2  0
  4  2  1  0
  5  7  1  0
  5  4  1  0
  5  6  1  6
  7 14  1  0
  7  8  2  0
  9 10  1  0
 10 11  1  0
 12 11  1  0
 13 12  1  1
 14 13  1  0
 15 17  1  0
 15 13  1  0
 16 15  2  0
 17 21  1  0
 18 19  1  0
 18 17  1  0
 19 20  1  0
 20 21  1  0
 21 22  1  1
 22 24  1  0
 23 22  2  0
M  END
$$$$
