NMP.pdb
     RDKit          3D

 24 24  0  0  1  0  0  0  0  0999 V2000
   10.3453  -19.6694   19.4468 N   0  0  0  0  0  0  0  0  0  0  0  0
    9.4336  -19.0649   20.3288 C   0  0  0  0  0  0  0  0  0  0  0  0
    8.2121  -19.2983   20.2450 O   0  0  0  0  0  0  0  0  0  0  0  0
    9.9202  -18.1374   21.3740 C   0  0  0  0  0  0  0  0  0  0  0  0
    9.4697  -16.7223   21.0569 C   0  0  2  0  0  0  0  0  0  0  0  0
   10.1948  -16.2938   19.9013 N   0  0  0  0  0  0  0  0  0  0  0  0
    9.7206  -15.8786   22.2623 C   0  0  0  0  0  0  0  0  0  0  0  0
   10.8772  -15.4479   22.5059 O   0  0  0  0  0  0  0  0  0  0  0  0
    5.1393  -12.7265   26.9795 C   0  0  0  0  0  0  0  0  0  0  0  0
    6.3697  -11.8943   25.9636 S   0  0  0  0  0  0  0  0  0  0  0  0
    7.9036  -12.9204   25.8294 C   0  0  0  0  0  0  0  0  0  0  0  0
    7.8243  -13.7751   24.6041 C   0  0  0  0  0  0  0  0  0  0  0  0
    9.0226  -14.6338   24.3157 C   0  0  2  0  0  0  0  0  0  0  0  0
    8.6938  -15.5202   23.1831 N   0  0  0  0  0  0  0  0  0  0  0  0
    9.3461  -15.4665   25.4822 C   0  0  0  0  0  0  0  0  0  0  0  0
    9.2318  -16.7483   25.1792 O   0  0  0  0  0  0  0  0  0  0  0  0
    9.7278  -15.1386   26.7712 N   0  0  0  0  0  0  0  0  0  0  0  0
    9.4996  -14.0455   27.6355 C   0  0  0  0  0  0  0  0  0  0  0  0
   10.9703  -13.6556   27.9384 C   0  0  0  0  0  0  0  0  0  0  0  0
   11.5602  -15.0523   28.1668 C   0  0  0  0  0  0  0  0  0  0  0  0
   10.5572  -16.0381   27.6055 C   0  0  1  0  0  0  0  0  0  0  0  0
    9.7598  -16.7255   28.6239 C   0  0  0  0  0  0  0  0  0  0  0  0
    8.5492  -16.5338   28.8754 O   0  0  0  0  0  0  0  0  0  0  0  0
   10.4094  -17.6864   29.3883 O   0  0  0  0  0  0  0  0  0  0  0  0
  1  2  1  0
  2  3  2  0
  4  2  1  0
  5  7  1  0
  5  4  1  0
  5  6  1  6
  7 14  1  0
  7  8  2  0
  9 10  1  0
 10 11  1  0
 12 11  1  0
 13 12  1  1
 14 13  1  0
 15 17  1  0
 15 13  1  0
 16 15  2  0
 17 21  1  0
 18 19  1  0
 18 17  1  0
 19 20  1  0
 20 21  1  0
 21 22  1  1
 22 24  1  0
 23 22  2  0
M  END
$$$$
