NMP.pdb
     RDKit          3D

 24 24  0  0  1  0  0  0  0  0999 V2000
   11.4735  -16.6504   18.2070 N   0  0  0  0  0  0  0  0  0  0  0  0
   10.3476  -16.9410   18.9958 C   0  0  0  0  0  0  0  0  0  0  0  0
    9.6145  -17.9135   18.7305 O   0  0  0  0  0  0  0  0  0  0  0  0
   10.0194  -16.0871   20.1588 C   0  0  0  0  0  0  0  0  0  0  0  0
   10.0520  -16.9154   21.4313 C   0  0  2  0  0  0  0  0  0  0  0  0
    9.0043  -17.8837   21.3355 N   0  0  0  0  0  0  0  0  0  0  0  0
    9.8983  -15.9863   22.5892 C   0  0  0  0  0  0  0  0  0  0  0  0
   10.8130  -15.1710   22.8745 O   0  0  0  0  0  0  0  0  0  0  0  0
    6.2314  -11.2941   26.4879 C   0  0  0  0  0  0  0  0  0  0  0  0
    5.6879  -12.9726   26.1333 S   0  0  0  0  0  0  0  0  0  0  0  0
    7.0917  -14.1634   26.3202 C   0  0  0  0  0  0  0  0  0  0  0  0
    7.3035  -14.8888   25.0290 C   0  0  0  0  0  0  0  0  0  0  0  0
    8.7317  -15.1177   24.6233 C   0  0  2  0  0  0  0  0  0  0  0  0
    8.7387  -15.9674   23.4172 N   0  0  0  0  0  0  0  0  0  0  0  0
    9.4596  -15.8164   25.6914 C   0  0  0  0  0  0  0  0  0  0  0  0
    9.9166  -16.9774   25.2543 O   0  0  0  0  0  0  0  0  0  0  0  0
    9.7248  -15.4705   27.0047 N   0  0  0  0  0  0  0  0  0  0  0  0
    9.2244  -14.5062   27.9067 C   0  0  0  0  0  0  0  0  0  0  0  0
   10.5529  -13.7938   28.2729 C   0  0  0  0  0  0  0  0  0  0  0  0
   11.4539  -15.0201   28.4608 C   0  0  0  0  0  0  0  0  0  0  0  0
   10.7269  -16.1872   27.8264 C   0  0  1  0  0  0  0  0  0  0  0  0
   10.0951  -17.0929   28.7887 C   0  0  0  0  0  0  0  0  0  0  0  0
    8.8671  -17.2315   28.9843 O   0  0  0  0  0  0  0  0  0  0  0  0
   10.9408  -17.8772   29.5628 O   0  0  0  0  0  0  0  0  0  0  0  0
  1  2  1  0
  2  3  2  0
  4  2  1  0
  5  7  1  0
  5  4  1  0
  5  6  1  6
  7 14  1  0
  7  8  2  0
  9 10  1  0
 10 11  1  0
 12 11  1  0
 13 12  1  1
 14 13  1  0
 15 17  1  0
 15 13  1  0
 16 15  2  0
 17 21  1  0
 18 19  1  0
 18 17  1  0
 19 20  1  0
 20 21  1  0
 21 22  1  1
 22 24  1  0
 23 22  2  0
M  END
$$$$
