NMP.pdb
     RDKit          3D

 24 24  0  0  1  0  0  0  0  0999 V2000
   11.8222  -20.2093   20.1321 N   0  0  0  0  0  0  0  0  0  0  0  0
   10.7891  -19.5379   20.8076 C   0  0  0  0  0  0  0  0  0  0  0  0
    9.5975  -19.8611   20.6368 O   0  0  0  0  0  0  0  0  0  0  0  0
   11.1098  -18.4311   21.7358 C   0  0  0  0  0  0  0  0  0  0  0  0
   10.3630  -17.1763   21.3185 C   0  0  2  0  0  0  0  0  0  0  0  0
   10.9920  -16.6812   20.1336 N   0  0  0  0  0  0  0  0  0  0  0  0
   10.4049  -16.2150   22.4594 C   0  0  0  0  0  0  0  0  0  0  0  0
   11.4727  -15.6139   22.7440 O   0  0  0  0  0  0  0  0  0  0  0  0
    5.1771  -12.8938   26.6051 C   0  0  0  0  0  0  0  0  0  0  0  0
    6.4224  -12.2747   25.4630 S   0  0  0  0  0  0  0  0  0  0  0  0
    7.9924  -13.2398   25.6277 C   0  0  0  0  0  0  0  0  0  0  0  0
    8.0807  -14.2388   24.5175 C   0  0  0  0  0  0  0  0  0  0  0  0
    9.3979  -14.9443   24.3632 C   0  0  2  0  0  0  0  0  0  0  0  0
    9.2696  -15.9285   23.2716 N   0  0  0  0  0  0  0  0  0  0  0  0
    9.7412  -15.6600   25.5996 C   0  0  0  0  0  0  0  0  0  0  0  0
    9.9376  -16.9433   25.3499 O   0  0  0  0  0  0  0  0  0  0  0  0
    9.8816  -15.2269   26.9063 N   0  0  0  0  0  0  0  0  0  0  0  0
    9.3945  -14.1346   27.6570 C   0  0  0  0  0  0  0  0  0  0  0  0
   10.7442  -13.5436   28.1423 C   0  0  0  0  0  0  0  0  0  0  0  0
   11.4587  -14.8399   28.5422 C   0  0  0  0  0  0  0  0  0  0  0  0
   10.6792  -15.9723   27.9071 C   0  0  1  0  0  0  0  0  0  0  0  0
    9.8273  -16.7104   28.8424 C   0  0  0  0  0  0  0  0  0  0  0  0
    8.5776  -16.6787   28.8941 O   0  0  0  0  0  0  0  0  0  0  0  0
   10.4676  -17.5277   29.7652 O   0  0  0  0  0  0  0  0  0  0  0  0
  1  2  1  0
  2  3  2  0
  4  2  1  0
  5  7  1  0
  5  4  1  0
  5  6  1  6
  7 14  1  0
  7  8  2  0
  9 10  1  0
 10 11  1  0
 12 11  1  0
 13 12  1  1
 14 13  1  0
 15 17  1  0
 15 13  1  0
 16 15  2  0
 17 21  1  0
 18 19  1  0
 18 17  1  0
 19 20  1  0
 20 21  1  0
 21 22  1  1
 22 24  1  0
 23 22  2  0
M  END
$$$$
