NMP.pdb
     RDKit          3D

 24 24  0  0  1  0  0  0  0  0999 V2000
   10.5750  -20.5042   21.5088 N   0  0  0  0  0  0  0  0  0  0  0  0
   11.1468  -19.3437   20.9604 C   0  0  0  0  0  0  0  0  0  0  0  0
   11.5274  -19.3175   19.7738 O   0  0  0  0  0  0  0  0  0  0  0  0
   11.3036  -18.1317   21.7946 C   0  0  0  0  0  0  0  0  0  0  0  0
   10.2240  -17.1226   21.4447 C   0  0  2  0  0  0  0  0  0  0  0  0
   10.5727  -16.5468   20.1830 N   0  0  0  0  0  0  0  0  0  0  0  0
   10.1498  -16.1253   22.5526 C   0  0  0  0  0  0  0  0  0  0  0  0
   11.1138  -15.3475   22.7720 O   0  0  0  0  0  0  0  0  0  0  0  0
    5.8918  -11.3617   26.0043 C   0  0  0  0  0  0  0  0  0  0  0  0
    5.8090  -13.1468   26.2171 S   0  0  0  0  0  0  0  0  0  0  0  0
    7.5035  -13.8877   26.1581 C   0  0  0  0  0  0  0  0  0  0  0  0
    7.6957  -14.5856   24.8489 C   0  0  0  0  0  0  0  0  0  0  0  0
    9.0829  -15.0846   24.5605 C   0  0  2  0  0  0  0  0  0  0  0  0
    9.0142  -15.9979   23.4040 N   0  0  0  0  0  0  0  0  0  0  0  0
    9.6071  -15.8292   25.7135 C   0  0  0  0  0  0  0  0  0  0  0  0
    9.9039  -17.0694   25.3648 O   0  0  0  0  0  0  0  0  0  0  0  0
    9.8247  -15.4580   27.0287 N   0  0  0  0  0  0  0  0  0  0  0  0
    9.3007  -14.4692   27.8898 C   0  0  0  0  0  0  0  0  0  0  0  0
   10.6221  -13.7636   28.2929 C   0  0  0  0  0  0  0  0  0  0  0  0
   11.5006  -14.9953   28.5420 C   0  0  0  0  0  0  0  0  0  0  0  0
   10.7854  -16.1678   27.9042 C   0  0  1  0  0  0  0  0  0  0  0  0
   10.1058  -17.0456   28.8597 C   0  0  0  0  0  0  0  0  0  0  0  0
   10.6519  -17.8215   29.6755 O   0  0  0  0  0  0  0  0  0  0  0  0
    8.7171  -17.0163   28.8629 O   0  0  0  0  0  0  0  0  0  0  0  0
  1  2  1  0
  2  3  2  0
  4  2  1  0
  5  7  1  0
  5  4  1  0
  5  6  1  6
  7 14  1  0
  7  8  2  0
  9 10  1  0
 10 11  1  0
 12 11  1  0
 13 12  1  1
 14 13  1  0
 15 17  1  0
 15 13  1  0
 16 15  2  0
 17 21  1  0
 18 19  1  0
 18 17  1  0
 19 20  1  0
 20 21  1  0
 21 22  1  1
 22 24  1  0
 23 22  2  0
M  END
$$$$
