NMP.pdb
     RDKit          3D

 24 24  0  0  1  0  0  0  0  0999 V2000
   11.1763  -16.6483   18.5135 N   0  0  0  0  0  0  0  0  0  0  0  0
    9.8997  -16.6794   19.0999 C   0  0  0  0  0  0  0  0  0  0  0  0
    9.0105  -17.4322   18.6569 O   0  0  0  0  0  0  0  0  0  0  0  0
    9.5973  -15.8106   20.2589 C   0  0  0  0  0  0  0  0  0  0  0  0
    9.8301  -16.5752   21.5502 C   0  0  2  0  0  0  0  0  0  0  0  0
    8.8834  -17.6462   21.5870 N   0  0  0  0  0  0  0  0  0  0  0  0
    9.6868  -15.6163   22.6849 C   0  0  0  0  0  0  0  0  0  0  0  0
   10.4795  -14.6463   22.8001 O   0  0  0  0  0  0  0  0  0  0  0  0
    6.3299  -11.2486   26.4564 C   0  0  0  0  0  0  0  0  0  0  0  0
    5.5139  -12.7625   25.9262 S   0  0  0  0  0  0  0  0  0  0  0  0
    6.5680  -13.6779   24.7119 C   0  0  0  0  0  0  0  0  0  0  0  0
    7.3846  -14.7018   25.4351 C   0  0  0  0  0  0  0  0  0  0  0  0
    8.7728  -14.9345   24.9104 C   0  0  2  0  0  0  0  0  0  0  0  0
    8.6718  -15.7386   23.6776 N   0  0  0  0  0  0  0  0  0  0  0  0
    9.5705  -15.6822   25.8919 C   0  0  0  0  0  0  0  0  0  0  0  0
   10.0510  -16.7877   25.3490 O   0  0  0  0  0  0  0  0  0  0  0  0
    9.8780  -15.4260   27.2165 N   0  0  0  0  0  0  0  0  0  0  0  0
    9.3903  -14.5436   28.2051 C   0  0  0  0  0  0  0  0  0  0  0  0
   10.7149  -13.8251   28.5737 C   0  0  0  0  0  0  0  0  0  0  0  0
   11.6511  -15.0376   28.6372 C   0  0  0  0  0  0  0  0  0  0  0  0
   10.9278  -16.1741   27.9456 C   0  0  1  0  0  0  0  0  0  0  0  0
   10.3553  -17.1639   28.8610 C   0  0  0  0  0  0  0  0  0  0  0  0
    9.1417  -17.3215   29.1218 O   0  0  0  0  0  0  0  0  0  0  0  0
   11.2455  -18.0135   29.5054 O   0  0  0  0  0  0  0  0  0  0  0  0
  1  2  1  0
  2  3  2  0
  4  2  1  0
  5  7  1  0
  5  4  1  0
  5  6  1  1
  7 14  1  0
  7  8  2  0
  9 10  1  0
 10 11  1  0
 12 11  1  0
 13 12  1  1
 14 13  1  0
 15 17  1  0
 15 13  1  0
 16 15  2  0
 17 21  1  0
 18 19  1  0
 18 17  1  0
 19 20  1  0
 20 21  1  0
 21 22  1  1
 22 24  1  0
 23 22  2  0
M  END
$$$$
