HNC.pdb
     RDKit          3D

 25 25  0  0  1  0  0  0  0  0999 V2000
    8.8961  -15.9388   20.4499 N   0  0  0  0  0  0  0  0  0  0  0  0
    8.1779  -14.8975   21.1338 C   0  0  1  0  0  0  0  0  0  0  0  0
    6.8946  -14.6432   20.3324 C   0  0  0  0  0  0  0  0  0  0  0  0
    7.3336  -14.1789   18.9848 C   0  0  0  0  0  0  0  0  0  0  0  0
    8.6436  -13.9688   18.5419 C   0  0  0  0  0  0  0  0  0  0  0  0
    8.6155  -13.5526   17.2705 N   0  0  0  0  0  0  0  0  0  0  0  0
    7.3393  -13.4877   16.8807 C   0  0  0  0  0  0  0  0  0  0  0  0
    6.5656  -13.8667   17.9184 N   0  0  0  0  0  0  0  0  0  0  0  0
    7.8328  -15.2498   22.5221 C   0  0  0  0  0  0  0  0  0  0  0  0
    7.0870  -14.4601   23.1558 O   0  0  0  0  0  0  0  0  0  0  0  0
    5.7282  -17.8280   23.7549 N   0  0  0  0  0  0  0  0  0  0  0  0
    6.6573  -18.6816   24.3811 C   0  0  0  0  0  0  0  0  0  0  0  0
    6.3781  -19.9031   24.4742 O   0  0  0  0  0  0  0  0  0  0  0  0
    7.9117  -18.1116   24.8986 C   0  0  0  0  0  0  0  0  0  0  0  0
    8.0801  -16.6476   24.5962 C   0  0  2  0  0  0  0  0  0  0  0  0
    8.2957  -16.4289   23.1806 N   0  0  0  0  0  0  0  0  0  0  0  0
    9.2081  -16.0603   25.3862 C   0  0  0  0  0  0  0  0  0  0  0  0
   10.3992  -16.1454   24.9942 O   0  0  0  0  0  0  0  0  0  0  0  0
    8.9682  -15.3855   26.6086 N   0  0  0  0  0  0  0  0  0  0  0  0
   10.0525  -14.7569   27.3754 C   0  0  1  0  0  0  0  0  0  0  0  0
    9.6567  -13.3716   27.8266 C   0  0  0  0  0  0  0  0  0  0  0  0
    7.8448  -13.2888   27.7839 S   0  0  0  0  0  0  0  0  0  0  0  0
   10.2964  -15.5897   28.5786 C   0  0  0  0  0  0  0  0  0  0  0  0
    9.5748  -16.5864   28.8768 O   0  0  0  0  0  0  0  0  0  0  0  0
   11.3425  -15.3088   29.4440 O   0  0  0  0  0  0  0  0  0  0  0  0
  2  1  1  6
  3  2  1  0
  4  3  1  0
  4  8  1  0
  5  4  2  0
  6  5  1  0
  6  7  1  0
  7  8  2  0
  9  2  1  0
 10  9  2  0
 11 12  1  0
 12 14  1  0
 12 13  2  0
 15 14  1  6
 15 16  1  0
 15 17  1  0
 16  9  1  0
 17 18  2  0
 17 19  1  0
 19 20  1  0
 20 21  1  1
 20 23  1  0
 22 21  1  0
 23 25  1  0
 24 23  2  0
M  END
$$$$
