HNC.pdb
     RDKit          3D

 25 25  0  0  1  0  0  0  0  0999 V2000
    8.7305  -18.5078   16.3748 N   0  0  0  0  0  0  0  0  0  0  0  0
    8.0270  -18.2775   17.6077 C   0  0  1  0  0  0  0  0  0  0  0  0
    7.9368  -19.6297   18.3268 C   0  0  0  0  0  0  0  0  0  0  0  0
    6.9381  -20.4362   17.5675 C   0  0  0  0  0  0  0  0  0  0  0  0
    5.9208  -19.9638   16.7319 C   0  0  0  0  0  0  0  0  0  0  0  0
    5.2400  -21.0045   16.2379 N   0  0  0  0  0  0  0  0  0  0  0  0
    5.7806  -22.1255   16.7239 C   0  0  0  0  0  0  0  0  0  0  0  0
    6.8072  -21.7800   17.5276 N   0  0  0  0  0  0  0  0  0  0  0  0
    8.6962  -17.2967   18.4799 C   0  0  0  0  0  0  0  0  0  0  0  0
    9.8967  -17.5122   18.7859 O   0  0  0  0  0  0  0  0  0  0  0  0
    6.5038  -12.4309   18.5503 N   0  0  0  0  0  0  0  0  0  0  0  0
    7.6551  -13.2383   18.6315 C   0  0  0  0  0  0  0  0  0  0  0  0
    8.3553  -13.3860   17.5987 O   0  0  0  0  0  0  0  0  0  0  0  0
    7.9904  -13.8734   19.9162 C   0  0  0  0  0  0  0  0  0  0  0  0
    8.7839  -15.1435   19.7733 C   0  0  2  0  0  0  0  0  0  0  0  0
    8.0605  -16.1253   18.9916 N   0  0  0  0  0  0  0  0  0  0  0  0
    9.1388  -15.7108   21.1126 C   0  0  0  0  0  0  0  0  0  0  0  0
    8.2639  -16.1951   21.8740 O   0  0  0  0  0  0  0  0  0  0  0  0
   10.4803  -15.7203   21.5680 N   0  0  0  0  0  0  0  0  0  0  0  0
   10.8656  -16.3497   22.8385 C   0  0  1  0  0  0  0  0  0  0  0  0
   10.6274  -17.8398   22.7925 C   0  0  0  0  0  0  0  0  0  0  0  0
   10.2634  -18.3792   24.4860 S   0  0  0  0  0  0  0  0  0  0  0  0
   12.3164  -16.1130   23.0381 C   0  0  0  0  0  0  0  0  0  0  0  0
   13.0603  -15.6314   22.1338 O   0  0  0  0  0  0  0  0  0  0  0  0
   12.9319  -16.4137   24.2434 O   0  0  0  0  0  0  0  0  0  0  0  0
  2  1  1  6
  3  2  1  0
  4  3  1  0
  4  8  1  0
  5  4  2  0
  6  5  1  0
  6  7  1  0
  7  8  2  0
  9  2  1  0
 10  9  2  0
 11 12  1  0
 12 14  1  0
 12 13  2  0
 15 14  1  1
 15 16  1  0
 15 17  1  0
 16  9  1  0
 17 18  2  0
 17 19  1  0
 19 20  1  0
 20 21  1  6
 20 23  1  0
 22 21  1  0
 23 25  1  0
 24 23  2  0
M  END
$$$$
