HNC.pdb
     RDKit          3D

 25 25  0  0  1  0  0  0  0  0999 V2000
   10.6643  -17.4953   17.3076 N   0  0  0  0  0  0  0  0  0  0  0  0
   11.1547  -16.1950   16.9380 C   0  0  1  0  0  0  0  0  0  0  0  0
   10.5476  -15.8644   15.5684 C   0  0  0  0  0  0  0  0  0  0  0  0
   11.2054  -16.7803   14.5923 C   0  0  0  0  0  0  0  0  0  0  0  0
   12.4176  -17.4606   14.7470 C   0  0  0  0  0  0  0  0  0  0  0  0
   12.6603  -18.1808   13.6457 N   0  0  0  0  0  0  0  0  0  0  0  0
   11.6515  -17.9891   12.7910 C   0  0  0  0  0  0  0  0  0  0  0  0
   10.7727  -17.1421   13.3648 N   0  0  0  0  0  0  0  0  0  0  0  0
   10.7935  -15.1449   17.9061 C   0  0  0  0  0  0  0  0  0  0  0  0
   11.2064  -13.9784   17.6821 O   0  0  0  0  0  0  0  0  0  0  0  0
    7.6757  -12.1506   18.2971 N   0  0  0  0  0  0  0  0  0  0  0  0
    7.7736  -13.5309   18.5602 C   0  0  0  0  0  0  0  0  0  0  0  0
    7.4939  -14.3364   17.6374 O   0  0  0  0  0  0  0  0  0  0  0  0
    8.1975  -13.9723   19.8988 C   0  0  0  0  0  0  0  0  0  0  0  0
    9.6609  -14.3094   19.9884 C   0  0  2  0  0  0  0  0  0  0  0  0
   10.0068  -15.3785   19.0743 N   0  0  0  0  0  0  0  0  0  0  0  0
   10.0433  -14.6829   21.3869 C   0  0  0  0  0  0  0  0  0  0  0  0
    9.7143  -13.9724   22.3702 O   0  0  0  0  0  0  0  0  0  0  0  0
   10.7929  -15.8561   21.6491 N   0  0  0  0  0  0  0  0  0  0  0  0
   11.2448  -16.2035   23.0033 C   0  0  1  0  0  0  0  0  0  0  0  0
   10.1402  -16.8781   23.7805 C   0  0  0  0  0  0  0  0  0  0  0  0
   10.8173  -17.3205   25.4044 S   0  0  0  0  0  0  0  0  0  0  0  0
   12.3746  -17.1559   22.8720 C   0  0  0  0  0  0  0  0  0  0  0  0
   12.3550  -18.1312   22.0648 O   0  0  0  0  0  0  0  0  0  0  0  0
   13.5206  -17.0179   23.6399 O   0  0  0  0  0  0  0  0  0  0  0  0
  2  1  1  1
  3  2  1  0
  4  3  1  0
  4  8  1  0
  5  4  2  0
  6  5  1  0
  6  7  1  0
  7  8  2  0
  9  2  1  0
 10  9  2  0
 11 12  1  0
 12 14  1  0
 12 13  2  0
 15 14  1  1
 15 16  1  0
 15 17  1  0
 16  9  1  0
 17 18  2  0
 17 19  1  0
 19 20  1  0
 20 21  1  1
 20 23  1  0
 22 21  1  0
 23 25  1  0
 24 23  2  0
M  END
$$$$
