HNC.pdb
     RDKit          3D

 25 25  0  0  1  0  0  0  0  0999 V2000
    7.0213  -17.1156   19.7901 N   0  0  0  0  0  0  0  0  0  0  0  0
    7.4802  -16.0024   20.5762 C   0  0  1  0  0  0  0  0  0  0  0  0
    6.7527  -14.7580   20.0510 C   0  0  0  0  0  0  0  0  0  0  0  0
    7.6115  -14.2043   18.9647 C   0  0  0  0  0  0  0  0  0  0  0  0
    7.2931  -14.0781   17.6086 C   0  0  0  0  0  0  0  0  0  0  0  0
    8.3313  -13.5345   16.9628 N   0  0  0  0  0  0  0  0  0  0  0  0
    9.3029  -13.3072   17.8513 C   0  0  0  0  0  0  0  0  0  0  0  0
    8.8660  -13.7128   19.0611 N   0  0  0  0  0  0  0  0  0  0  0  0
    7.2115  -16.1622   22.0159 C   0  0  0  0  0  0  0  0  0  0  0  0
    6.0182  -16.3423   22.3697 O   0  0  0  0  0  0  0  0  0  0  0  0
    7.2939  -19.1553   25.4016 N   0  0  0  0  0  0  0  0  0  0  0  0
    8.4521  -18.5875   24.8361 C   0  0  0  0  0  0  0  0  0  0  0  0
    9.1646  -19.3032   24.0885 O   0  0  0  0  0  0  0  0  0  0  0  0
    8.7801  -17.1856   25.1417 C   0  0  0  0  0  0  0  0  0  0  0  0
    7.9018  -16.1912   24.4324 C   0  0  2  0  0  0  0  0  0  0  0  0
    8.2239  -16.1240   23.0217 N   0  0  0  0  0  0  0  0  0  0  0  0
    8.0153  -14.8332   25.0524 C   0  0  0  0  0  0  0  0  0  0  0  0
    9.0761  -14.1632   24.9777 O   0  0  0  0  0  0  0  0  0  0  0  0
    6.9242  -14.2557   25.7475 N   0  0  0  0  0  0  0  0  0  0  0  0
    7.0508  -12.9857   26.4754 C   0  0  1  0  0  0  0  0  0  0  0  0
    5.7014  -12.5036   26.9509 C   0  0  0  0  0  0  0  0  0  0  0  0
    5.9789  -10.9922   27.9152 S   0  0  0  0  0  0  0  0  0  0  0  0
    7.9064  -13.2290   27.6626 C   0  0  0  0  0  0  0  0  0  0  0  0
    7.9167  -14.3331   28.2821 O   0  0  0  0  0  0  0  0  0  0  0  0
    8.7464  -12.2417   28.1544 O   0  0  0  0  0  0  0  0  0  0  0  0
  2  1  1  6
  3  2  1  0
  4  3  1  0
  4  8  1  0
  5  4  2  0
  6  5  1  0
  6  7  1  0
  7  8  2  0
  9  2  1  0
 10  9  2  0
 11 12  1  0
 12 14  1  0
 12 13  2  0
 15 14  1  1
 15 16  1  0
 15 17  1  0
 16  9  1  0
 17 18  2  0
 17 19  1  0
 19 20  1  0
 20 21  1  1
 20 23  1  0
 22 21  1  0
 23 25  1  0
 24 23  2  0
M  END
$$$$
