HNC.pdb
     RDKit          3D

 25 25  0  0  1  0  0  0  0  0999 V2000
    7.9556  -16.2917   19.8497 N   0  0  0  0  0  0  0  0  0  0  0  0
    8.8603  -17.2460   19.2677 C   0  0  1  0  0  0  0  0  0  0  0  0
    8.7752  -17.0678   17.7463 C   0  0  0  0  0  0  0  0  0  0  0  0
    8.6959  -15.5981   17.5057 C   0  0  0  0  0  0  0  0  0  0  0  0
    8.8543  -14.5723   18.4432 C   0  0  0  0  0  0  0  0  0  0  0  0
    8.7095  -13.3916   17.8304 N   0  0  0  0  0  0  0  0  0  0  0  0
    8.4645  -13.6199   16.5371 C   0  0  0  0  0  0  0  0  0  0  0  0
    8.4566  -14.9544   16.3424 N   0  0  0  0  0  0  0  0  0  0  0  0
   10.2538  -17.0649   19.7101 C   0  0  0  0  0  0  0  0  0  0  0  0
   11.0903  -17.9424   19.3758 O   0  0  0  0  0  0  0  0  0  0  0  0
   12.2899  -13.5564   18.3691 N   0  0  0  0  0  0  0  0  0  0  0  0
   12.9071  -14.6092   19.0723 C   0  0  0  0  0  0  0  0  0  0  0  0
   13.5575  -15.4633   18.4193 O   0  0  0  0  0  0  0  0  0  0  0  0
   12.7664  -14.6667   20.5362 C   0  0  0  0  0  0  0  0  0  0  0  0
   12.0459  -15.8931   21.0262 C   0  0  2  0  0  0  0  0  0  0  0  0
   10.7014  -15.9568   20.4910 N   0  0  0  0  0  0  0  0  0  0  0  0
   12.0078  -15.9342   22.5223 C   0  0  0  0  0  0  0  0  0  0  0  0
   13.0548  -15.8279   23.2095 O   0  0  0  0  0  0  0  0  0  0  0  0
   10.7832  -16.0951   23.2162 N   0  0  0  0  0  0  0  0  0  0  0  0
   10.7324  -16.2615   24.6751 C   0  0  1  0  0  0  0  0  0  0  0  0
    9.4647  -15.6660   25.2387 C   0  0  0  0  0  0  0  0  0  0  0  0
    9.5127  -15.9012   27.0370 S   0  0  0  0  0  0  0  0  0  0  0  0
   10.7354  -17.7165   24.9641 C   0  0  0  0  0  0  0  0  0  0  0  0
   10.1456  -18.5602   24.2271 O   0  0  0  0  0  0  0  0  0  0  0  0
   11.3952  -18.2252   26.0723 O   0  0  0  0  0  0  0  0  0  0  0  0
  2  1  1  1
  3  2  1  0
  4  3  1  0
  4  8  1  0
  5  4  2  0
  6  5  1  0
  6  7  1  0
  7  8  2  0
  9  2  1  0
 10  9  2  0
 11 12  1  0
 12 14  1  0
 12 13  2  0
 15 14  1  1
 15 16  1  0
 15 17  1  0
 16  9  1  0
 17 18  2  0
 17 19  1  0
 19 20  1  0
 20 21  1  6
 20 23  1  0
 22 21  1  0
 23 25  1  0
 24 23  2  0
M  END
$$$$
