HNC.pdb
     RDKit          3D

 25 25  0  0  1  0  0  0  0  0999 V2000
    7.5550  -17.5032   18.7762 N   0  0  0  0  0  0  0  0  0  0  0  0
    7.9007  -16.3061   19.4941 C   0  0  1  0  0  0  0  0  0  0  0  0
    7.0496  -15.1737   18.9050 C   0  0  0  0  0  0  0  0  0  0  0  0
    7.6407  -14.8627   17.5715 C   0  0  0  0  0  0  0  0  0  0  0  0
    8.7638  -15.4503   16.9803 C   0  0  0  0  0  0  0  0  0  0  0  0
    8.9691  -14.8952   15.7802 N   0  0  0  0  0  0  0  0  0  0  0  0
    8.0218  -13.9748   15.5787 C   0  0  0  0  0  0  0  0  0  0  0  0
    7.2195  -13.9564   16.6627 N   0  0  0  0  0  0  0  0  0  0  0  0
    7.6528  -16.4095   20.9426 C   0  0  0  0  0  0  0  0  0  0  0  0
    6.5232  -16.8198   21.3130 O   0  0  0  0  0  0  0  0  0  0  0  0
   11.2467  -18.1482   23.1018 N   0  0  0  0  0  0  0  0  0  0  0  0
   10.5184  -17.2472   23.9028 C   0  0  0  0  0  0  0  0  0  0  0  0
   11.1514  -16.3719   24.5445 O   0  0  0  0  0  0  0  0  0  0  0  0
    9.0524  -17.3663   23.9559 C   0  0  0  0  0  0  0  0  0  0  0  0
    8.3287  -16.1929   23.3537 C   0  0  2  0  0  0  0  0  0  0  0  0
    8.6175  -16.0720   21.9394 N   0  0  0  0  0  0  0  0  0  0  0  0
    8.6798  -14.9216   24.0622 C   0  0  0  0  0  0  0  0  0  0  0  0
    9.6874  -14.2445   23.7366 O   0  0  0  0  0  0  0  0  0  0  0  0
    7.8831  -14.4375   25.1289 N   0  0  0  0  0  0  0  0  0  0  0  0
    8.2396  -13.2242   25.8770 C   0  0  1  0  0  0  0  0  0  0  0  0
    7.0577  -12.2903   25.9783 C   0  0  0  0  0  0  0  0  0  0  0  0
    5.7323  -13.1900   26.8301 S   0  0  0  0  0  0  0  0  0  0  0  0
    8.6296  -13.6368   27.2475 C   0  0  0  0  0  0  0  0  0  0  0  0
    9.0354  -12.8130   28.1190 O   0  0  0  0  0  0  0  0  0  0  0  0
    8.5659  -14.9647   27.6410 O   0  0  0  0  0  0  0  0  0  0  0  0
  2  1  1  6
  3  2  1  0
  4  3  1  0
  4  8  1  0
  5  4  2  0
  6  5  1  0
  6  7  1  0
  7  8  2  0
  9  2  1  0
 10  9  2  0
 11 12  1  0
 12 14  1  0
 12 13  2  0
 15 14  1  1
 15 16  1  0
 15 17  1  0
 16  9  1  0
 17 18  2  0
 17 19  1  0
 19 20  1  0
 20 21  1  1
 20 23  1  0
 22 21  1  0
 23 25  1  0
 24 23  2  0
M  END
$$$$
