HNC.pdb
     RDKit          3D

 25 25  0  0  1  0  0  0  0  0999 V2000
    8.8450  -16.9871   19.5399 N   0  0  0  0  0  0  0  0  0  0  0  0
    8.9831  -15.9523   20.5287 C   0  0  1  0  0  0  0  0  0  0  0  0
    7.7070  -15.1031   20.4639 C   0  0  0  0  0  0  0  0  0  0  0  0
    7.7331  -14.4177   19.1395 C   0  0  0  0  0  0  0  0  0  0  0  0
    8.4193  -13.2471   18.8002 C   0  0  0  0  0  0  0  0  0  0  0  0
    8.1867  -12.9592   17.5143 N   0  0  0  0  0  0  0  0  0  0  0  0
    7.3786  -13.8991   17.0158 C   0  0  0  0  0  0  0  0  0  0  0  0
    7.1053  -14.7801   17.9997 N   0  0  0  0  0  0  0  0  0  0  0  0
    9.1593  -16.4776   21.8938 C   0  0  0  0  0  0  0  0  0  0  0  0
    8.2173  -17.1500   22.3858 O   0  0  0  0  0  0  0  0  0  0  0  0
   12.5297  -18.9901   22.1185 N   0  0  0  0  0  0  0  0  0  0  0  0
   11.6046  -18.8938   23.1762 C   0  0  0  0  0  0  0  0  0  0  0  0
   10.7493  -19.8050   23.3066 O   0  0  0  0  0  0  0  0  0  0  0  0
   11.6762  -17.7358   24.0818 C   0  0  0  0  0  0  0  0  0  0  0  0
   10.4743  -16.8341   24.0057 C   0  0  2  0  0  0  0  0  0  0  0  0
   10.3314  -16.2662   22.6809 N   0  0  0  0  0  0  0  0  0  0  0  0
   10.5531  -15.7436   25.0284 C   0  0  0  0  0  0  0  0  0  0  0  0
   11.4116  -14.8289   24.9491 O   0  0  0  0  0  0  0  0  0  0  0  0
    9.6574  -15.7067   26.1254 N   0  0  0  0  0  0  0  0  0  0  0  0
    9.7660  -14.6938   27.1841 C   0  0  1  0  0  0  0  0  0  0  0  0
    8.4250  -14.0555   27.4549 C   0  0  0  0  0  0  0  0  0  0  0  0
    8.6232  -12.2672   27.2221 S   0  0  0  0  0  0  0  0  0  0  0  0
   10.2169  -15.3790   28.4202 C   0  0  0  0  0  0  0  0  0  0  0  0
   10.1974  -16.6385   28.5485 O   0  0  0  0  0  0  0  0  0  0  0  0
   10.6873  -14.6587   29.5074 O   0  0  0  0  0  0  0  0  0  0  0  0
  2  1  1  6
  3  2  1  0
  4  3  1  0
  4  8  1  0
  5  4  2  0
  6  5  1  0
  6  7  1  0
  7  8  2  0
  9  2  1  0
 10  9  2  0
 11 12  1  0
 12 14  1  0
 12 13  2  0
 15 14  1  6
 15 16  1  0
 15 17  1  0
 16  9  1  0
 17 18  2  0
 17 19  1  0
 19 20  1  0
 20 21  1  1
 20 23  1  0
 22 21  1  0
 23 25  1  0
 24 23  2  0
M  END
$$$$
