HNC.pdb
     RDKit          3D

 25 25  0  0  1  0  0  0  0  0999 V2000
   10.3370  -15.4500   20.0200 N   0  0  0  0  0  0  0  0  0  0  0  0
    9.1113  -15.2386   20.7416 C   0  0  1  0  0  0  0  0  0  0  0  0
    7.9703  -15.6901   19.8207 C   0  0  0  0  0  0  0  0  0  0  0  0
    7.9173  -14.6963   18.7099 C   0  0  0  0  0  0  0  0  0  0  0  0
    8.7840  -13.6214   18.4874 C   0  0  0  0  0  0  0  0  0  0  0  0
    8.3985  -12.9677   17.3853 N   0  0  0  0  0  0  0  0  0  0  0  0
    7.3188  -13.5811   16.8924 C   0  0  0  0  0  0  0  0  0  0  0  0
    7.0292  -14.6261   17.6945 N   0  0  0  0  0  0  0  0  0  0  0  0
    9.0505  -15.9876   22.0088 C   0  0  0  0  0  0  0  0  0  0  0  0
    7.9898  -15.9127   22.6800 O   0  0  0  0  0  0  0  0  0  0  0  0
   12.0912  -19.8351   25.6581 N   0  0  0  0  0  0  0  0  0  0  0  0
   10.8672  -19.3556   25.1524 C   0  0  0  0  0  0  0  0  0  0  0  0
    9.8317  -19.5111   25.8470 O   0  0  0  0  0  0  0  0  0  0  0  0
   10.8498  -18.6949   23.8373 C   0  0  0  0  0  0  0  0  0  0  0  0
   10.0597  -17.4148   23.8147 C   0  0  2  0  0  0  0  0  0  0  0  0
   10.1217  -16.7867   22.5109 N   0  0  0  0  0  0  0  0  0  0  0  0
   10.5410  -16.4656   24.8677 C   0  0  0  0  0  0  0  0  0  0  0  0
   11.6771  -15.9321   24.8019 O   0  0  0  0  0  0  0  0  0  0  0  0
    9.7267  -16.1360   25.9792 N   0  0  0  0  0  0  0  0  0  0  0  0
   10.1870  -15.2269   27.0377 C   0  0  1  0  0  0  0  0  0  0  0  0
    9.0926  -14.2641   27.4308 C   0  0  0  0  0  0  0  0  0  0  0  0
    9.7374  -13.2387   28.7814 S   0  0  0  0  0  0  0  0  0  0  0  0
   10.5336  -16.0510   28.2215 C   0  0  0  0  0  0  0  0  0  0  0  0
   10.0243  -17.1907   28.4329 O   0  0  0  0  0  0  0  0  0  0  0  0
   11.4457  -15.6022   29.1643 O   0  0  0  0  0  0  0  0  0  0  0  0
  2  1  1  6
  3  2  1  0
  4  3  1  0
  4  8  1  0
  5  4  2  0
  6  5  1  0
  6  7  1  0
  7  8  2  0
  9  2  1  0
 10  9  2  0
 11 12  1  0
 12 14  1  0
 12 13  2  0
 15 14  1  6
 15 16  1  0
 15 17  1  0
 16  9  1  0
 17 18  2  0
 17 19  1  0
 19 20  1  0
 20 21  1  1
 20 23  1  0
 22 21  1  0
 23 25  1  0
 24 23  2  0
M  END
$$$$
