HNC.pdb
     RDKit          3D

 25 25  0  0  1  0  0  0  0  0999 V2000
    8.7642  -16.9338   19.7877 N   0  0  0  0  0  0  0  0  0  0  0  0
    9.1376  -15.9355   20.7529 C   0  0  1  0  0  0  0  0  0  0  0  0
    7.9681  -14.9466   20.8439 C   0  0  0  0  0  0  0  0  0  0  0  0
    7.9024  -14.2607   19.5212 C   0  0  0  0  0  0  0  0  0  0  0  0
    8.5700  -13.0946   19.1330 C   0  0  0  0  0  0  0  0  0  0  0  0
    8.2466  -12.8044   17.8674 N   0  0  0  0  0  0  0  0  0  0  0  0
    7.3980  -13.7385   17.4289 C   0  0  0  0  0  0  0  0  0  0  0  0
    7.1910  -14.6182   18.4300 N   0  0  0  0  0  0  0  0  0  0  0  0
    9.4161  -16.4968   22.0862 C   0  0  0  0  0  0  0  0  0  0  0  0
    8.4636  -17.0429   22.6995 O   0  0  0  0  0  0  0  0  0  0  0  0
   11.4046  -20.1373   23.6134 N   0  0  0  0  0  0  0  0  0  0  0  0
   12.1458  -19.0130   23.2008 C   0  0  0  0  0  0  0  0  0  0  0  0
   12.7496  -19.0665   22.1002 O   0  0  0  0  0  0  0  0  0  0  0  0
   12.1834  -17.8264   24.0707 C   0  0  0  0  0  0  0  0  0  0  0  0
   10.9207  -17.0094   24.0330 C   0  0  2  0  0  0  0  0  0  0  0  0
   10.6977  -16.4546   22.7137 N   0  0  0  0  0  0  0  0  0  0  0  0
   10.9565  -15.9144   25.0535 C   0  0  0  0  0  0  0  0  0  0  0  0
   11.9009  -15.0861   25.0957 O   0  0  0  0  0  0  0  0  0  0  0  0
    9.9210  -15.7755   26.0103 N   0  0  0  0  0  0  0  0  0  0  0  0
    9.9292  -14.7029   27.0143 C   0  0  1  0  0  0  0  0  0  0  0  0
    8.5388  -14.1522   27.2217 C   0  0  0  0  0  0  0  0  0  0  0  0
    8.6628  -12.8282   28.4559 S   0  0  0  0  0  0  0  0  0  0  0  0
   10.3977  -15.2867   28.2951 C   0  0  0  0  0  0  0  0  0  0  0  0
   10.7176  -14.5759   29.2928 O   0  0  0  0  0  0  0  0  0  0  0  0
   10.5079  -16.6590   28.4587 O   0  0  0  0  0  0  0  0  0  0  0  0
  2  1  1  6
  3  2  1  0
  4  3  1  0
  4  8  1  0
  5  4  2  0
  6  5  1  0
  6  7  1  0
  7  8  2  0
  9  2  1  0
 10  9  2  0
 11 12  1  0
 12 14  1  0
 12 13  2  0
 15 14  1  6
 15 16  1  0
 15 17  1  0
 16  9  1  0
 17 18  2  0
 17 19  1  0
 19 20  1  0
 20 21  1  1
 20 23  1  0
 22 21  1  0
 23 25  1  0
 24 23  2  0
M  END
$$$$
