NSS.pdb
     RDKit          3D

 21 20  0  0  1  0  0  0  0  0999 V2000
   18.6248  -14.0807  -15.5572 N   0  0  0  0  0  0  0  0  0  0  0  0
   18.0725  -12.7710  -15.4267 C   0  0  0  0  0  0  0  0  0  0  0  0
   16.8626  -12.6661  -15.1332 O   0  0  0  0  0  0  0  0  0  0  0  0
   18.9143  -11.5648  -15.6345 C   0  0  0  0  0  0  0  0  0  0  0  0
   18.3083  -10.7234  -16.7094 C   0  0  2  0  0  0  0  0  0  0  0  0
   18.4809  -11.3969  -17.9743 N   0  0  0  0  0  0  0  0  0  0  0  0
   18.8653   -9.3504  -16.7434 C   0  0  0  0  0  0  0  0  0  0  0  0
   19.9054   -9.0503  -17.3811 O   0  0  0  0  0  0  0  0  0  0  0  0
   17.1217   -6.2792  -14.3805 O   0  0  0  0  0  0  0  0  0  0  0  0
   17.4812   -6.0656  -15.7118 C   0  0  0  0  0  0  0  0  0  0  0  0
   18.6216   -6.9363  -16.0982 C   0  0  2  0  0  0  0  0  0  0  0  0
   18.1975   -8.3213  -16.0239 N   0  0  0  0  0  0  0  0  0  0  0  0
   19.8740   -6.7265  -15.4013 C   0  0  0  0  0  0  0  0  0  0  0  0
   20.0624   -7.3466  -14.3217 O   0  0  0  0  0  0  0  0  0  0  0  0
   24.2065   -4.5647  -15.3055 O   0  0  0  0  0  0  0  0  0  0  0  0
   23.0219   -4.7398  -16.0015 C   0  0  0  0  0  0  0  0  0  0  0  0
   22.1211   -5.6019  -15.1078 C   0  0  2  0  0  0  0  0  0  0  0  0
   20.9234   -5.8746  -15.8287 N   0  0  0  0  0  0  0  0  0  0  0  0
   21.9404   -4.8903  -13.8510 C   0  0  0  0  0  0  0  0  0  0  0  0
   21.0714   -4.0010  -13.7400 O   0  0  0  0  0  0  0  0  0  0  0  0
   22.7245   -5.1824  -12.7560 O   0  0  0  0  0  0  0  0  0  0  0  0
  2  3  2  0
  2  1  1  0
  4  2  1  0
  5  7  1  0
  5  4  1  0
  5  6  1  6
  7  8  2  0
 10  9  1  0
 11 10  1  1
 11 13  1  0
 12 11  1  0
 12  7  1  0
 13 14  2  0
 13 18  1  0
 15 16  1  0
 17 16  1  6
 17 19  1  0
 18 17  1  0
 19 20  2  0
 19 21  1  0
M  END
$$$$
