NSS.pdb
     RDKit          3D

 21 20  0  0  1  0  0  0  0  0999 V2000
   17.5887  -12.3176  -16.4472 N   0  0  0  0  0  0  0  0  0  0  0  0
   17.5125  -12.7077  -15.0763 C   0  0  0  0  0  0  0  0  0  0  0  0
   17.2217  -13.8942  -14.8144 O   0  0  0  0  0  0  0  0  0  0  0  0
   17.7724  -11.7285  -13.9898 C   0  0  0  0  0  0  0  0  0  0  0  0
   18.0005  -10.3799  -14.5896 C   0  0  2  0  0  0  0  0  0  0  0  0
   19.3263  -10.3471  -15.1595 N   0  0  0  0  0  0  0  0  0  0  0  0
   17.7988   -9.2798  -13.6172 C   0  0  0  0  0  0  0  0  0  0  0  0
   18.6781   -8.9270  -12.7921 O   0  0  0  0  0  0  0  0  0  0  0  0
   16.6476   -5.5599  -14.0386 O   0  0  0  0  0  0  0  0  0  0  0  0
   15.6723   -6.3755  -13.4634 C   0  0  0  0  0  0  0  0  0  0  0  0
   16.2955   -7.4891  -12.7022 C   0  0  2  0  0  0  0  0  0  0  0  0
   16.5562   -8.5881  -13.6122 N   0  0  0  0  0  0  0  0  0  0  0  0
   15.6043   -7.9385  -11.5112 C   0  0  0  0  0  0  0  0  0  0  0  0
   14.7561   -8.8614  -11.6312 O   0  0  0  0  0  0  0  0  0  0  0  0
   15.9099   -5.7625   -8.2905 O   0  0  0  0  0  0  0  0  0  0  0  0
   15.6474   -7.0478   -7.8462 C   0  0  0  0  0  0  0  0  0  0  0  0
   15.0608   -7.8058   -9.0441 C   0  0  2  0  0  0  0  0  0  0  0  0
   15.7973   -7.4278  -10.2030 N   0  0  0  0  0  0  0  0  0  0  0  0
   13.6356   -7.5142   -9.0921 C   0  0  0  0  0  0  0  0  0  0  0  0
   12.8510   -8.0265   -8.2674 O   0  0  0  0  0  0  0  0  0  0  0  0
   13.1210   -6.6662  -10.0489 O   0  0  0  0  0  0  0  0  0  0  0  0
  2  3  2  0
  2  1  1  0
  4  2  1  0
  5  7  1  0
  5  4  1  0
  5  6  1  1
  7  8  2  0
 10  9  1  0
 11 10  1  6
 11 13  1  0
 12 11  1  0
 12  7  1  0
 13 14  2  0
 13 18  1  0
 15 16  1  0
 17 16  1  1
 17 19  1  0
 18 17  1  0
 19 20  2  0
 19 21  1  0
M  END
$$$$
