NSS.pdb
     RDKit          3D

 21 20  0  0  1  0  0  0  0  0999 V2000
   20.6179  -10.6140  -21.9595 N   0  0  0  0  0  0  0  0  0  0  0  0
   19.6145  -10.6510  -20.9449 C   0  0  0  0  0  0  0  0  0  0  0  0
   18.5848  -11.3263  -21.1561 O   0  0  0  0  0  0  0  0  0  0  0  0
   19.7904   -9.9062  -19.6717 C   0  0  0  0  0  0  0  0  0  0  0  0
   20.7790  -10.6268  -18.8149 C   0  0  2  0  0  0  0  0  0  0  0  0
   20.1650  -11.8355  -18.3196 N   0  0  0  0  0  0  0  0  0  0  0  0
   21.2969   -9.7868  -17.7091 C   0  0  0  0  0  0  0  0  0  0  0  0
   20.6227   -9.5137  -16.6847 O   0  0  0  0  0  0  0  0  0  0  0  0
   25.2006   -7.5398  -15.9304 O   0  0  0  0  0  0  0  0  0  0  0  0
   24.6367   -8.4171  -16.8575 C   0  0  0  0  0  0  0  0  0  0  0  0
   23.1528   -8.3544  -16.8107 C   0  0  2  0  0  0  0  0  0  0  0  0
   22.6156   -9.2631  -17.8053 N   0  0  0  0  0  0  0  0  0  0  0  0
   22.5473   -7.0422  -16.9082 C   0  0  0  0  0  0  0  0  0  0  0  0
   22.4491   -6.5184  -18.0491 O   0  0  0  0  0  0  0  0  0  0  0  0
   19.7767   -5.6540  -14.5744 O   0  0  0  0  0  0  0  0  0  0  0  0
   20.0435   -4.9772  -15.7531 C   0  0  0  0  0  0  0  0  0  0  0  0
   21.5708   -4.9411  -15.8925 C   0  0  2  0  0  0  0  0  0  0  0  0
   22.0474   -6.2813  -15.8216 N   0  0  0  0  0  0  0  0  0  0  0  0
   22.0835   -4.0450  -14.8664 C   0  0  0  0  0  0  0  0  0  0  0  0
   22.8237   -4.4730  -13.9569 O   0  0  0  0  0  0  0  0  0  0  0  0
   21.7633   -2.7047  -14.8763 O   0  0  0  0  0  0  0  0  0  0  0  0
  2  3  2  0
  2  1  1  0
  4  2  1  0
  5  7  1  0
  5  4  1  0
  5  6  1  1
  7  8  2  0
 10  9  1  0
 11 10  1  6
 11 13  1  0
 12 11  1  0
 12  7  1  0
 13 14  2  0
 13 18  1  0
 15 16  1  0
 17 16  1  1
 17 19  1  0
 18 17  1  0
 19 20  2  0
 19 21  1  0
M  END
$$$$
