NSS.pdb
     RDKit          3D

 21 20  0  0  1  0  0  0  0  0999 V2000
   18.5623  -12.4442  -19.2081 N   0  0  0  0  0  0  0  0  0  0  0  0
   18.2174  -11.0757  -19.4216 C   0  0  0  0  0  0  0  0  0  0  0  0
   17.8833  -10.7228  -20.5726 O   0  0  0  0  0  0  0  0  0  0  0  0
   18.2550  -10.0971  -18.3045 C   0  0  0  0  0  0  0  0  0  0  0  0
   18.6901  -10.7937  -17.0572 C   0  0  2  0  0  0  0  0  0  0  0  0
   17.6223  -11.6589  -16.6159 N   0  0  0  0  0  0  0  0  0  0  0  0
   19.1031   -9.8514  -15.9903 C   0  0  0  0  0  0  0  0  0  0  0  0
   18.2844   -9.2849  -15.2241 O   0  0  0  0  0  0  0  0  0  0  0  0
   23.2020   -9.4228  -15.0073 O   0  0  0  0  0  0  0  0  0  0  0  0
   22.1355   -9.2756  -14.1195 C   0  0  0  0  0  0  0  0  0  0  0  0
   20.9641   -8.6615  -14.7968 C   0  0  2  0  0  0  0  0  0  0  0  0
   20.4871   -9.5714  -15.8207 N   0  0  0  0  0  0  0  0  0  0  0  0
   21.1341   -7.3200  -15.3159 C   0  0  0  0  0  0  0  0  0  0  0  0
   21.5986   -7.1893  -16.4790 O   0  0  0  0  0  0  0  0  0  0  0  0
   20.3343   -2.6089  -15.0284 O   0  0  0  0  0  0  0  0  0  0  0  0
   20.1062   -3.8464  -14.4497 C   0  0  0  0  0  0  0  0  0  0  0  0
   21.1392   -4.8033  -15.0586 C   0  0  2  0  0  0  0  0  0  0  0  0
   20.8211   -6.1222  -14.6253 N   0  0  0  0  0  0  0  0  0  0  0  0
   22.4593   -4.3254  -14.6745 C   0  0  0  0  0  0  0  0  0  0  0  0
   22.8679   -4.4521  -13.5018 O   0  0  0  0  0  0  0  0  0  0  0  0
   23.2871   -3.7227  -15.5968 O   0  0  0  0  0  0  0  0  0  0  0  0
  2  3  2  0
  2  1  1  0
  4  2  1  0
  5  7  1  0
  5  4  1  0
  5  6  1  1
  7  8  2  0
 10  9  1  0
 11 10  1  6
 11 13  1  0
 12 11  1  0
 12  7  1  0
 13 14  2  0
 13 18  1  0
 15 16  1  0
 17 16  1  1
 17 19  1  0
 18 17  1  0
 19 20  2  0
 19 21  1  0
M  END
$$$$
