NSS.pdb
     RDKit          3D

 21 20  0  0  1  0  0  0  0  0999 V2000
   19.5233  -11.4734  -20.2921 N   0  0  0  0  0  0  0  0  0  0  0  0
   18.8032  -10.2536  -20.1170 C   0  0  0  0  0  0  0  0  0  0  0  0
   18.1081   -9.8357  -21.0673 O   0  0  0  0  0  0  0  0  0  0  0  0
   18.8784   -9.5010  -18.8384 C   0  0  0  0  0  0  0  0  0  0  0  0
   19.8247  -10.1962  -17.9155 C   0  0  2  0  0  0  0  0  0  0  0  0
   19.2342  -11.4485  -17.5074 N   0  0  0  0  0  0  0  0  0  0  0  0
   20.1988   -9.3646  -16.7471 C   0  0  0  0  0  0  0  0  0  0  0  0
   19.4282   -9.1653  -15.7751 O   0  0  0  0  0  0  0  0  0  0  0  0
   23.6790   -7.4536  -14.1405 O   0  0  0  0  0  0  0  0  0  0  0  0
   23.2155   -8.3180  -15.1331 C   0  0  0  0  0  0  0  0  0  0  0  0
   21.8929   -7.8748  -15.6453 C   0  0  2  0  0  0  0  0  0  0  0  0
   21.4867   -8.7620  -16.7184 N   0  0  0  0  0  0  0  0  0  0  0  0
   21.7702   -6.4840  -16.0311 C   0  0  0  0  0  0  0  0  0  0  0  0
   22.1670   -6.1504  -17.1787 O   0  0  0  0  0  0  0  0  0  0  0  0
   19.7534   -2.2293  -15.6751 O   0  0  0  0  0  0  0  0  0  0  0  0
   19.7932   -3.5407  -15.2311 C   0  0  0  0  0  0  0  0  0  0  0  0
   21.1961   -4.0651  -15.5630 C   0  0  2  0  0  0  0  0  0  0  0  0
   21.2367   -5.4479  -15.2242 N   0  0  0  0  0  0  0  0  0  0  0  0
   22.1555   -3.2257  -14.8605 C   0  0  0  0  0  0  0  0  0  0  0  0
   22.4644   -3.4640  -13.6748 O   0  0  0  0  0  0  0  0  0  0  0  0
   22.7439   -2.1494  -15.4888 O   0  0  0  0  0  0  0  0  0  0  0  0
  2  3  2  0
  2  1  1  0
  4  2  1  0
  5  7  1  0
  5  4  1  0
  5  6  1  1
  7  8  2  0
 10  9  1  0
 11 10  1  6
 11 13  1  0
 12 11  1  0
 12  7  1  0
 13 14  2  0
 13 18  1  0
 15 16  1  0
 17 16  1  1
 17 19  1  0
 18 17  1  0
 19 20  2  0
 19 21  1  0
M  END
$$$$
