NSS.pdb
     RDKit          3D

 21 20  0  0  1  0  0  0  0  0999 V2000
   16.4913  -12.5359  -17.3569 N   0  0  0  0  0  0  0  0  0  0  0  0
   16.7062  -12.9607  -16.0113 C   0  0  0  0  0  0  0  0  0  0  0  0
   15.9937  -13.8832  -15.5616 O   0  0  0  0  0  0  0  0  0  0  0  0
   17.7495  -12.3225  -15.1681 C   0  0  0  0  0  0  0  0  0  0  0  0
   18.4301  -11.2523  -15.9567 C   0  0  2  0  0  0  0  0  0  0  0  0
   19.1944  -11.8729  -17.0122 N   0  0  0  0  0  0  0  0  0  0  0  0
   19.2770  -10.3732  -15.1161 C   0  0  0  0  0  0  0  0  0  0  0  0
   18.8689   -9.8458  -14.0514 O   0  0  0  0  0  0  0  0  0  0  0  0
   23.1883   -9.3274  -16.4420 O   0  0  0  0  0  0  0  0  0  0  0  0
   22.8785   -9.4972  -15.0920 C   0  0  0  0  0  0  0  0  0  0  0  0
   21.4557   -9.1590  -14.8291 C   0  0  2  0  0  0  0  0  0  0  0  0
   20.6128  -10.1106  -15.5274 N   0  0  0  0  0  0  0  0  0  0  0  0
   21.0456   -7.7946  -15.0906 C   0  0  0  0  0  0  0  0  0  0  0  0
   20.6189   -7.5147  -16.2418 O   0  0  0  0  0  0  0  0  0  0  0  0
   19.4288   -3.5665  -13.9644 O   0  0  0  0  0  0  0  0  0  0  0  0
   19.6807   -4.8750  -13.5869 C   0  0  0  0  0  0  0  0  0  0  0  0
   20.8536   -5.3543  -14.4518 C   0  0  2  0  0  0  0  0  0  0  0  0
   21.0806   -6.7290  -14.1564 N   0  0  0  0  0  0  0  0  0  0  0  0
   21.9799   -4.4697  -14.1922 C   0  0  0  0  0  0  0  0  0  0  0  0
   22.7077   -4.6393  -13.1922 O   0  0  0  0  0  0  0  0  0  0  0  0
   22.2677   -3.4255  -15.0443 O   0  0  0  0  0  0  0  0  0  0  0  0
  2  3  2  0
  2  1  1  0
  4  2  1  0
  5  7  1  0
  5  4  1  0
  5  6  1  6
  7  8  2  0
 10  9  1  0
 11 10  1  6
 11 13  1  0
 12 11  1  0
 12  7  1  0
 13 14  2  0
 13 18  1  0
 15 16  1  0
 17 16  1  1
 17 19  1  0
 18 17  1  0
 19 20  2  0
 19 21  1  0
M  END
$$$$
