NSS.pdb
     RDKit          3D

 21 20  0  0  1  0  0  0  0  0999 V2000
   14.0217  -11.9084  -15.1056 N   0  0  0  0  0  0  0  0  0  0  0  0
   15.0078  -12.6388  -14.3765 C   0  0  0  0  0  0  0  0  0  0  0  0
   14.9155  -13.8843  -14.3419 O   0  0  0  0  0  0  0  0  0  0  0  0
   16.1143  -11.9363  -13.6773 C   0  0  0  0  0  0  0  0  0  0  0  0
   15.9317  -10.4617  -13.8287 C   0  0  2  0  0  0  0  0  0  0  0  0
   16.6320  -10.0298  -15.0146 N   0  0  0  0  0  0  0  0  0  0  0  0
   16.3701   -9.7053  -12.6319 C   0  0  0  0  0  0  0  0  0  0  0  0
   15.9620   -9.9642  -11.4723 O   0  0  0  0  0  0  0  0  0  0  0  0
   19.3045   -6.1531  -11.0767 O   0  0  0  0  0  0  0  0  0  0  0  0
   18.8619   -6.9689  -12.1187 C   0  0  0  0  0  0  0  0  0  0  0  0
   17.7245   -7.8181  -11.6792 C   0  0  2  0  0  0  0  0  0  0  0  0
   17.2944   -8.6371  -12.7964 N   0  0  0  0  0  0  0  0  0  0  0  0
   16.6055   -7.1447  -11.0528 C   0  0  0  0  0  0  0  0  0  0  0  0
   15.7166   -6.6543  -11.7978 O   0  0  0  0  0  0  0  0  0  0  0  0
   14.3412   -5.8705   -6.9727 O   0  0  0  0  0  0  0  0  0  0  0  0
   15.4598   -6.4722   -7.5251 C   0  0  0  0  0  0  0  0  0  0  0  0
   15.3694   -6.2410   -9.0390 C   0  0  2  0  0  0  0  0  0  0  0  0
   16.4153   -6.9842   -9.6572 N   0  0  0  0  0  0  0  0  0  0  0  0
   15.4114   -4.8039   -9.2662 C   0  0  0  0  0  0  0  0  0  0  0  0
   16.4990   -4.2166   -9.4409 O   0  0  0  0  0  0  0  0  0  0  0  0
   14.2517   -4.0600   -9.2936 O   0  0  0  0  0  0  0  0  0  0  0  0
  2  3  2  0
  2  1  1  0
  4  2  1  0
  5  7  1  0
  5  4  1  0
  5  6  1  6
  7  8  2  0
 10  9  1  0
 11 10  1  6
 11 13  1  0
 12 11  1  0
 12  7  1  0
 13 14  2  0
 13 18  1  0
 15 16  1  0
 17 16  1  1
 17 19  1  0
 18 17  1  0
 19 20  2  0
 19 21  1  0
M  END
$$$$
