NSS.pdb
     RDKit          3D

 21 20  0  0  1  0  0  0  0  0999 V2000
   15.2162  -12.4052  -17.5679 N   0  0  0  0  0  0  0  0  0  0  0  0
   16.1002  -11.5585  -18.3022 C   0  0  0  0  0  0  0  0  0  0  0  0
   16.6676  -12.0290  -19.3110 O   0  0  0  0  0  0  0  0  0  0  0  0
   16.3389  -10.1551  -17.8779 C   0  0  0  0  0  0  0  0  0  0  0  0
   17.7683  -10.0019  -17.4730 C   0  0  2  0  0  0  0  0  0  0  0  0
   18.2456  -11.2708  -16.9778 N   0  0  0  0  0  0  0  0  0  0  0  0
   17.9687   -8.9199  -16.4802 C   0  0  0  0  0  0  0  0  0  0  0  0
   17.6405   -7.7262  -16.6944 O   0  0  0  0  0  0  0  0  0  0  0  0
   19.0634   -7.9298  -11.8820 O   0  0  0  0  0  0  0  0  0  0  0  0
   18.9071   -8.8794  -12.8924 C   0  0  0  0  0  0  0  0  0  0  0  0
   18.8254   -8.2260  -14.2245 C   0  0  2  0  0  0  0  0  0  0  0  0
   18.5584   -9.2403  -15.2263 N   0  0  0  0  0  0  0  0  0  0  0  0
   19.9349   -7.3783  -14.6097 C   0  0  0  0  0  0  0  0  0  0  0  0
   20.9154   -7.9135  -15.1909 O   0  0  0  0  0  0  0  0  0  0  0  0
   21.5988   -2.9778  -15.5116 O   0  0  0  0  0  0  0  0  0  0  0  0
   20.5399   -3.7401  -15.0467 C   0  0  0  0  0  0  0  0  0  0  0  0
   21.1039   -5.1410  -14.7770 C   0  0  2  0  0  0  0  0  0  0  0  0
   20.0206   -5.9806  -14.3895 N   0  0  0  0  0  0  0  0  0  0  0  0
   22.1659   -5.0037  -13.7912 C   0  0  0  0  0  0  0  0  0  0  0  0
   21.9371   -5.1829  -12.5772 O   0  0  0  0  0  0  0  0  0  0  0  0
   23.4472   -4.6730  -14.1761 O   0  0  0  0  0  0  0  0  0  0  0  0
  2  3  2  0
  2  1  1  0
  4  2  1  0
  5  7  1  0
  5  4  1  0
  5  6  1  1
  7  8  2  0
 10  9  1  0
 11 10  1  1
 11 13  1  0
 12 11  1  0
 12  7  1  0
 13 14  2  0
 13 18  1  0
 15 16  1  0
 17 16  1  1
 17 19  1  0
 18 17  1  0
 19 20  2  0
 19 21  1  0
M  END
$$$$
