NSS.pdb
     RDKit          3D

 21 20  0  0  1  0  0  0  0  0999 V2000
   18.6242  -13.5848  -17.2079 N   0  0  0  0  0  0  0  0  0  0  0  0
   18.3108  -12.7483  -16.0946 C   0  0  0  0  0  0  0  0  0  0  0  0
   17.2131  -12.9137  -15.5213 O   0  0  0  0  0  0  0  0  0  0  0  0
   19.2649  -11.7088  -15.6300 C   0  0  0  0  0  0  0  0  0  0  0  0
   20.4284  -11.6584  -16.5651 C   0  0  2  0  0  0  0  0  0  0  0  0
   21.0904  -12.9409  -16.5468 N   0  0  0  0  0  0  0  0  0  0  0  0
   21.3680  -10.5564  -16.2501 C   0  0  0  0  0  0  0  0  0  0  0  0
   22.1377  -10.5772  -15.2573 O   0  0  0  0  0  0  0  0  0  0  0  0
   22.3292   -7.7734  -19.1736 O   0  0  0  0  0  0  0  0  0  0  0  0
   23.1305   -8.0853  -18.0746 C   0  0  0  0  0  0  0  0  0  0  0  0
   22.3016   -8.3073  -16.8614 C   0  0  2  0  0  0  0  0  0  0  0  0
   21.4053   -9.4211  -17.1059 N   0  0  0  0  0  0  0  0  0  0  0  0
   21.5919   -7.1611  -16.3318 C   0  0  0  0  0  0  0  0  0  0  0  0
   20.4573   -6.8947  -16.8086 O   0  0  0  0  0  0  0  0  0  0  0  0
   22.5607   -5.4526  -12.8577 O   0  0  0  0  0  0  0  0  0  0  0  0
   21.2952   -5.1718  -13.3456 C   0  0  0  0  0  0  0  0  0  0  0  0
   21.4283   -5.1013  -14.8723 C   0  0  2  0  0  0  0  0  0  0  0  0
   22.0636   -6.2982  -15.3108 N   0  0  0  0  0  0  0  0  0  0  0  0
   22.1347   -3.8700  -15.1942 C   0  0  0  0  0  0  0  0  0  0  0  0
   23.2740   -3.9021  -15.7035 O   0  0  0  0  0  0  0  0  0  0  0  0
   21.5616   -2.6419  -14.9441 O   0  0  0  0  0  0  0  0  0  0  0  0
  2  3  2  0
  2  1  1  0
  4  2  1  0
  5  7  1  0
  5  4  1  0
  5  6  1  1
  7  8  2  0
 10  9  1  0
 11 10  1  6
 11 13  1  0
 12 11  1  0
 12  7  1  0
 13 14  2  0
 13 18  1  0
 15 16  1  0
 17 16  1  1
 17 19  1  0
 18 17  1  0
 19 20  2  0
 19 21  1  0
M  END
$$$$
