NSS.pdb
     RDKit          3D

 21 20  0  0  1  0  0  0  0  0999 V2000
   16.1108  -14.1302  -14.0029 N   0  0  0  0  0  0  0  0  0  0  0  0
   16.0412  -12.7625  -14.4054 C   0  0  0  0  0  0  0  0  0  0  0  0
   14.9158  -12.2256  -14.4829 O   0  0  0  0  0  0  0  0  0  0  0  0
   17.2746  -11.9981  -14.7236 C   0  0  0  0  0  0  0  0  0  0  0  0
   17.1083  -11.3290  -16.0484 C   0  0  2  0  0  0  0  0  0  0  0  0
   17.0509  -12.3437  -17.0733 N   0  0  0  0  0  0  0  0  0  0  0  0
   18.1729  -10.3357  -16.3251 C   0  0  0  0  0  0  0  0  0  0  0  0
   19.3491  -10.6599  -16.6248 O   0  0  0  0  0  0  0  0  0  0  0  0
   17.1399   -6.2538  -16.5444 O   0  0  0  0  0  0  0  0  0  0  0  0
   18.1348   -6.8399  -17.3279 C   0  0  0  0  0  0  0  0  0  0  0  0
   18.8246   -7.9248  -16.5828 C   0  0  2  0  0  0  0  0  0  0  0  0
   17.8557   -8.9514  -16.2496 N   0  0  0  0  0  0  0  0  0  0  0  0
   19.6039   -7.5345  -15.4259 C   0  0  0  0  0  0  0  0  0  0  0  0
   19.0161   -7.4552  -14.3151 O   0  0  0  0  0  0  0  0  0  0  0  0
   23.0033   -8.7113  -14.2919 O   0  0  0  0  0  0  0  0  0  0  0  0
   23.1489   -7.3388  -14.4085 C   0  0  0  0  0  0  0  0  0  0  0  0
   21.7367   -6.7468  -14.3167 C   0  0  2  0  0  0  0  0  0  0  0  0
   20.9881   -7.2290  -15.4282 N   0  0  0  0  0  0  0  0  0  0  0  0
   21.8722   -5.2995  -14.2407 C   0  0  0  0  0  0  0  0  0  0  0  0
   21.4847   -4.5720  -15.1781 O   0  0  0  0  0  0  0  0  0  0  0  0
   22.4312   -4.7007  -13.1325 O   0  0  0  0  0  0  0  0  0  0  0  0
  2  3  2  0
  2  1  1  0
  4  2  1  0
  5  7  1  0
  5  4  1  0
  5  6  1  6
  7  8  2  0
 10  9  1  0
 11 10  1  1
 11 13  1  0
 12 11  1  0
 12  7  1  0
 13 14  2  0
 13 18  1  0
 15 16  1  0
 17 16  1  6
 17 19  1  0
 18 17  1  0
 19 20  2  0
 19 21  1  0
M  END
$$$$
