NSS.pdb
     RDKit          3D

 21 20  0  0  1  0  0  0  0  0999 V2000
   15.7532  -10.9105  -17.7810 N   0  0  0  0  0  0  0  0  0  0  0  0
   15.7418  -11.3527  -16.4239 C   0  0  0  0  0  0  0  0  0  0  0  0
   14.8237  -12.1175  -16.0590 O   0  0  0  0  0  0  0  0  0  0  0  0
   16.7940  -10.9151  -15.4709 C   0  0  0  0  0  0  0  0  0  0  0  0
   17.7569  -10.0210  -16.1807 C   0  0  2  0  0  0  0  0  0  0  0  0
   18.6406  -10.8365  -16.9791 N   0  0  0  0  0  0  0  0  0  0  0  0
   18.5131   -9.1449  -15.2548 C   0  0  0  0  0  0  0  0  0  0  0  0
   17.9554   -8.3555  -14.4521 O   0  0  0  0  0  0  0  0  0  0  0  0
   22.7254   -9.0090  -15.5371 O   0  0  0  0  0  0  0  0  0  0  0  0
   22.0961   -8.9245  -14.2944 C   0  0  0  0  0  0  0  0  0  0  0  0
   20.7398   -8.3323  -14.4274 C   0  0  2  0  0  0  0  0  0  0  0  0
   19.9343   -9.1950  -15.2703 N   0  0  0  0  0  0  0  0  0  0  0  0
   20.6653   -6.9508  -14.8565 C   0  0  0  0  0  0  0  0  0  0  0  0
   20.6343   -6.7155  -16.0932 O   0  0  0  0  0  0  0  0  0  0  0  0
   19.9119   -2.3218  -14.0606 O   0  0  0  0  0  0  0  0  0  0  0  0
   19.8207   -3.6114  -13.5638 C   0  0  0  0  0  0  0  0  0  0  0  0
   20.7807   -4.4647  -14.4026 C   0  0  2  0  0  0  0  0  0  0  0  0
   20.6236   -5.8219  -14.0002 N   0  0  0  0  0  0  0  0  0  0  0  0
   22.1183   -3.9173  -14.2303 C   0  0  0  0  0  0  0  0  0  0  0  0
   22.6069   -3.1457  -15.0813 O   0  0  0  0  0  0  0  0  0  0  0  0
   22.8748   -4.2387  -13.1241 O   0  0  0  0  0  0  0  0  0  0  0  0
  2  3  2  0
  2  1  1  0
  4  2  1  0
  5  7  1  0
  5  4  1  0
  5  6  1  1
  7  8  2  0
 10  9  1  0
 11 10  1  6
 11 13  1  0
 12 11  1  0
 12  7  1  0
 13 14  2  0
 13 18  1  0
 15 16  1  0
 17 16  1  1
 17 19  1  0
 18 17  1  0
 19 20  2  0
 19 21  1  0
M  END
$$$$
