NSS.pdb
     RDKit          3D

 21 20  0  0  1  0  0  0  0  0999 V2000
   18.4504  -14.2102  -15.6397 N   0  0  0  0  0  0  0  0  0  0  0  0
   17.5782  -13.2077  -16.1610 C   0  0  0  0  0  0  0  0  0  0  0  0
   16.5079  -13.5730  -16.6919 O   0  0  0  0  0  0  0  0  0  0  0  0
   17.9341  -11.7680  -16.0744 C   0  0  0  0  0  0  0  0  0  0  0  0
   16.9075  -11.0578  -15.2545 C   0  0  2  0  0  0  0  0  0  0  0  0
   15.6421  -11.1190  -15.9463 N   0  0  0  0  0  0  0  0  0  0  0  0
   17.2906   -9.6603  -14.9434 C   0  0  0  0  0  0  0  0  0  0  0  0
   17.5854   -8.8191  -15.8288 O   0  0  0  0  0  0  0  0  0  0  0  0
   18.1831   -8.5400  -10.9377 O   0  0  0  0  0  0  0  0  0  0  0  0
   17.4473   -7.6967  -11.7712 C   0  0  0  0  0  0  0  0  0  0  0  0
   17.7945   -7.9280  -13.1974 C   0  0  2  0  0  0  0  0  0  0  0  0
   17.3283   -9.2461  -13.5835 N   0  0  0  0  0  0  0  0  0  0  0  0
   19.1763   -7.7206  -13.5792 C   0  0  0  0  0  0  0  0  0  0  0  0
   19.9201   -8.7312  -13.6834 O   0  0  0  0  0  0  0  0  0  0  0  0
   22.5100   -5.9574  -16.0979 O   0  0  0  0  0  0  0  0  0  0  0  0
   21.1760   -6.1116  -15.7587 C   0  0  0  0  0  0  0  0  0  0  0  0
   21.1342   -6.2576  -14.2322 C   0  0  2  0  0  0  0  0  0  0  0  0
   19.7779   -6.4660  -13.8506 N   0  0  0  0  0  0  0  0  0  0  0  0
   21.7648   -5.0765  -13.6613 C   0  0  0  0  0  0  0  0  0  0  0  0
   21.1035   -4.0394  -13.4485 O   0  0  0  0  0  0  0  0  0  0  0  0
   23.1058   -5.0771  -13.3433 O   0  0  0  0  0  0  0  0  0  0  0  0
  2  3  2  0
  2  1  1  0
  4  2  1  0
  5  7  1  0
  5  4  1  0
  5  6  1  6
  7  8  2  0
 10  9  1  0
 11 10  1  1
 11 13  1  0
 12 11  1  0
 12  7  1  0
 13 14  2  0
 13 18  1  0
 15 16  1  0
 17 16  1  6
 17 19  1  0
 18 17  1  0
 19 20  2  0
 19 21  1  0
M  END
$$$$
