NSS.pdb
     RDKit          3D

 21 20  0  0  1  0  0  0  0  0999 V2000
   16.6047  -10.3335  -17.5194 N   0  0  0  0  0  0  0  0  0  0  0  0
   16.1651  -10.9814  -16.3259 C   0  0  0  0  0  0  0  0  0  0  0  0
   15.0801  -11.6001  -16.3543 O   0  0  0  0  0  0  0  0  0  0  0  0
   16.9767  -10.9215  -15.0831 C   0  0  0  0  0  0  0  0  0  0  0  0
   18.2143  -10.1271  -15.3437 C   0  0  2  0  0  0  0  0  0  0  0  0
   19.2084  -10.9991  -15.9223 N   0  0  0  0  0  0  0  0  0  0  0  0
   18.7255   -9.4497  -14.1286 C   0  0  0  0  0  0  0  0  0  0  0  0
   19.9080   -9.5741  -13.7231 O   0  0  0  0  0  0  0  0  0  0  0  0
   19.9052   -6.1275  -11.7444 O   0  0  0  0  0  0  0  0  0  0  0  0
   19.4944   -7.0241  -12.7316 C   0  0  0  0  0  0  0  0  0  0  0  0
   18.3102   -7.8007  -12.2815 C   0  0  2  0  0  0  0  0  0  0  0  0
   17.8430   -8.6200  -13.3834 N   0  0  0  0  0  0  0  0  0  0  0  0
   17.2257   -7.0541  -11.6779 C   0  0  0  0  0  0  0  0  0  0  0  0
   16.5330   -6.3102  -12.4211 O   0  0  0  0  0  0  0  0  0  0  0  0
   14.6124   -6.1080   -7.7269 O   0  0  0  0  0  0  0  0  0  0  0  0
   15.7635   -6.7002   -8.2194 C   0  0  0  0  0  0  0  0  0  0  0  0
   15.8738   -6.2711   -9.6881 C   0  0  2  0  0  0  0  0  0  0  0  0
   16.8664   -7.0837  -10.3069 N   0  0  0  0  0  0  0  0  0  0  0  0
   16.1423   -4.8407   -9.7078 C   0  0  0  0  0  0  0  0  0  0  0  0
   17.3137   -4.4115   -9.7511 O   0  0  0  0  0  0  0  0  0  0  0  0
   15.1095   -3.9287   -9.6792 O   0  0  0  0  0  0  0  0  0  0  0  0
  2  3  2  0
  2  1  1  0
  4  2  1  0
  5  7  1  0
  5  4  1  0
  5  6  1  1
  7  8  2  0
 10  9  1  0
 11 10  1  6
 11 13  1  0
 12 11  1  0
 12  7  1  0
 13 14  2  0
 13 18  1  0
 15 16  1  0
 17 16  1  1
 17 19  1  0
 18 17  1  0
 19 20  2  0
 19 21  1  0
M  END
$$$$
