NSS.pdb
     RDKit          3D

 21 20  0  0  1  0  0  0  0  0999 V2000
   18.3599  -12.5175  -16.9680 N   0  0  0  0  0  0  0  0  0  0  0  0
   18.1893  -11.2675  -17.6356 C   0  0  0  0  0  0  0  0  0  0  0  0
   18.0921  -11.2709  -18.8812 O   0  0  0  0  0  0  0  0  0  0  0  0
   18.1290   -9.9963  -16.8694 C   0  0  0  0  0  0  0  0  0  0  0  0
   18.2823  -10.2937  -15.4138 C   0  0  2  0  0  0  0  0  0  0  0  0
   17.1209  -11.0259  -14.9682 N   0  0  0  0  0  0  0  0  0  0  0  0
   18.5017   -9.0740  -14.6009 C   0  0  0  0  0  0  0  0  0  0  0  0
   17.5613   -8.4059  -14.1033 O   0  0  0  0  0  0  0  0  0  0  0  0
   22.2577   -8.2586  -13.0388 O   0  0  0  0  0  0  0  0  0  0  0  0
   21.0679   -7.7298  -12.5369 C   0  0  0  0  0  0  0  0  0  0  0  0
   20.1223   -7.4151  -13.6391 C   0  0  2  0  0  0  0  0  0  0  0  0
   19.8343   -8.6345  -14.3696 N   0  0  0  0  0  0  0  0  0  0  0  0
   20.4900   -6.3354  -14.5320 C   0  0  0  0  0  0  0  0  0  0  0  0
   21.1688   -6.6174  -15.5543 O   0  0  0  0  0  0  0  0  0  0  0  0
   20.1619   -1.6558  -15.6856 O   0  0  0  0  0  0  0  0  0  0  0  0
   19.8148   -2.6382  -14.7730 C   0  0  0  0  0  0  0  0  0  0  0  0
   20.6147   -3.8884  -15.1613 C   0  0  2  0  0  0  0  0  0  0  0  0
   20.1512   -4.9699  -14.3589 N   0  0  0  0  0  0  0  0  0  0  0  0
   22.0270   -3.5681  -15.0150 C   0  0  0  0  0  0  0  0  0  0  0  0
   22.7304   -3.3119  -16.0139 O   0  0  0  0  0  0  0  0  0  0  0  0
   22.6188   -3.5406  -13.7707 O   0  0  0  0  0  0  0  0  0  0  0  0
  2  3  2  0
  2  1  1  0
  4  2  1  0
  5  7  1  0
  5  4  1  0
  5  6  1  1
  7  8  2  0
 10  9  1  0
 11 10  1  1
 11 13  1  0
 12 11  1  0
 12  7  1  0
 13 14  2  0
 13 18  1  0
 15 16  1  0
 17 16  1  1
 17 19  1  0
 18 17  1  0
 19 20  2  0
 19 21  1  0
M  END
$$$$
