IFR.pdb
     RDKit          3D

 31 31  0  0  1  0  0  0  0  0999 V2000
    5.5905  -19.8630   19.7151 C   0  0  0  0  0  0  0  0  0  0  0  0
    5.2283  -18.6608   20.5067 C   0  0  0  0  0  0  0  0  0  0  0  0
    6.3363  -17.7898   20.9615 C   0  0  2  0  0  0  0  0  0  0  0  0
    7.2863  -18.6970   21.7655 C   0  0  0  0  0  0  0  0  0  0  0  0
    5.9932  -16.6136   21.7904 C   0  0  2  0  0  0  0  0  0  0  0  0
    5.0732  -15.7258   21.1243 N   0  0  0  0  0  0  0  0  0  0  0  0
    7.1249  -15.9127   22.4229 C   0  0  0  0  0  0  0  0  0  0  0  0
    7.8350  -15.1668   21.7069 O   0  0  0  0  0  0  0  0  0  0  0  0
    7.4572  -16.0360   23.7961 N   0  0  0  0  0  0  0  0  0  0  0  0
    8.5980  -15.4194   24.4354 C   0  0  1  0  0  0  0  0  0  0  0  0
    8.3821  -15.0768   25.8800 C   0  0  0  0  0  0  0  0  0  0  0  0
    7.6189  -13.8389   26.1172 C   0  0  0  0  0  0  0  0  0  0  0  0
    8.3133  -12.6499   26.2334 C   0  0  0  0  0  0  0  0  0  0  0  0
    7.6341  -11.4510   26.4570 C   0  0  0  0  0  0  0  0  0  0  0  0
    6.2642  -11.4258   26.5663 C   0  0  0  0  0  0  0  0  0  0  0  0
    5.5649  -12.6056   26.4518 C   0  0  0  0  0  0  0  0  0  0  0  0
    6.2470  -13.7843   26.2309 C   0  0  0  0  0  0  0  0  0  0  0  0
    9.6985  -16.4548   24.4375 C   0  0  0  0  0  0  0  0  0  0  0  0
    9.4092  -17.5986   24.8507 O   0  0  0  0  0  0  0  0  0  0  0  0
   13.2537  -14.3447   18.3006 N   0  0  0  0  0  0  0  0  0  0  0  0
   14.3049  -14.8599   19.1343 C   0  0  0  0  0  0  0  0  0  0  0  0
   15.5002  -14.4138   19.0289 N   0  0  0  0  0  0  0  0  0  0  0  0
   13.9277  -15.8616   20.0472 N   0  0  0  0  0  0  0  0  0  0  0  0
   12.5358  -16.2035   20.2183 C   0  0  0  0  0  0  0  0  0  0  0  0
   12.0887  -16.2285   21.6208 C   0  0  0  0  0  0  0  0  0  0  0  0
   12.4263  -17.2837   22.5532 C   0  0  0  0  0  0  0  0  0  0  0  0
   12.0059  -17.2489   23.9781 C   0  0  2  0  0  0  0  0  0  0  0  0
   10.9828  -16.1372   23.9940 N   0  0  0  0  0  0  0  0  0  0  0  0
   13.0829  -16.7340   24.8725 C   0  0  0  0  0  0  0  0  0  0  0  0
   14.1787  -17.4409   25.2796 O   0  0  0  0  0  0  0  0  0  0  0  0
   13.0328  -15.5317   25.3404 O   0  0  0  0  0  0  0  0  0  0  0  0
  2  1  1  0
  2  3  1  0
  3  4  1  1
  5  6  1  6
  5  3  1  0
  7  8  2  0
  7  5  1  0
  9  7  1  0
 10  9  1  0
 11 12  1  0
 10 11  1  1
 12 17  2  0
 13 12  1  0
 13 14  2  0
 14 15  1  0
 15 16  2  0
 17 16  1  0
 18 10  1  0
 18 28  1  0
 19 18  2  0
 20 21  1  0
 21 22  2  0
 21 23  1  0
 23 24  1  0
 24 25  1  0
 25 26  1  0
 27 26  1  6
 27 28  1  0
 27 29  1  0
 29 31  2  0
 29 30  1  0
M  END
$$$$
