IFR.pdb
     RDKit          3D

 31 31  0  0  1  0  0  0  0  0999 V2000
   12.6127  -19.1982   28.1146 C   0  0  0  0  0  0  0  0  0  0  0  0
   11.3267  -18.4814   28.3036 C   0  0  0  0  0  0  0  0  0  0  0  0
   10.5267  -18.1938   27.0910 C   0  0  2  0  0  0  0  0  0  0  0  0
   11.4182  -17.3157   26.1931 C   0  0  0  0  0  0  0  0  0  0  0  0
    9.2238  -17.5163   27.2692 C   0  0  2  0  0  0  0  0  0  0  0  0
    8.4083  -18.1558   28.2713 N   0  0  0  0  0  0  0  0  0  0  0  0
    8.4852  -17.1948   26.0350 C   0  0  0  0  0  0  0  0  0  0  0  0
    7.7252  -18.0691   25.5541 O   0  0  0  0  0  0  0  0  0  0  0  0
    8.5872  -15.9520   25.3593 N   0  0  0  0  0  0  0  0  0  0  0  0
    7.8436  -15.5846   24.1752 C   0  0  1  0  0  0  0  0  0  0  0  0
    7.7347  -14.1049   23.9524 C   0  0  0  0  0  0  0  0  0  0  0  0
    7.2567  -13.3355   25.1146 C   0  0  0  0  0  0  0  0  0  0  0  0
    6.0590  -13.7016   25.6984 C   0  0  0  0  0  0  0  0  0  0  0  0
    5.5658  -13.0039   26.8024 C   0  0  0  0  0  0  0  0  0  0  0  0
    6.2576  -11.9408   27.3319 C   0  0  0  0  0  0  0  0  0  0  0  0
    7.4514  -11.5696   26.7564 C   0  0  0  0  0  0  0  0  0  0  0  0
    7.9289  -12.2667   25.6658 C   0  0  0  0  0  0  0  0  0  0  0  0
    8.6339  -16.1022   22.9959 C   0  0  0  0  0  0  0  0  0  0  0  0
    8.0472  -16.1612   21.8936 O   0  0  0  0  0  0  0  0  0  0  0  0
    7.6781  -13.7536   16.9568 N   0  0  0  0  0  0  0  0  0  0  0  0
    8.7815  -13.3015   17.7591 C   0  0  0  0  0  0  0  0  0  0  0  0
    8.9277  -12.0584   18.0276 N   0  0  0  0  0  0  0  0  0  0  0  0
    9.6602  -14.3023   18.2122 N   0  0  0  0  0  0  0  0  0  0  0  0
    9.2468  -15.2197   19.2471 C   0  0  0  0  0  0  0  0  0  0  0  0
    9.8092  -14.9245   20.5752 C   0  0  0  0  0  0  0  0  0  0  0  0
   10.9041  -15.6646   21.1669 C   0  0  0  0  0  0  0  0  0  0  0  0
   10.6962  -16.9420   21.8973 C   0  0  2  0  0  0  0  0  0  0  0  0
    9.9645  -16.4960   23.1417 N   0  0  0  0  0  0  0  0  0  0  0  0
   11.9714  -17.5004   22.4332 C   0  0  0  0  0  0  0  0  0  0  0  0
   12.7762  -18.3958   21.7876 O   0  0  0  0  0  0  0  0  0  0  0  0
   12.4036  -17.1551   23.5998 O   0  0  0  0  0  0  0  0  0  0  0  0
  2  1  1  0
  2  3  1  0
  3  4  1  6
  5  6  1  1
  5  3  1  0
  7  8  2  0
  7  5  1  0
  9  7  1  0
 10  9  1  0
 11 12  1  0
 10 11  1  6
 12 17  2  0
 13 12  1  0
 13 14  2  0
 14 15  1  0
 15 16  2  0
 17 16  1  0
 18 10  1  0
 18 28  1  0
 19 18  2  0
 20 21  1  0
 21 22  2  0
 21 23  1  0
 23 24  1  0
 24 25  1  0
 25 26  1  0
 27 26  1  6
 27 28  1  0
 27 29  1  0
 29 31  2  0
 29 30  1  0
M  END
$$$$
