IFR.pdb
     RDKit          3D

 31 31  0  0  1  0  0  0  0  0999 V2000
    8.8701  -16.2032   15.8049 C   0  0  0  0  0  0  0  0  0  0  0  0
    8.6021  -16.8447   17.1163 C   0  0  0  0  0  0  0  0  0  0  0  0
    8.8390  -16.0303   18.3303 C   0  0  2  0  0  0  0  0  0  0  0  0
   10.3218  -15.6168   18.2808 C   0  0  0  0  0  0  0  0  0  0  0  0
    8.5669  -16.6545   19.6435 C   0  0  2  0  0  0  0  0  0  0  0  0
    7.3145  -17.3684   19.6597 N   0  0  0  0  0  0  0  0  0  0  0  0
    8.7627  -15.7944   20.8242 C   0  0  0  0  0  0  0  0  0  0  0  0
    9.8438  -15.1670   20.9278 O   0  0  0  0  0  0  0  0  0  0  0  0
    7.7973  -15.6380   21.8513 N   0  0  0  0  0  0  0  0  0  0  0  0
    7.9957  -14.8925   23.0740 C   0  0  1  0  0  0  0  0  0  0  0  0
    6.7318  -14.3550   23.6779 C   0  0  0  0  0  0  0  0  0  0  0  0
    6.9046  -13.6665   24.9692 C   0  0  0  0  0  0  0  0  0  0  0  0
    7.4404  -12.3928   24.9691 C   0  0  0  0  0  0  0  0  0  0  0  0
    7.6219  -11.6999   26.1673 C   0  0  0  0  0  0  0  0  0  0  0  0
    7.2731  -12.2665   27.3700 C   0  0  0  0  0  0  0  0  0  0  0  0
    6.7388  -13.5348   27.3789 C   0  0  0  0  0  0  0  0  0  0  0  0
    6.5640  -14.2099   26.1885 C   0  0  0  0  0  0  0  0  0  0  0  0
    8.5309  -15.8733   24.0911 C   0  0  0  0  0  0  0  0  0  0  0  0
    7.8866  -16.9307   24.2626 O   0  0  0  0  0  0  0  0  0  0  0  0
   15.1558  -19.6247   23.3207 N   0  0  0  0  0  0  0  0  0  0  0  0
   14.1032  -20.5665   23.5868 C   0  0  0  0  0  0  0  0  0  0  0  0
   14.3653  -21.7139   24.0902 N   0  0  0  0  0  0  0  0  0  0  0  0
   12.8028  -20.1403   23.2608 N   0  0  0  0  0  0  0  0  0  0  0  0
   12.4666  -18.7370   23.2961 C   0  0  0  0  0  0  0  0  0  0  0  0
   12.2104  -18.2117   24.6473 C   0  0  0  0  0  0  0  0  0  0  0  0
   11.6357  -16.9084   24.9072 C   0  0  0  0  0  0  0  0  0  0  0  0
   10.3205  -16.7398   25.5784 C   0  0  2  0  0  0  0  0  0  0  0  0
    9.6982  -15.6006   24.8051 N   0  0  0  0  0  0  0  0  0  0  0  0
   10.4564  -16.1831   26.9556 C   0  0  0  0  0  0  0  0  0  0  0  0
   10.5857  -16.9208   28.0981 O   0  0  0  0  0  0  0  0  0  0  0  0
   10.4525  -14.9074   27.1545 O   0  0  0  0  0  0  0  0  0  0  0  0
  2  1  1  0
  2  3  1  0
  3  4  1  1
  5  6  1  6
  5  3  1  0
  7  8  2  0
  7  5  1  0
  9  7  1  0
 10  9  1  0
 11 12  1  0
 10 11  1  1
 12 17  2  0
 13 12  1  0
 13 14  2  0
 14 15  1  0
 15 16  2  0
 17 16  1  0
 18 10  1  0
 18 28  1  0
 19 18  2  0
 20 21  1  0
 21 22  2  0
 21 23  1  0
 23 24  1  0
 24 25  1  0
 25 26  1  0
 27 26  1  6
 27 28  1  0
 27 29  1  0
 29 31  2  0
 29 30  1  0
M  END
$$$$
