IFR.pdb
     RDKit          3D

 31 31  0  0  1  0  0  0  0  0999 V2000
    7.6589  -13.0815   16.1253 C   0  0  0  0  0  0  0  0  0  0  0  0
    7.9727  -14.1746   17.0792 C   0  0  0  0  0  0  0  0  0  0  0  0
    8.0155  -13.8269   18.5181 C   0  0  2  0  0  0  0  0  0  0  0  0
    9.0761  -12.7185   18.6553 C   0  0  0  0  0  0  0  0  0  0  0  0
    8.3334  -14.9056   19.4791 C   0  0  2  0  0  0  0  0  0  0  0  0
    7.4235  -16.0186   19.3713 N   0  0  0  0  0  0  0  0  0  0  0  0
    8.5771  -14.4847   20.8703 C   0  0  0  0  0  0  0  0  0  0  0  0
    9.6398  -13.8694   21.1261 O   0  0  0  0  0  0  0  0  0  0  0  0
    7.6775  -14.7383   21.9370 N   0  0  0  0  0  0  0  0  0  0  0  0
    7.9091  -14.3924   23.3216 C   0  0  1  0  0  0  0  0  0  0  0  0
    6.6811  -13.9406   24.0558 C   0  0  0  0  0  0  0  0  0  0  0  0
    6.9115  -13.5128   25.4468 C   0  0  0  0  0  0  0  0  0  0  0  0
    7.3953  -12.2381   25.6715 C   0  0  0  0  0  0  0  0  0  0  0  0
    7.6281  -11.7871   26.9720 C   0  0  0  0  0  0  0  0  0  0  0  0
    7.3824  -12.5976   28.0546 C   0  0  0  0  0  0  0  0  0  0  0  0
    6.9005  -13.8687   27.8395 C   0  0  0  0  0  0  0  0  0  0  0  0
    6.6742  -14.3034   26.5499 C   0  0  0  0  0  0  0  0  0  0  0  0
    8.3353  -15.6655   24.0151 C   0  0  0  0  0  0  0  0  0  0  0  0
    7.5218  -16.6146   24.0225 O   0  0  0  0  0  0  0  0  0  0  0  0
   14.3318  -20.6540   23.9222 N   0  0  0  0  0  0  0  0  0  0  0  0
   14.4100  -19.9519   22.6706 C   0  0  0  0  0  0  0  0  0  0  0  0
   15.4988  -19.9360   21.9975 N   0  0  0  0  0  0  0  0  0  0  0  0
   13.2318  -19.3043   22.2566 N   0  0  0  0  0  0  0  0  0  0  0  0
   12.0301  -19.4025   23.0503 C   0  0  0  0  0  0  0  0  0  0  0  0
   12.0337  -18.5599   24.2575 C   0  0  0  0  0  0  0  0  0  0  0  0
   11.3453  -17.2896   24.3529 C   0  0  0  0  0  0  0  0  0  0  0  0
   10.0411  -17.1435   25.0501 C   0  0  2  0  0  0  0  0  0  0  0  0
    9.5885  -15.7675   24.6199 N   0  0  0  0  0  0  0  0  0  0  0  0
   10.2022  -17.0033   26.5264 C   0  0  0  0  0  0  0  0  0  0  0  0
   10.0056  -15.8540   27.2382 O   0  0  0  0  0  0  0  0  0  0  0  0
   10.5610  -18.0112   27.2491 O   0  0  0  0  0  0  0  0  0  0  0  0
  2  1  1  0
  2  3  1  0
  3  4  1  6
  5  6  1  1
  5  3  1  0
  7  8  2  0
  7  5  1  0
  9  7  1  0
 10  9  1  0
 11 12  1  0
 10 11  1  1
 12 17  2  0
 13 12  1  0
 13 14  2  0
 14 15  1  0
 15 16  2  0
 17 16  1  0
 18 10  1  0
 18 28  1  0
 19 18  2  0
 20 21  1  0
 21 22  2  0
 21 23  1  0
 23 24  1  0
 24 25  1  0
 25 26  1  0
 27 26  1  6
 27 28  1  0
 27 29  1  0
 29 31  2  0
 29 30  1  0
M  END
$$$$
