IFR.pdb
     RDKit          3D

 31 31  0  0  1  0  0  0  0  0999 V2000
    8.2935  -12.1724   19.5531 C   0  0  0  0  0  0  0  0  0  0  0  0
    7.7528  -13.4564   19.0411 C   0  0  0  0  0  0  0  0  0  0  0  0
    8.6937  -14.5955   18.9393 C   0  0  2  0  0  0  0  0  0  0  0  0
    8.4951  -15.1849   17.5303 C   0  0  0  0  0  0  0  0  0  0  0  0
    8.5652  -15.6867   19.9297 C   0  0  2  0  0  0  0  0  0  0  0  0
    7.3469  -16.4383   19.7591 N   0  0  0  0  0  0  0  0  0  0  0  0
    8.8354  -15.3252   21.3327 C   0  0  0  0  0  0  0  0  0  0  0  0
    9.9860  -14.9245   21.6306 O   0  0  0  0  0  0  0  0  0  0  0  0
    7.8671  -15.4070   22.3657 N   0  0  0  0  0  0  0  0  0  0  0  0
    8.0422  -14.9107   23.7123 C   0  0  1  0  0  0  0  0  0  0  0  0
    6.8065  -14.3044   24.3092 C   0  0  0  0  0  0  0  0  0  0  0  0
    7.0229  -13.5611   25.5630 C   0  0  0  0  0  0  0  0  0  0  0  0
    6.0330  -13.5940   26.5265 C   0  0  0  0  0  0  0  0  0  0  0  0
    6.1930  -12.9068   27.7311 C   0  0  0  0  0  0  0  0  0  0  0  0
    7.3344  -12.1844   27.9852 C   0  0  0  0  0  0  0  0  0  0  0  0
    8.3252  -12.1465   27.0308 C   0  0  0  0  0  0  0  0  0  0  0  0
    8.1559  -12.8296   25.8442 C   0  0  0  0  0  0  0  0  0  0  0  0
    8.3459  -16.1133   24.5753 C   0  0  0  0  0  0  0  0  0  0  0  0
    7.6416  -17.1324   24.4074 O   0  0  0  0  0  0  0  0  0  0  0  0
   10.9412  -19.8409   20.7810 N   0  0  0  0  0  0  0  0  0  0  0  0
   11.9757  -18.8605   20.9654 C   0  0  0  0  0  0  0  0  0  0  0  0
   12.4984  -18.2653   19.9597 N   0  0  0  0  0  0  0  0  0  0  0  0
   12.3562  -18.6142   22.2972 N   0  0  0  0  0  0  0  0  0  0  0  0
   11.7379  -19.3449   23.3776 C   0  0  0  0  0  0  0  0  0  0  0  0
   10.6768  -18.6030   24.0783 C   0  0  0  0  0  0  0  0  0  0  0  0
   10.8952  -17.8399   25.2893 C   0  0  0  0  0  0  0  0  0  0  0  0
    9.7757  -17.3875   26.1557 C   0  0  2  0  0  0  0  0  0  0  0  0
    9.3732  -16.0777   25.5188 N   0  0  0  0  0  0  0  0  0  0  0  0
   10.2411  -16.9781   27.5124 C   0  0  0  0  0  0  0  0  0  0  0  0
   10.2259  -15.7032   28.0029 O   0  0  0  0  0  0  0  0  0  0  0  0
   10.7145  -17.8505   28.3382 O   0  0  0  0  0  0  0  0  0  0  0  0
  2  1  1  0
  2  3  1  0
  3  4  1  6
  5  6  1  1
  5  3  1  0
  7  8  2  0
  7  5  1  0
  9  7  1  0
 10  9  1  0
 11 12  1  0
 10 11  1  1
 12 17  2  0
 13 12  1  0
 13 14  2  0
 14 15  1  0
 15 16  2  0
 17 16  1  0
 18 10  1  0
 18 28  1  0
 19 18  2  0
 20 21  1  0
 21 22  2  0
 21 23  1  0
 23 24  1  0
 24 25  1  0
 25 26  1  0
 27 26  1  6
 27 28  1  0
 27 29  1  0
 29 31  2  0
 29 30  1  0
M  END
$$$$
