IFR.pdb
     RDKit          3D

 31 31  0  0  1  0  0  0  0  0999 V2000
    8.4805  -16.3404   16.0560 C   0  0  0  0  0  0  0  0  0  0  0  0
    8.0968  -15.1169   16.8037 C   0  0  0  0  0  0  0  0  0  0  0  0
    8.5905  -14.9894   18.1940 C   0  0  2  0  0  0  0  0  0  0  0  0
    8.0295  -16.2043   18.9564 C   0  0  0  0  0  0  0  0  0  0  0  0
    8.2403  -13.7612   18.9403 C   0  0  2  0  0  0  0  0  0  0  0  0
    8.6120  -12.5645   18.2277 N   0  0  0  0  0  0  0  0  0  0  0  0
    8.6232  -13.7348   20.3633 C   0  0  0  0  0  0  0  0  0  0  0  0
    9.8438  -13.6857   20.6480 O   0  0  0  0  0  0  0  0  0  0  0  0
    7.6882  -13.7637   21.4293 N   0  0  0  0  0  0  0  0  0  0  0  0
    8.0207  -13.6509   22.8318 C   0  0  1  0  0  0  0  0  0  0  0  0
    6.9317  -13.0568   23.6757 C   0  0  0  0  0  0  0  0  0  0  0  0
    7.2469  -12.9499   25.1111 C   0  0  0  0  0  0  0  0  0  0  0  0
    6.2703  -13.2932   26.0264 C   0  0  0  0  0  0  0  0  0  0  0  0
    6.5223  -13.2097   27.3969 C   0  0  0  0  0  0  0  0  0  0  0  0
    7.7429  -12.7857   27.8655 C   0  0  0  0  0  0  0  0  0  0  0  0
    8.7211  -12.4419   26.9605 C   0  0  0  0  0  0  0  0  0  0  0  0
    8.4605  -12.5284   25.6085 C   0  0  0  0  0  0  0  0  0  0  0  0
    8.1907  -15.0616   23.3459 C   0  0  0  0  0  0  0  0  0  0  0  0
    7.2418  -15.8555   23.1671 O   0  0  0  0  0  0  0  0  0  0  0  0
   12.5934  -15.6021   19.1092 N   0  0  0  0  0  0  0  0  0  0  0  0
   13.0841  -15.0889   20.3587 C   0  0  0  0  0  0  0  0  0  0  0  0
   13.9023  -14.1047   20.3843 N   0  0  0  0  0  0  0  0  0  0  0  0
   12.6085  -15.7334   21.5151 N   0  0  0  0  0  0  0  0  0  0  0  0
   11.7842  -16.9131   21.4038 C   0  0  0  0  0  0  0  0  0  0  0  0
   10.4698  -16.7946   22.0563 C   0  0  0  0  0  0  0  0  0  0  0  0
   10.0871  -17.5443   23.2346 C   0  0  0  0  0  0  0  0  0  0  0  0
    9.4704  -16.8974   24.4219 C   0  0  2  0  0  0  0  0  0  0  0  0
    9.3634  -15.4525   23.9930 N   0  0  0  0  0  0  0  0  0  0  0  0
   10.4049  -16.8401   25.5831 C   0  0  0  0  0  0  0  0  0  0  0  0
   10.9610  -15.7025   26.0959 O   0  0  0  0  0  0  0  0  0  0  0  0
   10.7632  -17.9191   26.1951 O   0  0  0  0  0  0  0  0  0  0  0  0
  2  1  1  0
  2  3  1  0
  3  4  1  1
  5  6  1  6
  5  3  1  0
  7  8  2  0
  7  5  1  0
  9  7  1  0
 10  9  1  0
 11 12  1  0
 10 11  1  1
 12 17  2  0
 13 12  1  0
 13 14  2  0
 14 15  1  0
 15 16  2  0
 17 16  1  0
 18 10  1  0
 18 28  1  0
 19 18  2  0
 20 21  1  0
 21 22  2  0
 21 23  1  0
 23 24  1  0
 24 25  1  0
 25 26  1  0
 27 26  1  6
 27 28  1  0
 27 29  1  0
 29 31  2  0
 29 30  1  0
M  END
$$$$
