IFR.pdb
     RDKit          3D

 31 31  0  0  1  0  0  0  0  0999 V2000
    7.8976  -19.7203   18.4234 C   0  0  0  0  0  0  0  0  0  0  0  0
    8.0921  -18.2488   18.4329 C   0  0  0  0  0  0  0  0  0  0  0  0
    8.4512  -17.6209   19.7252 C   0  0  2  0  0  0  0  0  0  0  0  0
    7.3286  -18.0021   20.7083 C   0  0  0  0  0  0  0  0  0  0  0  0
    8.6248  -16.1522   19.7536 C   0  0  2  0  0  0  0  0  0  0  0  0
    9.5299  -15.6894   18.7315 N   0  0  0  0  0  0  0  0  0  0  0  0
    8.8840  -15.5546   21.0757 C   0  0  0  0  0  0  0  0  0  0  0  0
   10.0071  -15.7428   21.6014 O   0  0  0  0  0  0  0  0  0  0  0  0
    7.9332  -14.7799   21.7879 N   0  0  0  0  0  0  0  0  0  0  0  0
    8.1031  -14.2867   23.1363 C   0  0  1  0  0  0  0  0  0  0  0  0
    7.0302  -13.3379   23.5833 C   0  0  0  0  0  0  0  0  0  0  0  0
    7.1088  -12.9337   24.9981 C   0  0  0  0  0  0  0  0  0  0  0  0
    8.0489  -11.9882   25.3609 C   0  0  0  0  0  0  0  0  0  0  0  0
    8.1604  -11.5724   26.6888 C   0  0  0  0  0  0  0  0  0  0  0  0
    7.3407  -12.0919   27.6622 C   0  0  0  0  0  0  0  0  0  0  0  0
    6.4017  -13.0342   27.3093 C   0  0  0  0  0  0  0  0  0  0  0  0
    6.3007  -13.4374   25.9938 C   0  0  0  0  0  0  0  0  0  0  0  0
    7.9740  -15.4839   24.0491 C   0  0  0  0  0  0  0  0  0  0  0  0
    6.9511  -16.1917   23.9257 O   0  0  0  0  0  0  0  0  0  0  0  0
   14.1209  -19.1483   22.1369 N   0  0  0  0  0  0  0  0  0  0  0  0
   12.8028  -19.2591   21.5748 C   0  0  0  0  0  0  0  0  0  0  0  0
   12.6024  -19.9386   20.5086 N   0  0  0  0  0  0  0  0  0  0  0  0
   11.7823  -18.5830   22.2679 N   0  0  0  0  0  0  0  0  0  0  0  0
   11.2114  -19.1561   23.4635 C   0  0  0  0  0  0  0  0  0  0  0  0
   10.6927  -18.1642   24.4197 C   0  0  0  0  0  0  0  0  0  0  0  0
    9.3045  -18.0877   24.8244 C   0  0  0  0  0  0  0  0  0  0  0  0
    8.8104  -17.0593   25.7766 C   0  0  2  0  0  0  0  0  0  0  0  0
    8.9624  -15.7789   24.9888 N   0  0  0  0  0  0  0  0  0  0  0  0
    9.7381  -16.8633   26.9281 C   0  0  0  0  0  0  0  0  0  0  0  0
    9.9657  -17.7702   27.9241 O   0  0  0  0  0  0  0  0  0  0  0  0
   10.4068  -15.7664   27.0568 O   0  0  0  0  0  0  0  0  0  0  0  0
  2  1  1  0
  2  3  1  0
  3  4  1  1
  5  6  1  6
  5  3  1  0
  7  8  2  0
  7  5  1  0
  9  7  1  0
 10  9  1  0
 11 12  1  0
 10 11  1  1
 12 17  2  0
 13 12  1  0
 13 14  2  0
 14 15  1  0
 15 16  2  0
 17 16  1  0
 18 10  1  0
 18 28  1  0
 19 18  2  0
 20 21  1  0
 21 22  2  0
 21 23  1  0
 23 24  1  0
 24 25  1  0
 25 26  1  0
 27 26  1  6
 27 28  1  0
 27 29  1  0
 29 31  2  0
 29 30  1  0
M  END
$$$$
