IFR.pdb
     RDKit          3D

 31 31  0  0  1  0  0  0  0  0999 V2000
    7.5392  -12.1059   18.8507 C   0  0  0  0  0  0  0  0  0  0  0  0
    7.3909  -13.5739   19.0129 C   0  0  0  0  0  0  0  0  0  0  0  0
    8.6270  -14.3885   18.9732 C   0  0  2  0  0  0  0  0  0  0  0  0
    8.6830  -15.0058   17.5634 C   0  0  0  0  0  0  0  0  0  0  0  0
    8.7707  -15.4727   19.9692 C   0  0  2  0  0  0  0  0  0  0  0  0
    7.7971  -16.5192   19.7814 N   0  0  0  0  0  0  0  0  0  0  0  0
    8.9078  -15.0496   21.3743 C   0  0  0  0  0  0  0  0  0  0  0  0
    9.9577  -14.4533   21.7141 O   0  0  0  0  0  0  0  0  0  0  0  0
    7.9194  -15.2809   22.3646 N   0  0  0  0  0  0  0  0  0  0  0  0
    7.9880  -14.8200   23.7332 C   0  0  1  0  0  0  0  0  0  0  0  0
    6.6610  -14.4398   24.3209 C   0  0  0  0  0  0  0  0  0  0  0  0
    6.7270  -13.8295   25.6604 C   0  0  0  0  0  0  0  0  0  0  0  0
    7.3384  -12.5973   25.7925 C   0  0  0  0  0  0  0  0  0  0  0  0
    7.4241  -11.9786   27.0409 C   0  0  0  0  0  0  0  0  0  0  0  0
    6.9044  -12.5785   28.1631 C   0  0  0  0  0  0  0  0  0  0  0  0
    6.2938  -13.8058   28.0402 C   0  0  0  0  0  0  0  0  0  0  0  0
    6.2150  -14.4076   26.8013 C   0  0  0  0  0  0  0  0  0  0  0  0
    8.4604  -15.9952   24.5573 C   0  0  0  0  0  0  0  0  0  0  0  0
    7.6910  -16.9759   24.6514 O   0  0  0  0  0  0  0  0  0  0  0  0
   10.5283  -18.7610   21.6164 N   0  0  0  0  0  0  0  0  0  0  0  0
   11.9394  -18.8255   21.3514 C   0  0  0  0  0  0  0  0  0  0  0  0
   12.3880  -18.6782   20.1615 N   0  0  0  0  0  0  0  0  0  0  0  0
   12.7628  -19.0558   22.4686 N   0  0  0  0  0  0  0  0  0  0  0  0
   12.2138  -18.9945   23.8022 C   0  0  0  0  0  0  0  0  0  0  0  0
   12.0407  -17.6278   24.3212 C   0  0  0  0  0  0  0  0  0  0  0  0
   11.5575  -17.3292   25.6532 C   0  0  0  0  0  0  0  0  0  0  0  0
   10.1094  -17.2067   25.9638 C   0  0  2  0  0  0  0  0  0  0  0  0
    9.7069  -15.9767   25.1839 N   0  0  0  0  0  0  0  0  0  0  0  0
    9.8673  -16.8067   27.3803 C   0  0  0  0  0  0  0  0  0  0  0  0
    9.6614  -17.6670   28.4212 O   0  0  0  0  0  0  0  0  0  0  0  0
    9.8308  -15.5607   27.7165 O   0  0  0  0  0  0  0  0  0  0  0  0
  2  1  1  0
  2  3  1  0
  3  4  1  6
  5  6  1  1
  5  3  1  0
  7  8  2  0
  7  5  1  0
  9  7  1  0
 10  9  1  0
 11 12  1  0
 10 11  1  1
 12 17  2  0
 13 12  1  0
 13 14  2  0
 14 15  1  0
 15 16  2  0
 17 16  1  0
 18 10  1  0
 18 28  1  0
 19 18  2  0
 20 21  1  0
 21 22  2  0
 21 23  1  0
 23 24  1  0
 24 25  1  0
 25 26  1  0
 27 26  1  1
 27 28  1  0
 27 29  1  0
 29 31  2  0
 29 30  1  0
M  END
$$$$
