IFR.pdb
     RDKit          3D

 31 31  0  0  1  0  0  0  0  0999 V2000
    6.8478  -23.1302   22.6692 C   0  0  0  0  0  0  0  0  0  0  0  0
    5.9526  -21.9464   22.6514 C   0  0  0  0  0  0  0  0  0  0  0  0
    6.5840  -20.6167   22.8143 C   0  0  2  0  0  0  0  0  0  0  0  0
    7.4345  -20.7052   24.0952 C   0  0  0  0  0  0  0  0  0  0  0  0
    5.6948  -19.4392   22.9188 C   0  0  2  0  0  0  0  0  0  0  0  0
    4.7660  -19.3570   21.8192 N   0  0  0  0  0  0  0  0  0  0  0  0
    6.3508  -18.1554   23.2246 C   0  0  0  0  0  0  0  0  0  0  0  0
    7.0553  -17.6226   22.3341 O   0  0  0  0  0  0  0  0  0  0  0  0
    6.2315  -17.4894   24.4711 N   0  0  0  0  0  0  0  0  0  0  0  0
    6.8781  -16.2426   24.8141 C   0  0  1  0  0  0  0  0  0  0  0  0
    6.0948  -15.3851   25.7639 C   0  0  0  0  0  0  0  0  0  0  0  0
    6.7129  -14.0857   26.0814 C   0  0  0  0  0  0  0  0  0  0  0  0
    7.3822  -13.9516   27.2828 C   0  0  0  0  0  0  0  0  0  0  0  0
    7.9850  -12.7405   27.6272 C   0  0  0  0  0  0  0  0  0  0  0  0
    7.9268  -11.6578   26.7824 C   0  0  0  0  0  0  0  0  0  0  0  0
    7.2621  -11.7830   25.5838 C   0  0  0  0  0  0  0  0  0  0  0  0
    6.6703  -12.9848   25.2542 C   0  0  0  0  0  0  0  0  0  0  0  0
    8.1394  -16.6065   25.5624 C   0  0  0  0  0  0  0  0  0  0  0  0
    8.0528  -17.5000   26.4322 O   0  0  0  0  0  0  0  0  0  0  0  0
   13.9515  -18.6724   22.7211 N   0  0  0  0  0  0  0  0  0  0  0  0
   13.5578  -18.1205   21.4539 C   0  0  0  0  0  0  0  0  0  0  0  0
   13.6279  -18.8223   20.3857 N   0  0  0  0  0  0  0  0  0  0  0  0
   13.1030  -16.7895   21.4800 N   0  0  0  0  0  0  0  0  0  0  0  0
   13.0034  -16.0789   22.7324 C   0  0  0  0  0  0  0  0  0  0  0  0
   12.0573  -16.6742   23.6904 C   0  0  0  0  0  0  0  0  0  0  0  0
   11.6584  -16.0365   24.9277 C   0  0  0  0  0  0  0  0  0  0  0  0
   10.6098  -16.6068   25.8130 C   0  0  2  0  0  0  0  0  0  0  0  0
    9.3474  -15.9651   25.2862 N   0  0  0  0  0  0  0  0  0  0  0  0
   10.7018  -16.0841   27.2071 C   0  0  0  0  0  0  0  0  0  0  0  0
   11.3791  -16.6805   28.2326 O   0  0  0  0  0  0  0  0  0  0  0  0
   10.1105  -14.9856   27.5398 O   0  0  0  0  0  0  0  0  0  0  0  0
  2  1  1  0
  2  3  1  0
  3  4  1  1
  5  6  1  6
  5  3  1  0
  7  8  2  0
  7  5  1  0
  9  7  1  0
 10  9  1  0
 11 12  1  0
 10 11  1  1
 12 17  2  0
 13 12  1  0
 13 14  2  0
 14 15  1  0
 15 16  2  0
 17 16  1  0
 18 10  1  0
 18 28  1  0
 19 18  2  0
 20 21  1  0
 21 22  2  0
 21 23  1  0
 23 24  1  0
 24 25  1  0
 25 26  1  0
 27 26  1  6
 27 28  1  0
 27 29  1  0
 29 31  2  0
 29 30  1  0
M  END
$$$$
