IFR.pdb
     RDKit          3D

 31 31  0  0  1  0  0  0  0  0999 V2000
    6.3427  -20.3873   19.5207 C   0  0  0  0  0  0  0  0  0  0  0  0
    5.9962  -18.9872   19.8714 C   0  0  0  0  0  0  0  0  0  0  0  0
    6.9056  -18.2760   20.7990 C   0  0  2  0  0  0  0  0  0  0  0  0
    6.9148  -19.1011   22.0995 C   0  0  0  0  0  0  0  0  0  0  0  0
    6.5878  -16.8707   21.1341 C   0  0  2  0  0  0  0  0  0  0  0  0
    6.3995  -16.0582   19.9582 N   0  0  0  0  0  0  0  0  0  0  0  0
    7.4460  -16.2355   22.1500 C   0  0  0  0  0  0  0  0  0  0  0  0
    8.6242  -15.9445   21.8328 O   0  0  0  0  0  0  0  0  0  0  0  0
    7.0146  -15.9366   23.4675 N   0  0  0  0  0  0  0  0  0  0  0  0
    7.8407  -15.3571   24.5029 C   0  0  1  0  0  0  0  0  0  0  0  0
    7.0760  -14.8690   25.6979 C   0  0  0  0  0  0  0  0  0  0  0  0
    7.8999  -14.2542   26.7535 C   0  0  0  0  0  0  0  0  0  0  0  0
    8.0555  -12.8812   26.7508 C   0  0  0  0  0  0  0  0  0  0  0  0
    8.8254  -12.2529   27.7312 C   0  0  0  0  0  0  0  0  0  0  0  0
    9.4442  -12.9828   28.7179 C   0  0  0  0  0  0  0  0  0  0  0  0
    9.2944  -14.3509   28.7278 C   0  0  0  0  0  0  0  0  0  0  0  0
    8.5310  -14.9607   27.7538 C   0  0  0  0  0  0  0  0  0  0  0  0
    8.7164  -16.4721   25.0255 C   0  0  0  0  0  0  0  0  0  0  0  0
    8.1660  -17.5679   25.2684 O   0  0  0  0  0  0  0  0  0  0  0  0
   16.4230  -15.4281   23.7619 N   0  0  0  0  0  0  0  0  0  0  0  0
   16.2743  -16.4424   22.7547 C   0  0  0  0  0  0  0  0  0  0  0  0
   17.2396  -16.7220   21.9617 N   0  0  0  0  0  0  0  0  0  0  0  0
   15.0231  -17.0840   22.7110 N   0  0  0  0  0  0  0  0  0  0  0  0
   13.9748  -16.6974   23.6250 C   0  0  0  0  0  0  0  0  0  0  0  0
   13.0588  -17.7907   23.9896 C   0  0  0  0  0  0  0  0  0  0  0  0
   11.6238  -17.6327   24.1025 C   0  0  0  0  0  0  0  0  0  0  0  0
   10.9396  -17.5067   25.4157 C   0  0  2  0  0  0  0  0  0  0  0  0
   10.0833  -16.2764   25.2257 N   0  0  0  0  0  0  0  0  0  0  0  0
   11.8766  -17.1052   26.5047 C   0  0  0  0  0  0  0  0  0  0  0  0
   12.8041  -17.9192   27.0906 O   0  0  0  0  0  0  0  0  0  0  0  0
   11.8569  -15.9059   26.9826 O   0  0  0  0  0  0  0  0  0  0  0  0
  2  1  1  0
  2  3  1  0
  3  4  1  1
  5  6  1  6
  5  3  1  0
  7  8  2  0
  7  5  1  0
  9  7  1  0
 10  9  1  0
 11 12  1  0
 10 11  1  1
 12 17  2  0
 13 12  1  0
 13 14  2  0
 14 15  1  0
 15 16  2  0
 17 16  1  0
 18 10  1  0
 18 28  1  0
 19 18  2  0
 20 21  1  0
 21 22  2  0
 21 23  1  0
 23 24  1  0
 24 25  1  0
 25 26  1  0
 27 26  1  6
 27 28  1  0
 27 29  1  0
 29 31  2  0
 29 30  1  0
M  END
$$$$
