IFR.pdb
     RDKit          3D

 31 31  0  0  1  0  0  0  0  0999 V2000
    7.4127  -11.7858   19.5483 C   0  0  0  0  0  0  0  0  0  0  0  0
    7.2651  -13.0871   20.2470 C   0  0  0  0  0  0  0  0  0  0  0  0
    8.4630  -13.9543   20.3247 C   0  0  2  0  0  0  0  0  0  0  0  0
    8.8960  -14.2107   18.8691 C   0  0  0  0  0  0  0  0  0  0  0  0
    8.3281  -15.2566   21.0132 C   0  0  2  0  0  0  0  0  0  0  0  0
    7.1138  -15.9434   20.6495 N   0  0  0  0  0  0  0  0  0  0  0  0
    8.5832  -15.2531   22.4647 C   0  0  0  0  0  0  0  0  0  0  0  0
    9.7481  -15.0100   22.8613 O   0  0  0  0  0  0  0  0  0  0  0  0
    7.5850  -15.5111   23.4387 N   0  0  0  0  0  0  0  0  0  0  0  0
    7.7839  -15.4561   24.8696 C   0  0  1  0  0  0  0  0  0  0  0  0
    6.5585  -15.0736   25.6462 C   0  0  0  0  0  0  0  0  0  0  0  0
    6.5713  -13.7051   26.1922 C   0  0  0  0  0  0  0  0  0  0  0  0
    7.7173  -12.9478   26.0423 C   0  0  0  0  0  0  0  0  0  0  0  0
    7.7768  -11.6455   26.5415 C   0  0  0  0  0  0  0  0  0  0  0  0
    6.7011  -11.0888   27.1912 C   0  0  0  0  0  0  0  0  0  0  0  0
    5.5558  -11.8364   27.3448 C   0  0  0  0  0  0  0  0  0  0  0  0
    5.5086  -13.1223   26.8472 C   0  0  0  0  0  0  0  0  0  0  0  0
    8.1051  -16.8649   25.3114 C   0  0  0  0  0  0  0  0  0  0  0  0
    7.1895  -17.7126   25.2358 O   0  0  0  0  0  0  0  0  0  0  0  0
   10.5752  -18.9870   20.5682 N   0  0  0  0  0  0  0  0  0  0  0  0
   11.8674  -18.4853   20.9475 C   0  0  0  0  0  0  0  0  0  0  0  0
   12.5338  -17.7319   20.1557 N   0  0  0  0  0  0  0  0  0  0  0  0
   12.3273  -18.8753   22.2185 N   0  0  0  0  0  0  0  0  0  0  0  0
   11.4681  -19.6228   23.1055 C   0  0  0  0  0  0  0  0  0  0  0  0
   10.9085  -18.8305   24.2130 C   0  0  0  0  0  0  0  0  0  0  0  0
   10.0239  -19.3735   25.2226 C   0  0  0  0  0  0  0  0  0  0  0  0
    9.5560  -18.5715   26.3829 C   0  0  2  0  0  0  0  0  0  0  0  0
    9.3757  -17.1964   25.7833 N   0  0  0  0  0  0  0  0  0  0  0  0
   10.6307  -18.3634   27.3962 C   0  0  0  0  0  0  0  0  0  0  0  0
   11.2541  -17.1760   27.6559 O   0  0  0  0  0  0  0  0  0  0  0  0
   11.0575  -19.3466   28.1161 O   0  0  0  0  0  0  0  0  0  0  0  0
  2  1  1  0
  2  3  1  0
  3  4  1  6
  5  6  1  1
  5  3  1  0
  7  8  2  0
  7  5  1  0
  9  7  1  0
 10  9  1  0
 11 12  1  0
 10 11  1  1
 12 17  2  0
 13 12  1  0
 13 14  2  0
 14 15  1  0
 15 16  2  0
 17 16  1  0
 18 10  1  0
 18 28  1  0
 19 18  2  0
 20 21  1  0
 21 22  2  0
 21 23  1  0
 23 24  1  0
 24 25  1  0
 25 26  1  0
 27 26  1  6
 27 28  1  0
 27 29  1  0
 29 31  2  0
 29 30  1  0
M  END
$$$$
