IFR.pdb
     RDKit          3D

 31 31  0  0  1  0  0  0  0  0999 V2000
    9.1613  -20.2457   18.8481 C   0  0  0  0  0  0  0  0  0  0  0  0
    8.3303  -19.0205   18.9562 C   0  0  0  0  0  0  0  0  0  0  0  0
    8.7353  -18.0136   19.9639 C   0  0  2  0  0  0  0  0  0  0  0  0
    8.9095  -18.7835   21.2863 C   0  0  0  0  0  0  0  0  0  0  0  0
    7.8271  -16.8700   20.1997 C   0  0  2  0  0  0  0  0  0  0  0  0
    7.5088  -16.1656   18.9829 N   0  0  0  0  0  0  0  0  0  0  0  0
    8.1860  -15.9751   21.3143 C   0  0  0  0  0  0  0  0  0  0  0  0
    9.2727  -15.3522   21.2482 O   0  0  0  0  0  0  0  0  0  0  0  0
    7.3718  -15.7803   22.4591 N   0  0  0  0  0  0  0  0  0  0  0  0
    7.6898  -14.9098   23.5688 C   0  0  1  0  0  0  0  0  0  0  0  0
    6.4963  -14.2484   24.1926 C   0  0  0  0  0  0  0  0  0  0  0  0
    6.8042  -13.3371   25.3088 C   0  0  0  0  0  0  0  0  0  0  0  0
    6.7491  -13.8331   26.5973 C   0  0  0  0  0  0  0  0  0  0  0  0
    7.0339  -13.0086   27.6872 C   0  0  0  0  0  0  0  0  0  0  0  0
    7.3743  -11.6895   27.5043 C   0  0  0  0  0  0  0  0  0  0  0  0
    7.4315  -11.1876   26.2241 C   0  0  0  0  0  0  0  0  0  0  0  0
    7.1481  -12.0119   25.1548 C   0  0  0  0  0  0  0  0  0  0  0  0
    8.2621  -15.7918   24.6541 C   0  0  0  0  0  0  0  0  0  0  0  0
    7.5248  -16.6929   25.1091 O   0  0  0  0  0  0  0  0  0  0  0  0
   15.1349  -18.7271   22.1834 N   0  0  0  0  0  0  0  0  0  0  0  0
   13.9744  -18.2088   21.5126 C   0  0  0  0  0  0  0  0  0  0  0  0
   13.6935  -18.5728   20.3179 N   0  0  0  0  0  0  0  0  0  0  0  0
   13.1957  -17.2986   22.2502 N   0  0  0  0  0  0  0  0  0  0  0  0
   12.8823  -17.5634   23.6341 C   0  0  0  0  0  0  0  0  0  0  0  0
   12.1219  -16.4910   24.2966 C   0  0  0  0  0  0  0  0  0  0  0  0
   11.6194  -16.5811   25.6516 C   0  0  0  0  0  0  0  0  0  0  0  0
   10.1698  -16.7054   25.9545 C   0  0  2  0  0  0  0  0  0  0  0  0
    9.5622  -15.6000   25.1227 N   0  0  0  0  0  0  0  0  0  0  0  0
    9.8477  -16.2966   27.3524 C   0  0  0  0  0  0  0  0  0  0  0  0
    9.2543  -15.1211   27.7162 O   0  0  0  0  0  0  0  0  0  0  0  0
   10.1326  -17.0685   28.3474 O   0  0  0  0  0  0  0  0  0  0  0  0
  2  1  1  0
  2  3  1  0
  3  4  1  1
  5  6  1  6
  5  3  1  0
  7  8  2  0
  7  5  1  0
  9  7  1  0
 10  9  1  0
 11 12  1  0
 10 11  1  1
 12 17  2  0
 13 12  1  0
 13 14  2  0
 14 15  1  0
 15 16  2  0
 17 16  1  0
 18 10  1  0
 18 28  1  0
 19 18  2  0
 20 21  1  0
 21 22  2  0
 21 23  1  0
 23 24  1  0
 24 25  1  0
 25 26  1  0
 27 26  1  1
 27 28  1  0
 27 29  1  0
 29 31  2  0
 29 30  1  0
M  END
$$$$
