IFR.pdb
     RDKit          3D

 31 31  0  0  1  0  0  0  0  0999 V2000
    8.9292  -21.0042   19.1997 C   0  0  0  0  0  0  0  0  0  0  0  0
    8.1453  -19.7445   19.2433 C   0  0  0  0  0  0  0  0  0  0  0  0
    8.5941  -18.6995   20.1918 C   0  0  2  0  0  0  0  0  0  0  0  0
    8.6386  -19.3738   21.5758 C   0  0  0  0  0  0  0  0  0  0  0  0
    7.7833  -17.4664   20.2936 C   0  0  2  0  0  0  0  0  0  0  0  0
    7.5567  -16.8543   19.0083 N   0  0  0  0  0  0  0  0  0  0  0  0
    8.1918  -16.5049   21.3332 C   0  0  0  0  0  0  0  0  0  0  0  0
    9.2949  -15.9225   21.2015 O   0  0  0  0  0  0  0  0  0  0  0  0
    7.4078  -16.2025   22.4756 N   0  0  0  0  0  0  0  0  0  0  0  0
    7.7854  -15.2823   23.5249 C   0  0  1  0  0  0  0  0  0  0  0  0
    6.6407  -14.8178   24.3763 C   0  0  0  0  0  0  0  0  0  0  0  0
    7.0127  -13.9094   25.4751 C   0  0  0  0  0  0  0  0  0  0  0  0
    6.8579  -12.5494   25.2854 C   0  0  0  0  0  0  0  0  0  0  0  0
    7.1953  -11.6494   26.2977 C   0  0  0  0  0  0  0  0  0  0  0  0
    7.6875  -12.0935   27.5017 C   0  0  0  0  0  0  0  0  0  0  0  0
    7.8448  -13.4465   27.6989 C   0  0  0  0  0  0  0  0  0  0  0  0
    7.5078  -14.3265   26.6912 C   0  0  0  0  0  0  0  0  0  0  0  0
    8.6867  -16.0504   24.4635 C   0  0  0  0  0  0  0  0  0  0  0  0
    8.3494  -17.2182   24.7552 O   0  0  0  0  0  0  0  0  0  0  0  0
   16.0658  -14.5250   22.5437 N   0  0  0  0  0  0  0  0  0  0  0  0
   16.1050  -15.9603   22.6069 C   0  0  0  0  0  0  0  0  0  0  0  0
   16.6997  -16.6381   21.6982 N   0  0  0  0  0  0  0  0  0  0  0  0
   15.4585  -16.5429   23.7122 N   0  0  0  0  0  0  0  0  0  0  0  0
   14.7255  -15.7193   24.6438 C   0  0  0  0  0  0  0  0  0  0  0  0
   13.4829  -16.3316   25.1423 C   0  0  0  0  0  0  0  0  0  0  0  0
   12.1658  -15.7733   24.9183 C   0  0  0  0  0  0  0  0  0  0  0  0
   10.9336  -16.4032   25.4598 C   0  0  2  0  0  0  0  0  0  0  0  0
    9.8465  -15.4705   24.9786 N   0  0  0  0  0  0  0  0  0  0  0  0
   10.8471  -16.2904   26.9447 C   0  0  0  0  0  0  0  0  0  0  0  0
   10.4973  -15.1638   27.6336 O   0  0  0  0  0  0  0  0  0  0  0  0
   11.1183  -17.3020   27.6997 O   0  0  0  0  0  0  0  0  0  0  0  0
  2  1  1  0
  2  3  1  0
  3  4  1  1
  5  6  1  6
  5  3  1  0
  7  8  2  0
  7  5  1  0
  9  7  1  0
 10  9  1  0
 11 12  1  0
 10 11  1  1
 12 17  2  0
 13 12  1  0
 13 14  2  0
 14 15  1  0
 15 16  2  0
 17 16  1  0
 18 10  1  0
 18 28  1  0
 19 18  2  0
 20 21  1  0
 21 22  2  0
 21 23  1  0
 23 24  1  0
 24 25  1  0
 25 26  1  0
 27 26  1  6
 27 28  1  0
 27 29  1  0
 29 31  2  0
 29 30  1  0
M  END
$$$$
