IFR.pdb
     RDKit          3D

 31 31  0  0  1  0  0  0  0  0999 V2000
    8.0883  -12.2516   18.3335 C   0  0  0  0  0  0  0  0  0  0  0  0
    7.6993  -13.4103   19.1758 C   0  0  0  0  0  0  0  0  0  0  0  0
    8.2692  -13.4774   20.5410 C   0  0  2  0  0  0  0  0  0  0  0  0
    9.7989  -13.4662   20.3631 C   0  0  0  0  0  0  0  0  0  0  0  0
    7.9008  -14.6343   21.3860 C   0  0  2  0  0  0  0  0  0  0  0  0
    6.4973  -14.9512   21.2964 N   0  0  0  0  0  0  0  0  0  0  0  0
    8.4066  -14.6145   22.7701 C   0  0  0  0  0  0  0  0  0  0  0  0
    8.9598  -13.5677   23.1843 O   0  0  0  0  0  0  0  0  0  0  0  0
    8.3043  -15.7142   23.6599 N   0  0  0  0  0  0  0  0  0  0  0  0
    8.7624  -15.7211   25.0312 C   0  0  1  0  0  0  0  0  0  0  0  0
    7.6780  -15.4919   26.0425 C   0  0  0  0  0  0  0  0  0  0  0  0
    7.2926  -14.0823   26.2310 C   0  0  0  0  0  0  0  0  0  0  0  0
    6.0119  -13.6981   25.8821 C   0  0  0  0  0  0  0  0  0  0  0  0
    5.6001  -12.3741   26.0437 C   0  0  0  0  0  0  0  0  0  0  0  0
    6.4557  -11.4259   26.5516 C   0  0  0  0  0  0  0  0  0  0  0  0
    7.7330  -11.8001   26.9016 C   0  0  0  0  0  0  0  0  0  0  0  0
    8.1288  -13.1115   26.7374 C   0  0  0  0  0  0  0  0  0  0  0  0
    9.2673  -17.1184   25.3065 C   0  0  0  0  0  0  0  0  0  0  0  0
    8.4197  -18.0360   25.3518 O   0  0  0  0  0  0  0  0  0  0  0  0
   11.1630  -17.9388   21.4000 N   0  0  0  0  0  0  0  0  0  0  0  0
   12.4339  -17.3520   21.0746 C   0  0  0  0  0  0  0  0  0  0  0  0
   12.5167  -16.4100   20.2117 N   0  0  0  0  0  0  0  0  0  0  0  0
   13.5449  -17.8781   21.7587 N   0  0  0  0  0  0  0  0  0  0  0  0
   13.3550  -18.7726   22.8756 C   0  0  0  0  0  0  0  0  0  0  0  0
   12.8317  -18.1215   24.0878 C   0  0  0  0  0  0  0  0  0  0  0  0
   12.4261  -18.8429   25.2760 C   0  0  0  0  0  0  0  0  0  0  0  0
   11.0384  -18.7859   25.8047 C   0  0  2  0  0  0  0  0  0  0  0  0
   10.6270  -17.3641   25.5011 N   0  0  0  0  0  0  0  0  0  0  0  0
   10.9987  -18.8417   27.2948 C   0  0  0  0  0  0  0  0  0  0  0  0
   11.0693  -19.9803   28.0461 O   0  0  0  0  0  0  0  0  0  0  0  0
   10.8830  -17.7612   27.9921 O   0  0  0  0  0  0  0  0  0  0  0  0
  2  1  1  0
  2  3  1  0
  3  4  1  6
  5  6  1  1
  5  3  1  0
  7  8  2  0
  7  5  1  0
  9  7  1  0
 10  9  1  0
 11 12  1  0
 10 11  1  1
 12 17  2  0
 13 12  1  0
 13 14  2  0
 14 15  1  0
 15 16  2  0
 17 16  1  0
 18 10  1  0
 18 28  1  0
 19 18  2  0
 20 21  1  0
 21 22  2  0
 21 23  1  0
 23 24  1  0
 24 25  1  0
 25 26  1  0
 27 26  1  1
 27 28  1  0
 27 29  1  0
 29 31  2  0
 29 30  1  0
M  END
$$$$
