PQG.pdb
     RDKit          3D

 21 21  0  0  1  0  0  0  0  0999 V2000
   24.2640  -11.3507  -15.8448 N   0  0  0  0  0  0  0  0  0  0  0  0
   24.9514  -12.6195  -16.0435 C   0  0  0  0  0  0  0  0  0  0  0  0
   24.5196  -13.1320  -17.3838 C   0  0  0  0  0  0  0  0  0  0  0  0
   23.8145  -12.0145  -18.0826 C   0  0  0  0  0  0  0  0  0  0  0  0
   23.9483  -10.8405  -17.1418 C   0  0  1  0  0  0  0  0  0  0  0  0
   22.6826  -10.0670  -17.1720 C   0  0  0  0  0  0  0  0  0  0  0  0
   22.3731   -9.4769  -18.2391 O   0  0  0  0  0  0  0  0  0  0  0  0
   18.3087  -12.4292  -14.9277 N   0  0  0  0  0  0  0  0  0  0  0  0
   18.6022  -12.3739  -16.2894 C   0  0  0  0  0  0  0  0  0  0  0  0
   18.4167  -13.3329  -17.0456 O   0  0  0  0  0  0  0  0  0  0  0  0
   19.1642  -11.1020  -16.8572 C   0  0  0  0  0  0  0  0  0  0  0  0
   19.3985  -10.0893  -15.7731 C   0  0  0  0  0  0  0  0  0  0  0  0
   20.5420   -9.2115  -16.1029 C   0  0  2  0  0  0  0  0  0  0  0  0
   21.8085   -9.9552  -16.0760 N   0  0  0  0  0  0  0  0  0  0  0  0
   20.6072   -8.0365  -15.2405 C   0  0  0  0  0  0  0  0  0  0  0  0
   19.6614   -7.2356  -15.0946 O   0  0  0  0  0  0  0  0  0  0  0  0
   21.8285   -7.7745  -14.5099 N   0  0  0  0  0  0  0  0  0  0  0  0
   21.8944   -6.5686  -13.7067 C   0  0  0  0  0  0  0  0  0  0  0  0
   22.3902   -5.4168  -14.4702 C   0  0  0  0  0  0  0  0  0  0  0  0
   22.6079   -4.1624  -13.8987 O   0  0  0  0  0  0  0  0  0  0  0  0
   22.6285   -5.5653  -15.6875 O   0  0  0  0  0  0  0  0  0  0  0  0
  2  1  1  0
  3  4  1  0
  3  2  1  0
  4  5  1  0
  5  1  1  0
  5  6  1  1
  7  6  2  0
  8  9  1  0
  9 11  1  0
 10  9  2  0
 11 12  1  0
 13 12  1  1
 13 14  1  0
 13 15  1  0
 14  6  1  0
 15 17  1  0
 16 15  2  0
 17 18  1  0
 18 19  1  0
 19 21  2  0
 19 20  1  0
M  END
$$$$
