PQG.pdb
     RDKit          3D

 21 21  0  0  1  0  0  0  0  0999 V2000
   23.8570  -13.1112  -17.0327 N   0  0  0  0  0  0  0  0  0  0  0  0
   25.0336  -13.8972  -16.6866 C   0  0  0  0  0  0  0  0  0  0  0  0
   25.8726  -13.0358  -15.7924 C   0  0  0  0  0  0  0  0  0  0  0  0
   25.0353  -11.8662  -15.3861 C   0  0  0  0  0  0  0  0  0  0  0  0
   23.6814  -12.1450  -15.9947 C   0  0  1  0  0  0  0  0  0  0  0  0
   23.1113  -10.8643  -16.4804 C   0  0  0  0  0  0  0  0  0  0  0  0
   22.8126  -10.7720  -17.6990 O   0  0  0  0  0  0  0  0  0  0  0  0
   18.1945   -9.1397  -17.1797 N   0  0  0  0  0  0  0  0  0  0  0  0
   18.7537   -7.9182  -17.5520 C   0  0  0  0  0  0  0  0  0  0  0  0
   18.1192   -7.0639  -18.1792 O   0  0  0  0  0  0  0  0  0  0  0  0
   20.1794   -7.6310  -17.1767 C   0  0  0  0  0  0  0  0  0  0  0  0
   20.7961   -8.8075  -16.4757 C   0  0  0  0  0  0  0  0  0  0  0  0
   22.1966   -8.5253  -16.0938 C   0  0  2  0  0  0  0  0  0  0  0  0
   22.8853   -9.7470  -15.6568 N   0  0  0  0  0  0  0  0  0  0  0  0
   22.2964   -7.4785  -15.0824 C   0  0  0  0  0  0  0  0  0  0  0  0
   22.0329   -7.6588  -13.8760 O   0  0  0  0  0  0  0  0  0  0  0  0
   22.7223   -6.1560  -15.4870 N   0  0  0  0  0  0  0  0  0  0  0  0
   23.0420   -5.1973  -14.4466 C   0  0  0  0  0  0  0  0  0  0  0  0
   21.8529   -4.4896  -13.9562 C   0  0  0  0  0  0  0  0  0  0  0  0
   21.9055   -3.5142  -12.9597 O   0  0  0  0  0  0  0  0  0  0  0  0
   20.7423   -4.7729  -14.4532 O   0  0  0  0  0  0  0  0  0  0  0  0
  2  1  1  0
  3  4  1  0
  3  2  1  0
  4  5  1  0
  5  1  1  0
  5  6  1  6
  7  6  2  0
  8  9  1  0
  9 11  1  0
 10  9  2  0
 11 12  1  0
 13 12  1  1
 13 14  1  0
 13 15  1  0
 14  6  1  0
 15 17  1  0
 16 15  2  0
 17 18  1  0
 18 19  1  0
 19 21  2  0
 19 20  1  0
M  END
$$$$
