PQG.pdb
     RDKit          3D

 21 21  0  0  1  0  0  0  0  0999 V2000
   32.8883  -24.9174  -15.3046 N   0  0  0  0  0  0  0  0  0  0  0  0
   34.0886  -25.7078  -15.0664 C   0  0  0  0  0  0  0  0  0  0  0  0
   34.4652  -26.3164  -16.3829 C   0  0  0  0  0  0  0  0  0  0  0  0
   33.6523  -25.6371  -17.4373 C   0  0  0  0  0  0  0  0  0  0  0  0
   32.8862  -24.5706  -16.6909 C   0  0  1  0  0  0  0  0  0  0  0  0
   31.5222  -24.4808  -17.2675 C   0  0  0  0  0  0  0  0  0  0  0  0
   31.4126  -24.2429  -18.4980 O   0  0  0  0  0  0  0  0  0  0  0  0
   26.7792  -27.9786  -16.3107 N   0  0  0  0  0  0  0  0  0  0  0  0
   27.7427  -28.0660  -17.3144 C   0  0  0  0  0  0  0  0  0  0  0  0
   27.9503  -29.1088  -17.9431 O   0  0  0  0  0  0  0  0  0  0  0  0
   28.5577  -26.8479  -17.6428 C   0  0  0  0  0  0  0  0  0  0  0  0
   28.1609  -25.6881  -16.7748 C   0  0  0  0  0  0  0  0  0  0  0  0
   28.9892  -24.4981  -17.0655 C   0  0  2  0  0  0  0  0  0  0  0  0
   30.3441  -24.6462  -16.5175 N   0  0  0  0  0  0  0  0  0  0  0  0
   28.3690  -23.2623  -16.5996 C   0  0  0  0  0  0  0  0  0  0  0  0
   28.4683  -22.8402  -15.4295 O   0  0  0  0  0  0  0  0  0  0  0  0
   27.5944  -22.4750  -17.5348 N   0  0  0  0  0  0  0  0  0  0  0  0
   26.9888  -21.2488  -17.0520 C   0  0  0  0  0  0  0  0  0  0  0  0
   25.5856  -21.4358  -16.6627 C   0  0  0  0  0  0  0  0  0  0  0  0
   24.7639  -20.3853  -16.2519 O   0  0  0  0  0  0  0  0  0  0  0  0
   25.1040  -22.5878  -16.7006 O   0  0  0  0  0  0  0  0  0  0  0  0
  2  1  1  0
  3  4  1  0
  3  2  1  0
  4  5  1  0
  5  1  1  0
  5  6  1  6
  7  6  2  0
  8  9  1  0
  9 11  1  0
 10  9  2  0
 11 12  1  0
 13 12  1  1
 13 14  1  0
 13 15  1  0
 14  6  1  0
 15 17  1  0
 16 15  2  0
 17 18  1  0
 18 19  1  0
 19 21  2  0
 19 20  1  0
M  END
$$$$
