PQG.pdb
     RDKit          3D

 21 21  0  0  1  0  0  0  0  0999 V2000
   24.4147  -12.1457  -15.6622 N   0  0  0  0  0  0  0  0  0  0  0  0
   24.6990  -13.5720  -15.5811 C   0  0  0  0  0  0  0  0  0  0  0  0
   23.7295  -14.2519  -16.4995 C   0  0  0  0  0  0  0  0  0  0  0  0
   23.0852  -13.1912  -17.3324 C   0  0  0  0  0  0  0  0  0  0  0  0
   23.7872  -11.9172  -16.9256 C   0  0  1  0  0  0  0  0  0  0  0  0
   22.7887  -10.8204  -16.8909 C   0  0  0  0  0  0  0  0  0  0  0  0
   22.2627  -10.4623  -17.9762 O   0  0  0  0  0  0  0  0  0  0  0  0
   17.8757  -10.5509  -13.8754 N   0  0  0  0  0  0  0  0  0  0  0  0
   18.0253  -10.8099  -15.2370 C   0  0  0  0  0  0  0  0  0  0  0  0
   17.1824  -11.4357  -15.8880 O   0  0  0  0  0  0  0  0  0  0  0  0
   19.2562  -10.3098  -15.9375 C   0  0  0  0  0  0  0  0  0  0  0  0
   20.1510   -9.5697  -14.9848 C   0  0  0  0  0  0  0  0  0  0  0  0
   21.3780   -9.0999  -15.6634 C   0  0  2  0  0  0  0  0  0  0  0  0
   22.3961  -10.1577  -15.7143 N   0  0  0  0  0  0  0  0  0  0  0  0
   21.9160   -7.8852  -15.0602 C   0  0  0  0  0  0  0  0  0  0  0  0
   22.5283   -7.8687  -13.9731 O   0  0  0  0  0  0  0  0  0  0  0  0
   21.7361   -6.6255  -15.7495 N   0  0  0  0  0  0  0  0  0  0  0  0
   22.2050   -5.4195  -15.0942 C   0  0  0  0  0  0  0  0  0  0  0  0
   21.1594   -4.7834  -14.2833 C   0  0  0  0  0  0  0  0  0  0  0  0
   21.3708   -3.6143  -13.5512 O   0  0  0  0  0  0  0  0  0  0  0  0
   20.0282   -5.3120  -14.2462 O   0  0  0  0  0  0  0  0  0  0  0  0
  2  1  1  0
  3  4  1  0
  3  2  1  0
  4  5  1  0
  5  1  1  0
  5  6  1  1
  7  6  2  0
  8  9  1  0
  9 11  1  0
 10  9  2  0
 11 12  1  0
 13 12  1  1
 13 14  1  0
 13 15  1  0
 14  6  1  0
 15 17  1  0
 16 15  2  0
 17 18  1  0
 18 19  1  0
 19 21  2  0
 19 20  1  0
M  END
$$$$
