PQG.pdb
     RDKit          3D

 21 21  0  0  1  0  0  0  0  0999 V2000
   26.0415  -10.1435  -15.8610 N   0  0  0  0  0  0  0  0  0  0  0  0
   27.1775  -10.9702  -15.4763 C   0  0  0  0  0  0  0  0  0  0  0  0
   27.4551  -11.8778  -16.6360 C   0  0  0  0  0  0  0  0  0  0  0  0
   26.6671  -11.3686  -17.7996 C   0  0  0  0  0  0  0  0  0  0  0  0
   26.0210  -10.1022  -17.2893 C   0  0  1  0  0  0  0  0  0  0  0  0
   24.6505  -10.0143  -17.8505 C   0  0  0  0  0  0  0  0  0  0  0  0
   24.5265   -9.8785  -19.0951 O   0  0  0  0  0  0  0  0  0  0  0  0
   19.8892  -13.4817  -16.6908 N   0  0  0  0  0  0  0  0  0  0  0  0
   19.3261  -12.6140  -17.6252 C   0  0  0  0  0  0  0  0  0  0  0  0
   18.2455  -12.8464  -18.1768 O   0  0  0  0  0  0  0  0  0  0  0  0
   20.0600  -11.3507  -17.9736 C   0  0  0  0  0  0  0  0  0  0  0  0
   21.3777  -11.2818  -17.2560 C   0  0  0  0  0  0  0  0  0  0  0  0
   22.1200  -10.0565  -17.6228 C   0  0  2  0  0  0  0  0  0  0  0  0
   23.4813  -10.0740  -17.0712 N   0  0  0  0  0  0  0  0  0  0  0  0
   21.4133   -8.8411  -17.2325 C   0  0  0  0  0  0  0  0  0  0  0  0
   20.3696   -8.4424  -17.7883 O   0  0  0  0  0  0  0  0  0  0  0  0
   21.9409   -8.0466  -16.1441 N   0  0  0  0  0  0  0  0  0  0  0  0
   21.2109   -6.8546  -15.7571 C   0  0  0  0  0  0  0  0  0  0  0  0
   21.8640   -6.1333  -14.6578 C   0  0  0  0  0  0  0  0  0  0  0  0
   23.0170   -6.5968  -14.0231 O   0  0  0  0  0  0  0  0  0  0  0  0
   21.3654   -5.0547  -14.2720 O   0  0  0  0  0  0  0  0  0  0  0  0
  2  1  1  0
  3  4  1  0
  3  2  1  0
  4  5  1  0
  5  1  1  0
  5  6  1  6
  7  6  2  0
  8  9  1  0
  9 11  1  0
 10  9  2  0
 11 12  1  0
 13 12  1  1
 13 14  1  0
 13 15  1  0
 14  6  1  0
 15 17  1  0
 16 15  2  0
 17 18  1  0
 18 19  1  0
 19 21  2  0
 19 20  1  0
M  END
$$$$
