PQG.pdb
     RDKit          3D

 21 21  0  0  1  0  0  0  0  0999 V2000
   26.9769  -19.0690  -15.3279 N   0  0  0  0  0  0  0  0  0  0  0  0
   28.3861  -18.7238  -15.4588 C   0  0  0  0  0  0  0  0  0  0  0  0
   29.1595  -19.9703  -15.1523 C   0  0  0  0  0  0  0  0  0  0  0  0
   28.1875  -21.1056  -15.1355 C   0  0  0  0  0  0  0  0  0  0  0  0
   26.8724  -20.4790  -15.5349 C   0  0  1  0  0  0  0  0  0  0  0  0
   25.7907  -21.1070  -14.7370 C   0  0  0  0  0  0  0  0  0  0  0  0
   25.5615  -22.3320  -14.9085 O   0  0  0  0  0  0  0  0  0  0  0  0
   24.8875  -20.5722   -8.8975 N   0  0  0  0  0  0  0  0  0  0  0  0
   25.9451  -20.9334   -9.7307 C   0  0  0  0  0  0  0  0  0  0  0  0
   27.0970  -21.0833   -9.3105 O   0  0  0  0  0  0  0  0  0  0  0  0
   25.6738  -21.1480  -11.1923 C   0  0  0  0  0  0  0  0  0  0  0  0
   24.2460  -20.8219  -11.5254 C   0  0  0  0  0  0  0  0  0  0  0  0
   23.9728  -21.0358  -12.9630 C   0  0  2  0  0  0  0  0  0  0  0  0
   25.0063  -20.4115  -13.7995 N   0  0  0  0  0  0  0  0  0  0  0  0
   22.6417  -20.5800  -13.3492 C   0  0  0  0  0  0  0  0  0  0  0  0
   22.2569  -19.3989  -13.2316 O   0  0  0  0  0  0  0  0  0  0  0  0
   21.7083  -21.5395  -13.8993 N   0  0  0  0  0  0  0  0  0  0  0  0
   20.3959  -21.0625  -14.2914 C   0  0  0  0  0  0  0  0  0  0  0  0
   19.3300  -21.5954  -13.4338 C   0  0  0  0  0  0  0  0  0  0  0  0
   17.9855  -21.2573  -13.5929 O   0  0  0  0  0  0  0  0  0  0  0  0
   19.6398  -22.3881  -12.5193 O   0  0  0  0  0  0  0  0  0  0  0  0
  2  1  1  0
  3  4  1  0
  3  2  1  0
  4  5  1  0
  5  1  1  0
  5  6  1  1
  7  6  2  0
  8  9  1  0
  9 11  1  0
 10  9  2  0
 11 12  1  0
 13 12  1  1
 13 14  1  0
 13 15  1  0
 14  6  1  0
 15 17  1  0
 16 15  2  0
 17 18  1  0
 18 19  1  0
 19 21  2  0
 19 20  1  0
M  END
$$$$
