PQG.pdb
     RDKit          3D

 21 21  0  0  1  0  0  0  0  0999 V2000
   26.7108  -18.8727  -15.1569 N   0  0  0  0  0  0  0  0  0  0  0  0
   27.8430  -18.1956  -15.7747 C   0  0  0  0  0  0  0  0  0  0  0  0
   29.0603  -18.9959  -15.4239 C   0  0  0  0  0  0  0  0  0  0  0  0
   28.5908  -20.2953  -14.8535 C   0  0  0  0  0  0  0  0  0  0  0  0
   27.0870  -20.2404  -14.9843 C   0  0  1  0  0  0  0  0  0  0  0  0
   26.4871  -20.8625  -13.7784 C   0  0  0  0  0  0  0  0  0  0  0  0
   26.6704  -22.0931  -13.5920 O   0  0  0  0  0  0  0  0  0  0  0  0
   26.6609  -18.8953   -8.1196 N   0  0  0  0  0  0  0  0  0  0  0  0
   25.8657  -20.0242   -7.9284 C   0  0  0  0  0  0  0  0  0  0  0  0
   25.5896  -20.4564   -6.8046 O   0  0  0  0  0  0  0  0  0  0  0  0
   25.3253  -20.7408   -9.1328 C   0  0  0  0  0  0  0  0  0  0  0  0
   25.8059  -20.0946  -10.4006 C   0  0  0  0  0  0  0  0  0  0  0  0
   25.2052  -20.7402  -11.5877 C   0  0  2  0  0  0  0  0  0  0  0  0
   25.7248  -20.1557  -12.8312 N   0  0  0  0  0  0  0  0  0  0  0  0
   23.7469  -20.7031  -11.5620 C   0  0  0  0  0  0  0  0  0  0  0  0
   23.0616  -21.1859  -10.6377 O   0  0  0  0  0  0  0  0  0  0  0  0
   23.0457  -20.0757  -12.6616 N   0  0  0  0  0  0  0  0  0  0  0  0
   21.5987  -20.0050  -12.5926 C   0  0  0  0  0  0  0  0  0  0  0  0
   20.9510  -21.0717  -13.3660 C   0  0  0  0  0  0  0  0  0  0  0  0
   19.6274  -20.9986  -13.8020 O   0  0  0  0  0  0  0  0  0  0  0  0
   21.6144  -22.0922  -13.6472 O   0  0  0  0  0  0  0  0  0  0  0  0
  2  1  1  0
  3  4  1  0
  3  2  1  0
  4  5  1  0
  5  1  1  0
  5  6  1  1
  7  6  2  0
  8  9  1  0
  9 11  1  0
 10  9  2  0
 11 12  1  0
 13 12  1  1
 13 14  1  0
 13 15  1  0
 14  6  1  0
 15 17  1  0
 16 15  2  0
 17 18  1  0
 18 19  1  0
 19 21  2  0
 19 20  1  0
M  END
$$$$
