PQG.pdb
     RDKit          3D

 21 21  0  0  1  0  0  0  0  0999 V2000
   16.7924  -11.1587  -13.5267 N   0  0  0  0  0  0  0  0  0  0  0  0
   15.8709  -12.2231  -13.9006 C   0  0  0  0  0  0  0  0  0  0  0  0
   14.6198  -11.5531  -14.3816 C   0  0  0  0  0  0  0  0  0  0  0  0
   14.9320  -10.1026  -14.5628 C   0  0  0  0  0  0  0  0  0  0  0  0
   16.4091   -9.9972  -14.2656 C   0  0  1  0  0  0  0  0  0  0  0  0
   16.6518   -8.7318  -13.5301 C   0  0  0  0  0  0  0  0  0  0  0  0
   16.3906   -7.6476  -14.1123 O   0  0  0  0  0  0  0  0  0  0  0  0
   15.4529   -7.3220   -7.7976 N   0  0  0  0  0  0  0  0  0  0  0  0
   14.6515   -7.1824   -8.9297 C   0  0  0  0  0  0  0  0  0  0  0  0
   13.4247   -7.0557   -8.8603 O   0  0  0  0  0  0  0  0  0  0  0  0
   15.3037   -7.1862  -10.2826 C   0  0  0  0  0  0  0  0  0  0  0  0
   16.7814   -7.4279  -10.1640 C   0  0  0  0  0  0  0  0  0  0  0  0
   17.4292   -7.4264  -11.4933 C   0  0  2  0  0  0  0  0  0  0  0  0
   17.1572   -8.6743  -12.2190 N   0  0  0  0  0  0  0  0  0  0  0  0
   18.8634   -7.1708  -11.4121 C   0  0  0  0  0  0  0  0  0  0  0  0
   19.6040   -7.6707  -10.5410 O   0  0  0  0  0  0  0  0  0  0  0  0
   19.4717   -6.2923  -12.3880 N   0  0  0  0  0  0  0  0  0  0  0  0
   20.9120   -6.1266  -12.3485 C   0  0  0  0  0  0  0  0  0  0  0  0
   21.3997   -5.2336  -13.4069 C   0  0  0  0  0  0  0  0  0  0  0  0
   22.7261   -4.8085  -13.4919 O   0  0  0  0  0  0  0  0  0  0  0  0
   20.5909   -4.8354  -14.2717 O   0  0  0  0  0  0  0  0  0  0  0  0
  2  1  1  0
  3  4  1  0
  3  2  1  0
  4  5  1  0
  5  1  1  0
  5  6  1  1
  7  6  2  0
  8  9  1  0
  9 11  1  0
 10  9  2  0
 11 12  1  0
 13 12  1  1
 13 14  1  0
 13 15  1  0
 14  6  1  0
 15 17  1  0
 16 15  2  0
 17 18  1  0
 18 19  1  0
 19 21  2  0
 19 20  1  0
M  END
$$$$
