PQG.pdb
     RDKit          3D

 21 21  0  0  1  0  0  0  0  0999 V2000
   26.5264  -18.9034  -14.7129 N   0  0  0  0  0  0  0  0  0  0  0  0
   27.8926  -18.4072  -14.8097 C   0  0  0  0  0  0  0  0  0  0  0  0
   28.7873  -19.5482  -14.4311 C   0  0  0  0  0  0  0  0  0  0  0  0
   27.9471  -20.7840  -14.4040 C   0  0  0  0  0  0  0  0  0  0  0  0
   26.5865  -20.3224  -14.8702 C   0  0  1  0  0  0  0  0  0  0  0  0
   25.5520  -21.0405  -14.0857 C   0  0  0  0  0  0  0  0  0  0  0  0
   25.4918  -22.2928  -14.1891 O   0  0  0  0  0  0  0  0  0  0  0  0
   27.6601  -20.8955  -10.3833 N   0  0  0  0  0  0  0  0  0  0  0  0
   26.3204  -20.5354  -10.2465 C   0  0  0  0  0  0  0  0  0  0  0  0
   25.9723  -19.4074   -9.8827 O   0  0  0  0  0  0  0  0  0  0  0  0
   25.2620  -21.5562  -10.5527 C   0  0  0  0  0  0  0  0  0  0  0  0
   23.9733  -20.8908  -10.9432 C   0  0  0  0  0  0  0  0  0  0  0  0
   23.6743  -21.1090  -12.3750 C   0  0  2  0  0  0  0  0  0  0  0  0
   24.6344  -20.4016  -13.2327 N   0  0  0  0  0  0  0  0  0  0  0  0
   22.3027  -20.7482  -12.7173 C   0  0  0  0  0  0  0  0  0  0  0  0
   21.3058  -21.1519  -12.0846 O   0  0  0  0  0  0  0  0  0  0  0  0
   22.0726  -19.8763  -13.8491 N   0  0  0  0  0  0  0  0  0  0  0  0
   20.7001  -19.5614  -14.1962 C   0  0  0  0  0  0  0  0  0  0  0  0
   20.1267  -20.5309  -15.1377 C   0  0  0  0  0  0  0  0  0  0  0  0
   18.8193  -20.4430  -15.6179 O   0  0  0  0  0  0  0  0  0  0  0  0
   20.8410  -21.4787  -15.5276 O   0  0  0  0  0  0  0  0  0  0  0  0
  2  1  1  0
  3  4  1  0
  3  2  1  0
  4  5  1  0
  5  1  1  0
  5  6  1  1
  7  6  2  0
  8  9  1  0
  9 11  1  0
 10  9  2  0
 11 12  1  0
 13 12  1  1
 13 14  1  0
 13 15  1  0
 14  6  1  0
 15 17  1  0
 16 15  2  0
 17 18  1  0
 18 19  1  0
 19 21  2  0
 19 20  1  0
M  END
$$$$
