PQG.pdb
     RDKit          3D

 21 21  0  0  1  0  0  0  0  0999 V2000
   19.1966  -13.3642    5.4149 N   0  0  0  0  0  0  0  0  0  0  0  0
   19.0697  -12.0701    4.7583 C   0  0  0  0  0  0  0  0  0  0  0  0
   17.6042  -11.8456    4.5403 C   0  0  0  0  0  0  0  0  0  0  0  0
   16.8716  -12.8755    5.3384 C   0  0  0  0  0  0  0  0  0  0  0  0
   17.9580  -13.6163    6.0816 C   0  0  1  0  0  0  0  0  0  0  0  0
   17.6011  -15.0557    6.1243 C   0  0  0  0  0  0  0  0  0  0  0  0
   16.6170  -15.4025    6.8272 O   0  0  0  0  0  0  0  0  0  0  0  0
   17.5049  -19.4207    1.8592 N   0  0  0  0  0  0  0  0  0  0  0  0
   17.2496  -20.1839    2.9975 C   0  0  0  0  0  0  0  0  0  0  0  0
   16.8379  -21.3469    2.9357 O   0  0  0  0  0  0  0  0  0  0  0  0
   17.4838  -19.5694    4.3479 C   0  0  0  0  0  0  0  0  0  0  0  0
   17.8762  -18.1254    4.2183 C   0  0  0  0  0  0  0  0  0  0  0  0
   18.0264  -17.4935    5.5469 C   0  0  2  0  0  0  0  0  0  0  0  0
   18.2998  -16.0554    5.4241 N   0  0  0  0  0  0  0  0  0  0  0  0
   19.0416  -18.1508    6.3630 C   0  0  0  0  0  0  0  0  0  0  0  0
   20.2670  -17.9610    6.2233 O   0  0  0  0  0  0  0  0  0  0  0  0
   18.6176  -19.0748    7.3929 N   0  0  0  0  0  0  0  0  0  0  0  0
   19.6417  -19.7022    8.2061 C   0  0  0  0  0  0  0  0  0  0  0  0
   20.1115  -20.9689    7.6315 C   0  0  0  0  0  0  0  0  0  0  0  0
   21.1301  -21.7321    8.2036 O   0  0  0  0  0  0  0  0  0  0  0  0
   19.5753  -21.3836    6.5821 O   0  0  0  0  0  0  0  0  0  0  0  0
  2  1  1  0
  3  4  1  0
  3  2  1  0
  4  5  1  0
  5  1  1  0
  5  6  1  6
  7  6  2  0
  8  9  1  0
  9 11  1  0
 10  9  2  0
 11 12  1  0
 13 12  1  6
 13 14  1  0
 13 15  1  0
 14  6  1  0
 15 17  1  0
 16 15  2  0
 17 18  1  0
 18 19  1  0
 19 21  2  0
 19 20  1  0
M  END
$$$$
