PQG.pdb
     RDKit          3D

 21 21  0  0  1  0  0  0  0  0999 V2000
   26.2272  -10.7032  -15.8561 N   0  0  0  0  0  0  0  0  0  0  0  0
   27.0446  -11.9039  -15.7452 C   0  0  0  0  0  0  0  0  0  0  0  0
   26.8413  -12.6755  -17.0136 C   0  0  0  0  0  0  0  0  0  0  0  0
   26.1387  -11.7737  -17.9765 C   0  0  0  0  0  0  0  0  0  0  0  0
   26.0422  -10.4526  -17.2507 C   0  0  1  0  0  0  0  0  0  0  0  0
   24.7281   -9.8390  -17.5636 C   0  0  0  0  0  0  0  0  0  0  0  0
   24.4862   -9.5322  -18.7594 O   0  0  0  0  0  0  0  0  0  0  0  0
   19.6370  -11.7069  -15.2003 N   0  0  0  0  0  0  0  0  0  0  0  0
   20.2773  -12.1456  -16.3583 C   0  0  0  0  0  0  0  0  0  0  0  0
   20.1144  -13.2819  -16.8145 O   0  0  0  0  0  0  0  0  0  0  0  0
   21.1986  -11.2019  -17.0772 C   0  0  0  0  0  0  0  0  0  0  0  0
   21.3436   -9.9136  -16.3188 C   0  0  0  0  0  0  0  0  0  0  0  0
   22.3979   -9.0628  -16.9118 C   0  0  2  0  0  0  0  0  0  0  0  0
   23.7369   -9.5804  -16.6001 N   0  0  0  0  0  0  0  0  0  0  0  0
   22.2723   -7.6646  -16.5146 C   0  0  0  0  0  0  0  0  0  0  0  0
   21.2994   -6.9460  -16.8215 O   0  0  0  0  0  0  0  0  0  0  0  0
   23.3257   -7.0673  -15.7222 N   0  0  0  0  0  0  0  0  0  0  0  0
   23.1922   -5.6699  -15.3575 C   0  0  0  0  0  0  0  0  0  0  0  0
   22.5082   -5.4925  -14.0706 C   0  0  0  0  0  0  0  0  0  0  0  0
   22.3518   -4.2487  -13.4576 O   0  0  0  0  0  0  0  0  0  0  0  0
   22.0445   -6.5008  -13.4970 O   0  0  0  0  0  0  0  0  0  0  0  0
  2  1  1  0
  3  4  1  0
  3  2  1  0
  4  5  1  0
  5  1  1  0
  5  6  1  1
  7  6  2  0
  8  9  1  0
  9 11  1  0
 10  9  2  0
 11 12  1  0
 13 12  1  1
 13 14  1  0
 13 15  1  0
 14  6  1  0
 15 17  1  0
 16 15  2  0
 17 18  1  0
 18 19  1  0
 19 21  2  0
 19 20  1  0
M  END
$$$$
