PQG.pdb
     RDKit          3D

 21 21  0  0  1  0  0  0  0  0999 V2000
   26.6246  -21.1003  -14.7647 N   0  0  0  0  0  0  0  0  0  0  0  0
   27.6760  -21.3992  -15.7276 C   0  0  0  0  0  0  0  0  0  0  0  0
   27.4925  -20.4443  -16.8678 C   0  0  0  0  0  0  0  0  0  0  0  0
   26.5178  -19.4016  -16.4240 C   0  0  0  0  0  0  0  0  0  0  0  0
   26.2371  -19.7417  -14.9794 C   0  0  1  0  0  0  0  0  0  0  0  0
   24.7991  -19.4958  -14.7092 C   0  0  0  0  0  0  0  0  0  0  0  0
   24.3404  -18.3468  -14.9376 O   0  0  0  0  0  0  0  0  0  0  0  0
   19.7762  -19.2293  -16.8762 N   0  0  0  0  0  0  0  0  0  0  0  0
   20.9703  -18.5117  -16.9259 C   0  0  0  0  0  0  0  0  0  0  0  0
   21.0945  -17.4793  -17.5927 O   0  0  0  0  0  0  0  0  0  0  0  0
   22.1484  -19.0122  -16.1400 C   0  0  0  0  0  0  0  0  0  0  0  0
   21.7915  -20.2524  -15.3716 C   0  0  0  0  0  0  0  0  0  0  0  0
   22.4709  -20.2787  -14.0583 C   0  0  2  0  0  0  0  0  0  0  0  0
   23.9187  -20.4734  -14.2123 N   0  0  0  0  0  0  0  0  0  0  0  0
   21.9019  -21.2762  -13.1584 C   0  0  0  0  0  0  0  0  0  0  0  0
   22.2439  -22.4763  -13.1555 O   0  0  0  0  0  0  0  0  0  0  0  0
   20.8855  -20.8647  -12.2141 N   0  0  0  0  0  0  0  0  0  0  0  0
   20.3529  -21.8659  -11.3100 C   0  0  0  0  0  0  0  0  0  0  0  0
   19.2104  -22.5859  -11.8862 C   0  0  0  0  0  0  0  0  0  0  0  0
   19.1434  -22.9544  -13.2304 O   0  0  0  0  0  0  0  0  0  0  0  0
   18.2538  -22.8827  -11.1396 O   0  0  0  0  0  0  0  0  0  0  0  0
  2  1  1  0
  3  4  1  0
  3  2  1  0
  4  5  1  0
  5  1  1  0
  5  6  1  6
  7  6  2  0
  8  9  1  0
  9 11  1  0
 10  9  2  0
 11 12  1  0
 13 12  1  6
 13 14  1  0
 13 15  1  0
 14  6  1  0
 15 17  1  0
 16 15  2  0
 17 18  1  0
 18 19  1  0
 19 21  2  0
 19 20  1  0
M  END
$$$$
