SWM.pdb
     RDKit          3D

 29 30  0  0  1  0  0  0  0  0999 V2000
   12.7473  -19.7738   21.0817 O   0  0  0  0  0  0  0  0  0  0  0  0
   11.5340  -19.9912   20.3998 C   0  0  0  0  0  0  0  0  0  0  0  0
   11.1707  -18.6740   19.7435 C   0  0  2  0  0  0  0  0  0  0  0  0
   12.1472  -18.2842   18.7730 N   0  0  0  0  0  0  0  0  0  0  0  0
   10.9796  -17.5943   20.7162 C   0  0  0  0  0  0  0  0  0  0  0  0
   11.8406  -16.6917   20.8857 O   0  0  0  0  0  0  0  0  0  0  0  0
    9.8157  -17.5359   21.4961 N   0  0  0  0  0  0  0  0  0  0  0  0
    9.4975  -16.4743   22.4439 C   0  0  1  0  0  0  0  0  0  0  0  0
    8.1019  -16.0114   22.3116 C   0  0  0  0  0  0  0  0  0  0  0  0
    7.7666  -14.6842   22.8681 C   0  0  0  0  0  0  0  0  0  0  0  0
    8.0263  -13.4466   22.2626 C   0  0  0  0  0  0  0  0  0  0  0  0
    7.6225  -12.4568   23.0555 N   0  0  0  0  0  0  0  0  0  0  0  0
    7.1009  -12.9885   24.1698 C   0  0  0  0  0  0  0  0  0  0  0  0
    6.5294  -12.3921   25.2942 C   0  0  0  0  0  0  0  0  0  0  0  0
    6.0334  -13.1697   26.3269 C   0  0  0  0  0  0  0  0  0  0  0  0
    6.1172  -14.5556   26.2190 C   0  0  0  0  0  0  0  0  0  0  0  0
    6.6821  -15.1423   25.1093 C   0  0  0  0  0  0  0  0  0  0  0  0
    7.1748  -14.3553   24.0846 C   0  0  0  0  0  0  0  0  0  0  0  0
    9.9363  -16.8991   23.7726 C   0  0  0  0  0  0  0  0  0  0  0  0
   10.2627  -18.0930   23.9648 O   0  0  0  0  0  0  0  0  0  0  0  0
    9.8741  -13.0720   29.4528 C   0  0  0  0  0  0  0  0  0  0  0  0
   10.8636  -14.4980   29.7584 S   0  0  0  0  0  0  0  0  0  0  0  0
   11.0245  -15.7106   28.4681 C   0  0  0  0  0  0  0  0  0  0  0  0
   10.4972  -15.3109   27.1272 C   0  0  0  0  0  0  0  0  0  0  0  0
   10.5527  -16.4159   26.1408 C   0  0  2  0  0  0  0  0  0  0  0  0
   10.0006  -15.9930   24.8464 N   0  0  0  0  0  0  0  0  0  0  0  0
    9.8492  -17.6449   26.5160 C   0  0  0  0  0  0  0  0  0  0  0  0
    8.6161  -17.7467   26.2975 O   0  0  0  0  0  0  0  0  0  0  0  0
   10.4684  -18.7092   27.1023 O   0  0  0  0  0  0  0  0  0  0  0  0
  2  3  1  0
  2  1  1  0
  3  5  1  0
  3  4  1  6
  5  6  2  0
  7  8  1  0
  7  5  1  0
  8 19  1  0
  8  9  1  1
 10  9  1  0
 10 18  1  0
 11 12  1  0
 11 10  2  0
 12 13  1  0
 13 18  2  0
 13 14  1  0
 14 15  2  0
 15 16  1  0
 17 16  2  0
 18 17  1  0
 19 20  2  0
 22 23  1  0
 22 21  1  0
 23 24  1  0
 25 24  1  1
 25 27  1  0
 26 25  1  0
 26 19  1  0
 27 28  2  0
 27 29  1  0
M  END
$$$$
