SWM.pdb
     RDKit          3D

 29 30  0  0  1  0  0  0  0  0999 V2000
   11.7015  -18.2370   19.9595 O   0  0  0  0  0  0  0  0  0  0  0  0
   10.3775  -18.5468   19.5918 C   0  0  0  0  0  0  0  0  0  0  0  0
    9.6188  -17.2346   19.5807 C   0  0  2  0  0  0  0  0  0  0  0  0
   10.1065  -16.3549   18.5631 N   0  0  0  0  0  0  0  0  0  0  0  0
    9.6492  -16.5559   20.8795 C   0  0  0  0  0  0  0  0  0  0  0  0
   10.2998  -15.4933   21.0597 O   0  0  0  0  0  0  0  0  0  0  0  0
    8.9442  -17.0787   21.9731 N   0  0  0  0  0  0  0  0  0  0  0  0
    8.8660  -16.4583   23.2905 C   0  0  1  0  0  0  0  0  0  0  0  0
    7.6487  -16.8607   24.0225 C   0  0  0  0  0  0  0  0  0  0  0  0
    6.8665  -15.7962   24.6847 C   0  0  0  0  0  0  0  0  0  0  0  0
    5.6504  -15.9660   25.3615 C   0  0  0  0  0  0  0  0  0  0  0  0
    5.2077  -14.7923   25.8064 N   0  0  0  0  0  0  0  0  0  0  0  0
    6.0852  -13.8432   25.4519 C   0  0  0  0  0  0  0  0  0  0  0  0
    6.0977  -12.4677   25.6852 C   0  0  0  0  0  0  0  0  0  0  0  0
    7.1446  -11.6863   25.2262 C   0  0  0  0  0  0  0  0  0  0  0  0
    8.1813  -12.3015   24.5289 C   0  0  0  0  0  0  0  0  0  0  0  0
    8.1669  -13.6586   24.2990 C   0  0  0  0  0  0  0  0  0  0  0  0
    7.1155  -14.4285   24.7617 C   0  0  0  0  0  0  0  0  0  0  0  0
   10.1471  -16.6557   23.9673 C   0  0  0  0  0  0  0  0  0  0  0  0
   11.0257  -17.3715   23.4336 O   0  0  0  0  0  0  0  0  0  0  0  0
    9.2491  -13.7615   29.0876 C   0  0  0  0  0  0  0  0  0  0  0  0
   10.5339  -14.8964   29.4964 S   0  0  0  0  0  0  0  0  0  0  0  0
   11.0798  -16.0430   28.2520 C   0  0  0  0  0  0  0  0  0  0  0  0
   11.8245  -15.4495   27.0991 C   0  0  0  0  0  0  0  0  0  0  0  0
   11.7149  -16.2679   25.8683 C   0  0  2  0  0  0  0  0  0  0  0  0
   10.4176  -16.0574   25.2110 N   0  0  0  0  0  0  0  0  0  0  0  0
   11.8657  -17.7143   26.0456 C   0  0  0  0  0  0  0  0  0  0  0  0
   10.8455  -18.4471   26.0717 O   0  0  0  0  0  0  0  0  0  0  0  0
   13.0764  -18.3258   26.1876 O   0  0  0  0  0  0  0  0  0  0  0  0
  2  3  1  0
  2  1  1  0
  3  5  1  0
  3  4  1  6
  5  6  2  0
  7  8  1  0
  7  5  1  0
  8 19  1  0
  8  9  1  1
 10  9  1  0
 10 18  1  0
 11 12  1  0
 11 10  2  0
 12 13  1  0
 13 18  2  0
 13 14  1  0
 14 15  2  0
 15 16  1  0
 17 16  2  0
 18 17  1  0
 19 20  2  0
 22 23  1  0
 22 21  1  0
 23 24  1  0
 25 24  1  1
 25 27  1  0
 26 25  1  0
 26 19  1  0
 27 28  2  0
 27 29  1  0
M  END
$$$$
