SWM.pdb
     RDKit          3D

 29 30  0  0  1  0  0  0  0  0999 V2000
   11.8155  -18.9679   20.9015 O   0  0  0  0  0  0  0  0  0  0  0  0
   12.0422  -17.8741   20.0434 C   0  0  0  0  0  0  0  0  0  0  0  0
   10.7755  -17.0418   20.0681 C   0  0  2  0  0  0  0  0  0  0  0  0
   10.8131  -15.9996   19.0884 N   0  0  0  0  0  0  0  0  0  0  0  0
   10.5034  -16.4702   21.3901 C   0  0  0  0  0  0  0  0  0  0  0  0
   11.0231  -15.3871   21.7663 O   0  0  0  0  0  0  0  0  0  0  0  0
    9.6440  -17.1233   22.2853 N   0  0  0  0  0  0  0  0  0  0  0  0
    9.2309  -16.5974   23.5811 C   0  0  1  0  0  0  0  0  0  0  0  0
    7.8430  -16.9729   23.9161 C   0  0  0  0  0  0  0  0  0  0  0  0
    6.9961  -15.9502   24.5647 C   0  0  0  0  0  0  0  0  0  0  0  0
    5.6403  -16.0897   24.8932 C   0  0  0  0  0  0  0  0  0  0  0  0
    5.1834  -14.9630   25.4346 N   0  0  0  0  0  0  0  0  0  0  0  0
    6.1861  -14.0747   25.4808 C   0  0  0  0  0  0  0  0  0  0  0  0
    6.2360  -12.7672   25.9651 C   0  0  0  0  0  0  0  0  0  0  0  0
    7.4167  -12.0454   25.9198 C   0  0  0  0  0  0  0  0  0  0  0  0
    8.5495  -12.6510   25.3820 C   0  0  0  0  0  0  0  0  0  0  0  0
    8.4982  -13.9408   24.9039 C   0  0  0  0  0  0  0  0  0  0  0  0
    7.3131  -14.6516   24.9538 C   0  0  0  0  0  0  0  0  0  0  0  0
   10.2657  -16.9261   24.5607 C   0  0  0  0  0  0  0  0  0  0  0  0
   11.2210  -17.6649   24.2281 O   0  0  0  0  0  0  0  0  0  0  0  0
   11.9175  -13.3956   30.0390 C   0  0  0  0  0  0  0  0  0  0  0  0
   11.2116  -13.6343   28.4420 S   0  0  0  0  0  0  0  0  0  0  0  0
   10.1593  -15.0438   28.1822 C   0  0  0  0  0  0  0  0  0  0  0  0
   10.8328  -16.3781   28.2264 C   0  0  0  0  0  0  0  0  0  0  0  0
   11.1868  -16.8823   26.8783 C   0  0  2  0  0  0  0  0  0  0  0  0
   10.2132  -16.4292   25.8754 N   0  0  0  0  0  0  0  0  0  0  0  0
   11.2815  -18.3381   26.7438 C   0  0  0  0  0  0  0  0  0  0  0  0
   12.3869  -18.9081   26.9216 O   0  0  0  0  0  0  0  0  0  0  0  0
   10.2157  -19.1287   26.4292 O   0  0  0  0  0  0  0  0  0  0  0  0
  2  3  1  0
  2  1  1  0
  3  5  1  0
  3  4  1  6
  5  6  2  0
  7  8  1  0
  7  5  1  0
  8 19  1  0
  8  9  1  1
 10  9  1  0
 10 18  1  0
 11 12  1  0
 11 10  2  0
 12 13  1  0
 13 18  2  0
 13 14  1  0
 14 15  2  0
 15 16  1  0
 17 16  2  0
 18 17  1  0
 19 20  2  0
 22 23  1  0
 22 21  1  0
 23 24  1  0
 25 24  1  1
 25 27  1  0
 26 25  1  0
 26 19  1  0
 27 28  2  0
 27 29  1  0
M  END
$$$$
