SWM.pdb
     RDKit          3D

 29 30  0  0  1  0  0  0  0  0999 V2000
   11.4362  -20.4873   21.6828 O   0  0  0  0  0  0  0  0  0  0  0  0
   10.1780  -20.4683   21.0498 C   0  0  0  0  0  0  0  0  0  0  0  0
   10.0799  -19.1357   20.3339 C   0  0  2  0  0  0  0  0  0  0  0  0
   11.0703  -19.0168   19.3082 N   0  0  0  0  0  0  0  0  0  0  0  0
   10.1758  -17.9960   21.2506 C   0  0  0  0  0  0  0  0  0  0  0  0
   11.1630  -17.2149   21.2397 O   0  0  0  0  0  0  0  0  0  0  0  0
    9.1558  -17.7401   22.1782 N   0  0  0  0  0  0  0  0  0  0  0  0
    9.0958  -16.5758   23.0541 C   0  0  1  0  0  0  0  0  0  0  0  0
    7.8074  -15.8635   22.9438 C   0  0  0  0  0  0  0  0  0  0  0  0
    7.7626  -14.4581   23.3981 C   0  0  0  0  0  0  0  0  0  0  0  0
    8.2892  -13.3532   22.7142 C   0  0  0  0  0  0  0  0  0  0  0  0
    8.1025  -12.2443   23.4261 N   0  0  0  0  0  0  0  0  0  0  0  0
    7.4687  -12.5680   24.5618 C   0  0  0  0  0  0  0  0  0  0  0  0
    7.0302  -11.7817   25.6276 C   0  0  0  0  0  0  0  0  0  0  0  0
    6.3687  -12.3564   26.6997 C   0  0  0  0  0  0  0  0  0  0  0  0
    6.1514  -13.7319   26.6908 C   0  0  0  0  0  0  0  0  0  0  0  0
    6.5854  -14.5063   25.6388 C   0  0  0  0  0  0  0  0  0  0  0  0
    7.2456  -13.9211   24.5739 C   0  0  0  0  0  0  0  0  0  0  0  0
    9.5186  -16.9863   24.3924 C   0  0  0  0  0  0  0  0  0  0  0  0
    8.6691  -17.4194   25.2046 O   0  0  0  0  0  0  0  0  0  0  0  0
    8.9890  -12.9772   28.1775 C   0  0  0  0  0  0  0  0  0  0  0  0
    9.7245  -14.2647   29.1299 S   0  0  0  0  0  0  0  0  0  0  0  0
   10.6918  -15.4958   28.2873 C   0  0  0  0  0  0  0  0  0  0  0  0
   10.4363  -15.6355   26.8207 C   0  0  0  0  0  0  0  0  0  0  0  0
   11.2086  -16.7440   26.2110 C   0  0  2  0  0  0  0  0  0  0  0  0
   10.8648  -16.9055   24.7915 N   0  0  0  0  0  0  0  0  0  0  0  0
   11.0427  -18.0590   26.8353 C   0  0  0  0  0  0  0  0  0  0  0  0
   10.2927  -18.9119   26.2981 O   0  0  0  0  0  0  0  0  0  0  0  0
   11.6688  -18.4196   27.9919 O   0  0  0  0  0  0  0  0  0  0  0  0
  2  3  1  0
  2  1  1  0
  3  5  1  0
  3  4  1  6
  5  6  2  0
  7  8  1  0
  7  5  1  0
  8 19  1  0
  8  9  1  1
 10  9  1  0
 10 18  1  0
 11 12  1  0
 11 10  2  0
 12 13  1  0
 13 18  2  0
 13 14  1  0
 14 15  2  0
 15 16  1  0
 17 16  2  0
 18 17  1  0
 19 20  2  0
 22 23  1  0
 22 21  1  0
 23 24  1  0
 25 24  1  1
 25 27  1  0
 26 25  1  0
 26 19  1  0
 27 28  2  0
 27 29  1  0
M  END
$$$$
