SWM.pdb
     RDKit          3D

 29 30  0  0  1  0  0  0  0  0999 V2000
   10.6422  -21.4333   20.0863 O   0  0  0  0  0  0  0  0  0  0  0  0
   11.1207  -20.3710   20.8782 C   0  0  0  0  0  0  0  0  0  0  0  0
   10.6440  -19.0945   20.2139 C   0  0  2  0  0  0  0  0  0  0  0  0
   11.4652  -18.7469   19.0949 N   0  0  0  0  0  0  0  0  0  0  0  0
   10.5741  -17.9666   21.1473 C   0  0  0  0  0  0  0  0  0  0  0  0
   11.5174  -17.1412   21.2650 O   0  0  0  0  0  0  0  0  0  0  0  0
    9.4383  -17.7726   21.9464 N   0  0  0  0  0  0  0  0  0  0  0  0
    9.2587  -16.6763   22.8910 C   0  0  1  0  0  0  0  0  0  0  0  0
    7.9406  -16.0276   22.7450 C   0  0  0  0  0  0  0  0  0  0  0  0
    7.7927  -14.6548   23.2716 C   0  0  0  0  0  0  0  0  0  0  0  0
    8.2792  -13.4846   22.6719 C   0  0  0  0  0  0  0  0  0  0  0  0
    7.9971  -12.4301   23.4332 N   0  0  0  0  0  0  0  0  0  0  0  0
    7.3380  -12.8533   24.5209 C   0  0  0  0  0  0  0  0  0  0  0  0
    6.8097  -12.1548   25.6069 C   0  0  0  0  0  0  0  0  0  0  0  0
    6.1408  -12.8261   26.6164 C   0  0  0  0  0  0  0  0  0  0  0  0
    6.0073  -14.2092   26.5242 C   0  0  0  0  0  0  0  0  0  0  0  0
    6.5299  -14.8969   25.4524 C   0  0  0  0  0  0  0  0  0  0  0  0
    7.1966  -14.2155   24.4506 C   0  0  0  0  0  0  0  0  0  0  0  0
    9.6224  -17.1551   24.2240 C   0  0  0  0  0  0  0  0  0  0  0  0
    9.1519  -18.2378   24.6429 O   0  0  0  0  0  0  0  0  0  0  0  0
    9.7388  -13.8177   29.8994 C   0  0  0  0  0  0  0  0  0  0  0  0
   10.0606  -13.3154   28.2411 S   0  0  0  0  0  0  0  0  0  0  0  0
   10.6353  -14.5353   27.0822 C   0  0  0  0  0  0  0  0  0  0  0  0
   10.3425  -15.9588   27.4339 C   0  0  0  0  0  0  0  0  0  0  0  0
   10.8161  -16.9099   26.4004 C   0  0  2  0  0  0  0  0  0  0  0  0
   10.4933  -16.4241   25.0517 N   0  0  0  0  0  0  0  0  0  0  0  0
   10.2866  -18.2727   26.4936 C   0  0  0  0  0  0  0  0  0  0  0  0
   10.5822  -18.9880   27.4833 O   0  0  0  0  0  0  0  0  0  0  0  0
    9.4733  -18.8229   25.5472 O   0  0  0  0  0  0  0  0  0  0  0  0
  2  3  1  0
  2  1  1  0
  3  5  1  0
  3  4  1  6
  5  6  2  0
  7  8  1  0
  7  5  1  0
  8 19  1  0
  8  9  1  1
 10  9  1  0
 10 18  1  0
 11 12  1  0
 11 10  2  0
 12 13  1  0
 13 18  2  0
 13 14  1  0
 14 15  2  0
 15 16  1  0
 17 16  2  0
 18 17  1  0
 19 20  2  0
 22 23  1  0
 22 21  1  0
 23 24  1  0
 25 24  1  1
 25 27  1  0
 26 25  1  0
 26 19  1  0
 27 28  2  0
 27 29  1  0
M  END
$$$$
