SWM.pdb
     RDKit          3D

 29 30  0  0  1  0  0  0  0  0999 V2000
   10.7187  -21.0161   23.1586 O   0  0  0  0  0  0  0  0  0  0  0  0
    9.4301  -21.1613   22.6084 C   0  0  0  0  0  0  0  0  0  0  0  0
    9.3835  -20.2649   21.3868 C   0  0  2  0  0  0  0  0  0  0  0  0
   10.2985  -20.7043   20.3783 N   0  0  0  0  0  0  0  0  0  0  0  0
    9.6400  -18.8586   21.7106 C   0  0  0  0  0  0  0  0  0  0  0  0
   10.7218  -18.2922   21.4043 O   0  0  0  0  0  0  0  0  0  0  0  0
    8.6737  -18.0940   22.3798 N   0  0  0  0  0  0  0  0  0  0  0  0
    8.8098  -16.6807   22.7123 C   0  0  1  0  0  0  0  0  0  0  0  0
    7.5008  -16.0299   22.9182 C   0  0  0  0  0  0  0  0  0  0  0  0
    7.4994  -14.5972   23.2799 C   0  0  0  0  0  0  0  0  0  0  0  0
    7.9953  -13.5477   22.4936 C   0  0  0  0  0  0  0  0  0  0  0  0
    7.8648  -12.3917   23.1401 N   0  0  0  0  0  0  0  0  0  0  0  0
    7.2982  -12.6305   24.3310 C   0  0  0  0  0  0  0  0  0  0  0  0
    6.9345  -11.7693   25.3667 C   0  0  0  0  0  0  0  0  0  0  0  0
    6.3336  -12.2623   26.5126 C   0  0  0  0  0  0  0  0  0  0  0  0
    6.1010  -13.6320   26.6084 C   0  0  0  0  0  0  0  0  0  0  0  0
    6.4612  -14.4803   25.5859 C   0  0  0  0  0  0  0  0  0  0  0  0
    7.0614  -13.9763   24.4465 C   0  0  0  0  0  0  0  0  0  0  0  0
    9.7936  -16.5550   23.7869 C   0  0  0  0  0  0  0  0  0  0  0  0
   10.7193  -15.7174   23.6842 O   0  0  0  0  0  0  0  0  0  0  0  0
   10.3916  -12.6715   28.4286 C   0  0  0  0  0  0  0  0  0  0  0  0
   10.6862  -14.3080   29.0122 S   0  0  0  0  0  0  0  0  0  0  0  0
   11.2190  -15.5406   27.8468 C   0  0  0  0  0  0  0  0  0  0  0  0
   10.1421  -16.1627   27.0165 C   0  0  0  0  0  0  0  0  0  0  0  0
   10.6704  -17.1497   26.0451 C   0  0  2  0  0  0  0  0  0  0  0  0
    9.7245  -17.3574   24.9399 N   0  0  0  0  0  0  0  0  0  0  0  0
   10.9827  -18.4753   26.5850 C   0  0  0  0  0  0  0  0  0  0  0  0
   11.8149  -18.5854   27.5198 O   0  0  0  0  0  0  0  0  0  0  0  0
   10.4103  -19.6230   26.1213 O   0  0  0  0  0  0  0  0  0  0  0  0
  2  3  1  0
  2  1  1  0
  3  5  1  0
  3  4  1  6
  5  6  2  0
  7  8  1  0
  7  5  1  0
  8 19  1  0
  8  9  1  1
 10  9  1  0
 10 18  1  0
 11 12  1  0
 11 10  2  0
 12 13  1  0
 13 18  2  0
 13 14  1  0
 14 15  2  0
 15 16  1  0
 17 16  2  0
 18 17  1  0
 19 20  2  0
 22 23  1  0
 22 21  1  0
 23 24  1  0
 25 24  1  1
 25 27  1  0
 26 25  1  0
 26 19  1  0
 27 28  2  0
 27 29  1  0
M  END
$$$$
