SWM.pdb
     RDKit          3D

 29 30  0  0  1  0  0  0  0  0999 V2000
    9.2801  -17.5249   19.2548 O   0  0  0  0  0  0  0  0  0  0  0  0
    8.8404  -16.2636   18.8076 C   0  0  0  0  0  0  0  0  0  0  0  0
    7.8674  -15.7549   19.8528 C   0  0  2  0  0  0  0  0  0  0  0  0
    7.1506  -14.6071   19.3880 N   0  0  0  0  0  0  0  0  0  0  0  0
    8.5211  -15.4486   21.1284 C   0  0  0  0  0  0  0  0  0  0  0  0
    9.1603  -14.3792   21.3083 O   0  0  0  0  0  0  0  0  0  0  0  0
    8.4513  -16.3512   22.1994 N   0  0  0  0  0  0  0  0  0  0  0  0
    9.0564  -16.1415   23.5094 C   0  0  1  0  0  0  0  0  0  0  0  0
    8.1447  -16.5156   24.6087 C   0  0  0  0  0  0  0  0  0  0  0  0
    7.2059  -15.4849   25.0984 C   0  0  0  0  0  0  0  0  0  0  0  0
    5.9070  -15.7120   25.5750 C   0  0  0  0  0  0  0  0  0  0  0  0
    5.3320  -14.5570   25.9015 N   0  0  0  0  0  0  0  0  0  0  0  0
    6.2007  -13.5650   25.6612 C   0  0  0  0  0  0  0  0  0  0  0  0
    6.0973  -12.1859   25.8458 C   0  0  0  0  0  0  0  0  0  0  0  0
    7.1594  -11.3535   25.5357 C   0  0  0  0  0  0  0  0  0  0  0  0
    8.3293  -11.9212   25.0370 C   0  0  0  0  0  0  0  0  0  0  0  0
    8.4292  -13.2819   24.8547 C   0  0  0  0  0  0  0  0  0  0  0  0
    7.3614  -14.1031   25.1674 C   0  0  0  0  0  0  0  0  0  0  0  0
   10.3835  -16.7556   23.5054 C   0  0  0  0  0  0  0  0  0  0  0  0
   10.5033  -17.9695   23.2209 O   0  0  0  0  0  0  0  0  0  0  0  0
   10.5549  -13.0890   28.4969 C   0  0  0  0  0  0  0  0  0  0  0  0
   11.0946  -14.7306   28.8430 S   0  0  0  0  0  0  0  0  0  0  0  0
   11.9080  -15.6452   27.5533 C   0  0  0  0  0  0  0  0  0  0  0  0
   11.3228  -15.5045   26.1845 C   0  0  0  0  0  0  0  0  0  0  0  0
   12.1635  -16.1333   25.1382 C   0  0  2  0  0  0  0  0  0  0  0  0
   11.5355  -16.0107   23.8154 N   0  0  0  0  0  0  0  0  0  0  0  0
   12.4670  -17.5538   25.3288 C   0  0  0  0  0  0  0  0  0  0  0  0
   13.5753  -17.8930   25.8138 O   0  0  0  0  0  0  0  0  0  0  0  0
   11.5972  -18.5523   25.0028 O   0  0  0  0  0  0  0  0  0  0  0  0
  2  3  1  0
  2  1  1  0
  3  5  1  0
  3  4  1  6
  5  6  2  0
  7  8  1  0
  7  5  1  0
  8 19  1  0
  8  9  1  1
 10  9  1  0
 10 18  1  0
 11 12  1  0
 11 10  2  0
 12 13  1  0
 13 18  2  0
 13 14  1  0
 14 15  2  0
 15 16  1  0
 17 16  2  0
 18 17  1  0
 19 20  2  0
 22 23  1  0
 22 21  1  0
 23 24  1  0
 25 24  1  1
 25 27  1  0
 26 25  1  0
 26 19  1  0
 27 28  2  0
 27 29  1  0
M  END
$$$$
