SWM.pdb
     RDKit          3D

 29 30  0  0  1  0  0  0  0  0999 V2000
   12.0503  -18.5978   19.9642 O   0  0  0  0  0  0  0  0  0  0  0  0
   10.6703  -18.7949   19.7613 C   0  0  0  0  0  0  0  0  0  0  0  0
   10.0567  -17.4153   19.6271 C   0  0  2  0  0  0  0  0  0  0  0  0
   10.7734  -16.6115   18.6850 N   0  0  0  0  0  0  0  0  0  0  0  0
    9.9652  -16.7128   20.9103 C   0  0  0  0  0  0  0  0  0  0  0  0
   10.6936  -15.7220   21.1795 O   0  0  0  0  0  0  0  0  0  0  0  0
    9.0504  -17.1307   21.8875 N   0  0  0  0  0  0  0  0  0  0  0  0
    8.8533  -16.4827   23.1789 C   0  0  1  0  0  0  0  0  0  0  0  0
    7.5144  -16.7548   23.7383 C   0  0  0  0  0  0  0  0  0  0  0  0
    6.9128  -15.7199   24.6046 C   0  0  0  0  0  0  0  0  0  0  0  0
    5.7907  -15.8849   25.4291 C   0  0  0  0  0  0  0  0  0  0  0  0
    5.5032  -14.7397   26.0432 N   0  0  0  0  0  0  0  0  0  0  0  0
    6.3938  -13.8145   25.6596 C   0  0  0  0  0  0  0  0  0  0  0  0
    6.5424  -12.4748   26.0197 C   0  0  0  0  0  0  0  0  0  0  0  0
    7.5735  -11.7155   25.4928 C   0  0  0  0  0  0  0  0  0  0  0  0
    8.4559  -12.3163   24.5985 C   0  0  0  0  0  0  0  0  0  0  0  0
    8.3072  -13.6380   24.2438 C   0  0  0  0  0  0  0  0  0  0  0  0
    7.2731  -14.3861   24.7761 C   0  0  0  0  0  0  0  0  0  0  0  0
   10.0051  -16.7889   24.0263 C   0  0  0  0  0  0  0  0  0  0  0  0
   10.8174  -17.6738   23.6712 O   0  0  0  0  0  0  0  0  0  0  0  0
   10.0618  -14.4077   30.0800 C   0  0  0  0  0  0  0  0  0  0  0  0
    9.9754  -13.5768   28.5283 S   0  0  0  0  0  0  0  0  0  0  0  0
   10.8636  -14.2623   27.1490 C   0  0  0  0  0  0  0  0  0  0  0  0
   11.3769  -15.6550   27.3302 C   0  0  0  0  0  0  0  0  0  0  0  0
   11.3980  -16.4236   26.0630 C   0  0  2  0  0  0  0  0  0  0  0  0
   10.2233  -16.1093   25.2381 N   0  0  0  0  0  0  0  0  0  0  0  0
   11.4373  -17.8818   26.1992 C   0  0  0  0  0  0  0  0  0  0  0  0
   12.5315  -18.4878   26.0811 O   0  0  0  0  0  0  0  0  0  0  0  0
   10.3303  -18.6370   26.4521 O   0  0  0  0  0  0  0  0  0  0  0  0
  2  3  1  0
  2  1  1  0
  3  5  1  0
  3  4  1  6
  5  6  2  0
  7  8  1  0
  7  5  1  0
  8 19  1  0
  8  9  1  1
 10  9  1  0
 10 18  1  0
 11 12  1  0
 11 10  2  0
 12 13  1  0
 13 18  2  0
 13 14  1  0
 14 15  2  0
 15 16  1  0
 17 16  2  0
 18 17  1  0
 19 20  2  0
 22 23  1  0
 22 21  1  0
 23 24  1  0
 25 24  1  1
 25 27  1  0
 26 25  1  0
 26 19  1  0
 27 28  2  0
 27 29  1  0
M  END
$$$$
