SWM.pdb
     RDKit          3D

 29 30  0  0  1  0  0  0  0  0999 V2000
   11.8982  -18.9371   18.9036 O   0  0  0  0  0  0  0  0  0  0  0  0
   11.9324  -17.6131   19.3835 C   0  0  0  0  0  0  0  0  0  0  0  0
   10.5082  -17.0981   19.3187 C   0  0  2  0  0  0  0  0  0  0  0  0
   10.2953  -16.2882   18.1585 N   0  0  0  0  0  0  0  0  0  0  0  0
   10.1239  -16.3532   20.5210 C   0  0  0  0  0  0  0  0  0  0  0  0
   10.5187  -15.1760   20.7287 O   0  0  0  0  0  0  0  0  0  0  0  0
    9.2935  -16.9393   21.4871 N   0  0  0  0  0  0  0  0  0  0  0  0
    8.8553  -16.2901   22.7171 C   0  0  1  0  0  0  0  0  0  0  0  0
    7.5119  -16.7386   23.1338 C   0  0  0  0  0  0  0  0  0  0  0  0
    6.7948  -15.9148   24.1291 C   0  0  0  0  0  0  0  0  0  0  0  0
    5.5536  -16.2152   24.7079 C   0  0  0  0  0  0  0  0  0  0  0  0
    5.1883  -15.2401   25.5366 N   0  0  0  0  0  0  0  0  0  0  0  0
    6.1417  -14.2980   25.5336 C   0  0  0  0  0  0  0  0  0  0  0  0
    6.2502  -13.0958   26.2332 C   0  0  0  0  0  0  0  0  0  0  0  0
    7.3627  -12.2872   26.0730 C   0  0  0  0  0  0  0  0  0  0  0  0
    8.3676  -12.6988   25.2012 C   0  0  0  0  0  0  0  0  0  0  0  0
    8.2585  -13.8848   24.5111 C   0  0  0  0  0  0  0  0  0  0  0  0
    7.1423  -14.6837   24.6787 C   0  0  0  0  0  0  0  0  0  0  0  0
    9.9306  -16.4001   23.7021 C   0  0  0  0  0  0  0  0  0  0  0  0
   10.9637  -17.0501   23.4211 O   0  0  0  0  0  0  0  0  0  0  0  0
   10.1005  -13.2703   29.8065 C   0  0  0  0  0  0  0  0  0  0  0  0
   11.4015  -14.4575   29.7451 S   0  0  0  0  0  0  0  0  0  0  0  0
   11.6825  -15.3292   28.2211 C   0  0  0  0  0  0  0  0  0  0  0  0
   10.6613  -15.1168   27.1497 C   0  0  0  0  0  0  0  0  0  0  0  0
   10.8940  -15.9738   25.9631 C   0  0  2  0  0  0  0  0  0  0  0  0
    9.8312  -15.7895   24.9652 N   0  0  0  0  0  0  0  0  0  0  0  0
   10.9831  -17.4133   26.2205 C   0  0  0  0  0  0  0  0  0  0  0  0
    9.9312  -18.0926   26.3234 O   0  0  0  0  0  0  0  0  0  0  0  0
   12.1681  -18.0741   26.3584 O   0  0  0  0  0  0  0  0  0  0  0  0
  2  3  1  0
  2  1  1  0
  3  5  1  0
  3  4  1  6
  5  6  2  0
  7  8  1  0
  7  5  1  0
  8 19  1  0
  8  9  1  1
 10  9  1  0
 10 18  1  0
 11 12  1  0
 11 10  2  0
 12 13  1  0
 13 18  2  0
 13 14  1  0
 14 15  2  0
 15 16  1  0
 17 16  2  0
 18 17  1  0
 19 20  2  0
 22 23  1  0
 22 21  1  0
 23 24  1  0
 25 24  1  1
 25 27  1  0
 26 25  1  0
 26 19  1  0
 27 28  2  0
 27 29  1  0
M  END
$$$$
