SWM.pdb
     RDKit          3D

 29 30  0  0  1  0  0  0  0  0999 V2000
    9.6920  -19.5090   22.1983 O   0  0  0  0  0  0  0  0  0  0  0  0
    8.2840  -19.5233   22.2369 C   0  0  0  0  0  0  0  0  0  0  0  0
    7.8307  -18.1410   21.8107 C   0  0  2  0  0  0  0  0  0  0  0  0
    7.7267  -18.0384   20.3873 N   0  0  0  0  0  0  0  0  0  0  0  0
    8.7032  -17.0801   22.3220 C   0  0  0  0  0  0  0  0  0  0  0  0
    9.5045  -16.4600   21.5748 O   0  0  0  0  0  0  0  0  0  0  0  0
    8.6691  -16.7210   23.6771 N   0  0  0  0  0  0  0  0  0  0  0  0
    9.4855  -15.6771   24.2856 C   0  0  1  0  0  0  0  0  0  0  0  0
    8.9817  -15.2828   25.6161 C   0  0  0  0  0  0  0  0  0  0  0  0
    7.6281  -14.6943   25.6873 C   0  0  0  0  0  0  0  0  0  0  0  0
    6.4214  -15.4059   25.7434 C   0  0  0  0  0  0  0  0  0  0  0  0
    5.3936  -14.5606   25.7654 N   0  0  0  0  0  0  0  0  0  0  0  0
    5.8700  -13.3084   25.7269 C   0  0  0  0  0  0  0  0  0  0  0  0
    5.2187  -12.0747   25.7453 C   0  0  0  0  0  0  0  0  0  0  0  0
    5.9447  -10.8960   25.7169 C   0  0  0  0  0  0  0  0  0  0  0  0
    7.3346  -10.9688   25.6696 C   0  0  0  0  0  0  0  0  0  0  0  0
    7.9755  -12.1869   25.6507 C   0  0  0  0  0  0  0  0  0  0  0  0
    7.2396  -13.3573   25.6788 C   0  0  0  0  0  0  0  0  0  0  0  0
   10.8880  -16.0811   24.1963 C   0  0  0  0  0  0  0  0  0  0  0  0
   11.7317  -15.2880   23.7185 O   0  0  0  0  0  0  0  0  0  0  0  0
   10.5539  -13.9593   29.4475 C   0  0  0  0  0  0  0  0  0  0  0  0
   11.0526  -15.5902   29.0034 S   0  0  0  0  0  0  0  0  0  0  0  0
   11.5996  -15.8855   27.3376 C   0  0  0  0  0  0  0  0  0  0  0  0
   11.9087  -17.3076   26.9944 C   0  0  0  0  0  0  0  0  0  0  0  0
   12.4105  -17.4630   25.6084 C   0  0  2  0  0  0  0  0  0  0  0  0
   11.3145  -17.3469   24.6366 N   0  0  0  0  0  0  0  0  0  0  0  0
   13.1006  -18.7215   25.3146 C   0  0  0  0  0  0  0  0  0  0  0  0
   12.4301  -19.7569   25.0760 O   0  0  0  0  0  0  0  0  0  0  0  0
   14.4590  -18.8376   25.2846 O   0  0  0  0  0  0  0  0  0  0  0  0
  2  3  1  0
  2  1  1  0
  3  5  1  0
  3  4  1  6
  5  6  2  0
  7  8  1  0
  7  5  1  0
  8 19  1  0
  8  9  1  1
 10  9  1  0
 10 18  1  0
 11 12  1  0
 11 10  2  0
 12 13  1  0
 13 18  2  0
 13 14  1  0
 14 15  2  0
 15 16  1  0
 17 16  2  0
 18 17  1  0
 19 20  2  0
 22 23  1  0
 22 21  1  0
 23 24  1  0
 25 24  1  1
 25 27  1  0
 26 25  1  0
 26 19  1  0
 27 28  2  0
 27 29  1  0
M  END
$$$$
