SWM.pdb
     RDKit          3D

 29 30  0  0  1  0  0  0  0  0999 V2000
   12.9804  -18.1832   20.5927 O   0  0  0  0  0  0  0  0  0  0  0  0
   11.7731  -18.5785   19.9841 C   0  0  0  0  0  0  0  0  0  0  0  0
   11.0908  -17.3062   19.5219 C   0  0  2  0  0  0  0  0  0  0  0  0
   11.9437  -16.5320   18.6730 N   0  0  0  0  0  0  0  0  0  0  0  0
   10.6218  -16.4813   20.6390 C   0  0  0  0  0  0  0  0  0  0  0  0
   11.1747  -15.3908   20.9386 O   0  0  0  0  0  0  0  0  0  0  0  0
    9.5282  -16.8898   21.4161 N   0  0  0  0  0  0  0  0  0  0  0  0
    8.9840  -16.1483   22.5476 C   0  0  1  0  0  0  0  0  0  0  0  0
    7.5553  -16.4457   22.7712 C   0  0  0  0  0  0  0  0  0  0  0  0
    6.8675  -15.7167   23.8569 C   0  0  0  0  0  0  0  0  0  0  0  0
    5.9674  -16.2685   24.7796 C   0  0  0  0  0  0  0  0  0  0  0  0
    5.5124  -15.3211   25.5961 N   0  0  0  0  0  0  0  0  0  0  0  0
    6.0770  -14.1549   25.2530 C   0  0  0  0  0  0  0  0  0  0  0  0
    5.9509  -12.8760   25.7962 C   0  0  0  0  0  0  0  0  0  0  0  0
    6.6671  -11.8146   25.2693 C   0  0  0  0  0  0  0  0  0  0  0  0
    7.5133  -12.0508   24.1888 C   0  0  0  0  0  0  0  0  0  0  0  0
    7.6359  -13.3131   23.6536 C   0  0  0  0  0  0  0  0  0  0  0  0
    6.9149  -14.3652   24.1879 C   0  0  0  0  0  0  0  0  0  0  0  0
    9.8869  -16.3193   23.6851 C   0  0  0  0  0  0  0  0  0  0  0  0
   10.7610  -17.2159   23.6527 O   0  0  0  0  0  0  0  0  0  0  0  0
   12.1214  -13.5768   30.7137 C   0  0  0  0  0  0  0  0  0  0  0  0
   10.7338  -14.0591   29.7402 S   0  0  0  0  0  0  0  0  0  0  0  0
   10.9971  -15.1803   28.3856 C   0  0  0  0  0  0  0  0  0  0  0  0
   10.2514  -14.8702   27.1271 C   0  0  0  0  0  0  0  0  0  0  0  0
   10.5832  -15.8029   26.0240 C   0  0  2  0  0  0  0  0  0  0  0  0
    9.7962  -15.4959   24.8217 N   0  0  0  0  0  0  0  0  0  0  0  0
   10.3808  -17.2262   26.3062 C   0  0  0  0  0  0  0  0  0  0  0  0
    9.2367  -17.7289   26.1766 O   0  0  0  0  0  0  0  0  0  0  0  0
   11.3844  -18.0561   26.7108 O   0  0  0  0  0  0  0  0  0  0  0  0
  2  3  1  0
  2  1  1  0
  3  5  1  0
  3  4  1  1
  5  6  2  0
  7  8  1  0
  7  5  1  0
  8 19  1  0
  8  9  1  1
 10  9  1  0
 10 18  1  0
 11 12  1  0
 11 10  2  0
 12 13  1  0
 13 18  2  0
 13 14  1  0
 14 15  2  0
 15 16  1  0
 17 16  2  0
 18 17  1  0
 19 20  2  0
 22 23  1  0
 22 21  1  0
 23 24  1  0
 25 24  1  1
 25 27  1  0
 26 25  1  0
 26 19  1  0
 27 28  2  0
 27 29  1  0
M  END
$$$$
