SWM.pdb
     RDKit          3D

 29 30  0  0  1  0  0  0  0  0999 V2000
   13.3999  -18.2748   20.6989 O   0  0  0  0  0  0  0  0  0  0  0  0
   12.1524  -18.8724   20.4328 C   0  0  0  0  0  0  0  0  0  0  0  0
   11.1921  -17.7395   20.1289 C   0  0  2  0  0  0  0  0  0  0  0  0
   11.7116  -16.8674   19.1205 N   0  0  0  0  0  0  0  0  0  0  0  0
   10.8405  -16.9643   21.3221 C   0  0  0  0  0  0  0  0  0  0  0  0
   11.4225  -15.8858   21.6099 O   0  0  0  0  0  0  0  0  0  0  0  0
    9.8315  -17.4087   22.1885 N   0  0  0  0  0  0  0  0  0  0  0  0
    9.4358  -16.7404   23.4227 C   0  0  1  0  0  0  0  0  0  0  0  0
    7.9725  -16.5680   23.5165 C   0  0  0  0  0  0  0  0  0  0  0  0
    7.4458  -15.1875   23.5164 C   0  0  0  0  0  0  0  0  0  0  0  0
    7.2719  -14.3712   22.3898 C   0  0  0  0  0  0  0  0  0  0  0  0
    6.8090  -13.1787   22.7571 N   0  0  0  0  0  0  0  0  0  0  0  0
    6.6662  -13.1684   24.0897 C   0  0  0  0  0  0  0  0  0  0  0  0
    6.2056  -12.1787   24.9586 C   0  0  0  0  0  0  0  0  0  0  0  0
    6.1299  -12.4183   26.3202 C   0  0  0  0  0  0  0  0  0  0  0  0
    6.5223  -13.6646   26.8018 C   0  0  0  0  0  0  0  0  0  0  0  0
    6.9772  -14.6396   25.9432 C   0  0  0  0  0  0  0  0  0  0  0  0
    7.0490  -14.3884   24.5853 C   0  0  0  0  0  0  0  0  0  0  0  0
   10.1017  -17.4084   24.5400 C   0  0  0  0  0  0  0  0  0  0  0  0
   10.4127  -18.6179   24.4421 O   0  0  0  0  0  0  0  0  0  0  0  0
   10.8873  -12.6542   29.4763 C   0  0  0  0  0  0  0  0  0  0  0  0
   10.5351  -14.3405   29.1045 S   0  0  0  0  0  0  0  0  0  0  0  0
   11.1261  -15.0109   27.5674 C   0  0  0  0  0  0  0  0  0  0  0  0
   11.8317  -16.3262   27.6572 C   0  0  0  0  0  0  0  0  0  0  0  0
   11.2511  -17.3470   26.7530 C   0  0  2  0  0  0  0  0  0  0  0  0
   10.4030  -16.7208   25.7294 N   0  0  0  0  0  0  0  0  0  0  0  0
   10.4385  -18.3832   27.3950 C   0  0  0  0  0  0  0  0  0  0  0  0
   10.9446  -19.1031   28.2917 O   0  0  0  0  0  0  0  0  0  0  0  0
    9.1353  -18.6176   27.0686 O   0  0  0  0  0  0  0  0  0  0  0  0
  2  3  1  0
  2  1  1  0
  3  5  1  0
  3  4  1  6
  5  6  2  0
  7  8  1  0
  7  5  1  0
  8 19  1  0
  8  9  1  1
 10  9  1  0
 10 18  1  0
 11 12  1  0
 11 10  2  0
 12 13  1  0
 13 18  2  0
 13 14  1  0
 14 15  2  0
 15 16  1  0
 17 16  2  0
 18 17  1  0
 19 20  2  0
 22 23  1  0
 22 21  1  0
 23 24  1  0
 25 24  1  1
 25 27  1  0
 26 25  1  0
 26 19  1  0
 27 28  2  0
 27 29  1  0
M  END
$$$$
