SWM.pdb
     RDKit          3D

 29 30  0  0  1  0  0  0  0  0999 V2000
    9.1445  -17.3458   19.6913 O   0  0  0  0  0  0  0  0  0  0  0  0
    7.7808  -17.2110   20.0177 C   0  0  0  0  0  0  0  0  0  0  0  0
    7.6420  -15.8816   20.7328 C   0  0  2  0  0  0  0  0  0  0  0  0
    7.8572  -14.7820   19.8429 N   0  0  0  0  0  0  0  0  0  0  0  0
    8.5372  -15.7677   21.8877 C   0  0  0  0  0  0  0  0  0  0  0  0
    9.5845  -15.0701   21.8513 O   0  0  0  0  0  0  0  0  0  0  0  0
    8.2476  -16.4419   23.0827 N   0  0  0  0  0  0  0  0  0  0  0  0
    9.0979  -16.4451   24.2673 C   0  0  1  0  0  0  0  0  0  0  0  0
    8.3105  -16.4527   25.5162 C   0  0  0  0  0  0  0  0  0  0  0  0
    7.3438  -15.3541   25.7210 C   0  0  0  0  0  0  0  0  0  0  0  0
    5.9467  -15.4695   25.6951 C   0  0  0  0  0  0  0  0  0  0  0  0
    5.3866  -14.2770   25.8839 N   0  0  0  0  0  0  0  0  0  0  0  0
    6.3595  -13.3679   26.0361 C   0  0  0  0  0  0  0  0  0  0  0  0
    6.3068  -11.9941   26.2738 C   0  0  0  0  0  0  0  0  0  0  0  0
    7.4721  -11.2601   26.4167 C   0  0  0  0  0  0  0  0  0  0  0  0
    8.6940  -11.9211   26.3184 C   0  0  0  0  0  0  0  0  0  0  0  0
    8.7441  -13.2764   26.0831 C   0  0  0  0  0  0  0  0  0  0  0  0
    7.5735  -13.9987   25.9414 C   0  0  0  0  0  0  0  0  0  0  0  0
   10.1042  -17.4939   24.1069 C   0  0  0  0  0  0  0  0  0  0  0  0
   10.1221  -18.1800   23.0591 O   0  0  0  0  0  0  0  0  0  0  0  0
   14.2930  -15.6195   20.8573 C   0  0  0  0  0  0  0  0  0  0  0  0
   15.0757  -15.8021   22.4257 S   0  0  0  0  0  0  0  0  0  0  0  0
   14.4186  -16.9966   23.5672 C   0  0  0  0  0  0  0  0  0  0  0  0
   12.9617  -16.8692   23.8786 C   0  0  0  0  0  0  0  0  0  0  0  0
   12.4682  -17.9610   24.7512 C   0  0  2  0  0  0  0  0  0  0  0  0
   11.0581  -17.7521   25.1077 N   0  0  0  0  0  0  0  0  0  0  0  0
   13.1949  -18.1538   26.0086 C   0  0  0  0  0  0  0  0  0  0  0  0
   13.9960  -19.1150   26.1224 O   0  0  0  0  0  0  0  0  0  0  0  0
   13.0491  -17.3325   27.0875 O   0  0  0  0  0  0  0  0  0  0  0  0
  2  3  1  0
  2  1  1  0
  3  5  1  0
  3  4  1  6
  5  6  2  0
  7  8  1  0
  7  5  1  0
  8 19  1  0
  8  9  1  1
 10  9  1  0
 10 18  1  0
 11 12  1  0
 11 10  2  0
 12 13  1  0
 13 18  2  0
 13 14  1  0
 14 15  2  0
 15 16  1  0
 17 16  2  0
 18 17  1  0
 19 20  2  0
 22 23  1  0
 22 21  1  0
 23 24  1  0
 25 24  1  1
 25 27  1  0
 26 25  1  0
 26 19  1  0
 27 28  2  0
 27 29  1  0
M  END
$$$$
