QQN.pdb
     RDKit          3D

 27 26  0  0  1  0  0  0  0  0999 V2000
   26.8954  -10.0928  -14.9451 N   0  0  0  0  0  0  0  0  0  0  0  0
   27.5574  -11.2136  -15.5539 C   0  0  0  0  0  0  0  0  0  0  0  0
   28.5723  -11.6358  -14.9885 O   0  0  0  0  0  0  0  0  0  0  0  0
   27.0169  -11.7940  -16.7943 C   0  0  0  0  0  0  0  0  0  0  0  0
   25.7621  -11.1557  -17.2804 C   0  0  0  0  0  0  0  0  0  0  0  0
   24.5343  -11.7748  -16.6910 C   0  0  2  0  0  0  0  0  0  0  0  0
   24.2931  -13.1264  -17.0766 N   0  0  0  0  0  0  0  0  0  0  0  0
   23.3378  -10.9535  -17.0929 C   0  0  0  0  0  0  0  0  0  0  0  0
   23.1390  -10.7072  -18.3025 O   0  0  0  0  0  0  0  0  0  0  0  0
   17.8549  -11.0632  -14.2921 N   0  0  0  0  0  0  0  0  0  0  0  0
   18.1585  -11.6990  -15.5229 C   0  0  0  0  0  0  0  0  0  0  0  0
   17.4450  -12.6419  -15.9145 O   0  0  0  0  0  0  0  0  0  0  0  0
   19.3125  -11.2721  -16.3694 C   0  0  0  0  0  0  0  0  0  0  0  0
   20.0728  -10.1697  -15.6899 C   0  0  0  0  0  0  0  0  0  0  0  0
   21.2509   -9.6910  -16.5000 C   0  0  2  0  0  0  0  0  0  0  0  0
   22.4370  -10.4587  -16.1100 N   0  0  0  0  0  0  0  0  0  0  0  0
   21.4989   -8.2472  -16.4182 C   0  0  0  0  0  0  0  0  0  0  0  0
   22.4554   -7.7099  -15.8207 O   0  0  0  0  0  0  0  0  0  0  0  0
   20.6424   -3.0405  -17.3403 N   0  0  0  0  0  0  0  0  0  0  0  0
   21.4673   -3.8396  -18.1788 C   0  0  0  0  0  0  0  0  0  0  0  0
   22.1245   -3.1989  -19.0575 O   0  0  0  0  0  0  0  0  0  0  0  0
   21.5898   -5.3152  -18.0796 C   0  0  0  0  0  0  0  0  0  0  0  0
   20.7580   -5.9141  -17.0057 C   0  0  2  0  0  0  0  0  0  0  0  0
   20.6068   -7.3282  -17.0552 N   0  0  0  0  0  0  0  0  0  0  0  0
   19.4629   -5.1931  -16.9033 C   0  0  0  0  0  0  0  0  0  0  0  0
   18.3750   -5.7756  -17.1336 O   0  0  0  0  0  0  0  0  0  0  0  0
   19.4290   -3.8572  -16.5500 O   0  0  0  0  0  0  0  0  0  0  0  0
  2  1  1  0
  2  4  1  0
  3  2  2  0
  5  6  1  0
  5  4  1  0
  6  8  1  0
  6  7  1  6
  8  9  2  0
  8 16  1  0
 10 11  1  0
 11 12  2  0
 13 14  1  0
 13 11  1  0
 15 14  1  1
 15 17  1  0
 16 15  1  0
 17 18  2  0
 20 19  1  0
 21 20  2  0
 22 20  1  0
 23 22  1  6
 24 23  1  0
 24 17  1  0
 25 27  1  0
 25 23  1  0
 26 25  2  0
M  END
$$$$
