QQN.pdb
     RDKit          3D

 27 26  0  0  1  0  0  0  0  0999 V2000
   25.5444  -24.6282  -15.3124 N   0  0  0  0  0  0  0  0  0  0  0  0
   26.5083  -24.1090  -16.2432 C   0  0  0  0  0  0  0  0  0  0  0  0
   27.4332  -24.8626  -16.5661 O   0  0  0  0  0  0  0  0  0  0  0  0
   26.3608  -22.7369  -16.7562 C   0  0  0  0  0  0  0  0  0  0  0  0
   25.0692  -22.0818  -16.4082 C   0  0  0  0  0  0  0  0  0  0  0  0
   25.1290  -21.3432  -15.1085 C   0  0  2  0  0  0  0  0  0  0  0  0
   26.3489  -21.4894  -14.3848 N   0  0  0  0  0  0  0  0  0  0  0  0
   24.0036  -21.8202  -14.2289 C   0  0  0  0  0  0  0  0  0  0  0  0
   24.0356  -22.9805  -13.7642 O   0  0  0  0  0  0  0  0  0  0  0  0
   20.8326  -18.4761  -10.0905 N   0  0  0  0  0  0  0  0  0  0  0  0
   20.4261  -18.2507  -11.4303 C   0  0  0  0  0  0  0  0  0  0  0  0
   19.7327  -17.2509  -11.6972 O   0  0  0  0  0  0  0  0  0  0  0  0
   20.8047  -19.1784  -12.5378 C   0  0  0  0  0  0  0  0  0  0  0  0
   21.5926  -20.3363  -11.9962 C   0  0  0  0  0  0  0  0  0  0  0  0
   21.8378  -21.4067  -13.0295 C   0  0  2  0  0  0  0  0  0  0  0  0
   22.9101  -20.9634  -13.9251 N   0  0  0  0  0  0  0  0  0  0  0  0
   20.6450  -21.8091  -13.7831 C   0  0  0  0  0  0  0  0  0  0  0  0
   20.2888  -21.3338  -14.8821 O   0  0  0  0  0  0  0  0  0  0  0  0
   15.7624  -25.8137  -13.5711 N   0  0  0  0  0  0  0  0  0  0  0  0
   16.5802  -24.7091  -13.9359 C   0  0  0  0  0  0  0  0  0  0  0  0
   16.2067  -24.0819  -14.9760 O   0  0  0  0  0  0  0  0  0  0  0  0
   17.7904  -24.2763  -13.1940 C   0  0  0  0  0  0  0  0  0  0  0  0
   18.5167  -23.1525  -13.8372 C   0  0  2  0  0  0  0  0  0  0  0  0
   19.7793  -22.8249  -13.2684 N   0  0  0  0  0  0  0  0  0  0  0  0
   17.6174  -21.9778  -13.9748 C   0  0  0  0  0  0  0  0  0  0  0  0
   17.4094  -21.2022  -13.0098 O   0  0  0  0  0  0  0  0  0  0  0  0
   16.9871  -21.7130  -15.1761 O   0  0  0  0  0  0  0  0  0  0  0  0
  2  1  1  0
  2  4  1  0
  3  2  2  0
  5  6  1  0
  5  4  1  0
  6  8  1  0
  6  7  1  1
  8  9  2  0
  8 16  1  0
 10 11  1  0
 11 12  2  0
 13 14  1  0
 13 11  1  0
 15 14  1  1
 15 17  1  0
 16 15  1  0
 17 18  2  0
 20 19  1  0
 21 20  2  0
 22 20  1  0
 23 22  1  1
 24 23  1  0
 24 17  1  0
 25 27  1  0
 25 23  1  0
 26 25  2  0
M  END
$$$$
