QQN.pdb
     RDKit          3D

 27 26  0  0  1  0  0  0  0  0999 V2000
   27.6231  -20.1399  -18.5307 N   0  0  0  0  0  0  0  0  0  0  0  0
   27.8714  -21.3343  -19.2902 C   0  0  0  0  0  0  0  0  0  0  0  0
   28.8117  -21.2997  -20.0918 O   0  0  0  0  0  0  0  0  0  0  0  0
   27.0163  -22.5161  -19.0908 C   0  0  0  0  0  0  0  0  0  0  0  0
   25.9765  -22.3565  -18.0364 C   0  0  0  0  0  0  0  0  0  0  0  0
   26.5047  -22.6182  -16.6613 C   0  0  2  0  0  0  0  0  0  0  0  0
   27.0975  -23.9017  -16.4746 N   0  0  0  0  0  0  0  0  0  0  0  0
   25.3760  -22.4767  -15.6746 C   0  0  0  0  0  0  0  0  0  0  0  0
   24.2414  -22.9100  -15.9715 O   0  0  0  0  0  0  0  0  0  0  0  0
   25.9389  -21.0497   -9.5229 N   0  0  0  0  0  0  0  0  0  0  0  0
   24.5372  -21.0108   -9.7348 C   0  0  0  0  0  0  0  0  0  0  0  0
   23.7763  -20.8742   -8.7581 O   0  0  0  0  0  0  0  0  0  0  0  0
   23.9405  -21.1290  -11.0988 C   0  0  0  0  0  0  0  0  0  0  0  0
   25.0208  -21.3454  -12.1191 C   0  0  0  0  0  0  0  0  0  0  0  0
   24.4729  -21.6106  -13.4986 C   0  0  2  0  0  0  0  0  0  0  0  0
   25.5915  -21.8563  -14.4132 N   0  0  0  0  0  0  0  0  0  0  0  0
   23.5841  -20.5621  -14.0119 C   0  0  0  0  0  0  0  0  0  0  0  0
   23.9543  -19.4646  -14.4798 O   0  0  0  0  0  0  0  0  0  0  0  0
   20.5555  -17.2781  -16.9326 N   0  0  0  0  0  0  0  0  0  0  0  0
   20.2500  -18.5652  -16.4109 C   0  0  0  0  0  0  0  0  0  0  0  0
   19.0117  -18.8447  -16.3558 O   0  0  0  0  0  0  0  0  0  0  0  0
   21.2614  -19.5487  -15.9504 C   0  0  0  0  0  0  0  0  0  0  0  0
   21.2338  -19.7948  -14.4867 C   0  0  2  0  0  0  0  0  0  0  0  0
   22.1666  -20.7543  -14.0023 N   0  0  0  0  0  0  0  0  0  0  0  0
   19.8414  -20.0598  -14.0413 C   0  0  0  0  0  0  0  0  0  0  0  0
   19.4137  -21.2327  -13.9086 O   0  0  0  0  0  0  0  0  0  0  0  0
   18.9824  -19.0135  -13.7622 O   0  0  0  0  0  0  0  0  0  0  0  0
  2  1  1  0
  2  4  1  0
  3  2  2  0
  5  6  1  0
  5  4  1  0
  6  8  1  0
  6  7  1  6
  8  9  2  0
  8 16  1  0
 10 11  1  0
 11 12  2  0
 13 14  1  0
 13 11  1  0
 15 14  1  1
 15 17  1  0
 16 15  1  0
 17 18  2  0
 20 19  1  0
 21 20  2  0
 22 20  1  0
 23 22  1  6
 24 23  1  0
 24 17  1  0
 25 27  1  0
 25 23  1  0
 26 25  2  0
M  END
$$$$
