QQN.pdb
     RDKit          3D

 27 26  0  0  1  0  0  0  0  0999 V2000
   15.6161  -11.9771  -14.7299 N   0  0  0  0  0  0  0  0  0  0  0  0
   15.3182  -12.9106  -13.6788 C   0  0  0  0  0  0  0  0  0  0  0  0
   15.2480  -14.1032  -13.9959 O   0  0  0  0  0  0  0  0  0  0  0  0
   15.1104  -12.4209  -12.3060 C   0  0  0  0  0  0  0  0  0  0  0  0
   15.3064  -10.9542  -12.1361 C   0  0  0  0  0  0  0  0  0  0  0  0
   14.9882  -10.4865  -10.7511 C   0  0  2  0  0  0  0  0  0  0  0  0
   13.6437  -10.7089  -10.3310 N   0  0  0  0  0  0  0  0  0  0  0  0
   15.2670   -9.0093  -10.6633 C   0  0  0  0  0  0  0  0  0  0  0  0
   14.7257   -8.2317  -11.4792 O   0  0  0  0  0  0  0  0  0  0  0  0
   14.9854   -4.0073   -8.0131 N   0  0  0  0  0  0  0  0  0  0  0  0
   14.1050   -5.1132   -7.8986 C   0  0  0  0  0  0  0  0  0  0  0  0
   12.8925   -4.9094   -7.6990 O   0  0  0  0  0  0  0  0  0  0  0  0
   14.5875   -6.5223   -8.0101 C   0  0  0  0  0  0  0  0  0  0  0  0
   16.0719   -6.5446   -8.2355 C   0  0  0  0  0  0  0  0  0  0  0  0
   16.4449   -7.0639   -9.6010 C   0  0  2  0  0  0  0  0  0  0  0  0
   16.1378   -8.4957   -9.6632 N   0  0  0  0  0  0  0  0  0  0  0  0
   17.8331   -6.7981   -9.9945 C   0  0  0  0  0  0  0  0  0  0  0  0
   18.8448   -7.3077   -9.4678 O   0  0  0  0  0  0  0  0  0  0  0  0
   22.1034   -5.3437  -12.6253 N   0  0  0  0  0  0  0  0  0  0  0  0
   21.5174   -6.6354  -12.5244 C   0  0  0  0  0  0  0  0  0  0  0  0
   22.2466   -7.5918  -12.9345 O   0  0  0  0  0  0  0  0  0  0  0  0
   20.1600   -6.9045  -11.9885 C   0  0  0  0  0  0  0  0  0  0  0  0
   19.4156   -5.6798  -11.6016 C   0  0  2  0  0  0  0  0  0  0  0  0
   18.1152   -5.8896  -11.0628 N   0  0  0  0  0  0  0  0  0  0  0  0
   19.4321   -4.7001  -12.7185 C   0  0  0  0  0  0  0  0  0  0  0  0
   18.4433   -4.5666  -13.4804 O   0  0  0  0  0  0  0  0  0  0  0  0
   20.5439   -3.9102  -12.9433 O   0  0  0  0  0  0  0  0  0  0  0  0
  2  1  1  0
  2  4  1  0
  3  2  2  0
  5  6  1  0
  5  4  1  0
  6  8  1  0
  6  7  1  6
  8  9  2  0
  8 16  1  0
 10 11  1  0
 11 12  2  0
 13 14  1  0
 13 11  1  0
 15 14  1  1
 15 17  1  0
 16 15  1  0
 17 18  2  0
 20 19  1  0
 21 20  2  0
 22 20  1  0
 23 22  1  6
 24 23  1  0
 24 17  1  0
 25 27  1  0
 25 23  1  0
 26 25  2  0
M  END
$$$$
