QQN.pdb
     RDKit          3D

 27 26  0  0  1  0  0  0  0  0999 V2000
   29.2192  -27.2676  -16.1437 N   0  0  0  0  0  0  0  0  0  0  0  0
   29.2748  -27.3649  -17.5764 C   0  0  0  0  0  0  0  0  0  0  0  0
   29.3313  -28.5028  -18.0559 O   0  0  0  0  0  0  0  0  0  0  0  0
   29.2670  -26.1388  -18.3914 C   0  0  0  0  0  0  0  0  0  0  0  0
   29.1085  -24.8793  -17.6124 C   0  0  0  0  0  0  0  0  0  0  0  0
   27.6915  -24.6290  -17.2028 C   0  0  2  0  0  0  0  0  0  0  0  0
   26.7639  -24.5014  -18.2783 N   0  0  0  0  0  0  0  0  0  0  0  0
   27.6397  -23.3635  -16.3883 C   0  0  0  0  0  0  0  0  0  0  0  0
   28.5838  -23.0906  -15.6152 O   0  0  0  0  0  0  0  0  0  0  0  0
   28.1844  -19.5723  -18.5079 N   0  0  0  0  0  0  0  0  0  0  0  0
   28.2277  -18.7935  -17.3235 C   0  0  0  0  0  0  0  0  0  0  0  0
   29.1287  -17.9448  -17.1843 O   0  0  0  0  0  0  0  0  0  0  0  0
   27.2223  -18.9591  -16.2317 C   0  0  0  0  0  0  0  0  0  0  0  0
   26.2765  -20.0769  -16.5644 C   0  0  0  0  0  0  0  0  0  0  0  0
   26.4518  -21.2741  -15.6646 C   0  0  2  0  0  0  0  0  0  0  0  0
   26.5293  -22.4812  -16.4924 N   0  0  0  0  0  0  0  0  0  0  0  0
   25.4279  -21.4065  -14.6221 C   0  0  0  0  0  0  0  0  0  0  0  0
   24.2895  -21.8950  -14.7837 O   0  0  0  0  0  0  0  0  0  0  0  0
   22.8676  -21.0496  -10.0295 N   0  0  0  0  0  0  0  0  0  0  0  0
   24.2072  -20.6137   -9.8365 C   0  0  0  0  0  0  0  0  0  0  0  0
   24.4985  -20.2763   -8.6465 O   0  0  0  0  0  0  0  0  0  0  0  0
   25.2308  -20.5384  -10.9085 C   0  0  0  0  0  0  0  0  0  0  0  0
   24.7469  -21.0058  -12.2319 C   0  0  2  0  0  0  0  0  0  0  0  0
   25.6964  -20.9573  -13.2908 N   0  0  0  0  0  0  0  0  0  0  0  0
   23.4634  -20.3379  -12.5694 C   0  0  0  0  0  0  0  0  0  0  0  0
   22.3748  -20.7443  -12.0941 O   0  0  0  0  0  0  0  0  0  0  0  0
   23.4412  -19.2481  -13.4193 O   0  0  0  0  0  0  0  0  0  0  0  0
  2  1  1  0
  2  4  1  0
  3  2  2  0
  5  6  1  0
  5  4  1  0
  6  8  1  0
  6  7  1  6
  8  9  2  0
  8 16  1  0
 10 11  1  0
 11 12  2  0
 13 14  1  0
 13 11  1  0
 15 14  1  6
 15 17  1  0
 16 15  1  0
 17 18  2  0
 20 19  1  0
 21 20  2  0
 22 20  1  0
 23 22  1  1
 24 23  1  0
 24 17  1  0
 25 27  1  0
 25 23  1  0
 26 25  2  0
M  END
$$$$
