QQN.pdb
     RDKit          3D

 27 26  0  0  1  0  0  0  0  0999 V2000
   20.7087  -16.2058  -14.6837 N   0  0  0  0  0  0  0  0  0  0  0  0
   21.0595  -16.5637  -16.0306 C   0  0  0  0  0  0  0  0  0  0  0  0
   20.4574  -17.5221  -16.5273 O   0  0  0  0  0  0  0  0  0  0  0  0
   22.0962  -15.7978  -16.7420 C   0  0  0  0  0  0  0  0  0  0  0  0
   22.5997  -14.6055  -16.0050 C   0  0  0  0  0  0  0  0  0  0  0  0
   24.0353  -14.3073  -16.3027 C   0  0  2  0  0  0  0  0  0  0  0  0
   24.9432  -15.3740  -16.0352 N   0  0  0  0  0  0  0  0  0  0  0  0
   24.4611  -13.1154  -15.4868 C   0  0  0  0  0  0  0  0  0  0  0  0
   24.4127  -13.1753  -14.2388 O   0  0  0  0  0  0  0  0  0  0  0  0
   28.9978  -13.6638  -15.3770 N   0  0  0  0  0  0  0  0  0  0  0  0
   28.2047  -12.5869  -15.8486 C   0  0  0  0  0  0  0  0  0  0  0  0
   27.8382  -12.5751  -17.0390 O   0  0  0  0  0  0  0  0  0  0  0  0
   27.7922  -11.4604  -14.9591 C   0  0  0  0  0  0  0  0  0  0  0  0
   26.8507  -10.5445  -15.6868 C   0  0  0  0  0  0  0  0  0  0  0  0
   25.4065  -10.7952  -15.3335 C   0  0  2  0  0  0  0  0  0  0  0  0
   24.9156  -11.9280  -16.1237 N   0  0  0  0  0  0  0  0  0  0  0  0
   24.5331   -9.6252  -15.4779 C   0  0  0  0  0  0  0  0  0  0  0  0
   24.7452   -8.4981  -14.9827 O   0  0  0  0  0  0  0  0  0  0  0  0
   20.4544   -6.5247  -16.6745 N   0  0  0  0  0  0  0  0  0  0  0  0
   20.5380   -7.2869  -15.4770 C   0  0  0  0  0  0  0  0  0  0  0  0
   19.6996   -6.9699  -14.5763 O   0  0  0  0  0  0  0  0  0  0  0  0
   21.5117   -8.3820  -15.2424 C   0  0  0  0  0  0  0  0  0  0  0  0
   22.4037   -8.6478  -16.3989 C   0  0  2  0  0  0  0  0  0  0  0  0
   23.3245   -9.7208  -16.2371 N   0  0  0  0  0  0  0  0  0  0  0  0
   23.0514   -7.3864  -16.8425 C   0  0  0  0  0  0  0  0  0  0  0  0
   22.7462   -6.8486  -17.9351 O   0  0  0  0  0  0  0  0  0  0  0  0
   24.0098   -6.7750  -16.0562 O   0  0  0  0  0  0  0  0  0  0  0  0
  2  1  1  0
  2  4  1  0
  3  2  2  0
  5  6  1  0
  5  4  1  0
  6  8  1  0
  6  7  1  1
  8  9  2  0
  8 16  1  0
 10 11  1  0
 11 12  2  0
 13 14  1  0
 13 11  1  0
 15 14  1  6
 15 17  1  0
 16 15  1  0
 17 18  2  0
 20 19  1  0
 21 20  2  0
 22 20  1  0
 23 22  1  1
 24 23  1  0
 24 17  1  0
 25 27  1  0
 25 23  1  0
 26 25  2  0
M  END
$$$$
