QQN.pdb
     RDKit          3D

 27 26  0  0  1  0  0  0  0  0999 V2000
   21.1734  -13.9865  -17.1857 N   0  0  0  0  0  0  0  0  0  0  0  0
   20.1611  -14.8432  -16.6324 C   0  0  0  0  0  0  0  0  0  0  0  0
   20.4705  -16.0260  -16.4503 O   0  0  0  0  0  0  0  0  0  0  0  0
   18.8322  -14.2929  -16.3179 C   0  0  0  0  0  0  0  0  0  0  0  0
   18.6749  -12.8435  -16.6227 C   0  0  0  0  0  0  0  0  0  0  0  0
   17.3395  -12.3093  -16.2111 C   0  0  2  0  0  0  0  0  0  0  0  0
   16.2269  -12.8468  -16.9229 N   0  0  0  0  0  0  0  0  0  0  0  0
   17.3372  -10.8153  -16.3994 C   0  0  0  0  0  0  0  0  0  0  0  0
   17.3808  -10.3409  -17.5554 O   0  0  0  0  0  0  0  0  0  0  0  0
   15.5590   -4.9144  -17.0388 N   0  0  0  0  0  0  0  0  0  0  0  0
   15.2340   -6.0571  -16.2642 C   0  0  0  0  0  0  0  0  0  0  0  0
   14.2944   -6.7911  -16.6246 O   0  0  0  0  0  0  0  0  0  0  0  0
   15.9863   -6.4108  -15.0234 C   0  0  0  0  0  0  0  0  0  0  0  0
   16.0559   -7.9027  -14.8681 C   0  0  0  0  0  0  0  0  0  0  0  0
   17.3150   -8.4901  -15.4539 C   0  0  2  0  0  0  0  0  0  0  0  0
   17.2860   -9.9447  -15.2760 N   0  0  0  0  0  0  0  0  0  0  0  0
   18.5572   -7.9127  -14.9284 C   0  0  0  0  0  0  0  0  0  0  0  0
   19.2557   -8.4054  -14.0174 O   0  0  0  0  0  0  0  0  0  0  0  0
   22.7640   -4.7636  -14.3503 N   0  0  0  0  0  0  0  0  0  0  0  0
   22.7297   -5.8095  -15.3130 C   0  0  0  0  0  0  0  0  0  0  0  0
   23.8446   -6.0734  -15.8626 O   0  0  0  0  0  0  0  0  0  0  0  0
   21.5113   -6.5698  -15.6871 C   0  0  0  0  0  0  0  0  0  0  0  0
   20.2727   -6.0734  -15.0363 C   0  0  2  0  0  0  0  0  0  0  0  0
   19.0609   -6.6853  -15.4633 N   0  0  0  0  0  0  0  0  0  0  0  0
   20.2275   -4.5895  -15.0934 C   0  0  0  0  0  0  0  0  0  0  0  0
   21.1896   -3.8939  -14.6853 O   0  0  0  0  0  0  0  0  0  0  0  0
   19.1177   -3.9398  -15.6002 O   0  0  0  0  0  0  0  0  0  0  0  0
  2  1  1  0
  2  4  1  0
  3  2  2  0
  5  6  1  0
  5  4  1  0
  6  8  1  0
  6  7  1  6
  8  9  2  0
  8 16  1  0
 10 11  1  0
 11 12  2  0
 13 14  1  0
 13 11  1  0
 15 14  1  1
 15 17  1  0
 16 15  1  0
 17 18  2  0
 20 19  1  0
 21 20  2  0
 22 20  1  0
 23 22  1  6
 24 23  1  0
 24 17  1  0
 25 27  1  0
 25 23  1  0
 26 25  2  0
M  END
$$$$
