QQN.pdb
     RDKit          3D

 27 26  0  0  1  0  0  0  0  0999 V2000
   22.4932  -23.1117  -11.8638 N   0  0  0  0  0  0  0  0  0  0  0  0
   21.8611  -21.8260  -11.7526 C   0  0  0  0  0  0  0  0  0  0  0  0
   20.6992  -21.7387  -12.1652 O   0  0  0  0  0  0  0  0  0  0  0  0
   22.6046  -20.6958  -11.1717 C   0  0  0  0  0  0  0  0  0  0  0  0
   24.0032  -21.0155  -10.7718 C   0  0  0  0  0  0  0  0  0  0  0  0
   24.8593  -21.4102  -11.9335 C   0  0  2  0  0  0  0  0  0  0  0  0
   26.1438  -21.9263  -11.5912 N   0  0  0  0  0  0  0  0  0  0  0  0
   25.0592  -20.2077  -12.8177 C   0  0  0  0  0  0  0  0  0  0  0  0
   25.5070  -19.1495  -12.3248 O   0  0  0  0  0  0  0  0  0  0  0  0
   26.7363  -22.3600  -16.4467 N   0  0  0  0  0  0  0  0  0  0  0  0
   27.6422  -21.5902  -15.6734 C   0  0  0  0  0  0  0  0  0  0  0  0
   28.6634  -22.1331  -15.2109 O   0  0  0  0  0  0  0  0  0  0  0  0
   27.4100  -20.1415  -15.3942 C   0  0  0  0  0  0  0  0  0  0  0  0
   26.1551  -19.6778  -16.0760 C   0  0  0  0  0  0  0  0  0  0  0  0
   25.1175  -19.1746  -15.1046 C   0  0  2  0  0  0  0  0  0  0  0  0
   24.7434  -20.2680  -14.2029 N   0  0  0  0  0  0  0  0  0  0  0  0
   23.9361  -18.5735  -15.7337 C   0  0  0  0  0  0  0  0  0  0  0  0
   22.8743  -19.1746  -16.0019 O   0  0  0  0  0  0  0  0  0  0  0  0
   20.6360  -15.0741  -17.8968 N   0  0  0  0  0  0  0  0  0  0  0  0
   21.2676  -14.5935  -16.7169 C   0  0  0  0  0  0  0  0  0  0  0  0
   20.7868  -13.5143  -16.2492 O   0  0  0  0  0  0  0  0  0  0  0  0
   22.4067  -15.2616  -16.0398 C   0  0  0  0  0  0  0  0  0  0  0  0
   22.8354  -16.5233  -16.6942 C   0  0  2  0  0  0  0  0  0  0  0  0
   23.9400  -17.1888  -16.0924 N   0  0  0  0  0  0  0  0  0  0  0  0
   23.0111  -16.3057  -18.1534 C   0  0  0  0  0  0  0  0  0  0  0  0
   24.1498  -16.1288  -18.6514 O   0  0  0  0  0  0  0  0  0  0  0  0
   21.9171  -16.2931  -18.9982 O   0  0  0  0  0  0  0  0  0  0  0  0
  2  1  1  0
  2  4  1  0
  3  2  2  0
  5  6  1  0
  5  4  1  0
  6  8  1  0
  6  7  1  1
  8  9  2  0
  8 16  1  0
 10 11  1  0
 11 12  2  0
 13 14  1  0
 13 11  1  0
 15 14  1  6
 15 17  1  0
 16 15  1  0
 17 18  2  0
 20 19  1  0
 21 20  2  0
 22 20  1  0
 23 22  1  1
 24 23  1  0
 24 17  1  0
 25 27  1  0
 25 23  1  0
 26 25  2  0
M  END
$$$$
