QQN.pdb
     RDKit          3D

 27 26  0  0  1  0  0  0  0  0999 V2000
   18.5864  -20.5120  -17.8218 N   0  0  0  0  0  0  0  0  0  0  0  0
   18.9899  -21.3605  -16.7345 C   0  0  0  0  0  0  0  0  0  0  0  0
   19.4456  -22.4701  -17.0330 O   0  0  0  0  0  0  0  0  0  0  0  0
   18.8438  -20.8879  -15.3478 C   0  0  0  0  0  0  0  0  0  0  0  0
   19.6029  -19.6453  -15.0345 C   0  0  0  0  0  0  0  0  0  0  0  0
   21.0789  -19.8103  -15.2146 C   0  0  2  0  0  0  0  0  0  0  0  0
   21.7133  -20.6622  -14.2631 N   0  0  0  0  0  0  0  0  0  0  0  0
   21.7303  -18.4550  -15.1359 C   0  0  0  0  0  0  0  0  0  0  0  0
   21.5433  -17.7402  -14.1272 O   0  0  0  0  0  0  0  0  0  0  0  0
   27.1970  -17.3021  -17.5759 N   0  0  0  0  0  0  0  0  0  0  0  0
   27.0258  -17.0781  -16.1860 C   0  0  0  0  0  0  0  0  0  0  0  0
   28.0232  -17.0850  -15.4398 O   0  0  0  0  0  0  0  0  0  0  0  0
   25.6808  -16.8329  -15.5848 C   0  0  0  0  0  0  0  0  0  0  0  0
   24.6281  -16.8307  -16.6555 C   0  0  0  0  0  0  0  0  0  0  0  0
   23.2336  -16.6907  -16.0994 C   0  0  2  0  0  0  0  0  0  0  0  0
   22.5529  -17.9851  -16.1966 N   0  0  0  0  0  0  0  0  0  0  0  0
   22.4382  -15.6219  -16.7140 C   0  0  0  0  0  0  0  0  0  0  0  0
   21.7329  -15.7420  -17.7380 O   0  0  0  0  0  0  0  0  0  0  0  0
   19.2774  -10.7351  -16.1120 N   0  0  0  0  0  0  0  0  0  0  0  0
   20.6646  -10.9772  -16.3093 C   0  0  0  0  0  0  0  0  0  0  0  0
   21.2572  -10.1389  -17.0581 O   0  0  0  0  0  0  0  0  0  0  0  0
   21.4154  -12.1085  -15.7102 C   0  0  0  0  0  0  0  0  0  0  0  0
   21.6685  -13.2257  -16.6544 C   0  0  2  0  0  0  0  0  0  0  0  0
   22.4291  -14.3122  -16.1386 N   0  0  0  0  0  0  0  0  0  0  0  0
   22.2025  -12.6975  -17.9364 C   0  0  0  0  0  0  0  0  0  0  0  0
   23.4352  -12.5334  -18.1083 O   0  0  0  0  0  0  0  0  0  0  0  0
   21.3474  -12.3737  -18.9730 O   0  0  0  0  0  0  0  0  0  0  0  0
  2  1  1  0
  2  4  1  0
  3  2  2  0
  5  6  1  0
  5  4  1  0
  6  8  1  0
  6  7  1  1
  8  9  2  0
  8 16  1  0
 10 11  1  0
 11 12  2  0
 13 14  1  0
 13 11  1  0
 15 14  1  6
 15 17  1  0
 16 15  1  0
 17 18  2  0
 20 19  1  0
 21 20  2  0
 22 20  1  0
 23 22  1  1
 24 23  1  0
 24 17  1  0
 25 27  1  0
 25 23  1  0
 26 25  2  0
M  END
$$$$
