QQN.pdb
     RDKit          3D

 27 26  0  0  1  0  0  0  0  0999 V2000
   26.1843  -22.8334  -16.9290 N   0  0  0  0  0  0  0  0  0  0  0  0
   25.7456  -23.8895  -16.0588 C   0  0  0  0  0  0  0  0  0  0  0  0
   26.4003  -24.9377  -16.0806 O   0  0  0  0  0  0  0  0  0  0  0  0
   24.5642  -23.6864  -15.2040 C   0  0  0  0  0  0  0  0  0  0  0  0
   23.9979  -22.3096  -15.2481 C   0  0  0  0  0  0  0  0  0  0  0  0
   24.8975  -21.2955  -14.6151 C   0  0  2  0  0  0  0  0  0  0  0  0
   25.2505  -21.5619  -13.2594 N   0  0  0  0  0  0  0  0  0  0  0  0
   24.2221  -19.9506  -14.6666 C   0  0  0  0  0  0  0  0  0  0  0  0
   23.1970  -19.7504  -13.9794 O   0  0  0  0  0  0  0  0  0  0  0  0
   27.4331  -17.2678  -17.3387 N   0  0  0  0  0  0  0  0  0  0  0  0
   27.5302  -16.9503  -15.9600 C   0  0  0  0  0  0  0  0  0  0  0  0
   28.6378  -17.0213  -15.3944 O   0  0  0  0  0  0  0  0  0  0  0  0
   26.3409  -16.5314  -15.1598 C   0  0  0  0  0  0  0  0  0  0  0  0
   25.1033  -16.5781  -16.0090 C   0  0  0  0  0  0  0  0  0  0  0  0
   24.1012  -17.5933  -15.5207 C   0  0  2  0  0  0  0  0  0  0  0  0
   24.7405  -18.9119  -15.4880 N   0  0  0  0  0  0  0  0  0  0  0  0
   22.8481  -17.6264  -16.2831 C   0  0  0  0  0  0  0  0  0  0  0  0
   22.4805  -18.5568  -17.0313 O   0  0  0  0  0  0  0  0  0  0  0  0
   17.6794  -16.9668  -16.8251 N   0  0  0  0  0  0  0  0  0  0  0  0
   18.3736  -17.7587  -15.8695 C   0  0  0  0  0  0  0  0  0  0  0  0
   17.6536  -18.5900  -15.2329 O   0  0  0  0  0  0  0  0  0  0  0  0
   19.8289  -17.6637  -15.5950 C   0  0  0  0  0  0  0  0  0  0  0  0
   20.5303  -16.6544  -16.4277 C   0  0  2  0  0  0  0  0  0  0  0  0
   21.9304  -16.5320  -16.2040 N   0  0  0  0  0  0  0  0  0  0  0  0
   19.8142  -15.3543  -16.3625 C   0  0  0  0  0  0  0  0  0  0  0  0
   19.9679  -14.5759  -15.3896 O   0  0  0  0  0  0  0  0  0  0  0  0
   18.9581  -14.9725  -17.3783 O   0  0  0  0  0  0  0  0  0  0  0  0
  2  1  1  0
  2  4  1  0
  3  2  2  0
  5  6  1  0
  5  4  1  0
  6  8  1  0
  6  7  1  1
  8  9  2  0
  8 16  1  0
 10 11  1  0
 11 12  2  0
 13 14  1  0
 13 11  1  0
 15 14  1  6
 15 17  1  0
 16 15  1  0
 17 18  2  0
 20 19  1  0
 21 20  2  0
 22 20  1  0
 23 22  1  1
 24 23  1  0
 24 17  1  0
 25 27  1  0
 25 23  1  0
 26 25  2  0
M  END
$$$$
