QQN.pdb
     RDKit          3D

 27 26  0  0  1  0  0  0  0  0999 V2000
   13.5766  -13.1530  -15.4282 N   0  0  0  0  0  0  0  0  0  0  0  0
   14.2307  -11.8812  -15.5680 C   0  0  0  0  0  0  0  0  0  0  0  0
   13.7789  -10.9456  -14.8984 O   0  0  0  0  0  0  0  0  0  0  0  0
   15.3776  -11.7476  -16.4814 C   0  0  0  0  0  0  0  0  0  0  0  0
   16.5631  -11.0666  -15.8904 C   0  0  0  0  0  0  0  0  0  0  0  0
   17.8362  -11.8159  -16.1275 C   0  0  2  0  0  0  0  0  0  0  0  0
   17.8977  -13.1092  -15.5299 N   0  0  0  0  0  0  0  0  0  0  0  0
   18.9841  -10.9998  -15.5948 C   0  0  0  0  0  0  0  0  0  0  0  0
   19.0307  -10.7260  -14.3757 O   0  0  0  0  0  0  0  0  0  0  0  0
   24.7435  -10.8353  -17.9312 N   0  0  0  0  0  0  0  0  0  0  0  0
   24.8187   -9.8906  -16.8762 C   0  0  0  0  0  0  0  0  0  0  0  0
   25.9211   -9.3901  -16.5832 O   0  0  0  0  0  0  0  0  0  0  0  0
   23.6122   -9.4741  -16.1008 C   0  0  0  0  0  0  0  0  0  0  0  0
   22.4092  -10.2454  -16.5618 C   0  0  0  0  0  0  0  0  0  0  0  0
   21.1260   -9.7405  -15.9518 C   0  0  2  0  0  0  0  0  0  0  0  0
   20.0106  -10.5407  -16.4655 N   0  0  0  0  0  0  0  0  0  0  0  0
   20.8857   -8.3056  -16.1416 C   0  0  0  0  0  0  0  0  0  0  0  0
   20.6502   -7.7498  -17.2353 O   0  0  0  0  0  0  0  0  0  0  0  0
   20.3960   -3.1349  -15.1637 N   0  0  0  0  0  0  0  0  0  0  0  0
   19.3759   -3.9866  -14.6578 C   0  0  0  0  0  0  0  0  0  0  0  0
   18.3259   -3.3924  -14.2588 O   0  0  0  0  0  0  0  0  0  0  0  0
   19.4762   -5.4651  -14.5782 C   0  0  0  0  0  0  0  0  0  0  0  0
   20.7467   -6.0088  -15.1203 C   0  0  2  0  0  0  0  0  0  0  0  0
   20.9099   -7.4190  -15.0194 N   0  0  0  0  0  0  0  0  0  0  0  0
   21.9001   -5.2484  -14.5736 C   0  0  0  0  0  0  0  0  0  0  0  0
   22.4236   -5.5618  -13.4764 O   0  0  0  0  0  0  0  0  0  0  0  0
   22.4239   -4.1730  -15.2662 O   0  0  0  0  0  0  0  0  0  0  0  0
  2  1  1  0
  2  4  1  0
  3  2  2  0
  5  6  1  0
  5  4  1  0
  6  8  1  0
  6  7  1  1
  8  9  2  0
  8 16  1  0
 10 11  1  0
 11 12  2  0
 13 14  1  0
 13 11  1  0
 15 14  1  6
 15 17  1  0
 16 15  1  0
 17 18  2  0
 20 19  1  0
 21 20  2  0
 22 20  1  0
 23 22  1  1
 24 23  1  0
 24 17  1  0
 25 27  1  0
 25 23  1  0
 26 25  2  0
M  END
$$$$
