QQN.pdb
     RDKit          3D

 27 26  0  0  1  0  0  0  0  0999 V2000
   26.0028  -22.2481  -10.9416 N   0  0  0  0  0  0  0  0  0  0  0  0
   26.7994  -21.0917  -10.6362 C   0  0  0  0  0  0  0  0  0  0  0  0
   27.5394  -21.1696   -9.6491 O   0  0  0  0  0  0  0  0  0  0  0  0
   26.7007  -19.8932  -11.4856 C   0  0  0  0  0  0  0  0  0  0  0  0
   25.7485  -20.0186  -12.6240 C   0  0  0  0  0  0  0  0  0  0  0  0
   26.3046  -20.8251  -13.7548 C   0  0  2  0  0  0  0  0  0  0  0  0
   27.5022  -20.3108  -14.3336 N   0  0  0  0  0  0  0  0  0  0  0  0
   25.2642  -20.9191  -14.8394 C   0  0  0  0  0  0  0  0  0  0  0  0
   24.7592  -19.8721  -15.2997 O   0  0  0  0  0  0  0  0  0  0  0  0
   27.1600  -25.2090  -16.3247 N   0  0  0  0  0  0  0  0  0  0  0  0
   25.9607  -25.0975  -17.0733 C   0  0  0  0  0  0  0  0  0  0  0  0
   25.3008  -26.1237  -17.3243 O   0  0  0  0  0  0  0  0  0  0  0  0
   25.4605  -23.7820  -17.5732 C   0  0  0  0  0  0  0  0  0  0  0  0
   24.0366  -23.5732  -17.1447 C   0  0  0  0  0  0  0  0  0  0  0  0
   23.8391  -22.2809  -16.3935 C   0  0  2  0  0  0  0  0  0  0  0  0
   24.8545  -22.1852  -15.3408 N   0  0  0  0  0  0  0  0  0  0  0  0
   22.4888  -22.0928  -15.8513 C   0  0  0  0  0  0  0  0  0  0  0  0
   22.2103  -21.9221  -14.6455 O   0  0  0  0  0  0  0  0  0  0  0  0
   17.3913  -20.8210  -15.5911 N   0  0  0  0  0  0  0  0  0  0  0  0
   18.5244  -19.9867  -15.3862 C   0  0  0  0  0  0  0  0  0  0  0  0
   18.2742  -18.8563  -14.8625 O   0  0  0  0  0  0  0  0  0  0  0  0
   19.9176  -20.3573  -15.7385 C   0  0  0  0  0  0  0  0  0  0  0  0
   20.0455  -21.7148  -16.3257 C   0  0  2  0  0  0  0  0  0  0  0  0
   21.3570  -22.0953  -16.7261 N   0  0  0  0  0  0  0  0  0  0  0  0
   19.0320  -21.9040  -17.3956 C   0  0  0  0  0  0  0  0  0  0  0  0
   19.1983  -21.4186  -18.5413 O   0  0  0  0  0  0  0  0  0  0  0  0
   17.8774  -22.6231  -17.1497 O   0  0  0  0  0  0  0  0  0  0  0  0
  2  1  1  0
  2  4  1  0
  3  2  2  0
  5  6  1  0
  5  4  1  0
  6  8  1  0
  6  7  1  6
  8  9  2  0
  8 16  1  0
 10 11  1  0
 11 12  2  0
 13 14  1  0
 13 11  1  0
 15 14  1  1
 15 17  1  0
 16 15  1  0
 17 18  2  0
 20 19  1  0
 21 20  2  0
 22 20  1  0
 23 22  1  6
 24 23  1  0
 24 17  1  0
 25 27  1  0
 25 23  1  0
 26 25  2  0
M  END
$$$$
