QQN.pdb
     RDKit          3D

 27 26  0  0  1  0  0  0  0  0999 V2000
   27.4296  -16.0412  -16.5142 N   0  0  0  0  0  0  0  0  0  0  0  0
   26.7700  -17.0834  -17.2515 C   0  0  0  0  0  0  0  0  0  0  0  0
   26.0889  -16.7342  -18.2221 O   0  0  0  0  0  0  0  0  0  0  0  0
   26.9249  -18.4854  -16.8293 C   0  0  0  0  0  0  0  0  0  0  0  0
   27.7278  -18.6728  -15.5889 C   0  0  0  0  0  0  0  0  0  0  0  0
   27.8215  -20.1071  -15.1738 C   0  0  2  0  0  0  0  0  0  0  0  0
   28.2342  -21.0083  -16.1990 N   0  0  0  0  0  0  0  0  0  0  0  0
   26.4738  -20.5547  -14.6728 C   0  0  0  0  0  0  0  0  0  0  0  0
   25.7923  -21.3442  -15.3624 O   0  0  0  0  0  0  0  0  0  0  0  0
   24.6434  -20.4409   -8.6057 N   0  0  0  0  0  0  0  0  0  0  0  0
   25.6192  -21.2560   -9.2338 C   0  0  0  0  0  0  0  0  0  0  0  0
   26.4603  -21.8502   -8.5330 O   0  0  0  0  0  0  0  0  0  0  0  0
   25.6713  -21.4260  -10.7167 C   0  0  0  0  0  0  0  0  0  0  0  0
   24.7359  -20.4576  -11.3817 C   0  0  0  0  0  0  0  0  0  0  0  0
   24.7156  -20.6060  -12.8820 C   0  0  2  0  0  0  0  0  0  0  0  0
   25.9739  -20.0873  -13.4262 N   0  0  0  0  0  0  0  0  0  0  0  0
   23.5564  -19.9910  -13.5384 C   0  0  0  0  0  0  0  0  0  0  0  0
   23.5795  -18.9383  -14.2106 O   0  0  0  0  0  0  0  0  0  0  0  0
   19.2827  -20.3912  -16.5530 N   0  0  0  0  0  0  0  0  0  0  0  0
   20.6339  -20.7285  -16.8401 C   0  0  0  0  0  0  0  0  0  0  0  0
   20.8939  -20.9140  -18.0700 O   0  0  0  0  0  0  0  0  0  0  0  0
   21.7022  -20.8671  -15.8193 C   0  0  0  0  0  0  0  0  0  0  0  0
   21.2665  -20.5124  -14.4451 C   0  0  2  0  0  0  0  0  0  0  0  0
   22.2664  -20.6006  -13.4363 N   0  0  0  0  0  0  0  0  0  0  0  0
   20.0236  -21.2493  -14.0992 C   0  0  0  0  0  0  0  0  0  0  0  0
   20.0310  -22.1726  -13.2486 O   0  0  0  0  0  0  0  0  0  0  0  0
   18.8256  -20.9314  -14.7110 O   0  0  0  0  0  0  0  0  0  0  0  0
  2  1  1  0
  2  4  1  0
  3  2  2  0
  5  6  1  0
  5  4  1  0
  6  8  1  0
  6  7  1  6
  8  9  2  0
  8 16  1  0
 10 11  1  0
 11 12  2  0
 13 14  1  0
 13 11  1  0
 15 14  1  1
 15 17  1  0
 16 15  1  0
 17 18  2  0
 20 19  1  0
 21 20  2  0
 22 20  1  0
 23 22  1  6
 24 23  1  0
 24 17  1  0
 25 27  1  0
 25 23  1  0
 26 25  2  0
M  END
$$$$
