QQN.pdb
     RDKit          3D

 27 26  0  0  1  0  0  0  0  0999 V2000
   11.4775  -10.2528   -9.6024 N   0  0  0  0  0  0  0  0  0  0  0  0
   11.6880  -11.3558  -10.4991 C   0  0  0  0  0  0  0  0  0  0  0  0
   10.7004  -12.0459  -10.7751 O   0  0  0  0  0  0  0  0  0  0  0  0
   13.0353  -11.6140  -11.0338 C   0  0  0  0  0  0  0  0  0  0  0  0
   14.0872  -10.6850  -10.5352 C   0  0  0  0  0  0  0  0  0  0  0  0
   15.4277  -10.9518  -11.1435 C   0  0  2  0  0  0  0  0  0  0  0  0
   15.9772  -12.2364  -10.8582 N   0  0  0  0  0  0  0  0  0  0  0  0
   16.3975   -9.9093  -10.6535 C   0  0  0  0  0  0  0  0  0  0  0  0
   16.9533  -10.0596   -9.5436 O   0  0  0  0  0  0  0  0  0  0  0  0
   21.3174   -5.5387  -13.0914 N   0  0  0  0  0  0  0  0  0  0  0  0
   20.9857   -6.6318  -12.2510 C   0  0  0  0  0  0  0  0  0  0  0  0
   21.7152   -7.6415  -12.2472 O   0  0  0  0  0  0  0  0  0  0  0  0
   19.7832   -6.6114  -11.3655 C   0  0  0  0  0  0  0  0  0  0  0  0
   18.7588   -7.5910  -11.8614 C   0  0  0  0  0  0  0  0  0  0  0  0
   17.5729   -7.7096  -10.9377 C   0  0  2  0  0  0  0  0  0  0  0  0
   16.6838   -8.7604  -11.4413 N   0  0  0  0  0  0  0  0  0  0  0  0
   16.8453   -6.4547  -10.7178 C   0  0  0  0  0  0  0  0  0  0  0  0
   16.1591   -5.8565  -11.5734 O   0  0  0  0  0  0  0  0  0  0  0  0
   13.3843   -4.2165   -8.3441 N   0  0  0  0  0  0  0  0  0  0  0  0
   14.4149   -4.2716   -7.3659 C   0  0  0  0  0  0  0  0  0  0  0  0
   14.0224   -4.1616   -6.1623 O   0  0  0  0  0  0  0  0  0  0  0  0
   15.8570   -4.4434   -7.6709 C   0  0  0  0  0  0  0  0  0  0  0  0
   16.1436   -4.6461   -9.1134 C   0  0  2  0  0  0  0  0  0  0  0  0
   16.8866   -5.8153   -9.4389 N   0  0  0  0  0  0  0  0  0  0  0  0
   16.7216   -3.4077   -9.6963 C   0  0  0  0  0  0  0  0  0  0  0  0
   16.1095   -2.3133   -9.6344 O   0  0  0  0  0  0  0  0  0  0  0  0
   17.9532   -3.4351  -10.3231 O   0  0  0  0  0  0  0  0  0  0  0  0
  2  1  1  0
  2  4  1  0
  3  2  2  0
  5  6  1  0
  5  4  1  0
  6  8  1  0
  6  7  1  1
  8  9  2  0
  8 16  1  0
 10 11  1  0
 11 12  2  0
 13 14  1  0
 13 11  1  0
 15 14  1  6
 15 17  1  0
 16 15  1  0
 17 18  2  0
 20 19  1  0
 21 20  2  0
 22 20  1  0
 23 22  1  1
 24 23  1  0
 24 17  1  0
 25 27  1  0
 25 23  1  0
 26 25  2  0
M  END
$$$$
