QQN.pdb
     RDKit          3D

 27 26  0  0  1  0  0  0  0  0999 V2000
   25.6455  -20.7823   -9.8485 N   0  0  0  0  0  0  0  0  0  0  0  0
   27.0719  -20.9566   -9.8448 C   0  0  0  0  0  0  0  0  0  0  0  0
   27.6376  -20.8989   -8.7473 O   0  0  0  0  0  0  0  0  0  0  0  0
   27.7817  -21.1861  -11.1142 C   0  0  0  0  0  0  0  0  0  0  0  0
   26.8991  -21.2623  -12.3115 C   0  0  0  0  0  0  0  0  0  0  0  0
   27.3207  -20.3257  -13.3993 C   0  0  2  0  0  0  0  0  0  0  0  0
   28.1621  -19.2527  -12.9819 N   0  0  0  0  0  0  0  0  0  0  0  0
   26.0892  -19.7346  -14.0330 C   0  0  0  0  0  0  0  0  0  0  0  0
   25.6727  -18.6209  -13.6463 O   0  0  0  0  0  0  0  0  0  0  0  0
   25.1525  -19.5490  -19.9494 N   0  0  0  0  0  0  0  0  0  0  0  0
   23.9631  -18.9431  -19.4705 C   0  0  0  0  0  0  0  0  0  0  0  0
   23.2434  -18.3037  -20.2609 O   0  0  0  0  0  0  0  0  0  0  0  0
   23.5432  -19.0475  -18.0410 C   0  0  0  0  0  0  0  0  0  0  0  0
   24.5944  -19.7648  -17.2440 C   0  0  0  0  0  0  0  0  0  0  0  0
   24.2788  -19.8066  -15.7702 C   0  0  2  0  0  0  0  0  0  0  0  0
   25.4004  -20.4318  -15.0634 N   0  0  0  0  0  0  0  0  0  0  0  0
   23.0078  -20.4604  -15.4387 C   0  0  0  0  0  0  0  0  0  0  0  0
   22.8276  -21.6940  -15.3593 O   0  0  0  0  0  0  0  0  0  0  0  0
   17.9894  -21.2733  -14.0550 N   0  0  0  0  0  0  0  0  0  0  0  0
   18.5408  -20.1377  -13.4007 C   0  0  0  0  0  0  0  0  0  0  0  0
   17.8446  -19.6761  -12.4431 O   0  0  0  0  0  0  0  0  0  0  0  0
   19.8289  -19.4980  -13.7668 C   0  0  0  0  0  0  0  0  0  0  0  0
   20.5782  -20.2231  -14.8235 C   0  0  2  0  0  0  0  0  0  0  0  0
   21.8431  -19.6732  -15.1740 N   0  0  0  0  0  0  0  0  0  0  0  0
   19.7002  -20.4597  -15.9985 C   0  0  0  0  0  0  0  0  0  0  0  0
   18.5931  -21.0388  -15.8763 O   0  0  0  0  0  0  0  0  0  0  0  0
   20.0870  -20.0446  -17.2590 O   0  0  0  0  0  0  0  0  0  0  0  0
  2  1  1  0
  2  4  1  0
  3  2  2  0
  5  6  1  0
  5  4  1  0
  6  8  1  0
  6  7  1  1
  8  9  2  0
  8 16  1  0
 10 11  1  0
 11 12  2  0
 13 14  1  0
 13 11  1  0
 15 14  1  6
 15 17  1  0
 16 15  1  0
 17 18  2  0
 20 19  1  0
 21 20  2  0
 22 20  1  0
 23 22  1  1
 24 23  1  0
 24 17  1  0
 25 27  1  0
 25 23  1  0
 26 25  2  0
M  END
$$$$
