QAW.pdb
     RDKit          3D

 29 30  0  0  1  0  0  0  0  0999 V2000
    9.9718  -13.8297   18.1600 N   0  0  0  0  0  0  0  0  0  0  0  0
    8.8139  -13.0751   17.9132 C   0  0  0  0  0  0  0  0  0  0  0  0
    8.6909  -12.4861   16.8088 O   0  0  0  0  0  0  0  0  0  0  0  0
    7.7187  -12.9430   18.8947 C   0  0  0  0  0  0  0  0  0  0  0  0
    7.8942  -13.7593   20.1374 C   0  0  0  0  0  0  0  0  0  0  0  0
    7.8544  -15.2284   19.9494 C   0  0  2  0  0  0  0  0  0  0  0  0
    6.5248  -15.5977   19.3904 N   0  0  0  0  0  0  0  0  0  0  0  0
    8.1169  -16.0771   21.1041 C   0  0  0  0  0  0  0  0  0  0  0  0
    7.2092  -16.3477   21.9650 O   0  0  0  0  0  0  0  0  0  0  0  0
   10.7357  -18.4853   22.0657 C   0  0  0  0  0  0  0  0  0  0  0  0
    9.6093  -17.5543   22.4409 C   0  0  2  0  0  0  0  0  0  0  0  0
    9.3970  -16.6472   21.3309 N   0  0  0  0  0  0  0  0  0  0  0  0
    9.9021  -16.7721   23.6552 C   0  0  0  0  0  0  0  0  0  0  0  0
   10.5075  -15.6747   23.5674 O   0  0  0  0  0  0  0  0  0  0  0  0
    9.5343  -17.1878   24.9616 N   0  0  0  0  0  0  0  0  0  0  0  0
    9.9943  -16.4709   26.1327 C   0  0  1  0  0  0  0  0  0  0  0  0
    8.7949  -16.4544   27.0919 C   0  0  0  0  0  0  0  0  0  0  0  0
    7.7438  -15.6319   26.4387 C   0  0  0  0  0  0  0  0  0  0  0  0
    6.6334  -16.0739   25.7275 C   0  0  0  0  0  0  0  0  0  0  0  0
    5.9487  -15.0011   25.3068 N   0  0  0  0  0  0  0  0  0  0  0  0
    6.5387  -13.8492   25.6969 C   0  0  0  0  0  0  0  0  0  0  0  0
    6.2242  -12.5129   25.5154 C   0  0  0  0  0  0  0  0  0  0  0  0
    7.0355  -11.5342   26.0444 C   0  0  0  0  0  0  0  0  0  0  0  0
    8.1533  -11.9257   26.7493 C   0  0  0  0  0  0  0  0  0  0  0  0
    8.4651  -13.2596   26.9290 C   0  0  0  0  0  0  0  0  0  0  0  0
    7.6578  -14.2500   26.4024 C   0  0  0  0  0  0  0  0  0  0  0  0
   11.1469  -17.1294   26.7731 C   0  0  0  0  0  0  0  0  0  0  0  0
   11.7931  -16.5059   27.8282 O   0  0  0  0  0  0  0  0  0  0  0  0
   11.5650  -18.2478   26.3887 O   0  0  0  0  0  0  0  0  0  0  0  0
  2  3  2  0
  2  1  1  0
  4  2  1  0
  5  6  1  0
  5  4  1  0
  6  7  1  1
  8 12  1  0
  8  6  1  0
  9  8  2  0
 11 10  1  6
 11 13  1  0
 11 12  1  0
 13 14  2  0
 15 16  1  0
 15 13  1  0
 16 17  1  1
 18 17  1  0
 19 18  2  0
 20 19  1  0
 21 20  1  0
 21 26  2  0
 22 23  2  0
 22 21  1  0
 23 24  1  0
 24 25  2  0
 26 25  1  0
 26 18  1  0
 27 16  1  0
 27 28  1  0
 29 27  2  0
M  END
$$$$
