QAW.pdb
     RDKit          3D

 29 30  0  0  1  0  0  0  0  0999 V2000
    7.5336  -13.8840   15.4459 N   0  0  0  0  0  0  0  0  0  0  0  0
    7.4741  -13.2338   16.6887 C   0  0  0  0  0  0  0  0  0  0  0  0
    6.5885  -12.3618   16.8815 O   0  0  0  0  0  0  0  0  0  0  0  0
    8.4061  -13.5312   17.7946 C   0  0  0  0  0  0  0  0  0  0  0  0
    9.3895  -14.6221   17.5041 C   0  0  0  0  0  0  0  0  0  0  0  0
   10.2847  -14.9924   18.6251 C   0  0  2  0  0  0  0  0  0  0  0  0
   11.2502  -16.0170   18.1406 N   0  0  0  0  0  0  0  0  0  0  0  0
    9.6790  -15.4809   19.8568 C   0  0  0  0  0  0  0  0  0  0  0  0
    9.0892  -14.6960   20.6781 O   0  0  0  0  0  0  0  0  0  0  0  0
    8.8583  -18.8346   21.2386 C   0  0  0  0  0  0  0  0  0  0  0  0
    8.9864  -17.3367   21.3644 C   0  0  2  0  0  0  0  0  0  0  0  0
    9.7136  -16.8562   20.2066 N   0  0  0  0  0  0  0  0  0  0  0  0
    9.7019  -16.9304   22.5872 C   0  0  0  0  0  0  0  0  0  0  0  0
   10.9068  -16.5802   22.5257 O   0  0  0  0  0  0  0  0  0  0  0  0
    9.1022  -16.9071   23.8736 N   0  0  0  0  0  0  0  0  0  0  0  0
    9.8630  -16.5331   25.0476 C   0  0  1  0  0  0  0  0  0  0  0  0
    9.7126  -15.0084   25.1562 C   0  0  0  0  0  0  0  0  0  0  0  0
    8.2633  -14.7399   25.3436 C   0  0  0  0  0  0  0  0  0  0  0  0
    7.2131  -15.6503   25.2927 C   0  0  0  0  0  0  0  0  0  0  0  0
    6.0697  -14.9866   25.5135 N   0  0  0  0  0  0  0  0  0  0  0  0
    6.2897  -13.6678   25.7125 C   0  0  0  0  0  0  0  0  0  0  0  0
    5.4539  -12.5948   25.9726 C   0  0  0  0  0  0  0  0  0  0  0  0
    5.9798  -11.3325   26.1334 C   0  0  0  0  0  0  0  0  0  0  0  0
    7.3453  -11.1777   26.0279 C   0  0  0  0  0  0  0  0  0  0  0  0
    8.1772  -12.2498   25.7682 C   0  0  0  0  0  0  0  0  0  0  0  0
    7.6600  -13.5209   25.6052 C   0  0  0  0  0  0  0  0  0  0  0  0
    9.3567  -17.1812   26.2706 C   0  0  0  0  0  0  0  0  0  0  0  0
    9.9961  -16.9581   27.4793 O   0  0  0  0  0  0  0  0  0  0  0  0
    8.3549  -17.9358   26.2509 O   0  0  0  0  0  0  0  0  0  0  0  0
  2  3  2  0
  2  1  1  0
  4  2  1  0
  5  6  1  0
  5  4  1  0
  6  7  1  6
  8 12  1  0
  8  6  1  0
  9  8  2  0
 11 10  1  6
 11 13  1  0
 11 12  1  0
 13 14  2  0
 15 16  1  0
 15 13  1  0
 16 17  1  1
 18 17  1  0
 19 18  2  0
 20 19  1  0
 21 20  1  0
 21 26  2  0
 22 23  2  0
 22 21  1  0
 23 24  1  0
 24 25  2  0
 26 25  1  0
 26 18  1  0
 27 16  1  0
 27 28  1  0
 29 27  2  0
M  END
$$$$
