QAW.pdb
     RDKit          3D

 29 30  0  0  1  0  0  0  0  0999 V2000
    6.6956  -13.1056   17.2714 N   0  0  0  0  0  0  0  0  0  0  0  0
    7.8506  -13.8665   17.0311 C   0  0  0  0  0  0  0  0  0  0  0  0
    8.0306  -14.3619   15.8892 O   0  0  0  0  0  0  0  0  0  0  0  0
    8.8787  -14.1109   18.0624 C   0  0  0  0  0  0  0  0  0  0  0  0
    8.5554  -13.5455   19.4105 C   0  0  0  0  0  0  0  0  0  0  0  0
    9.5233  -13.8623   20.4866 C   0  0  2  0  0  0  0  0  0  0  0  0
   10.8693  -14.0382   19.8752 N   0  0  0  0  0  0  0  0  0  0  0  0
    9.2534  -15.0136   21.3376 C   0  0  0  0  0  0  0  0  0  0  0  0
    8.1069  -15.2042   21.8740 O   0  0  0  0  0  0  0  0  0  0  0  0
   10.9313  -18.1980   22.2013 C   0  0  0  0  0  0  0  0  0  0  0  0
    9.9842  -17.0713   22.5326 C   0  0  2  0  0  0  0  0  0  0  0  0
   10.2526  -15.9832   21.6139 N   0  0  0  0  0  0  0  0  0  0  0  0
   10.1429  -16.5865   23.9154 C   0  0  0  0  0  0  0  0  0  0  0  0
   10.9507  -15.6583   24.1693 O   0  0  0  0  0  0  0  0  0  0  0  0
    9.4208  -17.1144   25.0175 N   0  0  0  0  0  0  0  0  0  0  0  0
    9.6614  -16.6426   26.3653 C   0  0  1  0  0  0  0  0  0  0  0  0
    8.2816  -16.6297   27.0399 C   0  0  0  0  0  0  0  0  0  0  0  0
    7.4678  -15.6189   26.3162 C   0  0  0  0  0  0  0  0  0  0  0  0
    6.4980  -15.8410   25.3444 C   0  0  0  0  0  0  0  0  0  0  0  0
    6.0137  -14.6536   24.9540 N   0  0  0  0  0  0  0  0  0  0  0  0
    6.6064  -13.6329   25.6129 C   0  0  0  0  0  0  0  0  0  0  0  0
    6.4551  -12.2573   25.5652 C   0  0  0  0  0  0  0  0  0  0  0  0
    7.2188  -11.4496   26.3778 C   0  0  0  0  0  0  0  0  0  0  0  0
    8.1243  -12.0495   27.2263 C   0  0  0  0  0  0  0  0  0  0  0  0
    8.2736  -13.4223   27.2720 C   0  0  0  0  0  0  0  0  0  0  0  0
    7.5123  -14.2422   26.4609 C   0  0  0  0  0  0  0  0  0  0  0  0
   10.5813  -17.5221   27.1087 C   0  0  0  0  0  0  0  0  0  0  0  0
   11.0228  -17.1453   28.3667 O   0  0  0  0  0  0  0  0  0  0  0  0
   10.9806  -18.6118   26.6330 O   0  0  0  0  0  0  0  0  0  0  0  0
  2  3  2  0
  2  1  1  0
  4  2  1  0
  5  6  1  0
  5  4  1  0
  6  7  1  6
  8 12  1  0
  8  6  1  0
  9  8  2  0
 11 10  1  6
 11 13  1  0
 11 12  1  0
 13 14  2  0
 15 16  1  0
 15 13  1  0
 16 17  1  1
 18 17  1  0
 19 18  2  0
 20 19  1  0
 21 20  1  0
 21 26  2  0
 22 23  2  0
 22 21  1  0
 23 24  1  0
 24 25  2  0
 26 25  1  0
 26 18  1  0
 27 16  1  0
 27 28  1  0
 29 27  2  0
M  END
$$$$
