QAW.pdb
     RDKit          3D

 29 30  0  0  1  0  0  0  0  0999 V2000
    2.4284  -19.7684   19.6578 N   0  0  0  0  0  0  0  0  0  0  0  0
    2.3391  -18.6850   20.5461 C   0  0  0  0  0  0  0  0  0  0  0  0
    1.2709  -18.0233   20.5989 O   0  0  0  0  0  0  0  0  0  0  0  0
    3.4473  -18.2840   21.4356 C   0  0  0  0  0  0  0  0  0  0  0  0
    4.7066  -19.0737   21.2565 C   0  0  0  0  0  0  0  0  0  0  0  0
    5.8403  -18.6764   22.1238 C   0  0  2  0  0  0  0  0  0  0  0  0
    5.2949  -18.1826   23.4182 N   0  0  0  0  0  0  0  0  0  0  0  0
    6.7809  -17.6864   21.6163 C   0  0  0  0  0  0  0  0  0  0  0  0
    7.5846  -17.9477   20.6549 O   0  0  0  0  0  0  0  0  0  0  0  0
    7.1538  -14.1149   21.4643 C   0  0  0  0  0  0  0  0  0  0  0  0
    7.8445  -15.4371   21.6898 C   0  0  2  0  0  0  0  0  0  0  0  0
    6.8515  -16.3793   22.1653 N   0  0  0  0  0  0  0  0  0  0  0  0
    8.9351  -15.3449   22.6767 C   0  0  0  0  0  0  0  0  0  0  0  0
    9.9359  -14.6216   22.4448 O   0  0  0  0  0  0  0  0  0  0  0  0
    8.9322  -16.0412   23.9137 N   0  0  0  0  0  0  0  0  0  0  0  0
   10.1215  -16.1099   24.7370 C   0  0  1  0  0  0  0  0  0  0  0  0
    9.7461  -15.4015   26.0470 C   0  0  0  0  0  0  0  0  0  0  0  0
    8.2889  -15.1207   25.9720 C   0  0  0  0  0  0  0  0  0  0  0  0
    7.2568  -16.0234   25.7392 C   0  0  0  0  0  0  0  0  0  0  0  0
    6.0981  -15.3496   25.7498 N   0  0  0  0  0  0  0  0  0  0  0  0
    6.2904  -14.0314   25.9787 C   0  0  0  0  0  0  0  0  0  0  0  0
    5.4310  -12.9505   26.0809 C   0  0  0  0  0  0  0  0  0  0  0  0
    5.9307  -11.6913   26.3269 C   0  0  0  0  0  0  0  0  0  0  0  0
    7.2944  -11.5476   26.4655 C   0  0  0  0  0  0  0  0  0  0  0  0
    8.1500  -12.6276   26.3631 C   0  0  0  0  0  0  0  0  0  0  0  0
    7.6592  -13.8956   26.1164 C   0  0  0  0  0  0  0  0  0  0  0  0
   10.5313  -17.4989   25.0108 C   0  0  0  0  0  0  0  0  0  0  0  0
    9.7478  -18.5469   24.5556 O   0  0  0  0  0  0  0  0  0  0  0  0
   11.5777  -17.7642   25.6495 O   0  0  0  0  0  0  0  0  0  0  0  0
  2  3  2  0
  2  1  1  0
  4  2  1  0
  5  6  1  0
  5  4  1  0
  6  7  1  1
  8 12  1  0
  8  6  1  0
  9  8  2  0
 11 10  1  1
 11 13  1  0
 11 12  1  0
 13 14  2  0
 15 16  1  0
 15 13  1  0
 16 17  1  1
 18 17  1  0
 19 18  2  0
 20 19  1  0
 21 20  1  0
 21 26  2  0
 22 23  2  0
 22 21  1  0
 23 24  1  0
 24 25  2  0
 26 25  1  0
 26 18  1  0
 27 16  1  0
 27 28  1  0
 29 27  2  0
M  END
$$$$
