QAW.pdb
     RDKit          3D

 29 30  0  0  1  0  0  0  0  0999 V2000
   11.2877  -20.2555   17.6046 N   0  0  0  0  0  0  0  0  0  0  0  0
   12.1724  -19.2083   17.9072 C   0  0  0  0  0  0  0  0  0  0  0  0
   13.3913  -19.4669   18.0782 O   0  0  0  0  0  0  0  0  0  0  0  0
   11.7386  -17.8022   18.0295 C   0  0  0  0  0  0  0  0  0  0  0  0
   10.2826  -17.5744   17.7657 C   0  0  0  0  0  0  0  0  0  0  0  0
    9.8228  -16.1708   17.8819 C   0  0  2  0  0  0  0  0  0  0  0  0
   10.9368  -15.2726   17.4708 N   0  0  0  0  0  0  0  0  0  0  0  0
    9.3205  -15.7159   19.1716 C   0  0  0  0  0  0  0  0  0  0  0  0
    9.9247  -14.8170   19.8538 O   0  0  0  0  0  0  0  0  0  0  0  0
    6.2233  -16.2361   21.1733 C   0  0  0  0  0  0  0  0  0  0  0  0
    7.6504  -15.7722   21.0164 C   0  0  2  0  0  0  0  0  0  0  0  0
    8.1323  -16.2495   19.7359 N   0  0  0  0  0  0  0  0  0  0  0  0
    8.5310  -16.2795   22.0838 C   0  0  0  0  0  0  0  0  0  0  0  0
    9.2428  -17.2954   21.8843 O   0  0  0  0  0  0  0  0  0  0  0  0
    8.6337  -15.6782   23.3656 N   0  0  0  0  0  0  0  0  0  0  0  0
    9.4408  -16.2744   24.4097 C   0  0  1  0  0  0  0  0  0  0  0  0
    9.5797  -15.1847   25.4832 C   0  0  0  0  0  0  0  0  0  0  0  0
    8.2110  -14.6642   25.7353 C   0  0  0  0  0  0  0  0  0  0  0  0
    7.0276  -15.3881   25.8349 C   0  0  0  0  0  0  0  0  0  0  0  0
    6.0259  -14.5274   26.0645 N   0  0  0  0  0  0  0  0  0  0  0  0
    6.4693  -13.2520   26.1263 C   0  0  0  0  0  0  0  0  0  0  0  0
    5.8390  -12.0372   26.3377 C   0  0  0  0  0  0  0  0  0  0  0  0
    6.5715  -10.8714   26.3476 C   0  0  0  0  0  0  0  0  0  0  0  0
    7.9319  -10.9553   26.1429 C   0  0  0  0  0  0  0  0  0  0  0  0
    8.5585  -12.1685   25.9320 C   0  0  0  0  0  0  0  0  0  0  0  0
    7.8330  -13.3446   25.9202 C   0  0  0  0  0  0  0  0  0  0  0  0
    8.8103  -17.4759   24.9851 C   0  0  0  0  0  0  0  0  0  0  0  0
    9.5656  -18.3424   25.7585 O   0  0  0  0  0  0  0  0  0  0  0  0
    7.5992  -17.7408   24.7945 O   0  0  0  0  0  0  0  0  0  0  0  0
  2  3  2  0
  2  1  1  0
  4  2  1  0
  5  6  1  0
  5  4  1  0
  6  7  1  1
  8 12  1  0
  8  6  1  0
  9  8  2  0
 11 10  1  1
 11 13  1  0
 11 12  1  0
 13 14  2  0
 15 16  1  0
 15 13  1  0
 16 17  1  1
 18 17  1  0
 19 18  2  0
 20 19  1  0
 21 20  1  0
 21 26  2  0
 22 23  2  0
 22 21  1  0
 23 24  1  0
 24 25  2  0
 26 25  1  0
 26 18  1  0
 27 16  1  0
 27 28  1  0
 29 27  2  0
M  END
$$$$
