QAW.pdb
     RDKit          3D

 29 30  0  0  1  0  0  0  0  0999 V2000
    7.1557  -20.9343   16.8865 N   0  0  0  0  0  0  0  0  0  0  0  0
    6.2766  -19.8484   17.0230 C   0  0  0  0  0  0  0  0  0  0  0  0
    5.1378  -19.9123   16.4931 O   0  0  0  0  0  0  0  0  0  0  0  0
    6.6246  -18.6242   17.7718 C   0  0  0  0  0  0  0  0  0  0  0  0
    8.0061  -18.6187   18.3489 C   0  0  0  0  0  0  0  0  0  0  0  0
    8.0916  -18.3458   19.8026 C   0  0  2  0  0  0  0  0  0  0  0  0
    6.7387  -18.5250   20.3978 N   0  0  0  0  0  0  0  0  0  0  0  0
    8.6123  -17.0542   20.2307 C   0  0  0  0  0  0  0  0  0  0  0  0
    9.7415  -16.6110   19.8221 O   0  0  0  0  0  0  0  0  0  0  0  0
    7.1802  -13.9879   21.5914 C   0  0  0  0  0  0  0  0  0  0  0  0
    8.3767  -14.8956   21.4477 C   0  0  2  0  0  0  0  0  0  0  0  0
    7.8896  -16.2217   21.1249 N   0  0  0  0  0  0  0  0  0  0  0  0
    9.1861  -14.9641   22.6775 C   0  0  0  0  0  0  0  0  0  0  0  0
   10.0288  -14.0667   22.9284 O   0  0  0  0  0  0  0  0  0  0  0  0
    9.0749  -16.0103   23.6303 N   0  0  0  0  0  0  0  0  0  0  0  0
   10.1248  -16.2577   24.5965 C   0  0  1  0  0  0  0  0  0  0  0  0
    9.9505  -15.1711   25.6679 C   0  0  0  0  0  0  0  0  0  0  0  0
    8.4874  -15.0078   25.8688 C   0  0  0  0  0  0  0  0  0  0  0  0
    7.5053  -15.9917   25.8280 C   0  0  0  0  0  0  0  0  0  0  0  0
    6.3190  -15.4121   26.0593 N   0  0  0  0  0  0  0  0  0  0  0  0
    6.4450  -14.0807   26.2560 C   0  0  0  0  0  0  0  0  0  0  0  0
    5.5363  -13.0706   26.5237 C   0  0  0  0  0  0  0  0  0  0  0  0
    5.9712  -11.7735   26.6793 C   0  0  0  0  0  0  0  0  0  0  0  0
    7.3209  -11.5206   26.5610 C   0  0  0  0  0  0  0  0  0  0  0  0
    8.2256  -12.5301   26.2938 C   0  0  0  0  0  0  0  0  0  0  0  0
    7.8001  -13.8353   26.1358 C   0  0  0  0  0  0  0  0  0  0  0  0
   10.0173  -17.5946   25.2077 C   0  0  0  0  0  0  0  0  0  0  0  0
   11.0328  -18.0561   26.0293 O   0  0  0  0  0  0  0  0  0  0  0  0
    9.0250  -18.3346   25.0050 O   0  0  0  0  0  0  0  0  0  0  0  0
  2  3  2  0
  2  1  1  0
  4  2  1  0
  5  6  1  0
  5  4  1  0
  6  7  1  6
  8 12  1  0
  8  6  1  0
  9  8  2  0
 11 10  1  1
 11 13  1  0
 11 12  1  0
 13 14  2  0
 15 16  1  0
 15 13  1  0
 16 17  1  1
 18 17  1  0
 19 18  2  0
 20 19  1  0
 21 20  1  0
 21 26  2  0
 22 23  2  0
 22 21  1  0
 23 24  1  0
 24 25  2  0
 26 25  1  0
 26 18  1  0
 27 16  1  0
 27 28  1  0
 29 27  2  0
M  END
$$$$
