QAW.pdb
     RDKit          3D

 29 30  0  0  1  0  0  0  0  0999 V2000
    9.4552  -12.3991   20.7892 N   0  0  0  0  0  0  0  0  0  0  0  0
    8.1302  -12.7092   21.1342 C   0  0  0  0  0  0  0  0  0  0  0  0
    7.5746  -12.0713   22.0649 O   0  0  0  0  0  0  0  0  0  0  0  0
    7.3462  -13.7543   20.4462 C   0  0  0  0  0  0  0  0  0  0  0  0
    8.1219  -14.5622   19.4527 C   0  0  0  0  0  0  0  0  0  0  0  0
    7.9503  -16.0308   19.5480 C   0  0  2  0  0  0  0  0  0  0  0  0
    6.5568  -16.3708   19.1488 N   0  0  0  0  0  0  0  0  0  0  0  0
    8.2306  -16.6749   20.8243 C   0  0  0  0  0  0  0  0  0  0  0  0
    7.2944  -17.0579   21.6086 O   0  0  0  0  0  0  0  0  0  0  0  0
   11.0327  -18.6069   22.0758 C   0  0  0  0  0  0  0  0  0  0  0  0
    9.8176  -17.7723   22.3970 C   0  0  2  0  0  0  0  0  0  0  0  0
    9.5606  -16.9098   21.2612 N   0  0  0  0  0  0  0  0  0  0  0  0
   10.0025  -16.9433   23.6014 C   0  0  0  0  0  0  0  0  0  0  0  0
   10.6038  -15.8430   23.5232 O   0  0  0  0  0  0  0  0  0  0  0  0
    9.5316  -17.3157   24.8877 N   0  0  0  0  0  0  0  0  0  0  0  0
    9.9035  -16.5633   26.0678 C   0  0  1  0  0  0  0  0  0  0  0  0
    8.6650  -16.5994   26.9755 C   0  0  0  0  0  0  0  0  0  0  0  0
    7.6338  -15.7575   26.3155 C   0  0  0  0  0  0  0  0  0  0  0  0
    6.5926  -16.1722   25.4919 C   0  0  0  0  0  0  0  0  0  0  0  0
    5.9013  -15.0892   25.1098 N   0  0  0  0  0  0  0  0  0  0  0  0
    6.4209  -13.9563   25.6332 C   0  0  0  0  0  0  0  0  0  0  0  0
    6.0724  -12.6196   25.5371 C   0  0  0  0  0  0  0  0  0  0  0  0
    6.8089  -11.6642   26.2009 C   0  0  0  0  0  0  0  0  0  0  0  0
    7.8876  -12.0791   26.9518 C   0  0  0  0  0  0  0  0  0  0  0  0
    8.2335  -13.4134   27.0461 C   0  0  0  0  0  0  0  0  0  0  0  0
    7.5012  -14.3805   26.3841 C   0  0  0  0  0  0  0  0  0  0  0  0
   11.0603  -17.1536   26.7646 C   0  0  0  0  0  0  0  0  0  0  0  0
   11.6387  -16.4775   27.8266 O   0  0  0  0  0  0  0  0  0  0  0  0
   11.5421  -18.2600   26.4224 O   0  0  0  0  0  0  0  0  0  0  0  0
  2  3  2  0
  2  1  1  0
  4  2  1  0
  5  6  1  0
  5  4  1  0
  6  7  1  1
  8 12  1  0
  8  6  1  0
  9  8  2  0
 11 10  1  6
 11 13  1  0
 11 12  1  0
 13 14  2  0
 15 16  1  0
 15 13  1  0
 16 17  1  1
 18 17  1  0
 19 18  2  0
 20 19  1  0
 21 20  1  0
 21 26  2  0
 22 23  2  0
 22 21  1  0
 23 24  1  0
 24 25  2  0
 26 25  1  0
 26 18  1  0
 27 16  1  0
 27 28  1  0
 29 27  2  0
M  END
$$$$
