QAW.pdb
     RDKit          3D

 29 30  0  0  1  0  0  0  0  0999 V2000
    5.2359  -19.1643   16.4876 N   0  0  0  0  0  0  0  0  0  0  0  0
    6.6005  -19.0074   16.7775 C   0  0  0  0  0  0  0  0  0  0  0  0
    7.4530  -19.3817   15.9320 O   0  0  0  0  0  0  0  0  0  0  0  0
    7.0892  -18.4121   18.0373 C   0  0  0  0  0  0  0  0  0  0  0  0
    7.2476  -19.3839   19.1651 C   0  0  0  0  0  0  0  0  0  0  0  0
    7.7649  -18.8158   20.4320 C   0  0  2  0  0  0  0  0  0  0  0  0
    6.8051  -19.1409   21.5227 N   0  0  0  0  0  0  0  0  0  0  0  0
    8.0465  -17.3872   20.4810 C   0  0  0  0  0  0  0  0  0  0  0  0
    8.9438  -16.8490   19.7438 O   0  0  0  0  0  0  0  0  0  0  0  0
    6.4231  -14.3217   21.5618 C   0  0  0  0  0  0  0  0  0  0  0  0
    7.6982  -15.1200   21.4478 C   0  0  2  0  0  0  0  0  0  0  0  0
    7.3364  -16.5200   21.3521 N   0  0  0  0  0  0  0  0  0  0  0  0
    8.5906  -14.9296   22.6052 C   0  0  0  0  0  0  0  0  0  0  0  0
    9.1657  -13.8268   22.7830 O   0  0  0  0  0  0  0  0  0  0  0  0
    8.8538  -15.9413   23.5654 N   0  0  0  0  0  0  0  0  0  0  0  0
    9.8899  -15.7749   24.5633 C   0  0  1  0  0  0  0  0  0  0  0  0
    9.2466  -16.2104   25.8883 C   0  0  0  0  0  0  0  0  0  0  0  0
    7.9795  -15.4445   26.0137 C   0  0  0  0  0  0  0  0  0  0  0  0
    6.6858  -15.8879   25.7608 C   0  0  0  0  0  0  0  0  0  0  0  0
    5.8401  -14.8751   25.9970 N   0  0  0  0  0  0  0  0  0  0  0  0
    6.4948  -13.7628   26.3987 C   0  0  0  0  0  0  0  0  0  0  0  0
    6.0765  -12.4914   26.7535 C   0  0  0  0  0  0  0  0  0  0  0  0
    6.9986  -11.5407   27.1301 C   0  0  0  0  0  0  0  0  0  0  0  0
    8.3308  -11.8941   27.1409 C   0  0  0  0  0  0  0  0  0  0  0  0
    8.7458  -13.1633   26.7864 C   0  0  0  0  0  0  0  0  0  0  0  0
    7.8288  -14.1251   26.4069 C   0  0  0  0  0  0  0  0  0  0  0  0
   11.0763  -16.6021   24.2795 C   0  0  0  0  0  0  0  0  0  0  0  0
   12.1998  -16.4871   25.0819 O   0  0  0  0  0  0  0  0  0  0  0  0
   11.1004  -17.4150   23.3245 O   0  0  0  0  0  0  0  0  0  0  0  0
  2  3  2  0
  2  1  1  0
  4  2  1  0
  5  6  1  0
  5  4  1  0
  6  7  1  1
  8 12  1  0
  8  6  1  0
  9  8  2  0
 11 10  1  1
 11 13  1  0
 11 12  1  0
 13 14  2  0
 15 16  1  0
 15 13  1  0
 16 17  1  1
 18 17  1  0
 19 18  2  0
 20 19  1  0
 21 20  1  0
 21 26  2  0
 22 23  2  0
 22 21  1  0
 23 24  1  0
 24 25  2  0
 26 25  1  0
 26 18  1  0
 27 16  1  0
 27 28  1  0
 29 27  2  0
M  END
$$$$
