QAW.pdb
     RDKit          3D

 29 30  0  0  1  0  0  0  0  0999 V2000
    9.4123  -11.8375   18.7754 N   0  0  0  0  0  0  0  0  0  0  0  0
    8.4935  -12.8644   18.5069 C   0  0  0  0  0  0  0  0  0  0  0  0
    8.7196  -13.6546   17.5549 O   0  0  0  0  0  0  0  0  0  0  0  0
    7.2648  -13.0685   19.2999 C   0  0  0  0  0  0  0  0  0  0  0  0
    7.4489  -13.9007   20.5308 C   0  0  0  0  0  0  0  0  0  0  0  0
    7.9779  -15.2664   20.3071 C   0  0  2  0  0  0  0  0  0  0  0  0
    7.0109  -16.0149   19.4579 N   0  0  0  0  0  0  0  0  0  0  0  0
    8.2904  -16.0826   21.4728 C   0  0  0  0  0  0  0  0  0  0  0  0
    7.4067  -16.3716   22.3526 O   0  0  0  0  0  0  0  0  0  0  0  0
   11.0881  -18.3012   22.4530 C   0  0  0  0  0  0  0  0  0  0  0  0
    9.8501  -17.5073   22.7895 C   0  0  2  0  0  0  0  0  0  0  0  0
    9.5948  -16.5989   21.6897 N   0  0  0  0  0  0  0  0  0  0  0  0
    9.9964  -16.7308   24.0337 C   0  0  0  0  0  0  0  0  0  0  0  0
   10.4804  -15.5719   24.0004 O   0  0  0  0  0  0  0  0  0  0  0  0
    9.6148  -17.2194   25.3106 N   0  0  0  0  0  0  0  0  0  0  0  0
    9.9847  -16.5174   26.5220 C   0  0  1  0  0  0  0  0  0  0  0  0
    8.7166  -16.5135   27.3885 C   0  0  0  0  0  0  0  0  0  0  0  0
    7.7417  -15.6244   26.7052 C   0  0  0  0  0  0  0  0  0  0  0  0
    6.6546  -15.9935   25.9201 C   0  0  0  0  0  0  0  0  0  0  0  0
    6.0431  -14.8783   25.4970 N   0  0  0  0  0  0  0  0  0  0  0  0
    6.6606  -13.7668   25.9560 C   0  0  0  0  0  0  0  0  0  0  0  0
    6.4164  -12.4127   25.8006 C   0  0  0  0  0  0  0  0  0  0  0  0
    7.2391  -11.4885   26.4048 C   0  0  0  0  0  0  0  0  0  0  0  0
    8.2968  -11.9519   27.1573 C   0  0  0  0  0  0  0  0  0  0  0  0
    8.5385  -13.3035   27.3108 C   0  0  0  0  0  0  0  0  0  0  0  0
    7.7192  -14.2396   26.7088 C   0  0  0  0  0  0  0  0  0  0  0  0
   11.0868  -17.1837   27.2387 C   0  0  0  0  0  0  0  0  0  0  0  0
   11.6610  -16.5667   28.3383 O   0  0  0  0  0  0  0  0  0  0  0  0
   11.5252  -18.3030   26.8805 O   0  0  0  0  0  0  0  0  0  0  0  0
  2  3  2  0
  2  1  1  0
  4  2  1  0
  5  6  1  0
  5  4  1  0
  6  7  1  6
  8 12  1  0
  8  6  1  0
  9  8  2  0
 11 10  1  6
 11 13  1  0
 11 12  1  0
 13 14  2  0
 15 16  1  0
 15 13  1  0
 16 17  1  1
 18 17  1  0
 19 18  2  0
 20 19  1  0
 21 20  1  0
 21 26  2  0
 22 23  2  0
 22 21  1  0
 23 24  1  0
 24 25  2  0
 26 25  1  0
 26 18  1  0
 27 16  1  0
 27 28  1  0
 29 27  2  0
M  END
$$$$
