QAW.pdb
     RDKit          3D

 29 30  0  0  1  0  0  0  0  0999 V2000
    9.8319  -19.9655   16.3731 N   0  0  0  0  0  0  0  0  0  0  0  0
   10.9253  -19.2437   16.8775 C   0  0  0  0  0  0  0  0  0  0  0  0
   11.7624  -19.8322   17.6087 O   0  0  0  0  0  0  0  0  0  0  0  0
   11.1465  -17.8138   16.5832 C   0  0  0  0  0  0  0  0  0  0  0  0
   11.0399  -16.9095   17.7717 C   0  0  0  0  0  0  0  0  0  0  0  0
    9.7932  -16.1139   17.8610 C   0  0  2  0  0  0  0  0  0  0  0  0
    9.8481  -15.0327   16.8389 N   0  0  0  0  0  0  0  0  0  0  0  0
    9.4504  -15.5139   19.1437 C   0  0  0  0  0  0  0  0  0  0  0  0
   10.0993  -14.5186   19.6198 O   0  0  0  0  0  0  0  0  0  0  0  0
    6.5999  -15.6669   21.4925 C   0  0  0  0  0  0  0  0  0  0  0  0
    8.0532  -15.3868   21.1998 C   0  0  2  0  0  0  0  0  0  0  0  0
    8.3760  -16.0061   19.9301 N   0  0  0  0  0  0  0  0  0  0  0  0
    8.9527  -15.9183   22.2393 C   0  0  0  0  0  0  0  0  0  0  0  0
    9.6945  -16.9008   21.9888 O   0  0  0  0  0  0  0  0  0  0  0  0
    9.0412  -15.3777   23.5488 N   0  0  0  0  0  0  0  0  0  0  0  0
    9.9306  -15.9516   24.5371 C   0  0  1  0  0  0  0  0  0  0  0  0
    9.8456  -15.0122   25.7493 C   0  0  0  0  0  0  0  0  0  0  0  0
    8.4004  -14.7657   25.9913 C   0  0  0  0  0  0  0  0  0  0  0  0
    7.3844  -15.7064   26.1222 C   0  0  0  0  0  0  0  0  0  0  0  0
    6.2314  -15.0546   26.3280 N   0  0  0  0  0  0  0  0  0  0  0  0
    6.4123  -13.7151   26.3439 C   0  0  0  0  0  0  0  0  0  0  0  0
    5.5528  -12.6433   26.5174 C   0  0  0  0  0  0  0  0  0  0  0  0
    6.0389  -11.3555   26.4834 C   0  0  0  0  0  0  0  0  0  0  0  0
    7.3891  -11.1744   26.2739 C   0  0  0  0  0  0  0  0  0  0  0  0
    8.2446  -12.2454   26.1010 C   0  0  0  0  0  0  0  0  0  0  0  0
    7.7675  -13.5419   26.1333 C   0  0  0  0  0  0  0  0  0  0  0  0
    9.5293  -17.3161   24.9237 C   0  0  0  0  0  0  0  0  0  0  0  0
   10.4244  -18.1273   25.6019 O   0  0  0  0  0  0  0  0  0  0  0  0
    8.3912  -17.7699   24.6551 O   0  0  0  0  0  0  0  0  0  0  0  0
  2  3  2  0
  2  1  1  0
  4  2  1  0
  5  6  1  0
  5  4  1  0
  6  7  1  6
  8 12  1  0
  8  6  1  0
  9  8  2  0
 11 10  1  1
 11 13  1  0
 11 12  1  0
 13 14  2  0
 15 16  1  0
 15 13  1  0
 16 17  1  1
 18 17  1  0
 19 18  2  0
 20 19  1  0
 21 20  1  0
 21 26  2  0
 22 23  2  0
 22 21  1  0
 23 24  1  0
 24 25  2  0
 26 25  1  0
 26 18  1  0
 27 16  1  0
 27 28  1  0
 29 27  2  0
M  END
$$$$
