QAW.pdb
     RDKit          3D

 29 30  0  0  1  0  0  0  0  0999 V2000
    9.2620  -11.5928   19.3592 N   0  0  0  0  0  0  0  0  0  0  0  0
    8.5793  -12.5331   18.5715 C   0  0  0  0  0  0  0  0  0  0  0  0
    9.0899  -12.9073   17.4847 O   0  0  0  0  0  0  0  0  0  0  0  0
    7.2804  -13.1156   18.9636 C   0  0  0  0  0  0  0  0  0  0  0  0
    7.3581  -14.1262   20.0654 C   0  0  0  0  0  0  0  0  0  0  0  0
    8.1239  -15.3557   19.7537 C   0  0  2  0  0  0  0  0  0  0  0  0
    7.5166  -16.0002   18.5567 N   0  0  0  0  0  0  0  0  0  0  0  0
    8.2605  -16.3640   20.7963 C   0  0  0  0  0  0  0  0  0  0  0  0
    7.3116  -17.1741   21.0823 O   0  0  0  0  0  0  0  0  0  0  0  0
   10.5538  -18.5190   22.1969 C   0  0  0  0  0  0  0  0  0  0  0  0
    9.5481  -17.4747   22.6142 C   0  0  2  0  0  0  0  0  0  0  0  0
    9.4572  -16.4974   21.5481 N   0  0  0  0  0  0  0  0  0  0  0  0
    9.9265  -16.7922   23.8645 C   0  0  0  0  0  0  0  0  0  0  0  0
   10.7093  -15.8099   23.8346 O   0  0  0  0  0  0  0  0  0  0  0  0
    9.4507  -17.1819   25.1438 N   0  0  0  0  0  0  0  0  0  0  0  0
    9.9754  -16.5814   26.3526 C   0  0  1  0  0  0  0  0  0  0  0  0
    8.7744  -16.4761   27.3041 C   0  0  0  0  0  0  0  0  0  0  0  0
    7.7552  -15.6495   26.6071 C   0  0  0  0  0  0  0  0  0  0  0  0
    6.6546  -16.0872   25.8782 C   0  0  0  0  0  0  0  0  0  0  0  0
    6.0005  -15.0119   25.4171 N   0  0  0  0  0  0  0  0  0  0  0  0
    6.6020  -13.8623   25.7966 C   0  0  0  0  0  0  0  0  0  0  0  0
    6.3169  -12.5250   25.5783 C   0  0  0  0  0  0  0  0  0  0  0  0
    7.1329  -11.5495   26.1060 C   0  0  0  0  0  0  0  0  0  0  0  0
    8.2256  -11.9453   26.8470 C   0  0  0  0  0  0  0  0  0  0  0  0
    8.5080  -13.2803   27.0635 C   0  0  0  0  0  0  0  0  0  0  0  0
    7.6958  -14.2675   26.5385 C   0  0  0  0  0  0  0  0  0  0  0  0
   11.0383  -17.3979   26.9656 C   0  0  0  0  0  0  0  0  0  0  0  0
   11.7616  -16.8916   28.0333 O   0  0  0  0  0  0  0  0  0  0  0  0
   11.3109  -18.5483   26.5465 O   0  0  0  0  0  0  0  0  0  0  0  0
  2  3  2  0
  2  1  1  0
  4  2  1  0
  5  6  1  0
  5  4  1  0
  6  7  1  6
  8 12  1  0
  8  6  1  0
  9  8  2  0
 11 10  1  6
 11 13  1  0
 11 12  1  0
 13 14  2  0
 15 16  1  0
 15 13  1  0
 16 17  1  1
 18 17  1  0
 19 18  2  0
 20 19  1  0
 21 20  1  0
 21 26  2  0
 22 23  2  0
 22 21  1  0
 23 24  1  0
 24 25  2  0
 26 25  1  0
 26 18  1  0
 27 16  1  0
 27 28  1  0
 29 27  2  0
M  END
$$$$
