QAW.pdb
     RDKit          3D

 29 30  0  0  1  0  0  0  0  0999 V2000
    9.3392  -12.0951   18.2403 N   0  0  0  0  0  0  0  0  0  0  0  0
    8.0723  -12.5290   18.6616 C   0  0  0  0  0  0  0  0  0  0  0  0
    7.0675  -11.8132   18.4170 O   0  0  0  0  0  0  0  0  0  0  0  0
    7.8584  -13.8012   19.3798 C   0  0  0  0  0  0  0  0  0  0  0  0
    9.1146  -14.4888   19.8164 C   0  0  0  0  0  0  0  0  0  0  0  0
    9.0305  -15.9636   19.9315 C   0  0  2  0  0  0  0  0  0  0  0  0
    7.9358  -16.4454   19.0448 N   0  0  0  0  0  0  0  0  0  0  0  0
    8.8346  -16.5404   21.2549 C   0  0  0  0  0  0  0  0  0  0  0  0
    7.7400  -16.3927   21.9018 O   0  0  0  0  0  0  0  0  0  0  0  0
   10.3575  -19.2969   23.0998 C   0  0  0  0  0  0  0  0  0  0  0  0
    9.5734  -18.0082   23.1247 C   0  0  2  0  0  0  0  0  0  0  0  0
    9.8520  -17.2971   21.8931 N   0  0  0  0  0  0  0  0  0  0  0  0
    9.9299  -17.1507   24.2691 C   0  0  0  0  0  0  0  0  0  0  0  0
   10.7713  -16.2284   24.1279 O   0  0  0  0  0  0  0  0  0  0  0  0
    9.3687  -17.3007   25.5642 N   0  0  0  0  0  0  0  0  0  0  0  0
    9.8815  -16.5533   26.6936 C   0  0  1  0  0  0  0  0  0  0  0  0
    8.6791  -16.3631   27.6302 C   0  0  0  0  0  0  0  0  0  0  0  0
    7.7065  -15.5095   26.8999 C   0  0  0  0  0  0  0  0  0  0  0  0
    6.5747  -15.9129   26.1995 C   0  0  0  0  0  0  0  0  0  0  0  0
    5.9839  -14.8226   25.6907 N   0  0  0  0  0  0  0  0  0  0  0  0
    6.6582  -13.6955   26.0105 C   0  0  0  0  0  0  0  0  0  0  0  0
    6.4539  -12.3551   25.7292 C   0  0  0  0  0  0  0  0  0  0  0  0
    7.3329  -11.4077   26.2042 C   0  0  0  0  0  0  0  0  0  0  0  0
    8.4057  -11.8343   26.9571 C   0  0  0  0  0  0  0  0  0  0  0  0
    8.6075  -13.1722   27.2364 C   0  0  0  0  0  0  0  0  0  0  0  0
    7.7315  -14.1313   26.7648 C   0  0  0  0  0  0  0  0  0  0  0  0
   10.9615  -17.2712   27.3940 C   0  0  0  0  0  0  0  0  0  0  0  0
   11.6905  -16.6220   28.3772 O   0  0  0  0  0  0  0  0  0  0  0  0
   11.2437  -18.4633   27.1249 O   0  0  0  0  0  0  0  0  0  0  0  0
  2  3  2  0
  2  1  1  0
  4  2  1  0
  5  6  1  0
  5  4  1  0
  6  7  1  6
  8 12  1  0
  8  6  1  0
  9  8  2  0
 11 10  1  6
 11 13  1  0
 11 12  1  0
 13 14  2  0
 15 16  1  0
 15 13  1  0
 16 17  1  1
 18 17  1  0
 19 18  2  0
 20 19  1  0
 21 20  1  0
 21 26  2  0
 22 23  2  0
 22 21  1  0
 23 24  1  0
 24 25  2  0
 26 25  1  0
 26 18  1  0
 27 16  1  0
 27 28  1  0
 29 27  2  0
M  END
$$$$
