QAW.pdb
     RDKit          3D

 29 30  0  0  1  0  0  0  0  0999 V2000
    6.3486  -21.1824   17.5113 N   0  0  0  0  0  0  0  0  0  0  0  0
    5.9002  -19.8563   17.6177 C   0  0  0  0  0  0  0  0  0  0  0  0
    4.8957  -19.4946   16.9529 O   0  0  0  0  0  0  0  0  0  0  0  0
    6.5531  -18.8563   18.4860 C   0  0  0  0  0  0  0  0  0  0  0  0
    7.8049  -19.3341   19.1541 C   0  0  0  0  0  0  0  0  0  0  0  0
    8.0656  -18.7743   20.5009 C   0  0  2  0  0  0  0  0  0  0  0  0
    6.8490  -18.9678   21.3370 N   0  0  0  0  0  0  0  0  0  0  0  0
    8.4708  -17.3783   20.5991 C   0  0  0  0  0  0  0  0  0  0  0  0
    9.5174  -16.9349   20.0105 O   0  0  0  0  0  0  0  0  0  0  0  0
    6.9654  -14.1756   21.4823 C   0  0  0  0  0  0  0  0  0  0  0  0
    8.1800  -15.0706   21.4857 C   0  0  2  0  0  0  0  0  0  0  0  0
    7.7214  -16.4390   21.3549 N   0  0  0  0  0  0  0  0  0  0  0  0
    8.9738  -14.9428   22.7209 C   0  0  0  0  0  0  0  0  0  0  0  0
    9.5428  -13.8568   22.9952 O   0  0  0  0  0  0  0  0  0  0  0  0
    9.1454  -15.9989   23.6536 N   0  0  0  0  0  0  0  0  0  0  0  0
   10.0223  -15.8530   24.7969 C   0  0  1  0  0  0  0  0  0  0  0  0
    9.1750  -16.2657   26.0097 C   0  0  0  0  0  0  0  0  0  0  0  0
    7.9598  -15.4111   25.9857 C   0  0  0  0  0  0  0  0  0  0  0  0
    6.6600  -15.7846   25.6611 C   0  0  0  0  0  0  0  0  0  0  0  0
    5.8734  -14.7043   25.7646 N   0  0  0  0  0  0  0  0  0  0  0  0
    6.5740  -13.6124   26.1441 C   0  0  0  0  0  0  0  0  0  0  0  0
    6.2222  -12.2945   26.3826 C   0  0  0  0  0  0  0  0  0  0  0  0
    7.1792  -11.3829   26.7685 C   0  0  0  0  0  0  0  0  0  0  0  0
    8.4784  -11.8218   26.9065 C   0  0  0  0  0  0  0  0  0  0  0  0
    8.8271  -13.1372   26.6679 C   0  0  0  0  0  0  0  0  0  0  0  0
    7.8747  -14.0604   26.2802 C   0  0  0  0  0  0  0  0  0  0  0  0
   11.2168  -16.7104   24.6971 C   0  0  0  0  0  0  0  0  0  0  0  0
   11.3176  -17.6276   23.6637 O   0  0  0  0  0  0  0  0  0  0  0  0
   12.1543  -16.6347   25.5270 O   0  0  0  0  0  0  0  0  0  0  0  0
  2  3  2  0
  2  1  1  0
  4  2  1  0
  5  6  1  0
  5  4  1  0
  6  7  1  1
  8 12  1  0
  8  6  1  0
  9  8  2  0
 11 10  1  1
 11 13  1  0
 11 12  1  0
 13 14  2  0
 15 16  1  0
 15 13  1  0
 16 17  1  1
 18 17  1  0
 19 18  2  0
 20 19  1  0
 21 20  1  0
 21 26  2  0
 22 23  2  0
 22 21  1  0
 23 24  1  0
 24 25  2  0
 26 25  1  0
 26 18  1  0
 27 16  1  0
 27 28  1  0
 29 27  2  0
M  END
$$$$
