VDR.pdb
     RDKit          3D

 27 26  0  0  1  0  0  0  0  0999 V2000
    8.4277  -12.7910   20.8373 C   0  0  0  0  0  0  0  0  0  0  0  0
    7.5814  -13.6648   19.9099 C   0  0  1  0  0  0  0  0  0  0  0  0
    6.8723  -12.8393   18.8772 C   0  0  0  0  0  0  0  0  0  0  0  0
    8.4677  -14.7178   19.3172 C   0  0  2  0  0  0  0  0  0  0  0  0
    7.8412  -15.4958   18.2942 N   0  0  0  0  0  0  0  0  0  0  0  0
    9.0663  -15.5368   20.4032 C   0  0  0  0  0  0  0  0  0  0  0  0
    8.4110  -16.5324   20.7901 O   0  0  0  0  0  0  0  0  0  0  0  0
   10.3200  -15.2238   20.9887 N   0  0  0  0  0  0  0  0  0  0  0  0
   10.8349  -15.9945   22.1020 C   0  0  1  0  0  0  0  0  0  0  0  0
   12.3169  -16.1868   22.0523 C   0  0  0  0  0  0  0  0  0  0  0  0
   12.7928  -16.8846   20.8460 C   0  0  0  0  0  0  0  0  0  0  0  0
   12.3193  -18.0202   20.5977 O   0  0  0  0  0  0  0  0  0  0  0  0
   10.5083  -15.3651   23.4056 C   0  0  0  0  0  0  0  0  0  0  0  0
   11.3756  -14.6764   23.9921 O   0  0  0  0  0  0  0  0  0  0  0  0
   13.7309  -16.3670   19.9667 O   0  0  0  0  0  0  0  0  0  0  0  0
    7.1582  -20.7537   28.6719 N   0  0  0  0  0  0  0  0  0  0  0  0
    6.4653  -21.0886   27.4512 C   0  0  0  0  0  0  0  0  0  0  0  0
    5.9502  -22.2609   27.3370 N   0  0  0  0  0  0  0  0  0  0  0  0
    6.3471  -20.1658   26.4013 N   0  0  0  0  0  0  0  0  0  0  0  0
    7.1139  -18.8895   26.4501 C   0  0  0  0  0  0  0  0  0  0  0  0
    8.0033  -18.8173   25.2721 C   0  0  0  0  0  0  0  0  0  0  0  0
    8.3012  -17.5751   24.5999 C   0  0  0  0  0  0  0  0  0  0  0  0
    9.0590  -16.4413   25.1459 C   0  0  2  0  0  0  0  0  0  0  0  0
    9.2503  -15.5410   23.9669 N   0  0  0  0  0  0  0  0  0  0  0  0
   10.3553  -16.6428   25.7735 C   0  0  0  0  0  0  0  0  0  0  0  0
   11.2797  -17.2226   25.0937 O   0  0  0  0  0  0  0  0  0  0  0  0
   10.7113  -16.2714   27.0289 O   0  0  0  0  0  0  0  0  0  0  0  0
  2  1  1  6
  3  2  1  0
  4  2  1  0
  4  5  1  6
  6  7  2  0
  6  4  1  0
  8  6  1  0
  9  8  1  0
 10 11  1  0
  9 10  1  6
 11 12  2  0
 13 24  1  0
 13  9  1  0
 14 13  2  0
 15 11  1  0
 17 16  1  0
 18 17  2  0
 19 17  1  0
 20 21  1  0
 20 19  1  0
 23 22  1  6
 22 21  1  0
 23 25  1  0
 23 24  1  0
 25 27  1  0
 26 25  2  0
M  END
$$$$
