VDR.pdb
     RDKit          3D

 27 26  0  0  1  0  0  0  0  0999 V2000
    7.9321  -12.3250   19.0695 C   0  0  0  0  0  0  0  0  0  0  0  0
    8.3974  -13.3773   20.0774 C   0  0  1  0  0  0  0  0  0  0  0  0
    7.5612  -13.3493   21.3225 C   0  0  0  0  0  0  0  0  0  0  0  0
    8.3987  -14.7124   19.3969 C   0  0  2  0  0  0  0  0  0  0  0  0
    7.1409  -15.0708   18.8190 N   0  0  0  0  0  0  0  0  0  0  0  0
    8.9438  -15.7428   20.3185 C   0  0  0  0  0  0  0  0  0  0  0  0
    8.1161  -16.5014   20.8750 O   0  0  0  0  0  0  0  0  0  0  0  0
   10.3333  -15.8787   20.5707 N   0  0  0  0  0  0  0  0  0  0  0  0
   10.8344  -16.9319   21.4299 C   0  0  1  0  0  0  0  0  0  0  0  0
   12.2334  -17.3458   21.1026 C   0  0  0  0  0  0  0  0  0  0  0  0
   12.7375  -18.4619   21.9205 C   0  0  0  0  0  0  0  0  0  0  0  0
   11.9313  -19.3700   22.2377 O   0  0  0  0  0  0  0  0  0  0  0  0
   10.8072  -16.5362   22.8598 C   0  0  0  0  0  0  0  0  0  0  0  0
   11.2339  -15.4065   23.1951 O   0  0  0  0  0  0  0  0  0  0  0  0
   14.0463  -18.5735   22.3627 O   0  0  0  0  0  0  0  0  0  0  0  0
    4.9173  -12.8547   26.4497 N   0  0  0  0  0  0  0  0  0  0  0  0
    6.1651  -12.2174   26.1050 C   0  0  0  0  0  0  0  0  0  0  0  0
    6.2471  -10.9373   26.1902 N   0  0  0  0  0  0  0  0  0  0  0  0
    7.2753  -12.9643   25.6838 N   0  0  0  0  0  0  0  0  0  0  0  0
    7.2941  -14.4396   25.8900 C   0  0  0  0  0  0  0  0  0  0  0  0
    8.4995  -15.0001   25.2447 C   0  0  0  0  0  0  0  0  0  0  0  0
    8.8310  -16.4037   25.3066 C   0  0  0  0  0  0  0  0  0  0  0  0
   10.1758  -16.9917   25.2433 C   0  0  2  0  0  0  0  0  0  0  0  0
   10.3120  -17.4142   23.8150 N   0  0  0  0  0  0  0  0  0  0  0  0
   10.5363  -18.1225   26.0837 C   0  0  0  0  0  0  0  0  0  0  0  0
   10.4842  -17.9764   27.3599 O   0  0  0  0  0  0  0  0  0  0  0  0
   10.9263  -19.3512   25.6606 O   0  0  0  0  0  0  0  0  0  0  0  0
  2  1  1  6
  3  2  1  0
  4  2  1  0
  4  5  1  1
  6  7  2  0
  6  4  1  0
  8  6  1  0
  9  8  1  0
 10 11  1  0
  9 10  1  6
 11 12  2  0
 13 24  1  0
 13  9  1  0
 14 13  2  0
 15 11  1  0
 17 16  1  0
 18 17  2  0
 19 17  1  0
 20 21  1  0
 20 19  1  0
 23 22  1  6
 22 21  1  0
 23 25  1  0
 23 24  1  0
 25 27  1  0
 26 25  2  0
M  END
$$$$
