VDR.pdb
     RDKit          3D

 27 26  0  0  1  0  0  0  0  0999 V2000
    9.0992  -13.0643   20.9579 C   0  0  0  0  0  0  0  0  0  0  0  0
    7.9381  -13.6851   20.1794 C   0  0  1  0  0  0  0  0  0  0  0  0
    7.3265  -12.6977   19.2299 C   0  0  0  0  0  0  0  0  0  0  0  0
    8.4359  -14.9255   19.5016 C   0  0  2  0  0  0  0  0  0  0  0  0
    7.4766  -15.5400   18.6376 N   0  0  0  0  0  0  0  0  0  0  0  0
    9.0046  -15.8539   20.5130 C   0  0  0  0  0  0  0  0  0  0  0  0
    8.1926  -16.5595   21.1557 O   0  0  0  0  0  0  0  0  0  0  0  0
   10.3989  -15.9527   20.7555 N   0  0  0  0  0  0  0  0  0  0  0  0
   10.9194  -16.8772   21.7419 C   0  0  1  0  0  0  0  0  0  0  0  0
   12.3932  -17.0997   21.6234 C   0  0  0  0  0  0  0  0  0  0  0  0
   12.9118  -18.1698   22.4921 C   0  0  0  0  0  0  0  0  0  0  0  0
   12.0830  -18.9389   23.0371 O   0  0  0  0  0  0  0  0  0  0  0  0
   10.6454  -16.4179   23.1260 C   0  0  0  0  0  0  0  0  0  0  0  0
   11.1735  -15.3596   23.5403 O   0  0  0  0  0  0  0  0  0  0  0  0
   14.2576  -18.3820   22.7464 O   0  0  0  0  0  0  0  0  0  0  0  0
    6.5470  -12.0670   24.4527 N   0  0  0  0  0  0  0  0  0  0  0  0
    6.3060  -12.2117   25.8681 C   0  0  0  0  0  0  0  0  0  0  0  0
    5.3678  -11.5177   26.4073 N   0  0  0  0  0  0  0  0  0  0  0  0
    7.0705  -13.0869   26.6539 N   0  0  0  0  0  0  0  0  0  0  0  0
    8.0247  -14.0250   25.9991 C   0  0  0  0  0  0  0  0  0  0  0  0
    7.4493  -15.3860   26.0160 C   0  0  0  0  0  0  0  0  0  0  0  0
    8.1234  -16.5206   25.4311 C   0  0  0  0  0  0  0  0  0  0  0  0
    9.5740  -16.7439   25.3695 C   0  0  2  0  0  0  0  0  0  0  0  0
    9.8098  -17.1585   23.9519 N   0  0  0  0  0  0  0  0  0  0  0  0
   10.2167  -17.7187   26.2365 C   0  0  0  0  0  0  0  0  0  0  0  0
   10.4528  -18.8920   25.7670 O   0  0  0  0  0  0  0  0  0  0  0  0
   10.6123  -17.5219   27.5192 O   0  0  0  0  0  0  0  0  0  0  0  0
  2  1  1  6
  3  2  1  0
  4  2  1  0
  4  5  1  1
  6  7  2  0
  6  4  1  0
  8  6  1  0
  9  8  1  0
 10 11  1  0
  9 10  1  1
 11 12  2  0
 13 24  1  0
 13  9  1  0
 14 13  2  0
 15 11  1  0
 17 16  1  0
 18 17  2  0
 19 17  1  0
 20 21  1  0
 20 19  1  0
 23 22  1  1
 22 21  1  0
 23 25  1  0
 23 24  1  0
 25 27  1  0
 26 25  2  0
M  END
$$$$
