VDR.pdb
     RDKit          3D

 27 26  0  0  1  0  0  0  0  0999 V2000
    7.7500  -13.9963   21.0236 C   0  0  0  0  0  0  0  0  0  0  0  0
    8.5099  -14.0744   19.6984 C   0  0  1  0  0  0  0  0  0  0  0  0
    8.1077  -12.9658   18.7712 C   0  0  0  0  0  0  0  0  0  0  0  0
    9.9781  -14.0900   19.9982 C   0  0  2  0  0  0  0  0  0  0  0  0
   10.8083  -13.9498   18.8426 N   0  0  0  0  0  0  0  0  0  0  0  0
   10.3071  -15.2803   20.8247 C   0  0  0  0  0  0  0  0  0  0  0  0
    9.4956  -15.5847   21.7297 O   0  0  0  0  0  0  0  0  0  0  0  0
   11.4801  -16.0505   20.6157 N   0  0  0  0  0  0  0  0  0  0  0  0
   11.8088  -17.1584   21.4892 C   0  0  1  0  0  0  0  0  0  0  0  0
   13.1609  -17.7389   21.2241 C   0  0  0  0  0  0  0  0  0  0  0  0
   13.3715  -18.1608   19.8290 C   0  0  0  0  0  0  0  0  0  0  0  0
   12.3638  -18.4792   19.1520 O   0  0  0  0  0  0  0  0  0  0  0  0
   11.7627  -16.7649   22.9192 C   0  0  0  0  0  0  0  0  0  0  0  0
   12.4922  -15.8303   23.3253 O   0  0  0  0  0  0  0  0  0  0  0  0
   14.6124  -18.2287   19.2154 O   0  0  0  0  0  0  0  0  0  0  0  0
    6.4660  -14.3349   22.9549 N   0  0  0  0  0  0  0  0  0  0  0  0
    6.1185  -15.6937   22.6156 C   0  0  0  0  0  0  0  0  0  0  0  0
    5.7939  -15.9615   21.4009 N   0  0  0  0  0  0  0  0  0  0  0  0
    6.1293  -16.7132   23.5792 N   0  0  0  0  0  0  0  0  0  0  0  0
    6.9558  -16.5582   24.8090 C   0  0  0  0  0  0  0  0  0  0  0  0
    8.3702  -16.8256   24.4749 C   0  0  0  0  0  0  0  0  0  0  0  0
    9.4300  -16.7250   25.4497 C   0  0  0  0  0  0  0  0  0  0  0  0
   10.8496  -17.0382   25.2385 C   0  0  2  0  0  0  0  0  0  0  0  0
   10.9163  -17.4302   23.7966 N   0  0  0  0  0  0  0  0  0  0  0  0
   11.5095  -18.0739   26.0175 C   0  0  0  0  0  0  0  0  0  0  0  0
   11.7288  -17.8537   27.2650 O   0  0  0  0  0  0  0  0  0  0  0  0
   11.9257  -19.2833   25.5648 O   0  0  0  0  0  0  0  0  0  0  0  0
  2  1  1  1
  3  2  1  0
  4  2  1  0
  4  5  1  6
  6  7  2  0
  6  4  1  0
  8  6  1  0
  9  8  1  0
 10 11  1  0
  9 10  1  6
 11 12  2  0
 13 24  1  0
 13  9  1  0
 14 13  2  0
 15 11  1  0
 17 16  1  0
 18 17  2  0
 19 17  1  0
 20 21  1  0
 20 19  1  0
 23 22  1  1
 22 21  1  0
 23 25  1  0
 23 24  1  0
 25 27  1  0
 26 25  2  0
M  END
$$$$
