VDR.pdb
     RDKit          3D

 27 26  0  0  1  0  0  0  0  0999 V2000
    9.7139  -12.9866   20.4770 C   0  0  0  0  0  0  0  0  0  0  0  0
    8.6233  -13.4474   19.5085 C   0  0  1  0  0  0  0  0  0  0  0  0
    8.0606  -12.2949   18.7302 C   0  0  0  0  0  0  0  0  0  0  0  0
    9.1925  -14.5260   18.6378 C   0  0  2  0  0  0  0  0  0  0  0  0
    8.2999  -14.9799   17.6171 N   0  0  0  0  0  0  0  0  0  0  0  0
    9.7306  -15.6213   19.4858 C   0  0  0  0  0  0  0  0  0  0  0  0
    8.9121  -16.4784   19.8927 O   0  0  0  0  0  0  0  0  0  0  0  0
   11.1039  -15.7111   19.8307 N   0  0  0  0  0  0  0  0  0  0  0  0
   11.5911  -16.7837   20.6737 C   0  0  1  0  0  0  0  0  0  0  0  0
   13.0246  -17.1272   20.4236 C   0  0  0  0  0  0  0  0  0  0  0  0
   13.8298  -16.0082   19.9057 C   0  0  0  0  0  0  0  0  0  0  0  0
   13.5238  -15.5320   18.7855 O   0  0  0  0  0  0  0  0  0  0  0  0
   11.4534  -16.4577   22.1148 C   0  0  0  0  0  0  0  0  0  0  0  0
   11.9239  -15.3812   22.5510 O   0  0  0  0  0  0  0  0  0  0  0  0
   14.9047  -15.4469   20.5769 O   0  0  0  0  0  0  0  0  0  0  0  0
    7.1752  -12.6794   24.8613 N   0  0  0  0  0  0  0  0  0  0  0  0
    6.9802  -13.1710   23.5187 C   0  0  0  0  0  0  0  0  0  0  0  0
    7.3099  -12.4155   22.5322 N   0  0  0  0  0  0  0  0  0  0  0  0
    6.4433  -14.4443   23.2774 N   0  0  0  0  0  0  0  0  0  0  0  0
    6.9206  -15.6099   24.0729 C   0  0  0  0  0  0  0  0  0  0  0  0
    8.3934  -15.6857   23.9789 C   0  0  0  0  0  0  0  0  0  0  0  0
    9.1490  -16.7930   24.5144 C   0  0  0  0  0  0  0  0  0  0  0  0
   10.5999  -16.9977   24.4099 C   0  0  2  0  0  0  0  0  0  0  0  0
   10.8074  -17.3418   22.9691 N   0  0  0  0  0  0  0  0  0  0  0  0
   11.2714  -18.0060   25.2146 C   0  0  0  0  0  0  0  0  0  0  0  0
   11.6001  -19.1154   24.6544 O   0  0  0  0  0  0  0  0  0  0  0  0
   11.6052  -17.9022   26.5256 O   0  0  0  0  0  0  0  0  0  0  0  0
  2  1  1  1
  3  2  1  0
  4  2  1  0
  4  5  1  6
  6  7  2  0
  6  4  1  0
  8  6  1  0
  9  8  1  0
 10 11  1  0
  9 10  1  6
 11 12  2  0
 13 24  1  0
 13  9  1  0
 14 13  2  0
 15 11  1  0
 17 16  1  0
 18 17  2  0
 19 17  1  0
 20 21  1  0
 20 19  1  0
 23 22  1  1
 22 21  1  0
 23 25  1  0
 23 24  1  0
 25 27  1  0
 26 25  2  0
M  END
$$$$
