VDR.pdb
     RDKit          3D

 27 26  0  0  1  0  0  0  0  0999 V2000
    9.5882  -12.8369   20.1082 C   0  0  0  0  0  0  0  0  0  0  0  0
    8.3866  -13.4752   19.4092 C   0  0  1  0  0  0  0  0  0  0  0  0
    7.7416  -12.5200   18.4490 C   0  0  0  0  0  0  0  0  0  0  0  0
    8.8407  -14.7476   18.7608 C   0  0  2  0  0  0  0  0  0  0  0  0
    7.8395  -15.3811   17.9605 N   0  0  0  0  0  0  0  0  0  0  0  0
    9.4383  -15.6446   19.7838 C   0  0  0  0  0  0  0  0  0  0  0  0
    8.6437  -16.2903   20.5062 O   0  0  0  0  0  0  0  0  0  0  0  0
   10.8407  -15.7785   19.9517 N   0  0  0  0  0  0  0  0  0  0  0  0
   11.3890  -16.6852   20.9395 C   0  0  1  0  0  0  0  0  0  0  0  0
   12.8479  -16.9528   20.7506 C   0  0  0  0  0  0  0  0  0  0  0  0
   13.1790  -17.6079   19.4740 C   0  0  0  0  0  0  0  0  0  0  0  0
   13.0783  -18.8573   19.4102 O   0  0  0  0  0  0  0  0  0  0  0  0
   11.2024  -16.1743   22.3201 C   0  0  0  0  0  0  0  0  0  0  0  0
   11.7784  -15.1176   22.6696 O   0  0  0  0  0  0  0  0  0  0  0  0
   13.5950  -16.9323   18.3375 O   0  0  0  0  0  0  0  0  0  0  0  0
    7.9857  -12.2036   26.8194 N   0  0  0  0  0  0  0  0  0  0  0  0
    6.6154  -12.6457   26.7241 C   0  0  0  0  0  0  0  0  0  0  0  0
    5.6871  -11.7605   26.6393 N   0  0  0  0  0  0  0  0  0  0  0  0
    6.2859  -14.0093   26.7227 N   0  0  0  0  0  0  0  0  0  0  0  0
    6.6474  -14.8552   25.5510 C   0  0  0  0  0  0  0  0  0  0  0  0
    8.0705  -15.2393   25.6558 C   0  0  0  0  0  0  0  0  0  0  0  0
    8.7646  -15.9399   24.6017 C   0  0  0  0  0  0  0  0  0  0  0  0
   10.1753  -16.3497   24.6009 C   0  0  2  0  0  0  0  0  0  0  0  0
   10.3947  -16.8652   23.2140 N   0  0  0  0  0  0  0  0  0  0  0  0
   10.6621  -17.3516   25.5358 C   0  0  0  0  0  0  0  0  0  0  0  0
   10.8061  -18.5587   25.1176 O   0  0  0  0  0  0  0  0  0  0  0  0
   10.9972  -17.1488   26.8348 O   0  0  0  0  0  0  0  0  0  0  0  0
  2  1  1  6
  3  2  1  0
  4  2  1  0
  4  5  1  1
  6  7  2  0
  6  4  1  0
  8  6  1  0
  9  8  1  0
 10 11  1  0
  9 10  1  6
 11 12  2  0
 13 24  1  0
 13  9  1  0
 14 13  2  0
 15 11  1  0
 17 16  1  0
 18 17  2  0
 19 17  1  0
 20 21  1  0
 20 19  1  0
 23 22  1  1
 22 21  1  0
 23 25  1  0
 23 24  1  0
 25 27  1  0
 26 25  2  0
M  END
$$$$
