VDR.pdb
     RDKit          3D

 27 26  0  0  1  0  0  0  0  0999 V2000
    6.1708  -19.3566   18.1007 C   0  0  0  0  0  0  0  0  0  0  0  0
    7.0021  -18.7450   19.2296 C   0  0  1  0  0  0  0  0  0  0  0  0
    8.1295  -19.6498   19.6306 C   0  0  0  0  0  0  0  0  0  0  0  0
    7.4615  -17.3870   18.7931 C   0  0  2  0  0  0  0  0  0  0  0  0
    8.3122  -17.4034   17.6440 N   0  0  0  0  0  0  0  0  0  0  0  0
    8.0423  -16.6594   19.9514 C   0  0  0  0  0  0  0  0  0  0  0  0
    9.2924  -16.6117   20.0227 O   0  0  0  0  0  0  0  0  0  0  0  0
    7.2369  -16.0403   20.9418 N   0  0  0  0  0  0  0  0  0  0  0  0
    7.8371  -15.3627   22.0727 C   0  0  1  0  0  0  0  0  0  0  0  0
    6.9006  -14.4246   22.7645 C   0  0  0  0  0  0  0  0  0  0  0  0
    7.4950  -13.7185   23.9119 C   0  0  0  0  0  0  0  0  0  0  0  0
    7.5685  -14.3300   25.0055 O   0  0  0  0  0  0  0  0  0  0  0  0
    8.3400  -16.3224   23.0866 C   0  0  0  0  0  0  0  0  0  0  0  0
    7.5748  -17.2123   23.5261 O   0  0  0  0  0  0  0  0  0  0  0  0
    7.9790  -12.4207   23.8613 O   0  0  0  0  0  0  0  0  0  0  0  0
   14.7833  -20.4113   20.5886 N   0  0  0  0  0  0  0  0  0  0  0  0
   13.8142  -20.5988   21.6411 C   0  0  0  0  0  0  0  0  0  0  0  0
   12.7381  -21.2513   21.3786 N   0  0  0  0  0  0  0  0  0  0  0  0
   14.0264  -20.0862   22.9296 N   0  0  0  0  0  0  0  0  0  0  0  0
   13.6584  -18.6748   23.2328 C   0  0  0  0  0  0  0  0  0  0  0  0
   12.2476  -18.6288   23.6700 C   0  0  0  0  0  0  0  0  0  0  0  0
   11.5972  -17.4018   24.0639 C   0  0  0  0  0  0  0  0  0  0  0  0
   10.2002  -17.2468   24.4911 C   0  0  2  0  0  0  0  0  0  0  0  0
    9.6489  -16.2310   23.5417 N   0  0  0  0  0  0  0  0  0  0  0  0
    9.8760  -16.8217   25.8435 C   0  0  0  0  0  0  0  0  0  0  0  0
    9.4415  -15.6246   26.0200 O   0  0  0  0  0  0  0  0  0  0  0  0
    9.9771  -17.5692   26.9712 O   0  0  0  0  0  0  0  0  0  0  0  0
  2  1  1  6
  3  2  1  0
  4  2  1  0
  4  5  1  6
  6  7  2  0
  6  4  1  0
  8  6  1  0
  9  8  1  0
 10 11  1  0
  9 10  1  1
 11 12  2  0
 13 24  1  0
 13  9  1  0
 14 13  2  0
 15 11  1  0
 17 16  1  0
 18 17  2  0
 19 17  1  0
 20 21  1  0
 20 19  1  0
 23 22  1  1
 22 21  1  0
 23 25  1  0
 23 24  1  0
 25 27  1  0
 26 25  2  0
M  END
$$$$
