VDR.pdb
     RDKit          3D

 27 26  0  0  1  0  0  0  0  0999 V2000
    9.1532  -13.0873   20.3500 C   0  0  0  0  0  0  0  0  0  0  0  0
    7.8533  -13.7587   19.9038 C   0  0  1  0  0  0  0  0  0  0  0  0
    6.9270  -12.7765   19.2497 C   0  0  0  0  0  0  0  0  0  0  0  0
    8.2017  -14.9192   19.0220 C   0  0  2  0  0  0  0  0  0  0  0  0
    7.0674  -15.5741   18.4487 N   0  0  0  0  0  0  0  0  0  0  0  0
    9.1161  -15.8403   19.7458 C   0  0  0  0  0  0  0  0  0  0  0  0
    8.5851  -16.7565   20.4157 O   0  0  0  0  0  0  0  0  0  0  0  0
   10.5275  -15.7063   19.6943 N   0  0  0  0  0  0  0  0  0  0  0  0
   11.3914  -16.6787   20.3322 C   0  0  1  0  0  0  0  0  0  0  0  0
   12.7540  -16.7496   19.7208 C   0  0  0  0  0  0  0  0  0  0  0  0
   13.6101  -17.8088   20.2806 C   0  0  0  0  0  0  0  0  0  0  0  0
   14.8177  -17.8314   19.9391 O   0  0  0  0  0  0  0  0  0  0  0  0
   11.5637  -16.3972   21.7790 C   0  0  0  0  0  0  0  0  0  0  0  0
   12.3420  -15.4841   22.1410 O   0  0  0  0  0  0  0  0  0  0  0  0
   13.1673  -18.7832   21.1612 O   0  0  0  0  0  0  0  0  0  0  0  0
   10.6978  -15.3168   30.2035 N   0  0  0  0  0  0  0  0  0  0  0  0
    9.9625  -14.7012   29.1253 C   0  0  0  0  0  0  0  0  0  0  0  0
    9.9881  -13.4207   29.0146 N   0  0  0  0  0  0  0  0  0  0  0  0
    9.2297  -15.4694   28.2084 N   0  0  0  0  0  0  0  0  0  0  0  0
    9.5508  -15.3904   26.7558 C   0  0  0  0  0  0  0  0  0  0  0  0
    9.4766  -16.7461   26.1724 C   0  0  0  0  0  0  0  0  0  0  0  0
    9.8025  -17.0156   24.7922 C   0  0  0  0  0  0  0  0  0  0  0  0
   11.1379  -16.9751   24.1815 C   0  0  2  0  0  0  0  0  0  0  0  0
   10.8657  -17.1425   22.7203 N   0  0  0  0  0  0  0  0  0  0  0  0
   12.1620  -17.9352   24.5615 C   0  0  0  0  0  0  0  0  0  0  0  0
   13.2679  -17.4905   25.0431 O   0  0  0  0  0  0  0  0  0  0  0  0
   12.0768  -19.2861   24.4684 O   0  0  0  0  0  0  0  0  0  0  0  0
  2  1  1  6
  3  2  1  0
  4  2  1  0
  4  5  1  1
  6  7  2  0
  6  4  1  0
  8  6  1  0
  9  8  1  0
 10 11  1  0
  9 10  1  6
 11 12  2  0
 13 24  1  0
 13  9  1  0
 14 13  2  0
 15 11  1  0
 17 16  1  0
 18 17  2  0
 19 17  1  0
 20 21  1  0
 20 19  1  0
 23 22  1  1
 22 21  1  0
 23 25  1  0
 23 24  1  0
 25 27  1  0
 26 25  2  0
M  END
$$$$
