VDR.pdb
     RDKit          3D

 27 26  0  0  1  0  0  0  0  0999 V2000
    9.3933  -12.2415   19.5236 C   0  0  0  0  0  0  0  0  0  0  0  0
    8.4008  -13.1952   18.8565 C   0  0  1  0  0  0  0  0  0  0  0  0
    7.3451  -12.4444   18.0999 C   0  0  0  0  0  0  0  0  0  0  0  0
    9.1718  -14.1535   18.0005 C   0  0  2  0  0  0  0  0  0  0  0  0
    8.3510  -14.9972   17.1890 N   0  0  0  0  0  0  0  0  0  0  0  0
   10.1454  -14.9007   18.8385 C   0  0  0  0  0  0  0  0  0  0  0  0
    9.7056  -15.8833   19.4797 O   0  0  0  0  0  0  0  0  0  0  0  0
   11.5137  -14.5353   18.9229 N   0  0  0  0  0  0  0  0  0  0  0  0
   12.4317  -15.2767   19.7633 C   0  0  1  0  0  0  0  0  0  0  0  0
   13.8636  -14.9063   19.5444 C   0  0  0  0  0  0  0  0  0  0  0  0
   14.3709  -15.2329   18.2011 C   0  0  0  0  0  0  0  0  0  0  0  0
   14.6094  -14.2838   17.4152 O   0  0  0  0  0  0  0  0  0  0  0  0
   12.1350  -15.0866   21.2047 C   0  0  0  0  0  0  0  0  0  0  0  0
   12.4282  -14.0002   21.7564 O   0  0  0  0  0  0  0  0  0  0  0  0
   14.6021  -16.5225   17.7488 O   0  0  0  0  0  0  0  0  0  0  0  0
    6.5841  -15.3274   26.6843 N   0  0  0  0  0  0  0  0  0  0  0  0
    6.6692  -13.9279   26.3434 C   0  0  0  0  0  0  0  0  0  0  0  0
    6.3141  -13.0575   27.2203 N   0  0  0  0  0  0  0  0  0  0  0  0
    7.1275  -13.5087   25.0855 N   0  0  0  0  0  0  0  0  0  0  0  0
    7.4650  -14.5222   24.0471 C   0  0  0  0  0  0  0  0  0  0  0  0
    8.8354  -15.0197   24.2879 C   0  0  0  0  0  0  0  0  0  0  0  0
    9.7176  -15.4131   23.2152 C   0  0  0  0  0  0  0  0  0  0  0  0
   11.1027  -15.8846   23.3460 C   0  0  2  0  0  0  0  0  0  0  0  0
   11.5373  -16.1075   21.9323 N   0  0  0  0  0  0  0  0  0  0  0  0
   11.4142  -17.0841   24.1071 C   0  0  0  0  0  0  0  0  0  0  0  0
   11.2026  -17.0753   25.3751 O   0  0  0  0  0  0  0  0  0  0  0  0
   11.9110  -18.2467   23.6147 O   0  0  0  0  0  0  0  0  0  0  0  0
  2  1  1  6
  3  2  1  0
  4  2  1  0
  4  5  1  1
  6  7  2  0
  6  4  1  0
  8  6  1  0
  9  8  1  0
 10 11  1  0
  9 10  1  1
 11 12  2  0
 13 24  1  0
 13  9  1  0
 14 13  2  0
 15 11  1  0
 17 16  1  0
 18 17  2  0
 19 17  1  0
 20 21  1  0
 20 19  1  0
 23 22  1  6
 22 21  1  0
 23 25  1  0
 23 24  1  0
 25 27  1  0
 26 25  2  0
M  END
$$$$
