VDR.pdb
     RDKit          3D

 27 26  0  0  1  0  0  0  0  0999 V2000
    8.9734  -13.1111   20.9009 C   0  0  0  0  0  0  0  0  0  0  0  0
    8.0444  -13.5961   19.7867 C   0  0  1  0  0  0  0  0  0  0  0  0
    7.6108  -12.4630   18.9043 C   0  0  0  0  0  0  0  0  0  0  0  0
    8.7389  -14.6938   19.0396 C   0  0  2  0  0  0  0  0  0  0  0  0
    8.0127  -15.1742   17.9055 N   0  0  0  0  0  0  0  0  0  0  0  0
    9.1396  -15.7671   19.9861 C   0  0  0  0  0  0  0  0  0  0  0  0
    8.2381  -16.5449   20.3767 O   0  0  0  0  0  0  0  0  0  0  0  0
   10.4751  -15.9218   20.4392 N   0  0  0  0  0  0  0  0  0  0  0  0
   10.8172  -16.9354   21.4160 C   0  0  1  0  0  0  0  0  0  0  0  0
   12.2698  -17.2898   21.4157 C   0  0  0  0  0  0  0  0  0  0  0  0
   12.7613  -17.8121   20.1296 C   0  0  0  0  0  0  0  0  0  0  0  0
   12.0614  -18.6682   19.5359 O   0  0  0  0  0  0  0  0  0  0  0  0
   10.4585  -16.5163   22.7936 C   0  0  0  0  0  0  0  0  0  0  0  0
   11.0724  -15.5631   23.3275 O   0  0  0  0  0  0  0  0  0  0  0  0
   13.9485  -17.4183   19.5324 O   0  0  0  0  0  0  0  0  0  0  0  0
    7.6330  -11.4803   26.3355 N   0  0  0  0  0  0  0  0  0  0  0  0
    6.3484  -12.1113   26.5196 C   0  0  0  0  0  0  0  0  0  0  0  0
    5.3571  -11.3894   26.9051 N   0  0  0  0  0  0  0  0  0  0  0  0
    6.1679  -13.4829   26.2871 N   0  0  0  0  0  0  0  0  0  0  0  0
    7.1799  -14.2373   25.4958 C   0  0  0  0  0  0  0  0  0  0  0  0
    6.7923  -15.6626   25.4532 C   0  0  0  0  0  0  0  0  0  0  0  0
    7.6109  -16.6707   24.8227 C   0  0  0  0  0  0  0  0  0  0  0  0
    9.0759  -16.7678   24.8702 C   0  0  2  0  0  0  0  0  0  0  0  0
    9.4500  -17.1784   23.4815 N   0  0  0  0  0  0  0  0  0  0  0  0
    9.7343  -17.6720   25.7997 C   0  0  0  0  0  0  0  0  0  0  0  0
   10.0847  -18.8343   25.3767 O   0  0  0  0  0  0  0  0  0  0  0  0
   10.0349  -17.4174   27.0980 O   0  0  0  0  0  0  0  0  0  0  0  0
  2  1  1  1
  3  2  1  0
  4  2  1  0
  4  5  1  6
  6  7  2  0
  6  4  1  0
  8  6  1  0
  9  8  1  0
 10 11  1  0
  9 10  1  1
 11 12  2  0
 13 24  1  0
 13  9  1  0
 14 13  2  0
 15 11  1  0
 17 16  1  0
 18 17  2  0
 19 17  1  0
 20 21  1  0
 20 19  1  0
 23 22  1  6
 22 21  1  0
 23 25  1  0
 23 24  1  0
 25 27  1  0
 26 25  2  0
M  END
$$$$
