VDR.pdb
     RDKit          3D

 27 26  0  0  1  0  0  0  0  0999 V2000
    9.6368  -13.1945   20.5507 C   0  0  0  0  0  0  0  0  0  0  0  0
    8.7193  -13.8378   19.5095 C   0  0  1  0  0  0  0  0  0  0  0  0
    7.7171  -12.8543   18.9817 C   0  0  0  0  0  0  0  0  0  0  0  0
    9.5748  -14.4418   18.4376 C   0  0  2  0  0  0  0  0  0  0  0  0
    8.8352  -14.9823   17.3399 N   0  0  0  0  0  0  0  0  0  0  0  0
   10.5285  -15.4071   19.0436 C   0  0  0  0  0  0  0  0  0  0  0  0
   10.0676  -16.5208   19.3864 O   0  0  0  0  0  0  0  0  0  0  0  0
   11.9009  -15.1022   19.2342 N   0  0  0  0  0  0  0  0  0  0  0  0
   12.7650  -15.9942   19.9800 C   0  0  1  0  0  0  0  0  0  0  0  0
   14.2196  -15.7090   19.7834 C   0  0  0  0  0  0  0  0  0  0  0  0
   14.4935  -14.4988   18.9904 C   0  0  0  0  0  0  0  0  0  0  0  0
   15.2227  -13.6136   19.5003 O   0  0  0  0  0  0  0  0  0  0  0  0
   12.4902  -15.9369   21.4371 C   0  0  0  0  0  0  0  0  0  0  0  0
   12.7127  -14.8755   22.0652 O   0  0  0  0  0  0  0  0  0  0  0  0
   13.9970  -14.2746   17.7159 O   0  0  0  0  0  0  0  0  0  0  0  0
    6.7772  -16.7331   20.9385 N   0  0  0  0  0  0  0  0  0  0  0  0
    6.8327  -15.5506   21.7636 C   0  0  0  0  0  0  0  0  0  0  0  0
    6.3255  -14.4594   21.3112 N   0  0  0  0  0  0  0  0  0  0  0  0
    7.4244  -15.5740   23.0354 N   0  0  0  0  0  0  0  0  0  0  0  0
    7.8979  -16.8661   23.6059 C   0  0  0  0  0  0  0  0  0  0  0  0
    9.1397  -17.2709   22.9145 C   0  0  0  0  0  0  0  0  0  0  0  0
   10.3365  -17.6491   23.6274 C   0  0  0  0  0  0  0  0  0  0  0  0
   11.6487  -16.9932   23.5498 C   0  0  2  0  0  0  0  0  0  0  0  0
   11.9905  -17.0533   22.0949 N   0  0  0  0  0  0  0  0  0  0  0  0
   12.7844  -17.5045   24.3005 C   0  0  0  0  0  0  0  0  0  0  0  0
   12.8635  -17.2271   25.5534 O   0  0  0  0  0  0  0  0  0  0  0  0
   13.7953  -18.2684   23.8154 O   0  0  0  0  0  0  0  0  0  0  0  0
  2  1  1  1
  3  2  1  0
  4  2  1  0
  4  5  1  6
  6  7  2  0
  6  4  1  0
  8  6  1  0
  9  8  1  0
 10 11  1  0
  9 10  1  1
 11 12  2  0
 13 24  1  0
 13  9  1  0
 14 13  2  0
 15 11  1  0
 17 16  1  0
 18 17  2  0
 19 17  1  0
 20 21  1  0
 20 19  1  0
 23 22  1  6
 22 21  1  0
 23 25  1  0
 23 24  1  0
 25 27  1  0
 26 25  2  0
M  END
$$$$
