VDR.pdb
     RDKit          3D

 27 26  0  0  1  0  0  0  0  0999 V2000
    9.1964  -13.0106   20.6507 C   0  0  0  0  0  0  0  0  0  0  0  0
    8.0050  -13.5210   19.8383 C   0  0  1  0  0  0  0  0  0  0  0  0
    7.3999  -12.4272   19.0089 C   0  0  0  0  0  0  0  0  0  0  0  0
    8.4582  -14.6960   19.0260 C   0  0  2  0  0  0  0  0  0  0  0  0
    7.4543  -15.2207   18.1536 N   0  0  0  0  0  0  0  0  0  0  0  0
    9.0618  -15.7185   19.9195 C   0  0  0  0  0  0  0  0  0  0  0  0
    8.2731  -16.4082   20.6069 O   0  0  0  0  0  0  0  0  0  0  0  0
   10.4634  -15.9210   20.0055 N   0  0  0  0  0  0  0  0  0  0  0  0
   11.0226  -16.8650   20.9514 C   0  0  1  0  0  0  0  0  0  0  0  0
   12.4264  -17.2648   20.6274 C   0  0  0  0  0  0  0  0  0  0  0  0
   12.9870  -18.2809   21.5339 C   0  0  0  0  0  0  0  0  0  0  0  0
   12.9643  -19.4791   21.1609 O   0  0  0  0  0  0  0  0  0  0  0  0
   11.0178  -16.3274   22.3345 C   0  0  0  0  0  0  0  0  0  0  0  0
   11.5502  -15.2167   22.5661 O   0  0  0  0  0  0  0  0  0  0  0  0
   13.5385  -17.9983   22.7737 O   0  0  0  0  0  0  0  0  0  0  0  0
    4.8999  -12.6349   26.1370 N   0  0  0  0  0  0  0  0  0  0  0  0
    6.1149  -12.3214   26.8494 C   0  0  0  0  0  0  0  0  0  0  0  0
    6.1450  -11.2646   27.5809 N   0  0  0  0  0  0  0  0  0  0  0  0
    7.2489  -13.1420   26.7568 N   0  0  0  0  0  0  0  0  0  0  0  0
    7.3583  -14.1277   25.6451 C   0  0  0  0  0  0  0  0  0  0  0  0
    8.6396  -14.8532   25.7699 C   0  0  0  0  0  0  0  0  0  0  0  0
    9.0569  -15.8594   24.8227 C   0  0  0  0  0  0  0  0  0  0  0  0
   10.3743  -16.5054   24.7515 C   0  0  2  0  0  0  0  0  0  0  0  0
   10.4268  -17.0530   23.3606 N   0  0  0  0  0  0  0  0  0  0  0  0
   10.7321  -17.5746   25.6700 C   0  0  0  0  0  0  0  0  0  0  0  0
   10.8055  -18.7738   25.2127 O   0  0  0  0  0  0  0  0  0  0  0  0
   11.0113  -17.4445   26.9914 O   0  0  0  0  0  0  0  0  0  0  0  0
  2  1  1  6
  3  2  1  0
  4  2  1  0
  4  5  1  1
  6  7  2  0
  6  4  1  0
  8  6  1  0
  9  8  1  0
 10 11  1  0
  9 10  1  6
 11 12  2  0
 13 24  1  0
 13  9  1  0
 14 13  2  0
 15 11  1  0
 17 16  1  0
 18 17  2  0
 19 17  1  0
 20 21  1  0
 20 19  1  0
 23 22  1  1
 22 21  1  0
 23 25  1  0
 23 24  1  0
 25 27  1  0
 26 25  2  0
M  END
$$$$
