VDR.pdb
     RDKit          3D

 27 26  0  0  1  0  0  0  0  0999 V2000
    9.5299  -12.5721   20.0040 C   0  0  0  0  0  0  0  0  0  0  0  0
    8.4889  -13.4591   19.3189 C   0  0  1  0  0  0  0  0  0  0  0  0
    7.2470  -12.6866   18.9849 C   0  0  0  0  0  0  0  0  0  0  0  0
    9.1278  -14.0960   18.1223 C   0  0  2  0  0  0  0  0  0  0  0  0
    8.2404  -14.9157   17.3576 N   0  0  0  0  0  0  0  0  0  0  0  0
   10.3744  -14.7930   18.5327 C   0  0  0  0  0  0  0  0  0  0  0  0
   10.2487  -15.9400   19.0213 O   0  0  0  0  0  0  0  0  0  0  0  0
   11.6574  -14.2052   18.3870 N   0  0  0  0  0  0  0  0  0  0  0  0
   12.8531  -14.9193   18.7856 C   0  0  1  0  0  0  0  0  0  0  0  0
   14.1099  -14.3143   18.2471 C   0  0  0  0  0  0  0  0  0  0  0  0
   15.3305  -15.0687   18.5778 C   0  0  0  0  0  0  0  0  0  0  0  0
   15.2151  -16.0855   19.3046 O   0  0  0  0  0  0  0  0  0  0  0  0
   12.9865  -14.9895   20.2618 C   0  0  0  0  0  0  0  0  0  0  0  0
   13.1149  -13.9310   20.9203 O   0  0  0  0  0  0  0  0  0  0  0  0
   16.5996  -14.7274   18.1374 O   0  0  0  0  0  0  0  0  0  0  0  0
   13.0365  -21.2551   24.5201 N   0  0  0  0  0  0  0  0  0  0  0  0
   12.1176  -20.9055   25.5763 C   0  0  0  0  0  0  0  0  0  0  0  0
   12.1690  -21.5626   26.6800 N   0  0  0  0  0  0  0  0  0  0  0  0
   11.1815  -19.8727   25.4184 N   0  0  0  0  0  0  0  0  0  0  0  0
   10.9811  -19.2563   24.0771 C   0  0  0  0  0  0  0  0  0  0  0  0
   11.9548  -18.1586   23.9019 C   0  0  0  0  0  0  0  0  0  0  0  0
   12.0131  -17.3574   22.7025 C   0  0  0  0  0  0  0  0  0  0  0  0
   12.9904  -16.3040   22.3972 C   0  0  2  0  0  0  0  0  0  0  0  0
   12.9684  -16.2208   20.9040 N   0  0  0  0  0  0  0  0  0  0  0  0
   14.3762  -16.4259   22.8209 C   0  0  0  0  0  0  0  0  0  0  0  0
   14.6776  -16.0972   24.0267 O   0  0  0  0  0  0  0  0  0  0  0  0
   15.4153  -16.8660   22.0677 O   0  0  0  0  0  0  0  0  0  0  0  0
  2  1  1  6
  3  2  1  0
  4  2  1  0
  4  5  1  1
  6  7  2  0
  6  4  1  0
  8  6  1  0
  9  8  1  0
 10 11  1  0
  9 10  1  6
 11 12  2  0
 13 24  1  0
 13  9  1  0
 14 13  2  0
 15 11  1  0
 17 16  1  0
 18 17  2  0
 19 17  1  0
 20 21  1  0
 20 19  1  0
 23 22  1  6
 22 21  1  0
 23 25  1  0
 23 24  1  0
 25 27  1  0
 26 25  2  0
M  END
$$$$
