VDR.pdb
     RDKit          3D

 27 26  0  0  1  0  0  0  0  0999 V2000
    7.7356  -12.4753   18.9658 C   0  0  0  0  0  0  0  0  0  0  0  0
    8.3069  -13.3827   20.0567 C   0  0  1  0  0  0  0  0  0  0  0  0
    7.3867  -13.4628   21.2387 C   0  0  0  0  0  0  0  0  0  0  0  0
    8.6045  -14.7196   19.4485 C   0  0  2  0  0  0  0  0  0  0  0  0
    7.4673  -15.3563   18.8606 N   0  0  0  0  0  0  0  0  0  0  0  0
    9.3168  -15.5710   20.4365 C   0  0  0  0  0  0  0  0  0  0  0  0
    8.6641  -16.5073   20.9537 O   0  0  0  0  0  0  0  0  0  0  0  0
   10.6726  -15.3513   20.7920 N   0  0  0  0  0  0  0  0  0  0  0  0
   11.3588  -16.2478   21.6998 C   0  0  1  0  0  0  0  0  0  0  0  0
   12.8470  -16.2026   21.5623 C   0  0  0  0  0  0  0  0  0  0  0  0
   13.5569  -17.2037   22.3761 C   0  0  0  0  0  0  0  0  0  0  0  0
   13.0421  -18.3428   22.4889 O   0  0  0  0  0  0  0  0  0  0  0  0
   11.0307  -15.9542   23.1169 C   0  0  0  0  0  0  0  0  0  0  0  0
   11.9036  -15.4471   23.8595 O   0  0  0  0  0  0  0  0  0  0  0  0
   14.7583  -16.9682   23.0260 O   0  0  0  0  0  0  0  0  0  0  0  0
    6.0785  -20.5110   23.8949 N   0  0  0  0  0  0  0  0  0  0  0  0
    6.1014  -20.9127   25.2806 C   0  0  0  0  0  0  0  0  0  0  0  0
    6.1898  -22.1650   25.5575 N   0  0  0  0  0  0  0  0  0  0  0  0
    6.0294  -19.9693   26.3163 N   0  0  0  0  0  0  0  0  0  0  0  0
    6.4145  -18.5542   26.0543 C   0  0  0  0  0  0  0  0  0  0  0  0
    7.8867  -18.4657   25.9609 C   0  0  0  0  0  0  0  0  0  0  0  0
    8.5556  -17.7771   24.8830 C   0  0  0  0  0  0  0  0  0  0  0  0
    9.5864  -16.7383   25.0108 C   0  0  2  0  0  0  0  0  0  0  0  0
    9.7651  -16.2410   23.6115 N   0  0  0  0  0  0  0  0  0  0  0  0
   10.9007  -17.0529   25.5479 C   0  0  0  0  0  0  0  0  0  0  0  0
   11.2182  -16.5816   26.7011 O   0  0  0  0  0  0  0  0  0  0  0  0
   11.8542  -17.8147   24.9553 O   0  0  0  0  0  0  0  0  0  0  0  0
  2  1  1  6
  3  2  1  0
  4  2  1  0
  4  5  1  1
  6  7  2  0
  6  4  1  0
  8  6  1  0
  9  8  1  0
 10 11  1  0
  9 10  1  1
 11 12  2  0
 13 24  1  0
 13  9  1  0
 14 13  2  0
 15 11  1  0
 17 16  1  0
 18 17  2  0
 19 17  1  0
 20 21  1  0
 20 19  1  0
 23 22  1  6
 22 21  1  0
 23 25  1  0
 23 24  1  0
 25 27  1  0
 26 25  2  0
M  END
$$$$
