FHS.pdb
     RDKit          3D

 28 29  0  0  1  0  0  0  0  0999 V2000
    8.2780  -14.9484   15.5544 N   0  0  0  0  0  0  0  0  0  0  0  0
    8.7211  -14.4540   16.8184 C   0  0  1  0  0  0  0  0  0  0  0  0
    7.5026  -13.9449   17.5760 C   0  0  0  0  0  0  0  0  0  0  0  0
    7.7785  -13.7022   19.0100 C   0  0  0  0  0  0  0  0  0  0  0  0
    7.3874  -14.6438   19.9378 C   0  0  0  0  0  0  0  0  0  0  0  0
    7.6194  -14.4625   21.3031 C   0  0  0  0  0  0  0  0  0  0  0  0
    8.2587  -13.3047   21.7234 C   0  0  0  0  0  0  0  0  0  0  0  0
    8.6580  -12.3502   20.8127 C   0  0  0  0  0  0  0  0  0  0  0  0
    8.4091  -12.5704   19.4773 C   0  0  0  0  0  0  0  0  0  0  0  0
    9.4496  -15.4616   17.6196 C   0  0  0  0  0  0  0  0  0  0  0  0
    9.0058  -16.6236   17.7726 O   0  0  0  0  0  0  0  0  0  0  0  0
   10.6742  -15.1052   18.2260 N   0  0  0  0  0  0  0  0  0  0  0  0
   11.5196  -16.0111   18.9670 C   0  0  1  0  0  0  0  0  0  0  0  0
   12.9460  -15.7867   18.6071 C   0  0  0  0  0  0  0  0  0  0  0  0
   13.4159  -16.4800   17.3899 C   0  0  0  0  0  0  0  0  0  0  0  0
   13.2910  -17.7705   16.9879 C   0  0  0  0  0  0  0  0  0  0  0  0
   13.9132  -17.9306   15.7950 N   0  0  0  0  0  0  0  0  0  0  0  0
   14.4215  -16.7468   15.4589 C   0  0  0  0  0  0  0  0  0  0  0  0
   14.1376  -15.8592   16.3984 N   0  0  0  0  0  0  0  0  0  0  0  0
   11.4065  -15.7478   20.4426 C   0  0  0  0  0  0  0  0  0  0  0  0
   11.6035  -14.5858   20.8744 O   0  0  0  0  0  0  0  0  0  0  0  0
    9.8168  -17.0505   24.7792 O   0  0  0  0  0  0  0  0  0  0  0  0
    9.8786  -17.4016   23.4175 C   0  0  0  0  0  0  0  0  0  0  0  0
   10.9378  -16.5170   22.8021 C   0  0  2  0  0  0  0  0  0  0  0  0
   11.0858  -16.7548   21.3785 N   0  0  0  0  0  0  0  0  0  0  0  0
   12.2176  -16.6596   23.4944 C   0  0  0  0  0  0  0  0  0  0  0  0
   13.3540  -17.0747   22.8330 O   0  0  0  0  0  0  0  0  0  0  0  0
   12.2882  -16.3992   24.7196 O   0  0  0  0  0  0  0  0  0  0  0  0
  2  1  1  6
  2  3  1  0
  3  4  1  0
  4  9  2  0
  5  6  2  0
  5  4  1  0
  6  7  1  0
  7  8  2  0
  9  8  1  0
 10  2  1  0
 10 12  1  0
 11 10  2  0
 13 12  1  0
 13 14  1  6
 14 15  1  0
 15 19  1  0
 15 16  2  0
 16 17  1  0
 18 17  1  0
 19 18  2  0
 20 21  2  0
 20 13  1  0
 22 23  1  0
 24 23  1  1
 24 25  1  0
 24 26  1  0
 25 20  1  0
 26 28  2  0
 26 27  1  0
M  END
$$$$
