FHS.pdb
     RDKit          3D

 28 29  0  0  1  0  0  0  0  0999 V2000
    6.2124  -17.7214   26.1720 N   0  0  0  0  0  0  0  0  0  0  0  0
    6.8093  -16.5286   25.6628 C   0  0  1  0  0  0  0  0  0  0  0  0
    7.6127  -15.8894   26.7870 C   0  0  0  0  0  0  0  0  0  0  0  0
    7.2305  -14.4812   27.0367 C   0  0  0  0  0  0  0  0  0  0  0  0
    8.1875  -13.4955   26.9233 C   0  0  0  0  0  0  0  0  0  0  0  0
    7.8813  -12.1521   27.1522 C   0  0  0  0  0  0  0  0  0  0  0  0
    6.5814  -11.8140   27.5011 C   0  0  0  0  0  0  0  0  0  0  0  0
    5.6090  -12.7836   27.6200 C   0  0  0  0  0  0  0  0  0  0  0  0
    5.9553  -14.0947   27.3852 C   0  0  0  0  0  0  0  0  0  0  0  0
    7.6637  -16.7600   24.4778 C   0  0  0  0  0  0  0  0  0  0  0  0
    8.3565  -17.7979   24.3614 O   0  0  0  0  0  0  0  0  0  0  0  0
    7.6990  -15.7883   23.4536 N   0  0  0  0  0  0  0  0  0  0  0  0
    8.6331  -15.7869   22.3527 C   0  0  1  0  0  0  0  0  0  0  0  0
    8.3372  -14.6538   21.4345 C   0  0  0  0  0  0  0  0  0  0  0  0
    9.1789  -14.5753   20.2227 C   0  0  0  0  0  0  0  0  0  0  0  0
   10.2730  -15.2834   19.8430 C   0  0  0  0  0  0  0  0  0  0  0  0
   10.7098  -14.8253   18.6450 N   0  0  0  0  0  0  0  0  0  0  0  0
    9.8920  -13.8386   18.2837 C   0  0  0  0  0  0  0  0  0  0  0  0
    8.9649  -13.6681   19.2124 N   0  0  0  0  0  0  0  0  0  0  0  0
   10.0347  -15.5747   22.8526 C   0  0  0  0  0  0  0  0  0  0  0  0
   10.2737  -14.6048   23.6128 O   0  0  0  0  0  0  0  0  0  0  0  0
   12.5086  -18.5632   23.3003 O   0  0  0  0  0  0  0  0  0  0  0  0
   12.8755  -17.3598   23.9316 C   0  0  0  0  0  0  0  0  0  0  0  0
   12.4645  -16.2493   22.9928 C   0  0  2  0  0  0  0  0  0  0  0  0
   11.1090  -16.4223   22.5055 N   0  0  0  0  0  0  0  0  0  0  0  0
   13.4081  -16.1139   21.8843 C   0  0  0  0  0  0  0  0  0  0  0  0
   14.7321  -15.7941   22.0981 O   0  0  0  0  0  0  0  0  0  0  0  0
   13.0079  -16.2920   20.7087 O   0  0  0  0  0  0  0  0  0  0  0  0
  2  1  1  1
  2  3  1  0
  3  4  1  0
  4  9  2  0
  5  6  2  0
  5  4  1  0
  6  7  1  0
  7  8  2  0
  9  8  1  0
 10  2  1  0
 10 12  1  0
 11 10  2  0
 13 12  1  0
 13 14  1  6
 14 15  1  0
 15 19  1  0
 15 16  2  0
 16 17  1  0
 18 17  1  0
 19 18  2  0
 20 21  2  0
 20 13  1  0
 22 23  1  0
 24 23  1  6
 24 25  1  0
 24 26  1  0
 25 20  1  0
 26 28  2  0
 26 27  1  0
M  END
$$$$
