FHS.pdb
     RDKit          3D

 28 29  0  0  1  0  0  0  0  0999 V2000
    5.7290  -17.4717   23.2089 N   0  0  0  0  0  0  0  0  0  0  0  0
    6.5690  -16.4512   23.7487 C   0  0  1  0  0  0  0  0  0  0  0  0
    5.8650  -15.8569   24.9608 C   0  0  0  0  0  0  0  0  0  0  0  0
    6.5208  -14.6270   25.4595 C   0  0  0  0  0  0  0  0  0  0  0  0
    6.9388  -14.5740   26.7721 C   0  0  0  0  0  0  0  0  0  0  0  0
    7.5589  -13.4367   27.2945 C   0  0  0  0  0  0  0  0  0  0  0  0
    7.7532  -12.3417   26.4644 C   0  0  0  0  0  0  0  0  0  0  0  0
    7.3429  -12.3734   25.1489 C   0  0  0  0  0  0  0  0  0  0  0  0
    6.7363  -13.5147   24.6764 C   0  0  0  0  0  0  0  0  0  0  0  0
    7.9180  -16.9349   24.1147 C   0  0  0  0  0  0  0  0  0  0  0  0
    8.0789  -17.9568   24.8220 O   0  0  0  0  0  0  0  0  0  0  0  0
    9.0512  -16.2280   23.6557 N   0  0  0  0  0  0  0  0  0  0  0  0
   10.4179  -16.6563   23.8387 C   0  0  1  0  0  0  0  0  0  0  0  0
   11.3421  -15.7260   23.1354 C   0  0  0  0  0  0  0  0  0  0  0  0
   11.3722  -15.8450   21.6629 C   0  0  0  0  0  0  0  0  0  0  0  0
   10.7920  -16.7401   20.8234 C   0  0  0  0  0  0  0  0  0  0  0  0
   11.1334  -16.4431   19.5462 N   0  0  0  0  0  0  0  0  0  0  0  0
   11.9210  -15.3706   19.5930 C   0  0  0  0  0  0  0  0  0  0  0  0
   12.0804  -14.9917   20.8508 N   0  0  0  0  0  0  0  0  0  0  0  0
   10.7931  -16.6099   25.2935 C   0  0  0  0  0  0  0  0  0  0  0  0
   10.9253  -15.4960   25.8568 O   0  0  0  0  0  0  0  0  0  0  0  0
    9.6441  -19.1398   28.0213 O   0  0  0  0  0  0  0  0  0  0  0  0
   10.2743  -17.9413   28.4057 C   0  0  0  0  0  0  0  0  0  0  0  0
   11.4325  -17.7505   27.4542 C   0  0  2  0  0  0  0  0  0  0  0  0
   11.0068  -17.7711   26.0674 N   0  0  0  0  0  0  0  0  0  0  0  0
   12.4861  -18.7353   27.6950 C   0  0  0  0  0  0  0  0  0  0  0  0
   13.1027  -18.8471   28.9232 O   0  0  0  0  0  0  0  0  0  0  0  0
   12.8407  -19.4987   26.7649 O   0  0  0  0  0  0  0  0  0  0  0  0
  2  1  1  1
  2  3  1  0
  3  4  1  0
  4  9  2  0
  5  6  2  0
  5  4  1  0
  6  7  1  0
  7  8  2  0
  9  8  1  0
 10  2  1  0
 10 12  1  0
 11 10  2  0
 13 12  1  0
 13 14  1  6
 14 15  1  0
 15 19  1  0
 15 16  2  0
 16 17  1  0
 18 17  1  0
 19 18  2  0
 20 21  2  0
 20 13  1  0
 22 23  1  0
 24 23  1  1
 24 25  1  0
 24 26  1  0
 25 20  1  0
 26 28  2  0
 26 27  1  0
M  END
$$$$
