FHS.pdb
     RDKit          3D

 28 29  0  0  1  0  0  0  0  0999 V2000
    7.9862  -15.4058   25.3363 N   0  0  0  0  0  0  0  0  0  0  0  0
    7.0326  -15.3849   24.2740 C   0  0  1  0  0  0  0  0  0  0  0  0
    6.3878  -14.0059   24.2498 C   0  0  0  0  0  0  0  0  0  0  0  0
    6.6672  -13.2202   25.4729 C   0  0  0  0  0  0  0  0  0  0  0  0
    7.9092  -12.6435   25.6314 C   0  0  0  0  0  0  0  0  0  0  0  0
    8.2265  -11.8960   26.7677 C   0  0  0  0  0  0  0  0  0  0  0  0
    7.2619  -11.7369   27.7526 C   0  0  0  0  0  0  0  0  0  0  0  0
    6.0136  -12.3048   27.6145 C   0  0  0  0  0  0  0  0  0  0  0  0
    5.7445  -13.0333   26.4783 C   0  0  0  0  0  0  0  0  0  0  0  0
    7.6170  -15.7103   22.9548 C   0  0  0  0  0  0  0  0  0  0  0  0
    6.8955  -15.9256   21.9529 O   0  0  0  0  0  0  0  0  0  0  0  0
    9.0212  -15.7797   22.8216 N   0  0  0  0  0  0  0  0  0  0  0  0
    9.7188  -16.0297   21.5825 C   0  0  1  0  0  0  0  0  0  0  0  0
   10.0505  -14.7416   20.9153 C   0  0  0  0  0  0  0  0  0  0  0  0
    9.0340  -14.2278   19.9741 C   0  0  0  0  0  0  0  0  0  0  0  0
    8.3019  -13.0847   19.9807 C   0  0  0  0  0  0  0  0  0  0  0  0
    7.4801  -13.0725   18.9035 N   0  0  0  0  0  0  0  0  0  0  0  0
    7.7006  -14.2013   18.2327 C   0  0  0  0  0  0  0  0  0  0  0  0
    8.6280  -14.9124   18.8534 N   0  0  0  0  0  0  0  0  0  0  0  0
   11.0268  -16.7218   21.8458 C   0  0  0  0  0  0  0  0  0  0  0  0
   11.6707  -16.4397   22.8858 O   0  0  0  0  0  0  0  0  0  0  0  0
   11.4344  -20.3403   21.6672 O   0  0  0  0  0  0  0  0  0  0  0  0
   12.5745  -19.9284   20.9519 C   0  0  0  0  0  0  0  0  0  0  0  0
   12.7627  -18.4626   21.2671 C   0  0  2  0  0  0  0  0  0  0  0  0
   11.5741  -17.6852   20.9710 N   0  0  0  0  0  0  0  0  0  0  0  0
   13.9321  -17.9169   20.5798 C   0  0  0  0  0  0  0  0  0  0  0  0
   15.2007  -18.4021   20.8172 O   0  0  0  0  0  0  0  0  0  0  0  0
   13.7824  -16.9849   19.7534 O   0  0  0  0  0  0  0  0  0  0  0  0
  2  1  1  1
  2  3  1  0
  3  4  1  0
  4  9  2  0
  5  6  2  0
  5  4  1  0
  6  7  1  0
  7  8  2  0
  9  8  1  0
 10  2  1  0
 10 12  1  0
 11 10  2  0
 13 12  1  0
 13 14  1  1
 14 15  1  0
 15 19  1  0
 15 16  2  0
 16 17  1  0
 18 17  1  0
 19 18  2  0
 20 21  2  0
 20 13  1  0
 22 23  1  0
 24 23  1  6
 24 25  1  0
 24 26  1  0
 25 20  1  0
 26 28  2  0
 26 27  1  0
M  END
$$$$
