FHS.pdb
     RDKit          3D

 28 29  0  0  1  0  0  0  0  0999 V2000
    5.6115  -17.0569   24.6697 N   0  0  0  0  0  0  0  0  0  0  0  0
    6.6036  -16.0314   24.6198 C   0  0  1  0  0  0  0  0  0  0  0  0
    7.0087  -15.7010   26.0497 C   0  0  0  0  0  0  0  0  0  0  0  0
    6.9638  -14.2497   26.3382 C   0  0  0  0  0  0  0  0  0  0  0  0
    5.7577  -13.6669   26.6638 C   0  0  0  0  0  0  0  0  0  0  0  0
    5.6588  -12.3015   26.9408 C   0  0  0  0  0  0  0  0  0  0  0  0
    6.8071  -11.5241   26.8839 C   0  0  0  0  0  0  0  0  0  0  0  0
    8.0232  -12.0865   26.5603 C   0  0  0  0  0  0  0  0  0  0  0  0
    8.0741  -13.4359   26.2950 C   0  0  0  0  0  0  0  0  0  0  0  0
    7.7881  -16.4000   23.8143 C   0  0  0  0  0  0  0  0  0  0  0  0
    8.2319  -17.5719   23.7990 O   0  0  0  0  0  0  0  0  0  0  0  0
    8.4335  -15.4075   23.0444 N   0  0  0  0  0  0  0  0  0  0  0  0
    9.5673  -15.6432   22.1821 C   0  0  1  0  0  0  0  0  0  0  0  0
    9.7963  -14.4617   21.3068 C   0  0  0  0  0  0  0  0  0  0  0  0
    8.7789  -14.2336   20.2599 C   0  0  0  0  0  0  0  0  0  0  0  0
    7.7501  -15.0055   19.8257 C   0  0  0  0  0  0  0  0  0  0  0  0
    7.1033  -14.3665   18.8211 N   0  0  0  0  0  0  0  0  0  0  0  0
    7.7271  -13.2053   18.6329 C   0  0  0  0  0  0  0  0  0  0  0  0
    8.7359  -13.1006   19.4829 N   0  0  0  0  0  0  0  0  0  0  0  0
   10.8190  -15.8192   22.9955 C   0  0  0  0  0  0  0  0  0  0  0  0
   10.9490  -15.1775   24.0665 O   0  0  0  0  0  0  0  0  0  0  0  0
   11.6372  -19.1503   24.0523 O   0  0  0  0  0  0  0  0  0  0  0  0
   12.2013  -18.0077   24.6503 C   0  0  0  0  0  0  0  0  0  0  0  0
   12.8484  -17.2234   23.5326 C   0  0  2  0  0  0  0  0  0  0  0  0
   11.8687  -16.6810   22.6101 N   0  0  0  0  0  0  0  0  0  0  0  0
   13.8456  -18.0270   22.8273 C   0  0  0  0  0  0  0  0  0  0  0  0
   13.7192  -18.3202   21.4860 O   0  0  0  0  0  0  0  0  0  0  0  0
   14.8417  -18.4622   23.4535 O   0  0  0  0  0  0  0  0  0  0  0  0
  2  1  1  1
  2  3  1  0
  3  4  1  0
  4  9  2  0
  5  6  2  0
  5  4  1  0
  6  7  1  0
  7  8  2  0
  9  8  1  0
 10  2  1  0
 10 12  1  0
 11 10  2  0
 13 12  1  0
 13 14  1  6
 14 15  1  0
 15 19  1  0
 15 16  2  0
 16 17  1  0
 18 17  1  0
 19 18  2  0
 20 21  2  0
 20 13  1  0
 22 23  1  0
 24 23  1  1
 24 25  1  0
 24 26  1  0
 25 20  1  0
 26 28  2  0
 26 27  1  0
M  END
$$$$
