FHS.pdb
     RDKit          3D

 28 29  0  0  1  0  0  0  0  0999 V2000
    6.1503  -16.7021   25.9724 N   0  0  0  0  0  0  0  0  0  0  0  0
    6.9835  -15.9819   25.0639 C   0  0  1  0  0  0  0  0  0  0  0  0
    7.8019  -14.9826   25.8698 C   0  0  0  0  0  0  0  0  0  0  0  0
    7.1102  -13.6861   26.0489 C   0  0  0  0  0  0  0  0  0  0  0  0
    7.2320  -12.7196   25.0735 C   0  0  0  0  0  0  0  0  0  0  0  0
    6.6039  -11.4780   25.1947 C   0  0  0  0  0  0  0  0  0  0  0  0
    5.8427  -11.2229   26.3266 C   0  0  0  0  0  0  0  0  0  0  0  0
    5.7075  -12.1751   27.3140 C   0  0  0  0  0  0  0  0  0  0  0  0
    6.3440  -13.3846   27.1530 C   0  0  0  0  0  0  0  0  0  0  0  0
    7.8687  -16.8546   24.2623 C   0  0  0  0  0  0  0  0  0  0  0  0
    8.3846  -17.8885   24.7474 O   0  0  0  0  0  0  0  0  0  0  0  0
    8.1382  -16.5143   22.9184 N   0  0  0  0  0  0  0  0  0  0  0  0
    9.0177  -17.2527   22.0432 C   0  0  1  0  0  0  0  0  0  0  0  0
    9.0296  -16.6322   20.6907 C   0  0  0  0  0  0  0  0  0  0  0  0
    9.8750  -17.3070   19.6842 C   0  0  0  0  0  0  0  0  0  0  0  0
   10.7296  -18.3565   19.7889 C   0  0  0  0  0  0  0  0  0  0  0  0
   11.2936  -18.5974   18.5807 N   0  0  0  0  0  0  0  0  0  0  0  0
   10.7924  -17.7026   17.7316 C   0  0  0  0  0  0  0  0  0  0  0  0
    9.9391  -16.9165   18.3679 N   0  0  0  0  0  0  0  0  0  0  0  0
   10.4319  -17.1966   22.5496 C   0  0  0  0  0  0  0  0  0  0  0  0
   10.9956  -16.0816   22.6703 O   0  0  0  0  0  0  0  0  0  0  0  0
   12.0779  -20.1278   24.7352 O   0  0  0  0  0  0  0  0  0  0  0  0
   12.7236  -18.8770   24.7257 C   0  0  0  0  0  0  0  0  0  0  0  0
   12.5524  -18.3252   23.3295 C   0  0  2  0  0  0  0  0  0  0  0  0
   11.1666  -18.3498   22.9006 N   0  0  0  0  0  0  0  0  0  0  0  0
   13.4108  -19.0226   22.3733 C   0  0  0  0  0  0  0  0  0  0  0  0
   14.7853  -18.9832   22.4746 O   0  0  0  0  0  0  0  0  0  0  0  0
   12.8886  -19.6736   21.4366 O   0  0  0  0  0  0  0  0  0  0  0  0
  2  1  1  1
  2  3  1  0
  3  4  1  0
  4  9  2  0
  5  6  2  0
  5  4  1  0
  6  7  1  0
  7  8  2  0
  9  8  1  0
 10  2  1  0
 10 12  1  0
 11 10  2  0
 13 12  1  0
 13 14  1  6
 14 15  1  0
 15 19  1  0
 15 16  2  0
 16 17  1  0
 18 17  1  0
 19 18  2  0
 20 21  2  0
 20 13  1  0
 22 23  1  0
 24 23  1  1
 24 25  1  0
 24 26  1  0
 25 20  1  0
 26 28  2  0
 26 27  1  0
M  END
$$$$
