FHS.pdb
     RDKit          3D

 28 29  0  0  1  0  0  0  0  0999 V2000
    5.1571  -17.2590   24.4757 N   0  0  0  0  0  0  0  0  0  0  0  0
    6.1824  -16.2670   24.5312 C   0  0  1  0  0  0  0  0  0  0  0  0
    6.5169  -16.0199   25.9958 C   0  0  0  0  0  0  0  0  0  0  0  0
    6.6645  -14.5823   26.3162 C   0  0  0  0  0  0  0  0  0  0  0  0
    7.9026  -14.0998   26.6833 C   0  0  0  0  0  0  0  0  0  0  0  0
    8.0960  -12.7533   27.0000 C   0  0  0  0  0  0  0  0  0  0  0  0
    7.0102  -11.8911   26.9401 C   0  0  0  0  0  0  0  0  0  0  0  0
    5.7636  -12.3524   26.5754 C   0  0  0  0  0  0  0  0  0  0  0  0
    5.6189  -13.6869   26.2718 C   0  0  0  0  0  0  0  0  0  0  0  0
    7.3980  -16.6369   23.7741 C   0  0  0  0  0  0  0  0  0  0  0  0
    7.7868  -17.8259   23.6980 O   0  0  0  0  0  0  0  0  0  0  0  0
    8.1373  -15.6260   23.1215 N   0  0  0  0  0  0  0  0  0  0  0  0
    9.2541  -15.8638   22.2379 C   0  0  1  0  0  0  0  0  0  0  0  0
    9.5203  -14.6527   21.4154 C   0  0  0  0  0  0  0  0  0  0  0  0
    8.5970  -14.4322   20.2831 C   0  0  0  0  0  0  0  0  0  0  0  0
    7.6637  -15.2388   19.7166 C   0  0  0  0  0  0  0  0  0  0  0  0
    7.0797  -14.5898   18.6805 N   0  0  0  0  0  0  0  0  0  0  0  0
    7.6475  -13.3879   18.6042 C   0  0  0  0  0  0  0  0  0  0  0  0
    8.5611  -13.2676   19.5538 N   0  0  0  0  0  0  0  0  0  0  0  0
   10.5050  -16.1238   23.0298 C   0  0  0  0  0  0  0  0  0  0  0  0
   10.7526  -15.4135   24.0348 O   0  0  0  0  0  0  0  0  0  0  0  0
   11.6979  -19.1995   24.6753 O   0  0  0  0  0  0  0  0  0  0  0  0
   12.7463  -18.9020   23.7843 C   0  0  0  0  0  0  0  0  0  0  0  0
   12.6222  -17.4305   23.4643 C   0  0  2  0  0  0  0  0  0  0  0  0
   11.4267  -17.1395   22.6955 N   0  0  0  0  0  0  0  0  0  0  0  0
   13.8174  -16.9313   22.7860 C   0  0  0  0  0  0  0  0  0  0  0  0
   13.7424  -16.2977   21.5638 O   0  0  0  0  0  0  0  0  0  0  0  0
   14.9402  -17.0809   23.3255 O   0  0  0  0  0  0  0  0  0  0  0  0
  2  1  1  1
  2  3  1  0
  3  4  1  0
  4  9  2  0
  5  6  2  0
  5  4  1  0
  6  7  1  0
  7  8  2  0
  9  8  1  0
 10  2  1  0
 10 12  1  0
 11 10  2  0
 13 12  1  0
 13 14  1  6
 14 15  1  0
 15 19  1  0
 15 16  2  0
 16 17  1  0
 18 17  1  0
 19 18  2  0
 20 21  2  0
 20 13  1  0
 22 23  1  0
 24 23  1  6
 24 25  1  0
 24 26  1  0
 25 20  1  0
 26 28  2  0
 26 27  1  0
M  END
$$$$
