FHS.pdb
     RDKit          3D

 28 29  0  0  1  0  0  0  0  0999 V2000
    5.1189  -17.4677   24.2672 N   0  0  0  0  0  0  0  0  0  0  0  0
    5.9347  -16.3135   24.4686 C   0  0  1  0  0  0  0  0  0  0  0  0
    6.0998  -16.1119   25.9686 C   0  0  0  0  0  0  0  0  0  0  0  0
    6.6168  -14.7684   26.3137 C   0  0  0  0  0  0  0  0  0  0  0  0
    7.9287  -14.6367   26.7162 C   0  0  0  0  0  0  0  0  0  0  0  0
    8.4655  -13.3932   27.0572 C   0  0  0  0  0  0  0  0  0  0  0  0
    7.6507  -12.2722   26.9854 C   0  0  0  0  0  0  0  0  0  0  0  0
    6.3361  -12.3812   26.5855 C   0  0  0  0  0  0  0  0  0  0  0  0
    5.8491  -13.6262   26.2588 C   0  0  0  0  0  0  0  0  0  0  0  0
    7.2542  -16.4052   23.8066 C   0  0  0  0  0  0  0  0  0  0  0  0
    7.9289  -17.4610   23.8322 O   0  0  0  0  0  0  0  0  0  0  0  0
    7.7652  -15.2760   23.1295 N   0  0  0  0  0  0  0  0  0  0  0  0
    8.9959  -15.2565   22.3749 C   0  0  1  0  0  0  0  0  0  0  0  0
    9.1198  -13.9713   21.6350 C   0  0  0  0  0  0  0  0  0  0  0  0
    8.3885  -13.8974   20.3532 C   0  0  0  0  0  0  0  0  0  0  0  0
    7.4046  -13.0641   19.9287 C   0  0  0  0  0  0  0  0  0  0  0  0
    7.0378  -13.4081   18.6705 N   0  0  0  0  0  0  0  0  0  0  0  0
    7.7892  -14.4488   18.3166 C   0  0  0  0  0  0  0  0  0  0  0  0
    8.6078  -14.7625   19.3079 N   0  0  0  0  0  0  0  0  0  0  0  0
   10.1799  -15.3321   23.2978 C   0  0  0  0  0  0  0  0  0  0  0  0
   10.3109  -14.4675   24.1983 O   0  0  0  0  0  0  0  0  0  0  0  0
   12.0093  -18.7074   24.1717 O   0  0  0  0  0  0  0  0  0  0  0  0
   12.3152  -17.5915   24.9733 C   0  0  0  0  0  0  0  0  0  0  0  0
   12.3434  -16.4003   24.0440 C   0  0  2  0  0  0  0  0  0  0  0  0
   11.1641  -16.3395   23.2011 N   0  0  0  0  0  0  0  0  0  0  0  0
   13.5649  -16.3816   23.2407 C   0  0  0  0  0  0  0  0  0  0  0  0
   14.8134  -16.3629   23.8256 O   0  0  0  0  0  0  0  0  0  0  0  0
   13.4798  -16.3824   21.9891 O   0  0  0  0  0  0  0  0  0  0  0  0
  2  1  1  1
  2  3  1  0
  3  4  1  0
  4  9  2  0
  5  6  2  0
  5  4  1  0
  6  7  1  0
  7  8  2  0
  9  8  1  0
 10  2  1  0
 10 12  1  0
 11 10  2  0
 13 12  1  0
 13 14  1  1
 14 15  1  0
 15 19  1  0
 15 16  2  0
 16 17  1  0
 18 17  1  0
 19 18  2  0
 20 21  2  0
 20 13  1  0
 22 23  1  0
 24 23  1  6
 24 25  1  0
 24 26  1  0
 25 20  1  0
 26 28  2  0
 26 27  1  0
M  END
$$$$
