FHS.pdb
     RDKit          3D

 28 29  0  0  1  0  0  0  0  0999 V2000
    6.2082  -17.3638   25.8951 N   0  0  0  0  0  0  0  0  0  0  0  0
    6.5980  -16.1399   25.2717 C   0  0  1  0  0  0  0  0  0  0  0  0
    7.6287  -15.4653   26.1665 C   0  0  0  0  0  0  0  0  0  0  0  0
    7.2157  -14.1108   26.5976 C   0  0  0  0  0  0  0  0  0  0  0  0
    6.0156  -13.6006   26.1506 C   0  0  0  0  0  0  0  0  0  0  0  0
    5.5805  -12.3268   26.5234 C   0  0  0  0  0  0  0  0  0  0  0  0
    6.3827  -11.5668   27.3630 C   0  0  0  0  0  0  0  0  0  0  0  0
    7.5864  -12.0576   27.8217 C   0  0  0  0  0  0  0  0  0  0  0  0
    7.9755  -13.3178   27.4288 C   0  0  0  0  0  0  0  0  0  0  0  0
    7.1338  -16.3224   23.9052 C   0  0  0  0  0  0  0  0  0  0  0  0
    7.5698  -17.4304   23.5141 O   0  0  0  0  0  0  0  0  0  0  0  0
    7.1540  -15.2217   23.0205 N   0  0  0  0  0  0  0  0  0  0  0  0
    7.6413  -15.2668   21.6621 C   0  0  1  0  0  0  0  0  0  0  0  0
    7.4202  -13.9540   20.9974 C   0  0  0  0  0  0  0  0  0  0  0  0
    7.9265  -13.8437   19.6137 C   0  0  0  0  0  0  0  0  0  0  0  0
    8.6933  -12.8990   19.0118 C   0  0  0  0  0  0  0  0  0  0  0  0
    8.8768  -13.2325   17.7114 N   0  0  0  0  0  0  0  0  0  0  0  0
    8.2275  -14.3769   17.5075 C   0  0  0  0  0  0  0  0  0  0  0  0
    7.6487  -14.7652   18.6324 N   0  0  0  0  0  0  0  0  0  0  0  0
    9.1247  -15.5089   21.6434 C   0  0  0  0  0  0  0  0  0  0  0  0
    9.8557  -14.8961   22.4593 O   0  0  0  0  0  0  0  0  0  0  0  0
   10.6522  -18.7165   19.7563 O   0  0  0  0  0  0  0  0  0  0  0  0
   11.4964  -18.1233   20.7138 C   0  0  0  0  0  0  0  0  0  0  0  0
   11.1737  -16.6472   20.7031 C   0  0  2  0  0  0  0  0  0  0  0  0
    9.7443  -16.4022   20.7428 N   0  0  0  0  0  0  0  0  0  0  0  0
   11.7901  -15.9766   19.5594 C   0  0  0  0  0  0  0  0  0  0  0  0
   13.1559  -15.9797   19.3707 O   0  0  0  0  0  0  0  0  0  0  0  0
   11.0627  -15.3830   18.7273 O   0  0  0  0  0  0  0  0  0  0  0  0
  2  1  1  1
  2  3  1  0
  3  4  1  0
  4  9  2  0
  5  6  2  0
  5  4  1  0
  6  7  1  0
  7  8  2  0
  9  8  1  0
 10  2  1  0
 10 12  1  0
 11 10  2  0
 13 12  1  0
 13 14  1  1
 14 15  1  0
 15 19  1  0
 15 16  2  0
 16 17  1  0
 18 17  1  0
 19 18  2  0
 20 21  2  0
 20 13  1  0
 22 23  1  0
 24 23  1  6
 24 25  1  0
 24 26  1  0
 25 20  1  0
 26 28  2  0
 26 27  1  0
M  END
$$$$
