FHS.pdb
     RDKit          3D

 28 29  0  0  1  0  0  0  0  0999 V2000
    6.6049  -15.5660   21.3282 N   0  0  0  0  0  0  0  0  0  0  0  0
    7.2402  -15.0461   22.4964 C   0  0  1  0  0  0  0  0  0  0  0  0
    6.1537  -14.6875   23.5007 C   0  0  0  0  0  0  0  0  0  0  0  0
    6.6955  -14.1033   24.7483 C   0  0  0  0  0  0  0  0  0  0  0  0
    6.7650  -14.8856   25.8812 C   0  0  0  0  0  0  0  0  0  0  0  0
    7.2636  -14.3829   27.0852 C   0  0  0  0  0  0  0  0  0  0  0  0
    7.6958  -13.0649   27.1300 C   0  0  0  0  0  0  0  0  0  0  0  0
    7.6352  -12.2651   26.0091 C   0  0  0  0  0  0  0  0  0  0  0  0
    7.1367  -12.8021   24.8441 C   0  0  0  0  0  0  0  0  0  0  0  0
    8.2177  -15.9796   23.0970 C   0  0  0  0  0  0  0  0  0  0  0  0
    7.9129  -17.1652   23.3657 O   0  0  0  0  0  0  0  0  0  0  0  0
    9.5253  -15.5237   23.3738 N   0  0  0  0  0  0  0  0  0  0  0  0
   10.6130  -16.3636   23.8168 C   0  0  1  0  0  0  0  0  0  0  0  0
   11.9138  -15.7808   23.3896 C   0  0  0  0  0  0  0  0  0  0  0  0
   12.1724  -15.7898   21.9349 C   0  0  0  0  0  0  0  0  0  0  0  0
   11.5067  -16.3791   20.9091 C   0  0  0  0  0  0  0  0  0  0  0  0
   12.1490  -16.1129   19.7462 N   0  0  0  0  0  0  0  0  0  0  0  0
   13.2070  -15.3632   20.0485 C   0  0  0  0  0  0  0  0  0  0  0  0
   13.2446  -15.1548   21.3547 N   0  0  0  0  0  0  0  0  0  0  0  0
   10.6487  -16.4294   25.3181 C   0  0  0  0  0  0  0  0  0  0  0  0
   10.8525  -15.3779   25.9727 O   0  0  0  0  0  0  0  0  0  0  0  0
    9.2576  -19.6895   27.3677 O   0  0  0  0  0  0  0  0  0  0  0  0
    9.3075  -18.4550   28.0421 C   0  0  0  0  0  0  0  0  0  0  0  0
   10.5036  -17.7187   27.4849 C   0  0  2  0  0  0  0  0  0  0  0  0
   10.4622  -17.6297   26.0374 N   0  0  0  0  0  0  0  0  0  0  0  0
   11.7567  -18.3200   27.9387 C   0  0  0  0  0  0  0  0  0  0  0  0
   12.0550  -18.4422   29.2793 O   0  0  0  0  0  0  0  0  0  0  0  0
   12.5832  -18.7361   27.0916 O   0  0  0  0  0  0  0  0  0  0  0  0
  2  1  1  6
  2  3  1  0
  3  4  1  0
  4  9  2  0
  5  6  2  0
  5  4  1  0
  6  7  1  0
  7  8  2  0
  9  8  1  0
 10  2  1  0
 10 12  1  0
 11 10  2  0
 13 12  1  0
 13 14  1  1
 14 15  1  0
 15 19  1  0
 15 16  2  0
 16 17  1  0
 18 17  1  0
 19 18  2  0
 20 21  2  0
 20 13  1  0
 22 23  1  0
 24 23  1  6
 24 25  1  0
 24 26  1  0
 25 20  1  0
 26 28  2  0
 26 27  1  0
M  END
$$$$
