FHS.pdb
     RDKit          3D

 28 29  0  0  1  0  0  0  0  0999 V2000
    5.4273  -17.0789   24.6290 N   0  0  0  0  0  0  0  0  0  0  0  0
    6.4716  -16.1055   24.6158 C   0  0  1  0  0  0  0  0  0  0  0  0
    6.9041  -15.8622   26.0551 C   0  0  0  0  0  0  0  0  0  0  0  0
    6.9993  -14.4236   26.3905 C   0  0  0  0  0  0  0  0  0  0  0  0
    5.8593  -13.7443   26.7640 C   0  0  0  0  0  0  0  0  0  0  0  0
    5.8926  -12.3858   27.0865 C   0  0  0  0  0  0  0  0  0  0  0  0
    7.1060  -11.7150   27.0259 C   0  0  0  0  0  0  0  0  0  0  0  0
    8.2579  -12.3748   26.6548 C   0  0  0  0  0  0  0  0  0  0  0  0
    8.1786  -13.7135   26.3456 C   0  0  0  0  0  0  0  0  0  0  0  0
    7.6290  -16.4984   23.7829 C   0  0  0  0  0  0  0  0  0  0  0  0
    8.0905  -17.6633   23.8089 O   0  0  0  0  0  0  0  0  0  0  0  0
    8.2277  -15.5377   22.9384 N   0  0  0  0  0  0  0  0  0  0  0  0
    9.3707  -15.7850   22.0916 C   0  0  1  0  0  0  0  0  0  0  0  0
    9.6428  -14.5940   21.2420 C   0  0  0  0  0  0  0  0  0  0  0  0
    8.7186  -14.3925   20.1070 C   0  0  0  0  0  0  0  0  0  0  0  0
    7.6975  -15.1528   19.6359 C   0  0  0  0  0  0  0  0  0  0  0  0
    7.1550  -14.5514   18.5497 N   0  0  0  0  0  0  0  0  0  0  0  0
    7.8356  -13.4250   18.3477 C   0  0  0  0  0  0  0  0  0  0  0  0
    8.7791  -13.3057   19.2677 N   0  0  0  0  0  0  0  0  0  0  0  0
   10.6034  -16.0053   22.9231 C   0  0  0  0  0  0  0  0  0  0  0  0
   11.0275  -15.0730   23.6487 O   0  0  0  0  0  0  0  0  0  0  0  0
   12.0355  -19.7421   23.4860 O   0  0  0  0  0  0  0  0  0  0  0  0
   12.4239  -18.7977   24.4548 C   0  0  0  0  0  0  0  0  0  0  0  0
   12.4930  -17.4671   23.7420 C   0  0  2  0  0  0  0  0  0  0  0  0
   11.3167  -17.2235   22.9286 N   0  0  0  0  0  0  0  0  0  0  0  0
   13.7146  -17.3530   22.9467 C   0  0  0  0  0  0  0  0  0  0  0  0
   14.9628  -17.4789   23.5185 O   0  0  0  0  0  0  0  0  0  0  0  0
   13.6296  -17.1353   21.7141 O   0  0  0  0  0  0  0  0  0  0  0  0
  2  1  1  1
  2  3  1  0
  3  4  1  0
  4  9  2  0
  5  6  2  0
  5  4  1  0
  6  7  1  0
  7  8  2  0
  9  8  1  0
 10  2  1  0
 10 12  1  0
 11 10  2  0
 13 12  1  0
 13 14  1  6
 14 15  1  0
 15 19  1  0
 15 16  2  0
 16 17  1  0
 18 17  1  0
 19 18  2  0
 20 21  2  0
 20 13  1  0
 22 23  1  0
 24 23  1  6
 24 25  1  0
 24 26  1  0
 25 20  1  0
 26 28  2  0
 26 27  1  0
M  END
$$$$
