EVF.pdb
     RDKit          3D

 28 28  0  0  1  0  0  0  0  0999 V2000
   12.3664  -15.0008   19.2084 N   0  0  0  0  0  0  0  0  0  0  0  0
   11.8016  -15.9920   20.0753 C   0  0  1  0  0  0  0  0  0  0  0  0
   12.8148  -16.8802   20.7155 C   0  0  0  0  0  0  0  0  0  0  0  0
   13.2672  -18.0371   19.8951 C   0  0  0  0  0  0  0  0  0  0  0  0
   14.3420  -18.8402   20.4798 C   0  0  0  0  0  0  0  0  0  0  0  0
   15.3913  -18.3954   20.9948 O   0  0  0  0  0  0  0  0  0  0  0  0
   10.9664  -15.3626   21.1573 C   0  0  0  0  0  0  0  0  0  0  0  0
   11.4848  -14.6246   22.0332 O   0  0  0  0  0  0  0  0  0  0  0  0
   14.1998  -20.2267   20.4701 O   0  0  0  0  0  0  0  0  0  0  0  0
    7.6717  -13.3661   20.9037 C   0  0  0  0  0  0  0  0  0  0  0  0
    7.4388  -14.5619   21.8033 C   0  0  1  0  0  0  0  0  0  0  0  0
    6.7247  -15.6068   20.9884 C   0  0  0  0  0  0  0  0  0  0  0  0
    8.7701  -15.0551   22.3367 C   0  0  2  0  0  0  0  0  0  0  0  0
    9.5580  -15.5746   21.2361 N   0  0  0  0  0  0  0  0  0  0  0  0
    8.5849  -16.0653   23.4077 C   0  0  0  0  0  0  0  0  0  0  0  0
    8.9722  -17.2419   23.1976 O   0  0  0  0  0  0  0  0  0  0  0  0
    7.9834  -15.7140   24.6443 N   0  0  0  0  0  0  0  0  0  0  0  0
    7.7532  -16.6313   25.7380 C   0  0  1  0  0  0  0  0  0  0  0  0
    7.4259  -15.9534   27.0147 C   0  0  0  0  0  0  0  0  0  0  0  0
    8.4883  -15.0033   27.3965 C   0  0  0  0  0  0  0  0  0  0  0  0
    9.6811  -15.4343   27.9867 C   0  0  0  0  0  0  0  0  0  0  0  0
   10.6823  -14.5658   28.3263 C   0  0  0  0  0  0  0  0  0  0  0  0
   10.5248  -13.2108   28.0839 C   0  0  0  0  0  0  0  0  0  0  0  0
    9.3354  -12.7773   27.4947 C   0  0  0  0  0  0  0  0  0  0  0  0
    8.3295  -13.6496   27.1535 C   0  0  0  0  0  0  0  0  0  0  0  0
    6.8229  -17.6984   25.3131 C   0  0  0  0  0  0  0  0  0  0  0  0
    6.0109  -17.5004   24.2064 O   0  0  0  0  0  0  0  0  0  0  0  0
    6.6983  -18.8096   25.8837 O   0  0  0  0  0  0  0  0  0  0  0  0
  2  1  1  1
  2  3  1  0
  3  4  1  0
  4  5  1  0
  5  9  1  0
  6  5  2  0
  7  8  2  0
  7  2  1  0
 11 10  1  6
 11 13  1  0
 11 12  1  0
 13 14  1  6
 14  7  1  0
 15 13  1  0
 16 15  2  0
 17 15  1  0
 18 17  1  0
 18 19  1  1
 19 20  1  0
 20 25  2  0
 20 21  1  0
 21 22  2  0
 22 23  1  0
 24 23  2  0
 25 24  1  0
 26 18  1  0
 27 26  1  0
 28 26  2  0
M  END
$$$$
