EVF.pdb
     RDKit          3D

 28 28  0  0  1  0  0  0  0  0999 V2000
    8.9579  -18.2193   18.6192 N   0  0  0  0  0  0  0  0  0  0  0  0
   10.2187  -17.9320   19.2363 C   0  0  1  0  0  0  0  0  0  0  0  0
   11.3004  -17.5922   18.2668 C   0  0  0  0  0  0  0  0  0  0  0  0
   12.6578  -17.4161   18.8522 C   0  0  0  0  0  0  0  0  0  0  0  0
   13.7451  -17.2659   17.8840 C   0  0  0  0  0  0  0  0  0  0  0  0
   14.8704  -16.7725   18.1172 O   0  0  0  0  0  0  0  0  0  0  0  0
   10.0992  -16.8094   20.2314 C   0  0  0  0  0  0  0  0  0  0  0  0
   11.1130  -16.3408   20.8085 O   0  0  0  0  0  0  0  0  0  0  0  0
   13.5236  -17.7071   16.5805 O   0  0  0  0  0  0  0  0  0  0  0  0
    7.8672  -13.5931   20.0542 C   0  0  0  0  0  0  0  0  0  0  0  0
    7.5578  -14.3345   21.3379 C   0  0  1  0  0  0  0  0  0  0  0  0
    6.2477  -15.0491   21.1412 C   0  0  0  0  0  0  0  0  0  0  0  0
    8.6946  -15.2878   21.6529 C   0  0  2  0  0  0  0  0  0  0  0  0
    8.8376  -16.2312   20.5614 N   0  0  0  0  0  0  0  0  0  0  0  0
    8.4829  -15.9744   22.9512 C   0  0  0  0  0  0  0  0  0  0  0  0
    8.1530  -17.1866   22.9433 O   0  0  0  0  0  0  0  0  0  0  0  0
    8.6485  -15.2799   24.1780 N   0  0  0  0  0  0  0  0  0  0  0  0
    8.5088  -15.8769   25.4875 C   0  0  1  0  0  0  0  0  0  0  0  0
    8.8224  -14.9437   26.5953 C   0  0  0  0  0  0  0  0  0  0  0  0
    7.9590  -13.7485   26.5402 C   0  0  0  0  0  0  0  0  0  0  0  0
    8.3068  -12.6260   25.7812 C   0  0  0  0  0  0  0  0  0  0  0  0
    7.5051  -11.5199   25.7053 C   0  0  0  0  0  0  0  0  0  0  0  0
    6.3052  -11.4950   26.3977 C   0  0  0  0  0  0  0  0  0  0  0  0
    5.9550  -12.6138   27.1562 C   0  0  0  0  0  0  0  0  0  0  0  0
    6.7602  -13.7251   27.2326 C   0  0  0  0  0  0  0  0  0  0  0  0
    7.2151  -16.5855   25.5826 C   0  0  0  0  0  0  0  0  0  0  0  0
    6.2236  -16.3324   24.6466 O   0  0  0  0  0  0  0  0  0  0  0  0
    6.9229  -17.4282   26.4660 O   0  0  0  0  0  0  0  0  0  0  0  0
  2  1  1  6
  2  3  1  0
  3  4  1  0
  4  5  1  0
  5  9  1  0
  6  5  2  0
  7  8  2  0
  7  2  1  0
 11 10  1  6
 11 13  1  0
 11 12  1  0
 13 14  1  6
 14  7  1  0
 15 13  1  0
 16 15  2  0
 17 15  1  0
 18 17  1  0
 18 19  1  1
 19 20  1  0
 20 25  2  0
 20 21  1  0
 21 22  2  0
 22 23  1  0
 24 23  2  0
 25 24  1  0
 26 18  1  0
 27 26  1  0
 28 26  2  0
M  END
$$$$
