EVF.pdb
     RDKit          3D

 28 28  0  0  1  0  0  0  0  0999 V2000
   10.2392  -17.1897   18.1701 N   0  0  0  0  0  0  0  0  0  0  0  0
   10.8740  -17.4265   19.4325 C   0  0  1  0  0  0  0  0  0  0  0  0
   12.3635  -17.3634   19.3790 C   0  0  0  0  0  0  0  0  0  0  0  0
   13.0727  -18.6423   19.6576 C   0  0  0  0  0  0  0  0  0  0  0  0
   14.4452  -18.5061   20.1471 C   0  0  0  0  0  0  0  0  0  0  0  0
   14.8718  -18.9074   21.2522 O   0  0  0  0  0  0  0  0  0  0  0  0
   10.3922  -16.4584   20.4790 C   0  0  0  0  0  0  0  0  0  0  0  0
   11.1600  -15.5893   20.9643 O   0  0  0  0  0  0  0  0  0  0  0  0
   15.3731  -17.8751   19.3205 O   0  0  0  0  0  0  0  0  0  0  0  0
    7.3086  -14.3080   20.3050 C   0  0  0  0  0  0  0  0  0  0  0  0
    7.2220  -15.0492   21.6228 C   0  0  1  0  0  0  0  0  0  0  0  0
    6.2138  -16.1540   21.4532 C   0  0  0  0  0  0  0  0  0  0  0  0
    8.5958  -15.5728   21.9950 C   0  0  2  0  0  0  0  0  0  0  0  0
    9.0507  -16.4843   20.9633 N   0  0  0  0  0  0  0  0  0  0  0  0
    8.5880  -16.2139   23.3332 C   0  0  0  0  0  0  0  0  0  0  0  0
    8.6435  -17.4673   23.3995 O   0  0  0  0  0  0  0  0  0  0  0  0
    8.5193  -15.4314   24.5154 N   0  0  0  0  0  0  0  0  0  0  0  0
    8.4333  -15.9691   25.8548 C   0  0  1  0  0  0  0  0  0  0  0  0
    8.7815  -14.9848   26.9067 C   0  0  0  0  0  0  0  0  0  0  0  0
    8.1369  -13.6832   26.6472 C   0  0  0  0  0  0  0  0  0  0  0  0
    6.8588  -13.3872   27.1326 C   0  0  0  0  0  0  0  0  0  0  0  0
    6.2587  -12.1767   26.9165 C   0  0  0  0  0  0  0  0  0  0  0  0
    6.9263  -11.2008   26.1943 C   0  0  0  0  0  0  0  0  0  0  0  0
    8.2023  -11.4930   25.7083 C   0  0  0  0  0  0  0  0  0  0  0  0
    8.8053  -12.7089   25.9254 C   0  0  0  0  0  0  0  0  0  0  0  0
    7.1492  -16.6797   26.0308 C   0  0  0  0  0  0  0  0  0  0  0  0
    7.0048  -17.5893   27.0677 O   0  0  0  0  0  0  0  0  0  0  0  0
    6.1397  -16.5270   25.3005 O   0  0  0  0  0  0  0  0  0  0  0  0
  2  1  1  6
  2  3  1  0
  3  4  1  0
  4  5  1  0
  5  9  1  0
  6  5  2  0
  7  8  2  0
  7  2  1  0
 11 10  1  6
 11 13  1  0
 11 12  1  0
 13 14  1  6
 14  7  1  0
 15 13  1  0
 16 15  2  0
 17 15  1  0
 18 17  1  0
 18 19  1  1
 19 20  1  0
 20 25  2  0
 20 21  1  0
 21 22  2  0
 22 23  1  0
 24 23  2  0
 25 24  1  0
 26 18  1  0
 27 26  1  0
 28 26  2  0
M  END
$$$$
