EVF.pdb
     RDKit          3D

 28 28  0  0  1  0  0  0  0  0999 V2000
   10.1235  -15.4599   19.7081 N   0  0  0  0  0  0  0  0  0  0  0  0
    8.8048  -14.9335   19.9008 C   0  0  1  0  0  0  0  0  0  0  0  0
    7.9149  -15.0886   18.7135 C   0  0  0  0  0  0  0  0  0  0  0  0
    8.5009  -14.6700   17.4106 C   0  0  0  0  0  0  0  0  0  0  0  0
    7.6605  -14.9119   16.2369 C   0  0  0  0  0  0  0  0  0  0  0  0
    7.0146  -15.9567   16.0015 O   0  0  0  0  0  0  0  0  0  0  0  0
    8.1305  -15.5647   21.0888 C   0  0  0  0  0  0  0  0  0  0  0  0
    6.9527  -15.2603   21.4062 O   0  0  0  0  0  0  0  0  0  0  0  0
    7.5598  -13.8976   15.2863 O   0  0  0  0  0  0  0  0  0  0  0  0
    7.2570  -19.0011   21.9282 C   0  0  0  0  0  0  0  0  0  0  0  0
    8.1696  -18.5608   23.0536 C   0  0  1  0  0  0  0  0  0  0  0  0
    9.5307  -19.1447   22.7850 C   0  0  0  0  0  0  0  0  0  0  0  0
    8.1930  -17.0456   23.1166 C   0  0  2  0  0  0  0  0  0  0  0  0
    8.7943  -16.5304   21.9021 N   0  0  0  0  0  0  0  0  0  0  0  0
    8.8996  -16.5639   24.3293 C   0  0  0  0  0  0  0  0  0  0  0  0
   10.1360  -16.3521   24.2602 O   0  0  0  0  0  0  0  0  0  0  0  0
    8.1971  -16.3458   25.5433 N   0  0  0  0  0  0  0  0  0  0  0  0
    8.8088  -15.9271   26.7847 C   0  0  1  0  0  0  0  0  0  0  0  0
    7.9604  -15.0052   27.5764 C   0  0  0  0  0  0  0  0  0  0  0  0
    7.5967  -13.8125   26.7875 C   0  0  0  0  0  0  0  0  0  0  0  0
    8.5682  -12.9398   26.2859 C   0  0  0  0  0  0  0  0  0  0  0  0
    8.2452  -11.8422   25.5357 C   0  0  0  0  0  0  0  0  0  0  0  0
    6.9156  -11.5721   25.2546 C   0  0  0  0  0  0  0  0  0  0  0  0
    5.9434  -12.4412   25.7537 C   0  0  0  0  0  0  0  0  0  0  0  0
    6.2677  -13.5439   26.5073 C   0  0  0  0  0  0  0  0  0  0  0  0
    9.3382  -17.1030   27.5070 C   0  0  0  0  0  0  0  0  0  0  0  0
    9.0340  -18.3790   27.0570 O   0  0  0  0  0  0  0  0  0  0  0  0
   10.0668  -17.0488   28.5278 O   0  0  0  0  0  0  0  0  0  0  0  0
  2  1  1  6
  2  3  1  0
  3  4  1  0
  4  5  1  0
  5  9  1  0
  6  5  2  0
  7  8  2  0
  7  2  1  0
 11 10  1  6
 11 13  1  0
 11 12  1  0
 13 14  1  6
 14  7  1  0
 15 13  1  0
 16 15  2  0
 17 15  1  0
 18 17  1  0
 18 19  1  1
 19 20  1  0
 20 25  2  0
 20 21  1  0
 21 22  2  0
 22 23  1  0
 24 23  2  0
 25 24  1  0
 26 18  1  0
 27 26  1  0
 28 26  2  0
M  END
$$$$
