EVF.pdb
     RDKit          3D

 28 28  0  0  1  0  0  0  0  0999 V2000
   10.3989  -16.6705   17.8260 N   0  0  0  0  0  0  0  0  0  0  0  0
   10.7762  -17.1482   19.1231 C   0  0  1  0  0  0  0  0  0  0  0  0
   12.2332  -17.4390   19.2575 C   0  0  0  0  0  0  0  0  0  0  0  0
   12.5812  -18.8503   19.5790 C   0  0  0  0  0  0  0  0  0  0  0  0
   13.8178  -19.3463   18.9732 C   0  0  0  0  0  0  0  0  0  0  0  0
   14.5162  -18.7388   18.1321 O   0  0  0  0  0  0  0  0  0  0  0  0
   10.3816  -16.1761   20.2019 C   0  0  0  0  0  0  0  0  0  0  0  0
   11.1990  -15.3309   20.6469 O   0  0  0  0  0  0  0  0  0  0  0  0
   14.2723  -20.6068   19.3567 O   0  0  0  0  0  0  0  0  0  0  0  0
    7.6110  -13.7977   20.1209 C   0  0  0  0  0  0  0  0  0  0  0  0
    7.4023  -14.5503   21.4184 C   0  0  1  0  0  0  0  0  0  0  0  0
    6.2749  -15.5232   21.1988 C   0  0  0  0  0  0  0  0  0  0  0  0
    8.6940  -15.2416   21.8106 C   0  0  2  0  0  0  0  0  0  0  0  0
    9.0704  -16.1712   20.7636 N   0  0  0  0  0  0  0  0  0  0  0  0
    8.5712  -15.9144   23.1275 C   0  0  0  0  0  0  0  0  0  0  0  0
    8.4609  -17.1655   23.1553 O   0  0  0  0  0  0  0  0  0  0  0  0
    8.5779  -15.1639   24.3322 N   0  0  0  0  0  0  0  0  0  0  0  0
    8.5069  -15.7352   25.6586 C   0  0  1  0  0  0  0  0  0  0  0  0
    8.7419  -14.7468   26.7376 C   0  0  0  0  0  0  0  0  0  0  0  0
    7.7118  -13.6905   26.7206 C   0  0  0  0  0  0  0  0  0  0  0  0
    7.6228  -12.7688   25.6720 C   0  0  0  0  0  0  0  0  0  0  0  0
    6.6596  -11.7978   25.6342 C   0  0  0  0  0  0  0  0  0  0  0  0
    5.7338  -11.7113   26.6614 C   0  0  0  0  0  0  0  0  0  0  0  0
    5.8198  -12.6298   27.7095 C   0  0  0  0  0  0  0  0  0  0  0  0
    6.7873  -13.6053   27.7477 C   0  0  0  0  0  0  0  0  0  0  0  0
    7.2863  -16.5587   25.7877 C   0  0  0  0  0  0  0  0  0  0  0  0
    7.2004  -17.5048   26.7980 O   0  0  0  0  0  0  0  0  0  0  0  0
    6.2824  -16.4744   25.0386 O   0  0  0  0  0  0  0  0  0  0  0  0
  2  1  1  6
  2  3  1  0
  3  4  1  0
  4  5  1  0
  5  9  1  0
  6  5  2  0
  7  8  2  0
  7  2  1  0
 11 10  1  6
 11 13  1  0
 11 12  1  0
 13 14  1  6
 14  7  1  0
 15 13  1  0
 16 15  2  0
 17 15  1  0
 18 17  1  0
 18 19  1  1
 19 20  1  0
 20 25  2  0
 20 21  1  0
 21 22  2  0
 22 23  1  0
 24 23  2  0
 25 24  1  0
 26 18  1  0
 27 26  1  0
 28 26  2  0
M  END
$$$$
