EVF.pdb
     RDKit          3D

 28 28  0  0  1  0  0  0  0  0999 V2000
    7.4911  -19.5528   19.8000 N   0  0  0  0  0  0  0  0  0  0  0  0
    7.2129  -18.7555   20.9576 C   0  0  1  0  0  0  0  0  0  0  0  0
    7.3251  -19.5021   22.2443 C   0  0  0  0  0  0  0  0  0  0  0  0
    8.0058  -20.8237   22.1648 C   0  0  0  0  0  0  0  0  0  0  0  0
    8.7488  -21.2209   23.3615 C   0  0  0  0  0  0  0  0  0  0  0  0
    9.9854  -21.1241   23.5215 O   0  0  0  0  0  0  0  0  0  0  0  0
    8.1133  -17.5516   21.0238 C   0  0  0  0  0  0  0  0  0  0  0  0
    9.3360  -17.6373   20.7441 O   0  0  0  0  0  0  0  0  0  0  0  0
    8.0294  -21.7571   24.4281 O   0  0  0  0  0  0  0  0  0  0  0  0
    6.5197  -13.7291   22.0497 C   0  0  0  0  0  0  0  0  0  0  0  0
    7.6683  -13.8748   21.0736 C   0  0  1  0  0  0  0  0  0  0  0  0
    8.4791  -12.6083   21.1392 C   0  0  0  0  0  0  0  0  0  0  0  0
    8.4825  -15.1017   21.4368 C   0  0  2  0  0  0  0  0  0  0  0  0
    7.6217  -16.2678   21.4046 N   0  0  0  0  0  0  0  0  0  0  0  0
    9.1460  -14.9420   22.7544 C   0  0  0  0  0  0  0  0  0  0  0  0
   10.0530  -14.0805   22.8702 O   0  0  0  0  0  0  0  0  0  0  0  0
    8.7668  -15.7436   23.8627 N   0  0  0  0  0  0  0  0  0  0  0  0
    9.3271  -15.6303   25.1908 C   0  0  1  0  0  0  0  0  0  0  0  0
    8.3006  -15.5519   26.2571 C   0  0  0  0  0  0  0  0  0  0  0  0
    7.6871  -14.2108   26.3028 C   0  0  0  0  0  0  0  0  0  0  0  0
    8.4478  -13.0637   26.5527 C   0  0  0  0  0  0  0  0  0  0  0  0
    7.8945  -11.8126   26.5772 C   0  0  0  0  0  0  0  0  0  0  0  0
    6.5365  -11.6599   26.3488 C   0  0  0  0  0  0  0  0  0  0  0  0
    5.7743  -12.8029   26.0991 C   0  0  0  0  0  0  0  0  0  0  0  0
    6.3300  -14.0598   26.0744 C   0  0  0  0  0  0  0  0  0  0  0  0
   10.3831  -16.6470   25.3805 C   0  0  0  0  0  0  0  0  0  0  0  0
   10.1266  -17.9711   25.0577 O   0  0  0  0  0  0  0  0  0  0  0  0
   11.5342  -16.4109   25.8219 O   0  0  0  0  0  0  0  0  0  0  0  0
  2  1  1  6
  2  3  1  0
  3  4  1  0
  4  5  1  0
  5  9  1  0
  6  5  2  0
  7  8  2  0
  7  2  1  0
 11 10  1  1
 11 13  1  0
 11 12  1  0
 13 14  1  1
 14  7  1  0
 15 13  1  0
 16 15  2  0
 17 15  1  0
 18 17  1  0
 18 19  1  1
 19 20  1  0
 20 25  2  0
 20 21  1  0
 21 22  2  0
 22 23  1  0
 24 23  2  0
 25 24  1  0
 26 18  1  0
 27 26  1  0
 28 26  2  0
M  END
$$$$
