EVF.pdb
     RDKit          3D

 28 28  0  0  1  0  0  0  0  0999 V2000
    9.4874  -18.5825   19.1311 N   0  0  0  0  0  0  0  0  0  0  0  0
    9.1413  -18.4142   20.5113 C   0  0  1  0  0  0  0  0  0  0  0  0
    9.7857  -19.4070   21.4193 C   0  0  0  0  0  0  0  0  0  0  0  0
   10.7431  -20.3453   20.7719 C   0  0  0  0  0  0  0  0  0  0  0  0
   11.3881  -21.3041   21.6701 C   0  0  0  0  0  0  0  0  0  0  0  0
   12.4984  -21.1543   22.2259 O   0  0  0  0  0  0  0  0  0  0  0  0
    9.4812  -17.0312   20.9975 C   0  0  0  0  0  0  0  0  0  0  0  0
   10.6481  -16.5746   20.8966 O   0  0  0  0  0  0  0  0  0  0  0  0
   10.7188  -22.4962   21.9414 O   0  0  0  0  0  0  0  0  0  0  0  0
    7.8072  -13.9164   19.9349 C   0  0  0  0  0  0  0  0  0  0  0  0
    7.7597  -13.8870   21.4483 C   0  0  1  0  0  0  0  0  0  0  0  0
    6.3665  -14.2776   21.8632 C   0  0  0  0  0  0  0  0  0  0  0  0
    8.8126  -14.8280   22.0015 C   0  0  2  0  0  0  0  0  0  0  0  0
    8.4998  -16.1828   21.5906 N   0  0  0  0  0  0  0  0  0  0  0  0
    8.9239  -14.7108   23.4765 C   0  0  0  0  0  0  0  0  0  0  0  0
    8.7098  -13.5930   24.0085 O   0  0  0  0  0  0  0  0  0  0  0  0
    9.2648  -15.8352   24.2729 N   0  0  0  0  0  0  0  0  0  0  0  0
    9.0546  -15.9272   25.7005 C   0  0  1  0  0  0  0  0  0  0  0  0
    7.6663  -15.6105   26.1117 C   0  0  0  0  0  0  0  0  0  0  0  0
    7.5320  -14.1843   26.4655 C   0  0  0  0  0  0  0  0  0  0  0  0
    6.3258  -13.4964   26.2963 C   0  0  0  0  0  0  0  0  0  0  0  0
    6.1825  -12.1798   26.6397 C   0  0  0  0  0  0  0  0  0  0  0  0
    7.2590  -11.4906   27.1744 C   0  0  0  0  0  0  0  0  0  0  0  0
    8.4645  -12.1743   27.3447 C   0  0  0  0  0  0  0  0  0  0  0  0
    8.6086  -13.4970   26.9998 C   0  0  0  0  0  0  0  0  0  0  0  0
    9.6078  -17.1996   26.2101 C   0  0  0  0  0  0  0  0  0  0  0  0
    9.7605  -17.3832   27.5762 O   0  0  0  0  0  0  0  0  0  0  0  0
    9.9634  -18.1654   25.4913 O   0  0  0  0  0  0  0  0  0  0  0  0
  2  1  1  6
  2  3  1  0
  3  4  1  0
  4  5  1  0
  5  9  1  0
  6  5  2  0
  7  8  2  0
  7  2  1  0
 11 10  1  6
 11 13  1  0
 11 12  1  0
 13 14  1  1
 14  7  1  0
 15 13  1  0
 16 15  2  0
 17 15  1  0
 18 17  1  0
 18 19  1  6
 19 20  1  0
 20 25  2  0
 20 21  1  0
 21 22  2  0
 22 23  1  0
 24 23  2  0
 25 24  1  0
 26 18  1  0
 27 26  1  0
 28 26  2  0
M  END
$$$$
