EVF.pdb
     RDKit          3D

 28 28  0  0  1  0  0  0  0  0999 V2000
    7.7428  -18.1350   19.7031 N   0  0  0  0  0  0  0  0  0  0  0  0
    9.1654  -17.9928   19.6081 C   0  0  1  0  0  0  0  0  0  0  0  0
    9.6833  -18.0379   18.2099 C   0  0  0  0  0  0  0  0  0  0  0  0
    8.7715  -17.4917   17.1675 C   0  0  0  0  0  0  0  0  0  0  0  0
    9.2196  -17.6682   15.7854 C   0  0  0  0  0  0  0  0  0  0  0  0
   10.2753  -18.2333   15.4244 O   0  0  0  0  0  0  0  0  0  0  0  0
    9.6329  -16.7143   20.2496 C   0  0  0  0  0  0  0  0  0  0  0  0
   10.8457  -16.3841   20.2340 O   0  0  0  0  0  0  0  0  0  0  0  0
    8.4092  -17.1679   14.7678 O   0  0  0  0  0  0  0  0  0  0  0  0
    8.1506  -13.3936   19.5411 C   0  0  0  0  0  0  0  0  0  0  0  0
    8.2009  -13.4725   21.0526 C   0  0  1  0  0  0  0  0  0  0  0  0
    6.7996  -13.7312   21.5374 C   0  0  0  0  0  0  0  0  0  0  0  0
    9.1666  -14.5665   21.4658 C   0  0  2  0  0  0  0  0  0  0  0  0
    8.7253  -15.8263   20.8998 N   0  0  0  0  0  0  0  0  0  0  0  0
    9.3016  -14.6421   22.9416 C   0  0  0  0  0  0  0  0  0  0  0  0
    9.9042  -13.7152   23.5383 O   0  0  0  0  0  0  0  0  0  0  0  0
    8.7630  -15.7367   23.6672 N   0  0  0  0  0  0  0  0  0  0  0  0
    8.7977  -15.8671   25.1068 C   0  0  1  0  0  0  0  0  0  0  0  0
    7.4663  -15.7244   25.7421 C   0  0  0  0  0  0  0  0  0  0  0  0
    7.1789  -14.3116   26.0559 C   0  0  0  0  0  0  0  0  0  0  0  0
    5.8960  -13.7734   25.9095 C   0  0  0  0  0  0  0  0  0  0  0  0
    5.6121  -12.4707   26.2167 C   0  0  0  0  0  0  0  0  0  0  0  0
    6.6182  -11.6439   26.6899 C   0  0  0  0  0  0  0  0  0  0  0  0
    7.8999  -12.1780   26.8373 C   0  0  0  0  0  0  0  0  0  0  0  0
    8.1852  -13.4866   26.5287 C   0  0  0  0  0  0  0  0  0  0  0  0
    9.5716  -17.0682   25.4852 C   0  0  0  0  0  0  0  0  0  0  0  0
    9.8208  -17.3303   26.8240 O   0  0  0  0  0  0  0  0  0  0  0  0
   10.0394  -17.9043   24.6740 O   0  0  0  0  0  0  0  0  0  0  0  0
  2  1  1  6
  2  3  1  0
  3  4  1  0
  4  5  1  0
  5  9  1  0
  6  5  2  0
  7  8  2  0
  7  2  1  0
 11 10  1  6
 11 13  1  0
 11 12  1  0
 13 14  1  1
 14  7  1  0
 15 13  1  0
 16 15  2  0
 17 15  1  0
 18 17  1  0
 18 19  1  6
 19 20  1  0
 20 25  2  0
 20 21  1  0
 21 22  2  0
 22 23  1  0
 24 23  2  0
 25 24  1  0
 26 18  1  0
 27 26  1  0
 28 26  2  0
M  END
$$$$
