EVF.pdb
     RDKit          3D

 28 28  0  0  1  0  0  0  0  0999 V2000
   11.3441  -17.6916   20.1449 N   0  0  0  0  0  0  0  0  0  0  0  0
   10.1716  -16.9158   19.8682 C   0  0  1  0  0  0  0  0  0  0  0  0
    9.4732  -17.3077   18.6096 C   0  0  0  0  0  0  0  0  0  0  0  0
    9.5978  -16.3480   17.4784 C   0  0  0  0  0  0  0  0  0  0  0  0
    9.9092  -16.9452   16.1790 C   0  0  0  0  0  0  0  0  0  0  0  0
   11.0552  -17.1827   15.7379 O   0  0  0  0  0  0  0  0  0  0  0  0
    9.1863  -16.9871   21.0033 C   0  0  0  0  0  0  0  0  0  0  0  0
    7.9994  -17.3548   20.8125 O   0  0  0  0  0  0  0  0  0  0  0  0
    8.8452  -17.2859   15.3457 O   0  0  0  0  0  0  0  0  0  0  0  0
    7.3562  -18.4141   22.0657 C   0  0  0  0  0  0  0  0  0  0  0  0
    8.0530  -18.2134   23.3952 C   0  0  1  0  0  0  0  0  0  0  0  0
    9.1067  -19.2812   23.5176 C   0  0  0  0  0  0  0  0  0  0  0  0
    8.6382  -16.8152   23.4486 C   0  0  2  0  0  0  0  0  0  0  0  0
    9.5538  -16.6424   22.3378 N   0  0  0  0  0  0  0  0  0  0  0  0
    9.2964  -16.5520   24.7521 C   0  0  0  0  0  0  0  0  0  0  0  0
   10.5440  -16.6769   24.8315 O   0  0  0  0  0  0  0  0  0  0  0  0
    8.5364  -16.1671   25.8874 N   0  0  0  0  0  0  0  0  0  0  0  0
    9.0960  -15.8309   27.1775 C   0  0  1  0  0  0  0  0  0  0  0  0
    8.3026  -14.8210   27.9172 C   0  0  0  0  0  0  0  0  0  0  0  0
    7.7914  -13.7792   27.0059 C   0  0  0  0  0  0  0  0  0  0  0  0
    6.4798  -13.8078   26.5204 C   0  0  0  0  0  0  0  0  0  0  0  0
    5.9875  -12.8369   25.6915 C   0  0  0  0  0  0  0  0  0  0  0  0
    6.8029  -11.7833   25.3111 C   0  0  0  0  0  0  0  0  0  0  0  0
    8.1127  -11.7517   25.7941 C   0  0  0  0  0  0  0  0  0  0  0  0
    8.6074  -12.7270   26.6267 C   0  0  0  0  0  0  0  0  0  0  0  0
    9.4282  -17.0653   27.9195 C   0  0  0  0  0  0  0  0  0  0  0  0
    8.9904  -18.2917   27.4424 O   0  0  0  0  0  0  0  0  0  0  0  0
   10.0973  -17.1053   28.9810 O   0  0  0  0  0  0  0  0  0  0  0  0
  2  1  1  1
  2  3  1  0
  3  4  1  0
  4  5  1  0
  5  9  1  0
  6  5  2  0
  7  8  2  0
  7  2  1  0
 11 10  1  6
 11 13  1  0
 11 12  1  0
 13 14  1  6
 14  7  1  0
 15 13  1  0
 16 15  2  0
 17 15  1  0
 18 17  1  0
 18 19  1  1
 19 20  1  0
 20 25  2  0
 20 21  1  0
 21 22  2  0
 22 23  1  0
 24 23  2  0
 25 24  1  0
 26 18  1  0
 27 26  1  0
 28 26  2  0
M  END
$$$$
