YKR.pdb
     RDKit          3D

 33 33  0  0  1  0  0  0  0  0999 V2000
    7.6157  -12.1706   16.2631 O   0  0  0  0  0  0  0  0  0  0  0  0
    7.7006  -12.8721   17.4769 C   0  0  0  0  0  0  0  0  0  0  0  0
    8.9748  -13.1685   17.9419 C   0  0  0  0  0  0  0  0  0  0  0  0
    9.0906  -13.8556   19.1298 C   0  0  0  0  0  0  0  0  0  0  0  0
    7.9958  -14.2630   19.8795 C   0  0  0  0  0  0  0  0  0  0  0  0
    8.2059  -14.9903   21.1366 C   0  0  0  0  0  0  0  0  0  0  0  0
    8.6099  -16.4089   20.8704 C   0  0  2  0  0  0  0  0  0  0  0  0
    7.5839  -17.0883   20.1414 N   0  0  0  0  0  0  0  0  0  0  0  0
    8.9404  -17.1070   22.1657 C   0  0  0  0  0  0  0  0  0  0  0  0
    8.0610  -17.0993   23.0299 O   0  0  0  0  0  0  0  0  0  0  0  0
    6.7477  -13.9562   19.3956 C   0  0  0  0  0  0  0  0  0  0  0  0
    6.6154  -13.2634   18.1984 C   0  0  0  0  0  0  0  0  0  0  0  0
   10.2047  -17.7302   22.3499 N   0  0  0  0  0  0  0  0  0  0  0  0
   10.7340  -18.2173   23.5708 C   0  0  1  0  0  0  0  0  0  0  0  0
   12.0520  -18.9877   23.4491 C   0  0  0  0  0  0  0  0  0  0  0  0
   12.4504  -19.5614   24.7803 C   0  0  0  0  0  0  0  0  0  0  0  0
   13.7536  -20.3044   24.7099 C   0  0  0  0  0  0  0  0  0  0  0  0
   14.1702  -20.9243   25.9904 C   0  0  0  0  0  0  0  0  0  0  0  0
   15.3854  -21.6870   25.9460 N   0  0  0  0  0  0  0  0  0  0  0  0
   10.6921  -17.3802   24.7405 C   0  0  0  0  0  0  0  0  0  0  0  0
   11.3651  -16.2885   24.6978 O   0  0  0  0  0  0  0  0  0  0  0  0
    5.5585  -11.8665   27.2216 N   0  0  0  0  0  0  0  0  0  0  0  0
    6.3789  -11.7408   26.0615 C   0  0  0  0  0  0  0  0  0  0  0  0
    6.4731  -10.5793   25.4837 N   0  0  0  0  0  0  0  0  0  0  0  0
    7.0875  -12.8490   25.5326 N   0  0  0  0  0  0  0  0  0  0  0  0
    7.1751  -14.1165   26.2168 C   0  0  0  0  0  0  0  0  0  0  0  0
    8.6259  -14.6107   26.3107 C   0  0  0  0  0  0  0  0  0  0  0  0
    8.6465  -15.8994   27.0433 C   0  0  0  0  0  0  0  0  0  0  0  0
    9.9364  -16.6577   26.9645 C   0  0  2  0  0  0  0  0  0  0  0  0
    9.9849  -17.6353   25.9371 N   0  0  0  0  0  0  0  0  0  0  0  0
   10.1646  -17.3254   28.2978 C   0  0  0  0  0  0  0  0  0  0  0  0
   10.3623  -16.5336   29.4098 O   0  0  0  0  0  0  0  0  0  0  0  0
   10.1804  -18.5651   28.4299 O   0  0  0  0  0  0  0  0  0  0  0  0
  2  1  1  0
  3  2  2  0
  4  3  1  0
  5 11  1  0
  5  4  2  0
  6  5  1  0
  7  6  1  0
  7  8  1  1
  9 13  1  0
  9  7  1  0
 10  9  2  0
 11 12  2  0
 12  2  1  0
 14 20  1  0
 14 13  1  0
 14 15  1  6
 16 15  1  0
 17 16  1  0
 18 17  1  0
 19 18  1  0
 20 30  1  0
 21 20  2  0
 23 25  1  0
 23 22  1  0
 24 23  2  0
 26 27  1  0
 26 25  1  0
 27 28  1  0
 29 31  1  0
 29 28  1  1
 30 29  1  0
 31 32  1  0
 33 31  2  0
M  END
$$$$
