YKR.pdb
     RDKit          3D

 33 33  0  0  1  0  0  0  0  0999 V2000
   -2.5017  -77.6058    9.3893 O   0  0  0  0  0  0  0  0  0  0  0  0
   -2.1338  -78.9294    9.6818 C   0  0  0  0  0  0  0  0  0  0  0  0
   -0.8016  -79.1535   10.0023 C   0  0  0  0  0  0  0  0  0  0  0  0
   -0.4102  -80.4413   10.2941 C   0  0  0  0  0  0  0  0  0  0  0  0
   -1.2837  -81.5199   10.2823 C   0  0  0  0  0  0  0  0  0  0  0  0
   -0.7861  -82.8617   10.6072 C   0  0  0  0  0  0  0  0  0  0  0  0
    0.5619  -83.0931    9.9939 C   0  0  2  0  0  0  0  0  0  0  0  0
    1.0666  -84.3760   10.3750 N   0  0  0  0  0  0  0  0  0  0  0  0
    1.5041  -81.9787   10.3743 C   0  0  0  0  0  0  0  0  0  0  0  0
    0.9878  -80.8845   10.6121 O   0  0  0  0  0  0  0  0  0  0  0  0
   -2.5954  -81.2689    9.9620 C   0  0  0  0  0  0  0  0  0  0  0  0
   -3.0048  -79.9746    9.6652 C   0  0  0  0  0  0  0  0  0  0  0  0
    2.9051  -82.2083   10.4460 N   0  0  0  0  0  0  0  0  0  0  0  0
    3.8826  -81.3067   10.9358 C   0  0  1  0  0  0  0  0  0  0  0  0
    4.9690  -80.9135    9.9305 C   0  0  0  0  0  0  0  0  0  0  0  0
    5.4437  -82.1206    9.1706 C   0  0  0  0  0  0  0  0  0  0  0  0
    4.5741  -82.4208    7.9836 C   0  0  0  0  0  0  0  0  0  0  0  0
    3.4333  -83.3207    8.2776 C   0  0  0  0  0  0  0  0  0  0  0  0
    2.5196  -83.5415    7.1928 N   0  0  0  0  0  0  0  0  0  0  0  0
    3.4715  -80.2024   11.7617 C   0  0  0  0  0  0  0  0  0  0  0  0
    4.3206  -79.2551   11.9295 O   0  0  0  0  0  0  0  0  0  0  0  0
    0.2503  -78.2443   18.2451 N   0  0  0  0  0  0  0  0  0  0  0  0
    1.1944  -78.5450   17.2190 C   0  0  0  0  0  0  0  0  0  0  0  0
    1.8927  -77.5747   16.7062 N   0  0  0  0  0  0  0  0  0  0  0  0
    1.3839  -79.8705   16.7530 N   0  0  0  0  0  0  0  0  0  0  0  0
    2.6313  -80.3281   16.1903 C   0  0  0  0  0  0  0  0  0  0  0  0
    3.5190  -79.1547   15.7508 C   0  0  0  0  0  0  0  0  0  0  0  0
    3.4657  -79.0408   14.2737 C   0  0  0  0  0  0  0  0  0  0  0  0
    2.1422  -79.3741   13.6553 C   0  0  2  0  0  0  0  0  0  0  0  0
    2.2255  -80.0509   12.4108 N   0  0  0  0  0  0  0  0  0  0  0  0
    1.3783  -78.0864   13.4713 C   0  0  0  0  0  0  0  0  0  0  0  0
    2.0485  -76.9824   12.9870 O   0  0  0  0  0  0  0  0  0  0  0  0
    0.1651  -77.9852   13.7406 O   0  0  0  0  0  0  0  0  0  0  0  0
  2  1  1  0
  3  2  2  0
  4  3  1  0
  5 11  1  0
  5  4  2  0
  6  5  1  0
  7  6  1  0
  7  8  1  1
  9 13  1  0
  9  7  1  0
 10  9  2  0
 11 12  2  0
 12  2  1  0
 14 20  1  0
 14 13  1  0
 14 15  1  6
 16 15  1  0
 17 16  1  0
 18 17  1  0
 19 18  1  0
 20 30  1  0
 21 20  2  0
 23 25  1  0
 23 22  1  0
 24 23  2  0
 26 27  1  0
 26 25  1  0
 27 28  1  0
 29 31  1  0
 29 28  1  6
 30 29  1  0
 31 32  1  0
 33 31  2  0
M  END
$$$$
