YKR.pdb
     RDKit          3D

 33 33  0  0  1  0  0  0  0  0999 V2000
    5.8696   -9.8724   27.9410 O   0  0  0  0  0  0  0  0  0  0  0  0
    6.0272  -11.0959   27.2695 C   0  0  0  0  0  0  0  0  0  0  0  0
    7.0551  -11.9217   27.7042 C   0  0  0  0  0  0  0  0  0  0  0  0
    7.2347  -13.1286   27.0654 C   0  0  0  0  0  0  0  0  0  0  0  0
    6.4379  -13.5541   26.0115 C   0  0  0  0  0  0  0  0  0  0  0  0
    6.6951  -14.8563   25.3857 C   0  0  0  0  0  0  0  0  0  0  0  0
    7.9815  -14.8331   24.6167 C   0  0  2  0  0  0  0  0  0  0  0  0
    8.4101  -13.4847   24.4076 N   0  0  0  0  0  0  0  0  0  0  0  0
    7.8247  -15.5847   23.3186 C   0  0  0  0  0  0  0  0  0  0  0  0
    7.7285  -16.8107   23.4059 O   0  0  0  0  0  0  0  0  0  0  0  0
    5.4289  -12.7171   25.6026 C   0  0  0  0  0  0  0  0  0  0  0  0
    5.2357  -11.4964   26.2377 C   0  0  0  0  0  0  0  0  0  0  0  0
    7.7930  -14.8894   22.0791 N   0  0  0  0  0  0  0  0  0  0  0  0
    8.5228  -15.2183   20.9098 C   0  0  1  0  0  0  0  0  0  0  0  0
    8.3511  -14.2463   19.7388 C   0  0  0  0  0  0  0  0  0  0  0  0
    8.5252  -14.9645   18.4297 C   0  0  0  0  0  0  0  0  0  0  0  0
    8.4382  -14.0318   17.2559 C   0  0  0  0  0  0  0  0  0  0  0  0
    8.5075  -14.7057   15.9372 C   0  0  0  0  0  0  0  0  0  0  0  0
    8.2922  -13.8624   14.7957 N   0  0  0  0  0  0  0  0  0  0  0  0
    9.8743  -15.6967   21.0341 C   0  0  0  0  0  0  0  0  0  0  0  0
   10.7236  -14.9029   21.5773 O   0  0  0  0  0  0  0  0  0  0  0  0
   12.9953  -19.4479   26.4208 N   0  0  0  0  0  0  0  0  0  0  0  0
   11.5734  -19.3610   26.4942 C   0  0  0  0  0  0  0  0  0  0  0  0
   11.0158  -19.1811   27.6555 N   0  0  0  0  0  0  0  0  0  0  0  0
   10.7648  -19.4656   25.3343 N   0  0  0  0  0  0  0  0  0  0  0  0
   11.3177  -19.6080   24.0091 C   0  0  0  0  0  0  0  0  0  0  0  0
   11.2649  -18.2871   23.2280 C   0  0  0  0  0  0  0  0  0  0  0  0
   11.7951  -18.5164   21.8627 C   0  0  0  0  0  0  0  0  0  0  0  0
   11.6942  -17.3450   20.9339 C   0  0  2  0  0  0  0  0  0  0  0  0
   10.3669  -16.9542   20.6184 N   0  0  0  0  0  0  0  0  0  0  0  0
   12.4248  -17.6968   19.6619 C   0  0  0  0  0  0  0  0  0  0  0  0
   13.7973  -17.5637   19.6281 O   0  0  0  0  0  0  0  0  0  0  0  0
   11.8332  -18.1031   18.6423 O   0  0  0  0  0  0  0  0  0  0  0  0
  2  1  1  0
  3  2  2  0
  4  3  1  0
  5 11  1  0
  5  4  2  0
  6  5  1  0
  7  6  1  0
  7  8  1  6
  9 13  1  0
  9  7  1  0
 10  9  2  0
 11 12  2  0
 12  2  1  0
 14 20  1  0
 14 13  1  0
 14 15  1  6
 16 15  1  0
 17 16  1  0
 18 17  1  0
 19 18  1  0
 20 30  1  0
 21 20  2  0
 23 25  1  0
 23 22  1  0
 24 23  2  0
 26 27  1  0
 26 25  1  0
 27 28  1  0
 29 31  1  0
 29 28  1  1
 30 29  1  0
 31 32  1  0
 33 31  2  0
M  END
$$$$
