YKR.pdb
     RDKit          3D

 33 33  0  0  1  0  0  0  0  0999 V2000
    4.6216  -10.1847   27.4385 O   0  0  0  0  0  0  0  0  0  0  0  0
    5.3827  -11.2828   27.0052 C   0  0  0  0  0  0  0  0  0  0  0  0
    5.4801  -12.3605   27.8752 C   0  0  0  0  0  0  0  0  0  0  0  0
    6.2197  -13.4524   27.4784 C   0  0  0  0  0  0  0  0  0  0  0  0
    6.8689  -13.5235   26.2537 C   0  0  0  0  0  0  0  0  0  0  0  0
    7.6362  -14.7252   25.9064 C   0  0  0  0  0  0  0  0  0  0  0  0
    6.8125  -15.6614   25.0747 C   0  0  2  0  0  0  0  0  0  0  0  0
    6.5270  -16.8558   25.8080 N   0  0  0  0  0  0  0  0  0  0  0  0
    7.5129  -15.9517   23.7711 C   0  0  0  0  0  0  0  0  0  0  0  0
    8.1491  -17.0064   23.7162 O   0  0  0  0  0  0  0  0  0  0  0  0
    6.7554  -12.4432   25.4133 C   0  0  0  0  0  0  0  0  0  0  0  0
    6.0125  -11.3345   25.8002 C   0  0  0  0  0  0  0  0  0  0  0  0
    7.4256  -15.0400   22.6840 N   0  0  0  0  0  0  0  0  0  0  0  0
    8.1616  -15.0984   21.4743 C   0  0  1  0  0  0  0  0  0  0  0  0
    8.0000  -13.8853   20.5535 C   0  0  0  0  0  0  0  0  0  0  0  0
    8.7612  -14.0919   19.2737 C   0  0  0  0  0  0  0  0  0  0  0  0
    7.9559  -13.7045   18.0667 C   0  0  0  0  0  0  0  0  0  0  0  0
    8.6324  -13.9676   16.7742 C   0  0  0  0  0  0  0  0  0  0  0  0
    7.9072  -13.5714   15.6005 N   0  0  0  0  0  0  0  0  0  0  0  0
    9.5107  -15.5984   21.4940 C   0  0  0  0  0  0  0  0  0  0  0  0
   10.3202  -15.0526   22.3267 O   0  0  0  0  0  0  0  0  0  0  0  0
   13.1167  -21.3389   24.0649 N   0  0  0  0  0  0  0  0  0  0  0  0
   13.6710  -22.0249   22.9437 C   0  0  0  0  0  0  0  0  0  0  0  0
   14.7211  -22.7714   23.1225 N   0  0  0  0  0  0  0  0  0  0  0  0
   13.1025  -21.9088   21.6501 N   0  0  0  0  0  0  0  0  0  0  0  0
   11.9367  -21.1022   21.3807 C   0  0  0  0  0  0  0  0  0  0  0  0
   12.2633  -19.6024   21.4218 C   0  0  0  0  0  0  0  0  0  0  0  0
   11.0280  -18.8350   21.1341 C   0  0  0  0  0  0  0  0  0  0  0  0
   11.1939  -17.3462   21.1048 C   0  0  2  0  0  0  0  0  0  0  0  0
   10.0406  -16.6316   20.6886 N   0  0  0  0  0  0  0  0  0  0  0  0
   12.3396  -17.0249   20.1777 C   0  0  0  0  0  0  0  0  0  0  0  0
   12.0951  -16.2405   19.0698 O   0  0  0  0  0  0  0  0  0  0  0  0
   13.4975  -17.4423   20.3774 O   0  0  0  0  0  0  0  0  0  0  0  0
  2  1  1  0
  3  2  2  0
  4  3  1  0
  5 11  1  0
  5  4  2  0
  6  5  1  0
  7  6  1  0
  7  8  1  1
  9 13  1  0
  9  7  1  0
 10  9  2  0
 11 12  2  0
 12  2  1  0
 14 20  1  0
 14 13  1  0
 14 15  1  1
 16 15  1  0
 17 16  1  0
 18 17  1  0
 19 18  1  0
 20 30  1  0
 21 20  2  0
 23 25  1  0
 23 22  1  0
 24 23  2  0
 26 27  1  0
 26 25  1  0
 27 28  1  0
 29 31  1  0
 29 28  1  6
 30 29  1  0
 31 32  1  0
 33 31  2  0
M  END
$$$$
