YKR.pdb
     RDKit          3D

 33 33  0  0  1  0  0  0  0  0999 V2000
    4.9825  -10.0495   27.6448 O   0  0  0  0  0  0  0  0  0  0  0  0
    5.7044  -11.0998   27.0546 C   0  0  0  0  0  0  0  0  0  0  0  0
    6.0268  -12.1754   27.8712 C   0  0  0  0  0  0  0  0  0  0  0  0
    6.7344  -13.2210   27.3210 C   0  0  0  0  0  0  0  0  0  0  0  0
    7.1377  -13.2476   25.9932 C   0  0  0  0  0  0  0  0  0  0  0  0
    7.8880  -14.4017   25.4845 C   0  0  0  0  0  0  0  0  0  0  0  0
    6.9881  -15.3299   24.7259 C   0  0  2  0  0  0  0  0  0  0  0  0
    6.2776  -16.1806   25.6299 N   0  0  0  0  0  0  0  0  0  0  0  0
    7.7853  -16.1171   23.7164 C   0  0  0  0  0  0  0  0  0  0  0  0
    8.1209  -17.2547   24.0530 O   0  0  0  0  0  0  0  0  0  0  0  0
    6.8051  -12.1705   25.2088 C   0  0  0  0  0  0  0  0  0  0  0  0
    6.0914  -11.1082   25.7501 C   0  0  0  0  0  0  0  0  0  0  0  0
    8.1158  -15.5512   22.4550 N   0  0  0  0  0  0  0  0  0  0  0  0
    9.2182  -15.9026   21.6368 C   0  0  1  0  0  0  0  0  0  0  0  0
    9.3677  -15.0784   20.3547 C   0  0  0  0  0  0  0  0  0  0  0  0
    8.8773  -15.8595   19.1675 C   0  0  0  0  0  0  0  0  0  0  0  0
    8.9401  -15.0597   17.8980 C   0  0  0  0  0  0  0  0  0  0  0  0
    8.4697  -15.7889   16.6960 C   0  0  0  0  0  0  0  0  0  0  0  0
    8.3783  -15.0113   15.4929 N   0  0  0  0  0  0  0  0  0  0  0  0
   10.4852  -16.1991   22.2511 C   0  0  0  0  0  0  0  0  0  0  0  0
   11.1068  -15.2208   22.8015 O   0  0  0  0  0  0  0  0  0  0  0  0
   11.3025  -21.8481   28.6238 N   0  0  0  0  0  0  0  0  0  0  0  0
   12.5219  -21.1080   28.6043 C   0  0  0  0  0  0  0  0  0  0  0  0
   13.3000  -21.1550   29.6456 N   0  0  0  0  0  0  0  0  0  0  0  0
   12.8973  -20.3299   27.4802 N   0  0  0  0  0  0  0  0  0  0  0  0
   11.9878  -20.0306   26.4007 C   0  0  0  0  0  0  0  0  0  0  0  0
   12.6520  -19.1590   25.3251 C   0  0  0  0  0  0  0  0  0  0  0  0
   11.6303  -18.7740   24.3223 C   0  0  0  0  0  0  0  0  0  0  0  0
   12.0672  -17.7385   23.3313 C   0  0  2  0  0  0  0  0  0  0  0  0
   11.1201  -17.4601   22.3118 N   0  0  0  0  0  0  0  0  0  0  0  0
   13.3525  -18.2130   22.7003 C   0  0  0  0  0  0  0  0  0  0  0  0
   14.5385  -17.9972   23.3707 O   0  0  0  0  0  0  0  0  0  0  0  0
   13.3806  -18.7923   21.5965 O   0  0  0  0  0  0  0  0  0  0  0  0
  2  1  1  0
  3  2  2  0
  4  3  1  0
  5 11  1  0
  5  4  2  0
  6  5  1  0
  7  6  1  0
  7  8  1  1
  9 13  1  0
  9  7  1  0
 10  9  2  0
 11 12  2  0
 12  2  1  0
 14 20  1  0
 14 13  1  0
 14 15  1  6
 16 15  1  0
 17 16  1  0
 18 17  1  0
 19 18  1  0
 20 30  1  0
 21 20  2  0
 23 25  1  0
 23 22  1  0
 24 23  2  0
 26 27  1  0
 26 25  1  0
 27 28  1  0
 29 31  1  0
 29 28  1  1
 30 29  1  0
 31 32  1  0
 33 31  2  0
M  END
$$$$
