YKR.pdb
     RDKit          3D

 33 33  0  0  1  0  0  0  0  0999 V2000
   -0.6249  -21.3057   21.1628 O   0  0  0  0  0  0  0  0  0  0  0  0
    0.5825  -20.6764   21.5078 C   0  0  0  0  0  0  0  0  0  0  0  0
    0.8545  -19.4618   20.8927 C   0  0  0  0  0  0  0  0  0  0  0  0
    2.0309  -18.8203   21.2108 C   0  0  0  0  0  0  0  0  0  0  0  0
    2.9523  -19.3311   22.1145 C   0  0  0  0  0  0  0  0  0  0  0  0
    4.1824  -18.5832   22.3993 C   0  0  0  0  0  0  0  0  0  0  0  0
    5.0243  -18.4526   21.1661 C   0  0  2  0  0  0  0  0  0  0  0  0
    5.3926  -19.7456   20.6779 N   0  0  0  0  0  0  0  0  0  0  0  0
    6.2288  -17.5901   21.4481 C   0  0  0  0  0  0  0  0  0  0  0  0
    7.2479  -18.1788   21.8154 O   0  0  0  0  0  0  0  0  0  0  0  0
    2.6573  -20.5340   22.7078 C   0  0  0  0  0  0  0  0  0  0  0  0
    1.4740  -21.1928   22.3966 C   0  0  0  0  0  0  0  0  0  0  0  0
    6.1616  -16.1790   21.2897 N   0  0  0  0  0  0  0  0  0  0  0  0
    7.2186  -15.2572   21.4924 C   0  0  1  0  0  0  0  0  0  0  0  0
    6.8878  -13.8008   21.1534 C   0  0  0  0  0  0  0  0  0  0  0  0
    8.0225  -13.1660   20.3988 C   0  0  0  0  0  0  0  0  0  0  0  0
    7.9224  -13.4043   18.9194 C   0  0  0  0  0  0  0  0  0  0  0  0
    9.0332  -12.8174   18.1323 C   0  0  0  0  0  0  0  0  0  0  0  0
    9.0278  -13.1182   16.7288 N   0  0  0  0  0  0  0  0  0  0  0  0
    8.0408  -15.3755   22.6675 C   0  0  0  0  0  0  0  0  0  0  0  0
    7.4408  -15.3460   23.8014 O   0  0  0  0  0  0  0  0  0  0  0  0
    8.7814  -20.7724   28.7376 N   0  0  0  0  0  0  0  0  0  0  0  0
    8.1321  -19.7742   27.9523 C   0  0  0  0  0  0  0  0  0  0  0  0
    6.8434  -19.8447   27.7901 N   0  0  0  0  0  0  0  0  0  0  0  0
    8.8597  -18.7159   27.3516 N   0  0  0  0  0  0  0  0  0  0  0  0
    9.7493  -18.9181   26.2336 C   0  0  0  0  0  0  0  0  0  0  0  0
   10.3484  -17.5935   25.7392 C   0  0  0  0  0  0  0  0  0  0  0  0
    9.6341  -17.1739   24.5099 C   0  0  0  0  0  0  0  0  0  0  0  0
   10.0988  -15.8812   23.9116 C   0  0  2  0  0  0  0  0  0  0  0  0
    9.4459  -15.5207   22.7043 N   0  0  0  0  0  0  0  0  0  0  0  0
   11.5822  -15.9924   23.6610 C   0  0  0  0  0  0  0  0  0  0  0  0
   12.4229  -16.1868   24.7371 O   0  0  0  0  0  0  0  0  0  0  0  0
   12.0741  -15.9152   22.5178 O   0  0  0  0  0  0  0  0  0  0  0  0
  2  1  1  0
  3  2  2  0
  4  3  1  0
  5 11  1  0
  5  4  2  0
  6  5  1  0
  7  6  1  0
  7  8  1  1
  9 13  1  0
  9  7  1  0
 10  9  2  0
 11 12  2  0
 12  2  1  0
 14 20  1  0
 14 13  1  0
 14 15  1  1
 16 15  1  0
 17 16  1  0
 18 17  1  0
 19 18  1  0
 20 30  1  0
 21 20  2  0
 23 25  1  0
 23 22  1  0
 24 23  2  0
 26 27  1  0
 26 25  1  0
 27 28  1  0
 29 31  1  0
 29 28  1  6
 30 29  1  0
 31 32  1  0
 33 31  2  0
M  END
$$$$
