YKR.pdb
     RDKit          3D

 33 33  0  0  1  0  0  0  0  0999 V2000
    5.6246  -10.4640   27.9309 O   0  0  0  0  0  0  0  0  0  0  0  0
    5.9766  -11.4256   26.9696 C   0  0  0  0  0  0  0  0  0  0  0  0
    7.3102  -11.4696   26.5859 C   0  0  0  0  0  0  0  0  0  0  0  0
    7.6862  -12.4023   25.6448 C   0  0  0  0  0  0  0  0  0  0  0  0
    6.7960  -13.2959   25.0656 C   0  0  0  0  0  0  0  0  0  0  0  0
    7.2785  -14.2604   24.0704 C   0  0  0  0  0  0  0  0  0  0  0  0
    7.0558  -15.6665   24.5394 C   0  0  2  0  0  0  0  0  0  0  0  0
    7.7951  -15.9121   25.7389 N   0  0  0  0  0  0  0  0  0  0  0  0
    7.4118  -16.6417   23.4456 C   0  0  0  0  0  0  0  0  0  0  0  0
    7.3412  -17.8378   23.7364 O   0  0  0  0  0  0  0  0  0  0  0  0
    5.4833  -13.2297   25.4640 C   0  0  0  0  0  0  0  0  0  0  0  0
    5.0893  -12.2939   26.4126 C   0  0  0  0  0  0  0  0  0  0  0  0
    7.8033  -16.1767   22.1606 N   0  0  0  0  0  0  0  0  0  0  0  0
    8.9148  -16.6255   21.4049 C   0  0  1  0  0  0  0  0  0  0  0  0
    8.8714  -16.2808   19.9133 C   0  0  0  0  0  0  0  0  0  0  0  0
    8.7546  -14.7944   19.7206 C   0  0  0  0  0  0  0  0  0  0  0  0
    8.4627  -14.4295   18.2934 C   0  0  0  0  0  0  0  0  0  0  0  0
    8.3661  -12.9709   18.0462 C   0  0  0  0  0  0  0  0  0  0  0  0
    8.0893  -12.5867   16.6911 N   0  0  0  0  0  0  0  0  0  0  0  0
   10.2376  -16.5064   21.9588 C   0  0  0  0  0  0  0  0  0  0  0  0
   11.0698  -15.7668   21.3209 O   0  0  0  0  0  0  0  0  0  0  0  0
    9.9839  -17.1575   28.8761 N   0  0  0  0  0  0  0  0  0  0  0  0
   11.0547  -18.0841   29.0480 C   0  0  0  0  0  0  0  0  0  0  0  0
   11.0075  -18.9181   30.0450 N   0  0  0  0  0  0  0  0  0  0  0  0
   12.1589  -18.1122   28.1591 N   0  0  0  0  0  0  0  0  0  0  0  0
   12.2925  -17.1950   27.0531 C   0  0  0  0  0  0  0  0  0  0  0  0
   11.5245  -17.6830   25.8162 C   0  0  0  0  0  0  0  0  0  0  0  0
   12.4777  -17.8400   24.6917 C   0  0  0  0  0  0  0  0  0  0  0  0
   12.1063  -17.1145   23.4344 C   0  0  2  0  0  0  0  0  0  0  0  0
   10.7188  -17.1217   23.1364 N   0  0  0  0  0  0  0  0  0  0  0  0
   12.8636  -17.7462   22.2929 C   0  0  0  0  0  0  0  0  0  0  0  0
   14.0308  -17.1505   21.8624 O   0  0  0  0  0  0  0  0  0  0  0  0
   12.4726  -18.7857   21.7262 O   0  0  0  0  0  0  0  0  0  0  0  0
  2  1  1  0
  3  2  2  0
  4  3  1  0
  5 11  1  0
  5  4  2  0
  6  5  1  0
  7  6  1  0
  7  8  1  1
  9 13  1  0
  9  7  1  0
 10  9  2  0
 11 12  2  0
 12  2  1  0
 14 20  1  0
 14 13  1  0
 14 15  1  6
 16 15  1  0
 17 16  1  0
 18 17  1  0
 19 18  1  0
 20 30  1  0
 21 20  2  0
 23 25  1  0
 23 22  1  0
 24 23  2  0
 26 27  1  0
 26 25  1  0
 27 28  1  0
 29 31  1  0
 29 28  1  1
 30 29  1  0
 31 32  1  0
 33 31  2  0
M  END
$$$$
