YKR.pdb
     RDKit          3D

 33 33  0  0  1  0  0  0  0  0999 V2000
   -1.4413  -20.7939   20.3205 O   0  0  0  0  0  0  0  0  0  0  0  0
   -0.3008  -20.2444   20.9289 C   0  0  0  0  0  0  0  0  0  0  0  0
    0.5850  -19.5658   20.1027 C   0  0  0  0  0  0  0  0  0  0  0  0
    1.7128  -19.0156   20.6702 C   0  0  0  0  0  0  0  0  0  0  0  0
    2.0023  -19.1088   22.0244 C   0  0  0  0  0  0  0  0  0  0  0  0
    3.2260  -18.4926   22.5502 C   0  0  0  0  0  0  0  0  0  0  0  0
    4.4416  -19.0891   21.9073 C   0  0  2  0  0  0  0  0  0  0  0  0
    4.6733  -20.4071   22.4122 N   0  0  0  0  0  0  0  0  0  0  0  0
    5.6330  -18.1874   22.1115 C   0  0  0  0  0  0  0  0  0  0  0  0
    6.5293  -18.6230   22.8374 O   0  0  0  0  0  0  0  0  0  0  0  0
    1.1086  -19.7857   22.8178 C   0  0  0  0  0  0  0  0  0  0  0  0
   -0.0337  -20.3460   22.2592 C   0  0  0  0  0  0  0  0  0  0  0  0
    5.6900  -16.9112   21.4878 N   0  0  0  0  0  0  0  0  0  0  0  0
    6.7756  -16.0013   21.5289 C   0  0  1  0  0  0  0  0  0  0  0  0
    6.4221  -14.5489   21.1956 C   0  0  0  0  0  0  0  0  0  0  0  0
    7.6676  -13.7114   21.1092 C   0  0  0  0  0  0  0  0  0  0  0  0
    8.0147  -13.3569   19.6917 C   0  0  0  0  0  0  0  0  0  0  0  0
    9.1964  -12.4719   19.5580 C   0  0  0  0  0  0  0  0  0  0  0  0
    9.5653  -12.1253   18.2148 N   0  0  0  0  0  0  0  0  0  0  0  0
    7.7399  -16.1027   22.5922 C   0  0  0  0  0  0  0  0  0  0  0  0
    7.4083  -15.6029   23.7266 O   0  0  0  0  0  0  0  0  0  0  0  0
   11.7722  -22.9168   25.3255 N   0  0  0  0  0  0  0  0  0  0  0  0
   10.3798  -22.6593   25.4981 C   0  0  0  0  0  0  0  0  0  0  0  0
    9.6106  -23.6240   25.9101 N   0  0  0  0  0  0  0  0  0  0  0  0
    9.8248  -21.3822   25.2316 N   0  0  0  0  0  0  0  0  0  0  0  0
   10.6104  -20.2803   24.7306 C   0  0  0  0  0  0  0  0  0  0  0  0
    9.7600  -19.0148   24.5481 C   0  0  0  0  0  0  0  0  0  0  0  0
   10.5926  -17.9657   23.9126 C   0  0  0  0  0  0  0  0  0  0  0  0
    9.8892  -16.6713   23.6393 C   0  0  2  0  0  0  0  0  0  0  0  0
    9.0199  -16.6969   22.5179 N   0  0  0  0  0  0  0  0  0  0  0  0
   10.9385  -15.6076   23.4313 C   0  0  0  0  0  0  0  0  0  0  0  0
   11.0293  -14.9995   22.1965 O   0  0  0  0  0  0  0  0  0  0  0  0
   11.7247  -15.2593   24.3342 O   0  0  0  0  0  0  0  0  0  0  0  0
  2  1  1  0
  3  2  2  0
  4  3  1  0
  5 11  1  0
  5  4  2  0
  6  5  1  0
  7  6  1  0
  7  8  1  1
  9 13  1  0
  9  7  1  0
 10  9  2  0
 11 12  2  0
 12  2  1  0
 14 20  1  0
 14 13  1  0
 14 15  1  1
 16 15  1  0
 17 16  1  0
 18 17  1  0
 19 18  1  0
 20 30  1  0
 21 20  2  0
 23 25  1  0
 23 22  1  0
 24 23  2  0
 26 27  1  0
 26 25  1  0
 27 28  1  0
 29 31  1  0
 29 28  1  6
 30 29  1  0
 31 32  1  0
 33 31  2  0
M  END
$$$$
