YKR.pdb
     RDKit          3D

 33 33  0  0  1  0  0  0  0  0999 V2000
   -0.9720  -21.0706   20.1982 O   0  0  0  0  0  0  0  0  0  0  0  0
    0.1787  -20.4877   20.7538 C   0  0  0  0  0  0  0  0  0  0  0  0
    0.8723  -19.5869   19.9568 C   0  0  0  0  0  0  0  0  0  0  0  0
    2.0051  -18.9985   20.4740 C   0  0  0  0  0  0  0  0  0  0  0  0
    2.4820  -19.2644   21.7501 C   0  0  0  0  0  0  0  0  0  0  0  0
    3.6970  -18.5932   22.2264 C   0  0  0  0  0  0  0  0  0  0  0  0
    4.8921  -19.0287   21.4334 C   0  0  2  0  0  0  0  0  0  0  0  0
    5.0938  -20.4377   21.5740 N   0  0  0  0  0  0  0  0  0  0  0  0
    6.1076  -18.2388   21.8492 C   0  0  0  0  0  0  0  0  0  0  0  0
    6.9051  -18.8149   22.5923 O   0  0  0  0  0  0  0  0  0  0  0  0
    1.7760  -20.1593   22.5161 C   0  0  0  0  0  0  0  0  0  0  0  0
    0.6313  -20.7608   22.0076 C   0  0  0  0  0  0  0  0  0  0  0  0
    6.2953  -16.9057   21.3927 N   0  0  0  0  0  0  0  0  0  0  0  0
    7.4246  -16.0841   21.6332 C   0  0  1  0  0  0  0  0  0  0  0  0
    7.3492  -14.6788   21.0290 C   0  0  0  0  0  0  0  0  0  0  0  0
    7.7250  -14.7114   19.5738 C   0  0  0  0  0  0  0  0  0  0  0  0
    7.5452  -13.3753   18.9122 C   0  0  0  0  0  0  0  0  0  0  0  0
    7.8095  -13.3785   17.4535 C   0  0  0  0  0  0  0  0  0  0  0  0
    7.5185  -12.1525   16.7659 N   0  0  0  0  0  0  0  0  0  0  0  0
    8.0362  -16.0909   22.9357 C   0  0  0  0  0  0  0  0  0  0  0  0
    7.3201  -15.6745   23.9157 O   0  0  0  0  0  0  0  0  0  0  0  0
   11.1989  -21.9424   28.4279 N   0  0  0  0  0  0  0  0  0  0  0  0
   10.3927  -20.8683   28.9087 C   0  0  0  0  0  0  0  0  0  0  0  0
    9.5747  -21.0918   29.8950 N   0  0  0  0  0  0  0  0  0  0  0  0
   10.4670  -19.5734   28.3361 N   0  0  0  0  0  0  0  0  0  0  0  0
   10.8451  -19.3496   26.9616 C   0  0  0  0  0  0  0  0  0  0  0  0
   10.6097  -17.8922   26.5392 C   0  0  0  0  0  0  0  0  0  0  0  0
   10.0579  -17.8755   25.1633 C   0  0  0  0  0  0  0  0  0  0  0  0
    9.7974  -16.5130   24.5968 C   0  0  2  0  0  0  0  0  0  0  0  0
    9.3488  -16.5092   23.2505 N   0  0  0  0  0  0  0  0  0  0  0  0
   11.0742  -15.7162   24.6981 C   0  0  0  0  0  0  0  0  0  0  0  0
   11.3934  -15.1271   25.9037 O   0  0  0  0  0  0  0  0  0  0  0  0
   11.8498  -15.5719   23.7324 O   0  0  0  0  0  0  0  0  0  0  0  0
  2  1  1  0
  3  2  2  0
  4  3  1  0
  5 11  1  0
  5  4  2  0
  6  5  1  0
  7  6  1  0
  7  8  1  1
  9 13  1  0
  9  7  1  0
 10  9  2  0
 11 12  2  0
 12  2  1  0
 14 20  1  0
 14 13  1  0
 14 15  1  1
 16 15  1  0
 17 16  1  0
 18 17  1  0
 19 18  1  0
 20 30  1  0
 21 20  2  0
 23 25  1  0
 23 22  1  0
 24 23  2  0
 26 27  1  0
 26 25  1  0
 27 28  1  0
 29 31  1  0
 29 28  1  6
 30 29  1  0
 31 32  1  0
 33 31  2  0
M  END
$$$$
