YKR.pdb
     RDKit          3D

 33 33  0  0  1  0  0  0  0  0999 V2000
    4.6160  -10.2231   27.3330 O   0  0  0  0  0  0  0  0  0  0  0  0
    5.2595  -11.4068   26.9364 C   0  0  0  0  0  0  0  0  0  0  0  0
    6.6343  -11.4653   27.1218 C   0  0  0  0  0  0  0  0  0  0  0  0
    7.2938  -12.6134   26.7427 C   0  0  0  0  0  0  0  0  0  0  0  0
    6.6488  -13.7093   26.1863 C   0  0  0  0  0  0  0  0  0  0  0  0
    7.4256  -14.8962   25.8105 C   0  0  0  0  0  0  0  0  0  0  0  0
    6.5442  -15.9329   25.1818 C   0  0  2  0  0  0  0  0  0  0  0  0
    6.1628  -16.9133   26.1508 N   0  0  0  0  0  0  0  0  0  0  0  0
    7.2359  -16.5514   23.9930 C   0  0  0  0  0  0  0  0  0  0  0  0
    7.9878  -17.4992   24.2310 O   0  0  0  0  0  0  0  0  0  0  0  0
    5.2889  -13.6236   26.0146 C   0  0  0  0  0  0  0  0  0  0  0  0
    4.6101  -12.4716   26.3924 C   0  0  0  0  0  0  0  0  0  0  0  0
    7.0128  -16.0472   22.6827 N   0  0  0  0  0  0  0  0  0  0  0  0
    8.0037  -15.6168   21.7657 C   0  0  1  0  0  0  0  0  0  0  0  0
    7.5579  -14.5247   20.7888 C   0  0  0  0  0  0  0  0  0  0  0  0
    8.5013  -14.4473   19.6209 C   0  0  0  0  0  0  0  0  0  0  0  0
    7.9378  -13.6349   18.4905 C   0  0  0  0  0  0  0  0  0  0  0  0
    8.7312  -13.7006   17.2399 C   0  0  0  0  0  0  0  0  0  0  0  0
    8.1747  -13.0069   16.1131 N   0  0  0  0  0  0  0  0  0  0  0  0
    9.3538  -15.4259   22.2255 C   0  0  0  0  0  0  0  0  0  0  0  0
    9.5183  -14.6601   23.2419 O   0  0  0  0  0  0  0  0  0  0  0  0
   13.5044  -19.3956   27.9466 N   0  0  0  0  0  0  0  0  0  0  0  0
   12.4620  -18.4222   27.9200 C   0  0  0  0  0  0  0  0  0  0  0  0
   12.0771  -17.8857   29.0407 N   0  0  0  0  0  0  0  0  0  0  0  0
   11.8445  -18.0322   26.7049 N   0  0  0  0  0  0  0  0  0  0  0  0
   12.0985  -18.7013   25.4519 C   0  0  0  0  0  0  0  0  0  0  0  0
   12.5491  -17.7156   24.3641 C   0  0  0  0  0  0  0  0  0  0  0  0
   11.3653  -17.2992   23.5748 C   0  0  0  0  0  0  0  0  0  0  0  0
   11.6373  -16.2916   22.4998 C   0  0  2  0  0  0  0  0  0  0  0  0
   10.5230  -15.9952   21.6726 N   0  0  0  0  0  0  0  0  0  0  0  0
   12.7650  -16.8163   21.6463 C   0  0  0  0  0  0  0  0  0  0  0  0
   12.5378  -17.0205   20.3011 O   0  0  0  0  0  0  0  0  0  0  0  0
   13.8929  -17.0713   22.1127 O   0  0  0  0  0  0  0  0  0  0  0  0
  2  1  1  0
  3  2  2  0
  4  3  1  0
  5 11  1  0
  5  4  2  0
  6  5  1  0
  7  6  1  0
  7  8  1  1
  9 13  1  0
  9  7  1  0
 10  9  2  0
 11 12  2  0
 12  2  1  0
 14 20  1  0
 14 13  1  0
 14 15  1  1
 16 15  1  0
 17 16  1  0
 18 17  1  0
 19 18  1  0
 20 30  1  0
 21 20  2  0
 23 25  1  0
 23 22  1  0
 24 23  2  0
 26 27  1  0
 26 25  1  0
 27 28  1  0
 29 31  1  0
 29 28  1  1
 30 29  1  0
 31 32  1  0
 33 31  2  0
M  END
$$$$
