YKR.pdb
     RDKit          3D

 33 33  0  0  1  0  0  0  0  0999 V2000
    7.7304  -14.2020   14.4241 O   0  0  0  0  0  0  0  0  0  0  0  0
    7.7979  -14.3598   15.8181 C   0  0  0  0  0  0  0  0  0  0  0  0
    7.6927  -15.6545   16.3083 C   0  0  0  0  0  0  0  0  0  0  0  0
    7.7554  -15.8414   17.6713 C   0  0  0  0  0  0  0  0  0  0  0  0
    7.9183  -14.7985   18.5726 C   0  0  0  0  0  0  0  0  0  0  0  0
    7.9769  -15.0834   20.0110 C   0  0  0  0  0  0  0  0  0  0  0  0
    9.1947  -14.4641   20.6276 C   0  0  2  0  0  0  0  0  0  0  0  0
   10.3785  -15.0847   20.1186 N   0  0  0  0  0  0  0  0  0  0  0  0
    9.1146  -14.5461   22.1313 C   0  0  0  0  0  0  0  0  0  0  0  0
    9.8526  -15.3720   22.6731 O   0  0  0  0  0  0  0  0  0  0  0  0
    8.0196  -13.5285   18.0597 C   0  0  0  0  0  0  0  0  0  0  0  0
    7.9581  -13.3246   16.6866 C   0  0  0  0  0  0  0  0  0  0  0  0
    8.2275  -13.7042   22.8558 N   0  0  0  0  0  0  0  0  0  0  0  0
    8.0418  -13.6862   24.2606 C   0  0  1  0  0  0  0  0  0  0  0  0
    7.0116  -12.6735   24.7694 C   0  0  0  0  0  0  0  0  0  0  0  0
    6.9759  -12.6701   26.2723 C   0  0  0  0  0  0  0  0  0  0  0  0
    5.9543  -11.7110   26.8124 C   0  0  0  0  0  0  0  0  0  0  0  0
    5.9088  -11.6409   28.2925 C   0  0  0  0  0  0  0  0  0  0  0  0
    4.9124  -10.7667   28.8435 N   0  0  0  0  0  0  0  0  0  0  0  0
    7.9914  -14.9312   24.9805 C   0  0  0  0  0  0  0  0  0  0  0  0
    7.2131  -15.8395   24.5160 O   0  0  0  0  0  0  0  0  0  0  0  0
   10.6769  -20.7671   25.5925 N   0  0  0  0  0  0  0  0  0  0  0  0
   10.3792  -21.0740   24.2316 C   0  0  0  0  0  0  0  0  0  0  0  0
   10.7443  -22.2281   23.7553 N   0  0  0  0  0  0  0  0  0  0  0  0
    9.6981  -20.1523   23.3970 N   0  0  0  0  0  0  0  0  0  0  0  0
    9.5089  -18.7677   23.7567 C   0  0  0  0  0  0  0  0  0  0  0  0
   10.4034  -18.3614   24.9369 C   0  0  0  0  0  0  0  0  0  0  0  0
   10.2501  -16.9063   25.1754 C   0  0  0  0  0  0  0  0  0  0  0  0
    9.3158  -16.5369   26.2870 C   0  0  2  0  0  0  0  0  0  0  0  0
    8.7119  -15.2599   26.1509 N   0  0  0  0  0  0  0  0  0  0  0  0
   10.0908  -16.5854   27.5802 C   0  0  0  0  0  0  0  0  0  0  0  0
   10.4052  -15.3985   28.2088 O   0  0  0  0  0  0  0  0  0  0  0  0
   10.4561  -17.6583   28.1001 O   0  0  0  0  0  0  0  0  0  0  0  0
  2  1  1  0
  3  2  2  0
  4  3  1  0
  5 11  1  0
  5  4  2  0
  6  5  1  0
  7  6  1  0
  7  8  1  6
  9 13  1  0
  9  7  1  0
 10  9  2  0
 11 12  2  0
 12  2  1  0
 14 20  1  0
 14 13  1  0
 14 15  1  6
 16 15  1  0
 17 16  1  0
 18 17  1  0
 19 18  1  0
 20 30  1  0
 21 20  2  0
 23 25  1  0
 23 22  1  0
 24 23  2  0
 26 27  1  0
 26 25  1  0
 27 28  1  0
 29 31  1  0
 29 28  1  6
 30 29  1  0
 31 32  1  0
 33 31  2  0
M  END
$$$$
