YKR.pdb
     RDKit          3D

 33 33  0  0  1  0  0  0  0  0999 V2000
    7.2106  -13.9372   12.7968 O   0  0  0  0  0  0  0  0  0  0  0  0
    7.6680  -14.4043   14.0400 C   0  0  0  0  0  0  0  0  0  0  0  0
    6.7511  -14.4126   15.0825 C   0  0  0  0  0  0  0  0  0  0  0  0
    7.1698  -14.8654   16.3139 C   0  0  0  0  0  0  0  0  0  0  0  0
    8.4612  -15.3116   16.5582 C   0  0  0  0  0  0  0  0  0  0  0  0
    8.8267  -15.7799   17.9001 C   0  0  0  0  0  0  0  0  0  0  0  0
    8.1660  -14.9440   18.9545 C   0  0  2  0  0  0  0  0  0  0  0  0
    8.6095  -13.5874   18.8619 N   0  0  0  0  0  0  0  0  0  0  0  0
    8.4225  -15.5313   20.3196 C   0  0  0  0  0  0  0  0  0  0  0  0
    9.2812  -14.9694   21.0031 O   0  0  0  0  0  0  0  0  0  0  0  0
    9.3469  -15.2923   15.5088 C   0  0  0  0  0  0  0  0  0  0  0  0
    8.9386  -14.8382   14.2607 C   0  0  0  0  0  0  0  0  0  0  0  0
    7.6979  -16.6702   20.7653 N   0  0  0  0  0  0  0  0  0  0  0  0
    8.0008  -17.4730   21.8931 C   0  0  1  0  0  0  0  0  0  0  0  0
    6.9380  -18.5140   22.2569 C   0  0  0  0  0  0  0  0  0  0  0  0
    7.4129  -19.3746   23.3944 C   0  0  0  0  0  0  0  0  0  0  0  0
    6.4102  -20.4300   23.7632 C   0  0  0  0  0  0  0  0  0  0  0  0
    6.8119  -21.2752   24.9130 C   0  0  0  0  0  0  0  0  0  0  0  0
    5.8548  -22.2631   25.3232 N   0  0  0  0  0  0  0  0  0  0  0  0
    9.3400  -17.9711   22.0641 C   0  0  0  0  0  0  0  0  0  0  0  0
    9.8181  -18.6894   21.1144 O   0  0  0  0  0  0  0  0  0  0  0  0
   15.2700  -13.8303   18.9757 N   0  0  0  0  0  0  0  0  0  0  0  0
   16.0330  -14.7950   19.6981 C   0  0  0  0  0  0  0  0  0  0  0  0
   17.3208  -14.8365   19.5197 N   0  0  0  0  0  0  0  0  0  0  0  0
   15.4183  -15.7006   20.5993 N   0  0  0  0  0  0  0  0  0  0  0  0
   13.9946  -15.7208   20.8339 C   0  0  0  0  0  0  0  0  0  0  0  0
   13.6093  -16.7645   21.8923 C   0  0  0  0  0  0  0  0  0  0  0  0
   12.1345  -16.7728   22.0421 C   0  0  0  0  0  0  0  0  0  0  0  0
   11.5976  -17.7777   23.0153 C   0  0  2  0  0  0  0  0  0  0  0  0
   10.1876  -17.7518   23.1733 N   0  0  0  0  0  0  0  0  0  0  0  0
   12.2527  -17.5266   24.3507 C   0  0  0  0  0  0  0  0  0  0  0  0
   11.4542  -17.2192   25.4326 O   0  0  0  0  0  0  0  0  0  0  0  0
   13.4877  -17.5874   24.5108 O   0  0  0  0  0  0  0  0  0  0  0  0
  2  1  1  0
  3  2  2  0
  4  3  1  0
  5 11  1  0
  5  4  2  0
  6  5  1  0
  7  6  1  0
  7  8  1  1
  9 13  1  0
  9  7  1  0
 10  9  2  0
 11 12  2  0
 12  2  1  0
 14 20  1  0
 14 13  1  0
 14 15  1  6
 16 15  1  0
 17 16  1  0
 18 17  1  0
 19 18  1  0
 20 30  1  0
 21 20  2  0
 23 25  1  0
 23 22  1  0
 24 23  2  0
 26 27  1  0
 26 25  1  0
 27 28  1  0
 29 31  1  0
 29 28  1  6
 30 29  1  0
 31 32  1  0
 33 31  2  0
M  END
$$$$
