YKR.pdb
     RDKit          3D

 33 33  0  0  1  0  0  0  0  0999 V2000
    7.4954  -13.7620   12.5979 O   0  0  0  0  0  0  0  0  0  0  0  0
    8.1415  -14.1814   13.7723 C   0  0  0  0  0  0  0  0  0  0  0  0
    7.3306  -14.5997   14.8188 C   0  0  0  0  0  0  0  0  0  0  0  0
    7.9351  -15.0170   15.9838 C   0  0  0  0  0  0  0  0  0  0  0  0
    9.3119  -15.0381   16.1578 C   0  0  0  0  0  0  0  0  0  0  0  0
    9.8766  -15.4991   17.4314 C   0  0  0  0  0  0  0  0  0  0  0  0
    9.0176  -15.0689   18.5819 C   0  0  2  0  0  0  0  0  0  0  0  0
    9.0275  -13.6437   18.7024 N   0  0  0  0  0  0  0  0  0  0  0  0
    9.4703  -15.7470   19.8506 C   0  0  0  0  0  0  0  0  0  0  0  0
   10.2396  -15.1045   20.5685 O   0  0  0  0  0  0  0  0  0  0  0  0
   10.0894  -14.6191   15.1061 C   0  0  0  0  0  0  0  0  0  0  0  0
    9.4936  -14.1952   13.9245 C   0  0  0  0  0  0  0  0  0  0  0  0
    9.0174  -17.0553   20.1731 N   0  0  0  0  0  0  0  0  0  0  0  0
    9.5515  -17.9099   21.1694 C   0  0  1  0  0  0  0  0  0  0  0  0
    8.9863  -19.3334   21.1790 C   0  0  0  0  0  0  0  0  0  0  0  0
    9.6141  -20.1407   22.2808 C   0  0  0  0  0  0  0  0  0  0  0  0
    9.1150  -21.5570   22.3003 C   0  0  0  0  0  0  0  0  0  0  0  0
    9.7176  -22.3996   23.3607 C   0  0  0  0  0  0  0  0  0  0  0  0
    9.4372  -23.8047   23.2732 N   0  0  0  0  0  0  0  0  0  0  0  0
   10.9639  -17.8769   21.4426 C   0  0  0  0  0  0  0  0  0  0  0  0
   11.7286  -17.4658   20.4978 O   0  0  0  0  0  0  0  0  0  0  0  0
   16.7166  -15.1930   18.5085 N   0  0  0  0  0  0  0  0  0  0  0  0
   15.4412  -14.5649   18.3906 C   0  0  0  0  0  0  0  0  0  0  0  0
   15.3512  -13.4493   17.7279 N   0  0  0  0  0  0  0  0  0  0  0  0
   14.2808  -15.1304   18.9769 N   0  0  0  0  0  0  0  0  0  0  0  0
   14.0978  -15.2281   20.4049 C   0  0  0  0  0  0  0  0  0  0  0  0
   13.5845  -16.6154   20.8169 C   0  0  0  0  0  0  0  0  0  0  0  0
   13.4258  -16.6493   22.2905 C   0  0  0  0  0  0  0  0  0  0  0  0
   12.9741  -17.9622   22.8536 C   0  0  2  0  0  0  0  0  0  0  0  0
   11.6003  -18.2520   22.6473 N   0  0  0  0  0  0  0  0  0  0  0  0
   13.2646  -17.9571   24.3339 C   0  0  0  0  0  0  0  0  0  0  0  0
   14.5734  -17.8333   24.7515 O   0  0  0  0  0  0  0  0  0  0  0  0
   12.3653  -18.0602   25.1914 O   0  0  0  0  0  0  0  0  0  0  0  0
  2  1  1  0
  3  2  2  0
  4  3  1  0
  5 11  1  0
  5  4  2  0
  6  5  1  0
  7  6  1  0
  7  8  1  1
  9 13  1  0
  9  7  1  0
 10  9  2  0
 11 12  2  0
 12  2  1  0
 14 20  1  0
 14 13  1  0
 14 15  1  6
 16 15  1  0
 17 16  1  0
 18 17  1  0
 19 18  1  0
 20 30  1  0
 21 20  2  0
 23 25  1  0
 23 22  1  0
 24 23  2  0
 26 27  1  0
 26 25  1  0
 27 28  1  0
 29 31  1  0
 29 28  1  1
 30 29  1  0
 31 32  1  0
 33 31  2  0
M  END
$$$$
