HFP.pdb
     RDKit          3D

 29 31  0  0  1  0  0  0  0  0999 V2000
    9.9633  -18.2324   21.2763 N   0  0  0  0  0  0  0  0  0  0  0  0
   10.8513  -17.1157   21.2514 C   0  0  1  0  0  0  0  0  0  0  0  0
   10.9484  -16.4152   19.9391 C   0  0  0  0  0  0  0  0  0  0  0  0
   11.1470  -17.3605   18.8098 C   0  0  0  0  0  0  0  0  0  0  0  0
   12.2795  -18.1081   18.5628 C   0  0  0  0  0  0  0  0  0  0  0  0
   12.0696  -18.8419   17.4452 N   0  0  0  0  0  0  0  0  0  0  0  0
   10.8485  -18.5733   16.9947 C   0  0  0  0  0  0  0  0  0  0  0  0
   10.2926  -17.6774   17.8212 N   0  0  0  0  0  0  0  0  0  0  0  0
   10.4946  -16.0740   22.2810 C   0  0  0  0  0  0  0  0  0  0  0  0
   11.1824  -15.0379   22.3213 O   0  0  0  0  0  0  0  0  0  0  0  0
    9.4088  -16.3545   23.1189 N   0  0  0  0  0  0  0  0  0  0  0  0
    9.0706  -15.3920   24.1760 C   0  0  1  0  0  0  0  0  0  0  0  0
    7.6041  -15.0236   24.0738 C   0  0  0  0  0  0  0  0  0  0  0  0
    7.2434  -13.8987   24.9463 C   0  0  0  0  0  0  0  0  0  0  0  0
    6.4442  -14.1217   26.0678 C   0  0  0  0  0  0  0  0  0  0  0  0
    6.0746  -13.0848   26.9168 C   0  0  0  0  0  0  0  0  0  0  0  0
    6.5008  -11.8020   26.6558 C   0  0  0  0  0  0  0  0  0  0  0  0
    7.2845  -11.5613   25.5623 C   0  0  0  0  0  0  0  0  0  0  0  0
    7.6435  -12.6063   24.7266 C   0  0  0  0  0  0  0  0  0  0  0  0
    9.4641  -15.8866   25.5092 C   0  0  0  0  0  0  0  0  0  0  0  0
    9.1759  -17.1155   25.7307 O   0  0  0  0  0  0  0  0  0  0  0  0
   10.1146  -15.1091   26.5068 N   0  0  0  0  0  0  0  0  0  0  0  0
   10.4101  -13.7181   26.4271 C   0  0  0  0  0  0  0  0  0  0  0  0
   10.2509  -13.3241   27.9097 C   0  0  0  0  0  0  0  0  0  0  0  0
   10.9995  -14.4860   28.5898 C   0  0  0  0  0  0  0  0  0  0  0  0
   10.6461  -15.6511   27.7175 C   0  0  1  0  0  0  0  0  0  0  0  0
    9.6785  -16.5534   28.4015 C   0  0  0  0  0  0  0  0  0  0  0  0
   10.0975  -17.3343   29.4477 O   0  0  0  0  0  0  0  0  0  0  0  0
    8.5016  -16.5908   28.0192 O   0  0  0  0  0  0  0  0  0  0  0  0
  2  1  1  6
  3  2  1  0
  4  5  2  0
  4  3  1  0
  6  5  1  0
  7  8  2  0
  7  6  1  0
  8  4  1  0
  9  2  1  0
 10  9  2  0
 11  9  1  0
 12 11  1  0
 12 13  1  1
 13 14  1  0
 14 19  1  0
 14 15  2  0
 15 16  1  0
 16 17  2  0
 18 17  1  0
 19 18  2  0
 20 12  1  0
 21 20  2  0
 22 20  1  0
 22 26  1  0
 23 24  1  0
 23 22  1  0
 24 25  1  0
 25 26  1  0
 27 28  1  0
 26 27  1  1
 29 27  2  0
M  END
$$$$
