HFP.pdb
     RDKit          3D

 29 31  0  0  1  0  0  0  0  0999 V2000
    5.5199  -20.3041   23.6592 N   0  0  0  0  0  0  0  0  0  0  0  0
    5.1000  -19.3864   22.6504 C   0  0  1  0  0  0  0  0  0  0  0  0
    3.6700  -19.5034   22.2457 C   0  0  0  0  0  0  0  0  0  0  0  0
    3.3851  -20.7853   21.5501 C   0  0  0  0  0  0  0  0  0  0  0  0
    4.3083  -21.7547   21.2180 C   0  0  0  0  0  0  0  0  0  0  0  0
    3.6585  -22.7663   20.5968 N   0  0  0  0  0  0  0  0  0  0  0  0
    2.3680  -22.4551   20.5342 C   0  0  0  0  0  0  0  0  0  0  0  0
    2.2050  -21.2570   21.1112 N   0  0  0  0  0  0  0  0  0  0  0  0
    5.3287  -17.9504   23.0480 C   0  0  0  0  0  0  0  0  0  0  0  0
    4.7043  -17.0699   22.4290 O   0  0  0  0  0  0  0  0  0  0  0  0
    6.2327  -17.7160   24.0909 N   0  0  0  0  0  0  0  0  0  0  0  0
    6.6743  -16.3373   24.3408 C   0  0  1  0  0  0  0  0  0  0  0  0
    6.8074  -16.1120   25.8336 C   0  0  0  0  0  0  0  0  0  0  0  0
    6.9358  -14.6907   26.1798 C   0  0  0  0  0  0  0  0  0  0  0  0
    8.1999  -14.1450   26.4047 C   0  0  0  0  0  0  0  0  0  0  0  0
    8.3662  -12.8062   26.7402 C   0  0  0  0  0  0  0  0  0  0  0  0
    7.2650  -11.9882   26.8566 C   0  0  0  0  0  0  0  0  0  0  0  0
    6.0174  -12.5023   26.6406 C   0  0  0  0  0  0  0  0  0  0  0  0
    5.8696  -13.8388   26.3071 C   0  0  0  0  0  0  0  0  0  0  0  0
    7.8974  -16.0114   23.5827 C   0  0  0  0  0  0  0  0  0  0  0  0
    8.8858  -16.7984   23.7972 O   0  0  0  0  0  0  0  0  0  0  0  0
    8.0262  -14.9260   22.6725 N   0  0  0  0  0  0  0  0  0  0  0  0
    7.0295  -13.9509   22.3821 C   0  0  0  0  0  0  0  0  0  0  0  0
    7.9235  -12.7200   22.1287 C   0  0  0  0  0  0  0  0  0  0  0  0
    9.0203  -13.3475   21.2478 C   0  0  0  0  0  0  0  0  0  0  0  0
    9.1719  -14.7123   21.8456 C   0  0  1  0  0  0  0  0  0  0  0  0
   10.4451  -14.8192   22.6110 C   0  0  0  0  0  0  0  0  0  0  0  0
   11.6376  -14.9098   21.9406 O   0  0  0  0  0  0  0  0  0  0  0  0
   10.4161  -14.8252   23.8487 O   0  0  0  0  0  0  0  0  0  0  0  0
  2  1  1  1
  3  2  1  0
  4  5  2  0
  4  3  1  0
  6  5  1  0
  7  8  2  0
  7  6  1  0
  8  4  1  0
  9  2  1  0
 10  9  2  0
 11  9  1  0
 12 11  1  0
 12 13  1  1
 13 14  1  0
 14 19  1  0
 14 15  2  0
 15 16  1  0
 16 17  2  0
 18 17  1  0
 19 18  2  0
 20 12  1  0
 21 20  2  0
 22 20  1  0
 22 26  1  0
 23 24  1  0
 23 22  1  0
 24 25  1  0
 25 26  1  0
 27 28  1  0
 26 27  1  1
 29 27  2  0
M  END
$$$$
