HFP.pdb
     RDKit          3D

 29 31  0  0  1  0  0  0  0  0999 V2000
   11.8017  -16.4086   20.5408 N   0  0  0  0  0  0  0  0  0  0  0  0
   10.6805  -16.8209   21.3212 C   0  0  1  0  0  0  0  0  0  0  0  0
   10.7345  -18.2281   21.8103 C   0  0  0  0  0  0  0  0  0  0  0  0
   10.0954  -19.1781   20.8631 C   0  0  0  0  0  0  0  0  0  0  0  0
    9.7678  -18.9209   19.5482 C   0  0  0  0  0  0  0  0  0  0  0  0
    9.2055  -20.0348   19.0240 N   0  0  0  0  0  0  0  0  0  0  0  0
    9.1748  -20.9690   19.9687 C   0  0  0  0  0  0  0  0  0  0  0  0
    9.7133  -20.4489   21.0796 N   0  0  0  0  0  0  0  0  0  0  0  0
   10.4659  -15.9435   22.5281 C   0  0  0  0  0  0  0  0  0  0  0  0
   11.4703  -15.4583   23.0794 O   0  0  0  0  0  0  0  0  0  0  0  0
    9.1431  -15.7404   22.9389 N   0  0  0  0  0  0  0  0  0  0  0  0
    8.8912  -14.8509   24.0807 C   0  0  1  0  0  0  0  0  0  0  0  0
    7.5037  -14.2534   23.9594 C   0  0  0  0  0  0  0  0  0  0  0  0
    7.1519  -13.4078   25.1073 C   0  0  0  0  0  0  0  0  0  0  0  0
    6.2436  -13.8747   26.0577 C   0  0  0  0  0  0  0  0  0  0  0  0
    5.8784  -13.1049   27.1562 C   0  0  0  0  0  0  0  0  0  0  0  0
    6.4189  -11.8496   27.3220 C   0  0  0  0  0  0  0  0  0  0  0  0
    7.3105  -11.3727   26.4027 C   0  0  0  0  0  0  0  0  0  0  0  0
    7.6634  -12.1530   25.3137 C   0  0  0  0  0  0  0  0  0  0  0  0
    9.1299  -15.5342   25.3664 C   0  0  0  0  0  0  0  0  0  0  0  0
    8.6531  -16.7216   25.4382 O   0  0  0  0  0  0  0  0  0  0  0  0
    9.8274  -14.9710   26.4706 N   0  0  0  0  0  0  0  0  0  0  0  0
   10.2358  -13.6129   26.6015 C   0  0  0  0  0  0  0  0  0  0  0  0
   10.0886  -13.4337   28.1262 C   0  0  0  0  0  0  0  0  0  0  0  0
   10.7309  -14.7419   28.6250 C   0  0  0  0  0  0  0  0  0  0  0  0
   10.2963  -15.7302   27.5868 C   0  0  1  0  0  0  0  0  0  0  0  0
    9.2494  -16.6420   28.1259 C   0  0  0  0  0  0  0  0  0  0  0  0
    7.9441  -16.4866   27.7362 O   0  0  0  0  0  0  0  0  0  0  0  0
    9.5669  -17.5344   28.9230 O   0  0  0  0  0  0  0  0  0  0  0  0
  2  1  1  1
  3  2  1  0
  4  5  2  0
  4  3  1  0
  6  5  1  0
  7  8  2  0
  7  6  1  0
  8  4  1  0
  9  2  1  0
 10  9  2  0
 11  9  1  0
 12 11  1  0
 12 13  1  1
 13 14  1  0
 14 19  1  0
 14 15  2  0
 15 16  1  0
 16 17  2  0
 18 17  1  0
 19 18  2  0
 20 12  1  0
 21 20  2  0
 22 20  1  0
 22 26  1  0
 23 24  1  0
 23 22  1  0
 24 25  1  0
 25 26  1  0
 27 28  1  0
 26 27  1  1
 29 27  2  0
M  END
$$$$
