HFP.pdb
     RDKit          3D

 29 31  0  0  1  0  0  0  0  0999 V2000
    9.8777  -18.1798   21.2599 N   0  0  0  0  0  0  0  0  0  0  0  0
   10.9132  -17.2134   21.4334 C   0  0  1  0  0  0  0  0  0  0  0  0
   11.3333  -16.5077   20.1893 C   0  0  0  0  0  0  0  0  0  0  0  0
   11.6853  -17.4526   19.0977 C   0  0  0  0  0  0  0  0  0  0  0  0
   12.7320  -18.3507   19.1036 C   0  0  0  0  0  0  0  0  0  0  0  0
   12.7184  -19.0280   17.9320 N   0  0  0  0  0  0  0  0  0  0  0  0
   11.7007  -18.5794   17.2044 C   0  0  0  0  0  0  0  0  0  0  0  0
   11.0776  -17.6271   17.9111 N   0  0  0  0  0  0  0  0  0  0  0  0
   10.5467  -16.1520   22.4391 C   0  0  0  0  0  0  0  0  0  0  0  0
   11.3311  -15.1977   22.5882 O   0  0  0  0  0  0  0  0  0  0  0  0
    9.3430  -16.3227   23.1331 N   0  0  0  0  0  0  0  0  0  0  0  0
    9.0070  -15.3712   24.2008 C   0  0  1  0  0  0  0  0  0  0  0  0
    7.5389  -15.0064   24.1091 C   0  0  0  0  0  0  0  0  0  0  0  0
    7.1678  -13.9264   25.0324 C   0  0  0  0  0  0  0  0  0  0  0  0
    6.4195  -14.2182   26.1731 C   0  0  0  0  0  0  0  0  0  0  0  0
    6.0419  -13.2257   27.0703 C   0  0  0  0  0  0  0  0  0  0  0  0
    6.4088  -11.9191   26.8392 C   0  0  0  0  0  0  0  0  0  0  0  0
    7.1420  -11.6111   25.7278 C   0  0  0  0  0  0  0  0  0  0  0  0
    7.5098  -12.6126   24.8440 C   0  0  0  0  0  0  0  0  0  0  0  0
    9.4084  -15.8771   25.5274 C   0  0  0  0  0  0  0  0  0  0  0  0
    9.1208  -17.1076   25.7405 O   0  0  0  0  0  0  0  0  0  0  0  0
   10.0656  -15.1082   26.5273 N   0  0  0  0  0  0  0  0  0  0  0  0
   10.2854  -13.7014   26.4955 C   0  0  0  0  0  0  0  0  0  0  0  0
   10.1779  -13.3784   27.9997 C   0  0  0  0  0  0  0  0  0  0  0  0
   11.0167  -14.5262   28.5929 C   0  0  0  0  0  0  0  0  0  0  0  0
   10.6818  -15.6711   27.6874 C   0  0  1  0  0  0  0  0  0  0  0  0
    9.7956  -16.6512   28.3747 C   0  0  0  0  0  0  0  0  0  0  0  0
    8.4805  -16.7587   28.0021 O   0  0  0  0  0  0  0  0  0  0  0  0
   10.2546  -17.3619   29.2784 O   0  0  0  0  0  0  0  0  0  0  0  0
  2  1  1  6
  3  2  1  0
  4  5  2  0
  4  3  1  0
  6  5  1  0
  7  8  2  0
  7  6  1  0
  8  4  1  0
  9  2  1  0
 10  9  2  0
 11  9  1  0
 12 11  1  0
 12 13  1  1
 13 14  1  0
 14 19  1  0
 14 15  2  0
 15 16  1  0
 16 17  2  0
 18 17  1  0
 19 18  2  0
 20 12  1  0
 21 20  2  0
 22 20  1  0
 22 26  1  0
 23 24  1  0
 23 22  1  0
 24 25  1  0
 25 26  1  0
 27 28  1  0
 26 27  1  1
 29 27  2  0
M  END
$$$$
