HFP.pdb
     RDKit          3D

 29 31  0  0  1  0  0  0  0  0999 V2000
   11.5123  -16.7300   20.4803 N   0  0  0  0  0  0  0  0  0  0  0  0
   10.5436  -17.1863   21.4236 C   0  0  1  0  0  0  0  0  0  0  0  0
   10.8169  -18.5293   22.0100 C   0  0  0  0  0  0  0  0  0  0  0  0
   10.3791  -19.6332   21.1167 C   0  0  0  0  0  0  0  0  0  0  0  0
    9.0755  -19.9805   20.8297 C   0  0  0  0  0  0  0  0  0  0  0  0
    9.0929  -21.0335   19.9797 N   0  0  0  0  0  0  0  0  0  0  0  0
   10.3604  -21.3474   19.7326 C   0  0  0  0  0  0  0  0  0  0  0  0
   11.1362  -20.4996   20.4211 N   0  0  0  0  0  0  0  0  0  0  0  0
   10.3681  -16.2304   22.5759 C   0  0  0  0  0  0  0  0  0  0  0  0
   11.3793  -15.6455   23.0045 O   0  0  0  0  0  0  0  0  0  0  0  0
    9.0713  -16.0729   23.0790 N   0  0  0  0  0  0  0  0  0  0  0  0
    8.8523  -15.1107   24.1674 C   0  0  1  0  0  0  0  0  0  0  0  0
    7.4525  -14.5394   24.0629 C   0  0  0  0  0  0  0  0  0  0  0  0
    7.1811  -13.5221   25.0866 C   0  0  0  0  0  0  0  0  0  0  0  0
    6.4368  -13.8598   26.2172 C   0  0  0  0  0  0  0  0  0  0  0  0
    6.1520  -12.9265   27.2074 C   0  0  0  0  0  0  0  0  0  0  0  0
    6.6096  -11.6342   27.0814 C   0  0  0  0  0  0  0  0  0  0  0  0
    7.3405  -11.2819   25.9817 C   0  0  0  0  0  0  0  0  0  0  0  0
    7.6152  -12.2246   25.0043 C   0  0  0  0  0  0  0  0  0  0  0  0
    9.1524  -15.7018   25.4855 C   0  0  0  0  0  0  0  0  0  0  0  0
    8.6506  -16.8654   25.6771 O   0  0  0  0  0  0  0  0  0  0  0  0
    9.9312  -15.0783   26.4992 N   0  0  0  0  0  0  0  0  0  0  0  0
   10.3713  -13.7238   26.5060 C   0  0  0  0  0  0  0  0  0  0  0  0
   10.3283  -13.4347   28.0204 C   0  0  0  0  0  0  0  0  0  0  0  0
   10.9789  -14.7188   28.5688 C   0  0  0  0  0  0  0  0  0  0  0  0
   10.4593  -15.7675   27.6342 C   0  0  1  0  0  0  0  0  0  0  0  0
    9.4342  -16.6156   28.3036 C   0  0  0  0  0  0  0  0  0  0  0  0
    9.8136  -17.4996   29.2806 O   0  0  0  0  0  0  0  0  0  0  0  0
    8.2458  -16.5152   27.9717 O   0  0  0  0  0  0  0  0  0  0  0  0
  2  1  1  6
  3  2  1  0
  4  5  2  0
  4  3  1  0
  6  5  1  0
  7  8  2  0
  7  6  1  0
  8  4  1  0
  9  2  1  0
 10  9  2  0
 11  9  1  0
 12 11  1  0
 12 13  1  1
 13 14  1  0
 14 19  1  0
 14 15  2  0
 15 16  1  0
 16 17  2  0
 18 17  1  0
 19 18  2  0
 20 12  1  0
 21 20  2  0
 22 20  1  0
 22 26  1  0
 23 24  1  0
 23 22  1  0
 24 25  1  0
 25 26  1  0
 27 28  1  0
 26 27  1  1
 29 27  2  0
M  END
$$$$
