HFP.pdb
     RDKit          3D

 29 31  0  0  1  0  0  0  0  0999 V2000
    9.9480  -18.1822   21.2245 N   0  0  0  0  0  0  0  0  0  0  0  0
   10.9859  -17.2228   21.4204 C   0  0  1  0  0  0  0  0  0  0  0  0
   11.4034  -16.4848   20.1943 C   0  0  0  0  0  0  0  0  0  0  0  0
   11.5375  -17.3808   19.0164 C   0  0  0  0  0  0  0  0  0  0  0  0
   10.5037  -17.8954   18.2623 C   0  0  0  0  0  0  0  0  0  0  0  0
   11.0333  -18.6631   17.2816 N   0  0  0  0  0  0  0  0  0  0  0  0
   12.3564  -18.6401   17.4044 C   0  0  0  0  0  0  0  0  0  0  0  0
   12.6590  -17.8642   18.4538 N   0  0  0  0  0  0  0  0  0  0  0  0
   10.6248  -16.1879   22.4553 C   0  0  0  0  0  0  0  0  0  0  0  0
   11.4209  -15.2499   22.6410 O   0  0  0  0  0  0  0  0  0  0  0  0
    9.4125  -16.3631   23.1331 N   0  0  0  0  0  0  0  0  0  0  0  0
    9.0486  -15.4004   24.1814 C   0  0  1  0  0  0  0  0  0  0  0  0
    7.6153  -14.9513   23.9796 C   0  0  0  0  0  0  0  0  0  0  0  0
    7.2415  -13.8432   24.8679 C   0  0  0  0  0  0  0  0  0  0  0  0
    6.5269  -14.1049   26.0371 C   0  0  0  0  0  0  0  0  0  0  0  0
    6.1480  -13.0853   26.9030 C   0  0  0  0  0  0  0  0  0  0  0  0
    6.4797  -11.7814   26.6111 C   0  0  0  0  0  0  0  0  0  0  0  0
    7.1795  -11.5028   25.4708 C   0  0  0  0  0  0  0  0  0  0  0  0
    7.5491  -12.5309   24.6189 C   0  0  0  0  0  0  0  0  0  0  0  0
    9.3155  -15.9366   25.5298 C   0  0  0  0  0  0  0  0  0  0  0  0
    8.9671  -17.1582   25.6987 O   0  0  0  0  0  0  0  0  0  0  0  0
    9.9104  -15.2044   26.5941 N   0  0  0  0  0  0  0  0  0  0  0  0
   10.1280  -13.7972   26.6265 C   0  0  0  0  0  0  0  0  0  0  0  0
    9.9310  -13.5293   28.1325 C   0  0  0  0  0  0  0  0  0  0  0  0
   10.7363  -14.6976   28.7321 C   0  0  0  0  0  0  0  0  0  0  0  0
   10.4585  -15.8089   27.7673 C   0  0  1  0  0  0  0  0  0  0  0  0
    9.5359  -16.8138   28.3650 C   0  0  0  0  0  0  0  0  0  0  0  0
    9.9690  -17.6089   29.3945 O   0  0  0  0  0  0  0  0  0  0  0  0
    8.3833  -16.9230   27.9264 O   0  0  0  0  0  0  0  0  0  0  0  0
  2  1  1  6
  3  2  1  0
  4  5  2  0
  4  3  1  0
  6  5  1  0
  7  8  2  0
  7  6  1  0
  8  4  1  0
  9  2  1  0
 10  9  2  0
 11  9  1  0
 12 11  1  0
 12 13  1  1
 13 14  1  0
 14 19  1  0
 14 15  2  0
 15 16  1  0
 16 17  2  0
 18 17  1  0
 19 18  2  0
 20 12  1  0
 21 20  2  0
 22 20  1  0
 22 26  1  0
 23 24  1  0
 23 22  1  0
 24 25  1  0
 25 26  1  0
 27 28  1  0
 26 27  1  1
 29 27  2  0
M  END
$$$$
