HFP.pdb
     RDKit          3D

 29 31  0  0  1  0  0  0  0  0999 V2000
   11.5484  -16.5535   20.2405 N   0  0  0  0  0  0  0  0  0  0  0  0
   10.7225  -17.0664   21.2850 C   0  0  1  0  0  0  0  0  0  0  0  0
   11.2359  -18.2985   21.9488 C   0  0  0  0  0  0  0  0  0  0  0  0
   11.0533  -19.5092   21.1068 C   0  0  0  0  0  0  0  0  0  0  0  0
   11.0347  -19.5476   19.7282 C   0  0  0  0  0  0  0  0  0  0  0  0
   10.8461  -20.8305   19.3407 N   0  0  0  0  0  0  0  0  0  0  0  0
   10.7478  -21.5840   20.4310 C   0  0  0  0  0  0  0  0  0  0  0  0
   10.8733  -20.7831   21.4975 N   0  0  0  0  0  0  0  0  0  0  0  0
   10.4734  -16.0521   22.3720 C   0  0  0  0  0  0  0  0  0  0  0  0
   11.4111  -15.2979   22.6885 O   0  0  0  0  0  0  0  0  0  0  0  0
    9.1968  -16.0365   22.9462 N   0  0  0  0  0  0  0  0  0  0  0  0
    8.9303  -15.0928   24.0400 C   0  0  1  0  0  0  0  0  0  0  0  0
    7.5158  -14.5627   23.9169 C   0  0  0  0  0  0  0  0  0  0  0  0
    7.1674  -13.6301   24.9964 C   0  0  0  0  0  0  0  0  0  0  0  0
    7.6434  -12.3192   24.9586 C   0  0  0  0  0  0  0  0  0  0  0  0
    7.3425  -11.4057   25.9624 C   0  0  0  0  0  0  0  0  0  0  0  0
    6.5569  -11.7912   27.0252 C   0  0  0  0  0  0  0  0  0  0  0  0
    6.0803  -13.0707   27.0821 C   0  0  0  0  0  0  0  0  0  0  0  0
    6.3898  -13.9684   26.0732 C   0  0  0  0  0  0  0  0  0  0  0  0
    9.2254  -15.6884   25.3572 C   0  0  0  0  0  0  0  0  0  0  0  0
    8.7911  -16.8839   25.5136 O   0  0  0  0  0  0  0  0  0  0  0  0
    9.9322  -15.0368   26.4055 N   0  0  0  0  0  0  0  0  0  0  0  0
   10.2782  -13.6561   26.4533 C   0  0  0  0  0  0  0  0  0  0  0  0
   10.1749  -13.4054   27.9716 C   0  0  0  0  0  0  0  0  0  0  0  0
   10.8969  -14.6546   28.5111 C   0  0  0  0  0  0  0  0  0  0  0  0
   10.4756  -15.7145   27.5403 C   0  0  1  0  0  0  0  0  0  0  0  0
    9.4934  -16.6453   28.1624 C   0  0  0  0  0  0  0  0  0  0  0  0
    9.9002  -17.5043   29.1505 O   0  0  0  0  0  0  0  0  0  0  0  0
    8.3155  -16.6357   27.7814 O   0  0  0  0  0  0  0  0  0  0  0  0
  2  1  1  6
  3  2  1  0
  4  5  2  0
  4  3  1  0
  6  5  1  0
  7  8  2  0
  7  6  1  0
  8  4  1  0
  9  2  1  0
 10  9  2  0
 11  9  1  0
 12 11  1  0
 12 13  1  1
 13 14  1  0
 14 19  1  0
 14 15  2  0
 15 16  1  0
 16 17  2  0
 18 17  1  0
 19 18  2  0
 20 12  1  0
 21 20  2  0
 22 20  1  0
 22 26  1  0
 23 24  1  0
 23 22  1  0
 24 25  1  0
 25 26  1  0
 27 28  1  0
 26 27  1  1
 29 27  2  0
M  END
$$$$
