HFP.pdb
     RDKit          3D

 29 31  0  0  1  0  0  0  0  0999 V2000
    9.7169  -18.1233   21.1853 N   0  0  0  0  0  0  0  0  0  0  0  0
   10.8061  -17.2256   21.3952 C   0  0  1  0  0  0  0  0  0  0  0  0
   11.2955  -16.5294   20.1713 C   0  0  0  0  0  0  0  0  0  0  0  0
   11.5621  -17.4735   19.0552 C   0  0  0  0  0  0  0  0  0  0  0  0
   11.9023  -18.8045   19.1778 C   0  0  0  0  0  0  0  0  0  0  0  0
   12.0607  -19.3194   17.9363 N   0  0  0  0  0  0  0  0  0  0  0  0
   11.8303  -18.3535   17.0531 C   0  0  0  0  0  0  0  0  0  0  0  0
   11.5290  -17.2384   17.7318 N   0  0  0  0  0  0  0  0  0  0  0  0
   10.4844  -16.1582   22.4099 C   0  0  0  0  0  0  0  0  0  0  0  0
   11.3078  -15.2386   22.5663 O   0  0  0  0  0  0  0  0  0  0  0  0
    9.2748  -16.2845   23.1033 N   0  0  0  0  0  0  0  0  0  0  0  0
    8.9756  -15.3240   24.1739 C   0  0  1  0  0  0  0  0  0  0  0  0
    7.5399  -14.8558   24.0461 C   0  0  0  0  0  0  0  0  0  0  0  0
    7.2264  -13.7449   24.9540 C   0  0  0  0  0  0  0  0  0  0  0  0
    6.4514  -13.9779   26.0903 C   0  0  0  0  0  0  0  0  0  0  0  0
    6.1264  -12.9542   26.9730 C   0  0  0  0  0  0  0  0  0  0  0  0
    6.5739  -11.6749   26.7314 C   0  0  0  0  0  0  0  0  0  0  0  0
    7.3344  -11.4245   25.6240 C   0  0  0  0  0  0  0  0  0  0  0  0
    7.6490  -12.4563   24.7546 C   0  0  0  0  0  0  0  0  0  0  0  0
    9.3021  -15.8721   25.5042 C   0  0  0  0  0  0  0  0  0  0  0  0
    8.9984  -17.1068   25.6637 O   0  0  0  0  0  0  0  0  0  0  0  0
    9.9070  -15.1375   26.5614 N   0  0  0  0  0  0  0  0  0  0  0  0
   10.0779  -13.7245   26.6115 C   0  0  0  0  0  0  0  0  0  0  0  0
    9.9219  -13.4884   28.1276 C   0  0  0  0  0  0  0  0  0  0  0  0
   10.7855  -14.6380   28.6800 C   0  0  0  0  0  0  0  0  0  0  0  0
   10.5136  -15.7422   27.7054 C   0  0  1  0  0  0  0  0  0  0  0  0
    9.6456  -16.7878   28.3149 C   0  0  0  0  0  0  0  0  0  0  0  0
   10.1407  -17.5879   29.3121 O   0  0  0  0  0  0  0  0  0  0  0  0
    8.4821  -16.9261   27.9153 O   0  0  0  0  0  0  0  0  0  0  0  0
  2  1  1  6
  3  2  1  0
  4  5  2  0
  4  3  1  0
  6  5  1  0
  7  8  2  0
  7  6  1  0
  8  4  1  0
  9  2  1  0
 10  9  2  0
 11  9  1  0
 12 11  1  0
 12 13  1  1
 13 14  1  0
 14 19  1  0
 14 15  2  0
 15 16  1  0
 16 17  2  0
 18 17  1  0
 19 18  2  0
 20 12  1  0
 21 20  2  0
 22 20  1  0
 22 26  1  0
 23 24  1  0
 23 22  1  0
 24 25  1  0
 25 26  1  0
 27 28  1  0
 26 27  1  1
 29 27  2  0
M  END
$$$$
