HFP.pdb
     RDKit          3D

 29 31  0  0  1  0  0  0  0  0999 V2000
   11.8166  -16.6474   20.4425 N   0  0  0  0  0  0  0  0  0  0  0  0
   10.8183  -17.0786   21.3664 C   0  0  1  0  0  0  0  0  0  0  0  0
   11.1161  -18.3613   22.0651 C   0  0  0  0  0  0  0  0  0  0  0  0
   10.7906  -19.5462   21.2294 C   0  0  0  0  0  0  0  0  0  0  0  0
   10.3272  -19.5244   19.9304 C   0  0  0  0  0  0  0  0  0  0  0  0
   10.1516  -20.8020   19.5197 N   0  0  0  0  0  0  0  0  0  0  0  0
   10.4901  -21.6101   20.5190 C   0  0  0  0  0  0  0  0  0  0  0  0
   10.8760  -20.8487   21.5515 N   0  0  0  0  0  0  0  0  0  0  0  0
   10.5396  -16.0507   22.4333 C   0  0  0  0  0  0  0  0  0  0  0  0
   11.4687  -15.2934   22.7670 O   0  0  0  0  0  0  0  0  0  0  0  0
    9.2472  -16.0271   22.9708 N   0  0  0  0  0  0  0  0  0  0  0  0
    8.9642  -15.1047   24.0787 C   0  0  1  0  0  0  0  0  0  0  0  0
    7.5436  -14.5907   23.9581 C   0  0  0  0  0  0  0  0  0  0  0  0
    7.2074  -13.6134   25.0013 C   0  0  0  0  0  0  0  0  0  0  0  0
    7.6410  -12.2932   24.8779 C   0  0  0  0  0  0  0  0  0  0  0  0
    7.3500  -11.3374   25.8447 C   0  0  0  0  0  0  0  0  0  0  0  0
    6.6170  -11.6893   26.9556 C   0  0  0  0  0  0  0  0  0  0  0  0
    6.1823  -12.9773   27.0964 C   0  0  0  0  0  0  0  0  0  0  0  0
    6.4813  -13.9172   26.1235 C   0  0  0  0  0  0  0  0  0  0  0  0
    9.2616  -15.7179   25.3873 C   0  0  0  0  0  0  0  0  0  0  0  0
    8.8933  -16.9400   25.5020 O   0  0  0  0  0  0  0  0  0  0  0  0
    9.9044  -15.0556   26.4695 N   0  0  0  0  0  0  0  0  0  0  0  0
   10.1365  -13.6546   26.5779 C   0  0  0  0  0  0  0  0  0  0  0  0
   10.0007  -13.4768   28.1038 C   0  0  0  0  0  0  0  0  0  0  0  0
   10.8175  -14.6849   28.6000 C   0  0  0  0  0  0  0  0  0  0  0  0
   10.4918  -15.7338   27.5818 C   0  0  1  0  0  0  0  0  0  0  0  0
    9.5836  -16.7663   28.1538 C   0  0  0  0  0  0  0  0  0  0  0  0
   10.0459  -17.6188   29.1231 O   0  0  0  0  0  0  0  0  0  0  0  0
    8.4166  -16.8466   27.7486 O   0  0  0  0  0  0  0  0  0  0  0  0
  2  1  1  1
  3  2  1  0
  4  5  2  0
  4  3  1  0
  6  5  1  0
  7  8  2  0
  7  6  1  0
  8  4  1  0
  9  2  1  0
 10  9  2  0
 11  9  1  0
 12 11  1  0
 12 13  1  1
 13 14  1  0
 14 19  1  0
 14 15  2  0
 15 16  1  0
 16 17  2  0
 18 17  1  0
 19 18  2  0
 20 12  1  0
 21 20  2  0
 22 20  1  0
 22 26  1  0
 23 24  1  0
 23 22  1  0
 24 25  1  0
 25 26  1  0
 27 28  1  0
 26 27  1  1
 29 27  2  0
M  END
$$$$
