HFP.pdb
     RDKit          3D

 29 31  0  0  1  0  0  0  0  0999 V2000
   11.4846  -16.6671   20.1884 N   0  0  0  0  0  0  0  0  0  0  0  0
   10.5558  -17.1042   21.1795 C   0  0  1  0  0  0  0  0  0  0  0  0
   10.8653  -18.4256   21.7962 C   0  0  0  0  0  0  0  0  0  0  0  0
   10.6613  -19.5510   20.8475 C   0  0  0  0  0  0  0  0  0  0  0  0
    9.6041  -20.4369   20.8497 C   0  0  0  0  0  0  0  0  0  0  0  0
    9.7800  -21.3120   19.8324 N   0  0  0  0  0  0  0  0  0  0  0  0
   10.9076  -20.9971   19.2034 C   0  0  0  0  0  0  0  0  0  0  0  0
   11.4387  -19.9322   19.8188 N   0  0  0  0  0  0  0  0  0  0  0  0
   10.4107  -16.1151   22.3079 C   0  0  0  0  0  0  0  0  0  0  0  0
   11.4276  -15.4990   22.6745 O   0  0  0  0  0  0  0  0  0  0  0  0
    9.1334  -15.9647   22.8607 N   0  0  0  0  0  0  0  0  0  0  0  0
    8.9613  -15.0404   23.9896 C   0  0  1  0  0  0  0  0  0  0  0  0
    7.5887  -14.4021   23.9154 C   0  0  0  0  0  0  0  0  0  0  0  0
    7.3881  -13.3754   24.9461 C   0  0  0  0  0  0  0  0  0  0  0  0
    6.5844  -13.6533   26.0520 C   0  0  0  0  0  0  0  0  0  0  0  0
    6.3633  -12.7086   27.0477 C   0  0  0  0  0  0  0  0  0  0  0  0
    6.9458  -11.4649   26.9521 C   0  0  0  0  0  0  0  0  0  0  0  0
    7.7368  -11.1716   25.8770 C   0  0  0  0  0  0  0  0  0  0  0  0
    7.9465  -12.1248   24.8937 C   0  0  0  0  0  0  0  0  0  0  0  0
    9.2372  -15.6998   25.2803 C   0  0  0  0  0  0  0  0  0  0  0  0
    8.8354  -16.9142   25.3577 O   0  0  0  0  0  0  0  0  0  0  0  0
    9.8940  -15.0876   26.3834 N   0  0  0  0  0  0  0  0  0  0  0  0
   10.1509  -13.6955   26.5405 C   0  0  0  0  0  0  0  0  0  0  0  0
   10.0215  -13.5695   28.0722 C   0  0  0  0  0  0  0  0  0  0  0  0
   10.8181  -14.8084   28.5230 C   0  0  0  0  0  0  0  0  0  0  0  0
   10.4718  -15.8149   27.4694 C   0  0  1  0  0  0  0  0  0  0  0  0
    9.5468  -16.8509   28.0071 C   0  0  0  0  0  0  0  0  0  0  0  0
    9.9969  -17.7469   28.9422 O   0  0  0  0  0  0  0  0  0  0  0  0
    8.3769  -16.8946   27.6046 O   0  0  0  0  0  0  0  0  0  0  0  0
  2  1  1  6
  3  2  1  0
  4  5  2  0
  4  3  1  0
  6  5  1  0
  7  8  2  0
  7  6  1  0
  8  4  1  0
  9  2  1  0
 10  9  2  0
 11  9  1  0
 12 11  1  0
 12 13  1  1
 13 14  1  0
 14 19  1  0
 14 15  2  0
 15 16  1  0
 16 17  2  0
 18 17  1  0
 19 18  2  0
 20 12  1  0
 21 20  2  0
 22 20  1  0
 22 26  1  0
 23 24  1  0
 23 22  1  0
 24 25  1  0
 25 26  1  0
 27 28  1  0
 26 27  1  1
 29 27  2  0
M  END
$$$$
