HFP.pdb
     RDKit          3D

 29 31  0  0  1  0  0  0  0  0999 V2000
   11.6945  -16.5441   20.4564 N   0  0  0  0  0  0  0  0  0  0  0  0
   10.8145  -17.1035   21.4304 C   0  0  1  0  0  0  0  0  0  0  0  0
   11.2649  -18.3965   22.0200 C   0  0  0  0  0  0  0  0  0  0  0  0
   11.1447  -19.5248   21.0604 C   0  0  0  0  0  0  0  0  0  0  0  0
   11.8058  -19.6437   19.8558 C   0  0  0  0  0  0  0  0  0  0  0  0
   11.4304  -20.8083   19.2774 N   0  0  0  0  0  0  0  0  0  0  0  0
   10.5617  -21.4112   20.0824 C   0  0  0  0  0  0  0  0  0  0  0  0
   10.3905  -20.6335   21.1597 N   0  0  0  0  0  0  0  0  0  0  0  0
   10.5553  -16.1626   22.5794 C   0  0  0  0  0  0  0  0  0  0  0  0
   11.5033  -15.4662   22.9848 O   0  0  0  0  0  0  0  0  0  0  0  0
    9.2583  -16.1447   23.1058 N   0  0  0  0  0  0  0  0  0  0  0  0
    8.9603  -15.2193   24.2072 C   0  0  1  0  0  0  0  0  0  0  0  0
    7.5005  -14.8163   24.1478 C   0  0  0  0  0  0  0  0  0  0  0  0
    7.1506  -13.8147   25.1631 C   0  0  0  0  0  0  0  0  0  0  0  0
    7.5406  -12.4867   24.9880 C   0  0  0  0  0  0  0  0  0  0  0  0
    7.2354  -11.5079   25.9268 C   0  0  0  0  0  0  0  0  0  0  0  0
    6.5316  -11.8440   27.0613 C   0  0  0  0  0  0  0  0  0  0  0  0
    6.1398  -13.1391   27.2528 C   0  0  0  0  0  0  0  0  0  0  0  0
    6.4525  -14.1021   26.3071 C   0  0  0  0  0  0  0  0  0  0  0  0
    9.3668  -15.7763   25.5115 C   0  0  0  0  0  0  0  0  0  0  0  0
    9.0683  -17.0108   25.6829 O   0  0  0  0  0  0  0  0  0  0  0  0
   10.0396  -15.0503   26.5330 N   0  0  0  0  0  0  0  0  0  0  0  0
   10.3616  -13.6633   26.5041 C   0  0  0  0  0  0  0  0  0  0  0  0
   10.2209  -13.3234   28.0019 C   0  0  0  0  0  0  0  0  0  0  0  0
   10.9514  -14.5247   28.6311 C   0  0  0  0  0  0  0  0  0  0  0  0
   10.5690  -15.6485   27.7178 C   0  0  1  0  0  0  0  0  0  0  0  0
    9.5889  -16.5575   28.3746 C   0  0  0  0  0  0  0  0  0  0  0  0
    9.9966  -17.3747   29.3972 O   0  0  0  0  0  0  0  0  0  0  0  0
    8.4119  -16.5677   27.9909 O   0  0  0  0  0  0  0  0  0  0  0  0
  2  1  1  6
  3  2  1  0
  4  5  2  0
  4  3  1  0
  6  5  1  0
  7  8  2  0
  7  6  1  0
  8  4  1  0
  9  2  1  0
 10  9  2  0
 11  9  1  0
 12 11  1  0
 12 13  1  1
 13 14  1  0
 14 19  1  0
 14 15  2  0
 15 16  1  0
 16 17  2  0
 18 17  1  0
 19 18  2  0
 20 12  1  0
 21 20  2  0
 22 20  1  0
 22 26  1  0
 23 24  1  0
 23 22  1  0
 24 25  1  0
 25 26  1  0
 27 28  1  0
 26 27  1  1
 29 27  2  0
M  END
$$$$
