HFP.pdb
     RDKit          3D

 29 31  0  0  1  0  0  0  0  0999 V2000
   11.2009  -16.6057   20.1923 N   0  0  0  0  0  0  0  0  0  0  0  0
   10.4774  -17.1367   21.3017 C   0  0  1  0  0  0  0  0  0  0  0  0
   11.1053  -18.3190   21.9575 C   0  0  0  0  0  0  0  0  0  0  0  0
   10.7099  -19.5973   21.3110 C   0  0  0  0  0  0  0  0  0  0  0  0
    9.9253  -19.7320   20.1847 C   0  0  0  0  0  0  0  0  0  0  0  0
    9.7947  -21.0512   19.9123 N   0  0  0  0  0  0  0  0  0  0  0  0
   10.4706  -21.7342   20.8303 C   0  0  0  0  0  0  0  0  0  0  0  0
   11.0231  -20.8532   21.6749 N   0  0  0  0  0  0  0  0  0  0  0  0
   10.2414  -16.1094   22.3793 C   0  0  0  0  0  0  0  0  0  0  0  0
   11.1525  -15.2956   22.6155 O   0  0  0  0  0  0  0  0  0  0  0  0
    9.0060  -16.1502   23.0366 N   0  0  0  0  0  0  0  0  0  0  0  0
    8.7518  -15.1847   24.1143 C   0  0  1  0  0  0  0  0  0  0  0  0
    7.3286  -14.6743   24.0101 C   0  0  0  0  0  0  0  0  0  0  0  0
    6.9955  -13.7134   25.0695 C   0  0  0  0  0  0  0  0  0  0  0  0
    6.1907  -14.1121   26.1370 C   0  0  0  0  0  0  0  0  0  0  0  0
    5.8465  -13.2333   27.1577 C   0  0  0  0  0  0  0  0  0  0  0  0
    6.3044  -11.9353   27.1264 C   0  0  0  0  0  0  0  0  0  0  0  0
    7.0941  -11.5238   26.0898 C   0  0  0  0  0  0  0  0  0  0  0  0
    7.4275  -12.4126   25.0807 C   0  0  0  0  0  0  0  0  0  0  0  0
    9.0827  -15.7463   25.4379 C   0  0  0  0  0  0  0  0  0  0  0  0
    8.6562  -16.9386   25.6354 O   0  0  0  0  0  0  0  0  0  0  0  0
    9.8144  -15.0669   26.4508 N   0  0  0  0  0  0  0  0  0  0  0  0
   10.1325  -13.6788   26.4690 C   0  0  0  0  0  0  0  0  0  0  0  0
   10.0810  -13.4111   27.9870 C   0  0  0  0  0  0  0  0  0  0  0  0
   10.8493  -14.6380   28.5136 C   0  0  0  0  0  0  0  0  0  0  0  0
   10.4144  -15.7187   27.5722 C   0  0  1  0  0  0  0  0  0  0  0  0
    9.4764  -16.6618   28.2420 C   0  0  0  0  0  0  0  0  0  0  0  0
    8.1554  -16.6842   27.8755 O   0  0  0  0  0  0  0  0  0  0  0  0
    9.8980  -17.4192   29.1260 O   0  0  0  0  0  0  0  0  0  0  0  0
  2  1  1  6
  3  2  1  0
  4  5  2  0
  4  3  1  0
  6  5  1  0
  7  8  2  0
  7  6  1  0
  8  4  1  0
  9  2  1  0
 10  9  2  0
 11  9  1  0
 12 11  1  0
 12 13  1  1
 13 14  1  0
 14 19  1  0
 14 15  2  0
 15 16  1  0
 16 17  2  0
 18 17  1  0
 19 18  2  0
 20 12  1  0
 21 20  2  0
 22 20  1  0
 22 26  1  0
 23 24  1  0
 23 22  1  0
 24 25  1  0
 25 26  1  0
 27 28  1  0
 26 27  1  1
 29 27  2  0
M  END
$$$$
