IHY.pdb
     RDKit          3D

 31 32  0  0  1  0  0  0  0  0999 V2000
    9.2214  -12.3495   19.4139 C   0  0  0  0  0  0  0  0  0  0  0  0
    8.9340  -13.1860   20.6132 C   0  0  0  0  0  0  0  0  0  0  0  0
    7.6203  -13.9172   20.5775 C   0  0  2  0  0  0  0  0  0  0  0  0
    6.5334  -12.8797   20.4134 C   0  0  0  0  0  0  0  0  0  0  0  0
    7.4475  -14.7562   21.7969 C   0  0  2  0  0  0  0  0  0  0  0  0
    7.5778  -13.9114   22.9669 N   0  0  0  0  0  0  0  0  0  0  0  0
    8.3804  -15.8976   21.8554 C   0  0  0  0  0  0  0  0  0  0  0  0
    8.4552  -16.7939   21.0011 O   0  0  0  0  0  0  0  0  0  0  0  0
    9.2791  -16.0102   22.9655 N   0  0  0  0  0  0  0  0  0  0  0  0
   10.2411  -17.0734   23.0574 C   0  0  1  0  0  0  0  0  0  0  0  0
   11.0228  -17.3960   21.8701 C   0  0  0  0  0  0  0  0  0  0  0  0
   12.0627  -18.4086   21.9168 C   0  0  0  0  0  0  0  0  0  0  0  0
   13.3402  -18.4518   22.3737 C   0  0  0  0  0  0  0  0  0  0  0  0
   13.8570  -19.6709   22.1789 N   0  0  0  0  0  0  0  0  0  0  0  0
   12.8905  -20.3940   21.5950 C   0  0  0  0  0  0  0  0  0  0  0  0
   11.7956  -19.6645   21.4223 N   0  0  0  0  0  0  0  0  0  0  0  0
   11.0479  -16.9042   24.3030 C   0  0  0  0  0  0  0  0  0  0  0  0
   11.9537  -17.7794   24.4914 O   0  0  0  0  0  0  0  0  0  0  0  0
    6.4403  -10.7673   26.6532 O   0  0  0  0  0  0  0  0  0  0  0  0
    6.9750  -12.0417   26.4873 C   0  0  0  0  0  0  0  0  0  0  0  0
    8.3170  -12.3041   26.6014 C   0  0  0  0  0  0  0  0  0  0  0  0
    8.8436  -13.5593   26.4380 C   0  0  0  0  0  0  0  0  0  0  0  0
    8.0240  -14.6260   26.1464 C   0  0  0  0  0  0  0  0  0  0  0  0
    8.5193  -15.9986   25.9484 C   0  0  0  0  0  0  0  0  0  0  0  0
    9.9679  -16.0745   26.3543 C   0  0  2  0  0  0  0  0  0  0  0  0
   10.8398  -15.8585   25.2192 N   0  0  0  0  0  0  0  0  0  0  0  0
   10.3045  -17.3906   26.9413 C   0  0  0  0  0  0  0  0  0  0  0  0
   10.5138  -17.4805   28.3326 O   0  0  0  0  0  0  0  0  0  0  0  0
    6.6567  -14.3636   26.0294 C   0  0  0  0  0  0  0  0  0  0  0  0
    6.1474  -13.1019   26.1962 C   0  0  0  0  0  0  0  0  0  0  0  0
   10.4249  -18.4624   26.3035 O   0  0  0  0  0  0  0  0  0  0  0  0
  2  1  1  0
  2  3  1  0
  3  4  1  1
  5  3  1  0
  5  6  1  1
  7  8  2  0
  7  5  1  0
  9  7  1  0
 10  9  1  0
 10 11  1  6
 12 11  1  0
 13 12  2  0
 14 15  1  0
 14 13  1  0
 15 16  2  0
 16 12  1  0
 17 10  1  0
 17 18  2  0
 19 20  1  0
 20 21  2  0
 21 22  1  0
 23 24  1  0
 23 22  2  0
 25 26  1  0
 25 24  1  6
 26 17  1  0
 27 25  1  0
 28 27  1  0
 29 23  1  0
 30 29  2  0
 30 20  1  0
 31 27  2  0
M  END
$$$$
