IHY.pdb
     RDKit          3D

 31 32  0  0  1  0  0  0  0  0999 V2000
    5.6647  -11.1253   26.1815 C   0  0  0  0  0  0  0  0  0  0  0  0
    5.3971  -12.5397   25.7959 C   0  0  0  0  0  0  0  0  0  0  0  0
    6.5948  -13.2989   25.2950 C   0  0  2  0  0  0  0  0  0  0  0  0
    7.2137  -12.4799   24.1857 C   0  0  0  0  0  0  0  0  0  0  0  0
    6.2089  -14.6716   24.8621 C   0  0  2  0  0  0  0  0  0  0  0  0
    5.6253  -15.3697   25.9897 N   0  0  0  0  0  0  0  0  0  0  0  0
    7.3296  -15.4360   24.2823 C   0  0  0  0  0  0  0  0  0  0  0  0
    8.0632  -16.2077   24.9188 O   0  0  0  0  0  0  0  0  0  0  0  0
    7.6199  -15.3011   22.8857 N   0  0  0  0  0  0  0  0  0  0  0  0
    8.6272  -16.0967   22.2404 C   0  0  1  0  0  0  0  0  0  0  0  0
    8.4846  -16.3593   20.8137 C   0  0  0  0  0  0  0  0  0  0  0  0
    9.4448  -17.1920   20.1111 C   0  0  0  0  0  0  0  0  0  0  0  0
    9.6832  -18.5261   20.0344 C   0  0  0  0  0  0  0  0  0  0  0  0
   10.7069  -18.7632   19.2056 N   0  0  0  0  0  0  0  0  0  0  0  0
   11.1096  -17.5637   18.7616 C   0  0  0  0  0  0  0  0  0  0  0  0
   10.3708  -16.5947   19.2870 N   0  0  0  0  0  0  0  0  0  0  0  0
    9.9790  -15.6093   22.6484 C   0  0  0  0  0  0  0  0  0  0  0  0
   10.1974  -14.3706   22.4485 O   0  0  0  0  0  0  0  0  0  0  0  0
   11.5016  -15.2871   30.8619 O   0  0  0  0  0  0  0  0  0  0  0  0
   11.1465  -15.5689   29.5459 C   0  0  0  0  0  0  0  0  0  0  0  0
   11.0420  -16.8490   29.0632 C   0  0  0  0  0  0  0  0  0  0  0  0
   10.6921  -17.1265   27.7669 C   0  0  0  0  0  0  0  0  0  0  0  0
   10.4274  -16.1051   26.8830 C   0  0  0  0  0  0  0  0  0  0  0  0
   10.0555  -16.3270   25.4756 C   0  0  0  0  0  0  0  0  0  0  0  0
   11.2922  -16.2912   24.6164 C   0  0  2  0  0  0  0  0  0  0  0  0
   10.9589  -16.4422   23.2158 N   0  0  0  0  0  0  0  0  0  0  0  0
   12.2410  -17.3684   24.9760 C   0  0  0  0  0  0  0  0  0  0  0  0
   13.3915  -17.0396   25.7215 O   0  0  0  0  0  0  0  0  0  0  0  0
   10.5323  -14.7998   27.3702 C   0  0  0  0  0  0  0  0  0  0  0  0
   10.8833  -14.5409   28.6697 C   0  0  0  0  0  0  0  0  0  0  0  0
   12.1172  -18.5780   24.6733 O   0  0  0  0  0  0  0  0  0  0  0  0
  2  1  1  0
  2  3  1  0
  3  4  1  6
  5  3  1  0
  5  6  1  1
  7  8  2  0
  7  5  1  0
  9  7  1  0
 10  9  1  0
 10 11  1  6
 12 11  1  0
 13 12  2  0
 14 15  1  0
 14 13  1  0
 15 16  2  0
 16 12  1  0
 17 10  1  0
 17 18  2  0
 19 20  1  0
 20 21  2  0
 21 22  1  0
 23 24  1  0
 23 22  2  0
 25 26  1  0
 25 24  1  1
 26 17  1  0
 27 25  1  0
 28 27  1  0
 29 23  1  0
 30 29  2  0
 30 20  1  0
 31 27  2  0
M  END
$$$$
