IHY.pdb
     RDKit          3D

 31 32  0  0  1  0  0  0  0  0999 V2000
    7.5228  -11.7977   18.9337 C   0  0  0  0  0  0  0  0  0  0  0  0
    8.0641  -13.1136   18.4908 C   0  0  0  0  0  0  0  0  0  0  0  0
    8.3412  -14.0918   19.5990 C   0  0  2  0  0  0  0  0  0  0  0  0
    9.2848  -13.4171   20.5680 C   0  0  0  0  0  0  0  0  0  0  0  0
    8.8787  -15.3706   19.0549 C   0  0  2  0  0  0  0  0  0  0  0  0
    7.9422  -15.8935   18.0807 N   0  0  0  0  0  0  0  0  0  0  0  0
    9.1760  -16.3689   20.0997 C   0  0  0  0  0  0  0  0  0  0  0  0
    8.3311  -16.8779   20.8519 O   0  0  0  0  0  0  0  0  0  0  0  0
   10.5281  -16.8046   20.2863 N   0  0  0  0  0  0  0  0  0  0  0  0
   10.8816  -17.7715   21.2884 C   0  0  1  0  0  0  0  0  0  0  0  0
   11.8926  -18.7672   20.9549 C   0  0  0  0  0  0  0  0  0  0  0  0
   11.6491  -19.7569   19.9205 C   0  0  0  0  0  0  0  0  0  0  0  0
   10.5926  -20.5300   19.5617 C   0  0  0  0  0  0  0  0  0  0  0  0
   10.9088  -21.2743   18.4953 N   0  0  0  0  0  0  0  0  0  0  0  0
   12.1755  -20.9607   18.1871 C   0  0  0  0  0  0  0  0  0  0  0  0
   12.6524  -20.0494   19.0255 N   0  0  0  0  0  0  0  0  0  0  0  0
   11.1040  -17.0752   22.5910 C   0  0  0  0  0  0  0  0  0  0  0  0
   11.9572  -16.1300   22.5676 O   0  0  0  0  0  0  0  0  0  0  0  0
   10.4259  -13.9244   30.6427 O   0  0  0  0  0  0  0  0  0  0  0  0
   10.2065  -14.3500   29.3358 C   0  0  0  0  0  0  0  0  0  0  0  0
    9.3592  -13.6983   28.4754 C   0  0  0  0  0  0  0  0  0  0  0  0
    9.1431  -14.1176   27.1881 C   0  0  0  0  0  0  0  0  0  0  0  0
    9.7841  -15.2346   26.7024 C   0  0  0  0  0  0  0  0  0  0  0  0
    9.5939  -15.7483   25.3356 C   0  0  0  0  0  0  0  0  0  0  0  0
   10.7154  -16.6934   24.9923 C   0  0  2  0  0  0  0  0  0  0  0  0
   10.4294  -17.4219   23.7745 N   0  0  0  0  0  0  0  0  0  0  0  0
   10.9483  -17.6819   26.0686 C   0  0  0  0  0  0  0  0  0  0  0  0
   11.9933  -17.4531   26.9868 O   0  0  0  0  0  0  0  0  0  0  0  0
   10.6480  -15.9014   27.5749 C   0  0  0  0  0  0  0  0  0  0  0  0
   10.8523  -15.4678   28.8592 C   0  0  0  0  0  0  0  0  0  0  0  0
   10.2881  -18.7317   26.2476 O   0  0  0  0  0  0  0  0  0  0  0  0
  2  1  1  0
  2  3  1  0
  3  4  1  1
  5  3  1  0
  5  6  1  6
  7  8  2  0
  7  5  1  0
  9  7  1  0
 10  9  1  0
 10 11  1  6
 12 11  1  0
 13 12  2  0
 14 15  1  0
 14 13  1  0
 15 16  2  0
 16 12  1  0
 17 10  1  0
 17 18  2  0
 19 20  1  0
 20 21  2  0
 21 22  1  0
 23 24  1  0
 23 22  2  0
 25 26  1  0
 25 24  1  1
 26 17  1  0
 27 25  1  0
 28 27  1  0
 29 23  1  0
 30 29  2  0
 30 20  1  0
 31 27  2  0
M  END
$$$$
