IHY.pdb
     RDKit          3D

 31 32  0  0  1  0  0  0  0  0999 V2000
    6.5052  -11.7114   26.9887 C   0  0  0  0  0  0  0  0  0  0  0  0
    6.1273  -12.9480   26.2479 C   0  0  0  0  0  0  0  0  0  0  0  0
    7.2827  -13.7309   25.6879 C   0  0  2  0  0  0  0  0  0  0  0  0
    8.0703  -12.7956   24.7995 C   0  0  0  0  0  0  0  0  0  0  0  0
    6.8021  -14.9477   24.9745 C   0  0  2  0  0  0  0  0  0  0  0  0
    5.9124  -15.6819   25.8514 N   0  0  0  0  0  0  0  0  0  0  0  0
    7.8972  -15.8061   24.4841 C   0  0  0  0  0  0  0  0  0  0  0  0
    8.3302  -16.8067   25.0758 O   0  0  0  0  0  0  0  0  0  0  0  0
    8.5291  -15.4900   23.2376 N   0  0  0  0  0  0  0  0  0  0  0  0
    9.5181  -16.3502   22.6494 C   0  0  1  0  0  0  0  0  0  0  0  0
    9.4779  -16.5562   21.2069 C   0  0  0  0  0  0  0  0  0  0  0  0
    8.2969  -17.1084   20.5671 C   0  0  0  0  0  0  0  0  0  0  0  0
    7.1683  -17.7238   21.0032 C   0  0  0  0  0  0  0  0  0  0  0  0
    6.3774  -18.0223   19.9657 N   0  0  0  0  0  0  0  0  0  0  0  0
    7.0204  -17.5875   18.8724 C   0  0  0  0  0  0  0  0  0  0  0  0
    8.1804  -17.0314   19.1982 N   0  0  0  0  0  0  0  0  0  0  0  0
   10.8656  -15.9947   23.1870 C   0  0  0  0  0  0  0  0  0  0  0  0
   11.4012  -14.9570   22.6787 O   0  0  0  0  0  0  0  0  0  0  0  0
    9.6873  -16.4484   30.2994 O   0  0  0  0  0  0  0  0  0  0  0  0
   10.4029  -16.1311   29.1485 C   0  0  0  0  0  0  0  0  0  0  0  0
   11.3562  -16.9611   28.6147 C   0  0  0  0  0  0  0  0  0  0  0  0
   12.0610  -16.6484   27.4810 C   0  0  0  0  0  0  0  0  0  0  0  0
   11.8311  -15.4615   26.8231 C   0  0  0  0  0  0  0  0  0  0  0  0
   12.5554  -15.0552   25.6070 C   0  0  0  0  0  0  0  0  0  0  0  0
   12.7710  -16.2565   24.7243 C   0  0  2  0  0  0  0  0  0  0  0  0
   11.5174  -16.7395   24.1852 N   0  0  0  0  0  0  0  0  0  0  0  0
   13.4077  -17.3709   25.4610 C   0  0  0  0  0  0  0  0  0  0  0  0
   12.7189  -18.5963   25.5676 O   0  0  0  0  0  0  0  0  0  0  0  0
   10.8610  -14.6131   27.3629 C   0  0  0  0  0  0  0  0  0  0  0  0
   10.1656  -14.9421   28.4974 C   0  0  0  0  0  0  0  0  0  0  0  0
   14.5311  -17.3293   26.0146 O   0  0  0  0  0  0  0  0  0  0  0  0
  2  1  1  0
  2  3  1  0
  3  4  1  6
  5  3  1  0
  5  6  1  1
  7  8  2  0
  7  5  1  0
  9  7  1  0
 10  9  1  0
 10 11  1  6
 12 11  1  0
 13 12  2  0
 14 15  1  0
 14 13  1  0
 15 16  2  0
 16 12  1  0
 17 10  1  0
 17 18  2  0
 19 20  1  0
 20 21  2  0
 21 22  1  0
 23 24  1  0
 23 22  2  0
 25 26  1  0
 25 24  1  1
 26 17  1  0
 27 25  1  0
 28 27  1  0
 29 23  1  0
 30 29  2  0
 30 20  1  0
 31 27  2  0
M  END
$$$$
