IHY.pdb
     RDKit          3D

 31 32  0  0  1  0  0  0  0  0999 V2000
    7.7261  -12.8747   17.2701 C   0  0  0  0  0  0  0  0  0  0  0  0
    8.6613  -13.7920   17.9806 C   0  0  0  0  0  0  0  0  0  0  0  0
    8.2404  -14.1745   19.3728 C   0  0  2  0  0  0  0  0  0  0  0  0
    8.2336  -12.9112   20.2027 C   0  0  0  0  0  0  0  0  0  0  0  0
    9.1341  -15.2313   19.9250 C   0  0  2  0  0  0  0  0  0  0  0  0
    9.1597  -16.3491   19.0034 N   0  0  0  0  0  0  0  0  0  0  0  0
    8.7522  -15.6663   21.2821 C   0  0  0  0  0  0  0  0  0  0  0  0
    8.5889  -14.9058   22.2484 O   0  0  0  0  0  0  0  0  0  0  0  0
    8.5472  -17.0611   21.5377 N   0  0  0  0  0  0  0  0  0  0  0  0
    8.1822  -17.5477   22.8393 C   0  0  1  0  0  0  0  0  0  0  0  0
    7.8033  -18.9495   22.9665 C   0  0  0  0  0  0  0  0  0  0  0  0
    7.6161  -19.5537   24.2737 C   0  0  0  0  0  0  0  0  0  0  0  0
    8.4320  -20.1450   25.1833 C   0  0  0  0  0  0  0  0  0  0  0  0
    7.7271  -20.5211   26.2569 N   0  0  0  0  0  0  0  0  0  0  0  0
    6.4591  -20.1596   26.0130 C   0  0  0  0  0  0  0  0  0  0  0  0
    6.3564  -19.5738   24.8268 N   0  0  0  0  0  0  0  0  0  0  0  0
    9.1893  -17.0850   23.8407 C   0  0  0  0  0  0  0  0  0  0  0  0
   10.4034  -17.1362   23.4596 O   0  0  0  0  0  0  0  0  0  0  0  0
    4.9327  -12.6276   27.0759 O   0  0  0  0  0  0  0  0  0  0  0  0
    6.2052  -13.1664   26.9093 C   0  0  0  0  0  0  0  0  0  0  0  0
    7.3502  -12.4726   27.2098 C   0  0  0  0  0  0  0  0  0  0  0  0
    8.6035  -13.0034   27.0456 C   0  0  0  0  0  0  0  0  0  0  0  0
    8.7605  -14.2823   26.5614 C   0  0  0  0  0  0  0  0  0  0  0  0
   10.0739  -14.9138   26.3505 C   0  0  0  0  0  0  0  0  0  0  0  0
    9.8893  -16.3868   26.0957 C   0  0  2  0  0  0  0  0  0  0  0  0
    8.8442  -16.6208   25.1219 N   0  0  0  0  0  0  0  0  0  0  0  0
    9.5295  -17.1161   27.3320 C   0  0  0  0  0  0  0  0  0  0  0  0
   10.4509  -17.1412   28.3988 O   0  0  0  0  0  0  0  0  0  0  0  0
    7.5973  -14.9927   26.2542 C   0  0  0  0  0  0  0  0  0  0  0  0
    6.3518  -14.4461   26.4249 C   0  0  0  0  0  0  0  0  0  0  0  0
    8.4552  -17.7307   27.5277 O   0  0  0  0  0  0  0  0  0  0  0  0
  2  1  1  0
  2  3  1  0
  3  4  1  1
  5  3  1  0
  5  6  1  6
  7  8  2  0
  7  5  1  0
  9  7  1  0
 10  9  1  0
 10 11  1  6
 12 11  1  0
 13 12  2  0
 14 15  1  0
 14 13  1  0
 15 16  2  0
 16 12  1  0
 17 10  1  0
 17 18  2  0
 19 20  1  0
 20 21  2  0
 21 22  1  0
 23 24  1  0
 23 22  2  0
 25 26  1  0
 25 24  1  1
 26 17  1  0
 27 25  1  0
 28 27  1  0
 29 23  1  0
 30 29  2  0
 30 20  1  0
 31 27  2  0
M  END
$$$$
