IHY.pdb
     RDKit          3D

 31 32  0  0  1  0  0  0  0  0999 V2000
    7.8518  -11.8147   18.2737 C   0  0  0  0  0  0  0  0  0  0  0  0
    8.4725  -13.1402   17.9932 C   0  0  0  0  0  0  0  0  0  0  0  0
    8.3946  -14.1297   19.1230 C   0  0  2  0  0  0  0  0  0  0  0  0
    9.0842  -13.5058   20.3145 C   0  0  0  0  0  0  0  0  0  0  0  0
    8.9872  -15.4374   18.7238 C   0  0  2  0  0  0  0  0  0  0  0  0
    8.2517  -15.9557   17.5881 N   0  0  0  0  0  0  0  0  0  0  0  0
    9.0300  -16.4179   19.8253 C   0  0  0  0  0  0  0  0  0  0  0  0
    8.4625  -17.5209   19.8123 O   0  0  0  0  0  0  0  0  0  0  0  0
    9.7717  -16.1061   21.0109 N   0  0  0  0  0  0  0  0  0  0  0  0
    9.9845  -17.0762   22.0490 C   0  0  1  0  0  0  0  0  0  0  0  0
   10.3899  -18.4209   21.6591 C   0  0  0  0  0  0  0  0  0  0  0  0
   10.5946  -19.4550   22.6579 C   0  0  0  0  0  0  0  0  0  0  0  0
    9.8391  -19.9970   23.6469 C   0  0  0  0  0  0  0  0  0  0  0  0
   10.5267  -20.9568   24.2771 N   0  0  0  0  0  0  0  0  0  0  0  0
   11.7227  -21.0129   23.6734 C   0  0  0  0  0  0  0  0  0  0  0  0
   11.7977  -20.1218   22.6931 N   0  0  0  0  0  0  0  0  0  0  0  0
   10.8152  -16.4681   23.1314 C   0  0  0  0  0  0  0  0  0  0  0  0
   11.6895  -15.6274   22.7432 O   0  0  0  0  0  0  0  0  0  0  0  0
    5.5461  -12.0207   27.9072 O   0  0  0  0  0  0  0  0  0  0  0  0
    6.3160  -12.8548   27.1017 C   0  0  0  0  0  0  0  0  0  0  0  0
    7.5526  -12.4949   26.6285 C   0  0  0  0  0  0  0  0  0  0  0  0
    8.3109  -13.3166   25.8350 C   0  0  0  0  0  0  0  0  0  0  0  0
    7.8461  -14.5617   25.4766 C   0  0  0  0  0  0  0  0  0  0  0  0
    8.6002  -15.4930   24.6209 C   0  0  0  0  0  0  0  0  0  0  0  0
    9.8541  -15.9282   25.3330 C   0  0  2  0  0  0  0  0  0  0  0  0
   10.6606  -16.7868   24.4917 N   0  0  0  0  0  0  0  0  0  0  0  0
    9.5490  -16.6688   26.5773 C   0  0  0  0  0  0  0  0  0  0  0  0
    9.0475  -17.9828   26.4804 O   0  0  0  0  0  0  0  0  0  0  0  0
    6.5874  -14.9325   25.9563 C   0  0  0  0  0  0  0  0  0  0  0  0
    5.8429  -14.0980   26.7490 C   0  0  0  0  0  0  0  0  0  0  0  0
    9.6972  -16.2285   27.7411 O   0  0  0  0  0  0  0  0  0  0  0  0
  2  1  1  0
  2  3  1  0
  3  4  1  1
  5  3  1  0
  5  6  1  6
  7  8  2  0
  7  5  1  0
  9  7  1  0
 10  9  1  0
 10 11  1  6
 12 11  1  0
 13 12  2  0
 14 15  1  0
 14 13  1  0
 15 16  2  0
 16 12  1  0
 17 10  1  0
 17 18  2  0
 19 20  1  0
 20 21  2  0
 21 22  1  0
 23 24  1  0
 23 22  2  0
 25 26  1  0
 25 24  1  6
 26 17  1  0
 27 25  1  0
 28 27  1  0
 29 23  1  0
 30 29  2  0
 30 20  1  0
 31 27  2  0
M  END
$$$$
