IHY.pdb
     RDKit          3D

 31 32  0  0  1  0  0  0  0  0999 V2000
    7.3809  -11.3725   20.3309 C   0  0  0  0  0  0  0  0  0  0  0  0
    7.4853  -12.7995   19.9145 C   0  0  0  0  0  0  0  0  0  0  0  0
    7.6304  -13.7816   21.0442 C   0  0  2  0  0  0  0  0  0  0  0  0
    8.8735  -13.3994   21.8144 C   0  0  0  0  0  0  0  0  0  0  0  0
    7.6691  -15.1795   20.5293 C   0  0  2  0  0  0  0  0  0  0  0  0
    6.4397  -15.4460   19.8102 N   0  0  0  0  0  0  0  0  0  0  0  0
    7.8984  -16.1832   21.5859 C   0  0  0  0  0  0  0  0  0  0  0  0
    7.0121  -16.6643   22.3083 O   0  0  0  0  0  0  0  0  0  0  0  0
    9.2292  -16.6589   21.8219 N   0  0  0  0  0  0  0  0  0  0  0  0
    9.5145  -17.6464   22.8256 C   0  0  1  0  0  0  0  0  0  0  0  0
   10.4435  -18.7181   22.4894 C   0  0  0  0  0  0  0  0  0  0  0  0
   10.7911  -19.7349   23.4663 C   0  0  0  0  0  0  0  0  0  0  0  0
   10.4606  -19.9747   24.7608 C   0  0  0  0  0  0  0  0  0  0  0  0
   11.0657  -21.0882   25.1910 N   0  0  0  0  0  0  0  0  0  0  0  0
   11.7801  -21.5464   24.1528 C   0  0  0  0  0  0  0  0  0  0  0  0
   11.6374  -20.7551   23.0972 N   0  0  0  0  0  0  0  0  0  0  0  0
    9.7992  -16.9644   24.1237 C   0  0  0  0  0  0  0  0  0  0  0  0
   10.7634  -16.1326   24.1049 O   0  0  0  0  0  0  0  0  0  0  0  0
    6.6283  -11.1500   24.8322 O   0  0  0  0  0  0  0  0  0  0  0  0
    7.0082  -12.3551   25.4160 C   0  0  0  0  0  0  0  0  0  0  0  0
    6.2712  -13.5057   25.2902 C   0  0  0  0  0  0  0  0  0  0  0  0
    6.6456  -14.6926   25.8653 C   0  0  0  0  0  0  0  0  0  0  0  0
    7.8021  -14.7729   26.6074 C   0  0  0  0  0  0  0  0  0  0  0  0
    8.2615  -16.0098   27.2611 C   0  0  0  0  0  0  0  0  0  0  0  0
    9.4601  -16.5519   26.5273 C   0  0  2  0  0  0  0  0  0  0  0  0
    9.0666  -17.2080   25.2984 N   0  0  0  0  0  0  0  0  0  0  0  0
   10.2070  -17.5323   27.3463 C   0  0  0  0  0  0  0  0  0  0  0  0
   10.5193  -18.7879   26.7863 O   0  0  0  0  0  0  0  0  0  0  0  0
    8.5559  -13.6038   26.7380 C   0  0  0  0  0  0  0  0  0  0  0  0
    8.1664  -12.4255   26.1558 C   0  0  0  0  0  0  0  0  0  0  0  0
   10.5995  -17.3493   28.5222 O   0  0  0  0  0  0  0  0  0  0  0  0
  2  1  1  0
  2  3  1  0
  3  4  1  6
  5  3  1  0
  5  6  1  1
  7  8  2  0
  7  5  1  0
  9  7  1  0
 10  9  1  0
 10 11  1  6
 12 11  1  0
 13 12  2  0
 14 15  1  0
 14 13  1  0
 15 16  2  0
 16 12  1  0
 17 10  1  0
 17 18  2  0
 19 20  1  0
 20 21  2  0
 21 22  1  0
 23 24  1  0
 23 22  2  0
 25 26  1  0
 25 24  1  1
 26 17  1  0
 27 25  1  0
 28 27  1  0
 29 23  1  0
 30 29  2  0
 30 20  1  0
 31 27  2  0
M  END
$$$$
