IHY.pdb
     RDKit          3D

 31 32  0  0  1  0  0  0  0  0999 V2000
    7.2882  -12.2571   20.5534 C   0  0  0  0  0  0  0  0  0  0  0  0
    7.4665  -13.6232   19.9855 C   0  0  0  0  0  0  0  0  0  0  0  0
    8.6097  -13.7649   19.0186 C   0  0  2  0  0  0  0  0  0  0  0  0
    8.4045  -12.7395   17.9273 C   0  0  0  0  0  0  0  0  0  0  0  0
    8.6961  -15.1595   18.5009 C   0  0  2  0  0  0  0  0  0  0  0  0
    7.4706  -15.4714   17.7935 N   0  0  0  0  0  0  0  0  0  0  0  0
    8.9738  -16.1553   19.5534 C   0  0  0  0  0  0  0  0  0  0  0  0
    8.1120  -16.8458   20.1184 O   0  0  0  0  0  0  0  0  0  0  0  0
   10.3260  -16.3657   19.9781 N   0  0  0  0  0  0  0  0  0  0  0  0
   10.6608  -17.3230   20.9957 C   0  0  1  0  0  0  0  0  0  0  0  0
   11.6724  -18.3263   20.6878 C   0  0  0  0  0  0  0  0  0  0  0  0
   11.3612  -19.4583   19.8329 C   0  0  0  0  0  0  0  0  0  0  0  0
   10.3393  -20.3481   19.7529 C   0  0  0  0  0  0  0  0  0  0  0  0
   10.5495  -21.1999   18.7423 N   0  0  0  0  0  0  0  0  0  0  0  0
   11.7146  -20.8359   18.1873 C   0  0  0  0  0  0  0  0  0  0  0  0
   12.2310  -19.7898   18.8195 N   0  0  0  0  0  0  0  0  0  0  0  0
   10.8673  -16.6133   22.2937 C   0  0  0  0  0  0  0  0  0  0  0  0
   11.7805  -15.7257   22.2929 O   0  0  0  0  0  0  0  0  0  0  0  0
   10.9272  -13.9793   30.5899 O   0  0  0  0  0  0  0  0  0  0  0  0
   10.5406  -14.5825   29.3967 C   0  0  0  0  0  0  0  0  0  0  0  0
   10.7295  -15.9181   29.1449 C   0  0  0  0  0  0  0  0  0  0  0  0
   10.3487  -16.5122   27.9695 C   0  0  0  0  0  0  0  0  0  0  0  0
    9.7492  -15.7710   26.9766 C   0  0  0  0  0  0  0  0  0  0  0  0
    9.3228  -16.3387   25.6865 C   0  0  0  0  0  0  0  0  0  0  0  0
   10.4380  -16.2025   24.6832 C   0  0  2  0  0  0  0  0  0  0  0  0
   10.1171  -16.8893   23.4500 N   0  0  0  0  0  0  0  0  0  0  0  0
   11.7085  -16.7611   25.1966 C   0  0  0  0  0  0  0  0  0  0  0  0
   11.8605  -18.1614   25.2557 O   0  0  0  0  0  0  0  0  0  0  0  0
    9.5546  -14.4106   27.2285 C   0  0  0  0  0  0  0  0  0  0  0  0
    9.9416  -13.8332   28.4100 C   0  0  0  0  0  0  0  0  0  0  0  0
   12.6896  -16.0910   25.5950 O   0  0  0  0  0  0  0  0  0  0  0  0
  2  1  1  0
  2  3  1  0
  3  4  1  6
  5  3  1  0
  5  6  1  1
  7  8  2  0
  7  5  1  0
  9  7  1  0
 10  9  1  0
 10 11  1  6
 12 11  1  0
 13 12  2  0
 14 15  1  0
 14 13  1  0
 15 16  2  0
 16 12  1  0
 17 10  1  0
 17 18  2  0
 19 20  1  0
 20 21  2  0
 21 22  1  0
 23 24  1  0
 23 22  2  0
 25 26  1  0
 25 24  1  1
 26 17  1  0
 27 25  1  0
 28 27  1  0
 29 23  1  0
 30 29  2  0
 30 20  1  0
 31 27  2  0
M  END
$$$$
