IHY.pdb
     RDKit          3D

 31 32  0  0  1  0  0  0  0  0999 V2000
    7.9965  -11.7206   19.7210 C   0  0  0  0  0  0  0  0  0  0  0  0
    8.0320  -13.1967   19.5197 C   0  0  0  0  0  0  0  0  0  0  0  0
    7.6023  -14.0103   20.7093 C   0  0  2  0  0  0  0  0  0  0  0  0
    8.5739  -13.7162   21.8290 C   0  0  0  0  0  0  0  0  0  0  0  0
    7.5308  -15.4580   20.3632 C   0  0  2  0  0  0  0  0  0  0  0  0
    6.6371  -15.6244   19.2348 N   0  0  0  0  0  0  0  0  0  0  0  0
    7.1232  -16.3086   21.4976 C   0  0  0  0  0  0  0  0  0  0  0  0
    5.9520  -16.4771   21.8698 O   0  0  0  0  0  0  0  0  0  0  0  0
    8.1273  -17.0052   22.2457 N   0  0  0  0  0  0  0  0  0  0  0  0
    7.7949  -17.8392   23.3673 C   0  0  1  0  0  0  0  0  0  0  0  0
    7.8945  -19.2839   23.2015 C   0  0  0  0  0  0  0  0  0  0  0  0
    7.6215  -20.1804   24.3109 C   0  0  0  0  0  0  0  0  0  0  0  0
    8.3447  -20.6682   25.3509 C   0  0  0  0  0  0  0  0  0  0  0  0
    7.5811  -21.4647   26.1082 N   0  0  0  0  0  0  0  0  0  0  0  0
    6.3697  -21.4723   25.5336 C   0  0  0  0  0  0  0  0  0  0  0  0
    6.3585  -20.7088   24.4483 N   0  0  0  0  0  0  0  0  0  0  0  0
    8.4634  -17.3088   24.5933 C   0  0  0  0  0  0  0  0  0  0  0  0
    9.6744  -16.9447   24.4422 O   0  0  0  0  0  0  0  0  0  0  0  0
    6.7837  -10.8555   24.9293 O   0  0  0  0  0  0  0  0  0  0  0  0
    6.9575  -12.0544   25.6146 C   0  0  0  0  0  0  0  0  0  0  0  0
    5.9418  -12.9587   25.7976 C   0  0  0  0  0  0  0  0  0  0  0  0
    6.1130  -14.1396   26.4726 C   0  0  0  0  0  0  0  0  0  0  0  0
    7.3401  -14.4669   27.0035 C   0  0  0  0  0  0  0  0  0  0  0  0
    7.5954  -15.7116   27.7478 C   0  0  0  0  0  0  0  0  0  0  0  0
    8.5174  -16.5956   26.9494 C   0  0  2  0  0  0  0  0  0  0  0  0
    7.8200  -17.2091   25.8391 N   0  0  0  0  0  0  0  0  0  0  0  0
    9.0928  -17.6782   27.7781 C   0  0  0  0  0  0  0  0  0  0  0  0
   10.1396  -17.3679   28.6700 O   0  0  0  0  0  0  0  0  0  0  0  0
    8.3774  -13.5492   26.8195 C   0  0  0  0  0  0  0  0  0  0  0  0
    8.1882  -12.3730   26.1415 C   0  0  0  0  0  0  0  0  0  0  0  0
    8.7295  -18.8773   27.7632 O   0  0  0  0  0  0  0  0  0  0  0  0
  2  1  1  0
  2  3  1  0
  3  4  1  1
  5  3  1  0
  5  6  1  6
  7  8  2  0
  7  5  1  0
  9  7  1  0
 10  9  1  0
 10 11  1  6
 12 11  1  0
 13 12  2  0
 14 15  1  0
 14 13  1  0
 15 16  2  0
 16 12  1  0
 17 10  1  0
 17 18  2  0
 19 20  1  0
 20 21  2  0
 21 22  1  0
 23 24  1  0
 23 22  2  0
 25 26  1  0
 25 24  1  1
 26 17  1  0
 27 25  1  0
 28 27  1  0
 29 23  1  0
 30 29  2  0
 30 20  1  0
 31 27  2  0
M  END
$$$$
