IHY.pdb
     RDKit          3D

 31 32  0  0  1  0  0  0  0  0999 V2000
    7.0431  -12.4166   16.8196 C   0  0  0  0  0  0  0  0  0  0  0  0
    8.1722  -13.1365   17.4734 C   0  0  0  0  0  0  0  0  0  0  0  0
    7.9739  -13.4357   18.9339 C   0  0  2  0  0  0  0  0  0  0  0  0
    7.8653  -12.1107   19.6529 C   0  0  0  0  0  0  0  0  0  0  0  0
    9.0760  -14.2936   19.4534 C   0  0  2  0  0  0  0  0  0  0  0  0
    9.6354  -15.0520   18.3528 N   0  0  0  0  0  0  0  0  0  0  0  0
    8.6540  -15.1810   20.5538 C   0  0  0  0  0  0  0  0  0  0  0  0
    8.0683  -14.8046   21.5805 O   0  0  0  0  0  0  0  0  0  0  0  0
    8.9243  -16.5851   20.4629 N   0  0  0  0  0  0  0  0  0  0  0  0
    8.6057  -17.4894   21.5330 C   0  0  1  0  0  0  0  0  0  0  0  0
    8.7282  -18.9200   21.2819 C   0  0  0  0  0  0  0  0  0  0  0  0
    8.4779  -19.8846   22.3383 C   0  0  0  0  0  0  0  0  0  0  0  0
    8.0405  -19.8109   23.6212 C   0  0  0  0  0  0  0  0  0  0  0  0
    7.9738  -21.0363   24.1551 N   0  0  0  0  0  0  0  0  0  0  0  0
    8.3737  -21.8815   23.1940 C   0  0  0  0  0  0  0  0  0  0  0  0
    8.6849  -21.2213   22.0859 N   0  0  0  0  0  0  0  0  0  0  0  0
    9.2662  -17.0221   22.7886 C   0  0  0  0  0  0  0  0  0  0  0  0
   10.5345  -16.9204   22.7346 O   0  0  0  0  0  0  0  0  0  0  0  0
   11.2586  -14.4589   30.8774 O   0  0  0  0  0  0  0  0  0  0  0  0
   10.5519  -14.7288   29.7091 C   0  0  0  0  0  0  0  0  0  0  0  0
   10.2935  -13.7721   28.7601 C   0  0  0  0  0  0  0  0  0  0  0  0
    9.5973  -14.0381   27.6094 C   0  0  0  0  0  0  0  0  0  0  0  0
    9.1216  -15.3054   27.3602 C   0  0  0  0  0  0  0  0  0  0  0  0
    8.3590  -15.6621   26.1521 C   0  0  0  0  0  0  0  0  0  0  0  0
    9.2851  -16.2760   25.1351 C   0  0  2  0  0  0  0  0  0  0  0  0
    8.5571  -16.7101   23.9616 N   0  0  0  0  0  0  0  0  0  0  0  0
   10.0023  -17.4483   25.6838 C   0  0  0  0  0  0  0  0  0  0  0  0
   11.3671  -17.3174   26.0122 O   0  0  0  0  0  0  0  0  0  0  0  0
    9.3826  -16.2831   28.3237 C   0  0  0  0  0  0  0  0  0  0  0  0
   10.0806  -15.9992   29.4688 C   0  0  0  0  0  0  0  0  0  0  0  0
    9.4998  -18.5775   25.8905 O   0  0  0  0  0  0  0  0  0  0  0  0
  2  1  1  0
  2  3  1  0
  3  4  1  1
  5  3  1  0
  5  6  1  6
  7  8  2  0
  7  5  1  0
  9  7  1  0
 10  9  1  0
 10 11  1  6
 12 11  1  0
 13 12  2  0
 14 15  1  0
 14 13  1  0
 15 16  2  0
 16 12  1  0
 17 10  1  0
 17 18  2  0
 19 20  1  0
 20 21  2  0
 21 22  1  0
 23 24  1  0
 23 22  2  0
 25 26  1  0
 25 24  1  1
 26 17  1  0
 27 25  1  0
 28 27  1  0
 29 23  1  0
 30 29  2  0
 30 20  1  0
 31 27  2  0
M  END
$$$$
