IHY.pdb
     RDKit          3D

 31 32  0  0  1  0  0  0  0  0999 V2000
    7.0907  -11.8840   19.9320 C   0  0  0  0  0  0  0  0  0  0  0  0
    7.4267  -13.2807   19.5357 C   0  0  0  0  0  0  0  0  0  0  0  0
    7.8963  -14.1639   20.6586 C   0  0  2  0  0  0  0  0  0  0  0  0
    9.1319  -13.5228   21.2474 C   0  0  0  0  0  0  0  0  0  0  0  0
    8.1330  -15.5538   20.1760 C   0  0  2  0  0  0  0  0  0  0  0  0
    6.9115  -16.0547   19.5788 N   0  0  0  0  0  0  0  0  0  0  0  0
    8.6230  -16.4611   21.2310 C   0  0  0  0  0  0  0  0  0  0  0  0
    7.9475  -17.3535   21.7660 O   0  0  0  0  0  0  0  0  0  0  0  0
    9.9722  -16.3300   21.6952 N   0  0  0  0  0  0  0  0  0  0  0  0
   10.6148  -17.3629   22.4596 C   0  0  1  0  0  0  0  0  0  0  0  0
   11.7247  -18.0812   21.8458 C   0  0  0  0  0  0  0  0  0  0  0  0
   11.6674  -18.4891   20.4533 C   0  0  0  0  0  0  0  0  0  0  0  0
   12.2322  -18.0486   19.3002 C   0  0  0  0  0  0  0  0  0  0  0  0
   11.8447  -18.8174   18.2756 N   0  0  0  0  0  0  0  0  0  0  0  0
   11.0303  -19.7464   18.7967 C   0  0  0  0  0  0  0  0  0  0  0  0
   10.9014  -19.5783   20.1067 N   0  0  0  0  0  0  0  0  0  0  0  0
   10.8899  -16.8591   23.8387 C   0  0  0  0  0  0  0  0  0  0  0  0
   11.6980  -17.5626   24.5271 O   0  0  0  0  0  0  0  0  0  0  0  0
    5.9640  -10.5059   26.1997 O   0  0  0  0  0  0  0  0  0  0  0  0
    6.4957  -11.7698   25.9606 C   0  0  0  0  0  0  0  0  0  0  0  0
    7.8385  -11.9886   25.7826 C   0  0  0  0  0  0  0  0  0  0  0  0
    8.3621  -13.2336   25.5471 C   0  0  0  0  0  0  0  0  0  0  0  0
    7.5384  -14.3343   25.4791 C   0  0  0  0  0  0  0  0  0  0  0  0
    8.0283  -15.6987   25.2207 C   0  0  0  0  0  0  0  0  0  0  0  0
    9.4945  -15.7792   25.5560 C   0  0  2  0  0  0  0  0  0  0  0  0
   10.3083  -15.6913   24.3621 N   0  0  0  0  0  0  0  0  0  0  0  0
    9.8311  -17.0461   26.2427 C   0  0  0  0  0  0  0  0  0  0  0  0
   10.3031  -18.1304   25.4751 O   0  0  0  0  0  0  0  0  0  0  0  0
    6.1702  -14.1163   25.6599 C   0  0  0  0  0  0  0  0  0  0  0  0
    5.6640  -12.8642   25.8947 C   0  0  0  0  0  0  0  0  0  0  0  0
    9.7343  -17.2541   27.4745 O   0  0  0  0  0  0  0  0  0  0  0  0
  2  1  1  0
  2  3  1  0
  3  4  1  6
  5  3  1  0
  5  6  1  1
  7  8  2  0
  7  5  1  0
  9  7  1  0
 10  9  1  0
 10 11  1  6
 12 11  1  0
 13 12  2  0
 14 15  1  0
 14 13  1  0
 15 16  2  0
 16 12  1  0
 17 10  1  0
 17 18  2  0
 19 20  1  0
 20 21  2  0
 21 22  1  0
 23 24  1  0
 23 22  2  0
 25 26  1  0
 25 24  1  6
 26 17  1  0
 27 25  1  0
 28 27  1  0
 29 23  1  0
 30 29  2  0
 30 20  1  0
 31 27  2  0
M  END
$$$$
