IHY.pdb
     RDKit          3D

 31 32  0  0  1  0  0  0  0  0999 V2000
    7.2951  -11.8306   19.2381 C   0  0  0  0  0  0  0  0  0  0  0  0
    7.8224  -13.1111   18.6876 C   0  0  0  0  0  0  0  0  0  0  0  0
    8.0947  -14.1783   19.7117 C   0  0  2  0  0  0  0  0  0  0  0  0
    9.0869  -13.6096   20.6999 C   0  0  0  0  0  0  0  0  0  0  0  0
    8.5725  -15.4297   19.0588 C   0  0  2  0  0  0  0  0  0  0  0  0
    7.5557  -15.8919   18.1357 N   0  0  0  0  0  0  0  0  0  0  0  0
    8.9398  -16.4854   20.0216 C   0  0  0  0  0  0  0  0  0  0  0  0
    8.1287  -17.1679   20.6659 O   0  0  0  0  0  0  0  0  0  0  0  0
   10.3249  -16.7692   20.2537 N   0  0  0  0  0  0  0  0  0  0  0  0
   10.7483  -17.7194   21.2446 C   0  0  1  0  0  0  0  0  0  0  0  0
   11.8278  -18.6361   20.8993 C   0  0  0  0  0  0  0  0  0  0  0  0
   12.2914  -19.6311   21.8501 C   0  0  0  0  0  0  0  0  0  0  0  0
   11.6956  -20.5939   22.5987 C   0  0  0  0  0  0  0  0  0  0  0  0
   12.6148  -21.2582   23.3093 N   0  0  0  0  0  0  0  0  0  0  0  0
   13.7953  -20.7030   22.9991 C   0  0  0  0  0  0  0  0  0  0  0  0
   13.6373  -19.7195   22.1224 N   0  0  0  0  0  0  0  0  0  0  0  0
   10.9221  -17.0235   22.5549 C   0  0  0  0  0  0  0  0  0  0  0  0
   11.6157  -15.9561   22.5198 O   0  0  0  0  0  0  0  0  0  0  0  0
   10.5425  -13.9109   30.6335 O   0  0  0  0  0  0  0  0  0  0  0  0
   10.2487  -14.5748   29.4460 C   0  0  0  0  0  0  0  0  0  0  0  0
   10.2110  -15.9431   29.3504 C   0  0  0  0  0  0  0  0  0  0  0  0
    9.9216  -16.5970   28.1806 C   0  0  0  0  0  0  0  0  0  0  0  0
    9.6525  -15.8859   27.0332 C   0  0  0  0  0  0  0  0  0  0  0  0
    9.3433  -16.5196   25.7405 C   0  0  0  0  0  0  0  0  0  0  0  0
   10.6218  -16.7744   24.9860 C   0  0  2  0  0  0  0  0  0  0  0  0
   10.3674  -17.4958   23.7571 N   0  0  0  0  0  0  0  0  0  0  0  0
   11.5823  -17.5659   25.7866 C   0  0  0  0  0  0  0  0  0  0  0  0
   12.7624  -16.9435   26.2422 O   0  0  0  0  0  0  0  0  0  0  0  0
    9.6895  -14.4922   27.1259 C   0  0  0  0  0  0  0  0  0  0  0  0
    9.9806  -13.8551   28.3042 C   0  0  0  0  0  0  0  0  0  0  0  0
   11.4443  -18.7693   26.1074 O   0  0  0  0  0  0  0  0  0  0  0  0
  2  1  1  0
  2  3  1  0
  3  4  1  1
  5  3  1  0
  5  6  1  6
  7  8  2  0
  7  5  1  0
  9  7  1  0
 10  9  1  0
 10 11  1  6
 12 11  1  0
 13 12  2  0
 14 15  1  0
 14 13  1  0
 15 16  2  0
 16 12  1  0
 17 10  1  0
 17 18  2  0
 19 20  1  0
 20 21  2  0
 21 22  1  0
 23 24  1  0
 23 22  2  0
 25 26  1  0
 25 24  1  1
 26 17  1  0
 27 25  1  0
 28 27  1  0
 29 23  1  0
 30 29  2  0
 30 20  1  0
 31 27  2  0
M  END
$$$$
