PAT.pdb
     RDKit          3D

 20 20  0  0  1  0  0  0  0  0999 V2000
   17.8098  -13.7988  -15.7022 N   0  0  0  0  0  0  0  0  0  0  0  0
   16.5186  -14.4492  -15.4811 C   0  0  0  0  0  0  0  0  0  0  0  0
   15.8423  -13.4171  -14.5779 C   0  0  0  0  0  0  0  0  0  0  0  0
   16.4102  -12.0734  -15.0173 C   0  0  0  0  0  0  0  0  0  0  0  0
   17.4108  -12.4677  -16.0549 C   0  0  1  0  0  0  0  0  0  0  0  0
   18.5408  -11.5322  -16.1768 C   0  0  0  0  0  0  0  0  0  0  0  0
   19.5193  -11.6865  -15.4057 O   0  0  0  0  0  0  0  0  0  0  0  0
   19.9523   -9.0688  -18.6041 C   0  0  0  0  0  0  0  0  0  0  0  0
   19.7834   -9.6085  -17.1939 C   0  0  2  0  0  0  0  0  0  0  0  0
   18.5976  -10.4635  -17.1119 N   0  0  0  0  0  0  0  0  0  0  0  0
   19.6216   -8.4891  -16.2587 C   0  0  0  0  0  0  0  0  0  0  0  0
   18.5050   -8.0920  -15.8098 O   0  0  0  0  0  0  0  0  0  0  0  0
   21.9090   -5.4464  -13.0933 C   0  0  0  0  0  0  0  0  0  0  0  0
   22.0428   -6.5227  -14.1217 C   0  0  1  0  0  0  0  0  0  0  0  0
   22.2853   -7.7277  -13.4234 O   0  0  0  0  0  0  0  0  0  0  0  0
   20.7121   -6.7202  -14.8247 C   0  0  2  0  0  0  0  0  0  0  0  0
   20.7663   -7.7734  -15.7992 N   0  0  0  0  0  0  0  0  0  0  0  0
   20.1557   -5.4661  -15.3387 C   0  0  0  0  0  0  0  0  0  0  0  0
   19.1937   -4.7915  -14.6232 O   0  0  0  0  0  0  0  0  0  0  0  0
   20.5488   -5.0019  -16.4257 O   0  0  0  0  0  0  0  0  0  0  0  0
  2  1  1  0
  3  2  1  0
  4  3  1  0
  4  5  1  0
  5  1  1  0
  5  6  1  1
  7  6  2  0
  9  8  1  6
  9 10  1  0
  9 11  1  0
 10  6  1  0
 11 17  1  0
 12 11  2  0
 14 13  1  1
 14 15  1  0
 16 14  1  0
 16 18  1  0
 16 17  1  6
 18 20  2  0
 18 19  1  0
M  END
$$$$
