PAT.pdb
     RDKit          3D

 20 20  0  0  1  0  0  0  0  0999 V2000
   21.8049  -13.0108  -15.4226 N   0  0  0  0  0  0  0  0  0  0  0  0
   22.2919  -14.3587  -15.7145 C   0  0  0  0  0  0  0  0  0  0  0  0
   21.6490  -14.5927  -17.0821 C   0  0  0  0  0  0  0  0  0  0  0  0
   21.5772  -13.2143  -17.7272 C   0  0  0  0  0  0  0  0  0  0  0  0
   22.0960  -12.3227  -16.6461 C   0  0  1  0  0  0  0  0  0  0  0  0
   21.5521  -10.9555  -16.6910 C   0  0  0  0  0  0  0  0  0  0  0  0
   21.9135  -10.2083  -17.6327 O   0  0  0  0  0  0  0  0  0  0  0  0
   18.7617   -8.9503  -15.1927 C   0  0  0  0  0  0  0  0  0  0  0  0
   20.1038   -9.0722  -15.8945 C   0  0  2  0  0  0  0  0  0  0  0  0
   20.6428  -10.4244  -15.7367 N   0  0  0  0  0  0  0  0  0  0  0  0
   21.0505   -8.1170  -15.3070 C   0  0  0  0  0  0  0  0  0  0  0  0
   21.8518   -8.3961  -14.3657 O   0  0  0  0  0  0  0  0  0  0  0  0
   23.1443   -3.6446  -15.6552 C   0  0  0  0  0  0  0  0  0  0  0  0
   22.0671   -4.5519  -16.1553 C   0  0  1  0  0  0  0  0  0  0  0  0
   22.5002   -5.0511  -17.4050 O   0  0  0  0  0  0  0  0  0  0  0  0
   21.9627   -5.7635  -15.2470 C   0  0  2  0  0  0  0  0  0  0  0  0
   21.1072   -6.7782  -15.7950 N   0  0  0  0  0  0  0  0  0  0  0  0
   21.6429   -5.4034  -13.8633 C   0  0  0  0  0  0  0  0  0  0  0  0
   22.6517   -5.2083  -12.9485 O   0  0  0  0  0  0  0  0  0  0  0  0
   20.4572   -5.2714  -13.5052 O   0  0  0  0  0  0  0  0  0  0  0  0
  2  1  1  0
  3  2  1  0
  4  3  1  0
  4  5  1  0
  5  1  1  0
  5  6  1  1
  7  6  2  0
  9  8  1  1
  9 10  1  0
  9 11  1  0
 10  6  1  0
 11 17  1  0
 12 11  2  0
 14 13  1  1
 14 15  1  0
 16 14  1  0
 16 18  1  0
 16 17  1  6
 18 20  2  0
 18 19  1  0
M  END
$$$$
