PAT.pdb
     RDKit          3D

 20 20  0  0  1  0  0  0  0  0999 V2000
   23.6710  -12.5146  -17.3105 N   0  0  0  0  0  0  0  0  0  0  0  0
   24.3439  -13.6481  -16.6768 C   0  0  0  0  0  0  0  0  0  0  0  0
   25.0793  -12.9320  -15.5433 C   0  0  0  0  0  0  0  0  0  0  0  0
   24.1883  -11.7520  -15.1761 C   0  0  0  0  0  0  0  0  0  0  0  0
   23.0871  -11.8518  -16.1813 C   0  0  1  0  0  0  0  0  0  0  0  0
   22.4703  -10.5583  -16.5179 C   0  0  0  0  0  0  0  0  0  0  0  0
   22.9499   -9.9094  -17.4796 O   0  0  0  0  0  0  0  0  0  0  0  0
   19.2393   -8.9113  -16.3854 C   0  0  0  0  0  0  0  0  0  0  0  0
   20.7476   -8.7524  -16.2944 C   0  0  2  0  0  0  0  0  0  0  0  0
   21.3655   -9.9940  -15.8247 N   0  0  0  0  0  0  0  0  0  0  0  0
   21.0692   -7.6792  -15.3463 C   0  0  0  0  0  0  0  0  0  0  0  0
   21.2234   -7.8524  -14.1004 O   0  0  0  0  0  0  0  0  0  0  0  0
   23.9534   -5.3889  -15.7933 C   0  0  0  0  0  0  0  0  0  0  0  0
   22.7942   -4.4704  -15.5781 C   0  0  1  0  0  0  0  0  0  0  0  0
   22.3527   -4.0623  -16.8576 O   0  0  0  0  0  0  0  0  0  0  0  0
   21.6370   -5.2471  -14.9767 C   0  0  2  0  0  0  0  0  0  0  0  0
   21.2273   -6.3407  -15.8121 N   0  0  0  0  0  0  0  0  0  0  0  0
   20.5348   -4.3784  -14.5558 C   0  0  0  0  0  0  0  0  0  0  0  0
   20.6980   -3.5192  -13.4938 O   0  0  0  0  0  0  0  0  0  0  0  0
   19.4434   -4.4112  -15.1551 O   0  0  0  0  0  0  0  0  0  0  0  0
  2  1  1  0
  3  2  1  0
  4  3  1  0
  4  5  1  0
  5  1  1  0
  5  6  1  6
  7  6  2  0
  9  8  1  1
  9 10  1  0
  9 11  1  0
 10  6  1  0
 11 17  1  0
 12 11  2  0
 14 13  1  6
 14 15  1  0
 16 14  1  0
 16 18  1  0
 16 17  1  6
 18 20  2  0
 18 19  1  0
M  END
$$$$
