PAT.pdb
     RDKit          3D

 20 20  0  0  1  0  0  0  0  0999 V2000
   22.8295  -12.2109  -18.7424 N   0  0  0  0  0  0  0  0  0  0  0  0
   23.4974  -13.2532  -19.5214 C   0  0  0  0  0  0  0  0  0  0  0  0
   23.1422  -12.8058  -20.9399 C   0  0  0  0  0  0  0  0  0  0  0  0
   23.0480  -11.2871  -20.8645 C   0  0  0  0  0  0  0  0  0  0  0  0
   23.2666  -11.0202  -19.4105 C   0  0  1  0  0  0  0  0  0  0  0  0
   22.6024   -9.8000  -18.9237 C   0  0  0  0  0  0  0  0  0  0  0  0
   22.9271   -8.7048  -19.4441 O   0  0  0  0  0  0  0  0  0  0  0  0
   19.5153   -8.8004  -17.1033 C   0  0  0  0  0  0  0  0  0  0  0  0
   20.9457   -8.5294  -17.5381 C   0  0  2  0  0  0  0  0  0  0  0  0
   21.6157   -9.7797  -17.9011 N   0  0  0  0  0  0  0  0  0  0  0  0
   21.6820   -7.9051  -16.4326 C   0  0  0  0  0  0  0  0  0  0  0  0
   22.2050   -8.5470  -15.4732 O   0  0  0  0  0  0  0  0  0  0  0  0
   24.0330   -4.8357  -17.2544 C   0  0  0  0  0  0  0  0  0  0  0  0
   23.2595   -4.5242  -16.0141 C   0  0  1  0  0  0  0  0  0  0  0  0
   22.1483   -3.7451  -16.4099 O   0  0  0  0  0  0  0  0  0  0  0  0
   22.6767   -5.8051  -15.4452 C   0  0  2  0  0  0  0  0  0  0  0  0
   21.8441   -6.4889  -16.3944 N   0  0  0  0  0  0  0  0  0  0  0  0
   22.0435   -5.6038  -14.1394 C   0  0  0  0  0  0  0  0  0  0  0  0
   22.7955   -5.1979  -13.0612 O   0  0  0  0  0  0  0  0  0  0  0  0
   20.8216   -5.7981  -13.9957 O   0  0  0  0  0  0  0  0  0  0  0  0
  2  1  1  0
  3  2  1  0
  4  3  1  0
  4  5  1  0
  5  1  1  0
  5  6  1  1
  7  6  2  0
  9  8  1  1
  9 10  1  0
  9 11  1  0
 10  6  1  0
 11 17  1  0
 12 11  2  0
 14 13  1  6
 14 15  1  0
 16 14  1  0
 16 18  1  0
 16 17  1  6
 18 20  2  0
 18 19  1  0
M  END
$$$$
