PAT.pdb
     RDKit          3D

 20 20  0  0  1  0  0  0  0  0999 V2000
   16.8610  -11.1403  -16.5576 N   0  0  0  0  0  0  0  0  0  0  0  0
   16.0740  -12.3593  -16.3739 C   0  0  0  0  0  0  0  0  0  0  0  0
   17.1544  -13.4192  -16.5926 C   0  0  0  0  0  0  0  0  0  0  0  0
   18.4442  -12.7787  -16.0952 C   0  0  0  0  0  0  0  0  0  0  0  0
   18.0010  -11.3996  -15.7279 C   0  0  1  0  0  0  0  0  0  0  0  0
   19.0578  -10.3826  -15.8529 C   0  0  0  0  0  0  0  0  0  0  0  0
   19.9978  -10.4044  -15.0211 O   0  0  0  0  0  0  0  0  0  0  0  0
   20.2843   -7.8321  -18.3337 C   0  0  0  0  0  0  0  0  0  0  0  0
   20.2116   -8.4449  -16.9452 C   0  0  2  0  0  0  0  0  0  0  0  0
   19.0845   -9.3752  -16.8549 N   0  0  0  0  0  0  0  0  0  0  0  0
   20.0243   -7.3814  -15.9514 C   0  0  0  0  0  0  0  0  0  0  0  0
   18.9500   -6.7254  -15.8043 O   0  0  0  0  0  0  0  0  0  0  0  0
   20.2986   -7.7394  -12.4315 C   0  0  0  0  0  0  0  0  0  0  0  0
   21.2268   -6.5918  -12.6662 C   0  0  1  0  0  0  0  0  0  0  0  0
   22.5364   -7.1236  -12.6919 O   0  0  0  0  0  0  0  0  0  0  0  0
   20.9904   -6.0244  -14.0541 C   0  0  2  0  0  0  0  0  0  0  0  0
   21.0921   -7.0300  -15.0740 N   0  0  0  0  0  0  0  0  0  0  0  0
   21.7961   -4.8297  -14.3183 C   0  0  0  0  0  0  0  0  0  0  0  0
   22.7027   -4.8216  -15.3530 O   0  0  0  0  0  0  0  0  0  0  0  0
   21.6668   -3.8138  -13.6092 O   0  0  0  0  0  0  0  0  0  0  0  0
  2  1  1  0
  3  2  1  0
  4  3  1  0
  4  5  1  0
  5  1  1  0
  5  6  1  6
  7  6  2  0
  9  8  1  6
  9 10  1  0
  9 11  1  0
 10  6  1  0
 11 17  1  0
 12 11  2  0
 14 13  1  6
 14 15  1  0
 16 14  1  0
 16 18  1  0
 16 17  1  6
 18 20  2  0
 18 19  1  0
M  END
$$$$
