PAT.pdb
     RDKit          3D

 20 20  0  0  1  0  0  0  0  0999 V2000
   18.4069  -12.1453  -15.6133 N   0  0  0  0  0  0  0  0  0  0  0  0
   18.2753  -13.6013  -15.5690 C   0  0  0  0  0  0  0  0  0  0  0  0
   18.6467  -13.9544  -17.0098 C   0  0  0  0  0  0  0  0  0  0  0  0
   19.6478  -12.8871  -17.4339 C   0  0  0  0  0  0  0  0  0  0  0  0
   19.6851  -11.9855  -16.2427 C   0  0  1  0  0  0  0  0  0  0  0  0
   20.0059  -10.5858  -16.5664 C   0  0  0  0  0  0  0  0  0  0  0  0
   21.1505  -10.3323  -17.0153 O   0  0  0  0  0  0  0  0  0  0  0  0
   18.2521   -7.3051  -17.0857 C   0  0  0  0  0  0  0  0  0  0  0  0
   19.4869   -8.1466  -16.8108 C   0  0  2  0  0  0  0  0  0  0  0  0
   19.1036   -9.4999  -16.4039 N   0  0  0  0  0  0  0  0  0  0  0  0
   20.2649   -7.5327  -15.7283 C   0  0  0  0  0  0  0  0  0  0  0  0
   20.1824   -7.8734  -14.5104 O   0  0  0  0  0  0  0  0  0  0  0  0
   22.9003   -4.1264  -16.5485 C   0  0  0  0  0  0  0  0  0  0  0  0
   23.2663   -5.2480  -15.6310 C   0  0  1  0  0  0  0  0  0  0  0  0
   23.9703   -4.6762  -14.5466 O   0  0  0  0  0  0  0  0  0  0  0  0
   22.0059   -5.8428  -15.0298 C   0  0  2  0  0  0  0  0  0  0  0  0
   21.1845   -6.4823  -16.0189 N   0  0  0  0  0  0  0  0  0  0  0  0
   21.2815   -4.8899  -14.1850 C   0  0  0  0  0  0  0  0  0  0  0  0
   21.7476   -4.5881  -12.9263 O   0  0  0  0  0  0  0  0  0  0  0  0
   20.2401   -4.3466  -14.5992 O   0  0  0  0  0  0  0  0  0  0  0  0
  2  1  1  0
  3  2  1  0
  4  3  1  0
  4  5  1  0
  5  1  1  0
  5  6  1  6
  7  6  2  0
  9  8  1  1
  9 10  1  0
  9 11  1  0
 10  6  1  0
 11 17  1  0
 12 11  2  0
 14 13  1  6
 14 15  1  0
 16 14  1  0
 16 18  1  0
 16 17  1  6
 18 20  2  0
 18 19  1  0
M  END
$$$$
