PAT.pdb
     RDKit          3D

 20 20  0  0  1  0  0  0  0  0999 V2000
   20.7501  -10.7251  -17.8313 N   0  0  0  0  0  0  0  0  0  0  0  0
   20.3677  -11.5439  -18.9813 C   0  0  0  0  0  0  0  0  0  0  0  0
   18.8615  -11.6626  -18.7450 C   0  0  0  0  0  0  0  0  0  0  0  0
   18.4648  -10.3627  -18.0565 C   0  0  0  0  0  0  0  0  0  0  0  0
   19.7788   -9.6720  -17.8854 C   0  0  1  0  0  0  0  0  0  0  0  0
   19.8296   -8.7704  -16.7229 C   0  0  0  0  0  0  0  0  0  0  0  0
   19.1073   -7.7438  -16.7416 O   0  0  0  0  0  0  0  0  0  0  0  0
   21.1781   -8.7297  -13.2000 C   0  0  0  0  0  0  0  0  0  0  0  0
   20.5690   -8.0793  -14.4306 C   0  0  2  0  0  0  0  0  0  0  0  0
   20.6440   -8.9854  -15.5783 N   0  0  0  0  0  0  0  0  0  0  0  0
   21.3082   -6.8526  -14.7509 C   0  0  0  0  0  0  0  0  0  0  0  0
   22.3805   -6.8231  -15.4256 O   0  0  0  0  0  0  0  0  0  0  0  0
   19.8075   -3.8371  -16.3385 C   0  0  0  0  0  0  0  0  0  0  0  0
   20.4810   -3.3065  -15.1143 C   0  0  1  0  0  0  0  0  0  0  0  0
   19.4851   -3.1891  -14.1179 O   0  0  0  0  0  0  0  0  0  0  0  0
   21.4631   -4.3378  -14.5889 C   0  0  2  0  0  0  0  0  0  0  0  0
   20.8261   -5.5905  -14.2945 N   0  0  0  0  0  0  0  0  0  0  0  0
   22.2888   -3.8218  -13.4942 C   0  0  0  0  0  0  0  0  0  0  0  0
   22.2609   -4.4302  -12.2606 O   0  0  0  0  0  0  0  0  0  0  0  0
   23.0212   -2.8301  -13.6717 O   0  0  0  0  0  0  0  0  0  0  0  0
  2  1  1  0
  3  2  1  0
  4  3  1  0
  4  5  1  0
  5  1  1  0
  5  6  1  1
  7  6  2  0
  9  8  1  1
  9 10  1  0
  9 11  1  0
 10  6  1  0
 11 17  1  0
 12 11  2  0
 14 13  1  6
 14 15  1  0
 16 14  1  0
 16 18  1  0
 16 17  1  1
 18 20  2  0
 18 19  1  0
M  END
$$$$
