QAA.pdb
     RDKit          3D

 20 19  0  0  1  0  0  0  0  0999 V2000
    7.2302  -17.2473   19.6572 N   0  0  0  0  0  0  0  0  0  0  0  0
    7.2318  -16.7208   18.3329 C   0  0  0  0  0  0  0  0  0  0  0  0
    6.5405  -17.2347   17.4092 O   0  0  0  0  0  0  0  0  0  0  0  0
    8.0872  -15.5267   18.0671 C   0  0  0  0  0  0  0  0  0  0  0  0
    8.7100  -15.0779   19.3709 C   0  0  0  0  0  0  0  0  0  0  0  0
    8.0944  -13.7674   19.7855 C   0  0  2  0  0  0  0  0  0  0  0  0
    8.6317  -12.7246   18.9600 N   0  0  0  0  0  0  0  0  0  0  0  0
    8.3647  -13.5569   21.2304 C   0  0  0  0  0  0  0  0  0  0  0  0
    9.3998  -12.9262   21.5432 O   0  0  0  0  0  0  0  0  0  0  0  0
    6.4856  -13.4095   24.3500 C   0  0  0  0  0  0  0  0  0  0  0  0
    7.8061  -13.7332   23.6596 C   0  0  2  0  0  0  0  0  0  0  0  0
    7.5308  -14.0215   22.2675 N   0  0  0  0  0  0  0  0  0  0  0  0
    8.3821  -14.9106   24.3180 C   0  0  0  0  0  0  0  0  0  0  0  0
    8.6007  -14.8889   25.5454 O   0  0  0  0  0  0  0  0  0  0  0  0
    9.1824  -18.5097   23.4473 C   0  0  0  0  0  0  0  0  0  0  0  0
    9.2902  -17.2389   24.2862 C   0  0  2  0  0  0  0  0  0  0  0  0
    8.7137  -16.1097   23.6092 N   0  0  0  0  0  0  0  0  0  0  0  0
   10.7267  -16.9930   24.5298 C   0  0  0  0  0  0  0  0  0  0  0  0
   11.2942  -15.9328   24.1278 O   0  0  0  0  0  0  0  0  0  0  0  0
   11.4912  -17.9200   25.2068 O   0  0  0  0  0  0  0  0  0  0  0  0
  2  1  1  0
  2  4  1  0
  3  2  2  0
  5  4  1  0
  5  6  1  0
  6  7  1  6
  8  6  1  0
  8 12  1  0
  9  8  2  0
 11 12  1  0
 11 13  1  0
 11 10  1  1
 13 17  1  0
 14 13  2  0
 16 15  1  6
 16 18  1  0
 17 16  1  0
 18 19  2  0
 18 20  1  0
M  END
$$$$
