QAA.pdb
     RDKit          3D

 20 19  0  0  1  0  0  0  0  0999 V2000
   -0.0848  -28.2205   28.8442 N   0  0  0  0  0  0  0  0  0  0  0  0
   -0.4819  -28.6495   27.5444 C   0  0  0  0  0  0  0  0  0  0  0  0
    0.2754  -29.3442   26.8102 O   0  0  0  0  0  0  0  0  0  0  0  0
   -1.8391  -28.2473   27.0707 C   0  0  0  0  0  0  0  0  0  0  0  0
   -2.5204  -27.4589   28.1678 C   0  0  0  0  0  0  0  0  0  0  0  0
   -3.8561  -26.9738   27.6692 C   0  0  2  0  0  0  0  0  0  0  0  0
   -3.8149  -26.9028   26.2371 N   0  0  0  0  0  0  0  0  0  0  0  0
   -4.1477  -25.6634   28.3039 C   0  0  0  0  0  0  0  0  0  0  0  0
   -4.1568  -25.6115   29.5546 O   0  0  0  0  0  0  0  0  0  0  0  0
   -4.6041  -22.1023   27.2423 C   0  0  0  0  0  0  0  0  0  0  0  0
   -4.7311  -23.2341   28.2562 C   0  0  2  0  0  0  0  0  0  0  0  0
   -4.4138  -24.4789   27.5877 N   0  0  0  0  0  0  0  0  0  0  0  0
   -6.1166  -23.2546   28.7375 C   0  0  0  0  0  0  0  0  0  0  0  0
   -7.0362  -23.5861   27.9636 O   0  0  0  0  0  0  0  0  0  0  0  0
   -7.9593  -23.5752   31.9113 C   0  0  0  0  0  0  0  0  0  0  0  0
   -7.8425  -22.9570   30.5205 C   0  0  2  0  0  0  0  0  0  0  0  0
   -6.4756  -22.9063   30.0791 N   0  0  0  0  0  0  0  0  0  0  0  0
   -8.3909  -21.5872   30.6005 C   0  0  0  0  0  0  0  0  0  0  0  0
   -7.6324  -20.5740   30.6779 O   0  0  0  0  0  0  0  0  0  0  0  0
   -9.7538  -21.3766   30.5927 O   0  0  0  0  0  0  0  0  0  0  0  0
  2  1  1  0
  2  4  1  0
  3  2  2  0
  5  4  1  0
  5  6  1  0
  6  7  1  6
  8  6  1  0
  8 12  1  0
  9  8  2  0
 11 12  1  0
 11 13  1  0
 11 10  1  6
 13 17  1  0
 14 13  2  0
 16 15  1  1
 16 18  1  0
 17 16  1  0
 18 19  2  0
 18 20  1  0
M  END
$$$$
