QAA.pdb
     RDKit          3D

 20 19  0  0  1  0  0  0  0  0999 V2000
   -0.8730  -28.1485   29.8367 N   0  0  0  0  0  0  0  0  0  0  0  0
   -1.0252  -27.9770   28.4301 C   0  0  0  0  0  0  0  0  0  0  0  0
   -0.5066  -28.7754   27.6001 O   0  0  0  0  0  0  0  0  0  0  0  0
   -1.8274  -26.8088   27.9611 C   0  0  0  0  0  0  0  0  0  0  0  0
   -2.3028  -26.0320   29.1694 C   0  0  0  0  0  0  0  0  0  0  0  0
   -3.7690  -25.7260   29.0127 C   0  0  2  0  0  0  0  0  0  0  0  0
   -4.1352  -25.9177   27.6391 N   0  0  0  0  0  0  0  0  0  0  0  0
   -4.0139  -24.3405   29.4873 C   0  0  0  0  0  0  0  0  0  0  0  0
   -3.7509  -24.0796   30.6831 O   0  0  0  0  0  0  0  0  0  0  0  0
   -4.5635  -20.9427   28.2055 C   0  0  0  0  0  0  0  0  0  0  0  0
   -4.9073  -22.0214   29.2268 C   0  0  2  0  0  0  0  0  0  0  0  0
   -4.5222  -23.3047   28.6776 N   0  0  0  0  0  0  0  0  0  0  0  0
   -6.3557  -21.9805   29.4552 C   0  0  0  0  0  0  0  0  0  0  0  0
   -6.8848  -20.9390   29.8910 O   0  0  0  0  0  0  0  0  0  0  0  0
   -9.3778  -24.1864   28.8335 C   0  0  0  0  0  0  0  0  0  0  0  0
   -8.6152  -23.0475   29.5056 C   0  0  2  0  0  0  0  0  0  0  0  0
   -7.2122  -23.0988   29.1982 N   0  0  0  0  0  0  0  0  0  0  0  0
   -8.8107  -23.1873   30.9636 C   0  0  0  0  0  0  0  0  0  0  0  0
   -7.9850  -23.8253   31.6839 O   0  0  0  0  0  0  0  0  0  0  0  0
   -9.9066  -22.6217   31.5810 O   0  0  0  0  0  0  0  0  0  0  0  0
  2  1  1  0
  2  4  1  0
  3  2  2  0
  5  4  1  0
  5  6  1  0
  6  7  1  6
  8  6  1  0
  8 12  1  0
  9  8  2  0
 11 12  1  0
 11 13  1  0
 11 10  1  6
 13 17  1  0
 14 13  2  0
 16 15  1  6
 16 18  1  0
 17 16  1  0
 18 19  2  0
 18 20  1  0
M  END
$$$$
