QAA.pdb
     RDKit          3D

 20 19  0  0  1  0  0  0  0  0999 V2000
    5.1881  -18.9981   23.2914 N   0  0  0  0  0  0  0  0  0  0  0  0
    6.6092  -19.0486   23.1976 C   0  0  0  0  0  0  0  0  0  0  0  0
    7.3221  -19.5402   24.1171 O   0  0  0  0  0  0  0  0  0  0  0  0
    7.2385  -18.4950   21.9624 C   0  0  0  0  0  0  0  0  0  0  0  0
    6.1594  -17.8604   21.1125 C   0  0  0  0  0  0  0  0  0  0  0  0
    6.7608  -17.4122   19.8066 C   0  0  2  0  0  0  0  0  0  0  0  0
    7.4720  -18.5138   19.2250 N   0  0  0  0  0  0  0  0  0  0  0  0
    7.6304  -16.2371   20.0677 C   0  0  0  0  0  0  0  0  0  0  0  0
    8.8512  -16.4453   20.2504 O   0  0  0  0  0  0  0  0  0  0  0  0
    7.2771  -12.5008   20.1778 C   0  0  0  0  0  0  0  0  0  0  0  0
    8.0610  -13.7944   20.3704 C   0  0  2  0  0  0  0  0  0  0  0  0
    7.1677  -14.9068   20.1224 N   0  0  0  0  0  0  0  0  0  0  0  0
    8.5419  -13.8280   21.7558 C   0  0  0  0  0  0  0  0  0  0  0  0
    9.5113  -13.1197   22.0922 O   0  0  0  0  0  0  0  0  0  0  0  0
    7.2597  -14.9029   25.1037 C   0  0  0  0  0  0  0  0  0  0  0  0
    8.3941  -14.6019   24.1276 C   0  0  2  0  0  0  0  0  0  0  0  0
    7.9429  -14.6496   22.7639 N   0  0  0  0  0  0  0  0  0  0  0  0
    9.4409  -15.6226   24.3416 C   0  0  0  0  0  0  0  0  0  0  0  0
    9.7750  -16.4306   23.4232 O   0  0  0  0  0  0  0  0  0  0  0  0
   10.0853  -15.7213   25.5569 O   0  0  0  0  0  0  0  0  0  0  0  0
  2  1  1  0
  2  4  1  0
  3  2  2  0
  5  4  1  0
  5  6  1  0
  6  7  1  1
  8  6  1  0
  8 12  1  0
  9  8  2  0
 11 12  1  0
 11 13  1  0
 11 10  1  1
 13 17  1  0
 14 13  2  0
 16 15  1  1
 16 18  1  0
 17 16  1  0
 18 19  2  0
 18 20  1  0
M  END
$$$$
