QAA.pdb
     RDKit          3D

 20 19  0  0  1  0  0  0  0  0999 V2000
   -3.7793  -29.1399   28.4967 N   0  0  0  0  0  0  0  0  0  0  0  0
   -2.6598  -29.3569   27.6419 C   0  0  0  0  0  0  0  0  0  0  0  0
   -2.3394  -30.5111   27.2412 O   0  0  0  0  0  0  0  0  0  0  0  0
   -1.8665  -28.1619   27.2287 C   0  0  0  0  0  0  0  0  0  0  0  0
   -2.4794  -26.9319   27.8617 C   0  0  0  0  0  0  0  0  0  0  0  0
   -1.7066  -25.7156   27.4240 C   0  0  2  0  0  0  0  0  0  0  0  0
   -0.3451  -25.8560   27.8531 N   0  0  0  0  0  0  0  0  0  0  0  0
   -2.3677  -24.5106   27.9863 C   0  0  0  0  0  0  0  0  0  0  0  0
   -2.2355  -24.2926   29.2119 O   0  0  0  0  0  0  0  0  0  0  0  0
   -4.1206  -21.4509   26.7759 C   0  0  0  0  0  0  0  0  0  0  0  0
   -3.8524  -22.5058   27.8437 C   0  0  2  0  0  0  0  0  0  0  0  0
   -3.1318  -23.6007   27.2281 N   0  0  0  0  0  0  0  0  0  0  0  0
   -5.1470  -22.9716   28.3522 C   0  0  0  0  0  0  0  0  0  0  0  0
   -5.7793  -23.8462   27.7277 O   0  0  0  0  0  0  0  0  0  0  0  0
   -7.2125  -22.6445   31.5015 C   0  0  0  0  0  0  0  0  0  0  0  0
   -7.0107  -22.9376   30.0171 C   0  0  2  0  0  0  0  0  0  0  0  0
   -5.7352  -22.4633   29.5546 N   0  0  0  0  0  0  0  0  0  0  0  0
   -8.0933  -22.2513   29.2820 C   0  0  0  0  0  0  0  0  0  0  0  0
   -7.8657  -21.2222   28.5771 O   0  0  0  0  0  0  0  0  0  0  0  0
   -9.3894  -22.7185   29.3461 O   0  0  0  0  0  0  0  0  0  0  0  0
  2  1  1  0
  2  4  1  0
  3  2  2  0
  5  4  1  0
  5  6  1  0
  6  7  1  1
  8  6  1  0
  8 12  1  0
  9  8  2  0
 11 12  1  0
 11 13  1  0
 11 10  1  6
 13 17  1  0
 14 13  2  0
 16 15  1  1
 16 18  1  0
 17 16  1  0
 18 19  2  0
 18 20  1  0
M  END
$$$$
