QAA.pdb
     RDKit          3D

 20 19  0  0  1  0  0  0  0  0999 V2000
   14.6455  -13.7925   21.5129 N   0  0  0  0  0  0  0  0  0  0  0  0
   14.6686  -14.9783   20.7228 C   0  0  0  0  0  0  0  0  0  0  0  0
   15.7495  -15.4830   20.3075 O   0  0  0  0  0  0  0  0  0  0  0  0
   13.3584  -15.6146   20.3963 C   0  0  0  0  0  0  0  0  0  0  0  0
   12.2569  -14.8282   21.0728 C   0  0  0  0  0  0  0  0  0  0  0  0
   10.9340  -15.4900   20.7898 C   0  0  2  0  0  0  0  0  0  0  0  0
   10.3155  -14.8264   19.6787 N   0  0  0  0  0  0  0  0  0  0  0  0
   10.1094  -15.4399   22.0238 C   0  0  0  0  0  0  0  0  0  0  0  0
    9.4357  -14.4057   22.2323 O   0  0  0  0  0  0  0  0  0  0  0  0
    8.7823  -17.8003   24.5475 C   0  0  0  0  0  0  0  0  0  0  0  0
    9.2024  -16.3896   24.1498 C   0  0  2  0  0  0  0  0  0  0  0  0
   10.0388  -16.4812   22.9712 N   0  0  0  0  0  0  0  0  0  0  0  0
    9.9591  -15.8130   25.2663 C   0  0  0  0  0  0  0  0  0  0  0  0
   11.1741  -16.0656   25.3869 O   0  0  0  0  0  0  0  0  0  0  0  0
    9.6006  -13.1954   27.9336 C   0  0  0  0  0  0  0  0  0  0  0  0
   10.0877  -14.5469   27.4173 C   0  0  2  0  0  0  0  0  0  0  0  0
    9.3621  -14.9566   26.2463 N   0  0  0  0  0  0  0  0  0  0  0  0
    9.8823  -15.5314   28.4999 C   0  0  0  0  0  0  0  0  0  0  0  0
    9.0105  -16.4473   28.4050 O   0  0  0  0  0  0  0  0  0  0  0  0
   10.6413  -15.4767   29.6501 O   0  0  0  0  0  0  0  0  0  0  0  0
  2  1  1  0
  2  4  1  0
  3  2  2  0
  5  4  1  0
  5  6  1  0
  6  7  1  6
  8  6  1  0
  8 12  1  0
  9  8  2  0
 11 12  1  0
 11 13  1  0
 11 10  1  1
 13 17  1  0
 14 13  2  0
 16 15  1  1
 16 18  1  0
 17 16  1  0
 18 19  2  0
 18 20  1  0
M  END
$$$$
