QAA.pdb
     RDKit          3D

 20 19  0  0  1  0  0  0  0  0999 V2000
    2.6764  -19.5453   23.0471 N   0  0  0  0  0  0  0  0  0  0  0  0
    2.0158  -19.2586   21.8174 C   0  0  0  0  0  0  0  0  0  0  0  0
    0.8248  -19.6184   21.5995 O   0  0  0  0  0  0  0  0  0  0  0  0
    2.7848  -18.5097   20.7802 C   0  0  0  0  0  0  0  0  0  0  0  0
    4.1279  -18.1226   21.3594 C   0  0  0  0  0  0  0  0  0  0  0  0
    5.0387  -17.6855   20.2425 C   0  0  2  0  0  0  0  0  0  0  0  0
    5.3594  -18.8277   19.4362 N   0  0  0  0  0  0  0  0  0  0  0  0
    6.2384  -17.0437   20.8374 C   0  0  0  0  0  0  0  0  0  0  0  0
    7.1861  -17.7861   21.1803 O   0  0  0  0  0  0  0  0  0  0  0  0
    7.3690  -13.5713   21.7266 C   0  0  0  0  0  0  0  0  0  0  0  0
    7.5406  -15.0858   21.6827 C   0  0  2  0  0  0  0  0  0  0  0  0
    6.3753  -15.6554   21.0390 N   0  0  0  0  0  0  0  0  0  0  0  0
    7.6444  -15.5677   23.0643 C   0  0  0  0  0  0  0  0  0  0  0  0
    6.7118  -15.3585   23.8649 O   0  0  0  0  0  0  0  0  0  0  0  0
    8.7079  -18.1702   25.1115 C   0  0  0  0  0  0  0  0  0  0  0  0
    8.8893  -16.6651   24.9331 C   0  0  2  0  0  0  0  0  0  0  0  0
    8.7858  -16.2816   23.5519 N   0  0  0  0  0  0  0  0  0  0  0  0
   10.2311  -16.3198   25.4464 C   0  0  0  0  0  0  0  0  0  0  0  0
   11.1439  -15.8913   24.6775 O   0  0  0  0  0  0  0  0  0  0  0  0
   10.5252  -16.4568   26.7869 O   0  0  0  0  0  0  0  0  0  0  0  0
  2  1  1  0
  2  4  1  0
  3  2  2  0
  5  4  1  0
  5  6  1  0
  6  7  1  1
  8  6  1  0
  8 12  1  0
  9  8  2  0
 11 12  1  0
 11 13  1  0
 11 10  1  1
 13 17  1  0
 14 13  2  0
 16 15  1  6
 16 18  1  0
 17 16  1  0
 18 19  2  0
 18 20  1  0
M  END
$$$$
