QAA.pdb
     RDKit          3D

 20 19  0  0  1  0  0  0  0  0999 V2000
    4.8029  -19.6547   22.4697 N   0  0  0  0  0  0  0  0  0  0  0  0
    4.9416  -18.2568   22.2296 C   0  0  0  0  0  0  0  0  0  0  0  0
    4.0623  -17.4263   22.5936 O   0  0  0  0  0  0  0  0  0  0  0  0
    6.1748  -17.7976   21.5251 C   0  0  0  0  0  0  0  0  0  0  0  0
    7.0694  -17.0958   22.5235 C   0  0  0  0  0  0  0  0  0  0  0  0
    7.0701  -15.6185   22.2308 C   0  0  2  0  0  0  0  0  0  0  0  0
    7.6133  -15.4090   20.9199 N   0  0  0  0  0  0  0  0  0  0  0  0
    7.8449  -14.9288   23.2935 C   0  0  0  0  0  0  0  0  0  0  0  0
    9.0937  -14.9974   23.2412 O   0  0  0  0  0  0  0  0  0  0  0  0
    7.1580  -12.6786   26.2148 C   0  0  0  0  0  0  0  0  0  0  0  0
    8.0638  -13.5857   25.3893 C   0  0  2  0  0  0  0  0  0  0  0  0
    7.2630  -14.2043   24.3534 N   0  0  0  0  0  0  0  0  0  0  0  0
    8.6142  -14.6088   26.2850 C   0  0  0  0  0  0  0  0  0  0  0  0
    7.8896  -15.5459   26.6741 O   0  0  0  0  0  0  0  0  0  0  0  0
   12.0145  -15.6922   27.5218 C   0  0  0  0  0  0  0  0  0  0  0  0
   10.4900  -15.6372   27.5773 C   0  0  2  0  0  0  0  0  0  0  0  0
    9.9697  -14.5867   26.7458 N   0  0  0  0  0  0  0  0  0  0  0  0
   10.1096  -15.3931   28.9841 C   0  0  0  0  0  0  0  0  0  0  0  0
    9.5715  -14.3030   29.3447 O   0  0  0  0  0  0  0  0  0  0  0  0
   10.3330  -16.3545   29.9473 O   0  0  0  0  0  0  0  0  0  0  0  0
  2  1  1  0
  2  4  1  0
  3  2  2  0
  5  4  1  0
  5  6  1  0
  6  7  1  6
  8  6  1  0
  8 12  1  0
  9  8  2  0
 11 12  1  0
 11 13  1  0
 11 10  1  1
 13 17  1  0
 14 13  2  0
 16 15  1  1
 16 18  1  0
 17 16  1  0
 18 19  2  0
 18 20  1  0
M  END
$$$$
