QAA.pdb
     RDKit          3D

 20 19  0  0  1  0  0  0  0  0999 V2000
    7.7795  -19.8279   19.5992 N   0  0  0  0  0  0  0  0  0  0  0  0
    7.3111  -18.9940   18.5427 C   0  0  0  0  0  0  0  0  0  0  0  0
    6.6931  -19.4629   17.5458 O   0  0  0  0  0  0  0  0  0  0  0  0
    7.5766  -17.5292   18.6516 C   0  0  0  0  0  0  0  0  0  0  0  0
    8.1139  -17.2365   20.0354 C   0  0  0  0  0  0  0  0  0  0  0  0
    8.1993  -15.7450   20.2254 C   0  0  2  0  0  0  0  0  0  0  0  0
    8.9804  -15.1888   19.1586 N   0  0  0  0  0  0  0  0  0  0  0  0
    8.7774  -15.4738   21.5661 C   0  0  0  0  0  0  0  0  0  0  0  0
   10.0080  -15.6480   21.7156 O   0  0  0  0  0  0  0  0  0  0  0  0
    7.6253  -14.1047   24.8622 C   0  0  0  0  0  0  0  0  0  0  0  0
    8.6347  -14.8250   23.9750 C   0  0  2  0  0  0  0  0  0  0  0  0
    8.0288  -15.0340   22.6766 N   0  0  0  0  0  0  0  0  0  0  0  0
    8.9480  -16.1132   24.6028 C   0  0  0  0  0  0  0  0  0  0  0  0
    8.1111  -17.0370   24.5720 O   0  0  0  0  0  0  0  0  0  0  0  0
   11.8952  -18.0978   25.6125 C   0  0  0  0  0  0  0  0  0  0  0  0
   10.4610  -17.6443   25.8728 C   0  0  2  0  0  0  0  0  0  0  0  0
   10.1919  -16.3707   25.2635 N   0  0  0  0  0  0  0  0  0  0  0  0
   10.2911  -17.5414   27.3370 C   0  0  0  0  0  0  0  0  0  0  0  0
    9.9516  -16.4515   27.8890 O   0  0  0  0  0  0  0  0  0  0  0  0
   10.4999  -18.6391   28.1455 O   0  0  0  0  0  0  0  0  0  0  0  0
  2  1  1  0
  2  4  1  0
  3  2  2  0
  5  4  1  0
  5  6  1  0
  6  7  1  6
  8  6  1  0
  8 12  1  0
  9  8  2  0
 11 12  1  0
 11 13  1  0
 11 10  1  1
 13 17  1  0
 14 13  2  0
 16 15  1  1
 16 18  1  0
 17 16  1  0
 18 19  2  0
 18 20  1  0
M  END
$$$$
