QAA.pdb
     RDKit          3D

 20 19  0  0  1  0  0  0  0  0999 V2000
   10.5383  -13.9001   17.7853 N   0  0  0  0  0  0  0  0  0  0  0  0
   10.3535  -13.1508   18.9834 C   0  0  0  0  0  0  0  0  0  0  0  0
   11.2913  -12.9718   19.8104 O   0  0  0  0  0  0  0  0  0  0  0  0
    8.9990  -12.5760   19.2347 C   0  0  0  0  0  0  0  0  0  0  0  0
    8.5242  -13.0340   20.5964 C   0  0  0  0  0  0  0  0  0  0  0  0
    8.4068  -14.5354   20.5979 C   0  0  2  0  0  0  0  0  0  0  0  0
    7.3563  -14.9160   19.6984 N   0  0  0  0  0  0  0  0  0  0  0  0
    8.1650  -14.9870   21.9917 C   0  0  0  0  0  0  0  0  0  0  0  0
    7.0530  -14.7256   22.5038 O   0  0  0  0  0  0  0  0  0  0  0  0
    9.3187  -17.6161   24.2011 C   0  0  0  0  0  0  0  0  0  0  0  0
    8.7874  -16.1911   24.0910 C   0  0  2  0  0  0  0  0  0  0  0  0
    9.1067  -15.6893   22.7707 N   0  0  0  0  0  0  0  0  0  0  0  0
    9.4532  -15.3814   25.1170 C   0  0  0  0  0  0  0  0  0  0  0  0
   10.6653  -15.1121   25.0035 O   0  0  0  0  0  0  0  0  0  0  0  0
    8.4779  -13.0541   27.8838 C   0  0  0  0  0  0  0  0  0  0  0  0
    9.4411  -14.0380   27.2245 C   0  0  2  0  0  0  0  0  0  0  0  0
    8.7686  -14.8729   26.2673 N   0  0  0  0  0  0  0  0  0  0  0  0
   10.0174  -14.8750   28.2972 C   0  0  0  0  0  0  0  0  0  0  0  0
    9.7134  -16.1003   28.4161 O   0  0  0  0  0  0  0  0  0  0  0  0
   10.9081  -14.3380   29.2028 O   0  0  0  0  0  0  0  0  0  0  0  0
  2  1  1  0
  2  4  1  0
  3  2  2  0
  5  4  1  0
  5  6  1  0
  6  7  1  6
  8  6  1  0
  8 12  1  0
  9  8  2  0
 11 12  1  0
 11 13  1  0
 11 10  1  6
 13 17  1  0
 14 13  2  0
 16 15  1  1
 16 18  1  0
 17 16  1  0
 18 19  2  0
 18 20  1  0
M  END
$$$$
