QAA.pdb
     RDKit          3D

 20 19  0  0  1  0  0  0  0  0999 V2000
    8.2628  -12.2680   18.2695 N   0  0  0  0  0  0  0  0  0  0  0  0
    8.0904  -13.6146   17.8360 C   0  0  0  0  0  0  0  0  0  0  0  0
    8.0281  -13.9193   16.6118 O   0  0  0  0  0  0  0  0  0  0  0  0
    7.9842  -14.6688   18.8875 C   0  0  0  0  0  0  0  0  0  0  0  0
    8.1227  -14.0142   20.2445 C   0  0  0  0  0  0  0  0  0  0  0  0
    8.1868  -15.0835   21.3031 C   0  0  2  0  0  0  0  0  0  0  0  0
    7.0387  -15.9329   21.1697 N   0  0  0  0  0  0  0  0  0  0  0  0
    8.2669  -14.4257   22.6320 C   0  0  0  0  0  0  0  0  0  0  0  0
    9.2947  -13.7597   22.8910 O   0  0  0  0  0  0  0  0  0  0  0  0
    6.1655  -13.2436   25.3520 C   0  0  0  0  0  0  0  0  0  0  0  0
    7.4464  -13.9648   24.9469 C   0  0  2  0  0  0  0  0  0  0  0  0
    7.2608  -14.5048   23.6161 N   0  0  0  0  0  0  0  0  0  0  0  0
    7.6762  -15.0491   25.9077 C   0  0  0  0  0  0  0  0  0  0  0  0
    7.8147  -14.7849   27.1183 O   0  0  0  0  0  0  0  0  0  0  0  0
    7.1255  -18.7250   26.0893 C   0  0  0  0  0  0  0  0  0  0  0  0
    7.8895  -17.4683   26.4983 C   0  0  2  0  0  0  0  0  0  0  0  0
    7.7514  -16.4252   25.5191 N   0  0  0  0  0  0  0  0  0  0  0  0
    9.3130  -17.8421   26.6299 C   0  0  0  0  0  0  0  0  0  0  0  0
   10.1947  -17.3769   25.8464 O   0  0  0  0  0  0  0  0  0  0  0  0
    9.7199  -18.7143   27.6178 O   0  0  0  0  0  0  0  0  0  0  0  0
  2  1  1  0
  2  4  1  0
  3  2  2  0
  5  4  1  0
  5  6  1  0
  6  7  1  1
  8  6  1  0
  8 12  1  0
  9  8  2  0
 11 12  1  0
 11 13  1  0
 11 10  1  1
 13 17  1  0
 14 13  2  0
 16 15  1  6
 16 18  1  0
 17 16  1  0
 18 19  2  0
 18 20  1  0
M  END
$$$$
