QAA.pdb
     RDKit          3D

 20 19  0  0  1  0  0  0  0  0999 V2000
    5.2008  -19.1138   22.8927 N   0  0  0  0  0  0  0  0  0  0  0  0
    5.1282  -18.3572   21.6872 C   0  0  0  0  0  0  0  0  0  0  0  0
    5.0254  -18.9108   20.5565 O   0  0  0  0  0  0  0  0  0  0  0  0
    5.1779  -16.8699   21.8030 C   0  0  0  0  0  0  0  0  0  0  0  0
    6.3181  -16.4943   22.7241 C   0  0  0  0  0  0  0  0  0  0  0  0
    6.8716  -15.1583   22.3033 C   0  0  2  0  0  0  0  0  0  0  0  0
    7.5977  -15.3260   21.0777 N   0  0  0  0  0  0  0  0  0  0  0  0
    7.7143  -14.6299   23.4059 C   0  0  0  0  0  0  0  0  0  0  0  0
    8.9299  -14.9290   23.4042 O   0  0  0  0  0  0  0  0  0  0  0  0
    7.3102  -12.3303   26.3455 C   0  0  0  0  0  0  0  0  0  0  0  0
    8.0959  -13.3329   25.5074 C   0  0  2  0  0  0  0  0  0  0  0  0
    7.2319  -13.8154   24.4502 N   0  0  0  0  0  0  0  0  0  0  0  0
    8.4931  -14.4399   26.3840 C   0  0  0  0  0  0  0  0  0  0  0  0
    7.6409  -15.2692   26.7591 O   0  0  0  0  0  0  0  0  0  0  0  0
   11.6018  -16.2539   27.3201 C   0  0  0  0  0  0  0  0  0  0  0  0
   10.2007  -15.7493   27.6553 C   0  0  2  0  0  0  0  0  0  0  0  0
    9.8377  -14.6216   26.8414 N   0  0  0  0  0  0  0  0  0  0  0  0
   10.2041  -15.3548   29.0793 C   0  0  0  0  0  0  0  0  0  0  0  0
    9.9901  -14.1566   29.4347 O   0  0  0  0  0  0  0  0  0  0  0  0
   10.4426  -16.2898   30.0647 O   0  0  0  0  0  0  0  0  0  0  0  0
  2  1  1  0
  2  4  1  0
  3  2  2  0
  5  4  1  0
  5  6  1  0
  6  7  1  6
  8  6  1  0
  8 12  1  0
  9  8  2  0
 11 12  1  0
 11 13  1  0
 11 10  1  1
 13 17  1  0
 14 13  2  0
 16 15  1  6
 16 18  1  0
 17 16  1  0
 18 19  2  0
 18 20  1  0
M  END
$$$$
