QAA.pdb
     RDKit          3D

 20 19  0  0  1  0  0  0  0  0999 V2000
   10.3734  -18.9346   17.0856 N   0  0  0  0  0  0  0  0  0  0  0  0
   10.4633  -18.5014   15.7308 C   0  0  0  0  0  0  0  0  0  0  0  0
   10.8596  -19.2689   14.8093 O   0  0  0  0  0  0  0  0  0  0  0  0
   10.0695  -17.0934   15.4300 C   0  0  0  0  0  0  0  0  0  0  0  0
    8.7458  -16.8067   16.1044 C   0  0  0  0  0  0  0  0  0  0  0  0
    8.3099  -15.4071   15.7590 C   0  0  2  0  0  0  0  0  0  0  0  0
    8.9779  -15.0003   14.5566 N   0  0  0  0  0  0  0  0  0  0  0  0
    8.6096  -14.5226   16.9134 C   0  0  0  0  0  0  0  0  0  0  0  0
    9.7799  -14.0935   17.0298 O   0  0  0  0  0  0  0  0  0  0  0  0
    6.7762  -12.7741   19.6606 C   0  0  0  0  0  0  0  0  0  0  0  0
    8.0359  -13.3976   19.0697 C   0  0  2  0  0  0  0  0  0  0  0  0
    7.6614  -14.1376   17.8827 N   0  0  0  0  0  0  0  0  0  0  0  0
    8.6047  -14.3026   20.0743 C   0  0  0  0  0  0  0  0  0  0  0  0
    9.0274  -13.8429   21.1535 O   0  0  0  0  0  0  0  0  0  0  0  0
    8.5964  -18.0031   20.7531 C   0  0  0  0  0  0  0  0  0  0  0  0
    9.1411  -16.5883   20.9314 C   0  0  2  0  0  0  0  0  0  0  0  0
    8.7018  -15.7173   19.8758 N   0  0  0  0  0  0  0  0  0  0  0  0
   10.6158  -16.6799   20.9199 C   0  0  0  0  0  0  0  0  0  0  0  0
   11.3093  -16.0818   20.0429 O   0  0  0  0  0  0  0  0  0  0  0  0
   11.2789  -17.4254   21.8720 O   0  0  0  0  0  0  0  0  0  0  0  0
  2  1  1  0
  2  4  1  0
  3  2  2  0
  5  4  1  0
  5  6  1  0
  6  7  1  6
  8  6  1  0
  8 12  1  0
  9  8  2  0
 11 12  1  0
 11 13  1  0
 11 10  1  1
 13 17  1  0
 14 13  2  0
 16 15  1  6
 16 18  1  0
 17 16  1  0
 18 19  2  0
 18 20  1  0
M  END
$$$$
