QAA.pdb
     RDKit          3D

 20 19  0  0  1  0  0  0  0  0999 V2000
   10.6246  -17.5155   19.5494 N   0  0  0  0  0  0  0  0  0  0  0  0
    9.6581  -18.5146   19.8640 C   0  0  0  0  0  0  0  0  0  0  0  0
    9.4749  -19.5225   19.1252 O   0  0  0  0  0  0  0  0  0  0  0  0
    8.8579  -18.3310   21.1106 C   0  0  0  0  0  0  0  0  0  0  0  0
    9.4375  -17.1716   21.8911 C   0  0  0  0  0  0  0  0  0  0  0  0
    8.5063  -15.9926   21.7864 C   0  0  2  0  0  0  0  0  0  0  0  0
    8.7709  -15.3048   20.5558 N   0  0  0  0  0  0  0  0  0  0  0  0
    8.6998  -15.1326   22.9814 C   0  0  0  0  0  0  0  0  0  0  0  0
    9.7414  -14.4406   23.0382 O   0  0  0  0  0  0  0  0  0  0  0  0
    6.6643  -13.9657   25.8884 C   0  0  0  0  0  0  0  0  0  0  0  0
    7.9956  -14.1497   25.1682 C   0  0  2  0  0  0  0  0  0  0  0  0
    7.7864  -15.0477   24.0516 N   0  0  0  0  0  0  0  0  0  0  0  0
    8.9457  -14.7352   26.1201 C   0  0  0  0  0  0  0  0  0  0  0  0
    9.2106  -15.9522   26.0614 O   0  0  0  0  0  0  0  0  0  0  0  0
   11.1127  -13.5492   29.0171 C   0  0  0  0  0  0  0  0  0  0  0  0
   10.5844  -14.5562   27.9987 C   0  0  2  0  0  0  0  0  0  0  0  0
    9.5991  -13.9652   27.1352 N   0  0  0  0  0  0  0  0  0  0  0  0
    9.9784  -15.6710   28.7558 C   0  0  0  0  0  0  0  0  0  0  0  0
    8.7216  -15.7752   28.8880 O   0  0  0  0  0  0  0  0  0  0  0  0
   10.7732  -16.6335   29.3422 O   0  0  0  0  0  0  0  0  0  0  0  0
  2  1  1  0
  2  4  1  0
  3  2  2  0
  5  4  1  0
  5  6  1  0
  6  7  1  6
  8  6  1  0
  8 12  1  0
  9  8  2  0
 11 12  1  0
 11 13  1  0
 11 10  1  1
 13 17  1  0
 14 13  2  0
 16 15  1  1
 16 18  1  0
 17 16  1  0
 18 19  2  0
 18 20  1  0
M  END
$$$$
