QAA.pdb
     RDKit          3D

 20 19  0  0  1  0  0  0  0  0999 V2000
    9.6869  -14.5240   16.3107 N   0  0  0  0  0  0  0  0  0  0  0  0
    8.3142  -14.1542   16.2096 C   0  0  0  0  0  0  0  0  0  0  0  0
    7.6143  -14.4547   15.2021 O   0  0  0  0  0  0  0  0  0  0  0  0
    7.7207  -13.3904   17.3464 C   0  0  0  0  0  0  0  0  0  0  0  0
    8.8051  -13.1211   18.3668 C   0  0  0  0  0  0  0  0  0  0  0  0
    9.0599  -14.3770   19.1579 C   0  0  2  0  0  0  0  0  0  0  0  0
    8.0577  -15.3458   18.8193 N   0  0  0  0  0  0  0  0  0  0  0  0
    9.0634  -14.0308   20.6020 C   0  0  0  0  0  0  0  0  0  0  0  0
    9.9359  -13.2293   21.0064 O   0  0  0  0  0  0  0  0  0  0  0  0
    6.9140  -14.4467   23.6081 C   0  0  0  0  0  0  0  0  0  0  0  0
    8.2872  -14.2999   22.9619 C   0  0  2  0  0  0  0  0  0  0  0  0
    8.1485  -14.5469   21.5418 N   0  0  0  0  0  0  0  0  0  0  0  0
    9.1785  -15.2959   23.5662 C   0  0  0  0  0  0  0  0  0  0  0  0
    9.3860  -15.2765   24.7955 O   0  0  0  0  0  0  0  0  0  0  0  0
   10.6184  -18.6336   22.7473 C   0  0  0  0  0  0  0  0  0  0  0  0
   10.7050  -17.2701   23.4284 C   0  0  2  0  0  0  0  0  0  0  0  0
    9.8370  -16.3115   22.8012 N   0  0  0  0  0  0  0  0  0  0  0  0
   12.1069  -16.8149   23.3248 C   0  0  0  0  0  0  0  0  0  0  0  0
   13.0454  -17.4201   23.9254 O   0  0  0  0  0  0  0  0  0  0  0  0
   12.4306  -15.7102   22.5653 O   0  0  0  0  0  0  0  0  0  0  0  0
  2  1  1  0
  2  4  1  0
  3  2  2  0
  5  4  1  0
  5  6  1  0
  6  7  1  1
  8  6  1  0
  8 12  1  0
  9  8  2  0
 11 12  1  0
 11 13  1  0
 11 10  1  1
 13 17  1  0
 14 13  2  0
 16 15  1  6
 16 18  1  0
 17 16  1  0
 18 19  2  0
 18 20  1  0
M  END
$$$$
