QAA.pdb
     RDKit          3D

 20 19  0  0  1  0  0  0  0  0999 V2000
    5.4721  -21.4748   24.2144 N   0  0  0  0  0  0  0  0  0  0  0  0
    5.9536  -20.1692   23.9066 C   0  0  0  0  0  0  0  0  0  0  0  0
    6.3738  -19.3841   24.8023 O   0  0  0  0  0  0  0  0  0  0  0  0
    5.9462  -19.7521   22.4734 C   0  0  0  0  0  0  0  0  0  0  0  0
    6.5546  -18.3708   22.3684 C   0  0  0  0  0  0  0  0  0  0  0  0
    6.5458  -17.9369   20.9262 C   0  0  2  0  0  0  0  0  0  0  0  0
    7.0269  -19.0191   20.1169 N   0  0  0  0  0  0  0  0  0  0  0  0
    7.3719  -16.7095   20.7991 C   0  0  0  0  0  0  0  0  0  0  0  0
    8.6166  -16.8401   20.8255 O   0  0  0  0  0  0  0  0  0  0  0  0
    6.8443  -13.0743   20.0666 C   0  0  0  0  0  0  0  0  0  0  0  0
    7.6938  -14.2439   20.5517 C   0  0  2  0  0  0  0  0  0  0  0  0
    6.8429  -15.4114   20.6512 N   0  0  0  0  0  0  0  0  0  0  0  0
    8.2320  -13.8935   21.8705 C   0  0  0  0  0  0  0  0  0  0  0  0
    9.0951  -12.9992   21.9696 O   0  0  0  0  0  0  0  0  0  0  0  0
    7.2202  -13.9952   25.3923 C   0  0  0  0  0  0  0  0  0  0  0  0
    8.3307  -14.1429   24.3554 C   0  0  2  0  0  0  0  0  0  0  0  0
    7.8085  -14.5392   23.0763 N   0  0  0  0  0  0  0  0  0  0  0  0
    9.2634  -15.1750   24.8537 C   0  0  0  0  0  0  0  0  0  0  0  0
    9.8535  -15.0508   25.9691 O   0  0  0  0  0  0  0  0  0  0  0  0
    9.5164  -16.3085   24.1100 O   0  0  0  0  0  0  0  0  0  0  0  0
  2  1  1  0
  2  4  1  0
  3  2  2  0
  5  4  1  0
  5  6  1  0
  6  7  1  6
  8  6  1  0
  8 12  1  0
  9  8  2  0
 11 12  1  0
 11 13  1  0
 11 10  1  1
 13 17  1  0
 14 13  2  0
 16 15  1  1
 16 18  1  0
 17 16  1  0
 18 19  2  0
 18 20  1  0
M  END
$$$$
