QAA.pdb
     RDKit          3D

 20 19  0  0  1  0  0  0  0  0999 V2000
    5.1200  -18.5384   19.2174 N   0  0  0  0  0  0  0  0  0  0  0  0
    6.3182  -19.2989   19.3476 C   0  0  0  0  0  0  0  0  0  0  0  0
    6.4992  -20.1009   20.3064 O   0  0  0  0  0  0  0  0  0  0  0  0
    7.3675  -19.1161   18.3017 C   0  0  0  0  0  0  0  0  0  0  0  0
    8.5865  -18.4906   18.9436 C   0  0  0  0  0  0  0  0  0  0  0  0
    8.4675  -16.9911   18.8694 C   0  0  2  0  0  0  0  0  0  0  0  0
    9.1089  -16.5371   17.6694 N   0  0  0  0  0  0  0  0  0  0  0  0
    9.0652  -16.4104   20.0985 C   0  0  0  0  0  0  0  0  0  0  0  0
   10.3139  -16.3604   20.1711 O   0  0  0  0  0  0  0  0  0  0  0  0
    7.8591  -14.6308   23.1715 C   0  0  0  0  0  0  0  0  0  0  0  0
    8.9463  -15.2865   22.3272 C   0  0  2  0  0  0  0  0  0  0  0  0
    8.3160  -15.9138   21.1844 N   0  0  0  0  0  0  0  0  0  0  0  0
    9.6139  -16.2956   23.1566 C   0  0  0  0  0  0  0  0  0  0  0  0
    9.0569  -17.3910   23.3676 O   0  0  0  0  0  0  0  0  0  0  0  0
   13.0889  -17.0216   24.3271 C   0  0  0  0  0  0  0  0  0  0  0  0
   11.5726  -17.1343   24.4629 C   0  0  2  0  0  0  0  0  0  0  0  0
   10.8998  -16.0835   23.7495 N   0  0  0  0  0  0  0  0  0  0  0  0
   11.2519  -17.0431   25.9024 C   0  0  0  0  0  0  0  0  0  0  0  0
   10.5393  -16.1011   26.3634 O   0  0  0  0  0  0  0  0  0  0  0  0
   11.7247  -17.9898   26.7869 O   0  0  0  0  0  0  0  0  0  0  0  0
  2  1  1  0
  2  4  1  0
  3  2  2  0
  5  4  1  0
  5  6  1  0
  6  7  1  6
  8  6  1  0
  8 12  1  0
  9  8  2  0
 11 12  1  0
 11 13  1  0
 11 10  1  1
 13 17  1  0
 14 13  2  0
 16 15  1  1
 16 18  1  0
 17 16  1  0
 18 19  2  0
 18 20  1  0
M  END
$$$$
