QND.pdb
     RDKit          3D

 26 25  0  0  1  0  0  0  0  0999 V2000
   16.8728  -14.3858  -14.3748 N   0  0  0  0  0  0  0  0  0  0  0  0
   17.5044  -14.0534  -15.5938 C   0  0  0  0  0  0  0  0  0  0  0  0
   18.2734  -14.8701  -16.1373 O   0  0  0  0  0  0  0  0  0  0  0  0
   17.2473  -12.7386  -16.2141 C   0  0  0  0  0  0  0  0  0  0  0  0
   18.2734  -11.7575  -15.6916 C   0  0  0  0  0  0  0  0  0  0  0  0
   19.1244  -11.2427  -16.8595 C   0  0  2  0  0  0  0  0  0  0  0  0
   19.7311  -12.4029  -17.4741 N   0  0  0  0  0  0  0  0  0  0  0  0
   20.1757  -10.3978  -16.2723 C   0  0  0  0  0  0  0  0  0  0  0  0
   19.9845   -9.8858  -15.1415 O   0  0  0  0  0  0  0  0  0  0  0  0
   24.6159   -7.6107  -15.4048 N   0  0  0  0  0  0  0  0  0  0  0  0
   24.7748   -8.6408  -16.3608 C   0  0  0  0  0  0  0  0  0  0  0  0
   25.9735   -8.8499  -16.7628 O   0  0  0  0  0  0  0  0  0  0  0  0
   23.7128   -9.4778  -16.9247 C   0  0  0  0  0  0  0  0  0  0  0  0
   22.3453   -9.2616  -16.3349 C   0  0  2  0  0  0  0  0  0  0  0  0
   21.4162  -10.1414  -16.9563 N   0  0  0  0  0  0  0  0  0  0  0  0
   21.9508   -7.8244  -16.4557 C   0  0  0  0  0  0  0  0  0  0  0  0
   21.7309   -7.2643  -17.5643 O   0  0  0  0  0  0  0  0  0  0  0  0
   21.8042   -7.0129  -15.3001 N   0  0  0  0  0  0  0  0  0  0  0  0
   21.4235   -5.5963  -15.3674 C   0  0  1  0  0  0  0  0  0  0  0  0
   19.9433   -5.4369  -15.2372 C   0  0  0  0  0  0  0  0  0  0  0  0
   19.5788   -4.0221  -15.2220 C   0  0  0  0  0  0  0  0  0  0  0  0
   20.3648   -3.1401  -15.5978 O   0  0  0  0  0  0  0  0  0  0  0  0
   22.0730   -4.9942  -14.1731 C   0  0  0  0  0  0  0  0  0  0  0  0
   22.1018   -3.7673  -13.9644 O   0  0  0  0  0  0  0  0  0  0  0  0
   18.3224   -3.6456  -14.7772 O   0  0  0  0  0  0  0  0  0  0  0  0
   22.6916   -5.7889  -13.2132 O   0  0  0  0  0  0  0  0  0  0  0  0
  2  3  2  0
  2  1  1  0
  4  2  1  0
  5  4  1  0
  6  5  1  0
  6  7  1  1
  8  9  2  0
  8  6  1  0
 10 11  1  0
 11 12  2  0
 11 13  1  0
 14 13  1  6
 14 16  1  0
 14 15  1  0
 15  8  1  0
 16 18  1  0
 17 16  2  0
 18 19  1  0
 19 23  1  0
 19 20  1  1
 21 20  1  0
 22 21  2  0
 23 24  2  0
 23 26  1  0
 25 21  1  0
M  END
$$$$
