QND.pdb
     RDKit          3D

 26 25  0  0  1  0  0  0  0  0999 V2000
   16.8260  -13.3731  -13.0285 N   0  0  0  0  0  0  0  0  0  0  0  0
   15.4367  -13.4166  -13.2799 C   0  0  0  0  0  0  0  0  0  0  0  0
   14.9854  -14.2001  -14.1378 O   0  0  0  0  0  0  0  0  0  0  0  0
   14.5300  -12.5314  -12.5223 C   0  0  0  0  0  0  0  0  0  0  0  0
   15.3503  -11.7679  -11.5061 C   0  0  0  0  0  0  0  0  0  0  0  0
   14.4182  -10.9041  -10.6469 C   0  0  2  0  0  0  0  0  0  0  0  0
   13.0913  -11.0431  -11.2054 N   0  0  0  0  0  0  0  0  0  0  0  0
   14.8696   -9.5132  -10.8063 C   0  0  0  0  0  0  0  0  0  0  0  0
   14.6291   -8.9147  -11.8840 O   0  0  0  0  0  0  0  0  0  0  0  0
   14.1860   -7.4086   -6.9882 N   0  0  0  0  0  0  0  0  0  0  0  0
   14.6423   -6.6132   -8.0648 C   0  0  0  0  0  0  0  0  0  0  0  0
   13.8177   -5.7332   -8.4982 O   0  0  0  0  0  0  0  0  0  0  0  0
   15.9500   -6.7004   -8.7197 C   0  0  0  0  0  0  0  0  0  0  0  0
   15.9700   -7.4742  -10.0103 C   0  0  2  0  0  0  0  0  0  0  0  0
   15.5785   -8.8192   -9.7632 N   0  0  0  0  0  0  0  0  0  0  0  0
   17.3158   -7.3724  -10.6541 C   0  0  0  0  0  0  0  0  0  0  0  0
   18.2420   -8.2022  -10.4422 O   0  0  0  0  0  0  0  0  0  0  0  0
   17.6125   -6.3128  -11.5510 N   0  0  0  0  0  0  0  0  0  0  0  0
   18.8305   -6.2835  -12.3706 C   0  0  1  0  0  0  0  0  0  0  0  0
   18.8625   -7.4397  -13.3169 C   0  0  0  0  0  0  0  0  0  0  0  0
   19.9737   -7.3040  -14.2558 C   0  0  0  0  0  0  0  0  0  0  0  0
   20.7658   -6.3520  -14.1986 O   0  0  0  0  0  0  0  0  0  0  0  0
   18.7019   -5.0288  -13.1579 C   0  0  0  0  0  0  0  0  0  0  0  0
   17.6033   -4.5142  -13.4370 O   0  0  0  0  0  0  0  0  0  0  0  0
   20.1557   -8.2604  -15.2408 O   0  0  0  0  0  0  0  0  0  0  0  0
   19.8252   -4.3568  -13.6294 O   0  0  0  0  0  0  0  0  0  0  0  0
  2  3  2  0
  2  1  1  0
  4  2  1  0
  5  4  1  0
  6  5  1  0
  6  7  1  6
  8  9  2  0
  8  6  1  0
 10 11  1  0
 11 12  2  0
 11 13  1  0
 14 13  1  1
 14 16  1  0
 14 15  1  0
 15  8  1  0
 16 18  1  0
 17 16  2  0
 18 19  1  0
 19 23  1  0
 19 20  1  6
 21 20  1  0
 22 21  2  0
 23 24  2  0
 23 26  1  0
 25 21  1  0
M  END
$$$$
