QND.pdb
     RDKit          3D

 26 25  0  0  1  0  0  0  0  0999 V2000
   16.4257  -15.2624  -15.1751 N   0  0  0  0  0  0  0  0  0  0  0  0
   15.1408  -14.7073  -14.9847 C   0  0  0  0  0  0  0  0  0  0  0  0
   14.1454  -15.4547  -14.9181 O   0  0  0  0  0  0  0  0  0  0  0  0
   14.9885  -13.2437  -14.8662 C   0  0  0  0  0  0  0  0  0  0  0  0
   16.3567  -12.6113  -14.9946 C   0  0  0  0  0  0  0  0  0  0  0  0
   16.2516  -11.3434  -15.8518 C   0  0  2  0  0  0  0  0  0  0  0  0
   16.6527  -11.7135  -17.1911 N   0  0  0  0  0  0  0  0  0  0  0  0
   17.2209  -10.3834  -15.3016 C   0  0  0  0  0  0  0  0  0  0  0  0
   16.9829   -9.8463  -14.1915 O   0  0  0  0  0  0  0  0  0  0  0  0
   21.4404   -7.3388  -14.3518 N   0  0  0  0  0  0  0  0  0  0  0  0
   21.6741   -8.6674  -14.7766 C   0  0  0  0  0  0  0  0  0  0  0  0
   22.8656   -9.1072  -14.6059 O   0  0  0  0  0  0  0  0  0  0  0  0
   20.6955   -9.5732  -15.3836 C   0  0  0  0  0  0  0  0  0  0  0  0
   19.2805   -9.0615  -15.4127 C   0  0  2  0  0  0  0  0  0  0  0  0
   18.4333  -10.0424  -15.9987 N   0  0  0  0  0  0  0  0  0  0  0  0
   19.2201   -7.7466  -16.1220 C   0  0  0  0  0  0  0  0  0  0  0  0
   19.3336   -7.6365  -17.3735 O   0  0  0  0  0  0  0  0  0  0  0  0
   19.0278   -6.5403  -15.3986 N   0  0  0  0  0  0  0  0  0  0  0  0
   18.8215   -5.2439  -16.0564 C   0  0  1  0  0  0  0  0  0  0  0  0
   17.7571   -4.4584  -15.3613 C   0  0  0  0  0  0  0  0  0  0  0  0
   17.6444   -3.1218  -15.9407 C   0  0  0  0  0  0  0  0  0  0  0  0
   18.3495   -2.7608  -16.8944 O   0  0  0  0  0  0  0  0  0  0  0  0
   20.1208   -4.5427  -15.8805 C   0  0  0  0  0  0  0  0  0  0  0  0
   20.8759   -4.7489  -14.9125 O   0  0  0  0  0  0  0  0  0  0  0  0
   16.7274   -2.2259  -15.4169 O   0  0  0  0  0  0  0  0  0  0  0  0
   20.5633   -3.6043  -16.8075 O   0  0  0  0  0  0  0  0  0  0  0  0
  2  3  2  0
  2  1  1  0
  4  2  1  0
  5  4  1  0
  6  5  1  0
  6  7  1  6
  8  9  2  0
  8  6  1  0
 10 11  1  0
 11 12  2  0
 11 13  1  0
 14 13  1  6
 14 16  1  0
 14 15  1  0
 15  8  1  0
 16 18  1  0
 17 16  2  0
 18 19  1  0
 19 23  1  0
 19 20  1  1
 21 20  1  0
 22 21  2  0
 23 24  2  0
 23 26  1  0
 25 21  1  0
M  END
$$$$
