QND.pdb
     RDKit          3D

 26 25  0  0  1  0  0  0  0  0999 V2000
   17.4914  -18.4857  -14.3269 N   0  0  0  0  0  0  0  0  0  0  0  0
   17.7023  -18.3979  -15.7209 C   0  0  0  0  0  0  0  0  0  0  0  0
   17.6167  -19.4213  -16.4273 O   0  0  0  0  0  0  0  0  0  0  0  0
   18.0228  -17.0916  -16.3295 C   0  0  0  0  0  0  0  0  0  0  0  0
   18.1271  -16.0646  -15.2238 C   0  0  0  0  0  0  0  0  0  0  0  0
   17.5204  -14.7395  -15.7026 C   0  0  2  0  0  0  0  0  0  0  0  0
   16.6293  -15.0618  -16.7953 N   0  0  0  0  0  0  0  0  0  0  0  0
   18.6363  -13.9258  -16.2091 C   0  0  0  0  0  0  0  0  0  0  0  0
   19.5390  -13.5674  -15.4128 O   0  0  0  0  0  0  0  0  0  0  0  0
   22.9948  -12.3634  -19.3819 N   0  0  0  0  0  0  0  0  0  0  0  0
   21.6001  -12.2863  -19.6031 C   0  0  0  0  0  0  0  0  0  0  0  0
   21.2064  -11.3303  -20.3603 O   0  0  0  0  0  0  0  0  0  0  0  0
   20.5800  -13.1843  -19.0559 C   0  0  0  0  0  0  0  0  0  0  0  0
   19.7408  -12.6028  -17.9503 C   0  0  2  0  0  0  0  0  0  0  0  0
   18.7229  -13.5288  -17.5901 N   0  0  0  0  0  0  0  0  0  0  0  0
   19.1941  -11.2728  -18.3603 C   0  0  0  0  0  0  0  0  0  0  0  0
   18.1592  -11.1458  -19.0702 O   0  0  0  0  0  0  0  0  0  0  0  0
   19.8329  -10.0706  -17.9575 N   0  0  0  0  0  0  0  0  0  0  0  0
   19.1080   -8.8054  -17.7845 C   0  0  1  0  0  0  0  0  0  0  0  0
   18.0721   -8.9283  -16.7144 C   0  0  0  0  0  0  0  0  0  0  0  0
   17.3686   -7.6606  -16.5331 C   0  0  0  0  0  0  0  0  0  0  0  0
   16.9840   -6.9823  -17.4969 O   0  0  0  0  0  0  0  0  0  0  0  0
   20.1541   -7.8536  -17.3259 C   0  0  0  0  0  0  0  0  0  0  0  0
   19.9159   -6.6599  -17.0648 O   0  0  0  0  0  0  0  0  0  0  0  0
   17.1197   -7.1952  -15.2526 O   0  0  0  0  0  0  0  0  0  0  0  0
   21.4749   -8.2595  -17.1636 O   0  0  0  0  0  0  0  0  0  0  0  0
  2  3  2  0
  2  1  1  0
  4  2  1  0
  5  4  1  0
  6  5  1  0
  6  7  1  6
  8  9  2  0
  8  6  1  0
 10 11  1  0
 11 12  2  0
 11 13  1  0
 14 13  1  6
 14 16  1  0
 14 15  1  0
 15  8  1  0
 16 18  1  0
 17 16  2  0
 18 19  1  0
 19 23  1  0
 19 20  1  1
 21 20  1  0
 22 21  2  0
 23 24  2  0
 23 26  1  0
 25 21  1  0
M  END
$$$$
