QND.pdb
     RDKit          3D

 26 25  0  0  1  0  0  0  0  0999 V2000
   27.1741  -17.5536  -18.2125 N   0  0  0  0  0  0  0  0  0  0  0  0
   28.5288  -17.9465  -18.1376 C   0  0  0  0  0  0  0  0  0  0  0  0
   29.3963  -17.3062  -18.7632 O   0  0  0  0  0  0  0  0  0  0  0  0
   28.9056  -19.1145  -17.3171 C   0  0  0  0  0  0  0  0  0  0  0  0
   27.6649  -19.6245  -16.6178 C   0  0  0  0  0  0  0  0  0  0  0  0
   28.0339  -20.8300  -15.7439 C   0  0  2  0  0  0  0  0  0  0  0  0
   28.2808  -21.9351  -16.6438 N   0  0  0  0  0  0  0  0  0  0  0  0
   26.8523  -21.1285  -14.9201 C   0  0  0  0  0  0  0  0  0  0  0  0
   25.9502  -21.8633  -15.3930 O   0  0  0  0  0  0  0  0  0  0  0  0
   23.2710  -21.5220  -11.0596 N   0  0  0  0  0  0  0  0  0  0  0  0
   24.5251  -21.0564  -10.6006 C   0  0  0  0  0  0  0  0  0  0  0  0
   24.6504  -20.9497   -9.3297 O   0  0  0  0  0  0  0  0  0  0  0  0
   25.6760  -20.6912  -11.4304 C   0  0  0  0  0  0  0  0  0  0  0  0
   25.4748  -20.8546  -12.9128 C   0  0  2  0  0  0  0  0  0  0  0  0
   26.7008  -20.6027  -13.5886 N   0  0  0  0  0  0  0  0  0  0  0  0
   24.3625  -19.9734  -13.3845 C   0  0  0  0  0  0  0  0  0  0  0  0
   24.5320  -18.7634  -13.6979 O   0  0  0  0  0  0  0  0  0  0  0  0
   23.0396  -20.4750  -13.5015 N   0  0  0  0  0  0  0  0  0  0  0  0
   21.9634  -19.7294  -14.1663 C   0  0  1  0  0  0  0  0  0  0  0  0
   22.0552  -19.8737  -15.6509 C   0  0  0  0  0  0  0  0  0  0  0  0
   22.0890  -18.5616  -16.2930 C   0  0  0  0  0  0  0  0  0  0  0  0
   22.0080  -17.5113  -15.6394 O   0  0  0  0  0  0  0  0  0  0  0  0
   20.7217  -20.4010  -13.6996 C   0  0  0  0  0  0  0  0  0  0  0  0
   20.6443  -21.6300  -13.5168 O   0  0  0  0  0  0  0  0  0  0  0  0
   22.2148  -18.4785  -17.6697 O   0  0  0  0  0  0  0  0  0  0  0  0
   19.5644  -19.6737  -13.4399 O   0  0  0  0  0  0  0  0  0  0  0  0
  2  3  2  0
  2  1  1  0
  4  2  1  0
  5  4  1  0
  6  5  1  0
  6  7  1  6
  8  9  2  0
  8  6  1  0
 10 11  1  0
 11 12  2  0
 11 13  1  0
 14 13  1  1
 14 16  1  0
 14 15  1  0
 15  8  1  0
 16 18  1  0
 17 16  2  0
 18 19  1  0
 19 23  1  0
 19 20  1  6
 21 20  1  0
 22 21  2  0
 23 24  2  0
 23 26  1  0
 25 21  1  0
M  END
$$$$
