QND.pdb
     RDKit          3D

 26 25  0  0  1  0  0  0  0  0999 V2000
   25.9651  -19.5107  -21.3742 N   0  0  0  0  0  0  0  0  0  0  0  0
   25.3355  -18.2474  -21.3202 C   0  0  0  0  0  0  0  0  0  0  0  0
   26.0234  -17.2088  -21.3619 O   0  0  0  0  0  0  0  0  0  0  0  0
   23.8650  -18.1689  -21.2145 C   0  0  0  0  0  0  0  0  0  0  0  0
   23.3946  -19.2743  -20.2952 C   0  0  0  0  0  0  0  0  0  0  0  0
   22.6933  -18.6583  -19.0779 C   0  0  2  0  0  0  0  0  0  0  0  0
   23.3381  -17.3885  -18.8258 N   0  0  0  0  0  0  0  0  0  0  0  0
   22.9440  -19.5641  -17.9463 C   0  0  0  0  0  0  0  0  0  0  0  0
   22.6877  -20.7866  -18.0766 O   0  0  0  0  0  0  0  0  0  0  0  0
   26.9901  -20.9175  -15.9314 N   0  0  0  0  0  0  0  0  0  0  0  0
   26.1613  -19.7881  -15.7369 C   0  0  0  0  0  0  0  0  0  0  0  0
   26.5246  -18.7178  -16.3408 O   0  0  0  0  0  0  0  0  0  0  0  0
   24.9450  -19.7297  -14.9222 C   0  0  0  0  0  0  0  0  0  0  0  0
   23.6676  -20.0401  -15.6546 C   0  0  2  0  0  0  0  0  0  0  0  0
   23.4742  -19.0894  -16.6949 N   0  0  0  0  0  0  0  0  0  0  0  0
   22.5207  -20.0904  -14.6965 C   0  0  0  0  0  0  0  0  0  0  0  0
   22.6739  -20.1610  -13.4464 O   0  0  0  0  0  0  0  0  0  0  0  0
   21.1813  -20.0599  -15.1661 N   0  0  0  0  0  0  0  0  0  0  0  0
   20.0229  -20.0653  -14.2638 C   0  0  1  0  0  0  0  0  0  0  0  0
   19.1303  -18.8984  -14.5376 C   0  0  0  0  0  0  0  0  0  0  0  0
   17.8953  -19.0043  -13.7640 C   0  0  0  0  0  0  0  0  0  0  0  0
   17.8169  -19.7147  -12.7511 O   0  0  0  0  0  0  0  0  0  0  0  0
   19.2970  -21.3127  -14.6210 C   0  0  0  0  0  0  0  0  0  0  0  0
   18.2586  -21.6814  -14.0418 O   0  0  0  0  0  0  0  0  0  0  0  0
   16.7756  -18.2950  -14.1655 O   0  0  0  0  0  0  0  0  0  0  0  0
   19.7527  -22.1438  -15.6396 O   0  0  0  0  0  0  0  0  0  0  0  0
  2  3  2  0
  2  1  1  0
  4  2  1  0
  5  4  1  0
  6  5  1  0
  6  7  1  1
  8  9  2  0
  8  6  1  0
 10 11  1  0
 11 12  2  0
 11 13  1  0
 14 13  1  1
 14 16  1  0
 14 15  1  0
 15  8  1  0
 16 18  1  0
 17 16  2  0
 18 19  1  0
 19 23  1  0
 19 20  1  6
 21 20  1  0
 22 21  2  0
 23 24  2  0
 23 26  1  0
 25 21  1  0
M  END
$$$$
