QND.pdb
     RDKit          3D

 26 25  0  0  1  0  0  0  0  0999 V2000
   27.7700  -19.2806  -18.8055 N   0  0  0  0  0  0  0  0  0  0  0  0
   28.3900  -19.3293  -17.5373 C   0  0  0  0  0  0  0  0  0  0  0  0
   29.5385  -18.8680  -17.3898 O   0  0  0  0  0  0  0  0  0  0  0  0
   27.6701  -19.9274  -16.3955 C   0  0  0  0  0  0  0  0  0  0  0  0
   26.4220  -20.6016  -16.9209 C   0  0  0  0  0  0  0  0  0  0  0  0
   25.1853  -19.8697  -16.3841 C   0  0  2  0  0  0  0  0  0  0  0  0
   25.6453  -18.5973  -15.8729 N   0  0  0  0  0  0  0  0  0  0  0  0
   24.6667  -20.6816  -15.2724 C   0  0  0  0  0  0  0  0  0  0  0  0
   24.2625  -21.8474  -15.5068 O   0  0  0  0  0  0  0  0  0  0  0  0
   25.8175  -22.4537  -11.7772 N   0  0  0  0  0  0  0  0  0  0  0  0
   25.1909  -21.3888  -11.0891 C   0  0  0  0  0  0  0  0  0  0  0  0
   25.6033  -21.1761   -9.8945 O   0  0  0  0  0  0  0  0  0  0  0  0
   24.1313  -20.5199  -11.6075 C   0  0  0  0  0  0  0  0  0  0  0  0
   23.7050  -20.8036  -13.0226 C   0  0  2  0  0  0  0  0  0  0  0  0
   24.6094  -20.1783  -13.9249 N   0  0  0  0  0  0  0  0  0  0  0  0
   22.2883  -20.3733  -13.2324 C   0  0  0  0  0  0  0  0  0  0  0  0
   21.9524  -19.1661  -13.3769 O   0  0  0  0  0  0  0  0  0  0  0  0
   21.2394  -21.3288  -13.2788 N   0  0  0  0  0  0  0  0  0  0  0  0
   19.8384  -20.9593  -13.5171 C   0  0  1  0  0  0  0  0  0  0  0  0
   19.4545  -21.2186  -14.9379 C   0  0  0  0  0  0  0  0  0  0  0  0
   18.0366  -20.9341  -15.1466 C   0  0  0  0  0  0  0  0  0  0  0  0
   17.5390  -19.8378  -14.8507 O   0  0  0  0  0  0  0  0  0  0  0  0
   19.0707  -21.8836  -12.6414 C   0  0  0  0  0  0  0  0  0  0  0  0
   19.5017  -22.9971  -12.2891 O   0  0  0  0  0  0  0  0  0  0  0  0
   17.2173  -21.9099  -15.6895 O   0  0  0  0  0  0  0  0  0  0  0  0
   17.8093  -21.5414  -12.1644 O   0  0  0  0  0  0  0  0  0  0  0  0
  2  3  2  0
  2  1  1  0
  4  2  1  0
  5  4  1  0
  6  5  1  0
  6  7  1  1
  8  9  2  0
  8  6  1  0
 10 11  1  0
 11 12  2  0
 11 13  1  0
 14 13  1  1
 14 16  1  0
 14 15  1  0
 15  8  1  0
 16 18  1  0
 17 16  2  0
 18 19  1  0
 19 23  1  0
 19 20  1  6
 21 20  1  0
 22 21  2  0
 23 24  2  0
 23 26  1  0
 25 21  1  0
M  END
$$$$
