QND.pdb
     RDKit          3D

 26 25  0  0  1  0  0  0  0  0999 V2000
    9.9110  -10.9390  -10.3100 N   0  0  0  0  0  0  0  0  0  0  0  0
   10.9768  -11.7238   -9.8167 C   0  0  0  0  0  0  0  0  0  0  0  0
   10.7470  -12.8500   -9.3345 O   0  0  0  0  0  0  0  0  0  0  0  0
   12.3564  -11.2016   -9.8769 C   0  0  0  0  0  0  0  0  0  0  0  0
   12.3092   -9.7972  -10.4370 C   0  0  0  0  0  0  0  0  0  0  0  0
   13.5190   -9.5751  -11.3536 C   0  0  2  0  0  0  0  0  0  0  0  0
   14.4754  -10.6129  -11.0374 N   0  0  0  0  0  0  0  0  0  0  0  0
   14.0846   -8.2661  -10.9923 C   0  0  0  0  0  0  0  0  0  0  0  0
   13.3635   -7.2427  -11.0925 O   0  0  0  0  0  0  0  0  0  0  0  0
   17.2218   -4.3113   -9.3582 N   0  0  0  0  0  0  0  0  0  0  0  0
   17.3170   -5.5223   -8.6339 C   0  0  0  0  0  0  0  0  0  0  0  0
   17.9207   -5.4526   -7.5056 O   0  0  0  0  0  0  0  0  0  0  0  0
   16.7973   -6.8283   -9.0474 C   0  0  0  0  0  0  0  0  0  0  0  0
   15.9171   -6.8105  -10.2679 C   0  0  2  0  0  0  0  0  0  0  0  0
   15.4398   -8.1250  -10.5277 N   0  0  0  0  0  0  0  0  0  0  0  0
   16.6538   -6.2226  -11.4288 C   0  0  0  0  0  0  0  0  0  0  0  0
   17.6755   -6.7607  -11.9364 O   0  0  0  0  0  0  0  0  0  0  0  0
   16.2229   -5.0062  -12.0205 N   0  0  0  0  0  0  0  0  0  0  0  0
   16.8987   -4.4016  -13.1754 C   0  0  1  0  0  0  0  0  0  0  0  0
   16.2541   -4.8310  -14.4534 C   0  0  0  0  0  0  0  0  0  0  0  0
   16.8643   -4.1469  -15.5912 C   0  0  0  0  0  0  0  0  0  0  0  0
   17.7790   -3.3229  -15.4452 O   0  0  0  0  0  0  0  0  0  0  0  0
   16.6750   -2.9425  -12.9973 C   0  0  0  0  0  0  0  0  0  0  0  0
   15.8828   -2.4764  -12.1577 O   0  0  0  0  0  0  0  0  0  0  0  0
   16.4153   -4.4199  -16.8726 O   0  0  0  0  0  0  0  0  0  0  0  0
   17.3537   -2.0102  -13.7758 O   0  0  0  0  0  0  0  0  0  0  0  0
  2  3  2  0
  2  1  1  0
  4  2  1  0
  5  4  1  0
  6  5  1  0
  6  7  1  1
  8  9  2  0
  8  6  1  0
 10 11  1  0
 11 12  2  0
 11 13  1  0
 14 13  1  1
 14 16  1  0
 14 15  1  0
 15  8  1  0
 16 18  1  0
 17 16  2  0
 18 19  1  0
 19 23  1  0
 19 20  1  6
 21 20  1  0
 22 21  2  0
 23 24  2  0
 23 26  1  0
 25 21  1  0
M  END
$$$$
