QND.pdb
     RDKit          3D

 26 25  0  0  1  0  0  0  0  0999 V2000
   20.6456  -14.8088  -17.3620 N   0  0  0  0  0  0  0  0  0  0  0  0
   19.4298  -14.6260  -16.6666 C   0  0  0  0  0  0  0  0  0  0  0  0
   19.2588  -15.1748  -15.5606 O   0  0  0  0  0  0  0  0  0  0  0  0
   18.3704  -13.7847  -17.2577 C   0  0  0  0  0  0  0  0  0  0  0  0
   18.8154  -12.3406  -17.1875 C   0  0  0  0  0  0  0  0  0  0  0  0
   18.5467  -11.7944  -15.7795 C   0  0  2  0  0  0  0  0  0  0  0  0
   17.3398  -12.4371  -15.3082 N   0  0  0  0  0  0  0  0  0  0  0  0
   18.3027  -10.3514  -15.9287 C   0  0  0  0  0  0  0  0  0  0  0  0
   18.7970   -9.7490  -16.9137 O   0  0  0  0  0  0  0  0  0  0  0  0
   15.1819   -8.9714  -17.0695 N   0  0  0  0  0  0  0  0  0  0  0  0
   14.9312   -8.2478  -15.8806 C   0  0  0  0  0  0  0  0  0  0  0  0
   13.7069   -7.9382  -15.6625 O   0  0  0  0  0  0  0  0  0  0  0  0
   15.9258   -7.8264  -14.8907 C   0  0  0  0  0  0  0  0  0  0  0  0
   17.3454   -8.2164  -15.2026 C   0  0  2  0  0  0  0  0  0  0  0  0
   17.5144   -9.6109  -14.9787 N   0  0  0  0  0  0  0  0  0  0  0  0
   18.2980   -7.3831  -14.4063 C   0  0  0  0  0  0  0  0  0  0  0  0
   18.5269   -7.5837  -13.1822 O   0  0  0  0  0  0  0  0  0  0  0  0
   19.0000   -6.3070  -15.0102 N   0  0  0  0  0  0  0  0  0  0  0  0
   20.0052   -5.5125  -14.2930 C   0  0  1  0  0  0  0  0  0  0  0  0
   21.3402   -5.6206  -14.9560 C   0  0  0  0  0  0  0  0  0  0  0  0
   22.3114   -4.7483  -14.2996 C   0  0  0  0  0  0  0  0  0  0  0  0
   22.5489   -3.6046  -14.7149 O   0  0  0  0  0  0  0  0  0  0  0  0
   19.5193   -4.1139  -14.4288 C   0  0  0  0  0  0  0  0  0  0  0  0
   18.7551   -3.7482  -15.3410 O   0  0  0  0  0  0  0  0  0  0  0  0
   22.9907   -5.2027  -13.1815 O   0  0  0  0  0  0  0  0  0  0  0  0
   19.9030   -3.1279  -13.5253 O   0  0  0  0  0  0  0  0  0  0  0  0
  2  3  2  0
  2  1  1  0
  4  2  1  0
  5  4  1  0
  6  5  1  0
  6  7  1  6
  8  9  2  0
  8  6  1  0
 10 11  1  0
 11 12  2  0
 11 13  1  0
 14 13  1  1
 14 16  1  0
 14 15  1  0
 15  8  1  0
 16 18  1  0
 17 16  2  0
 18 19  1  0
 19 23  1  0
 19 20  1  6
 21 20  1  0
 22 21  2  0
 23 24  2  0
 23 26  1  0
 25 21  1  0
M  END
$$$$
