QND.pdb
     RDKit          3D

 26 25  0  0  1  0  0  0  0  0999 V2000
   14.2530  -12.4048  -15.4378 N   0  0  0  0  0  0  0  0  0  0  0  0
   15.3668  -13.1601  -15.0087 C   0  0  0  0  0  0  0  0  0  0  0  0
   15.2262  -14.3646  -14.7204 O   0  0  0  0  0  0  0  0  0  0  0  0
   16.6904  -12.5143  -14.9054 C   0  0  0  0  0  0  0  0  0  0  0  0
   16.5313  -11.0477  -15.2402 C   0  0  0  0  0  0  0  0  0  0  0  0
   17.8912  -10.3485  -15.1176 C   0  0  2  0  0  0  0  0  0  0  0  0
   18.7352  -11.2178  -14.3278 N   0  0  0  0  0  0  0  0  0  0  0  0
   17.6551   -9.0981  -14.3795 C   0  0  0  0  0  0  0  0  0  0  0  0
   16.9474   -8.2043  -14.9065 O   0  0  0  0  0  0  0  0  0  0  0  0
   17.7937   -5.1930  -10.7592 N   0  0  0  0  0  0  0  0  0  0  0  0
   18.0079   -6.4821  -10.2184 C   0  0  0  0  0  0  0  0  0  0  0  0
   18.0467   -6.5520   -8.9394 O   0  0  0  0  0  0  0  0  0  0  0  0
   18.1862   -7.7252  -10.9730 C   0  0  0  0  0  0  0  0  0  0  0  0
   17.9643   -7.6113  -12.4571 C   0  0  2  0  0  0  0  0  0  0  0  0
   18.2118   -8.8700  -13.0717 N   0  0  0  0  0  0  0  0  0  0  0  0
   18.8082   -6.5148  -13.0240 C   0  0  0  0  0  0  0  0  0  0  0  0
   18.4755   -5.2990  -12.9770 O   0  0  0  0  0  0  0  0  0  0  0  0
   20.0475   -6.8047  -13.6530 N   0  0  0  0  0  0  0  0  0  0  0  0
   20.7805   -5.8180  -14.4563 C   0  0  1  0  0  0  0  0  0  0  0  0
   21.7292   -5.0383  -13.6047 C   0  0  0  0  0  0  0  0  0  0  0  0
   21.2437   -3.6736  -13.4126 C   0  0  0  0  0  0  0  0  0  0  0  0
   20.2089   -3.2645  -13.9592 O   0  0  0  0  0  0  0  0  0  0  0  0
   21.5672   -6.6454  -15.4087 C   0  0  0  0  0  0  0  0  0  0  0  0
   22.2958   -6.1544  -16.2905 O   0  0  0  0  0  0  0  0  0  0  0  0
   21.9523   -2.8053  -12.5991 O   0  0  0  0  0  0  0  0  0  0  0  0
   21.5257   -8.0353  -15.3588 O   0  0  0  0  0  0  0  0  0  0  0  0
  2  3  2  0
  2  1  1  0
  4  2  1  0
  5  4  1  0
  6  5  1  0
  6  7  1  1
  8  9  2  0
  8  6  1  0
 10 11  1  0
 11 12  2  0
 11 13  1  0
 14 13  1  1
 14 16  1  0
 14 15  1  0
 15  8  1  0
 16 18  1  0
 17 16  2  0
 18 19  1  0
 19 23  1  0
 19 20  1  1
 21 20  1  0
 22 21  2  0
 23 24  2  0
 23 26  1  0
 25 21  1  0
M  END
$$$$
