QND.pdb
     RDKit          3D

 26 25  0  0  1  0  0  0  0  0999 V2000
   13.5260  -10.6411  -13.9456 N   0  0  0  0  0  0  0  0  0  0  0  0
   13.3446  -10.6162  -15.3462 C   0  0  0  0  0  0  0  0  0  0  0  0
   12.2663  -11.0006  -15.8394 O   0  0  0  0  0  0  0  0  0  0  0  0
   14.4365  -10.1340  -16.2150 C   0  0  0  0  0  0  0  0  0  0  0  0
   15.6449   -9.8543  -15.3490 C   0  0  0  0  0  0  0  0  0  0  0  0
   16.7637  -10.8418  -15.7043 C   0  0  2  0  0  0  0  0  0  0  0  0
   16.4771  -12.0676  -14.9923 N   0  0  0  0  0  0  0  0  0  0  0  0
   18.0141  -10.2619  -15.1904 C   0  0  0  0  0  0  0  0  0  0  0  0
   18.2166  -10.2526  -13.9509 O   0  0  0  0  0  0  0  0  0  0  0  0
   22.9156   -8.4083  -14.6061 N   0  0  0  0  0  0  0  0  0  0  0  0
   22.6932   -9.4191  -15.5700 C   0  0  0  0  0  0  0  0  0  0  0  0
   23.7393  -10.0235  -15.9974 O   0  0  0  0  0  0  0  0  0  0  0  0
   21.3981   -9.8328  -16.1160 C   0  0  0  0  0  0  0  0  0  0  0  0
   20.1978   -9.1888  -15.4764 C   0  0  2  0  0  0  0  0  0  0  0  0
   19.0113   -9.7053  -16.0668 N   0  0  0  0  0  0  0  0  0  0  0  0
   20.2937   -7.7000  -15.5777 C   0  0  0  0  0  0  0  0  0  0  0  0
   20.1590   -7.0766  -16.6660 O   0  0  0  0  0  0  0  0  0  0  0  0
   20.5460   -6.9093  -14.4260 N   0  0  0  0  0  0  0  0  0  0  0  0
   20.6708   -5.4472  -14.4781 C   0  0  1  0  0  0  0  0  0  0  0  0
   19.6392   -4.7946  -13.6160 C   0  0  0  0  0  0  0  0  0  0  0  0
   18.7490   -3.9619  -14.4218 C   0  0  0  0  0  0  0  0  0  0  0  0
   18.9358   -3.7886  -15.6351 O   0  0  0  0  0  0  0  0  0  0  0  0
   22.0130   -5.1817  -13.8963 C   0  0  0  0  0  0  0  0  0  0  0  0
   22.7225   -6.0738  -13.3956 O   0  0  0  0  0  0  0  0  0  0  0  0
   17.6636   -3.3448  -13.8226 O   0  0  0  0  0  0  0  0  0  0  0  0
   22.5507   -3.8986  -13.8834 O   0  0  0  0  0  0  0  0  0  0  0  0
  2  3  2  0
  2  1  1  0
  4  2  1  0
  5  4  1  0
  6  5  1  0
  6  7  1  1
  8  9  2  0
  8  6  1  0
 10 11  1  0
 11 12  2  0
 11 13  1  0
 14 13  1  6
 14 16  1  0
 14 15  1  0
 15  8  1  0
 16 18  1  0
 17 16  2  0
 18 19  1  0
 19 23  1  0
 19 20  1  1
 21 20  1  0
 22 21  2  0
 23 24  2  0
 23 26  1  0
 25 21  1  0
M  END
$$$$
