QND.pdb
     RDKit          3D

 26 25  0  0  1  0  0  0  0  0999 V2000
   27.9297  -23.2172  -17.6918 N   0  0  0  0  0  0  0  0  0  0  0  0
   29.0202  -22.3486  -17.4646 C   0  0  0  0  0  0  0  0  0  0  0  0
   29.8738  -22.1776  -18.3567 O   0  0  0  0  0  0  0  0  0  0  0  0
   29.1391  -21.6498  -16.1696 C   0  0  0  0  0  0  0  0  0  0  0  0
   28.0277  -22.1336  -15.2645 C   0  0  0  0  0  0  0  0  0  0  0  0
   26.7021  -21.4993  -15.7045 C   0  0  2  0  0  0  0  0  0  0  0  0
   26.9614  -20.0900  -15.9011 N   0  0  0  0  0  0  0  0  0  0  0  0
   25.7634  -21.6694  -14.5847 C   0  0  0  0  0  0  0  0  0  0  0  0
   25.4330  -22.8305  -14.2383 O   0  0  0  0  0  0  0  0  0  0  0  0
   25.4428  -22.2377  -10.5596 N   0  0  0  0  0  0  0  0  0  0  0  0
   25.2123  -20.8425  -10.5396 C   0  0  0  0  0  0  0  0  0  0  0  0
   25.5616  -20.2338   -9.4674 O   0  0  0  0  0  0  0  0  0  0  0  0
   24.6211  -20.0414  -11.6144 C   0  0  0  0  0  0  0  0  0  0  0  0
   24.2554  -20.8069  -12.8574 C   0  0  2  0  0  0  0  0  0  0  0  0
   25.2132  -20.5440  -13.8755 N   0  0  0  0  0  0  0  0  0  0  0  0
   22.8590  -20.4756  -13.2773 C   0  0  0  0  0  0  0  0  0  0  0  0
   22.4889  -19.3046  -13.5652 O   0  0  0  0  0  0  0  0  0  0  0  0
   21.8699  -21.4897  -13.3712 N   0  0  0  0  0  0  0  0  0  0  0  0
   20.5105  -21.2302  -13.8620 C   0  0  1  0  0  0  0  0  0  0  0  0
   20.3426  -21.7394  -15.2569 C   0  0  0  0  0  0  0  0  0  0  0  0
   18.9584  -21.5822  -15.6976 C   0  0  0  0  0  0  0  0  0  0  0  0
   18.3739  -20.4904  -15.6407 O   0  0  0  0  0  0  0  0  0  0  0  0
   19.6445  -22.0308  -12.9566 C   0  0  0  0  0  0  0  0  0  0  0  0
   19.9857  -23.1355  -12.4951 O   0  0  0  0  0  0  0  0  0  0  0  0
   18.2717  -22.6775  -16.1943 O   0  0  0  0  0  0  0  0  0  0  0  0
   18.3868  -21.5746  -12.5746 O   0  0  0  0  0  0  0  0  0  0  0  0
  2  3  2  0
  2  1  1  0
  4  2  1  0
  5  4  1  0
  6  5  1  0
  6  7  1  1
  8  9  2  0
  8  6  1  0
 10 11  1  0
 11 12  2  0
 11 13  1  0
 14 13  1  1
 14 16  1  0
 14 15  1  0
 15  8  1  0
 16 18  1  0
 17 16  2  0
 18 19  1  0
 19 23  1  0
 19 20  1  6
 21 20  1  0
 22 21  2  0
 23 24  2  0
 23 26  1  0
 25 21  1  0
M  END
$$$$
