QND.pdb
     RDKit          3D

 26 25  0  0  1  0  0  0  0  0999 V2000
   18.3124  -15.0724  -14.6174 N   0  0  0  0  0  0  0  0  0  0  0  0
   17.1615  -14.9561  -15.4281 C   0  0  0  0  0  0  0  0  0  0  0  0
   16.2815  -15.8379  -15.3867 O   0  0  0  0  0  0  0  0  0  0  0  0
   17.0114  -13.7885  -16.3189 C   0  0  0  0  0  0  0  0  0  0  0  0
   18.2456  -12.9245  -16.1825 C   0  0  0  0  0  0  0  0  0  0  0  0
   17.8302  -11.5080  -15.7653 C   0  0  2  0  0  0  0  0  0  0  0  0
   16.6122  -11.2040  -16.4835 N   0  0  0  0  0  0  0  0  0  0  0  0
   18.9002  -10.6062  -16.2190 C   0  0  0  0  0  0  0  0  0  0  0  0
   20.0563  -10.7482  -15.7491 O   0  0  0  0  0  0  0  0  0  0  0  0
   19.8508   -9.6097  -21.3355 N   0  0  0  0  0  0  0  0  0  0  0  0
   20.1732   -9.4584  -19.9668 C   0  0  0  0  0  0  0  0  0  0  0  0
   21.0156  -10.3009  -19.4947 O   0  0  0  0  0  0  0  0  0  0  0  0
   19.6421   -8.4434  -19.0534 C   0  0  0  0  0  0  0  0  0  0  0  0
   19.7671   -8.7700  -17.5898 C   0  0  2  0  0  0  0  0  0  0  0  0
   18.6601   -9.5665  -17.1852 N   0  0  0  0  0  0  0  0  0  0  0  0
   19.8998   -7.5144  -16.7887 C   0  0  0  0  0  0  0  0  0  0  0  0
   18.9650   -6.6764  -16.6670 O   0  0  0  0  0  0  0  0  0  0  0  0
   21.1121   -7.2076  -16.1167 N   0  0  0  0  0  0  0  0  0  0  0  0
   21.2896   -5.9904  -15.3147 C   0  0  1  0  0  0  0  0  0  0  0  0
   22.0446   -6.2863  -14.0594 C   0  0  0  0  0  0  0  0  0  0  0  0
   22.3065   -5.0560  -13.3159 C   0  0  0  0  0  0  0  0  0  0  0  0
   21.6698   -4.0141  -13.5304 O   0  0  0  0  0  0  0  0  0  0  0  0
   22.1254   -5.1131  -16.1762 C   0  0  0  0  0  0  0  0  0  0  0  0
   22.4137   -3.9410  -15.8715 O   0  0  0  0  0  0  0  0  0  0  0  0
   23.2915   -5.0434  -12.3424 O   0  0  0  0  0  0  0  0  0  0  0  0
   22.6354   -5.5691  -17.3877 O   0  0  0  0  0  0  0  0  0  0  0  0
  2  3  2  0
  2  1  1  0
  4  2  1  0
  5  4  1  0
  6  5  1  0
  6  7  1  6
  8  9  2  0
  8  6  1  0
 10 11  1  0
 11 12  2  0
 11 13  1  0
 14 13  1  6
 14 16  1  0
 14 15  1  0
 15  8  1  0
 16 18  1  0
 17 16  2  0
 18 19  1  0
 19 23  1  0
 19 20  1  1
 21 20  1  0
 22 21  2  0
 23 24  2  0
 23 26  1  0
 25 21  1  0
M  END
$$$$
