CMY.pdb
     RDKit          3D

 27 27  0  0  1  0  0  0  0  0999 V2000
   10.2178  -15.9793   19.8265 N   0  0  0  0  0  0  0  0  0  0  0  0
    9.1214  -16.2880   20.7229 C   0  0  1  0  0  0  0  0  0  0  0  0
    8.9958  -17.7929   20.9301 C   0  0  0  0  0  0  0  0  0  0  0  0
    8.0967  -18.5645   19.5665 S   0  0  0  0  0  0  0  0  0  0  0  0
    9.3372  -15.6882   22.0659 C   0  0  0  0  0  0  0  0  0  0  0  0
   10.4863  -15.6830   22.5159 O   0  0  0  0  0  0  0  0  0  0  0  0
    6.6840  -11.0668   27.7637 C   0  0  0  0  0  0  0  0  0  0  0  0
    6.1843  -12.0708   26.3425 S   0  0  0  0  0  0  0  0  0  0  0  0
    7.4554  -13.2917   25.9470 C   0  0  0  0  0  0  0  0  0  0  0  0
    7.1745  -13.7894   24.5213 C   0  0  0  0  0  0  0  0  0  0  0  0
    8.2734  -14.7080   24.1339 C   0  0  2  0  0  0  0  0  0  0  0  0
    8.2366  -15.1497   22.7771 N   0  0  0  0  0  0  0  0  0  0  0  0
    8.5207  -15.8388   25.0466 C   0  0  0  0  0  0  0  0  0  0  0  0
    7.9765  -16.9462   24.8619 O   0  0  0  0  0  0  0  0  0  0  0  0
   15.6949  -15.7415   24.4377 O   0  0  0  0  0  0  0  0  0  0  0  0
   14.4385  -16.2282   24.8196 C   0  0  0  0  0  0  0  0  0  0  0  0
   14.1516  -16.4120   26.1550 C   0  0  0  0  0  0  0  0  0  0  0  0
   12.9090  -16.8950   26.5622 C   0  0  0  0  0  0  0  0  0  0  0  0
   11.9267  -17.2047   25.6456 C   0  0  0  0  0  0  0  0  0  0  0  0
   10.6156  -17.7171   26.0720 C   0  0  0  0  0  0  0  0  0  0  0  0
    9.8395  -16.7926   26.9605 C   0  0  2  0  0  0  0  0  0  0  0  0
    9.3909  -15.6705   26.1542 N   0  0  0  0  0  0  0  0  0  0  0  0
   10.5322  -16.3712   28.1771 C   0  0  0  0  0  0  0  0  0  0  0  0
   10.6191  -15.0352   28.5186 O   0  0  0  0  0  0  0  0  0  0  0  0
   12.2302  -17.0150   24.3147 C   0  0  0  0  0  0  0  0  0  0  0  0
   13.4644  -16.5348   23.9026 C   0  0  0  0  0  0  0  0  0  0  0  0
   11.0571  -17.2190   28.9267 O   0  0  0  0  0  0  0  0  0  0  0  0
  2  1  1  6
  3  2  1  0
  3  4  1  0
  5  6  2  0
  5  2  1  0
  7  8  1  0
  8  9  1  0
 11 10  1  1
 10  9  1  0
 11 12  1  0
 12  5  1  0
 13 14  2  0
 13 11  1  0
 16 15  1  0
 17 16  2  0
 18 17  1  0
 19 25  1  0
 19 18  2  0
 20 19  1  0
 21 20  1  6
 21 22  1  0
 22 13  1  0
 23 21  1  0
 24 23  1  0
 25 26  2  0
 26 16  1  0
 27 23  2  0
M  END
$$$$
