CMY.pdb
     RDKit          3D

 27 27  0  0  1  0  0  0  0  0999 V2000
    8.4657  -16.1038   18.0447 N   0  0  0  0  0  0  0  0  0  0  0  0
    7.9166  -16.6652   19.2632 C   0  0  1  0  0  0  0  0  0  0  0  0
    8.2068  -18.1589   19.3524 C   0  0  0  0  0  0  0  0  0  0  0  0
    7.5834  -18.8514   20.8999 S   0  0  0  0  0  0  0  0  0  0  0  0
    8.5236  -16.0391   20.4671 C   0  0  0  0  0  0  0  0  0  0  0  0
    9.7529  -15.9380   20.5053 O   0  0  0  0  0  0  0  0  0  0  0  0
    6.5294  -11.3630   25.9620 C   0  0  0  0  0  0  0  0  0  0  0  0
    6.4491  -13.1700   25.8880 S   0  0  0  0  0  0  0  0  0  0  0  0
    7.7650  -13.8233   24.8370 C   0  0  0  0  0  0  0  0  0  0  0  0
    7.0962  -14.3826   23.5723 C   0  0  0  0  0  0  0  0  0  0  0  0
    8.1462  -15.0345   22.7512 C   0  0  2  0  0  0  0  0  0  0  0  0
    7.6874  -15.5848   21.5167 N   0  0  0  0  0  0  0  0  0  0  0  0
    9.0182  -15.9894   23.4589 C   0  0  0  0  0  0  0  0  0  0  0  0
    8.5946  -17.1088   23.8115 O   0  0  0  0  0  0  0  0  0  0  0  0
   11.3279  -16.1818   31.5069 O   0  0  0  0  0  0  0  0  0  0  0  0
   10.9897  -15.9326   30.1709 C   0  0  0  0  0  0  0  0  0  0  0  0
   10.7133  -16.9858   29.3259 C   0  0  0  0  0  0  0  0  0  0  0  0
   10.3741  -16.7656   27.9919 C   0  0  0  0  0  0  0  0  0  0  0  0
   10.3034  -15.4901   27.4731 C   0  0  0  0  0  0  0  0  0  0  0  0
    9.9484  -15.2547   26.0653 C   0  0  0  0  0  0  0  0  0  0  0  0
   10.9342  -15.7908   25.0716 C   0  0  2  0  0  0  0  0  0  0  0  0
   10.3613  -15.6349   23.7457 N   0  0  0  0  0  0  0  0  0  0  0  0
   11.3984  -17.1533   25.3284 C   0  0  0  0  0  0  0  0  0  0  0  0
   12.5686  -17.3856   26.0253 O   0  0  0  0  0  0  0  0  0  0  0  0
   10.5827  -14.4488   28.3316 C   0  0  0  0  0  0  0  0  0  0  0  0
   10.9209  -14.6607   29.6599 C   0  0  0  0  0  0  0  0  0  0  0  0
   10.7389  -18.1294   24.9180 O   0  0  0  0  0  0  0  0  0  0  0  0
  2  1  1  6
  3  2  1  0
  3  4  1  0
  5  6  2  0
  5  2  1  0
  7  8  1  0
  8  9  1  0
 11 10  1  1
 10  9  1  0
 11 12  1  0
 12  5  1  0
 13 14  2  0
 13 11  1  0
 16 15  1  0
 17 16  2  0
 18 17  1  0
 19 25  1  0
 19 18  2  0
 20 19  1  0
 21 20  1  1
 21 22  1  0
 22 13  1  0
 23 21  1  0
 24 23  1  0
 25 26  2  0
 26 16  1  0
 27 23  2  0
M  END
$$$$
