CMY.pdb
     RDKit          3D

 27 27  0  0  1  0  0  0  0  0999 V2000
    5.5852  -19.7837   21.2996 N   0  0  0  0  0  0  0  0  0  0  0  0
    5.4777  -18.4421   21.8380 C   0  0  1  0  0  0  0  0  0  0  0  0
    5.0548  -18.4763   23.3020 C   0  0  0  0  0  0  0  0  0  0  0  0
    6.2584  -17.6262   24.3468 S   0  0  0  0  0  0  0  0  0  0  0  0
    6.7838  -17.7339   21.7867 C   0  0  0  0  0  0  0  0  0  0  0  0
    7.8049  -18.3938   21.9980 O   0  0  0  0  0  0  0  0  0  0  0  0
    7.5160  -11.7591   19.2089 C   0  0  0  0  0  0  0  0  0  0  0  0
    7.2775  -13.2894   18.2717 S   0  0  0  0  0  0  0  0  0  0  0  0
    7.1800  -14.7089   19.3847 C   0  0  0  0  0  0  0  0  0  0  0  0
    7.9377  -14.3301   20.6660 C   0  0  0  0  0  0  0  0  0  0  0  0
    7.9865  -15.5292   21.5385 C   0  0  2  0  0  0  0  0  0  0  0  0
    6.8169  -16.3465   21.5016 N   0  0  0  0  0  0  0  0  0  0  0  0
    8.4211  -15.2986   22.9281 C   0  0  0  0  0  0  0  0  0  0  0  0
    7.7053  -14.6650   23.7298 O   0  0  0  0  0  0  0  0  0  0  0  0
   10.7205  -15.1414   31.1159 O   0  0  0  0  0  0  0  0  0  0  0  0
   10.3320  -15.3064   29.7806 C   0  0  0  0  0  0  0  0  0  0  0  0
   10.4015  -16.5523   29.1955 C   0  0  0  0  0  0  0  0  0  0  0  0
   10.0210  -16.7440   27.8682 C   0  0  0  0  0  0  0  0  0  0  0  0
    9.5631  -15.6968   27.0971 C   0  0  0  0  0  0  0  0  0  0  0  0
    9.1635  -15.8954   25.6956 C   0  0  0  0  0  0  0  0  0  0  0  0
   10.2029  -15.5113   24.6864 C   0  0  2  0  0  0  0  0  0  0  0  0
    9.6724  -15.8033   23.3658 N   0  0  0  0  0  0  0  0  0  0  0  0
   11.5265  -16.0933   24.9035 C   0  0  0  0  0  0  0  0  0  0  0  0
   11.9757  -17.1453   24.1287 O   0  0  0  0  0  0  0  0  0  0  0  0
    9.4999  -14.4580   27.6977 C   0  0  0  0  0  0  0  0  0  0  0  0
    9.8769  -14.2601   29.0177 C   0  0  0  0  0  0  0  0  0  0  0  0
   12.2712  -15.6439   25.7977 O   0  0  0  0  0  0  0  0  0  0  0  0
  2  1  1  1
  3  2  1  0
  3  4  1  0
  5  6  2  0
  5  2  1  0
  7  8  1  0
  8  9  1  0
 11 10  1  1
 10  9  1  0
 11 12  1  0
 12  5  1  0
 13 14  2  0
 13 11  1  0
 16 15  1  0
 17 16  2  0
 18 17  1  0
 19 25  1  0
 19 18  2  0
 20 19  1  0
 21 20  1  1
 21 22  1  0
 22 13  1  0
 23 21  1  0
 24 23  1  0
 25 26  2  0
 26 16  1  0
 27 23  2  0
M  END
$$$$
