CMY.pdb
     RDKit          3D

 27 27  0  0  1  0  0  0  0  0999 V2000
    7.3521  -18.9126   22.5487 N   0  0  0  0  0  0  0  0  0  0  0  0
    7.8555  -18.4094   21.2860 C   0  0  1  0  0  0  0  0  0  0  0  0
    6.7403  -18.3270   20.2501 C   0  0  0  0  0  0  0  0  0  0  0  0
    7.3966  -17.9122   18.6191 S   0  0  0  0  0  0  0  0  0  0  0  0
    8.4047  -17.0358   21.4329 C   0  0  0  0  0  0  0  0  0  0  0  0
    9.1343  -16.6085   20.5340 O   0  0  0  0  0  0  0  0  0  0  0  0
    6.7835  -12.6118   27.2651 C   0  0  0  0  0  0  0  0  0  0  0  0
    6.9038  -12.5439   25.4600 S   0  0  0  0  0  0  0  0  0  0  0  0
    7.2376  -14.1846   24.7820 C   0  0  0  0  0  0  0  0  0  0  0  0
    7.3529  -14.0279   23.2584 C   0  0  0  0  0  0  0  0  0  0  0  0
    8.4513  -14.9092   22.7909 C   0  0  2  0  0  0  0  0  0  0  0  0
    8.0799  -16.2713   22.5806 N   0  0  0  0  0  0  0  0  0  0  0  0
    9.7146  -14.8208   23.5454 C   0  0  0  0  0  0  0  0  0  0  0  0
    9.8396  -14.0287   24.5012 O   0  0  0  0  0  0  0  0  0  0  0  0
    9.9413  -14.1350   30.0314 O   0  0  0  0  0  0  0  0  0  0  0  0
   10.1690  -14.8154   28.8287 C   0  0  0  0  0  0  0  0  0  0  0  0
    9.5743  -16.0394   28.6104 C   0  0  0  0  0  0  0  0  0  0  0  0
    9.7841  -16.7375   27.4223 C   0  0  0  0  0  0  0  0  0  0  0  0
   10.5916  -16.2291   26.4271 C   0  0  0  0  0  0  0  0  0  0  0  0
   10.8172  -16.9646   25.1735 C   0  0  0  0  0  0  0  0  0  0  0  0
   11.6800  -16.2532   24.1754 C   0  0  2  0  0  0  0  0  0  0  0  0
   10.8086  -15.6478   23.1831 N   0  0  0  0  0  0  0  0  0  0  0  0
   12.7378  -17.0654   23.5763 C   0  0  0  0  0  0  0  0  0  0  0  0
   12.7590  -17.3142   22.2173 O   0  0  0  0  0  0  0  0  0  0  0  0
   11.1784  -15.0043   26.6617 C   0  0  0  0  0  0  0  0  0  0  0  0
   10.9739  -14.3043   27.8415 C   0  0  0  0  0  0  0  0  0  0  0  0
   13.6404  -17.5472   24.2900 O   0  0  0  0  0  0  0  0  0  0  0  0
  2  1  1  1
  3  2  1  0
  3  4  1  0
  5  6  2  0
  5  2  1  0
  7  8  1  0
  8  9  1  0
 11 10  1  1
 10  9  1  0
 11 12  1  0
 12  5  1  0
 13 14  2  0
 13 11  1  0
 16 15  1  0
 17 16  2  0
 18 17  1  0
 19 25  1  0
 19 18  2  0
 20 19  1  0
 21 20  1  1
 21 22  1  0
 22 13  1  0
 23 21  1  0
 24 23  1  0
 25 26  2  0
 26 16  1  0
 27 23  2  0
M  END
$$$$
