CMY.pdb
     RDKit          3D

 27 27  0  0  1  0  0  0  0  0999 V2000
    8.2802  -12.6496   18.2380 N   0  0  0  0  0  0  0  0  0  0  0  0
    7.4482  -13.3892   19.1663 C   0  0  1  0  0  0  0  0  0  0  0  0
    7.0924  -14.7605   18.6037 C   0  0  0  0  0  0  0  0  0  0  0  0
    8.5647  -15.7913   18.4227 S   0  0  0  0  0  0  0  0  0  0  0  0
    8.1538  -13.6252   20.4533 C   0  0  0  0  0  0  0  0  0  0  0  0
    9.3850  -13.7057   20.4283 O   0  0  0  0  0  0  0  0  0  0  0  0
    7.9459  -12.5731   28.0600 C   0  0  0  0  0  0  0  0  0  0  0  0
    6.9434  -13.1014   26.6483 S   0  0  0  0  0  0  0  0  0  0  0  0
    7.9982  -13.5939   25.2670 C   0  0  0  0  0  0  0  0  0  0  0  0
    7.0735  -13.8899   24.0768 C   0  0  0  0  0  0  0  0  0  0  0  0
    7.9263  -14.1946   22.9014 C   0  0  2  0  0  0  0  0  0  0  0  0
    7.4050  -13.7484   21.6497 N   0  0  0  0  0  0  0  0  0  0  0  0
    8.4149  -15.5817   22.8011 C   0  0  0  0  0  0  0  0  0  0  0  0
    7.7824  -16.4421   22.1559 O   0  0  0  0  0  0  0  0  0  0  0  0
   15.6880  -15.3224   18.5038 O   0  0  0  0  0  0  0  0  0  0  0  0
   14.5804  -15.2216   19.3550 C   0  0  0  0  0  0  0  0  0  0  0  0
   13.3469  -15.6663   18.9304 C   0  0  0  0  0  0  0  0  0  0  0  0
   12.2284  -15.5776   19.7576 C   0  0  0  0  0  0  0  0  0  0  0  0
   12.3172  -15.0434   21.0256 C   0  0  0  0  0  0  0  0  0  0  0  0
   11.1383  -14.9460   21.8997 C   0  0  0  0  0  0  0  0  0  0  0  0
   10.8544  -16.1751   22.7092 C   0  0  2  0  0  0  0  0  0  0  0  0
    9.6233  -15.9494   23.4467 N   0  0  0  0  0  0  0  0  0  0  0  0
   11.9509  -16.6230   23.5663 C   0  0  0  0  0  0  0  0  0  0  0  0
   12.9522  -17.4367   23.0720 O   0  0  0  0  0  0  0  0  0  0  0  0
   13.5578  -14.6037   21.4341 C   0  0  0  0  0  0  0  0  0  0  0  0
   14.6748  -14.6889   20.6164 C   0  0  0  0  0  0  0  0  0  0  0  0
   11.9957  -16.2735   24.7630 O   0  0  0  0  0  0  0  0  0  0  0  0
  2  1  1  6
  3  2  1  0
  3  4  1  0
  5  6  2  0
  5  2  1  0
  7  8  1  0
  8  9  1  0
 11 10  1  1
 10  9  1  0
 11 12  1  0
 12  5  1  0
 13 14  2  0
 13 11  1  0
 16 15  1  0
 17 16  2  0
 18 17  1  0
 19 25  1  0
 19 18  2  0
 20 19  1  0
 21 20  1  1
 21 22  1  0
 22 13  1  0
 23 21  1  0
 24 23  1  0
 25 26  2  0
 26 16  1  0
 27 23  2  0
M  END
$$$$
