CMY.pdb
     RDKit          3D

 27 27  0  0  1  0  0  0  0  0999 V2000
    6.3395  -18.5101   20.5316 N   0  0  0  0  0  0  0  0  0  0  0  0
    6.4980  -18.0439   21.8949 C   0  0  1  0  0  0  0  0  0  0  0  0
    7.2096  -19.0882   22.7473 C   0  0  0  0  0  0  0  0  0  0  0  0
    7.0675  -18.6996   24.5056 S   0  0  0  0  0  0  0  0  0  0  0  0
    7.3259  -16.8104   21.9505 C   0  0  0  0  0  0  0  0  0  0  0  0
    8.1938  -16.6604   21.0862 O   0  0  0  0  0  0  0  0  0  0  0  0
    6.4122  -11.0632   26.1694 C   0  0  0  0  0  0  0  0  0  0  0  0
    5.8070  -12.7676   26.0923 S   0  0  0  0  0  0  0  0  0  0  0  0
    7.0142  -13.8355   25.2766 C   0  0  0  0  0  0  0  0  0  0  0  0
    6.9285  -13.5448   23.7708 C   0  0  0  0  0  0  0  0  0  0  0  0
    7.7212  -14.5788   23.0607 C   0  0  2  0  0  0  0  0  0  0  0  0
    7.0980  -15.8602   22.9763 N   0  0  0  0  0  0  0  0  0  0  0  0
    9.1304  -14.7074   23.4734 C   0  0  0  0  0  0  0  0  0  0  0  0
    9.8912  -13.7186   23.4834 O   0  0  0  0  0  0  0  0  0  0  0  0
   11.6763  -16.1640   31.4423 O   0  0  0  0  0  0  0  0  0  0  0  0
   11.1378  -16.0144   30.1582 C   0  0  0  0  0  0  0  0  0  0  0  0
   10.5768  -17.0992   29.5195 C   0  0  0  0  0  0  0  0  0  0  0  0
   10.0338  -16.9776   28.2413 C   0  0  0  0  0  0  0  0  0  0  0  0
   10.0393  -15.7712   27.5738 C   0  0  0  0  0  0  0  0  0  0  0  0
    9.4696  -15.6404   26.2241 C   0  0  0  0  0  0  0  0  0  0  0  0
   10.3387  -16.1676   25.1226 C   0  0  2  0  0  0  0  0  0  0  0  0
    9.6346  -15.9737   23.8667 N   0  0  0  0  0  0  0  0  0  0  0  0
   10.8048  -17.5418   25.3011 C   0  0  0  0  0  0  0  0  0  0  0  0
   12.0563  -17.8052   25.8239 O   0  0  0  0  0  0  0  0  0  0  0  0
   10.6041  -14.6969   28.2269 C   0  0  0  0  0  0  0  0  0  0  0  0
   11.1460  -14.8109   29.4985 C   0  0  0  0  0  0  0  0  0  0  0  0
   10.0729  -18.4999   24.9809 O   0  0  0  0  0  0  0  0  0  0  0  0
  2  1  1  6
  3  2  1  0
  3  4  1  0
  5  6  2  0
  5  2  1  0
  7  8  1  0
  8  9  1  0
 11 10  1  1
 10  9  1  0
 11 12  1  0
 12  5  1  0
 13 14  2  0
 13 11  1  0
 16 15  1  0
 17 16  2  0
 18 17  1  0
 19 25  1  0
 19 18  2  0
 20 19  1  0
 21 20  1  1
 21 22  1  0
 22 13  1  0
 23 21  1  0
 24 23  1  0
 25 26  2  0
 26 16  1  0
 27 23  2  0
M  END
$$$$
