CMY.pdb
     RDKit          3D

 27 27  0  0  1  0  0  0  0  0999 V2000
    7.7597  -17.5008   19.0374 N   0  0  0  0  0  0  0  0  0  0  0  0
    7.3046  -17.4457   20.4125 C   0  0  1  0  0  0  0  0  0  0  0  0
    7.6943  -18.7126   21.1652 C   0  0  0  0  0  0  0  0  0  0  0  0
    9.4888  -18.8534   21.3168 S   0  0  0  0  0  0  0  0  0  0  0  0
    7.9248  -16.3079   21.1409 C   0  0  0  0  0  0  0  0  0  0  0  0
    8.8294  -15.6873   20.5758 O   0  0  0  0  0  0  0  0  0  0  0  0
    6.5452  -11.1525   26.9716 C   0  0  0  0  0  0  0  0  0  0  0  0
    6.0193  -12.6314   26.0697 S   0  0  0  0  0  0  0  0  0  0  0  0
    7.1916  -13.0245   24.7528 C   0  0  0  0  0  0  0  0  0  0  0  0
    6.7243  -14.3393   24.1108 C   0  0  0  0  0  0  0  0  0  0  0  0
    7.7496  -14.7535   23.1214 C   0  0  2  0  0  0  0  0  0  0  0  0
    7.4669  -15.9754   22.4398 N   0  0  0  0  0  0  0  0  0  0  0  0
    9.1468  -14.7261   23.5904 C   0  0  0  0  0  0  0  0  0  0  0  0
    9.7622  -13.6482   23.7175 O   0  0  0  0  0  0  0  0  0  0  0  0
   11.7440  -16.0392   31.5099 O   0  0  0  0  0  0  0  0  0  0  0  0
   11.2004  -15.9993   30.2198 C   0  0  0  0  0  0  0  0  0  0  0  0
   11.0156  -14.7869   29.5910 C   0  0  0  0  0  0  0  0  0  0  0  0
   10.4766  -14.7191   28.3072 C   0  0  0  0  0  0  0  0  0  0  0  0
   10.1108  -15.8594   27.6240 C   0  0  0  0  0  0  0  0  0  0  0  0
    9.5393  -15.7910   26.2705 C   0  0  0  0  0  0  0  0  0  0  0  0
   10.4922  -16.1440   25.1687 C   0  0  2  0  0  0  0  0  0  0  0  0
    9.8067  -15.9419   23.9038 N   0  0  0  0  0  0  0  0  0  0  0  0
   11.1024  -17.4685   25.2739 C   0  0  0  0  0  0  0  0  0  0  0  0
   10.3566  -18.6128   25.0655 O   0  0  0  0  0  0  0  0  0  0  0  0
   10.3024  -17.0632   28.2673 C   0  0  0  0  0  0  0  0  0  0  0  0
   10.8381  -17.1379   29.5445 C   0  0  0  0  0  0  0  0  0  0  0  0
   12.3123  -17.5820   25.5554 O   0  0  0  0  0  0  0  0  0  0  0  0
  2  1  1  6
  3  2  1  0
  3  4  1  0
  5  6  2  0
  5  2  1  0
  7  8  1  0
  8  9  1  0
 11 10  1  1
 10  9  1  0
 11 12  1  0
 12  5  1  0
 13 14  2  0
 13 11  1  0
 16 15  1  0
 17 16  2  0
 18 17  1  0
 19 25  1  0
 19 18  2  0
 20 19  1  0
 21 20  1  1
 21 22  1  0
 22 13  1  0
 23 21  1  0
 24 23  1  0
 25 26  2  0
 26 16  1  0
 27 23  2  0
M  END
$$$$
