CMY.pdb
     RDKit          3D

 27 27  0  0  1  0  0  0  0  0999 V2000
    7.4507  -17.1162   19.4068 N   0  0  0  0  0  0  0  0  0  0  0  0
    8.6712  -16.3528   19.2380 C   0  0  1  0  0  0  0  0  0  0  0  0
    8.4985  -15.2810   18.1681 C   0  0  0  0  0  0  0  0  0  0  0  0
    7.8282  -15.9841   16.6452 S   0  0  0  0  0  0  0  0  0  0  0  0
    9.0447  -15.6481   20.4926 C   0  0  0  0  0  0  0  0  0  0  0  0
   10.1079  -15.0218   20.5062 O   0  0  0  0  0  0  0  0  0  0  0  0
    6.6378  -11.4780   25.8535 C   0  0  0  0  0  0  0  0  0  0  0  0
    6.3827  -13.2682   25.7678 S   0  0  0  0  0  0  0  0  0  0  0  0
    7.7908  -14.0747   24.9741 C   0  0  0  0  0  0  0  0  0  0  0  0
    7.3367  -14.4931   23.5676 C   0  0  0  0  0  0  0  0  0  0  0  0
    8.4748  -15.1773   22.9056 C   0  0  2  0  0  0  0  0  0  0  0  0
    8.1839  -15.7152   21.6158 N   0  0  0  0  0  0  0  0  0  0  0  0
    9.2061  -16.1569   23.7293 C   0  0  0  0  0  0  0  0  0  0  0  0
    8.6446  -17.1862   24.1558 O   0  0  0  0  0  0  0  0  0  0  0  0
   10.8249  -16.2880   31.8353 O   0  0  0  0  0  0  0  0  0  0  0  0
   10.7641  -16.0140   30.4633 C   0  0  0  0  0  0  0  0  0  0  0  0
   10.5424  -14.7243   30.0310 C   0  0  0  0  0  0  0  0  0  0  0  0
   10.4774  -14.4243   28.6712 C   0  0  0  0  0  0  0  0  0  0  0  0
   10.6321  -15.4049   27.7144 C   0  0  0  0  0  0  0  0  0  0  0  0
   10.5613  -15.0920   26.2790 C   0  0  0  0  0  0  0  0  0  0  0  0
   11.1026  -16.1596   25.3769 C   0  0  2  0  0  0  0  0  0  0  0  0
   10.5704  -15.9305   24.0447 N   0  0  0  0  0  0  0  0  0  0  0  0
   10.8932  -17.5306   25.8395 C   0  0  0  0  0  0  0  0  0  0  0  0
   11.9578  -18.3171   26.2358 O   0  0  0  0  0  0  0  0  0  0  0  0
   10.8530  -16.6889   28.1639 C   0  0  0  0  0  0  0  0  0  0  0  0
   10.9189  -16.9943   29.5152 C   0  0  0  0  0  0  0  0  0  0  0  0
    9.7425  -18.0103   25.8819 O   0  0  0  0  0  0  0  0  0  0  0  0
  2  1  1  1
  3  2  1  0
  3  4  1  0
  5  6  2  0
  5  2  1  0
  7  8  1  0
  8  9  1  0
 11 10  1  1
 10  9  1  0
 11 12  1  0
 12  5  1  0
 13 14  2  0
 13 11  1  0
 16 15  1  0
 17 16  2  0
 18 17  1  0
 19 25  1  0
 19 18  2  0
 20 19  1  0
 21 20  1  1
 21 22  1  0
 22 13  1  0
 23 21  1  0
 24 23  1  0
 25 26  2  0
 26 16  1  0
 27 23  2  0
M  END
$$$$
