CMY.pdb
     RDKit          3D

 27 27  0  0  1  0  0  0  0  0999 V2000
    9.8137  -16.5384   19.4771 N   0  0  0  0  0  0  0  0  0  0  0  0
    8.6795  -16.5484   20.3796 C   0  0  1  0  0  0  0  0  0  0  0  0
    8.2461  -17.9760   20.6922 C   0  0  0  0  0  0  0  0  0  0  0  0
    9.5596  -18.8846   21.5359 S   0  0  0  0  0  0  0  0  0  0  0  0
    9.0181  -15.9103   21.6789 C   0  0  0  0  0  0  0  0  0  0  0  0
   10.2029  -15.9010   22.0240 O   0  0  0  0  0  0  0  0  0  0  0  0
    6.7277  -10.7895   27.1855 C   0  0  0  0  0  0  0  0  0  0  0  0
    6.2373  -11.8314   25.7886 S   0  0  0  0  0  0  0  0  0  0  0  0
    7.5707  -12.9647   25.3407 C   0  0  0  0  0  0  0  0  0  0  0  0
    7.0900  -13.7675   24.1226 C   0  0  0  0  0  0  0  0  0  0  0  0
    8.1829  -14.6880   23.7227 C   0  0  2  0  0  0  0  0  0  0  0  0
    7.9886  -15.3415   22.4687 N   0  0  0  0  0  0  0  0  0  0  0  0
    8.6268  -15.6471   24.7503 C   0  0  0  0  0  0  0  0  0  0  0  0
    8.0895  -16.7677   24.8601 O   0  0  0  0  0  0  0  0  0  0  0  0
   14.0782  -19.7750   30.3465 O   0  0  0  0  0  0  0  0  0  0  0  0
   13.4803  -18.9051   29.4260 C   0  0  0  0  0  0  0  0  0  0  0  0
   12.9676  -19.4016   28.2470 C   0  0  0  0  0  0  0  0  0  0  0  0
   12.3674  -18.5577   27.3138 C   0  0  0  0  0  0  0  0  0  0  0  0
   12.2662  -17.2010   27.5374 C   0  0  0  0  0  0  0  0  0  0  0  0
   11.6359  -16.3077   26.5536 C   0  0  0  0  0  0  0  0  0  0  0  0
   10.1465  -16.1916   26.6754 C   0  0  2  0  0  0  0  0  0  0  0  0
    9.6817  -15.2951   25.6310 N   0  0  0  0  0  0  0  0  0  0  0  0
    9.6578  -15.8144   28.0007 C   0  0  0  0  0  0  0  0  0  0  0  0
    9.5362  -14.4862   28.3616 O   0  0  0  0  0  0  0  0  0  0  0  0
   12.7839  -16.7214   28.7213 C   0  0  0  0  0  0  0  0  0  0  0  0
   13.3824  -17.5552   29.6541 C   0  0  0  0  0  0  0  0  0  0  0  0
    9.3428  -16.6936   28.8277 O   0  0  0  0  0  0  0  0  0  0  0  0
  2  1  1  6
  3  2  1  0
  3  4  1  0
  5  6  2  0
  5  2  1  0
  7  8  1  0
  8  9  1  0
 11 10  1  1
 10  9  1  0
 11 12  1  0
 12  5  1  0
 13 14  2  0
 13 11  1  0
 16 15  1  0
 17 16  2  0
 18 17  1  0
 19 25  1  0
 19 18  2  0
 20 19  1  0
 21 20  1  1
 21 22  1  0
 22 13  1  0
 23 21  1  0
 24 23  1  0
 25 26  2  0
 26 16  1  0
 27 23  2  0
M  END
$$$$
