CMY.pdb
     RDKit          3D

 27 27  0  0  1  0  0  0  0  0999 V2000
    8.6933  -18.3727   19.1162 N   0  0  0  0  0  0  0  0  0  0  0  0
    8.1016  -18.0728   20.4050 C   0  0  1  0  0  0  0  0  0  0  0  0
    8.3412  -19.2104   21.3910 C   0  0  0  0  0  0  0  0  0  0  0  0
    9.4039  -20.4817   20.6718 S   0  0  0  0  0  0  0  0  0  0  0  0
    8.7042  -16.8533   21.0048 C   0  0  0  0  0  0  0  0  0  0  0  0
    9.8560  -16.5584   20.6742 O   0  0  0  0  0  0  0  0  0  0  0  0
    6.1981  -12.4085   26.4837 C   0  0  0  0  0  0  0  0  0  0  0  0
    6.6268  -12.3458   24.7260 S   0  0  0  0  0  0  0  0  0  0  0  0
    6.6754  -14.0089   24.0228 C   0  0  0  0  0  0  0  0  0  0  0  0
    7.1037  -13.8653   22.5547 C   0  0  0  0  0  0  0  0  0  0  0  0
    8.2735  -14.7505   22.3320 C   0  0  2  0  0  0  0  0  0  0  0  0
    7.9514  -16.0793   21.9220 N   0  0  0  0  0  0  0  0  0  0  0  0
    9.2858  -14.7634   23.4034 C   0  0  0  0  0  0  0  0  0  0  0  0
    9.7293  -13.7004   23.8830 O   0  0  0  0  0  0  0  0  0  0  0  0
   11.5886  -15.9786   31.5325 O   0  0  0  0  0  0  0  0  0  0  0  0
   11.1067  -15.8642   30.2225 C   0  0  0  0  0  0  0  0  0  0  0  0
   11.0658  -14.6289   29.6126 C   0  0  0  0  0  0  0  0  0  0  0  0
   10.5909  -14.4872   28.3097 C   0  0  0  0  0  0  0  0  0  0  0  0
   10.1470  -15.5749   27.5881 C   0  0  0  0  0  0  0  0  0  0  0  0
    9.6429  -15.4282   26.2141 C   0  0  0  0  0  0  0  0  0  0  0  0
   10.4747  -16.1026   25.1654 C   0  0  2  0  0  0  0  0  0  0  0  0
    9.7667  -16.0017   23.9009 N   0  0  0  0  0  0  0  0  0  0  0  0
   10.8788  -17.4727   25.4774 C   0  0  0  0  0  0  0  0  0  0  0  0
   12.0796  -17.7327   26.1094 O   0  0  0  0  0  0  0  0  0  0  0  0
   10.1949  -16.8024   28.2129 C   0  0  0  0  0  0  0  0  0  0  0  0
   10.6661  -16.9506   29.5089 C   0  0  0  0  0  0  0  0  0  0  0  0
   10.1390  -18.4303   25.1742 O   0  0  0  0  0  0  0  0  0  0  0  0
  2  1  1  6
  3  2  1  0
  3  4  1  0
  5  6  2  0
  5  2  1  0
  7  8  1  0
  8  9  1  0
 11 10  1  1
 10  9  1  0
 11 12  1  0
 12  5  1  0
 13 14  2  0
 13 11  1  0
 16 15  1  0
 17 16  2  0
 18 17  1  0
 19 25  1  0
 19 18  2  0
 20 19  1  0
 21 20  1  1
 21 22  1  0
 22 13  1  0
 23 21  1  0
 24 23  1  0
 25 26  2  0
 26 16  1  0
 27 23  2  0
M  END
$$$$
