CMY.pdb
     RDKit          3D

 27 27  0  0  1  0  0  0  0  0999 V2000
    7.3434  -12.3976   18.6293 N   0  0  0  0  0  0  0  0  0  0  0  0
    7.2602  -13.4916   19.5767 C   0  0  1  0  0  0  0  0  0  0  0  0
    7.7841  -14.7842   18.9617 C   0  0  0  0  0  0  0  0  0  0  0  0
    6.8860  -15.1961   17.4496 S   0  0  0  0  0  0  0  0  0  0  0  0
    8.0882  -13.2255   20.7823 C   0  0  0  0  0  0  0  0  0  0  0  0
    8.4576  -12.0652   20.9821 O   0  0  0  0  0  0  0  0  0  0  0  0
    7.8340  -11.7250   27.3544 C   0  0  0  0  0  0  0  0  0  0  0  0
    7.6383  -11.8717   25.5606 S   0  0  0  0  0  0  0  0  0  0  0  0
    7.1511  -13.5514   25.1086 C   0  0  0  0  0  0  0  0  0  0  0  0
    7.0677  -13.5995   23.5756 C   0  0  0  0  0  0  0  0  0  0  0  0
    8.2946  -14.2653   23.0726 C   0  0  2  0  0  0  0  0  0  0  0  0
    8.4227  -14.2934   21.6512 N   0  0  0  0  0  0  0  0  0  0  0  0
    8.5951  -15.5869   23.6522 C   0  0  0  0  0  0  0  0  0  0  0  0
    7.6806  -16.3770   23.9621 O   0  0  0  0  0  0  0  0  0  0  0  0
   13.5472  -22.8343   25.1077 O   0  0  0  0  0  0  0  0  0  0  0  0
   13.0758  -21.5620   24.7605 C   0  0  0  0  0  0  0  0  0  0  0  0
   12.0025  -21.4387   23.9048 C   0  0  0  0  0  0  0  0  0  0  0  0
   11.5135  -20.1844   23.5431 C   0  0  0  0  0  0  0  0  0  0  0  0
   12.0850  -19.0270   24.0277 C   0  0  0  0  0  0  0  0  0  0  0  0
   11.5730  -17.7021   23.6458 C   0  0  0  0  0  0  0  0  0  0  0  0
   10.3038  -17.2982   24.3330 C   0  0  2  0  0  0  0  0  0  0  0  0
    9.9441  -15.9715   23.8627 N   0  0  0  0  0  0  0  0  0  0  0  0
   10.3290  -17.3913   25.7919 C   0  0  0  0  0  0  0  0  0  0  0  0
   10.7027  -16.3100   26.5665 O   0  0  0  0  0  0  0  0  0  0  0  0
   13.1571  -19.1685   24.8821 C   0  0  0  0  0  0  0  0  0  0  0  0
   13.6488  -20.4133   25.2461 C   0  0  0  0  0  0  0  0  0  0  0  0
   10.0112  -18.4561   26.3588 O   0  0  0  0  0  0  0  0  0  0  0  0
  2  1  1  6
  3  2  1  0
  3  4  1  0
  5  6  2  0
  5  2  1  0
  7  8  1  0
  8  9  1  0
 11 10  1  6
 10  9  1  0
 11 12  1  0
 12  5  1  0
 13 14  2  0
 13 11  1  0
 16 15  1  0
 17 16  2  0
 18 17  1  0
 19 25  1  0
 19 18  2  0
 20 19  1  0
 21 20  1  1
 21 22  1  0
 22 13  1  0
 23 21  1  0
 24 23  1  0
 25 26  2  0
 26 16  1  0
 27 23  2  0
M  END
$$$$
