MMQ.pdb
     RDKit          3D

 26 25  0  0  1  0  0  0  0  0999 V2000
   28.7416  -28.5936  -15.7052 C   0  0  0  0  0  0  0  0  0  0  0  0
   27.7469  -29.0249  -17.1167 S   0  0  0  0  0  0  0  0  0  0  0  0
   26.9217  -27.6863  -17.9423 C   0  0  0  0  0  0  0  0  0  0  0  0
   26.5648  -26.5906  -16.9828 C   0  0  0  0  0  0  0  0  0  0  0  0
   25.8407  -25.4330  -17.5878 C   0  0  2  0  0  0  0  0  0  0  0  0
   26.6944  -24.6875  -18.4821 N   0  0  0  0  0  0  0  0  0  0  0  0
   25.4011  -24.5620  -16.4444 C   0  0  0  0  0  0  0  0  0  0  0  0
   24.6898  -25.0720  -15.5651 O   0  0  0  0  0  0  0  0  0  0  0  0
   27.7875  -18.6646  -15.7395 C   0  0  0  0  0  0  0  0  0  0  0  0
   26.7173  -18.6346  -14.2736 S   0  0  0  0  0  0  0  0  0  0  0  0
   25.7504  -20.1685  -14.2535 C   0  0  0  0  0  0  0  0  0  0  0  0
   26.2659  -21.1055  -15.3329 C   0  0  0  0  0  0  0  0  0  0  0  0
   25.3602  -22.3064  -15.3458 C   0  0  2  0  0  0  0  0  0  0  0  0
   25.7920  -23.2109  -16.3859 N   0  0  0  0  0  0  0  0  0  0  0  0
   23.9260  -21.9211  -15.5591 C   0  0  0  0  0  0  0  0  0  0  0  0
   23.5451  -21.3955  -16.6260 O   0  0  0  0  0  0  0  0  0  0  0  0
   19.3718  -24.0506  -11.8737 N   0  0  0  0  0  0  0  0  0  0  0  0
   18.6360  -23.0206  -12.5469 C   0  0  0  0  0  0  0  0  0  0  0  0
   17.4141  -22.8814  -12.2958 O   0  0  0  0  0  0  0  0  0  0  0  0
   19.3648  -22.1838  -13.4991 C   0  0  0  0  0  0  0  0  0  0  0  0
   20.8136  -22.5066  -13.5961 C   0  0  0  0  0  0  0  0  0  0  0  0
   21.5909  -21.7400  -14.6110 C   0  0  2  0  0  0  0  0  0  0  0  0
   22.9906  -22.1635  -14.5206 N   0  0  0  0  0  0  0  0  0  0  0  0
   21.5205  -20.2797  -14.3998 C   0  0  0  0  0  0  0  0  0  0  0  0
   20.6535  -19.5086  -15.1700 O   0  0  0  0  0  0  0  0  0  0  0  0
   22.2080  -19.6707  -13.5500 O   0  0  0  0  0  0  0  0  0  0  0  0
  2  1  1  0
  3  2  1  0
  4  3  1  0
  4  5  1  0
  5  6  1  6
  7  5  1  0
  7  8  2  0
 10  9  1  0
 11 10  1  0
 12 11  1  0
 13 12  1  6
 13 14  1  0
 14  7  1  0
 15 13  1  0
 16 15  2  0
 18 17  1  0
 18 19  2  0
 20 18  1  0
 21 20  1  0
 22 21  1  1
 22 24  1  0
 22 23  1  0
 23 15  1  0
 24 25  1  0
 26 24  2  0
M  END
$$$$
