MMQ.pdb
     RDKit          3D

 26 25  0  0  1  0  0  0  0  0999 V2000
   27.8294  -21.0131  -19.3896 C   0  0  0  0  0  0  0  0  0  0  0  0
   29.3611  -21.0400  -18.4835 S   0  0  0  0  0  0  0  0  0  0  0  0
   29.3117  -21.7741  -16.8669 C   0  0  0  0  0  0  0  0  0  0  0  0
   27.9006  -22.0076  -16.4166 C   0  0  0  0  0  0  0  0  0  0  0  0
   27.2446  -20.8358  -15.7630 C   0  0  2  0  0  0  0  0  0  0  0  0
   28.2212  -19.9170  -15.2279 N   0  0  0  0  0  0  0  0  0  0  0  0
   26.3919  -21.3890  -14.6557 C   0  0  0  0  0  0  0  0  0  0  0  0
   25.6334  -22.3338  -14.9226 O   0  0  0  0  0  0  0  0  0  0  0  0
   26.4748  -19.3124   -8.1835 C   0  0  0  0  0  0  0  0  0  0  0  0
   25.9272  -21.0411   -8.2655 S   0  0  0  0  0  0  0  0  0  0  0  0
   25.1948  -21.3207   -9.9006 C   0  0  0  0  0  0  0  0  0  0  0  0
   26.1871  -20.9109  -10.9759 C   0  0  0  0  0  0  0  0  0  0  0  0
   25.5384  -21.1867  -12.3048 C   0  0  2  0  0  0  0  0  0  0  0  0
   26.4622  -20.8423  -13.3604 N   0  0  0  0  0  0  0  0  0  0  0  0
   24.2577  -20.4229  -12.4695 C   0  0  0  0  0  0  0  0  0  0  0  0
   24.2532  -19.1812  -12.6029 O   0  0  0  0  0  0  0  0  0  0  0  0
   23.1096  -20.1350  -17.2155 N   0  0  0  0  0  0  0  0  0  0  0  0
   21.6919  -20.0791  -17.0094 C   0  0  0  0  0  0  0  0  0  0  0  0
   20.9506  -19.7382  -17.9633 O   0  0  0  0  0  0  0  0  0  0  0  0
   21.1894  -20.4273  -15.6812 C   0  0  0  0  0  0  0  0  0  0  0  0
   22.2588  -20.7647  -14.7039 C   0  0  0  0  0  0  0  0  0  0  0  0
   21.8761  -20.7053  -13.2645 C   0  0  2  0  0  0  0  0  0  0  0  0
   23.0314  -21.1357  -12.4729 N   0  0  0  0  0  0  0  0  0  0  0  0
   20.7272  -21.5765  -12.9433 C   0  0  0  0  0  0  0  0  0  0  0  0
   19.4330  -21.0648  -12.9949 O   0  0  0  0  0  0  0  0  0  0  0  0
   20.8421  -22.7794  -12.6182 O   0  0  0  0  0  0  0  0  0  0  0  0
  2  1  1  0
  3  2  1  0
  4  3  1  0
  4  5  1  0
  5  6  1  1
  7  5  1  0
  7  8  2  0
 10  9  1  0
 11 10  1  0
 12 11  1  0
 13 12  1  1
 13 14  1  0
 14  7  1  0
 15 13  1  0
 16 15  2  0
 18 17  1  0
 18 19  2  0
 20 18  1  0
 21 20  1  0
 22 21  1  6
 22 24  1  0
 22 23  1  0
 23 15  1  0
 24 25  1  0
 26 24  2  0
M  END
$$$$
