MMQ.pdb
     RDKit          3D

 26 25  0  0  1  0  0  0  0  0999 V2000
   27.6013  -17.3623  -16.2532 C   0  0  0  0  0  0  0  0  0  0  0  0
   28.2023  -18.6657  -17.3057 S   0  0  0  0  0  0  0  0  0  0  0  0
   28.9085  -20.0779  -16.4924 C   0  0  0  0  0  0  0  0  0  0  0  0
   27.9148  -20.7376  -15.5835 C   0  0  0  0  0  0  0  0  0  0  0  0
   27.4150  -19.8810  -14.4669 C   0  0  2  0  0  0  0  0  0  0  0  0
   28.4696  -19.5661  -13.5326 N   0  0  0  0  0  0  0  0  0  0  0  0
   26.3320  -20.6658  -13.7811 C   0  0  0  0  0  0  0  0  0  0  0  0
   25.6868  -21.4809  -14.4584 O   0  0  0  0  0  0  0  0  0  0  0  0
   26.6736  -19.3105   -7.7535 C   0  0  0  0  0  0  0  0  0  0  0  0
   26.4198  -21.0985   -7.9369 S   0  0  0  0  0  0  0  0  0  0  0  0
   26.2597  -21.4640   -9.7058 C   0  0  0  0  0  0  0  0  0  0  0  0
   25.0383  -20.7506  -10.2609 C   0  0  0  0  0  0  0  0  0  0  0  0
   24.9570  -21.0869  -11.7248 C   0  0  2  0  0  0  0  0  0  0  0  0
   26.0686  -20.4717  -12.4120 N   0  0  0  0  0  0  0  0  0  0  0  0
   23.6611  -20.6338  -12.3300 C   0  0  0  0  0  0  0  0  0  0  0  0
   23.3367  -19.4279  -12.3456 O   0  0  0  0  0  0  0  0  0  0  0  0
   21.1418  -23.7673  -16.9254 N   0  0  0  0  0  0  0  0  0  0  0  0
   20.0786  -22.8251  -16.7323 C   0  0  0  0  0  0  0  0  0  0  0  0
   19.1322  -22.7971  -17.5564 O   0  0  0  0  0  0  0  0  0  0  0  0
   20.1635  -21.9413  -15.5704 C   0  0  0  0  0  0  0  0  0  0  0  0
   21.3904  -22.1399  -14.7533 C   0  0  0  0  0  0  0  0  0  0  0  0
   21.5479  -21.2403  -13.5752 C   0  0  2  0  0  0  0  0  0  0  0  0
   22.7932  -21.6036  -12.8941 N   0  0  0  0  0  0  0  0  0  0  0  0
   20.4298  -21.3544  -12.6167 C   0  0  0  0  0  0  0  0  0  0  0  0
   19.2738  -20.6012  -12.8066 O   0  0  0  0  0  0  0  0  0  0  0  0
   20.4520  -22.1049  -11.6157 O   0  0  0  0  0  0  0  0  0  0  0  0
  2  1  1  0
  3  2  1  0
  4  3  1  0
  4  5  1  0
  5  6  1  1
  7  5  1  0
  7  8  2  0
 10  9  1  0
 11 10  1  0
 12 11  1  0
 13 12  1  1
 13 14  1  0
 14  7  1  0
 15 13  1  0
 16 15  2  0
 18 17  1  0
 18 19  2  0
 20 18  1  0
 21 20  1  0
 22 21  1  6
 22 24  1  0
 22 23  1  0
 23 15  1  0
 24 25  1  0
 26 24  2  0
M  END
$$$$
