MMQ.pdb
     RDKit          3D

 26 25  0  0  1  0  0  0  0  0999 V2000
   30.5035  -24.2949  -16.1302 C   0  0  0  0  0  0  0  0  0  0  0  0
   30.1816  -23.0598  -17.3706 S   0  0  0  0  0  0  0  0  0  0  0  0
   29.1697  -21.6864  -16.8763 C   0  0  0  0  0  0  0  0  0  0  0  0
   28.1312  -22.1050  -15.8789 C   0  0  0  0  0  0  0  0  0  0  0  0
   27.2099  -21.0175  -15.4328 C   0  0  2  0  0  0  0  0  0  0  0  0
   27.9345  -19.8070  -15.1259 N   0  0  0  0  0  0  0  0  0  0  0  0
   26.5114  -21.5293  -14.2043 C   0  0  0  0  0  0  0  0  0  0  0  0
   25.8769  -22.5915  -14.2962 O   0  0  0  0  0  0  0  0  0  0  0  0
   27.8132  -20.0815   -8.1567 C   0  0  0  0  0  0  0  0  0  0  0  0
   26.0168  -20.2156   -7.9332 S   0  0  0  0  0  0  0  0  0  0  0  0
   25.2932  -20.7446   -9.5096 C   0  0  0  0  0  0  0  0  0  0  0  0
   26.2957  -20.5156  -10.6282 C   0  0  0  0  0  0  0  0  0  0  0  0
   25.6656  -21.0210  -11.8972 C   0  0  2  0  0  0  0  0  0  0  0  0
   26.5836  -20.8152  -12.9933 N   0  0  0  0  0  0  0  0  0  0  0  0
   24.3602  -20.3387  -12.1819 C   0  0  0  0  0  0  0  0  0  0  0  0
   24.2628  -19.0936  -12.1808 O   0  0  0  0  0  0  0  0  0  0  0  0
   21.9990  -20.1001  -16.9519 N   0  0  0  0  0  0  0  0  0  0  0  0
   20.6713  -20.2033  -16.4208 C   0  0  0  0  0  0  0  0  0  0  0  0
   19.6994  -19.8675  -17.1407 O   0  0  0  0  0  0  0  0  0  0  0  0
   20.5289  -20.7001  -15.0530 C   0  0  0  0  0  0  0  0  0  0  0  0
   21.8225  -21.0244  -14.3942 C   0  0  0  0  0  0  0  0  0  0  0  0
   21.9750  -20.5653  -12.9843 C   0  0  2  0  0  0  0  0  0  0  0  0
   23.2182  -21.1338  -12.4572 N   0  0  0  0  0  0  0  0  0  0  0  0
   20.8536  -20.9899  -12.1216 C   0  0  0  0  0  0  0  0  0  0  0  0
   19.7875  -20.1234  -11.8932 O   0  0  0  0  0  0  0  0  0  0  0  0
   20.7953  -22.1094  -11.5655 O   0  0  0  0  0  0  0  0  0  0  0  0
  2  1  1  0
  3  2  1  0
  4  3  1  0
  4  5  1  0
  5  6  1  1
  7  5  1  0
  7  8  2  0
 10  9  1  0
 11 10  1  0
 12 11  1  0
 13 12  1  1
 13 14  1  0
 14  7  1  0
 15 13  1  0
 16 15  2  0
 18 17  1  0
 18 19  2  0
 20 18  1  0
 21 20  1  0
 22 21  1  6
 22 24  1  0
 22 23  1  0
 23 15  1  0
 24 25  1  0
 26 24  2  0
M  END
$$$$
