MMQ.pdb
     RDKit          3D

 26 25  0  0  1  0  0  0  0  0999 V2000
   26.1250  -16.7213  -17.0673 C   0  0  0  0  0  0  0  0  0  0  0  0
   27.7442  -16.5210  -16.3560 S   0  0  0  0  0  0  0  0  0  0  0  0
   28.5390  -17.9969  -15.7689 C   0  0  0  0  0  0  0  0  0  0  0  0
   27.5757  -18.8796  -15.0331 C   0  0  0  0  0  0  0  0  0  0  0  0
   28.1484  -20.1693  -14.5442 C   0  0  2  0  0  0  0  0  0  0  0  0
   28.4896  -21.0431  -15.6417 N   0  0  0  0  0  0  0  0  0  0  0  0
   27.0919  -20.8049  -13.6846 C   0  0  0  0  0  0  0  0  0  0  0  0
   26.2968  -21.5891  -14.2250 O   0  0  0  0  0  0  0  0  0  0  0  0
   27.1741  -20.1761   -7.2839 C   0  0  0  0  0  0  0  0  0  0  0  0
   25.4587  -20.7510   -7.4318 S   0  0  0  0  0  0  0  0  0  0  0  0
   25.1636  -21.1963   -9.1647 C   0  0  0  0  0  0  0  0  0  0  0  0
   26.2825  -20.6377  -10.0279 C   0  0  0  0  0  0  0  0  0  0  0  0
   25.9552  -20.9837  -11.4547 C   0  0  2  0  0  0  0  0  0  0  0  0
   27.0186  -20.5104  -12.3100 N   0  0  0  0  0  0  0  0  0  0  0  0
   24.6448  -20.3937  -11.8853 C   0  0  0  0  0  0  0  0  0  0  0  0
   24.5126  -19.1652  -12.0668 O   0  0  0  0  0  0  0  0  0  0  0  0
   21.3695  -23.3276  -15.9188 N   0  0  0  0  0  0  0  0  0  0  0  0
   20.4018  -22.3061  -15.6439 C   0  0  0  0  0  0  0  0  0  0  0  0
   19.3540  -22.2581  -16.3334 O   0  0  0  0  0  0  0  0  0  0  0  0
   20.6996  -21.3689  -14.5618 C   0  0  0  0  0  0  0  0  0  0  0  0
   21.9653  -21.6677  -13.8398 C   0  0  0  0  0  0  0  0  0  0  0  0
   22.2777  -20.7948  -12.6726 C   0  0  2  0  0  0  0  0  0  0  0  0
   23.5387  -21.2582  -12.0881 N   0  0  0  0  0  0  0  0  0  0  0  0
   21.2282  -20.8341  -11.6339 C   0  0  0  0  0  0  0  0  0  0  0  0
   20.1139  -20.0056  -11.7419 O   0  0  0  0  0  0  0  0  0  0  0  0
   21.2743  -21.5842  -10.6333 O   0  0  0  0  0  0  0  0  0  0  0  0
  2  1  1  0
  3  2  1  0
  4  3  1  0
  4  5  1  0
  5  6  1  6
  7  5  1  0
  7  8  2  0
 10  9  1  0
 11 10  1  0
 12 11  1  0
 13 12  1  1
 13 14  1  0
 14  7  1  0
 15 13  1  0
 16 15  2  0
 18 17  1  0
 18 19  2  0
 20 18  1  0
 21 20  1  0
 22 21  1  6
 22 24  1  0
 22 23  1  0
 23 15  1  0
 24 25  1  0
 26 24  2  0
M  END
$$$$
