MMQ.pdb
     RDKit          3D

 26 25  0  0  1  0  0  0  0  0999 V2000
   26.8834  -16.1872  -14.4037 C   0  0  0  0  0  0  0  0  0  0  0  0
   28.2517  -16.9918  -15.2087 S   0  0  0  0  0  0  0  0  0  0  0  0
   27.9510  -18.6255  -15.8371 C   0  0  0  0  0  0  0  0  0  0  0  0
   27.1195  -19.4319  -14.8848 C   0  0  0  0  0  0  0  0  0  0  0  0
   27.8376  -20.5595  -14.2189 C   0  0  2  0  0  0  0  0  0  0  0  0
   28.1887  -21.5918  -15.1651 N   0  0  0  0  0  0  0  0  0  0  0  0
   26.8994  -21.1061  -13.1796 C   0  0  0  0  0  0  0  0  0  0  0  0
   26.0022  -21.8770  -13.5540 O   0  0  0  0  0  0  0  0  0  0  0  0
   27.1752  -19.1845   -6.7680 C   0  0  0  0  0  0  0  0  0  0  0  0
   26.1530  -20.6844   -6.7922 S   0  0  0  0  0  0  0  0  0  0  0  0
   25.4732  -20.8731   -8.4626 C   0  0  0  0  0  0  0  0  0  0  0  0
   26.5481  -20.5472   -9.4859 C   0  0  0  0  0  0  0  0  0  0  0  0
   26.0406  -21.0110  -10.8238 C   0  0  2  0  0  0  0  0  0  0  0  0
   27.0458  -20.7461  -11.8266 N   0  0  0  0  0  0  0  0  0  0  0  0
   24.7514  -20.3392  -11.1947 C   0  0  0  0  0  0  0  0  0  0  0  0
   24.6450  -19.0949  -11.2031 O   0  0  0  0  0  0  0  0  0  0  0  0
   23.5797  -21.9919  -15.6167 N   0  0  0  0  0  0  0  0  0  0  0  0
   23.0774  -20.6518  -15.7034 C   0  0  0  0  0  0  0  0  0  0  0  0
   23.2970  -19.9850  -16.7440 O   0  0  0  0  0  0  0  0  0  0  0  0
   22.3297  -20.1365  -14.5573 C   0  0  0  0  0  0  0  0  0  0  0  0
   22.1890  -21.1129  -13.4440 C   0  0  0  0  0  0  0  0  0  0  0  0
   22.3925  -20.5750  -12.0688 C   0  0  2  0  0  0  0  0  0  0  0  0
   23.6358  -21.1435  -11.5420 N   0  0  0  0  0  0  0  0  0  0  0  0
   21.2859  -20.9181  -11.1525 C   0  0  0  0  0  0  0  0  0  0  0  0
   20.0196  -20.3772  -11.3610 O   0  0  0  0  0  0  0  0  0  0  0  0
   21.4135  -21.6852  -10.1721 O   0  0  0  0  0  0  0  0  0  0  0  0
  2  1  1  0
  3  2  1  0
  4  3  1  0
  4  5  1  0
  5  6  1  6
  7  5  1  0
  7  8  2  0
 10  9  1  0
 11 10  1  0
 12 11  1  0
 13 12  1  1
 13 14  1  0
 14  7  1  0
 15 13  1  0
 16 15  2  0
 18 17  1  0
 18 19  2  0
 20 18  1  0
 21 20  1  0
 22 21  1  6
 22 24  1  0
 22 23  1  0
 23 15  1  0
 24 25  1  0
 26 24  2  0
M  END
$$$$
