MMQ.pdb
     RDKit          3D

 26 25  0  0  1  0  0  0  0  0999 V2000
   26.9508  -16.7800  -17.0399 C   0  0  0  0  0  0  0  0  0  0  0  0
   27.8334  -17.8361  -18.1683 S   0  0  0  0  0  0  0  0  0  0  0  0
   28.3586  -19.4095  -17.5334 C   0  0  0  0  0  0  0  0  0  0  0  0
   27.3221  -20.0065  -16.6291 C   0  0  0  0  0  0  0  0  0  0  0  0
   27.7460  -21.2490  -15.9170 C   0  0  2  0  0  0  0  0  0  0  0  0
   27.8315  -22.3708  -16.8217 N   0  0  0  0  0  0  0  0  0  0  0  0
   26.7065  -21.5107  -14.8634 C   0  0  0  0  0  0  0  0  0  0  0  0
   25.7391  -22.2261  -15.1660 O   0  0  0  0  0  0  0  0  0  0  0  0
   24.8249  -21.0811   -7.2783 C   0  0  0  0  0  0  0  0  0  0  0  0
   26.0752  -20.6392   -8.5179 S   0  0  0  0  0  0  0  0  0  0  0  0
   25.3830  -20.9797  -10.1590 C   0  0  0  0  0  0  0  0  0  0  0  0
   26.4536  -20.7606  -11.2147 C   0  0  0  0  0  0  0  0  0  0  0  0
   25.8387  -21.0990  -12.5452 C   0  0  2  0  0  0  0  0  0  0  0  0
   26.8393  -20.9548  -13.5769 N   0  0  0  0  0  0  0  0  0  0  0  0
   24.6542  -20.2299  -12.8494 C   0  0  0  0  0  0  0  0  0  0  0  0
   24.7844  -19.0088  -13.0770 O   0  0  0  0  0  0  0  0  0  0  0  0
   23.4687  -20.4106  -16.9524 N   0  0  0  0  0  0  0  0  0  0  0  0
   22.3884  -21.3045  -16.6534 C   0  0  0  0  0  0  0  0  0  0  0  0
   22.1572  -22.2622  -17.4311 O   0  0  0  0  0  0  0  0  0  0  0  0
   21.6106  -21.0413  -15.4435 C   0  0  0  0  0  0  0  0  0  0  0  0
   22.0909  -19.8691  -14.6640 C   0  0  0  0  0  0  0  0  0  0  0  0
   22.1568  -20.0457  -13.1853 C   0  0  2  0  0  0  0  0  0  0  0  0
   23.3635  -20.8174  -12.8770 N   0  0  0  0  0  0  0  0  0  0  0  0
   20.9830  -20.7601  -12.6433 C   0  0  0  0  0  0  0  0  0  0  0  0
   19.7273  -20.1588  -12.6797 O   0  0  0  0  0  0  0  0  0  0  0  0
   21.0427  -21.9036  -12.1386 O   0  0  0  0  0  0  0  0  0  0  0  0
  2  1  1  0
  3  2  1  0
  4  3  1  0
  4  5  1  0
  5  6  1  6
  7  5  1  0
  7  8  2  0
 10  9  1  0
 11 10  1  0
 12 11  1  0
 13 12  1  1
 13 14  1  0
 14  7  1  0
 15 13  1  0
 16 15  2  0
 18 17  1  0
 18 19  2  0
 20 18  1  0
 21 20  1  0
 22 21  1  6
 22 24  1  0
 22 23  1  0
 23 15  1  0
 24 25  1  0
 26 24  2  0
M  END
$$$$
