MMQ.pdb
     RDKit          3D

 26 25  0  0  1  0  0  0  0  0999 V2000
   26.9883  -16.6433  -15.1569 C   0  0  0  0  0  0  0  0  0  0  0  0
   28.0417  -17.2186  -16.4711 S   0  0  0  0  0  0  0  0  0  0  0  0
   27.4761  -18.6392  -17.3747 C   0  0  0  0  0  0  0  0  0  0  0  0
   26.4459  -19.4044  -16.5990 C   0  0  0  0  0  0  0  0  0  0  0  0
   26.9783  -20.1871  -15.4439 C   0  0  2  0  0  0  0  0  0  0  0  0
   27.9499  -21.1646  -15.8737 N   0  0  0  0  0  0  0  0  0  0  0  0
   25.7977  -20.8717  -14.8140 C   0  0  0  0  0  0  0  0  0  0  0  0
   25.3927  -21.9247  -15.3301 O   0  0  0  0  0  0  0  0  0  0  0  0
   27.2184  -21.0106   -8.6486 C   0  0  0  0  0  0  0  0  0  0  0  0
   25.5828  -20.5019   -9.2498 S   0  0  0  0  0  0  0  0  0  0  0  0
   25.4074  -21.0833  -10.9585 C   0  0  0  0  0  0  0  0  0  0  0  0
   24.1049  -20.5593  -11.5397 C   0  0  0  0  0  0  0  0  0  0  0  0
   24.0763  -20.9564  -12.9903 C   0  0  2  0  0  0  0  0  0  0  0  0
   25.1804  -20.3237  -13.6737 N   0  0  0  0  0  0  0  0  0  0  0  0
   22.7800  -20.5814  -13.6457 C   0  0  0  0  0  0  0  0  0  0  0  0
   22.5490  -19.4085  -14.0073 O   0  0  0  0  0  0  0  0  0  0  0  0
   19.0399  -24.9018  -16.1047 N   0  0  0  0  0  0  0  0  0  0  0  0
   18.1711  -23.7684  -16.2322 C   0  0  0  0  0  0  0  0  0  0  0  0
   17.0826  -23.9008  -16.8432 O   0  0  0  0  0  0  0  0  0  0  0  0
   18.6131  -22.5094  -15.6343 C   0  0  0  0  0  0  0  0  0  0  0  0
   19.9682  -22.5772  -15.0247 C   0  0  0  0  0  0  0  0  0  0  0  0
   20.5010  -21.3029  -14.4642 C   0  0  2  0  0  0  0  0  0  0  0  0
   21.8027  -21.5879  -13.8551 N   0  0  0  0  0  0  0  0  0  0  0  0
   19.6139  -20.7154  -13.4396 C   0  0  0  0  0  0  0  0  0  0  0  0
   18.5750  -19.8710  -13.8233 O   0  0  0  0  0  0  0  0  0  0  0  0
   19.7368  -20.9318  -12.2133 O   0  0  0  0  0  0  0  0  0  0  0  0
  2  1  1  0
  3  2  1  0
  4  3  1  0
  4  5  1  0
  5  6  1  6
  7  5  1  0
  7  8  2  0
 10  9  1  0
 11 10  1  0
 12 11  1  0
 13 12  1  1
 13 14  1  0
 14  7  1  0
 15 13  1  0
 16 15  2  0
 18 17  1  0
 18 19  2  0
 20 18  1  0
 21 20  1  0
 22 21  1  1
 22 24  1  0
 22 23  1  0
 23 15  1  0
 24 25  1  0
 26 24  2  0
M  END
$$$$
