MMQ.pdb
     RDKit          3D

 26 25  0  0  1  0  0  0  0  0999 V2000
   27.7877  -18.6784  -18.1702 C   0  0  0  0  0  0  0  0  0  0  0  0
   28.8946  -17.9801  -16.9640 S   0  0  0  0  0  0  0  0  0  0  0  0
   29.3064  -19.0105  -15.5772 C   0  0  0  0  0  0  0  0  0  0  0  0
   28.4252  -20.2222  -15.5171 C   0  0  0  0  0  0  0  0  0  0  0  0
   27.0799  -19.9948  -14.9097 C   0  0  2  0  0  0  0  0  0  0  0  0
   26.9277  -18.6301  -14.4640 N   0  0  0  0  0  0  0  0  0  0  0  0
   26.9758  -20.9361  -13.7426 C   0  0  0  0  0  0  0  0  0  0  0  0
   26.7870  -22.1390  -13.9807 O   0  0  0  0  0  0  0  0  0  0  0  0
   28.0611  -19.9059   -7.4060 C   0  0  0  0  0  0  0  0  0  0  0  0
   26.2483  -19.9992   -7.3881 S   0  0  0  0  0  0  0  0  0  0  0  0
   25.7052  -20.6673   -8.9841 C   0  0  0  0  0  0  0  0  0  0  0  0
   26.6936  -20.2618  -10.0646 C   0  0  0  0  0  0  0  0  0  0  0  0
   26.1899  -20.8332  -11.3618 C   0  0  2  0  0  0  0  0  0  0  0  0
   27.0910  -20.4539  -12.4250 N   0  0  0  0  0  0  0  0  0  0  0  0
   24.7983  -20.3672  -11.6734 C   0  0  0  0  0  0  0  0  0  0  0  0
   24.5390  -19.1567  -11.8384 O   0  0  0  0  0  0  0  0  0  0  0  0
   23.2954  -24.1035  -15.7504 N   0  0  0  0  0  0  0  0  0  0  0  0
   22.0529  -23.3927  -15.8300 C   0  0  0  0  0  0  0  0  0  0  0  0
   21.2525  -23.6670  -16.7572 O   0  0  0  0  0  0  0  0  0  0  0  0
   21.7908  -22.3767  -14.8116 C   0  0  0  0  0  0  0  0  0  0  0  0
   22.8827  -22.2330  -13.8118 C   0  0  0  0  0  0  0  0  0  0  0  0
   22.6730  -21.2048  -12.7531 C   0  0  2  0  0  0  0  0  0  0  0  0
   23.7622  -21.3301  -11.7813 N   0  0  0  0  0  0  0  0  0  0  0  0
   21.3848  -21.3662  -12.0484 C   0  0  0  0  0  0  0  0  0  0  0  0
   20.2279  -20.8018  -12.5801 O   0  0  0  0  0  0  0  0  0  0  0  0
   21.2594  -21.9947  -10.9737 O   0  0  0  0  0  0  0  0  0  0  0  0
  2  1  1  0
  3  2  1  0
  4  3  1  0
  4  5  1  0
  5  6  1  1
  7  5  1  0
  7  8  2  0
 10  9  1  0
 11 10  1  0
 12 11  1  0
 13 12  1  1
 13 14  1  0
 14  7  1  0
 15 13  1  0
 16 15  2  0
 18 17  1  0
 18 19  2  0
 20 18  1  0
 21 20  1  0
 22 21  1  6
 22 24  1  0
 22 23  1  0
 23 15  1  0
 24 25  1  0
 26 24  2  0
M  END
$$$$
