MMQ.pdb
     RDKit          3D

 26 25  0  0  1  0  0  0  0  0999 V2000
   29.9306  -13.9034  -15.7992 C   0  0  0  0  0  0  0  0  0  0  0  0
   28.4191  -13.1442  -16.3533 S   0  0  0  0  0  0  0  0  0  0  0  0
   27.0759  -14.2416  -16.7355 C   0  0  0  0  0  0  0  0  0  0  0  0
   25.8721  -13.4850  -17.2121 C   0  0  0  0  0  0  0  0  0  0  0  0
   25.4774  -12.3246  -16.3588 C   0  0  2  0  0  0  0  0  0  0  0  0
   25.0588  -12.7551  -15.0459 N   0  0  0  0  0  0  0  0  0  0  0  0
   24.3408  -11.6428  -17.0677 C   0  0  0  0  0  0  0  0  0  0  0  0
   24.5132  -11.3005  -18.2477 O   0  0  0  0  0  0  0  0  0  0  0  0
   19.1125  -14.7336  -18.9638 C   0  0  0  0  0  0  0  0  0  0  0  0
   19.1745  -13.4985  -17.6348 S   0  0  0  0  0  0  0  0  0  0  0  0
   20.6960  -12.5329  -17.8368 C   0  0  0  0  0  0  0  0  0  0  0  0
   20.7519  -11.4490  -16.7734 C   0  0  0  0  0  0  0  0  0  0  0  0
   22.0253  -10.6790  -16.9932 C   0  0  2  0  0  0  0  0  0  0  0  0
   23.1238  -11.4064  -16.4011 N   0  0  0  0  0  0  0  0  0  0  0  0
   21.9487   -9.2973  -16.4134 C   0  0  0  0  0  0  0  0  0  0  0  0
   22.1633   -9.0875  -15.2012 O   0  0  0  0  0  0  0  0  0  0  0  0
   21.7031   -4.3752  -20.2584 N   0  0  0  0  0  0  0  0  0  0  0  0
   21.6389   -3.6779  -19.0074 C   0  0  0  0  0  0  0  0  0  0  0  0
   21.5836   -2.4239  -19.0110 O   0  0  0  0  0  0  0  0  0  0  0  0
   21.6424   -4.4821  -17.7862 C   0  0  0  0  0  0  0  0  0  0  0  0
   21.6554   -5.9489  -18.0331 C   0  0  0  0  0  0  0  0  0  0  0  0
   21.6789   -6.8187  -16.8229 C   0  0  2  0  0  0  0  0  0  0  0  0
   21.6252   -8.2132  -17.2691 N   0  0  0  0  0  0  0  0  0  0  0  0
   20.5412   -6.5646  -15.9156 C   0  0  0  0  0  0  0  0  0  0  0  0
   20.7058   -5.7287  -14.8139 O   0  0  0  0  0  0  0  0  0  0  0  0
   19.4054   -7.0649  -16.0751 O   0  0  0  0  0  0  0  0  0  0  0  0
  2  1  1  0
  3  2  1  0
  4  3  1  0
  4  5  1  0
  5  6  1  1
  7  5  1  0
  7  8  2  0
 10  9  1  0
 11 10  1  0
 12 11  1  0
 13 12  1  1
 13 14  1  0
 14  7  1  0
 15 13  1  0
 16 15  2  0
 18 17  1  0
 18 19  2  0
 20 18  1  0
 21 20  1  0
 22 21  1  6
 22 24  1  0
 22 23  1  0
 23 15  1  0
 24 25  1  0
 26 24  2  0
M  END
$$$$
