MMQ.pdb
     RDKit          3D

 26 25  0  0  1  0  0  0  0  0999 V2000
   14.1801  -11.9099  -16.3173 C   0  0  0  0  0  0  0  0  0  0  0  0
   15.1247  -13.3676  -16.7055 S   0  0  0  0  0  0  0  0  0  0  0  0
   16.4528  -13.1643  -17.8671 C   0  0  0  0  0  0  0  0  0  0  0  0
   17.1976  -11.8854  -17.6259 C   0  0  0  0  0  0  0  0  0  0  0  0
   18.5621  -11.8261  -18.2300 C   0  0  2  0  0  0  0  0  0  0  0  0
   19.0393  -13.1424  -18.5821 N   0  0  0  0  0  0  0  0  0  0  0  0
   19.4594  -11.2093  -17.1939 C   0  0  0  0  0  0  0  0  0  0  0  0
   18.9565  -10.8885  -16.1060 O   0  0  0  0  0  0  0  0  0  0  0  0
   26.6229  -10.5992  -14.3045 C   0  0  0  0  0  0  0  0  0  0  0  0
   25.6218  -11.2394  -15.6768 S   0  0  0  0  0  0  0  0  0  0  0  0
   23.9804  -10.4750  -15.5782 C   0  0  0  0  0  0  0  0  0  0  0  0
   23.0980  -11.0276  -16.6848 C   0  0  0  0  0  0  0  0  0  0  0  0
   21.7385  -10.4054  -16.5189 C   0  0  2  0  0  0  0  0  0  0  0  0
   20.8263  -11.0078  -17.4630 N   0  0  0  0  0  0  0  0  0  0  0  0
   21.7778   -8.9186  -16.7154 C   0  0  0  0  0  0  0  0  0  0  0  0
   22.0177   -8.4161  -17.8333 O   0  0  0  0  0  0  0  0  0  0  0  0
   17.8264   -3.1526  -15.5652 N   0  0  0  0  0  0  0  0  0  0  0  0
   18.2249   -4.5292  -15.6088 C   0  0  0  0  0  0  0  0  0  0  0  0
   17.3402   -5.4196  -15.6125 O   0  0  0  0  0  0  0  0  0  0  0  0
   19.6583   -4.8153  -15.6463 C   0  0  0  0  0  0  0  0  0  0  0  0
   19.9792   -6.2653  -15.7306 C   0  0  0  0  0  0  0  0  0  0  0  0
   21.4273   -6.6189  -15.7293 C   0  0  2  0  0  0  0  0  0  0  0  0
   21.5357   -8.0744  -15.6016 N   0  0  0  0  0  0  0  0  0  0  0  0
   22.1679   -5.9867  -14.6185 C   0  0  0  0  0  0  0  0  0  0  0  0
   22.5224   -4.6422  -14.6977 O   0  0  0  0  0  0  0  0  0  0  0  0
   22.5083   -6.5961  -13.5800 O   0  0  0  0  0  0  0  0  0  0  0  0
  2  1  1  0
  3  2  1  0
  4  3  1  0
  4  5  1  0
  5  6  1  1
  7  5  1  0
  7  8  2  0
 10  9  1  0
 11 10  1  0
 12 11  1  0
 13 12  1  6
 13 14  1  0
 14  7  1  0
 15 13  1  0
 16 15  2  0
 18 17  1  0
 18 19  2  0
 20 18  1  0
 21 20  1  0
 22 21  1  1
 22 24  1  0
 22 23  1  0
 23 15  1  0
 24 25  1  0
 26 24  2  0
M  END
$$$$
