MMQ.pdb
     RDKit          3D

 26 25  0  0  1  0  0  0  0  0999 V2000
   27.9573  -14.8314  -20.0157 C   0  0  0  0  0  0  0  0  0  0  0  0
   27.1810  -13.2431  -20.2224 S   0  0  0  0  0  0  0  0  0  0  0  0
   27.0041  -12.2520  -18.7593 C   0  0  0  0  0  0  0  0  0  0  0  0
   28.1698  -11.3252  -18.5839 C   0  0  0  0  0  0  0  0  0  0  0  0
   28.2679  -10.6818  -17.2396 C   0  0  2  0  0  0  0  0  0  0  0  0
   27.0103  -10.0925  -16.8454 N   0  0  0  0  0  0  0  0  0  0  0  0
   29.3253   -9.6197  -17.3529 C   0  0  0  0  0  0  0  0  0  0  0  0
   29.3706   -8.7480  -16.4713 O   0  0  0  0  0  0  0  0  0  0  0  0
   34.3830   -8.6257  -14.4888 C   0  0  0  0  0  0  0  0  0  0  0  0
   34.7500   -9.5410  -16.0129 S   0  0  0  0  0  0  0  0  0  0  0  0
   33.6992   -8.8767  -17.3330 C   0  0  0  0  0  0  0  0  0  0  0  0
   32.3475   -9.5701  -17.3006 C   0  0  0  0  0  0  0  0  0  0  0  0
   31.5118   -8.9616  -18.3933 C   0  0  2  0  0  0  0  0  0  0  0  0
   30.2299   -9.6261  -18.4315 N   0  0  0  0  0  0  0  0  0  0  0  0
   32.1847   -9.0602  -19.7306 C   0  0  0  0  0  0  0  0  0  0  0  0
   32.3932  -10.1651  -20.2742 O   0  0  0  0  0  0  0  0  0  0  0  0
   36.4300   -6.4041  -21.5631 N   0  0  0  0  0  0  0  0  0  0  0  0
   36.4244   -7.2437  -22.7253 C   0  0  0  0  0  0  0  0  0  0  0  0
   37.2244   -6.9953  -23.6601 O   0  0  0  0  0  0  0  0  0  0  0  0
   35.4727   -8.3535  -22.7509 C   0  0  0  0  0  0  0  0  0  0  0  0
   34.5993   -8.4233  -21.5489 C   0  0  0  0  0  0  0  0  0  0  0  0
   33.2232   -7.8717  -21.7037 C   0  0  2  0  0  0  0  0  0  0  0  0
   32.5883   -7.8672  -20.3833 N   0  0  0  0  0  0  0  0  0  0  0  0
   32.3909   -8.6663  -22.6299 C   0  0  0  0  0  0  0  0  0  0  0  0
   31.1545   -9.1504  -22.2097 O   0  0  0  0  0  0  0  0  0  0  0  0
   32.7322   -8.9419  -23.8018 O   0  0  0  0  0  0  0  0  0  0  0  0
  2  1  1  0
  3  2  1  0
  4  3  1  0
  4  5  1  0
  5  6  1  6
  7  5  1  0
  7  8  2  0
 10  9  1  0
 11 10  1  0
 12 11  1  0
 13 12  1  1
 13 14  1  0
 14  7  1  0
 15 13  1  0
 16 15  2  0
 18 17  1  0
 18 19  2  0
 20 18  1  0
 21 20  1  0
 22 21  1  1
 22 24  1  0
 22 23  1  0
 23 15  1  0
 24 25  1  0
 26 24  2  0
M  END
$$$$
