MMQ.pdb
     RDKit          3D

 26 25  0  0  1  0  0  0  0  0999 V2000
   26.1889  -21.7708  -19.7412 C   0  0  0  0  0  0  0  0  0  0  0  0
   27.9543  -21.8334  -19.5236 S   0  0  0  0  0  0  0  0  0  0  0  0
   28.5687  -21.4109  -17.9115 C   0  0  0  0  0  0  0  0  0  0  0  0
   27.5871  -21.7801  -16.8397 C   0  0  0  0  0  0  0  0  0  0  0  0
   26.9098  -20.6245  -16.1791 C   0  0  2  0  0  0  0  0  0  0  0  0
   27.8631  -19.6231  -15.7636 N   0  0  0  0  0  0  0  0  0  0  0  0
   26.1885  -21.1813  -14.9837 C   0  0  0  0  0  0  0  0  0  0  0  0
   25.3685  -22.0930  -15.1720 O   0  0  0  0  0  0  0  0  0  0  0  0
   25.2696  -20.8849   -7.1838 C   0  0  0  0  0  0  0  0  0  0  0  0
   26.3495  -20.4460   -8.5754 S   0  0  0  0  0  0  0  0  0  0  0  0
   25.5082  -20.9211  -10.1099 C   0  0  0  0  0  0  0  0  0  0  0  0
   26.4070  -20.6128  -11.2956 C   0  0  0  0  0  0  0  0  0  0  0  0
   25.6628  -21.0290  -12.5348 C   0  0  2  0  0  0  0  0  0  0  0  0
   26.4455  -20.6743  -13.6958 N   0  0  0  0  0  0  0  0  0  0  0  0
   24.3068  -20.3916  -12.6117 C   0  0  0  0  0  0  0  0  0  0  0  0
   24.1747  -19.1558  -12.7343 O   0  0  0  0  0  0  0  0  0  0  0  0
   20.1317  -23.4675  -15.6222 N   0  0  0  0  0  0  0  0  0  0  0  0
   19.2470  -22.4414  -15.1532 C   0  0  0  0  0  0  0  0  0  0  0  0
   18.0599  -22.4273  -15.5609 O   0  0  0  0  0  0  0  0  0  0  0  0
   19.7901  -21.4596  -14.2155 C   0  0  0  0  0  0  0  0  0  0  0  0
   21.1853  -21.7463  -13.7869 C   0  0  0  0  0  0  0  0  0  0  0  0
   21.8196  -20.7346  -12.8948 C   0  0  2  0  0  0  0  0  0  0  0  0
   23.1568  -21.2191  -12.5431 N   0  0  0  0  0  0  0  0  0  0  0  0
   21.0527  -20.5087  -11.6526 C   0  0  0  0  0  0  0  0  0  0  0  0
   20.0226  -19.5716  -11.6341 O   0  0  0  0  0  0  0  0  0  0  0  0
   21.2730  -21.1210  -10.5838 O   0  0  0  0  0  0  0  0  0  0  0  0
  2  1  1  0
  3  2  1  0
  4  3  1  0
  4  5  1  0
  5  6  1  1
  7  5  1  0
  7  8  2  0
 10  9  1  0
 11 10  1  0
 12 11  1  0
 13 12  1  1
 13 14  1  0
 14  7  1  0
 15 13  1  0
 16 15  2  0
 18 17  1  0
 18 19  2  0
 20 18  1  0
 21 20  1  0
 22 21  1  6
 22 24  1  0
 22 23  1  0
 23 15  1  0
 24 25  1  0
 26 24  2  0
M  END
$$$$
