MMQ.pdb
     RDKit          3D

 26 25  0  0  1  0  0  0  0  0999 V2000
   28.0328  -19.6757   -6.3329 C   0  0  0  0  0  0  0  0  0  0  0  0
   26.2679  -19.9043   -6.3609 S   0  0  0  0  0  0  0  0  0  0  0  0
   25.5793  -20.5682   -7.8575 C   0  0  0  0  0  0  0  0  0  0  0  0
   26.1856  -19.9256   -9.0691 C   0  0  0  0  0  0  0  0  0  0  0  0
   25.6765  -20.4374  -10.3764 C   0  0  2  0  0  0  0  0  0  0  0  0
   25.4774  -21.8669  -10.3404 N   0  0  0  0  0  0  0  0  0  0  0  0
   26.7144  -20.0842  -11.4045 C   0  0  0  0  0  0  0  0  0  0  0  0
   26.9135  -18.8826  -11.6408 O   0  0  0  0  0  0  0  0  0  0  0  0
   31.3244  -22.8957   -9.8886 C   0  0  0  0  0  0  0  0  0  0  0  0
   31.7654  -21.4200  -10.8494 S   0  0  0  0  0  0  0  0  0  0  0  0
   30.2319  -20.6686  -11.4592 C   0  0  0  0  0  0  0  0  0  0  0  0
   29.7314  -21.4475  -12.6641 C   0  0  0  0  0  0  0  0  0  0  0  0
   28.4269  -20.8258  -13.0820 C   0  0  2  0  0  0  0  0  0  0  0  0
   27.4311  -21.0959  -12.0711 N   0  0  0  0  0  0  0  0  0  0  0  0
   27.9646  -21.3411  -14.4130 C   0  0  0  0  0  0  0  0  0  0  0  0
   28.4538  -22.3740  -14.9165 O   0  0  0  0  0  0  0  0  0  0  0  0
   24.7893  -24.5877  -14.3609 N   0  0  0  0  0  0  0  0  0  0  0  0
   23.9168  -23.4506  -14.3245 C   0  0  0  0  0  0  0  0  0  0  0  0
   22.8764  -23.5033  -13.6242 O   0  0  0  0  0  0  0  0  0  0  0  0
   24.2979  -22.2827  -15.1174 C   0  0  0  0  0  0  0  0  0  0  0  0
   25.5824  -22.4468  -15.8492 C   0  0  0  0  0  0  0  0  0  0  0  0
   26.2619  -21.1898  -16.2736 C   0  0  2  0  0  0  0  0  0  0  0  0
   26.9496  -20.6329  -15.1060 N   0  0  0  0  0  0  0  0  0  0  0  0
   25.3191  -20.1806  -16.7976 C   0  0  0  0  0  0  0  0  0  0  0  0
   24.6810  -20.3944  -18.0169 O   0  0  0  0  0  0  0  0  0  0  0  0
   25.0470  -19.1144  -16.2017 O   0  0  0  0  0  0  0  0  0  0  0  0
  2  1  1  0
  3  2  1  0
  4  3  1  0
  4  5  1  0
  5  6  1  1
  7  5  1  0
  7  8  2  0
 10  9  1  0
 11 10  1  0
 12 11  1  0
 13 12  1  1
 13 14  1  0
 14  7  1  0
 15 13  1  0
 16 15  2  0
 18 17  1  0
 18 19  2  0
 20 18  1  0
 21 20  1  0
 22 21  1  1
 22 24  1  0
 22 23  1  0
 23 15  1  0
 24 25  1  0
 26 24  2  0
M  END
$$$$
