CES.pdb
     RDKit          3D

 22 21  0  0  1  0  0  0  0  0999 V2000
   18.6015  -11.4199  -15.4566 N   0  0  0  0  0  0  0  0  0  0  0  0
   17.8939  -10.2024  -15.2263 C   0  0  1  0  0  0  0  0  0  0  0  0
   16.4005  -10.3683  -15.4039 C   0  0  0  0  0  0  0  0  0  0  0  0
   16.0617  -10.8219  -17.1308 S   0  0  0  0  0  0  0  0  0  0  0  0
   18.2097   -9.6252  -13.8987 C   0  0  0  0  0  0  0  0  0  0  0  0
   18.0901  -10.3566  -12.8920 O   0  0  0  0  0  0  0  0  0  0  0  0
   18.6368   -8.2807  -13.7645 N   0  0  0  0  0  0  0  0  0  0  0  0
   18.8864   -7.6601  -12.4536 C   0  0  1  0  0  0  0  0  0  0  0  0
   19.9186   -6.5785  -12.5678 C   0  0  0  0  0  0  0  0  0  0  0  0
   21.2781   -7.0181  -12.9650 C   0  0  0  0  0  0  0  0  0  0  0  0
   22.2072   -5.8426  -12.9414 C   0  0  0  0  0  0  0  0  0  0  0  0
   22.7563   -5.4603  -14.0043 O   0  0  0  0  0  0  0  0  0  0  0  0
   17.6195   -7.2492  -11.8160 C   0  0  0  0  0  0  0  0  0  0  0  0
   16.7192   -6.6738  -12.4749 O   0  0  0  0  0  0  0  0  0  0  0  0
   22.5039   -5.1343  -11.7864 O   0  0  0  0  0  0  0  0  0  0  0  0
   14.1979   -7.8550   -8.5254 O   0  0  0  0  0  0  0  0  0  0  0  0
   15.3947   -8.2088   -9.1024 C   0  0  0  0  0  0  0  0  0  0  0  0
   16.0730   -7.0690   -9.8281 C   0  0  2  0  0  0  0  0  0  0  0  0
   17.3169   -7.4628  -10.4403 N   0  0  0  0  0  0  0  0  0  0  0  0
   16.2872   -5.9849   -8.8372 C   0  0  0  0  0  0  0  0  0  0  0  0
   17.4451   -5.8155   -8.3932 O   0  0  0  0  0  0  0  0  0  0  0  0
   15.2630   -5.1821   -8.4075 O   0  0  0  0  0  0  0  0  0  0  0  0
  2  1  1  1
  2  3  1  0
  3  4  1  0
  5  2  1  0
  5  7  1  0
  6  5  2  0
  8  7  1  0
  8 13  1  0
  8  9  1  6
 10  9  1  0
 10 11  1  0
 11 15  1  0
 11 12  2  0
 13 14  2  0
 13 19  1  0
 16 17  1  0
 18 17  1  1
 18 20  1  0
 19 18  1  0
 20 22  1  0
 21 20  2  0
M  END
$$$$
