CES.pdb
     RDKit          3D

 22 21  0  0  1  0  0  0  0  0999 V2000
   22.9181  -12.8464  -18.4415 N   0  0  0  0  0  0  0  0  0  0  0  0
   23.2506  -11.4787  -18.6749 C   0  0  1  0  0  0  0  0  0  0  0  0
   23.6120  -11.2183  -20.1210 C   0  0  0  0  0  0  0  0  0  0  0  0
   24.9965  -12.3009  -20.5839 S   0  0  0  0  0  0  0  0  0  0  0  0
   22.1738  -10.5661  -18.2244 C   0  0  0  0  0  0  0  0  0  0  0  0
   21.0114  -10.7745  -18.6347 O   0  0  0  0  0  0  0  0  0  0  0  0
   22.4452   -9.4832  -17.3516 N   0  0  0  0  0  0  0  0  0  0  0  0
   21.3776   -8.6609  -16.7600 C   0  0  1  0  0  0  0  0  0  0  0  0
   20.3757   -9.5233  -16.0524 C   0  0  0  0  0  0  0  0  0  0  0  0
   19.2615   -8.8087  -15.3836 C   0  0  0  0  0  0  0  0  0  0  0  0
   18.4336   -9.7906  -14.6117 C   0  0  0  0  0  0  0  0  0  0  0  0
   18.6993  -11.0164  -14.6756 O   0  0  0  0  0  0  0  0  0  0  0  0
   21.9454   -7.5674  -15.9462 C   0  0  0  0  0  0  0  0  0  0  0  0
   22.8704   -7.7832  -15.1257 O   0  0  0  0  0  0  0  0  0  0  0  0
   17.3647   -9.4164  -13.8110 O   0  0  0  0  0  0  0  0  0  0  0  0
   22.0487   -2.7606  -14.8661 O   0  0  0  0  0  0  0  0  0  0  0  0
   21.5294   -3.7890  -15.6165 C   0  0  0  0  0  0  0  0  0  0  0  0
   22.1042   -5.1418  -15.2625 C   0  0  2  0  0  0  0  0  0  0  0  0
   21.5069   -6.2138  -16.0184 N   0  0  0  0  0  0  0  0  0  0  0  0
   21.8972   -5.3379  -13.8059 C   0  0  0  0  0  0  0  0  0  0  0  0
   20.8316   -5.8772  -13.4316 O   0  0  0  0  0  0  0  0  0  0  0  0
   22.8308   -4.9482  -12.8815 O   0  0  0  0  0  0  0  0  0  0  0  0
  2  1  1  6
  2  3  1  0
  3  4  1  0
  5  2  1  0
  5  7  1  0
  6  5  2  0
  8  7  1  0
  8 13  1  0
  8  9  1  1
 10  9  1  0
 10 11  1  0
 11 15  1  0
 11 12  2  0
 13 14  2  0
 13 19  1  0
 16 17  1  0
 18 17  1  6
 18 20  1  0
 19 18  1  0
 20 22  1  0
 21 20  2  0
M  END
$$$$
