CES.pdb
     RDKit          3D

 22 21  0  0  1  0  0  0  0  0999 V2000
   16.3748  -11.6997  -16.0855 N   0  0  0  0  0  0  0  0  0  0  0  0
   16.9757  -10.8930  -15.0735 C   0  0  1  0  0  0  0  0  0  0  0  0
   17.8296  -11.7080  -14.1268 C   0  0  0  0  0  0  0  0  0  0  0  0
   16.7464  -12.5390  -12.9272 S   0  0  0  0  0  0  0  0  0  0  0  0
   17.7492   -9.7697  -15.6525 C   0  0  0  0  0  0  0  0  0  0  0  0
   18.4310   -9.9872  -16.6774 O   0  0  0  0  0  0  0  0  0  0  0  0
   17.7225   -8.4798  -15.0664 N   0  0  0  0  0  0  0  0  0  0  0  0
   18.3282   -7.3062  -15.7159 C   0  0  1  0  0  0  0  0  0  0  0  0
   17.3056   -6.2295  -15.9236 C   0  0  0  0  0  0  0  0  0  0  0  0
   17.7854   -5.0005  -16.6009 C   0  0  0  0  0  0  0  0  0  0  0  0
   16.6464   -4.0384  -16.7504 C   0  0  0  0  0  0  0  0  0  0  0  0
   15.9387   -4.0662  -17.7876 O   0  0  0  0  0  0  0  0  0  0  0  0
   19.5475   -6.8796  -15.0006 C   0  0  0  0  0  0  0  0  0  0  0  0
   19.5706   -6.8032  -13.7479 O   0  0  0  0  0  0  0  0  0  0  0  0
   16.3193   -3.0956  -15.7871 O   0  0  0  0  0  0  0  0  0  0  0  0
   24.2485   -5.4165  -15.2160 O   0  0  0  0  0  0  0  0  0  0  0  0
   23.1234   -5.8654  -15.8665 C   0  0  0  0  0  0  0  0  0  0  0  0
   21.9491   -6.1017  -14.9440 C   0  0  2  0  0  0  0  0  0  0  0  0
   20.7665   -6.5283  -15.6488 N   0  0  0  0  0  0  0  0  0  0  0  0
   21.7045   -4.8334  -14.2129 C   0  0  0  0  0  0  0  0  0  0  0  0
   20.9674   -3.9775  -14.7520 O   0  0  0  0  0  0  0  0  0  0  0  0
   22.2586   -4.5858  -12.9841 O   0  0  0  0  0  0  0  0  0  0  0  0
  2  1  1  6
  2  3  1  0
  3  4  1  0
  5  2  1  0
  5  7  1  0
  6  5  2  0
  8  7  1  0
  8 13  1  0
  8  9  1  1
 10  9  1  0
 10 11  1  0
 11 15  1  0
 11 12  2  0
 13 14  2  0
 13 19  1  0
 16 17  1  0
 18 17  1  6
 18 20  1  0
 19 18  1  0
 20 22  1  0
 21 20  2  0
M  END
$$$$
