CES.pdb
     RDKit          3D

 22 21  0  0  1  0  0  0  0  0999 V2000
   16.2245  -10.9769  -16.5780 N   0  0  0  0  0  0  0  0  0  0  0  0
   17.1758  -10.5795  -15.5916 C   0  0  1  0  0  0  0  0  0  0  0  0
   18.2677  -11.6102  -15.4044 C   0  0  0  0  0  0  0  0  0  0  0  0
   17.6266  -12.9639  -14.3752 S   0  0  0  0  0  0  0  0  0  0  0  0
   17.7498   -9.2459  -15.8869 C   0  0  0  0  0  0  0  0  0  0  0  0
   18.1318   -9.0113  -17.0539 O   0  0  0  0  0  0  0  0  0  0  0  0
   17.8665   -8.2564  -14.8791 N   0  0  0  0  0  0  0  0  0  0  0  0
   18.2900   -6.8779  -15.1732 C   0  0  1  0  0  0  0  0  0  0  0  0
   17.2373   -5.8986  -14.7480 C   0  0  0  0  0  0  0  0  0  0  0  0
   16.0030   -5.8748  -15.5699 C   0  0  0  0  0  0  0  0  0  0  0  0
   14.8561   -5.4001  -14.7305 C   0  0  0  0  0  0  0  0  0  0  0  0
   14.7165   -5.8368  -13.5611 O   0  0  0  0  0  0  0  0  0  0  0  0
   19.6400   -6.6161  -14.6353 C   0  0  0  0  0  0  0  0  0  0  0  0
   19.9737   -7.0229  -13.4957 O   0  0  0  0  0  0  0  0  0  0  0  0
   13.9163   -4.4843  -15.1796 O   0  0  0  0  0  0  0  0  0  0  0  0
   24.1581   -4.7844  -15.3453 O   0  0  0  0  0  0  0  0  0  0  0  0
   22.8962   -5.0306  -15.8324 C   0  0  0  0  0  0  0  0  0  0  0  0
   21.9763   -5.6762  -14.8209 C   0  0  2  0  0  0  0  0  0  0  0  0
   20.6508   -5.9011  -15.3402 N   0  0  0  0  0  0  0  0  0  0  0  0
   21.9389   -4.7871  -13.6330 C   0  0  0  0  0  0  0  0  0  0  0  0
   21.1447   -3.8198  -13.6483 O   0  0  0  0  0  0  0  0  0  0  0  0
   22.7404   -4.9999  -12.5420 O   0  0  0  0  0  0  0  0  0  0  0  0
  2  1  1  6
  2  3  1  0
  3  4  1  0
  5  2  1  0
  5  7  1  0
  6  5  2  0
  8  7  1  0
  8 13  1  0
  8  9  1  1
 10  9  1  0
 10 11  1  0
 11 15  1  0
 11 12  2  0
 13 14  2  0
 13 19  1  0
 16 17  1  0
 18 17  1  6
 18 20  1  0
 19 18  1  0
 20 22  1  0
 21 20  2  0
M  END
$$$$
