CES.pdb
     RDKit          3D

 22 21  0  0  1  0  0  0  0  0999 V2000
   19.4513  -12.5198  -18.1997 N   0  0  0  0  0  0  0  0  0  0  0  0
   20.0200  -11.2203  -18.3539 C   0  0  1  0  0  0  0  0  0  0  0  0
   19.9402  -10.7287  -19.7827 C   0  0  0  0  0  0  0  0  0  0  0  0
   20.9553  -11.8103  -20.8329 S   0  0  0  0  0  0  0  0  0  0  0  0
   19.4152  -10.2408  -17.4211 C   0  0  0  0  0  0  0  0  0  0  0  0
   18.2317  -10.4199  -17.0606 O   0  0  0  0  0  0  0  0  0  0  0  0
   20.1515   -9.1275  -16.9452 N   0  0  0  0  0  0  0  0  0  0  0  0
   19.6713   -8.2773  -15.8441 C   0  0  1  0  0  0  0  0  0  0  0  0
   19.2003   -9.1163  -14.6941 C   0  0  0  0  0  0  0  0  0  0  0  0
   18.8313   -8.3793  -13.4612 C   0  0  0  0  0  0  0  0  0  0  0  0
   17.6222   -9.0150  -12.8452 C   0  0  0  0  0  0  0  0  0  0  0  0
   17.0952  -10.0142  -13.3941 O   0  0  0  0  0  0  0  0  0  0  0  0
   20.6730   -7.2491  -15.4977 C   0  0  0  0  0  0  0  0  0  0  0  0
   21.8491   -7.5663  -15.1948 O   0  0  0  0  0  0  0  0  0  0  0  0
   17.0362   -8.5537  -11.6758 O   0  0  0  0  0  0  0  0  0  0  0  0
   21.7764   -2.4780  -14.9459 O   0  0  0  0  0  0  0  0  0  0  0  0
   20.8519   -3.4436  -15.2672 C   0  0  0  0  0  0  0  0  0  0  0  0
   21.3880   -4.8524  -15.1504 C   0  0  2  0  0  0  0  0  0  0  0  0
   20.4013   -5.8508  -15.4773 N   0  0  0  0  0  0  0  0  0  0  0  0
   21.8754   -5.0214  -13.7587 C   0  0  0  0  0  0  0  0  0  0  0  0
   21.0822   -5.4902  -12.9116 O   0  0  0  0  0  0  0  0  0  0  0  0
   23.1508   -4.6812  -13.3903 O   0  0  0  0  0  0  0  0  0  0  0  0
  2  1  1  6
  2  3  1  0
  3  4  1  0
  5  2  1  0
  5  7  1  0
  6  5  2  0
  8  7  1  0
  8 13  1  0
  8  9  1  1
 10  9  1  0
 10 11  1  0
 11 15  1  0
 11 12  2  0
 13 14  2  0
 13 19  1  0
 16 17  1  0
 18 17  1  1
 18 20  1  0
 19 18  1  0
 20 22  1  0
 21 20  2  0
M  END
$$$$
