CES.pdb
     RDKit          3D

 22 21  0  0  1  0  0  0  0  0999 V2000
   25.9077  -12.3505  -17.9013 N   0  0  0  0  0  0  0  0  0  0  0  0
   25.8146  -11.3998  -16.8414 C   0  0  1  0  0  0  0  0  0  0  0  0
   27.1410  -10.7290  -16.5587 C   0  0  0  0  0  0  0  0  0  0  0  0
   28.3040  -11.9727  -15.9233 S   0  0  0  0  0  0  0  0  0  0  0  0
   24.7552  -10.3955  -17.0949 C   0  0  0  0  0  0  0  0  0  0  0  0
   24.6150   -9.9645  -18.2600 O   0  0  0  0  0  0  0  0  0  0  0  0
   23.9185   -9.9300  -16.0502 N   0  0  0  0  0  0  0  0  0  0  0  0
   22.7750   -9.0364  -16.2949 C   0  0  1  0  0  0  0  0  0  0  0  0
   21.4966   -9.6768  -15.8433 C   0  0  0  0  0  0  0  0  0  0  0  0
   20.8817  -10.6374  -16.7912 C   0  0  0  0  0  0  0  0  0  0  0  0
   19.6142  -11.1760  -16.2007 C   0  0  0  0  0  0  0  0  0  0  0  0
   18.9944  -12.0968  -16.7885 O   0  0  0  0  0  0  0  0  0  0  0  0
   23.0296   -7.6919  -15.7401 C   0  0  0  0  0  0  0  0  0  0  0  0
   23.6757   -7.5422  -14.6744 O   0  0  0  0  0  0  0  0  0  0  0  0
   19.0716  -10.7063  -15.0138 O   0  0  0  0  0  0  0  0  0  0  0  0
   22.8484   -2.8156  -16.3578 O   0  0  0  0  0  0  0  0  0  0  0  0
   22.4481   -4.0658  -16.7665 C   0  0  0  0  0  0  0  0  0  0  0  0
   22.8867   -5.1726  -15.8345 C   0  0  2  0  0  0  0  0  0  0  0  0
   22.5787   -6.4841  -16.3466 N   0  0  0  0  0  0  0  0  0  0  0  0
   22.2160   -4.9390  -14.5312 C   0  0  0  0  0  0  0  0  0  0  0  0
   21.0470   -5.3626  -14.3881 O   0  0  0  0  0  0  0  0  0  0  0  0
   22.8387   -4.2819  -13.5023 O   0  0  0  0  0  0  0  0  0  0  0  0
  2  1  1  6
  2  3  1  0
  3  4  1  0
  5  2  1  0
  5  7  1  0
  6  5  2  0
  8  7  1  0
  8 13  1  0
  8  9  1  1
 10  9  1  0
 10 11  1  0
 11 15  1  0
 11 12  2  0
 13 14  2  0
 13 19  1  0
 16 17  1  0
 18 17  1  6
 18 20  1  0
 19 18  1  0
 20 22  1  0
 21 20  2  0
M  END
$$$$
