CES.pdb
     RDKit          3D

 22 21  0  0  1  0  0  0  0  0999 V2000
   13.3519  -11.6223  -10.1943 N   0  0  0  0  0  0  0  0  0  0  0  0
   14.7674  -11.4439  -10.2154 C   0  0  1  0  0  0  0  0  0  0  0  0
   15.4843  -12.6402  -10.8021 C   0  0  0  0  0  0  0  0  0  0  0  0
   15.2513  -14.0641   -9.6971 S   0  0  0  0  0  0  0  0  0  0  0  0
   15.1543  -10.1971  -10.9161 C   0  0  0  0  0  0  0  0  0  0  0  0
   14.5970   -9.9320  -12.0032 O   0  0  0  0  0  0  0  0  0  0  0  0
   16.1293   -9.3223  -10.3754 N   0  0  0  0  0  0  0  0  0  0  0  0
   16.5225   -8.0710  -11.0429 C   0  0  1  0  0  0  0  0  0  0  0  0
   15.9680   -6.8846  -10.3127 C   0  0  0  0  0  0  0  0  0  0  0  0
   16.4170   -6.7183   -8.9091 C   0  0  0  0  0  0  0  0  0  0  0  0
   15.9621   -5.3858   -8.3964 C   0  0  0  0  0  0  0  0  0  0  0  0
   14.7792   -5.2410   -7.9999 O   0  0  0  0  0  0  0  0  0  0  0  0
   17.9800   -8.0348  -11.2769 C   0  0  0  0  0  0  0  0  0  0  0  0
   18.7736   -8.6418  -10.5170 O   0  0  0  0  0  0  0  0  0  0  0  0
   16.7908   -4.2754   -8.3321 O   0  0  0  0  0  0  0  0  0  0  0  0
   21.7990   -8.5553  -13.6854 O   0  0  0  0  0  0  0  0  0  0  0  0
   20.4469   -8.5260  -13.4379 C   0  0  0  0  0  0  0  0  0  0  0  0
   20.0135   -7.3418  -12.6038 C   0  0  2  0  0  0  0  0  0  0  0  0
   18.5945   -7.3300  -12.3517 N   0  0  0  0  0  0  0  0  0  0  0  0
   20.4356   -6.1175  -13.3290 C   0  0  0  0  0  0  0  0  0  0  0  0
   19.6265   -5.6033  -14.1337 O   0  0  0  0  0  0  0  0  0  0  0  0
   21.6687   -5.5505  -13.1389 O   0  0  0  0  0  0  0  0  0  0  0  0
  2  1  1  6
  2  3  1  0
  3  4  1  0
  5  2  1  0
  5  7  1  0
  6  5  2  0
  8  7  1  0
  8 13  1  0
  8  9  1  1
 10  9  1  0
 10 11  1  0
 11 15  1  0
 11 12  2  0
 13 14  2  0
 13 19  1  0
 16 17  1  0
 18 17  1  6
 18 20  1  0
 19 18  1  0
 20 22  1  0
 21 20  2  0
M  END
$$$$
