CES.pdb
     RDKit          3D

 22 21  0  0  1  0  0  0  0  0999 V2000
   17.7183  -12.3208  -14.9479 N   0  0  0  0  0  0  0  0  0  0  0  0
   17.2832  -10.9638  -15.0185 C   0  0  1  0  0  0  0  0  0  0  0  0
   15.7979  -10.8543  -15.2856 C   0  0  0  0  0  0  0  0  0  0  0  0
   15.4746  -11.3344  -17.0084 S   0  0  0  0  0  0  0  0  0  0  0  0
   17.6621  -10.2009  -13.8062 C   0  0  0  0  0  0  0  0  0  0  0  0
   17.4488  -10.7205  -12.6893 O   0  0  0  0  0  0  0  0  0  0  0  0
   18.2512   -8.9155  -13.9008 N   0  0  0  0  0  0  0  0  0  0  0  0
   18.6383   -8.1364  -12.7137 C   0  0  1  0  0  0  0  0  0  0  0  0
   19.7512   -7.1873  -13.0432 C   0  0  0  0  0  0  0  0  0  0  0  0
   20.2022   -6.3071  -11.9381 C   0  0  0  0  0  0  0  0  0  0  0  0
   21.2360   -5.3525  -12.4534 C   0  0  0  0  0  0  0  0  0  0  0  0
   22.4552   -5.6030  -12.2848 O   0  0  0  0  0  0  0  0  0  0  0  0
   17.4559   -7.5170  -12.0822 C   0  0  0  0  0  0  0  0  0  0  0  0
   16.6478   -6.8301  -12.7537 O   0  0  0  0  0  0  0  0  0  0  0  0
   20.9182   -4.1796  -13.1220 O   0  0  0  0  0  0  0  0  0  0  0  0
   14.5648   -6.9830   -8.1505 O   0  0  0  0  0  0  0  0  0  0  0  0
   15.6238   -7.6103   -8.7632 C   0  0  0  0  0  0  0  0  0  0  0  0
   16.0228   -6.9741  -10.0754 C   0  0  2  0  0  0  0  0  0  0  0  0
   17.1383   -7.6405  -10.6989 N   0  0  0  0  0  0  0  0  0  0  0  0
   16.3420   -5.5523   -9.7935 C   0  0  0  0  0  0  0  0  0  0  0  0
   17.5477   -5.2228   -9.7286 O   0  0  0  0  0  0  0  0  0  0  0  0
   15.3625   -4.6121   -9.6065 O   0  0  0  0  0  0  0  0  0  0  0  0
  2  1  1  1
  2  3  1  0
  3  4  1  0
  5  2  1  0
  5  7  1  0
  6  5  2  0
  8  7  1  0
  8 13  1  0
  8  9  1  6
 10  9  1  0
 10 11  1  0
 11 15  1  0
 11 12  2  0
 13 14  2  0
 13 19  1  0
 16 17  1  0
 18 17  1  1
 18 20  1  0
 19 18  1  0
 20 22  1  0
 21 20  2  0
M  END
$$$$
