CES.pdb
     RDKit          3D

 22 21  0  0  1  0  0  0  0  0999 V2000
   18.4826  -13.3389  -15.6123 N   0  0  0  0  0  0  0  0  0  0  0  0
   17.7384  -12.2304  -16.1157 C   0  0  1  0  0  0  0  0  0  0  0  0
   16.2519  -12.5107  -16.1521 C   0  0  0  0  0  0  0  0  0  0  0  0
   15.9456  -13.9083  -17.2727 S   0  0  0  0  0  0  0  0  0  0  0  0
   18.0258  -10.9873  -15.3624 C   0  0  0  0  0  0  0  0  0  0  0  0
   17.6512  -10.9169  -14.1718 O   0  0  0  0  0  0  0  0  0  0  0  0
   18.7069   -9.9019  -15.9677 N   0  0  0  0  0  0  0  0  0  0  0  0
   19.1406   -8.7200  -15.2056 C   0  0  1  0  0  0  0  0  0  0  0  0
   20.6302   -8.7177  -15.0346 C   0  0  0  0  0  0  0  0  0  0  0  0
   21.4266   -8.8511  -16.2785 C   0  0  0  0  0  0  0  0  0  0  0  0
   22.8839   -8.7331  -15.9507 C   0  0  0  0  0  0  0  0  0  0  0  0
   23.2461   -8.6118  -14.7541 O   0  0  0  0  0  0  0  0  0  0  0  0
   18.5768   -7.4843  -15.7849 C   0  0  0  0  0  0  0  0  0  0  0  0
   18.5065   -7.3248  -17.0280 O   0  0  0  0  0  0  0  0  0  0  0  0
   23.8814   -8.7503  -16.9143 O   0  0  0  0  0  0  0  0  0  0  0  0
   15.3217   -5.5707  -14.6054 O   0  0  0  0  0  0  0  0  0  0  0  0
   16.3483   -4.6700  -14.7643 C   0  0  0  0  0  0  0  0  0  0  0  0
   17.5006   -5.2091  -15.5814 C   0  0  2  0  0  0  0  0  0  0  0  0
   18.0788   -6.3985  -15.0085 N   0  0  0  0  0  0  0  0  0  0  0  0
   18.5084   -4.1245  -15.6860 C   0  0  0  0  0  0  0  0  0  0  0  0
   19.6583   -4.3469  -15.2446 O   0  0  0  0  0  0  0  0  0  0  0  0
   18.2108   -2.9091  -16.2448 O   0  0  0  0  0  0  0  0  0  0  0  0
  2  1  1  1
  2  3  1  0
  3  4  1  0
  5  2  1  0
  5  7  1  0
  6  5  2  0
  8  7  1  0
  8 13  1  0
  8  9  1  6
 10  9  1  0
 10 11  1  0
 11 15  1  0
 11 12  2  0
 13 14  2  0
 13 19  1  0
 16 17  1  0
 18 17  1  1
 18 20  1  0
 19 18  1  0
 20 22  1  0
 21 20  2  0
M  END
$$$$
