CES.pdb
     RDKit          3D

 22 21  0  0  1  0  0  0  0  0999 V2000
   19.7248  -12.6236  -16.0950 N   0  0  0  0  0  0  0  0  0  0  0  0
   19.1715  -11.4753  -16.7363 C   0  0  1  0  0  0  0  0  0  0  0  0
   17.8478  -11.7774  -17.4042 C   0  0  0  0  0  0  0  0  0  0  0  0
   18.1308  -12.9490  -18.7644 S   0  0  0  0  0  0  0  0  0  0  0  0
   19.0464  -10.3311  -15.8033 C   0  0  0  0  0  0  0  0  0  0  0  0
   18.4484  -10.5131  -14.7207 O   0  0  0  0  0  0  0  0  0  0  0  0
   19.5872   -9.0605  -16.1217 N   0  0  0  0  0  0  0  0  0  0  0  0
   19.4805   -7.9081  -15.2126 C   0  0  1  0  0  0  0  0  0  0  0  0
   20.8290   -7.2999  -14.9683 C   0  0  0  0  0  0  0  0  0  0  0  0
   20.8619   -6.1474  -14.0355 C   0  0  0  0  0  0  0  0  0  0  0  0
   22.2762   -5.6796  -13.8732 C   0  0  0  0  0  0  0  0  0  0  0  0
   22.5298   -4.7130  -13.1124 O   0  0  0  0  0  0  0  0  0  0  0  0
   18.4451   -6.9642  -15.6787 C   0  0  0  0  0  0  0  0  0  0  0  0
   18.4141   -6.5733  -16.8712 O   0  0  0  0  0  0  0  0  0  0  0  0
   23.3483   -6.2655  -14.5297 O   0  0  0  0  0  0  0  0  0  0  0  0
   14.0638   -4.9389  -15.0505 O   0  0  0  0  0  0  0  0  0  0  0  0
   15.0610   -5.7842  -14.6246 C   0  0  0  0  0  0  0  0  0  0  0  0
   16.3847   -5.5501  -15.3167 C   0  0  2  0  0  0  0  0  0  0  0  0
   17.4224   -6.4307  -14.8425 N   0  0  0  0  0  0  0  0  0  0  0  0
   16.7497   -4.1288  -15.0941 C   0  0  0  0  0  0  0  0  0  0  0  0
   17.1858   -3.8042  -13.9666 O   0  0  0  0  0  0  0  0  0  0  0  0
   16.6215   -3.1840  -16.0785 O   0  0  0  0  0  0  0  0  0  0  0  0
  2  1  1  1
  2  3  1  0
  3  4  1  0
  5  2  1  0
  5  7  1  0
  6  5  2  0
  8  7  1  0
  8 13  1  0
  8  9  1  6
 10  9  1  0
 10 11  1  0
 11 15  1  0
 11 12  2  0
 13 14  2  0
 13 19  1  0
 16 17  1  0
 18 17  1  1
 18 20  1  0
 19 18  1  0
 20 22  1  0
 21 20  2  0
M  END
$$$$
