CES.pdb
     RDKit          3D

 22 21  0  0  1  0  0  0  0  0999 V2000
   19.2047  -12.1649  -15.7996 N   0  0  0  0  0  0  0  0  0  0  0  0
   18.6820  -11.0511  -16.5224 C   0  0  1  0  0  0  0  0  0  0  0  0
   17.3166  -11.3404  -17.1067 C   0  0  0  0  0  0  0  0  0  0  0  0
   17.4839  -12.6247  -18.3815 S   0  0  0  0  0  0  0  0  0  0  0  0
   18.6559   -9.8220  -15.6955 C   0  0  0  0  0  0  0  0  0  0  0  0
   18.2302   -9.9065  -14.5231 O   0  0  0  0  0  0  0  0  0  0  0  0
   19.1000   -8.5792  -16.2117 N   0  0  0  0  0  0  0  0  0  0  0  0
   19.0788   -7.3419  -15.4151 C   0  0  1  0  0  0  0  0  0  0  0  0
   20.4427   -7.0394  -14.8706 C   0  0  0  0  0  0  0  0  0  0  0  0
   20.5715   -5.7733  -14.1092 C   0  0  0  0  0  0  0  0  0  0  0  0
   21.9752   -5.6388  -13.6024 C   0  0  0  0  0  0  0  0  0  0  0  0
   22.4324   -4.5018  -13.3268 O   0  0  0  0  0  0  0  0  0  0  0  0
   18.4498   -6.2402  -16.1708 C   0  0  0  0  0  0  0  0  0  0  0  0
   18.7764   -6.0001  -17.3588 O   0  0  0  0  0  0  0  0  0  0  0  0
   22.8203   -6.7224  -13.4148 O   0  0  0  0  0  0  0  0  0  0  0  0
   14.6291   -5.0594  -15.9704 O   0  0  0  0  0  0  0  0  0  0  0  0
   15.4609   -3.9652  -15.9341 C   0  0  0  0  0  0  0  0  0  0  0  0
   16.8785   -4.2727  -16.3605 C   0  0  2  0  0  0  0  0  0  0  0  0
   17.4486   -5.3799  -15.6350 N   0  0  0  0  0  0  0  0  0  0  0  0
   17.6746   -3.0367  -16.1575 C   0  0  0  0  0  0  0  0  0  0  0  0
   18.6877   -3.1043  -15.4256 O   0  0  0  0  0  0  0  0  0  0  0  0
   17.3295   -1.8469  -16.7435 O   0  0  0  0  0  0  0  0  0  0  0  0
  2  1  1  1
  2  3  1  0
  3  4  1  0
  5  2  1  0
  5  7  1  0
  6  5  2  0
  8  7  1  0
  8 13  1  0
  8  9  1  6
 10  9  1  0
 10 11  1  0
 11 15  1  0
 11 12  2  0
 13 14  2  0
 13 19  1  0
 16 17  1  0
 18 17  1  1
 18 20  1  0
 19 18  1  0
 20 22  1  0
 21 20  2  0
M  END
$$$$
