CES.pdb
     RDKit          3D

 22 21  0  0  1  0  0  0  0  0999 V2000
   26.4406  -12.0299  -18.5298 N   0  0  0  0  0  0  0  0  0  0  0  0
   26.0795  -11.3350  -17.3370 C   0  0  1  0  0  0  0  0  0  0  0  0
   27.2908  -10.8563  -16.5669 C   0  0  0  0  0  0  0  0  0  0  0  0
   28.1704  -12.3001  -15.9002 S   0  0  0  0  0  0  0  0  0  0  0  0
   25.1494  -10.2151  -17.6130 C   0  0  0  0  0  0  0  0  0  0  0  0
   25.3097   -9.5583  -18.6645 O   0  0  0  0  0  0  0  0  0  0  0  0
   24.1031   -9.8901  -16.7142 N   0  0  0  0  0  0  0  0  0  0  0  0
   23.0686   -8.8940  -17.0359 C   0  0  1  0  0  0  0  0  0  0  0  0
   21.7194   -9.5419  -17.1258 C   0  0  0  0  0  0  0  0  0  0  0  0
   20.5919   -8.6467  -17.4817 C   0  0  0  0  0  0  0  0  0  0  0  0
   19.3141   -9.4293  -17.4729 C   0  0  0  0  0  0  0  0  0  0  0  0
   18.2357   -8.8660  -17.7846 O   0  0  0  0  0  0  0  0  0  0  0  0
   23.1468   -7.7392  -16.1189 C   0  0  0  0  0  0  0  0  0  0  0  0
   23.3513   -7.8996  -14.8908 O   0  0  0  0  0  0  0  0  0  0  0  0
   19.2503  -10.7724  -17.1325 O   0  0  0  0  0  0  0  0  0  0  0  0
   23.1024   -2.8514  -15.5055 O   0  0  0  0  0  0  0  0  0  0  0  0
   23.0137   -3.9332  -16.3494 C   0  0  0  0  0  0  0  0  0  0  0  0
   23.0750   -5.2626  -15.6320 C   0  0  2  0  0  0  0  0  0  0  0  0
   23.0016   -6.3842  -16.5341 N   0  0  0  0  0  0  0  0  0  0  0  0
   21.9539   -5.2873  -14.6595 C   0  0  0  0  0  0  0  0  0  0  0  0
   20.8607   -5.7669  -15.0357 O   0  0  0  0  0  0  0  0  0  0  0  0
   22.0893   -4.8053  -13.3838 O   0  0  0  0  0  0  0  0  0  0  0  0
  2  1  1  6
  2  3  1  0
  3  4  1  0
  5  2  1  0
  5  7  1  0
  6  5  2  0
  8  7  1  0
  8 13  1  0
  8  9  1  1
 10  9  1  0
 10 11  1  0
 11 15  1  0
 11 12  2  0
 13 14  2  0
 13 19  1  0
 16 17  1  0
 18 17  1  6
 18 20  1  0
 19 18  1  0
 20 22  1  0
 21 20  2  0
M  END
$$$$
