CES.pdb
     RDKit          3D

 22 21  0  0  1  0  0  0  0  0999 V2000
   25.3349  -11.4355  -17.1367 N   0  0  0  0  0  0  0  0  0  0  0  0
   25.1850  -10.4161  -16.1497 C   0  0  1  0  0  0  0  0  0  0  0  0
   26.5022   -9.7543  -15.8085 C   0  0  0  0  0  0  0  0  0  0  0  0
   27.5617  -10.9606  -14.9569 S   0  0  0  0  0  0  0  0  0  0  0  0
   24.1728   -9.4098  -16.5475 C   0  0  0  0  0  0  0  0  0  0  0  0
   24.0914   -9.0981  -17.7555 O   0  0  0  0  0  0  0  0  0  0  0  0
   23.3157   -8.8113  -15.5908 N   0  0  0  0  0  0  0  0  0  0  0  0
   22.2655   -7.8506  -15.9651 C   0  0  1  0  0  0  0  0  0  0  0  0
   20.9209   -8.3314  -15.5078 C   0  0  0  0  0  0  0  0  0  0  0  0
   19.7735   -7.4459  -15.8222 C   0  0  0  0  0  0  0  0  0  0  0  0
   18.4980   -8.1259  -15.4272 C   0  0  0  0  0  0  0  0  0  0  0  0
   18.0498   -9.0665  -16.1285 O   0  0  0  0  0  0  0  0  0  0  0  0
   22.6216   -6.4854  -15.5295 C   0  0  0  0  0  0  0  0  0  0  0  0
   23.0590   -6.2675  -14.3733 O   0  0  0  0  0  0  0  0  0  0  0  0
   17.7651   -7.7692  -14.3050 O   0  0  0  0  0  0  0  0  0  0  0  0
   24.4028   -3.7095  -17.8256 O   0  0  0  0  0  0  0  0  0  0  0  0
   23.3675   -3.1569  -17.1092 C   0  0  0  0  0  0  0  0  0  0  0  0
   22.9155   -4.0126  -15.9476 C   0  0  2  0  0  0  0  0  0  0  0  0
   22.5039   -5.3317  -16.3571 N   0  0  0  0  0  0  0  0  0  0  0  0
   21.8036   -3.2915  -15.2793 C   0  0  0  0  0  0  0  0  0  0  0  0
   20.6391   -3.7150  -15.4555 O   0  0  0  0  0  0  0  0  0  0  0  0
   22.0223   -2.1934  -14.4890 O   0  0  0  0  0  0  0  0  0  0  0  0
  2  1  1  6
  2  3  1  0
  3  4  1  0
  5  2  1  0
  5  7  1  0
  6  5  2  0
  8  7  1  0
  8 13  1  0
  8  9  1  1
 10  9  1  0
 10 11  1  0
 11 15  1  0
 11 12  2  0
 13 14  2  0
 13 19  1  0
 16 17  1  0
 18 17  1  6
 18 20  1  0
 19 18  1  0
 20 22  1  0
 21 20  2  0
M  END
$$$$
