SFH.pdb
     RDKit          3D

 28 29  0  0  1  0  0  0  0  0999 V2000
   26.8245  -20.8534  -18.8707 O   0  0  0  0  0  0  0  0  0  0  0  0
   26.1107  -21.5692  -17.9376 C   0  0  0  0  0  0  0  0  0  0  0  0
   26.9545  -22.0398  -16.7764 C   0  0  2  0  0  0  0  0  0  0  0  0
   27.4793  -23.3534  -17.0738 N   0  0  0  0  0  0  0  0  0  0  0  0
   26.1943  -22.0425  -15.5055 C   0  0  0  0  0  0  0  0  0  0  0  0
   25.6320  -23.1040  -15.1399 O   0  0  0  0  0  0  0  0  0  0  0  0
   26.0493  -20.9235  -14.6575 N   0  0  0  0  0  0  0  0  0  0  0  0
   25.3221  -20.9067  -13.4180 C   0  0  1  0  0  0  0  0  0  0  0  0
   25.9245  -20.1409  -12.3248 C   0  0  0  0  0  0  0  0  0  0  0  0
   27.2941  -20.5303  -11.9475 C   0  0  0  0  0  0  0  0  0  0  0  0
   28.4102  -20.1036  -12.6227 C   0  0  0  0  0  0  0  0  0  0  0  0
   29.6890  -20.4956  -12.2148 C   0  0  0  0  0  0  0  0  0  0  0  0
   29.8436  -21.3269  -11.1154 C   0  0  0  0  0  0  0  0  0  0  0  0
   28.7408  -21.7488  -10.4500 C   0  0  0  0  0  0  0  0  0  0  0  0
   27.4558  -21.3543  -10.8600 C   0  0  0  0  0  0  0  0  0  0  0  0
   23.9100  -20.5091  -13.5997 C   0  0  0  0  0  0  0  0  0  0  0  0
   23.6190  -19.3992  -14.0952 O   0  0  0  0  0  0  0  0  0  0  0  0
   22.8938  -21.3901  -13.2137 N   0  0  0  0  0  0  0  0  0  0  0  0
   21.4693  -21.0732  -13.3839 C   0  0  1  0  0  0  0  0  0  0  0  0
   20.8483  -22.3769  -13.8814 C   0  0  0  0  0  0  0  0  0  0  0  0
   20.9171  -22.4889  -15.3426 C   0  0  0  0  0  0  0  0  0  0  0  0
   21.3890  -21.4843  -16.1908 C   0  0  0  0  0  0  0  0  0  0  0  0
   21.3075  -21.9439  -17.4529 N   0  0  0  0  0  0  0  0  0  0  0  0
   20.8044  -23.1919  -17.4399 C   0  0  0  0  0  0  0  0  0  0  0  0
   20.5737  -23.5073  -16.1498 N   0  0  0  0  0  0  0  0  0  0  0  0
   20.9123  -20.6810  -12.0714 C   0  0  0  0  0  0  0  0  0  0  0  0
   19.6434  -20.1267  -12.0455 O   0  0  0  0  0  0  0  0  0  0  0  0
   21.5092  -20.8146  -10.9738 O   0  0  0  0  0  0  0  0  0  0  0  0
  1  2  1  0
  3  5  1  0
  3  2  1  0
  3  4  1  6
  5  6  2  0
  5  7  1  0
  7  8  1  0
  8  9  1  1
  9 10  1  0
 10 15  1  0
 11 10  2  0
 11 12  1  0
 12 13  2  0
 13 14  1  0
 15 14  2  0
 16 17  2  0
 16  8  1  0
 18 16  1  0
 19 18  1  0
 19 20  1  1
 21 25  1  0
 21 20  1  0
 22 21  2  0
 23 22  1  0
 23 24  1  0
 24 25  2  0
 26 19  1  0
 27 26  1  0
 28 26  2  0
M  END
$$$$
