SFH.pdb
     RDKit          3D

 28 29  0  0  1  0  0  0  0  0999 V2000
   16.2236   -9.2996  -17.3897 O   0  0  0  0  0  0  0  0  0  0  0  0
   16.4849   -8.5822  -16.2453 C   0  0  0  0  0  0  0  0  0  0  0  0
   17.9428   -8.6029  -15.8504 C   0  0  2  0  0  0  0  0  0  0  0  0
   18.5805   -9.7516  -16.4530 N   0  0  0  0  0  0  0  0  0  0  0  0
   18.1176   -8.6041  -14.3798 C   0  0  0  0  0  0  0  0  0  0  0  0
   18.0640   -9.6979  -13.7657 O   0  0  0  0  0  0  0  0  0  0  0  0
   18.3433   -7.4495  -13.6000 N   0  0  0  0  0  0  0  0  0  0  0  0
   18.5252   -7.4298  -12.1746 C   0  0  1  0  0  0  0  0  0  0  0  0
   19.8545   -7.0435  -11.6971 C   0  0  0  0  0  0  0  0  0  0  0  0
   20.9746   -7.8693  -12.1801 C   0  0  0  0  0  0  0  0  0  0  0  0
   21.7155   -7.5554  -13.2919 C   0  0  0  0  0  0  0  0  0  0  0  0
   22.7763   -8.3698  -13.7004 C   0  0  0  0  0  0  0  0  0  0  0  0
   23.0924   -9.5126  -12.9809 C   0  0  0  0  0  0  0  0  0  0  0  0
   22.3594   -9.8224  -11.8838 C   0  0  0  0  0  0  0  0  0  0  0  0
   21.2936   -9.0035  -11.4733 C   0  0  0  0  0  0  0  0  0  0  0  0
   17.4865   -6.6347  -11.4860 C   0  0  0  0  0  0  0  0  0  0  0  0
   17.0726   -5.5634  -11.9790 O   0  0  0  0  0  0  0  0  0  0  0  0
   16.9635   -7.0933  -10.2719 N   0  0  0  0  0  0  0  0  0  0  0  0
   15.9263   -6.3602   -9.5335 C   0  0  1  0  0  0  0  0  0  0  0  0
   15.2711   -7.4192   -8.6492 C   0  0  0  0  0  0  0  0  0  0  0  0
   14.4969   -8.3834   -9.4388 C   0  0  0  0  0  0  0  0  0  0  0  0
   13.4416   -8.0429  -10.2883 C   0  0  0  0  0  0  0  0  0  0  0  0
   12.9805   -9.1792  -10.8423 N   0  0  0  0  0  0  0  0  0  0  0  0
   13.6957  -10.2212  -10.3802 C   0  0  0  0  0  0  0  0  0  0  0  0
   14.6129   -9.7194   -9.5293 N   0  0  0  0  0  0  0  0  0  0  0  0
   16.5774   -5.3109   -8.7200 C   0  0  0  0  0  0  0  0  0  0  0  0
   15.7670   -4.3697   -8.1074 O   0  0  0  0  0  0  0  0  0  0  0  0
   17.8176   -5.2111   -8.5438 O   0  0  0  0  0  0  0  0  0  0  0  0
  1  2  1  0
  3  5  1  0
  3  2  1  0
  3  4  1  1
  5  6  2  0
  5  7  1  0
  7  8  1  0
  8  9  1  6
  9 10  1  0
 10 15  1  0
 11 10  2  0
 11 12  1  0
 12 13  2  0
 13 14  1  0
 15 14  2  0
 16 17  2  0
 16  8  1  0
 18 16  1  0
 19 18  1  0
 19 20  1  1
 21 25  1  0
 21 20  1  0
 22 21  2  0
 23 22  1  0
 23 24  1  0
 24 25  2  0
 26 19  1  0
 27 26  1  0
 28 26  2  0
M  END
$$$$
