SFH.pdb
     RDKit          3D

 28 29  0  0  1  0  0  0  0  0999 V2000
   27.1418  -21.9652  -19.0163 O   0  0  0  0  0  0  0  0  0  0  0  0
   28.2225  -21.2500  -18.5544 C   0  0  0  0  0  0  0  0  0  0  0  0
   28.9261  -21.9174  -17.3962 C   0  0  2  0  0  0  0  0  0  0  0  0
   29.4104  -23.2122  -17.8187 N   0  0  0  0  0  0  0  0  0  0  0  0
   28.0481  -22.0357  -16.2096 C   0  0  0  0  0  0  0  0  0  0  0  0
   27.6249  -23.1714  -15.8818 O   0  0  0  0  0  0  0  0  0  0  0  0
   27.6417  -20.9506  -15.4036 N   0  0  0  0  0  0  0  0  0  0  0  0
   26.8308  -21.0494  -14.2212 C   0  0  1  0  0  0  0  0  0  0  0  0
   27.0519  -20.0257  -13.1976 C   0  0  0  0  0  0  0  0  0  0  0  0
   26.3648  -20.2441  -11.9131 C   0  0  0  0  0  0  0  0  0  0  0  0
   25.1134  -19.7530  -11.6367 C   0  0  0  0  0  0  0  0  0  0  0  0
   24.5024  -19.9995  -10.4033 C   0  0  0  0  0  0  0  0  0  0  0  0
   25.1604  -20.7480   -9.4388 C   0  0  0  0  0  0  0  0  0  0  0  0
   26.3967  -21.2316   -9.7122 C   0  0  0  0  0  0  0  0  0  0  0  0
   27.0103  -20.9840  -10.9520 C   0  0  0  0  0  0  0  0  0  0  0  0
   25.3898  -21.1526  -14.5344 C   0  0  0  0  0  0  0  0  0  0  0  0
   24.8557  -20.3652  -15.3449 O   0  0  0  0  0  0  0  0  0  0  0  0
   24.6225  -22.1459  -13.9161 N   0  0  0  0  0  0  0  0  0  0  0  0
   23.1900  -22.3210  -14.1916 C   0  0  1  0  0  0  0  0  0  0  0  0
   22.8897  -23.7491  -13.7409 C   0  0  0  0  0  0  0  0  0  0  0  0
   23.1417  -24.7210  -14.8106 C   0  0  0  0  0  0  0  0  0  0  0  0
   23.5037  -24.3826  -16.1167 C   0  0  0  0  0  0  0  0  0  0  0  0
   23.6537  -25.5271  -16.8083 N   0  0  0  0  0  0  0  0  0  0  0  0
   23.4015  -26.5720  -15.9988 C   0  0  0  0  0  0  0  0  0  0  0  0
   23.0928  -26.0640  -14.7890 N   0  0  0  0  0  0  0  0  0  0  0  0
   22.4309  -21.3358  -13.3917 C   0  0  0  0  0  0  0  0  0  0  0  0
   21.3871  -20.6666  -14.0086 O   0  0  0  0  0  0  0  0  0  0  0  0
   22.6652  -21.0608  -12.1882 O   0  0  0  0  0  0  0  0  0  0  0  0
  1  2  1  0
  3  5  1  0
  3  2  1  0
  3  4  1  6
  5  6  2  0
  5  7  1  0
  7  8  1  0
  8  9  1  1
  9 10  1  0
 10 15  1  0
 11 10  2  0
 11 12  1  0
 12 13  2  0
 13 14  1  0
 15 14  2  0
 16 17  2  0
 16  8  1  0
 18 16  1  0
 19 18  1  0
 19 20  1  1
 21 25  1  0
 21 20  1  0
 22 21  2  0
 23 22  1  0
 23 24  1  0
 24 25  2  0
 26 19  1  0
 27 26  1  0
 28 26  2  0
M  END
$$$$
