SFH.pdb
     RDKit          3D

 28 29  0  0  1  0  0  0  0  0999 V2000
   27.1811  -19.2743  -13.9592 O   0  0  0  0  0  0  0  0  0  0  0  0
   28.5221  -19.5773  -13.9074 C   0  0  0  0  0  0  0  0  0  0  0  0
   28.7932  -21.0089  -13.5085 C   0  0  2  0  0  0  0  0  0  0  0  0
   28.1385  -21.8938  -14.4454 N   0  0  0  0  0  0  0  0  0  0  0  0
   28.3623  -21.2871  -12.1193 C   0  0  0  0  0  0  0  0  0  0  0  0
   27.3090  -21.9448  -11.9334 O   0  0  0  0  0  0  0  0  0  0  0  0
   29.0562  -20.8619  -10.9660 N   0  0  0  0  0  0  0  0  0  0  0  0
   28.4905  -20.7431   -9.6503 C   0  0  1  0  0  0  0  0  0  0  0  0
   29.3223  -20.0766   -8.6461 C   0  0  0  0  0  0  0  0  0  0  0  0
   28.7395  -19.9720   -7.2974 C   0  0  0  0  0  0  0  0  0  0  0  0
   28.9041  -20.9322   -6.3306 C   0  0  0  0  0  0  0  0  0  0  0  0
   28.3372  -20.7772   -5.0618 C   0  0  0  0  0  0  0  0  0  0  0  0
   27.5961  -19.6429   -4.7653 C   0  0  0  0  0  0  0  0  0  0  0  0
   27.4331  -18.6958   -5.7211 C   0  0  0  0  0  0  0  0  0  0  0  0
   28.0033  -18.8517   -6.9960 C   0  0  0  0  0  0  0  0  0  0  0  0
   27.1395  -20.1435   -9.6709 C   0  0  0  0  0  0  0  0  0  0  0  0
   26.9485  -19.0201  -10.1845 O   0  0  0  0  0  0  0  0  0  0  0  0
   26.0676  -20.8472   -9.1109 N   0  0  0  0  0  0  0  0  0  0  0  0
   24.6701  -20.4342   -9.2976 C   0  0  1  0  0  0  0  0  0  0  0  0
   24.3157  -20.9216  -10.7010 C   0  0  0  0  0  0  0  0  0  0  0  0
   22.9437  -20.5580  -11.0724 C   0  0  0  0  0  0  0  0  0  0  0  0
   22.0641  -19.8489  -10.2509 C   0  0  0  0  0  0  0  0  0  0  0  0
   20.9086  -19.6984  -10.9237 N   0  0  0  0  0  0  0  0  0  0  0  0
   21.0183  -20.2813  -12.1316 C   0  0  0  0  0  0  0  0  0  0  0  0
   22.2612  -20.7978  -12.2052 N   0  0  0  0  0  0  0  0  0  0  0  0
   23.8389  -21.1017   -8.2728 C   0  0  0  0  0  0  0  0  0  0  0  0
   22.5472  -20.6394   -8.0842 O   0  0  0  0  0  0  0  0  0  0  0  0
   24.2214  -22.0617   -7.5578 O   0  0  0  0  0  0  0  0  0  0  0  0
  1  2  1  0
  3  5  1  0
  3  2  1  0
  3  4  1  6
  5  6  2  0
  5  7  1  0
  7  8  1  0
  8  9  1  1
  9 10  1  0
 10 15  1  0
 11 10  2  0
 11 12  1  0
 12 13  2  0
 13 14  1  0
 15 14  2  0
 16 17  2  0
 16  8  1  0
 18 16  1  0
 19 18  1  0
 19 20  1  6
 21 25  1  0
 21 20  1  0
 22 21  2  0
 23 22  1  0
 23 24  1  0
 24 25  2  0
 26 19  1  0
 27 26  1  0
 28 26  2  0
M  END
$$$$
