SFH.pdb
     RDKit          3D

 28 29  0  0  1  0  0  0  0  0999 V2000
   41.1336  -26.3189    1.8519 O   0  0  0  0  0  0  0  0  0  0  0  0
   40.7796  -26.4997    3.1690 C   0  0  0  0  0  0  0  0  0  0  0  0
   40.3395  -25.2235    3.8469 C   0  0  2  0  0  0  0  0  0  0  0  0
   41.4378  -24.6976    4.6257 N   0  0  0  0  0  0  0  0  0  0  0  0
   39.1379  -25.4298    4.6876 C   0  0  0  0  0  0  0  0  0  0  0  0
   39.2831  -25.8907    5.8465 O   0  0  0  0  0  0  0  0  0  0  0  0
   37.8173  -25.1438    4.2798 N   0  0  0  0  0  0  0  0  0  0  0  0
   36.6385  -25.3384    5.0784 C   0  0  1  0  0  0  0  0  0  0  0  0
   35.8412  -24.1422    5.3573 C   0  0  0  0  0  0  0  0  0  0  0  0
   36.2836  -23.3293    6.5033 C   0  0  0  0  0  0  0  0  0  0  0  0
   35.6191  -23.2973    7.7037 C   0  0  0  0  0  0  0  0  0  0  0  0
   36.0893  -22.5155    8.7634 C   0  0  0  0  0  0  0  0  0  0  0  0
   37.2408  -21.7575    8.6105 C   0  0  0  0  0  0  0  0  0  0  0  0
   37.8956  -21.7888    7.4242 C   0  0  0  0  0  0  0  0  0  0  0  0
   37.4229  -22.5750    6.3597 C   0  0  0  0  0  0  0  0  0  0  0  0
   35.7733  -26.4149    4.5513 C   0  0  0  0  0  0  0  0  0  0  0  0
   35.2487  -26.3151    3.4212 O   0  0  0  0  0  0  0  0  0  0  0  0
   35.5459  -27.5555    5.3290 N   0  0  0  0  0  0  0  0  0  0  0  0
   34.7861  -28.7103    4.8312 C   0  0  1  0  0  0  0  0  0  0  0  0
   35.7719  -29.8742    4.9097 C   0  0  0  0  0  0  0  0  0  0  0  0
   36.5534  -30.0088    3.6754 C   0  0  0  0  0  0  0  0  0  0  0  0
   36.4378  -29.1620    2.5704 C   0  0  0  0  0  0  0  0  0  0  0  0
   37.3087  -29.5873    1.6371 N   0  0  0  0  0  0  0  0  0  0  0  0
   37.9676  -30.6646    2.1020 C   0  0  0  0  0  0  0  0  0  0  0  0
   37.4967  -30.9063    3.3417 N   0  0  0  0  0  0  0  0  0  0  0  0
   33.6248  -28.9307    5.7197 C   0  0  0  0  0  0  0  0  0  0  0  0
   32.4957  -29.5202    5.1762 O   0  0  0  0  0  0  0  0  0  0  0  0
   33.5882  -28.6206    6.9369 O   0  0  0  0  0  0  0  0  0  0  0  0
  1  2  1  0
  3  5  1  0
  3  2  1  0
  3  4  1  1
  5  6  2  0
  5  7  1  0
  7  8  1  0
  8  9  1  6
  9 10  1  0
 10 15  1  0
 11 10  2  0
 11 12  1  0
 12 13  2  0
 13 14  1  0
 15 14  2  0
 16 17  2  0
 16  8  1  0
 18 16  1  0
 19 18  1  0
 19 20  1  1
 21 25  1  0
 21 20  1  0
 22 21  2  0
 23 22  1  0
 23 24  1  0
 24 25  2  0
 26 19  1  0
 27 26  1  0
 28 26  2  0
M  END
$$$$
