SFH.pdb
     RDKit          3D

 28 29  0  0  1  0  0  0  0  0999 V2000
   26.4557  -20.2115  -17.3310 O   0  0  0  0  0  0  0  0  0  0  0  0
   27.6116  -20.2730  -16.5875 C   0  0  0  0  0  0  0  0  0  0  0  0
   27.7612  -21.5697  -15.8272 C   0  0  2  0  0  0  0  0  0  0  0  0
   27.7156  -22.6735  -16.7594 N   0  0  0  0  0  0  0  0  0  0  0  0
   26.7299  -21.7157  -14.7744 C   0  0  0  0  0  0  0  0  0  0  0  0
   25.8546  -22.6063  -14.9051 O   0  0  0  0  0  0  0  0  0  0  0  0
   26.6526  -20.9161  -13.6138 N   0  0  0  0  0  0  0  0  0  0  0  0
   25.5557  -20.8998  -12.6855 C   0  0  1  0  0  0  0  0  0  0  0  0
   25.7787  -20.1743  -11.4331 C   0  0  0  0  0  0  0  0  0  0  0  0
   24.7096  -20.2889  -10.4263 C   0  0  0  0  0  0  0  0  0  0  0  0
   23.5119  -19.6256  -10.5224 C   0  0  0  0  0  0  0  0  0  0  0  0
   22.5264  -19.7789   -9.5423 C   0  0  0  0  0  0  0  0  0  0  0  0
   22.7513  -20.6089   -8.4541 C   0  0  0  0  0  0  0  0  0  0  0  0
   23.9348  -21.2626   -8.3595 C   0  0  0  0  0  0  0  0  0  0  0  0
   24.9249  -21.1086   -9.3448 C   0  0  0  0  0  0  0  0  0  0  0  0
   24.2938  -20.4544  -13.3136 C   0  0  0  0  0  0  0  0  0  0  0  0
   24.2401  -19.3739  -13.9397 O   0  0  0  0  0  0  0  0  0  0  0  0
   23.1525  -21.2565  -13.2048 N   0  0  0  0  0  0  0  0  0  0  0  0
   21.8772  -20.9033  -13.8432 C   0  0  1  0  0  0  0  0  0  0  0  0
   21.5808  -22.0786  -14.7724 C   0  0  0  0  0  0  0  0  0  0  0  0
   21.6140  -21.6777  -16.1834 C   0  0  0  0  0  0  0  0  0  0  0  0
   21.7720  -20.3628  -16.6279 C   0  0  0  0  0  0  0  0  0  0  0  0
   21.7589  -20.3823  -17.9733 N   0  0  0  0  0  0  0  0  0  0  0  0
   21.5986  -21.6491  -18.3980 C   0  0  0  0  0  0  0  0  0  0  0  0
   21.5129  -22.4228  -17.2975 N   0  0  0  0  0  0  0  0  0  0  0  0
   20.8429  -20.7756  -12.7941 C   0  0  0  0  0  0  0  0  0  0  0  0
   19.9030  -19.7676  -12.9300 O   0  0  0  0  0  0  0  0  0  0  0  0
   20.7547  -21.5183  -11.7843 O   0  0  0  0  0  0  0  0  0  0  0  0
  1  2  1  0
  3  5  1  0
  3  2  1  0
  3  4  1  6
  5  6  2  0
  5  7  1  0
  7  8  1  0
  8  9  1  1
  9 10  1  0
 10 15  1  0
 11 10  2  0
 11 12  1  0
 12 13  2  0
 13 14  1  0
 15 14  2  0
 16 17  2  0
 16  8  1  0
 18 16  1  0
 19 18  1  0
 19 20  1  6
 21 25  1  0
 21 20  1  0
 22 21  2  0
 23 22  1  0
 23 24  1  0
 24 25  2  0
 26 19  1  0
 27 26  1  0
 28 26  2  0
M  END
$$$$
