SFH.pdb
     RDKit          3D

 28 29  0  0  1  0  0  0  0  0999 V2000
   30.3653  -21.1585  -12.7448 O   0  0  0  0  0  0  0  0  0  0  0  0
   30.6257  -20.3730  -11.6457 C   0  0  0  0  0  0  0  0  0  0  0  0
   30.6542  -21.1518  -10.3517 C   0  0  2  0  0  0  0  0  0  0  0  0
   31.3011  -22.4243  -10.5788 N   0  0  0  0  0  0  0  0  0  0  0  0
   29.2978  -21.3346   -9.7861 C   0  0  0  0  0  0  0  0  0  0  0  0
   28.7743  -22.4750   -9.8277 O   0  0  0  0  0  0  0  0  0  0  0  0
   28.5330  -20.3070   -9.1932 N   0  0  0  0  0  0  0  0  0  0  0  0
   27.1347  -20.3893   -8.8721 C   0  0  1  0  0  0  0  0  0  0  0  0
   26.6819  -19.5777   -7.7404 C   0  0  0  0  0  0  0  0  0  0  0  0
   27.4797  -19.6941   -6.5077 C   0  0  0  0  0  0  0  0  0  0  0  0
   28.5206  -18.8529   -6.2034 C   0  0  0  0  0  0  0  0  0  0  0  0
   29.2387  -19.0018   -5.0128 C   0  0  0  0  0  0  0  0  0  0  0  0
   28.9041  -20.0096   -4.1206 C   0  0  0  0  0  0  0  0  0  0  0  0
   27.8768  -20.8405   -4.4224 C   0  0  0  0  0  0  0  0  0  0  0  0
   27.1552  -20.6904   -5.6189 C   0  0  0  0  0  0  0  0  0  0  0  0
   26.2723  -20.1481  -10.0483 C   0  0  0  0  0  0  0  0  0  0  0  0
   26.3836  -19.0970  -10.7154 O   0  0  0  0  0  0  0  0  0  0  0  0
   25.3261  -21.1115  -10.4147 N   0  0  0  0  0  0  0  0  0  0  0  0
   24.5464  -21.0181  -11.6564 C   0  0  1  0  0  0  0  0  0  0  0  0
   24.6538  -22.4097  -12.2764 C   0  0  0  0  0  0  0  0  0  0  0  0
   23.8589  -22.5205  -13.5046 C   0  0  0  0  0  0  0  0  0  0  0  0
   23.0984  -21.4834  -14.0499 C   0  0  0  0  0  0  0  0  0  0  0  0
   22.5166  -21.9492  -15.1703 N   0  0  0  0  0  0  0  0  0  0  0  0
   22.8742  -23.2331  -15.3561 C   0  0  0  0  0  0  0  0  0  0  0  0
   23.6902  -23.5635  -14.3353 N   0  0  0  0  0  0  0  0  0  0  0  0
   23.1459  -20.6916  -11.3118 C   0  0  0  0  0  0  0  0  0  0  0  0
   22.3463  -20.1429  -12.3005 O   0  0  0  0  0  0  0  0  0  0  0  0
   22.6269  -20.8766  -10.1825 O   0  0  0  0  0  0  0  0  0  0  0  0
  1  2  1  0
  3  5  1  0
  3  2  1  0
  3  4  1  6
  5  6  2  0
  5  7  1  0
  7  8  1  0
  8  9  1  1
  9 10  1  0
 10 15  1  0
 11 10  2  0
 11 12  1  0
 12 13  2  0
 13 14  1  0
 15 14  2  0
 16 17  2  0
 16  8  1  0
 18 16  1  0
 19 18  1  0
 19 20  1  1
 21 25  1  0
 21 20  1  0
 22 21  2  0
 23 22  1  0
 23 24  1  0
 24 25  2  0
 26 19  1  0
 27 26  1  0
 28 26  2  0
M  END
$$$$
