SFH.pdb
     RDKit          3D

 28 29  0  0  1  0  0  0  0  0999 V2000
   27.7398  -35.2771  -12.1340 O   0  0  0  0  0  0  0  0  0  0  0  0
   26.9217  -35.6922  -13.1593 C   0  0  0  0  0  0  0  0  0  0  0  0
   26.3517  -34.5487  -13.9652 C   0  0  2  0  0  0  0  0  0  0  0  0
   27.4179  -33.6369  -14.3135 N   0  0  0  0  0  0  0  0  0  0  0  0
   25.2650  -33.8497  -13.2416 C   0  0  0  0  0  0  0  0  0  0  0  0
   24.7882  -32.7988  -13.7361 O   0  0  0  0  0  0  0  0  0  0  0  0
   24.7136  -34.2807  -12.0158 N   0  0  0  0  0  0  0  0  0  0  0  0
   23.5590  -33.7122  -11.3765 C   0  0  1  0  0  0  0  0  0  0  0  0
   22.3419  -33.6367  -12.1873 C   0  0  0  0  0  0  0  0  0  0  0  0
   22.3220  -32.5845  -13.2179 C   0  0  0  0  0  0  0  0  0  0  0  0
   22.1218  -31.2568  -12.9334 C   0  0  0  0  0  0  0  0  0  0  0  0
   22.1232  -30.2971  -13.9503 C   0  0  0  0  0  0  0  0  0  0  0  0
   22.3276  -30.6803  -15.2675 C   0  0  0  0  0  0  0  0  0  0  0  0
   22.5240  -31.9917  -15.5477 C   0  0  0  0  0  0  0  0  0  0  0  0
   22.5229  -32.9559  -14.5254 C   0  0  0  0  0  0  0  0  0  0  0  0
   23.2649  -34.3503  -10.0759 C   0  0  0  0  0  0  0  0  0  0  0  0
   23.0544  -35.5801  -10.0024 O   0  0  0  0  0  0  0  0  0  0  0  0
   23.2264  -33.5644   -8.9189 N   0  0  0  0  0  0  0  0  0  0  0  0
   22.9710  -34.1326   -7.5883 C   0  0  1  0  0  0  0  0  0  0  0  0
   23.5991  -33.1305   -6.6219 C   0  0  0  0  0  0  0  0  0  0  0  0
   25.0480  -33.3266   -6.5011 C   0  0  0  0  0  0  0  0  0  0  0  0
   25.7482  -34.4033   -7.0504 C   0  0  0  0  0  0  0  0  0  0  0  0
   27.0483  -34.2453   -6.7414 N   0  0  0  0  0  0  0  0  0  0  0  0
   27.2002  -33.1189   -6.0210 C   0  0  0  0  0  0  0  0  0  0  0  0
   25.9751  -32.5733   -5.8851 N   0  0  0  0  0  0  0  0  0  0  0  0
   21.5090  -34.2269   -7.3872 C   0  0  0  0  0  0  0  0  0  0  0  0
   21.0513  -34.8846   -6.2577 O   0  0  0  0  0  0  0  0  0  0  0  0
   20.6486  -33.7517   -8.1701 O   0  0  0  0  0  0  0  0  0  0  0  0
  1  2  1  0
  3  5  1  0
  3  2  1  0
  3  4  1  1
  5  6  2  0
  5  7  1  0
  7  8  1  0
  8  9  1  6
  9 10  1  0
 10 15  1  0
 11 10  2  0
 11 12  1  0
 12 13  2  0
 13 14  1  0
 15 14  2  0
 16 17  2  0
 16  8  1  0
 18 16  1  0
 19 18  1  0
 19 20  1  1
 21 25  1  0
 21 20  1  0
 22 21  2  0
 23 22  1  0
 23 24  1  0
 24 25  2  0
 26 19  1  0
 27 26  1  0
 28 26  2  0
M  END
$$$$
