SFH.pdb
     RDKit          3D

 28 29  0  0  1  0  0  0  0  0999 V2000
   28.6209  -22.7496  -19.6148 O   0  0  0  0  0  0  0  0  0  0  0  0
   27.8279  -23.2368  -18.6016 C   0  0  0  0  0  0  0  0  0  0  0  0
   28.5691  -23.4083  -17.2966 C   0  0  2  0  0  0  0  0  0  0  0  0
   29.2123  -24.7027  -17.2837 N   0  0  0  0  0  0  0  0  0  0  0  0
   27.6756  -23.2431  -16.1272 C   0  0  0  0  0  0  0  0  0  0  0  0
   27.0891  -24.2536  -15.6672 O   0  0  0  0  0  0  0  0  0  0  0  0
   27.4266  -22.0150  -15.4776 N   0  0  0  0  0  0  0  0  0  0  0  0
   26.5525  -21.8306  -14.3519 C   0  0  1  0  0  0  0  0  0  0  0  0
   26.9229  -20.7705  -13.4119 C   0  0  0  0  0  0  0  0  0  0  0  0
   26.1020  -20.6792  -12.1923 C   0  0  0  0  0  0  0  0  0  0  0  0
   24.9315  -19.9657  -12.1253 C   0  0  0  0  0  0  0  0  0  0  0  0
   24.1850  -19.9213  -10.9438 C   0  0  0  0  0  0  0  0  0  0  0  0
   24.6238  -20.6026   -9.8182 C   0  0  0  0  0  0  0  0  0  0  0  0
   25.7805  -21.3060   -9.8849 C   0  0  0  0  0  0  0  0  0  0  0  0
   26.5302  -21.3506  -11.0727 C   0  0  0  0  0  0  0  0  0  0  0  0
   25.1386  -21.6806  -14.7564 C   0  0  0  0  0  0  0  0  0  0  0  0
   24.7954  -20.7798  -15.5519 O   0  0  0  0  0  0  0  0  0  0  0  0
   24.1805  -22.5611  -14.2421 N   0  0  0  0  0  0  0  0  0  0  0  0
   22.7529  -22.4527  -14.5720 C   0  0  1  0  0  0  0  0  0  0  0  0
   22.1902  -23.8421  -14.2794 C   0  0  0  0  0  0  0  0  0  0  0  0
   20.7523  -23.9166  -14.5608 C   0  0  0  0  0  0  0  0  0  0  0  0
   19.9557  -22.8205  -14.9008 C   0  0  0  0  0  0  0  0  0  0  0  0
   18.7015  -23.2701  -15.0892 N   0  0  0  0  0  0  0  0  0  0  0  0
   18.6700  -24.5994  -14.8823 C   0  0  0  0  0  0  0  0  0  0  0  0
   19.9244  -24.9754  -14.5628 N   0  0  0  0  0  0  0  0  0  0  0  0
   22.1413  -21.4313  -13.6948 C   0  0  0  0  0  0  0  0  0  0  0  0
   21.1120  -20.6637  -14.2138 O   0  0  0  0  0  0  0  0  0  0  0  0
   22.4892  -21.2086  -12.5081 O   0  0  0  0  0  0  0  0  0  0  0  0
  1  2  1  0
  3  5  1  0
  3  2  1  0
  3  4  1  6
  5  6  2  0
  5  7  1  0
  7  8  1  0
  8  9  1  6
  9 10  1  0
 10 15  1  0
 11 10  2  0
 11 12  1  0
 12 13  2  0
 13 14  1  0
 15 14  2  0
 16 17  2  0
 16  8  1  0
 18 16  1  0
 19 18  1  0
 19 20  1  1
 21 25  1  0
 21 20  1  0
 22 21  2  0
 23 22  1  0
 23 24  1  0
 24 25  2  0
 26 19  1  0
 27 26  1  0
 28 26  2  0
M  END
$$$$
