SFH.pdb
     RDKit          3D

 28 29  0  0  1  0  0  0  0  0999 V2000
   13.1643  -14.6960    8.2276 O   0  0  0  0  0  0  0  0  0  0  0  0
   13.9796  -13.6163    8.4773 C   0  0  0  0  0  0  0  0  0  0  0  0
   14.7562  -13.1643    7.2631 C   0  0  2  0  0  0  0  0  0  0  0  0
   13.8375  -12.9382    6.1703 N   0  0  0  0  0  0  0  0  0  0  0  0
   15.8077  -14.1364    6.8856 C   0  0  0  0  0  0  0  0  0  0  0  0
   15.6424  -14.8362    5.8563 O   0  0  0  0  0  0  0  0  0  0  0  0
   17.0035  -14.3419    7.6068 N   0  0  0  0  0  0  0  0  0  0  0  0
   18.0482  -15.2592    7.2429 C   0  0  1  0  0  0  0  0  0  0  0  0
   19.2497  -14.6689    6.6491 C   0  0  0  0  0  0  0  0  0  0  0  0
   19.0694  -14.0364    5.3311 C   0  0  0  0  0  0  0  0  0  0  0  0
   18.7634  -14.7416    4.1941 C   0  0  0  0  0  0  0  0  0  0  0  0
   18.5925  -14.0889    2.9694 C   0  0  0  0  0  0  0  0  0  0  0  0
   18.7324  -12.7112    2.8903 C   0  0  0  0  0  0  0  0  0  0  0  0
   19.0358  -12.0158    4.0134 C   0  0  0  0  0  0  0  0  0  0  0  0
   19.2071  -12.6721    5.2442 C   0  0  0  0  0  0  0  0  0  0  0  0
   18.4200  -16.1584    8.3557 C   0  0  0  0  0  0  0  0  0  0  0  0
   18.2885  -15.7912    9.5431 O   0  0  0  0  0  0  0  0  0  0  0  0
   18.9208  -17.4333    8.0699 N   0  0  0  0  0  0  0  0  0  0  0  0
   19.3211  -18.3770    9.1224 C   0  0  1  0  0  0  0  0  0  0  0  0
   18.4573  -19.6115    8.8725 C   0  0  0  0  0  0  0  0  0  0  0  0
   17.1143  -19.4597    9.4432 C   0  0  0  0  0  0  0  0  0  0  0  0
   15.9928  -19.0395    8.7240 C   0  0  0  0  0  0  0  0  0  0  0  0
   14.9468  -19.0253    9.5703 N   0  0  0  0  0  0  0  0  0  0  0  0
   15.3572  -19.4160   10.7909 C   0  0  0  0  0  0  0  0  0  0  0  0
   16.6763  -19.6765   10.6953 N   0  0  0  0  0  0  0  0  0  0  0  0
   20.7579  -18.6862    8.9586 C   0  0  0  0  0  0  0  0  0  0  0  0
   21.5044  -18.9220   10.1010 O   0  0  0  0  0  0  0  0  0  0  0  0
   21.3527  -18.7507    7.8536 O   0  0  0  0  0  0  0  0  0  0  0  0
  1  2  1  0
  3  5  1  0
  3  2  1  0
  3  4  1  6
  5  6  2  0
  5  7  1  0
  7  8  1  0
  8  9  1  1
  9 10  1  0
 10 15  1  0
 11 10  2  0
 11 12  1  0
 12 13  2  0
 13 14  1  0
 15 14  2  0
 16 17  2  0
 16  8  1  0
 18 16  1  0
 19 18  1  0
 19 20  1  6
 21 25  1  0
 21 20  1  0
 22 21  2  0
 23 22  1  0
 23 24  1  0
 24 25  2  0
 26 19  1  0
 27 26  1  0
 28 26  2  0
M  END
$$$$
