SFH.pdb
     RDKit          3D

 28 29  0  0  1  0  0  0  0  0999 V2000
   21.5300  -11.1744  -18.3744 O   0  0  0  0  0  0  0  0  0  0  0  0
   22.0218  -10.4113  -17.3407 C   0  0  0  0  0  0  0  0  0  0  0  0
   23.5100  -10.1701  -17.4355 C   0  0  2  0  0  0  0  0  0  0  0  0
   23.7982   -9.4637  -18.6632 N   0  0  0  0  0  0  0  0  0  0  0  0
   24.2813  -11.4314  -17.3503 C   0  0  0  0  0  0  0  0  0  0  0  0
   24.7791  -11.9075  -18.4000 O   0  0  0  0  0  0  0  0  0  0  0  0
   24.5040  -12.1541  -16.1585 N   0  0  0  0  0  0  0  0  0  0  0  0
   25.2804  -13.3583  -16.0476 C   0  0  1  0  0  0  0  0  0  0  0  0
   26.5162  -13.2620  -15.2679 C   0  0  0  0  0  0  0  0  0  0  0  0
   27.5855  -12.4396  -15.8596 C   0  0  0  0  0  0  0  0  0  0  0  0
   28.5316  -12.9407  -16.7183 C   0  0  0  0  0  0  0  0  0  0  0  0
   29.5193  -12.1122  -17.2601 C   0  0  0  0  0  0  0  0  0  0  0  0
   29.5535  -10.7651  -16.9319 C   0  0  0  0  0  0  0  0  0  0  0  0
   28.6195  -10.2714  -16.0829 C   0  0  0  0  0  0  0  0  0  0  0  0
   27.6268  -11.1042  -15.5389 C   0  0  0  0  0  0  0  0  0  0  0  0
   24.4739  -14.5067  -15.5827 C   0  0  0  0  0  0  0  0  0  0  0  0
   23.9309  -14.4901  -14.4571 O   0  0  0  0  0  0  0  0  0  0  0  0
   24.3185  -15.6189  -16.4172 N   0  0  0  0  0  0  0  0  0  0  0  0
   23.3506  -16.6875  -16.1343 C   0  0  1  0  0  0  0  0  0  0  0  0
   21.9886  -16.0091  -16.2661 C   0  0  0  0  0  0  0  0  0  0  0  0
   20.8877  -16.9697  -16.1327 C   0  0  0  0  0  0  0  0  0  0  0  0
   20.3964  -17.7585  -17.1757 C   0  0  0  0  0  0  0  0  0  0  0  0
   19.3988  -18.5141  -16.6812 N   0  0  0  0  0  0  0  0  0  0  0  0
   19.2373  -18.2371  -15.3743 C   0  0  0  0  0  0  0  0  0  0  0  0
   20.1504  -17.2974  -15.0578 N   0  0  0  0  0  0  0  0  0  0  0  0
   23.5172  -17.7555  -17.1433 C   0  0  0  0  0  0  0  0  0  0  0  0
   23.1123  -19.0359  -16.8046 O   0  0  0  0  0  0  0  0  0  0  0  0
   24.0015  -17.5849  -18.2902 O   0  0  0  0  0  0  0  0  0  0  0  0
  1  2  1  0
  3  5  1  0
  3  2  1  0
  3  4  1  6
  5  6  2  0
  5  7  1  0
  7  8  1  0
  8  9  1  1
  9 10  1  0
 10 15  1  0
 11 10  2  0
 11 12  1  0
 12 13  2  0
 13 14  1  0
 15 14  2  0
 16 17  2  0
 16  8  1  0
 18 16  1  0
 19 18  1  0
 19 20  1  6
 21 25  1  0
 21 20  1  0
 22 21  2  0
 23 22  1  0
 23 24  1  0
 24 25  2  0
 26 19  1  0
 27 26  1  0
 28 26  2  0
M  END
$$$$
