SFH.pdb
     RDKit          3D

 28 29  0  0  1  0  0  0  0  0999 V2000
   22.6037  -10.7768  -21.7076 O   0  0  0  0  0  0  0  0  0  0  0  0
   22.2207  -10.4080  -20.4388 C   0  0  0  0  0  0  0  0  0  0  0  0
   23.3809  -10.2878  -19.4789 C   0  0  2  0  0  0  0  0  0  0  0  0
   23.9258  -11.6028  -19.2272 N   0  0  0  0  0  0  0  0  0  0  0  0
   22.9875   -9.6211  -18.2164 C   0  0  0  0  0  0  0  0  0  0  0  0
   22.1960  -10.2127  -17.4417 O   0  0  0  0  0  0  0  0  0  0  0  0
   23.4410   -8.3482  -17.8087 N   0  0  0  0  0  0  0  0  0  0  0  0
   23.0592   -7.6770  -16.5966 C   0  0  1  0  0  0  0  0  0  0  0  0
   24.1384   -7.3871  -15.6501 C   0  0  0  0  0  0  0  0  0  0  0  0
   24.9941   -8.5287  -15.2836 C   0  0  0  0  0  0  0  0  0  0  0  0
   26.2459   -8.7294  -15.8093 C   0  0  0  0  0  0  0  0  0  0  0  0
   27.0210   -9.8254  -15.4179 C   0  0  0  0  0  0  0  0  0  0  0  0
   26.5284  -10.7285  -14.4876 C   0  0  0  0  0  0  0  0  0  0  0  0
   25.2916  -10.5301  -13.9699 C   0  0  0  0  0  0  0  0  0  0  0  0
   24.5130   -9.4283  -14.3632 C   0  0  0  0  0  0  0  0  0  0  0  0
   22.2677   -6.4556  -16.8553 C   0  0  0  0  0  0  0  0  0  0  0  0
   22.6285   -5.6348  -17.7261 O   0  0  0  0  0  0  0  0  0  0  0  0
   21.1024   -6.2236  -16.1164 N   0  0  0  0  0  0  0  0  0  0  0  0
   20.1861   -5.1152  -16.4172 C   0  0  1  0  0  0  0  0  0  0  0  0
   19.7028   -5.3986  -17.8380 C   0  0  0  0  0  0  0  0  0  0  0  0
   18.7214   -4.4046  -18.2868 C   0  0  0  0  0  0  0  0  0  0  0  0
   17.3366   -4.5641  -18.1954 C   0  0  0  0  0  0  0  0  0  0  0  0
   16.7638   -3.4547  -18.6971 N   0  0  0  0  0  0  0  0  0  0  0  0
   17.7238   -2.6031  -19.1022 C   0  0  0  0  0  0  0  0  0  0  0  0
   18.9067   -3.1960  -18.8449 N   0  0  0  0  0  0  0  0  0  0  0  0
   19.0659   -5.1530  -15.4526 C   0  0  0  0  0  0  0  0  0  0  0  0
   18.5148   -3.9473  -15.0519 O   0  0  0  0  0  0  0  0  0  0  0  0
   18.5759   -6.2039  -14.9683 O   0  0  0  0  0  0  0  0  0  0  0  0
  1  2  1  0
  3  5  1  0
  3  2  1  0
  3  4  1  1
  5  6  2  0
  5  7  1  0
  7  8  1  0
  8  9  1  6
  9 10  1  0
 10 15  1  0
 11 10  2  0
 11 12  1  0
 12 13  2  0
 13 14  1  0
 15 14  2  0
 16 17  2  0
 16  8  1  0
 18 16  1  0
 19 18  1  0
 19 20  1  6
 21 25  1  0
 21 20  1  0
 22 21  2  0
 23 22  1  0
 23 24  1  0
 24 25  2  0
 26 19  1  0
 27 26  1  0
 28 26  2  0
M  END
$$$$
