SFH.pdb
     RDKit          3D

 28 29  0  0  1  0  0  0  0  0999 V2000
   29.5032  -22.6659  -17.2271 O   0  0  0  0  0  0  0  0  0  0  0  0
   28.2178  -23.1446  -17.3331 C   0  0  0  0  0  0  0  0  0  0  0  0
   27.1726  -22.0545  -17.2976 C   0  0  2  0  0  0  0  0  0  0  0  0
   27.8111  -20.7784  -17.5279 N   0  0  0  0  0  0  0  0  0  0  0  0
   26.4180  -22.0530  -16.0234 C   0  0  0  0  0  0  0  0  0  0  0  0
   25.6394  -23.0077  -15.7810 O   0  0  0  0  0  0  0  0  0  0  0  0
   26.5070  -21.0425  -15.0420 N   0  0  0  0  0  0  0  0  0  0  0  0
   25.7365  -20.9886  -13.8301 C   0  0  1  0  0  0  0  0  0  0  0  0
   26.3345  -20.2505  -12.7155 C   0  0  0  0  0  0  0  0  0  0  0  0
   25.6419  -20.3715  -11.4211 C   0  0  0  0  0  0  0  0  0  0  0  0
   24.4530  -19.7448  -11.1429 C   0  0  0  0  0  0  0  0  0  0  0  0
   23.8326  -19.9027   -9.8997 C   0  0  0  0  0  0  0  0  0  0  0  0
   24.4175  -20.7000   -8.9271 C   0  0  0  0  0  0  0  0  0  0  0  0
   25.5922  -21.3175   -9.2024 C   0  0  0  0  0  0  0  0  0  0  0  0
   26.2152  -21.1588  -10.4520 C   0  0  0  0  0  0  0  0  0  0  0  0
   24.3527  -20.5241  -14.0635 C   0  0  0  0  0  0  0  0  0  0  0  0
   24.1340  -19.4115  -14.5893 O   0  0  0  0  0  0  0  0  0  0  0  0
   23.2816  -21.3444  -13.6925 N   0  0  0  0  0  0  0  0  0  0  0  0
   21.8831  -20.9027  -13.7810 C   0  0  1  0  0  0  0  0  0  0  0  0
   21.2043  -21.9656  -14.6424 C   0  0  0  0  0  0  0  0  0  0  0  0
   21.3908  -21.7053  -16.0742 C   0  0  0  0  0  0  0  0  0  0  0  0
   22.0086  -20.5665  -16.5965 C   0  0  0  0  0  0  0  0  0  0  0  0
   22.0023  -20.6774  -17.9376 N   0  0  0  0  0  0  0  0  0  0  0  0
   21.4076  -21.8334  -18.2853 C   0  0  0  0  0  0  0  0  0  0  0  0
   21.0429  -22.4453  -17.1409 N   0  0  0  0  0  0  0  0  0  0  0  0
   21.3102  -20.8713  -12.4181 C   0  0  0  0  0  0  0  0  0  0  0  0
   20.0943  -20.2326  -12.2408 O   0  0  0  0  0  0  0  0  0  0  0  0
   21.8489  -21.3842  -11.4053 O   0  0  0  0  0  0  0  0  0  0  0  0
  1  2  1  0
  3  5  1  0
  3  2  1  0
  3  4  1  1
  5  6  2  0
  5  7  1  0
  7  8  1  0
  8  9  1  1
  9 10  1  0
 10 15  1  0
 11 10  2  0
 11 12  1  0
 12 13  2  0
 13 14  1  0
 15 14  2  0
 16 17  2  0
 16  8  1  0
 18 16  1  0
 19 18  1  0
 19 20  1  6
 21 25  1  0
 21 20  1  0
 22 21  2  0
 23 22  1  0
 23 24  1  0
 24 25  2  0
 26 19  1  0
 27 26  1  0
 28 26  2  0
M  END
$$$$
