SFH.pdb
     RDKit          3D

 28 29  0  0  1  0  0  0  0  0999 V2000
   27.3239  -18.4177  -15.2660 O   0  0  0  0  0  0  0  0  0  0  0  0
   28.1096  -18.4663  -14.1378 C   0  0  0  0  0  0  0  0  0  0  0  0
   28.4308  -19.8751  -13.6972 C   0  0  2  0  0  0  0  0  0  0  0  0
   28.9053  -20.6305  -14.8346 N   0  0  0  0  0  0  0  0  0  0  0  0
   27.2663  -20.5358  -13.0643 C   0  0  0  0  0  0  0  0  0  0  0  0
   26.7482  -21.5259  -13.6369 O   0  0  0  0  0  0  0  0  0  0  0  0
   26.6819  -20.1311  -11.8449 N   0  0  0  0  0  0  0  0  0  0  0  0
   25.4952  -20.6949  -11.2626 C   0  0  1  0  0  0  0  0  0  0  0  0
   25.1864  -20.2794   -9.8928 C   0  0  0  0  0  0  0  0  0  0  0  0
   26.3225  -20.2644   -8.9554 C   0  0  0  0  0  0  0  0  0  0  0  0
   26.5561  -19.2393   -8.0732 C   0  0  0  0  0  0  0  0  0  0  0  0
   27.6449  -19.2811   -7.1969 C   0  0  0  0  0  0  0  0  0  0  0  0
   28.5074  -20.3673   -7.2111 C   0  0  0  0  0  0  0  0  0  0  0  0
   28.2767  -21.3785   -8.0835 C   0  0  0  0  0  0  0  0  0  0  0  0
   27.1820  -21.3363   -8.9638 C   0  0  0  0  0  0  0  0  0  0  0  0
   24.3081  -20.5221  -12.1265 C   0  0  0  0  0  0  0  0  0  0  0  0
   24.1377  -19.4651  -12.7715 O   0  0  0  0  0  0  0  0  0  0  0  0
   23.3714  -21.5571  -12.2208 N   0  0  0  0  0  0  0  0  0  0  0  0
   22.2342  -21.5086  -13.1499 C   0  0  1  0  0  0  0  0  0  0  0  0
   22.0343  -22.9606  -13.5795 C   0  0  0  0  0  0  0  0  0  0  0  0
   23.0762  -23.3992  -14.5146 C   0  0  0  0  0  0  0  0  0  0  0  0
   23.4046  -22.7363  -15.6996 C   0  0  0  0  0  0  0  0  0  0  0  0
   24.4016  -23.4220  -16.2882 N   0  0  0  0  0  0  0  0  0  0  0  0
   24.7164  -24.4879  -15.5296 C   0  0  0  0  0  0  0  0  0  0  0  0
   23.9019  -24.4582  -14.4559 N   0  0  0  0  0  0  0  0  0  0  0  0
   21.0520  -20.9970  -12.4237 C   0  0  0  0  0  0  0  0  0  0  0  0
   19.8893  -20.7859  -13.1458 O   0  0  0  0  0  0  0  0  0  0  0  0
   21.0260  -20.7389  -11.1942 O   0  0  0  0  0  0  0  0  0  0  0  0
  1  2  1  0
  3  5  1  0
  3  2  1  0
  3  4  1  6
  5  6  2  0
  5  7  1  0
  7  8  1  0
  8  9  1  1
  9 10  1  0
 10 15  1  0
 11 10  2  0
 11 12  1  0
 12 13  2  0
 13 14  1  0
 15 14  2  0
 16 17  2  0
 16  8  1  0
 18 16  1  0
 19 18  1  0
 19 20  1  1
 21 25  1  0
 21 20  1  0
 22 21  2  0
 23 22  1  0
 23 24  1  0
 24 25  2  0
 26 19  1  0
 27 26  1  0
 28 26  2  0
M  END
$$$$
