SFH.pdb
     RDKit          3D

 28 29  0  0  1  0  0  0  0  0999 V2000
   26.7758  -21.1143  -18.9315 O   0  0  0  0  0  0  0  0  0  0  0  0
   27.2860  -20.7104  -17.7194 C   0  0  0  0  0  0  0  0  0  0  0  0
   27.7667  -21.8591  -16.8641 C   0  0  2  0  0  0  0  0  0  0  0  0
   27.7657  -23.0701  -17.6533 N   0  0  0  0  0  0  0  0  0  0  0  0
   26.9484  -22.0175  -15.6400 C   0  0  0  0  0  0  0  0  0  0  0  0
   26.1832  -23.0088  -15.5487 O   0  0  0  0  0  0  0  0  0  0  0  0
   26.9613  -21.1237  -14.5477 N   0  0  0  0  0  0  0  0  0  0  0  0
   25.9619  -21.0534  -13.5174 C   0  0  1  0  0  0  0  0  0  0  0  0
   26.2927  -20.2336  -12.3499 C   0  0  0  0  0  0  0  0  0  0  0  0
   25.3938  -20.3746  -11.1916 C   0  0  0  0  0  0  0  0  0  0  0  0
   24.1629  -19.7720  -11.1172 C   0  0  0  0  0  0  0  0  0  0  0  0
   23.3444  -19.9483   -9.9973 C   0  0  0  0  0  0  0  0  0  0  0  0
   23.7719  -20.7396   -8.9414 C   0  0  0  0  0  0  0  0  0  0  0  0
   24.9880  -21.3333   -9.0153 C   0  0  0  0  0  0  0  0  0  0  0  0
   25.8102  -21.1562  -10.1411 C   0  0  0  0  0  0  0  0  0  0  0  0
   24.6348  -20.6736  -14.0461 C   0  0  0  0  0  0  0  0  0  0  0  0
   24.4715  -19.5835  -14.6354 O   0  0  0  0  0  0  0  0  0  0  0  0
   23.5554  -21.5491  -13.8844 N   0  0  0  0  0  0  0  0  0  0  0  0
   22.1950  -21.2131  -14.3263 C   0  0  1  0  0  0  0  0  0  0  0  0
   21.6941  -22.4842  -15.0091 C   0  0  0  0  0  0  0  0  0  0  0  0
   20.3359  -22.3177  -15.5384 C   0  0  0  0  0  0  0  0  0  0  0  0
   19.8657  -21.1571  -16.1575 C   0  0  0  0  0  0  0  0  0  0  0  0
   18.5866  -21.3741  -16.5141 N   0  0  0  0  0  0  0  0  0  0  0  0
   18.2277  -22.6181  -16.1473 C   0  0  0  0  0  0  0  0  0  0  0  0
   19.3027  -23.1772  -15.5566 N   0  0  0  0  0  0  0  0  0  0  0  0
   21.3789  -20.8862  -13.1373 C   0  0  0  0  0  0  0  0  0  0  0  0
   20.4439  -19.8712  -13.2522 O   0  0  0  0  0  0  0  0  0  0  0  0
   21.4728  -21.4650  -12.0259 O   0  0  0  0  0  0  0  0  0  0  0  0
  1  2  1  0
  3  5  1  0
  3  2  1  0
  3  4  1  6
  5  6  2  0
  5  7  1  0
  7  8  1  0
  8  9  1  1
  9 10  1  0
 10 15  1  0
 11 10  2  0
 11 12  1  0
 12 13  2  0
 13 14  1  0
 15 14  2  0
 16 17  2  0
 16  8  1  0
 18 16  1  0
 19 18  1  0
 19 20  1  1
 21 25  1  0
 21 20  1  0
 22 21  2  0
 23 22  1  0
 23 24  1  0
 24 25  2  0
 26 19  1  0
 27 26  1  0
 28 26  2  0
M  END
$$$$
