SFH.pdb
     RDKit          3D

 28 29  0  0  1  0  0  0  0  0999 V2000
   12.1616  -12.6526    7.6606 O   0  0  0  0  0  0  0  0  0  0  0  0
   12.5506  -13.8098    7.0263 C   0  0  0  0  0  0  0  0  0  0  0  0
   13.4701  -13.5645    5.8531 C   0  0  2  0  0  0  0  0  0  0  0  0
   12.6750  -13.3356    4.6678 N   0  0  0  0  0  0  0  0  0  0  0  0
   14.4205  -14.6823    5.6522 C   0  0  0  0  0  0  0  0  0  0  0  0
   14.1538  -15.5547    4.7895 O   0  0  0  0  0  0  0  0  0  0  0  0
   15.6253  -14.8468    6.3689 N   0  0  0  0  0  0  0  0  0  0  0  0
   16.5485  -15.9360    6.2069 C   0  0  1  0  0  0  0  0  0  0  0  0
   17.9514  -15.5700    6.0010 C   0  0  0  0  0  0  0  0  0  0  0  0
   18.2492  -14.8470    4.7526 C   0  0  0  0  0  0  0  0  0  0  0  0
   18.1933  -15.4329    3.5127 C   0  0  0  0  0  0  0  0  0  0  0  0
   18.4755  -14.6965    2.3580 C   0  0  0  0  0  0  0  0  0  0  0  0
   18.8185  -13.3561    2.4548 C   0  0  0  0  0  0  0  0  0  0  0  0
   18.8746  -12.7787    3.6797 C   0  0  0  0  0  0  0  0  0  0  0  0
   18.5904  -13.5190    4.8400 C   0  0  0  0  0  0  0  0  0  0  0  0
   16.4372  -16.9338    7.2919 C   0  0  0  0  0  0  0  0  0  0  0  0
   16.3155  -16.5708    8.4817 O   0  0  0  0  0  0  0  0  0  0  0  0
   16.4661  -18.2967    6.9766 N   0  0  0  0  0  0  0  0  0  0  0  0
   16.3395  -19.3449    7.9983 C   0  0  1  0  0  0  0  0  0  0  0  0
   15.7545  -20.5383    7.2458 C   0  0  0  0  0  0  0  0  0  0  0  0
   14.2904  -20.4738    7.1784 C   0  0  0  0  0  0  0  0  0  0  0  0
   13.4539  -20.3268    8.2875 C   0  0  0  0  0  0  0  0  0  0  0  0
   12.1847  -20.3029    7.8413 N   0  0  0  0  0  0  0  0  0  0  0  0
   12.1819  -20.4295    6.5016 C   0  0  0  0  0  0  0  0  0  0  0  0
   13.4694  -20.5315    6.1157 N   0  0  0  0  0  0  0  0  0  0  0  0
   17.6851  -19.6531    8.5286 C   0  0  0  0  0  0  0  0  0  0  0  0
   18.7736  -19.0427    7.9282 O   0  0  0  0  0  0  0  0  0  0  0  0
   17.9132  -20.4316    9.4882 O   0  0  0  0  0  0  0  0  0  0  0  0
  1  2  1  0
  3  5  1  0
  3  2  1  0
  3  4  1  6
  5  6  2  0
  5  7  1  0
  7  8  1  0
  8  9  1  1
  9 10  1  0
 10 15  1  0
 11 10  2  0
 11 12  1  0
 12 13  2  0
 13 14  1  0
 15 14  2  0
 16 17  2  0
 16  8  1  0
 18 16  1  0
 19 18  1  0
 19 20  1  6
 21 25  1  0
 21 20  1  0
 22 21  2  0
 23 22  1  0
 23 24  1  0
 24 25  2  0
 26 19  1  0
 27 26  1  0
 28 26  2  0
M  END
$$$$
