PKC.pdb
     RDKit          3D

 23 23  0  0  1  0  0  0  0  0999 V2000
    8.4205  -15.0270   19.3596 N   0  0  0  0  0  0  0  0  0  0  0  0
    8.7489  -14.2859   18.1533 C   0  0  0  0  0  0  0  0  0  0  0  0
    7.9109  -13.0258   18.2198 C   0  0  0  0  0  0  0  0  0  0  0  0
    7.3743  -13.0103   19.6396 C   0  0  0  0  0  0  0  0  0  0  0  0
    8.3404  -13.9527   20.3297 C   0  0  1  0  0  0  0  0  0  0  0  0
    7.8435  -14.4061   21.6412 C   0  0  0  0  0  0  0  0  0  0  0  0
    7.6414  -13.5247   22.5162 O   0  0  0  0  0  0  0  0  0  0  0  0
    7.5795  -15.7507   21.9838 N   0  0  0  0  0  0  0  0  0  0  0  0
    7.1539  -16.1162   23.3190 C   0  0  1  0  0  0  0  0  0  0  0  0
    6.6781  -17.5553   23.3740 C   0  0  0  0  0  0  0  0  0  0  0  0
    5.3810  -17.6157   22.5952 C   0  0  0  0  0  0  0  0  0  0  0  0
    4.8459  -19.0107   22.4662 C   0  0  0  0  0  0  0  0  0  0  0  0
    3.5955  -19.0094   21.6435 C   0  0  0  0  0  0  0  0  0  0  0  0
    3.1761  -20.4111   21.5061 N   0  0  0  0  0  0  0  0  0  0  0  0
    8.2191  -15.8457   24.3150 C   0  0  0  0  0  0  0  0  0  0  0  0
    9.4336  -16.1143   24.1344 O   0  0  0  0  0  0  0  0  0  0  0  0
    7.8968  -15.2481   25.5638 N   0  0  0  0  0  0  0  0  0  0  0  0
    8.8387  -14.9529   26.5863 C   0  0  1  0  0  0  0  0  0  0  0  0
    8.2529  -13.8245   27.4439 C   0  0  0  0  0  0  0  0  0  0  0  0
    7.7515  -12.4305   26.4227 S   0  0  0  0  0  0  0  0  0  0  0  0
    9.2158  -16.0596   27.4416 C   0  0  0  0  0  0  0  0  0  0  0  0
   10.1769  -15.8949   28.4185 O   0  0  0  0  0  0  0  0  0  0  0  0
    8.6859  -17.1843   27.3198 O   0  0  0  0  0  0  0  0  0  0  0  0
  1  5  1  0
  1  2  1  0
  2  3  1  0
  4  3  1  0
  5  4  1  0
  6  8  1  0
  5  6  1  1
  7  6  2  0
  9  8  1  0
  9 10  1  6
 10 11  1  0
 11 12  1  0
 13 12  1  0
 14 13  1  0
 15  9  1  0
 16 15  2  0
 17 15  1  0
 18 17  1  0
 18 21  1  0
 18 19  1  1
 20 19  1  0
 21 22  1  0
 23 21  2  0
M  END
$$$$
