PKC.pdb
     RDKit          3D

 23 23  0  0  1  0  0  0  0  0999 V2000
    8.5281  -14.9301   19.2986 N   0  0  0  0  0  0  0  0  0  0  0  0
    8.6035  -14.0690   18.1303 C   0  0  0  0  0  0  0  0  0  0  0  0
    7.6187  -12.9493   18.3968 C   0  0  0  0  0  0  0  0  0  0  0  0
    7.2633  -13.1078   19.8640 C   0  0  0  0  0  0  0  0  0  0  0  0
    8.4244  -13.9471   20.3592 C   0  0  1  0  0  0  0  0  0  0  0  0
    8.1575  -14.5554   21.6749 C   0  0  0  0  0  0  0  0  0  0  0  0
    7.9024  -13.7754   22.6287 O   0  0  0  0  0  0  0  0  0  0  0  0
    8.1676  -15.9428   21.9400 N   0  0  0  0  0  0  0  0  0  0  0  0
    7.9095  -16.4555   23.2697 C   0  0  1  0  0  0  0  0  0  0  0  0
    7.9078  -17.9721   23.2877 C   0  0  0  0  0  0  0  0  0  0  0  0
    6.4731  -18.4091   23.0799 C   0  0  0  0  0  0  0  0  0  0  0  0
    6.3282  -19.8985   22.9826 C   0  0  0  0  0  0  0  0  0  0  0  0
    4.8811  -20.2716   22.8984 C   0  0  0  0  0  0  0  0  0  0  0  0
    4.8227  -21.7393   22.8558 N   0  0  0  0  0  0  0  0  0  0  0  0
    8.8608  -15.8901   24.2572 C   0  0  0  0  0  0  0  0  0  0  0  0
   10.0862  -15.7211   24.0343 O   0  0  0  0  0  0  0  0  0  0  0  0
    8.4072  -15.5011   25.5470 N   0  0  0  0  0  0  0  0  0  0  0  0
    9.2317  -14.9381   26.5584 C   0  0  1  0  0  0  0  0  0  0  0  0
    8.4554  -13.7798   27.1971 C   0  0  0  0  0  0  0  0  0  0  0  0
    9.4783  -12.8920   28.3816 S   0  0  0  0  0  0  0  0  0  0  0  0
    9.6763  -15.8472   27.5950 C   0  0  0  0  0  0  0  0  0  0  0  0
   10.8987  -15.6655   28.2097 O   0  0  0  0  0  0  0  0  0  0  0  0
    8.9715  -16.8126   27.9580 O   0  0  0  0  0  0  0  0  0  0  0  0
  1  5  1  0
  1  2  1  0
  2  3  1  0
  4  3  1  0
  5  4  1  0
  6  8  1  0
  5  6  1  1
  7  6  2  0
  9  8  1  0
  9 10  1  6
 10 11  1  0
 11 12  1  0
 13 12  1  0
 14 13  1  0
 15  9  1  0
 16 15  2  0
 17 15  1  0
 18 17  1  0
 18 21  1  0
 18 19  1  1
 20 19  1  0
 21 22  1  0
 23 21  2  0
M  END
$$$$
