PKC.pdb
     RDKit          3D

 23 23  0  0  1  0  0  0  0  0999 V2000
    7.1919  -15.0096   19.6102 N   0  0  0  0  0  0  0  0  0  0  0  0
    7.0090  -14.4893   18.2655 C   0  0  0  0  0  0  0  0  0  0  0  0
    7.4778  -13.0502   18.3284 C   0  0  0  0  0  0  0  0  0  0  0  0
    8.1823  -12.9466   19.6689 C   0  0  0  0  0  0  0  0  0  0  0  0
    8.4603  -14.4062   19.9689 C   0  0  1  0  0  0  0  0  0  0  0  0
    8.8187  -14.6316   21.3807 C   0  0  0  0  0  0  0  0  0  0  0  0
    9.9877  -14.3279   21.7335 O   0  0  0  0  0  0  0  0  0  0  0  0
    7.9491  -15.1609   22.3600 N   0  0  0  0  0  0  0  0  0  0  0  0
    8.3161  -15.1771   23.7609 C   0  0  1  0  0  0  0  0  0  0  0  0
    7.1195  -14.8971   24.6499 C   0  0  0  0  0  0  0  0  0  0  0  0
    7.3522  -13.5399   25.2796 C   0  0  0  0  0  0  0  0  0  0  0  0
    6.2524  -13.1385   26.2167 C   0  0  0  0  0  0  0  0  0  0  0  0
    6.5359  -11.7880   26.7966 C   0  0  0  0  0  0  0  0  0  0  0  0
    5.4319  -11.4803   27.7161 N   0  0  0  0  0  0  0  0  0  0  0  0
    8.9922  -16.4461   24.1243 C   0  0  0  0  0  0  0  0  0  0  0  0
    8.5150  -17.5862   23.8957 O   0  0  0  0  0  0  0  0  0  0  0  0
   10.2575  -16.4235   24.7716 N   0  0  0  0  0  0  0  0  0  0  0  0
   10.9362  -17.5722   25.2611 C   0  0  1  0  0  0  0  0  0  0  0  0
   12.4315  -17.3822   24.9785 C   0  0  0  0  0  0  0  0  0  0  0  0
   12.7309  -17.1372   23.2213 S   0  0  0  0  0  0  0  0  0  0  0  0
   10.7474  -17.8712   26.6659 C   0  0  0  0  0  0  0  0  0  0  0  0
   11.3888  -18.9469   27.2461 O   0  0  0  0  0  0  0  0  0  0  0  0
   10.0050  -17.1696   27.3851 O   0  0  0  0  0  0  0  0  0  0  0  0
  1  5  1  0
  1  2  1  0
  2  3  1  0
  4  3  1  0
  5  4  1  0
  6  8  1  0
  5  6  1  1
  7  6  2  0
  9  8  1  0
  9 10  1  1
 10 11  1  0
 11 12  1  0
 13 12  1  0
 14 13  1  0
 15  9  1  0
 16 15  2  0
 17 15  1  0
 18 17  1  0
 18 21  1  0
 18 19  1  1
 20 19  1  0
 21 22  1  0
 23 21  2  0
M  END
$$$$
