PKC.pdb
     RDKit          3D

 23 23  0  0  1  0  0  0  0  0999 V2000
    7.8548  -15.1502   19.3420 N   0  0  0  0  0  0  0  0  0  0  0  0
    8.1158  -14.4423   18.1000 C   0  0  0  0  0  0  0  0  0  0  0  0
    7.9200  -12.9765   18.4285 C   0  0  0  0  0  0  0  0  0  0  0  0
    7.8455  -12.9417   19.9442 C   0  0  0  0  0  0  0  0  0  0  0  0
    8.4889  -14.2671   20.3011 C   0  0  1  0  0  0  0  0  0  0  0  0
    8.2275  -14.6611   21.6971 C   0  0  0  0  0  0  0  0  0  0  0  0
    8.7219  -13.9391   22.6013 O   0  0  0  0  0  0  0  0  0  0  0  0
    7.4664  -15.7843   22.0901 N   0  0  0  0  0  0  0  0  0  0  0  0
    7.2656  -16.1038   23.4883 C   0  0  1  0  0  0  0  0  0  0  0  0
    7.4299  -17.5895   23.7459 C   0  0  0  0  0  0  0  0  0  0  0  0
    6.1892  -18.2661   23.2022 C   0  0  0  0  0  0  0  0  0  0  0  0
    6.2477  -19.7605   23.3121 C   0  0  0  0  0  0  0  0  0  0  0  0
    5.0378  -20.3722   22.6776 C   0  0  0  0  0  0  0  0  0  0  0  0
    5.1745  -21.8284   22.8188 N   0  0  0  0  0  0  0  0  0  0  0  0
    8.1491  -15.2892   24.3575 C   0  0  0  0  0  0  0  0  0  0  0  0
    9.4040  -15.2972   24.2874 O   0  0  0  0  0  0  0  0  0  0  0  0
    7.5902  -14.4323   25.3444 N   0  0  0  0  0  0  0  0  0  0  0  0
    8.3464  -13.6246   26.2363 C   0  0  1  0  0  0  0  0  0  0  0  0
    7.7088  -12.2298   26.2518 C   0  0  0  0  0  0  0  0  0  0  0  0
    5.9474  -12.3285   26.6058 S   0  0  0  0  0  0  0  0  0  0  0  0
    8.4619  -14.1146   27.5946 C   0  0  0  0  0  0  0  0  0  0  0  0
    7.7929  -15.2562   27.9874 O   0  0  0  0  0  0  0  0  0  0  0  0
    9.1645  -13.5224   28.4411 O   0  0  0  0  0  0  0  0  0  0  0  0
  1  5  1  0
  1  2  1  0
  2  3  1  0
  4  3  1  0
  5  4  1  0
  6  8  1  0
  5  6  1  1
  7  6  2  0
  9  8  1  0
  9 10  1  6
 10 11  1  0
 11 12  1  0
 13 12  1  0
 14 13  1  0
 15  9  1  0
 16 15  2  0
 17 15  1  0
 18 17  1  0
 18 21  1  0
 18 19  1  1
 20 19  1  0
 21 22  1  0
 23 21  2  0
M  END
$$$$
