PKC.pdb
     RDKit          3D

 23 23  0  0  1  0  0  0  0  0999 V2000
    8.3321  -15.1370   19.7250 N   0  0  0  0  0  0  0  0  0  0  0  0
    8.2918  -14.3358   18.5131 C   0  0  0  0  0  0  0  0  0  0  0  0
    7.3561  -13.1865   18.8267 C   0  0  0  0  0  0  0  0  0  0  0  0
    7.1595  -13.2663   20.3297 C   0  0  0  0  0  0  0  0  0  0  0  0
    8.3565  -14.1014   20.7392 C   0  0  1  0  0  0  0  0  0  0  0  0
    8.2257  -14.6395   22.1052 C   0  0  0  0  0  0  0  0  0  0  0  0
    8.2812  -13.8169   23.0557 O   0  0  0  0  0  0  0  0  0  0  0  0
    8.0437  -16.0041   22.4215 N   0  0  0  0  0  0  0  0  0  0  0  0
    7.9904  -16.4559   23.7965 C   0  0  1  0  0  0  0  0  0  0  0  0
    7.7272  -17.9474   23.8794 C   0  0  0  0  0  0  0  0  0  0  0  0
    7.4773  -18.2656   25.3384 C   0  0  0  0  0  0  0  0  0  0  0  0
    7.2298  -19.7248   25.5800 C   0  0  0  0  0  0  0  0  0  0  0  0
    6.7950  -19.9469   26.9950 C   0  0  0  0  0  0  0  0  0  0  0  0
    6.3987  -21.3579   27.1011 N   0  0  0  0  0  0  0  0  0  0  0  0
    9.2148  -16.0667   24.5375 C   0  0  0  0  0  0  0  0  0  0  0  0
   10.2285  -15.5550   23.9986 O   0  0  0  0  0  0  0  0  0  0  0  0
    9.2946  -16.2645   25.9428 N   0  0  0  0  0  0  0  0  0  0  0  0
    9.7786  -15.3013   26.8690 C   0  0  1  0  0  0  0  0  0  0  0  0
    8.8754  -14.0660   26.7669 C   0  0  0  0  0  0  0  0  0  0  0  0
    9.4239  -12.7702   27.8883 S   0  0  0  0  0  0  0  0  0  0  0  0
    9.8520  -15.7293   28.2510 C   0  0  0  0  0  0  0  0  0  0  0  0
    9.3069  -16.9359   28.6410 O   0  0  0  0  0  0  0  0  0  0  0  0
   10.4059  -15.0241   29.1207 O   0  0  0  0  0  0  0  0  0  0  0  0
  1  5  1  0
  1  2  1  0
  2  3  1  0
  4  3  1  0
  5  4  1  0
  6  8  1  0
  5  6  1  1
  7  6  2  0
  9  8  1  0
  9 10  1  6
 10 11  1  0
 11 12  1  0
 13 12  1  0
 14 13  1  0
 15  9  1  0
 16 15  2  0
 17 15  1  0
 18 17  1  0
 18 21  1  0
 18 19  1  1
 20 19  1  0
 21 22  1  0
 23 21  2  0
M  END
$$$$
