PKC.pdb
     RDKit          3D

 23 23  0  0  1  0  0  0  0  0999 V2000
    8.8692  -14.8422   19.2663 N   0  0  0  0  0  0  0  0  0  0  0  0
    8.6739  -13.9677   18.1221 C   0  0  0  0  0  0  0  0  0  0  0  0
    7.5515  -13.0326   18.5228 C   0  0  0  0  0  0  0  0  0  0  0  0
    7.3880  -13.2650   20.0139 C   0  0  0  0  0  0  0  0  0  0  0  0
    8.7191  -13.9026   20.3601 C   0  0  1  0  0  0  0  0  0  0  0  0
    8.7007  -14.5618   21.6782 C   0  0  0  0  0  0  0  0  0  0  0  0
    8.3714  -13.8592   22.6688 O   0  0  0  0  0  0  0  0  0  0  0  0
    9.0244  -15.9175   21.9077 N   0  0  0  0  0  0  0  0  0  0  0  0
    8.8366  -16.5250   23.2089 C   0  0  1  0  0  0  0  0  0  0  0  0
    9.1260  -18.0134   23.1720 C   0  0  0  0  0  0  0  0  0  0  0  0
    8.3563  -18.5783   21.9969 C   0  0  0  0  0  0  0  0  0  0  0  0
    8.6865  -20.0153   21.7235 C   0  0  0  0  0  0  0  0  0  0  0  0
    7.8105  -20.5474   20.6327 C   0  0  0  0  0  0  0  0  0  0  0  0
    8.2633  -21.9174   20.3545 N   0  0  0  0  0  0  0  0  0  0  0  0
    9.6367  -15.8299   24.2464 C   0  0  0  0  0  0  0  0  0  0  0  0
   10.8488  -15.5259   24.1116 O   0  0  0  0  0  0  0  0  0  0  0  0
    9.0414  -15.4649   25.4846 N   0  0  0  0  0  0  0  0  0  0  0  0
    9.7202  -14.8059   26.5452 C   0  0  1  0  0  0  0  0  0  0  0  0
    8.7550  -13.7745   27.1426 C   0  0  0  0  0  0  0  0  0  0  0  0
    9.4961  -12.9368   28.5521 S   0  0  0  0  0  0  0  0  0  0  0  0
   10.2266  -15.6577   27.6018 C   0  0  0  0  0  0  0  0  0  0  0  0
    9.8123  -16.9704   27.7034 O   0  0  0  0  0  0  0  0  0  0  0  0
   11.0456  -15.2313   28.4432 O   0  0  0  0  0  0  0  0  0  0  0  0
  1  5  1  0
  1  2  1  0
  2  3  1  0
  4  3  1  0
  5  4  1  0
  6  8  1  0
  5  6  1  1
  7  6  2  0
  9  8  1  0
  9 10  1  6
 10 11  1  0
 11 12  1  0
 13 12  1  0
 14 13  1  0
 15  9  1  0
 16 15  2  0
 17 15  1  0
 18 17  1  0
 18 21  1  0
 18 19  1  1
 20 19  1  0
 21 22  1  0
 23 21  2  0
M  END
$$$$
