PKC.pdb
     RDKit          3D

 23 23  0  0  1  0  0  0  0  0999 V2000
    8.2928  -15.2731   19.6789 N   0  0  0  0  0  0  0  0  0  0  0  0
    8.4639  -14.6639   18.3706 C   0  0  0  0  0  0  0  0  0  0  0  0
    7.5474  -13.4579   18.3701 C   0  0  0  0  0  0  0  0  0  0  0  0
    7.1338  -13.3043   19.8225 C   0  0  0  0  0  0  0  0  0  0  0  0
    8.2196  -14.0969   20.5231 C   0  0  1  0  0  0  0  0  0  0  0  0
    7.8695  -14.4186   21.9182 C   0  0  0  0  0  0  0  0  0  0  0  0
    7.6057  -13.4545   22.6825 O   0  0  0  0  0  0  0  0  0  0  0  0
    7.8093  -15.7237   22.4553 N   0  0  0  0  0  0  0  0  0  0  0  0
    7.3418  -15.9596   23.8055 C   0  0  1  0  0  0  0  0  0  0  0  0
    7.2832  -17.4423   24.1200 C   0  0  0  0  0  0  0  0  0  0  0  0
    6.2639  -18.0478   23.1782 C   0  0  0  0  0  0  0  0  0  0  0  0
    6.1618  -19.5378   23.3136 C   0  0  0  0  0  0  0  0  0  0  0  0
    5.2314  -20.0873   22.2778 C   0  0  0  0  0  0  0  0  0  0  0  0
    5.3234  -21.5517   22.3582 N   0  0  0  0  0  0  0  0  0  0  0  0
    8.1584  -15.2147   24.7945 C   0  0  0  0  0  0  0  0  0  0  0  0
    9.4147  -15.2365   24.8262 O   0  0  0  0  0  0  0  0  0  0  0  0
    7.5283  -14.4142   25.7858 N   0  0  0  0  0  0  0  0  0  0  0  0
    8.2150  -13.6944   26.8007 C   0  0  1  0  0  0  0  0  0  0  0  0
    7.2503  -12.6374   27.3523 C   0  0  0  0  0  0  0  0  0  0  0  0
    6.3907  -11.7887   26.0188 S   0  0  0  0  0  0  0  0  0  0  0  0
    8.7389  -14.4843   27.8962 C   0  0  0  0  0  0  0  0  0  0  0  0
    8.5098  -15.8443   27.9523 O   0  0  0  0  0  0  0  0  0  0  0  0
    9.4071  -13.9608   28.8128 O   0  0  0  0  0  0  0  0  0  0  0  0
  1  5  1  0
  1  2  1  0
  2  3  1  0
  4  3  1  0
  5  4  1  0
  6  8  1  0
  5  6  1  1
  7  6  2  0
  9  8  1  0
  9 10  1  1
 10 11  1  0
 11 12  1  0
 13 12  1  0
 14 13  1  0
 15  9  1  0
 16 15  2  0
 17 15  1  0
 18 17  1  0
 18 21  1  0
 18 19  1  1
 20 19  1  0
 21 22  1  0
 23 21  2  0
M  END
$$$$
