PKC.pdb
     RDKit          3D

 23 23  0  0  1  0  0  0  0  0999 V2000
    8.8390  -14.7094   18.7755 N   0  0  0  0  0  0  0  0  0  0  0  0
    9.0374  -13.7856   17.6712 C   0  0  0  0  0  0  0  0  0  0  0  0
    7.9852  -12.7118   17.8567 C   0  0  0  0  0  0  0  0  0  0  0  0
    7.4438  -12.9585   19.2531 C   0  0  0  0  0  0  0  0  0  0  0  0
    8.5589  -13.7877   19.8589 C   0  0  1  0  0  0  0  0  0  0  0  0
    8.1419  -14.4728   21.0955 C   0  0  0  0  0  0  0  0  0  0  0  0
    7.8758  -13.7514   22.0915 O   0  0  0  0  0  0  0  0  0  0  0  0
    8.0205  -15.8725   21.2415 N   0  0  0  0  0  0  0  0  0  0  0  0
    7.5962  -16.4632   22.4939 C   0  0  1  0  0  0  0  0  0  0  0  0
    7.6511  -17.9780   22.4384 C   0  0  0  0  0  0  0  0  0  0  0  0
    7.1893  -18.4809   23.7898 C   0  0  0  0  0  0  0  0  0  0  0  0
    6.1965  -19.5998   23.6844 C   0  0  0  0  0  0  0  0  0  0  0  0
    5.8049  -20.0723   25.0496 C   0  0  0  0  0  0  0  0  0  0  0  0
    4.9548  -21.2561   24.8617 N   0  0  0  0  0  0  0  0  0  0  0  0
    8.3746  -15.9214   23.6341 C   0  0  0  0  0  0  0  0  0  0  0  0
    9.6211  -16.0343   23.7499 O   0  0  0  0  0  0  0  0  0  0  0  0
    7.7164  -15.2249   24.6840 N   0  0  0  0  0  0  0  0  0  0  0  0
    8.3638  -14.6927   25.8319 C   0  0  1  0  0  0  0  0  0  0  0  0
    7.5628  -13.4674   26.2890 C   0  0  0  0  0  0  0  0  0  0  0  0
    5.8024  -13.8340   26.3546 S   0  0  0  0  0  0  0  0  0  0  0  0
    8.5283  -15.6021   26.9474 C   0  0  0  0  0  0  0  0  0  0  0  0
    9.2571  -15.2254   28.0574 O   0  0  0  0  0  0  0  0  0  0  0  0
    8.0193  -16.7429   26.9358 O   0  0  0  0  0  0  0  0  0  0  0  0
  1  5  1  0
  1  2  1  0
  2  3  1  0
  4  3  1  0
  5  4  1  0
  6  8  1  0
  5  6  1  1
  7  6  2  0
  9  8  1  0
  9 10  1  6
 10 11  1  0
 11 12  1  0
 13 12  1  0
 14 13  1  0
 15  9  1  0
 16 15  2  0
 17 15  1  0
 18 17  1  0
 18 21  1  0
 18 19  1  1
 20 19  1  0
 21 22  1  0
 23 21  2  0
M  END
$$$$
