PKC.pdb
     RDKit          3D

 23 23  0  0  1  0  0  0  0  0999 V2000
    8.4047  -15.0219   20.0333 N   0  0  0  0  0  0  0  0  0  0  0  0
    8.4719  -14.2061   18.8325 C   0  0  0  0  0  0  0  0  0  0  0  0
    7.5520  -13.0319   19.0970 C   0  0  0  0  0  0  0  0  0  0  0  0
    7.2503  -13.1228   20.5819 C   0  0  0  0  0  0  0  0  0  0  0  0
    8.3906  -13.9993   21.0608 C   0  0  1  0  0  0  0  0  0  0  0  0
    8.1502  -14.5487   22.4072 C   0  0  0  0  0  0  0  0  0  0  0  0
    8.0694  -13.7282   23.3578 O   0  0  0  0  0  0  0  0  0  0  0  0
    8.0049  -15.9218   22.7050 N   0  0  0  0  0  0  0  0  0  0  0  0
    7.7726  -16.3762   24.0604 C   0  0  1  0  0  0  0  0  0  0  0  0
    7.5530  -17.8761   24.1115 C   0  0  0  0  0  0  0  0  0  0  0  0
    7.3260  -18.2342   25.5651 C   0  0  0  0  0  0  0  0  0  0  0  0
    6.9990  -19.6845   25.7613 C   0  0  0  0  0  0  0  0  0  0  0  0
    6.6731  -19.9501   27.1979 C   0  0  0  0  0  0  0  0  0  0  0  0
    6.1897  -21.3356   27.2746 N   0  0  0  0  0  0  0  0  0  0  0  0
    8.8648  -15.9444   24.9661 C   0  0  0  0  0  0  0  0  0  0  0  0
   10.0860  -16.0176   24.6779 O   0  0  0  0  0  0  0  0  0  0  0  0
    8.5627  -15.4088   26.2477 N   0  0  0  0  0  0  0  0  0  0  0  0
    9.5325  -14.9857   27.1965 C   0  0  1  0  0  0  0  0  0  0  0  0
    8.9525  -13.7793   27.9451 C   0  0  0  0  0  0  0  0  0  0  0  0
    8.6150  -12.4196   26.8159 S   0  0  0  0  0  0  0  0  0  0  0  0
    9.9618  -15.9839   28.1546 C   0  0  0  0  0  0  0  0  0  0  0  0
   10.8962  -15.6716   29.1213 O   0  0  0  0  0  0  0  0  0  0  0  0
    9.5021  -17.1452   28.1325 O   0  0  0  0  0  0  0  0  0  0  0  0
  1  5  1  0
  1  2  1  0
  2  3  1  0
  4  3  1  0
  5  4  1  0
  6  8  1  0
  5  6  1  1
  7  6  2  0
  9  8  1  0
  9 10  1  6
 10 11  1  0
 11 12  1  0
 13 12  1  0
 14 13  1  0
 15  9  1  0
 16 15  2  0
 17 15  1  0
 18 17  1  0
 18 21  1  0
 18 19  1  1
 20 19  1  0
 21 22  1  0
 23 21  2  0
M  END
$$$$
