EVS.pdb
     RDKit          3D

 23 22  0  0  1  0  0  0  0  0999 V2000
   27.5980  -30.7634  -16.1372 N   0  0  0  0  0  0  0  0  0  0  0  0
   28.6049  -31.8010  -16.0567 C   0  0  1  0  0  0  0  0  0  0  0  0
   27.9867  -33.1034  -16.5132 C   0  0  0  0  0  0  0  0  0  0  0  0
   27.1055  -33.5829  -15.3559 C   0  0  0  0  0  0  0  0  0  0  0  0
   26.5723  -34.9295  -15.6874 C   0  0  0  0  0  0  0  0  0  0  0  0
   26.9518  -35.9758  -15.1104 O   0  0  0  0  0  0  0  0  0  0  0  0
   29.7615  -31.4189  -16.9200 C   0  0  0  0  0  0  0  0  0  0  0  0
   29.7554  -30.3099  -17.5445 O   0  0  0  0  0  0  0  0  0  0  0  0
   25.6135  -35.0401  -16.6766 O   0  0  0  0  0  0  0  0  0  0  0  0
   34.5437  -31.3874  -17.6183 C   0  0  0  0  0  0  0  0  0  0  0  0
   33.2596  -31.7510  -16.9570 C   0  0  2  0  0  0  0  0  0  0  0  0
   33.5091  -33.0671  -16.2110 C   0  0  0  0  0  0  0  0  0  0  0  0
   32.0650  -31.8683  -17.8652 C   0  0  2  0  0  0  0  0  0  0  0  0
   30.8876  -32.2688  -17.0687 N   0  0  0  0  0  0  0  0  0  0  0  0
   32.2497  -32.8320  -18.9785 C   0  0  0  0  0  0  0  0  0  0  0  0
   32.2440  -34.0964  -18.7297 O   0  0  0  0  0  0  0  0  0  0  0  0
   32.5665  -33.6959  -23.7811 O   0  0  0  0  0  0  0  0  0  0  0  0
   32.4955  -32.7622  -22.7569 C   0  0  0  0  0  0  0  0  0  0  0  0
   32.5487  -33.4692  -21.3965 C   0  0  2  0  0  0  0  0  0  0  0  0
   32.4358  -32.4892  -20.3351 N   0  0  0  0  0  0  0  0  0  0  0  0
   33.8671  -34.1321  -21.3286 C   0  0  0  0  0  0  0  0  0  0  0  0
   34.8776  -33.4495  -21.0480 O   0  0  0  0  0  0  0  0  0  0  0  0
   33.9992  -35.4830  -21.5681 O   0  0  0  0  0  0  0  0  0  0  0  0
  2  1  1  6
  2  7  1  0
  3  2  1  0
  4  3  1  0
  5  4  1  0
  6  5  2  0
  7  8  2  0
  9  5  1  0
 11 10  1  6
 11 12  1  0
 13 11  1  0
 14  7  1  0
 13 14  1  1
 15 16  2  0
 15 13  1  0
 18 17  1  0
 19 18  1  6
 19 20  1  0
 20 15  1  0
 21 23  1  0
 21 19  1  0
 22 21  2  0
M  END
$$$$
