EVS.pdb
     RDKit          3D

 23 22  0  0  1  0  0  0  0  0999 V2000
   19.8487  -14.7699  -18.0307 N   0  0  0  0  0  0  0  0  0  0  0  0
   20.2321  -13.4093  -18.3450 C   0  0  1  0  0  0  0  0  0  0  0  0
   19.1051  -12.7616  -19.1177 C   0  0  0  0  0  0  0  0  0  0  0  0
   18.9945  -13.5354  -20.4348 C   0  0  0  0  0  0  0  0  0  0  0  0
   17.9137  -12.9304  -21.2553 C   0  0  0  0  0  0  0  0  0  0  0  0
   17.2184  -11.9635  -20.8638 O   0  0  0  0  0  0  0  0  0  0  0  0
   20.5055  -12.6788  -17.0719 C   0  0  0  0  0  0  0  0  0  0  0  0
   19.8594  -12.9707  -16.0149 O   0  0  0  0  0  0  0  0  0  0  0  0
   17.6585  -13.4533  -22.5088 O   0  0  0  0  0  0  0  0  0  0  0  0
   23.6228  -12.2250  -14.9200 C   0  0  0  0  0  0  0  0  0  0  0  0
   23.1258  -10.8983  -15.3795 C   0  0  2  0  0  0  0  0  0  0  0  0
   23.4155   -9.9064  -14.2468 C   0  0  0  0  0  0  0  0  0  0  0  0
   21.6760  -10.8448  -15.7805 C   0  0  2  0  0  0  0  0  0  0  0  0
   21.4807  -11.6508  -17.0025 N   0  0  0  0  0  0  0  0  0  0  0  0
   21.1692   -9.4705  -16.0182 C   0  0  0  0  0  0  0  0  0  0  0  0
   21.5834   -8.8110  -17.0451 O   0  0  0  0  0  0  0  0  0  0  0  0
   17.4933   -8.2361  -15.5610 O   0  0  0  0  0  0  0  0  0  0  0  0
   18.3248   -7.3007  -14.9613 C   0  0  0  0  0  0  0  0  0  0  0  0
   19.7561   -7.4535  -15.4916 C   0  0  2  0  0  0  0  0  0  0  0  0
   20.2415   -8.7878  -15.2023 N   0  0  0  0  0  0  0  0  0  0  0  0
   20.5714   -6.4558  -14.7689 C   0  0  0  0  0  0  0  0  0  0  0  0
   21.4482   -6.8512  -13.9685 O   0  0  0  0  0  0  0  0  0  0  0  0
   20.3815   -5.1045  -14.9624 O   0  0  0  0  0  0  0  0  0  0  0  0
  2  1  1  1
  2  7  1  0
  3  2  1  0
  4  3  1  0
  5  4  1  0
  6  5  2  0
  7  8  2  0
  9  5  1  0
 11 10  1  1
 11 12  1  0
 13 11  1  0
 14  7  1  0
 13 14  1  6
 15 16  2  0
 15 13  1  0
 18 17  1  0
 19 18  1  1
 19 20  1  0
 20 15  1  0
 21 23  1  0
 21 19  1  0
 22 21  2  0
M  END
$$$$
