EVS.pdb
     RDKit          3D

 23 22  0  0  1  0  0  0  0  0999 V2000
   17.9760  -12.2203  -17.4718 N   0  0  0  0  0  0  0  0  0  0  0  0
   18.9889  -11.2489  -17.8287 C   0  0  1  0  0  0  0  0  0  0  0  0
   18.3440  -10.1754  -18.6763 C   0  0  0  0  0  0  0  0  0  0  0  0
   17.9641  -10.8499  -19.9978 C   0  0  0  0  0  0  0  0  0  0  0  0
   17.2981   -9.8492  -20.8710 C   0  0  0  0  0  0  0  0  0  0  0  0
   17.8801   -9.2781  -21.8233 O   0  0  0  0  0  0  0  0  0  0  0  0
   19.5693  -10.6755  -16.5783 C   0  0  0  0  0  0  0  0  0  0  0  0
   18.8505  -10.5568  -15.5347 O   0  0  0  0  0  0  0  0  0  0  0  0
   15.9760   -9.5290  -20.6270 O   0  0  0  0  0  0  0  0  0  0  0  0
   22.6385  -11.7033  -14.4795 C   0  0  0  0  0  0  0  0  0  0  0  0
   22.7657  -10.2905  -14.9335 C   0  0  2  0  0  0  0  0  0  0  0  0
   23.4782   -9.5317  -13.8077 C   0  0  0  0  0  0  0  0  0  0  0  0
   21.4797   -9.6053  -15.3108 C   0  0  2  0  0  0  0  0  0  0  0  0
   20.9215  -10.2511  -16.5160 N   0  0  0  0  0  0  0  0  0  0  0  0
   21.6262   -8.1502  -15.5626 C   0  0  0  0  0  0  0  0  0  0  0  0
   22.3336   -7.7479  -16.5619 O   0  0  0  0  0  0  0  0  0  0  0  0
   20.1200   -3.5972  -15.0398 O   0  0  0  0  0  0  0  0  0  0  0  0
   19.9377   -4.9509  -14.7943 C   0  0  0  0  0  0  0  0  0  0  0  0
   21.2428   -5.7130  -15.0568 C   0  0  2  0  0  0  0  0  0  0  0  0
   21.0441   -7.1232  -14.7887 N   0  0  0  0  0  0  0  0  0  0  0  0
   22.2389   -5.1595  -14.1167 C   0  0  0  0  0  0  0  0  0  0  0  0
   22.9694   -4.2150  -14.4908 O   0  0  0  0  0  0  0  0  0  0  0  0
   22.3742   -5.6652  -12.8417 O   0  0  0  0  0  0  0  0  0  0  0  0
  2  1  1  1
  2  7  1  0
  3  2  1  0
  4  3  1  0
  5  4  1  0
  6  5  2  0
  7  8  2  0
  9  5  1  0
 11 10  1  1
 11 12  1  0
 13 11  1  0
 14  7  1  0
 13 14  1  6
 15 16  2  0
 15 13  1  0
 18 17  1  0
 19 18  1  1
 19 20  1  0
 20 15  1  0
 21 23  1  0
 21 19  1  0
 22 21  2  0
M  END
$$$$
