EVS.pdb
     RDKit          3D

 23 22  0  0  1  0  0  0  0  0999 V2000
   19.8320  -12.3587  -18.6732 N   0  0  0  0  0  0  0  0  0  0  0  0
   20.7481  -11.2394  -18.6029 C   0  0  1  0  0  0  0  0  0  0  0  0
   20.4393  -10.2966  -19.7442 C   0  0  0  0  0  0  0  0  0  0  0  0
   20.9110  -11.0041  -21.0180 C   0  0  0  0  0  0  0  0  0  0  0  0
   22.3770  -10.8082  -21.1586 C   0  0  0  0  0  0  0  0  0  0  0  0
   22.9674   -9.7701  -20.7772 O   0  0  0  0  0  0  0  0  0  0  0  0
   20.5830  -10.5631  -17.2821 C   0  0  0  0  0  0  0  0  0  0  0  0
   19.4373  -10.5064  -16.7308 O   0  0  0  0  0  0  0  0  0  0  0  0
   23.1299  -11.8134  -21.7355 O   0  0  0  0  0  0  0  0  0  0  0  0
   22.3698   -9.2984  -12.9365 C   0  0  0  0  0  0  0  0  0  0  0  0
   22.3027   -9.9779  -14.2603 C   0  0  2  0  0  0  0  0  0  0  0  0
   23.7510  -10.2074  -14.7081 C   0  0  0  0  0  0  0  0  0  0  0  0
   21.5199   -9.2595  -15.3265 C   0  0  2  0  0  0  0  0  0  0  0  0
   21.6833   -9.9709  -16.6104 N   0  0  0  0  0  0  0  0  0  0  0  0
   21.9111   -7.8392  -15.5043 C   0  0  0  0  0  0  0  0  0  0  0  0
   22.9036   -7.5465  -16.2726 O   0  0  0  0  0  0  0  0  0  0  0  0
   19.4033   -4.8150  -15.2945 O   0  0  0  0  0  0  0  0  0  0  0  0
   20.6577   -4.5731  -15.8366 C   0  0  0  0  0  0  0  0  0  0  0  0
   21.7236   -5.3657  -15.0693 C   0  0  2  0  0  0  0  0  0  0  0  0
   21.2794   -6.7339  -14.8946 N   0  0  0  0  0  0  0  0  0  0  0  0
   21.8558   -4.7096  -13.7524 C   0  0  0  0  0  0  0  0  0  0  0  0
   21.5273   -5.3402  -12.7227 O   0  0  0  0  0  0  0  0  0  0  0  0
   22.3328   -3.4212  -13.6422 O   0  0  0  0  0  0  0  0  0  0  0  0
  2  1  1  1
  2  7  1  0
  3  2  1  0
  4  3  1  0
  5  4  1  0
  6  5  2  0
  7  8  2  0
  9  5  1  0
 11 10  1  1
 11 12  1  0
 13 11  1  0
 14  7  1  0
 13 14  1  6
 15 16  2  0
 15 13  1  0
 18 17  1  0
 19 18  1  6
 19 20  1  0
 20 15  1  0
 21 23  1  0
 21 19  1  0
 22 21  2  0
M  END
$$$$
