EVS.pdb
     RDKit          3D

 23 22  0  0  1  0  0  0  0  0999 V2000
   25.0550  -20.9518   -9.9603 N   0  0  0  0  0  0  0  0  0  0  0  0
   24.3278  -20.8601  -11.2092 C   0  0  1  0  0  0  0  0  0  0  0  0
   22.9860  -20.2188  -10.9350 C   0  0  0  0  0  0  0  0  0  0  0  0
   22.0055  -21.3715  -10.6992 C   0  0  0  0  0  0  0  0  0  0  0  0
   21.2097  -21.5826  -11.9359 C   0  0  0  0  0  0  0  0  0  0  0  0
   21.3763  -22.5653  -12.6964 O   0  0  0  0  0  0  0  0  0  0  0  0
   25.1278  -20.0497  -12.1749 C   0  0  0  0  0  0  0  0  0  0  0  0
   25.7039  -18.9817  -11.7911 O   0  0  0  0  0  0  0  0  0  0  0  0
   20.2395  -20.6563  -12.2687 O   0  0  0  0  0  0  0  0  0  0  0  0
   28.1609  -21.1015  -13.8872 C   0  0  0  0  0  0  0  0  0  0  0  0
   27.2403  -20.5965  -14.9435 C   0  0  2  0  0  0  0  0  0  0  0  0
   28.1150  -19.8856  -15.9828 C   0  0  0  0  0  0  0  0  0  0  0  0
   26.1315  -19.6952  -14.4702 C   0  0  2  0  0  0  0  0  0  0  0  0
   25.2683  -20.4401  -13.5315 N   0  0  0  0  0  0  0  0  0  0  0  0
   25.2963  -19.1444  -15.5662 C   0  0  0  0  0  0  0  0  0  0  0  0
   24.5875  -19.9444  -16.2863 O   0  0  0  0  0  0  0  0  0  0  0  0
   23.2398  -15.3248  -17.7773 O   0  0  0  0  0  0  0  0  0  0  0  0
   23.9254  -15.8497  -16.6908 C   0  0  0  0  0  0  0  0  0  0  0  0
   24.3613  -17.2897  -16.9903 C   0  0  2  0  0  0  0  0  0  0  0  0
   25.1947  -17.7794  -15.9108 N   0  0  0  0  0  0  0  0  0  0  0  0
   25.1448  -17.2307  -18.2413 C   0  0  0  0  0  0  0  0  0  0  0  0
   26.3623  -16.9472  -18.1839 O   0  0  0  0  0  0  0  0  0  0  0  0
   24.5580  -17.4819  -19.4628 O   0  0  0  0  0  0  0  0  0  0  0  0
  2  1  1  1
  2  7  1  0
  3  2  1  0
  4  3  1  0
  5  4  1  0
  6  5  2  0
  7  8  2  0
  9  5  1  0
 11 10  1  1
 11 12  1  0
 13 11  1  0
 14  7  1  0
 13 14  1  1
 15 16  2  0
 15 13  1  0
 18 17  1  0
 19 18  1  1
 19 20  1  0
 20 15  1  0
 21 23  1  0
 21 19  1  0
 22 21  2  0
M  END
$$$$
