EVS.pdb
     RDKit          3D

 23 22  0  0  1  0  0  0  0  0999 V2000
   21.1346  -12.5895  -16.3348 N   0  0  0  0  0  0  0  0  0  0  0  0
   21.8256  -11.5645  -15.5805 C   0  0  1  0  0  0  0  0  0  0  0  0
   23.1792  -11.3352  -16.2145 C   0  0  0  0  0  0  0  0  0  0  0  0
   24.0300  -12.5556  -15.8505 C   0  0  0  0  0  0  0  0  0  0  0  0
   25.4124  -12.3409  -16.3507 C   0  0  0  0  0  0  0  0  0  0  0  0
   25.9983  -11.2344  -16.2863 O   0  0  0  0  0  0  0  0  0  0  0  0
   21.0032  -10.3184  -15.5945 C   0  0  0  0  0  0  0  0  0  0  0  0
   20.1869  -10.1007  -16.5464 O   0  0  0  0  0  0  0  0  0  0  0  0
   26.0886  -13.4064  -16.9141 O   0  0  0  0  0  0  0  0  0  0  0  0
   19.3337   -8.6998  -12.2917 C   0  0  0  0  0  0  0  0  0  0  0  0
   19.0738   -8.3248  -13.7095 C   0  0  2  0  0  0  0  0  0  0  0  0
   18.1755   -9.4210  -14.2943 C   0  0  0  0  0  0  0  0  0  0  0  0
   20.2937   -8.1180  -14.5667 C   0  0  2  0  0  0  0  0  0  0  0  0
   21.1052   -9.3519  -14.5610 N   0  0  0  0  0  0  0  0  0  0  0  0
   21.1408   -6.9768  -14.1399 C   0  0  0  0  0  0  0  0  0  0  0  0
   22.1006   -7.1778  -13.3037 O   0  0  0  0  0  0  0  0  0  0  0  0
   23.6592   -3.1942  -15.0853 O   0  0  0  0  0  0  0  0  0  0  0  0
   22.8359   -4.2675  -15.3953 C   0  0  0  0  0  0  0  0  0  0  0  0
   21.9123   -4.5805  -14.2110 C   0  0  2  0  0  0  0  0  0  0  0  0
   20.9966   -5.6423  -14.5767 N   0  0  0  0  0  0  0  0  0  0  0  0
   21.1582   -3.3399  -13.9381 C   0  0  0  0  0  0  0  0  0  0  0  0
   20.0163   -3.2013  -14.4306 O   0  0  0  0  0  0  0  0  0  0  0  0
   21.6909   -2.3395  -13.1539 O   0  0  0  0  0  0  0  0  0  0  0  0
  2  1  1  6
  2  7  1  0
  3  2  1  0
  4  3  1  0
  5  4  1  0
  6  5  2  0
  7  8  2  0
  9  5  1  0
 11 10  1  1
 11 12  1  0
 13 11  1  0
 14  7  1  0
 13 14  1  1
 15 16  2  0
 15 13  1  0
 18 17  1  0
 19 18  1  6
 19 20  1  0
 20 15  1  0
 21 23  1  0
 21 19  1  0
 22 21  2  0
M  END
$$$$
