EVS.pdb
     RDKit          3D

 23 22  0  0  1  0  0  0  0  0999 V2000
   19.0863  -13.3926  -15.9444 N   0  0  0  0  0  0  0  0  0  0  0  0
   18.8524  -11.9874  -16.2046 C   0  0  1  0  0  0  0  0  0  0  0  0
   17.3802  -11.7035  -16.0072 C   0  0  0  0  0  0  0  0  0  0  0  0
   16.6593  -12.3637  -17.1862 C   0  0  0  0  0  0  0  0  0  0  0  0
   15.2007  -12.1137  -17.0551 C   0  0  0  0  0  0  0  0  0  0  0  0
   14.3804  -13.0061  -16.7348 O   0  0  0  0  0  0  0  0  0  0  0  0
   19.6899  -11.1779  -15.2705 C   0  0  0  0  0  0  0  0  0  0  0  0
   19.5643  -11.3196  -14.0119 O   0  0  0  0  0  0  0  0  0  0  0  0
   14.7199  -10.8406  -17.2962 O   0  0  0  0  0  0  0  0  0  0  0  0
   23.4843   -9.7317  -16.3168 C   0  0  0  0  0  0  0  0  0  0  0  0
   22.8954   -9.8213  -14.9517 C   0  0  2  0  0  0  0  0  0  0  0  0
   23.0952  -11.2674  -14.4831 C   0  0  0  0  0  0  0  0  0  0  0  0
   21.4510   -9.4147  -14.8333 C   0  0  2  0  0  0  0  0  0  0  0  0
   20.6384  -10.2387  -15.7509 N   0  0  0  0  0  0  0  0  0  0  0  0
   21.2056   -7.9799  -15.1218 C   0  0  0  0  0  0  0  0  0  0  0  0
   21.0303   -7.5994  -16.3406 O   0  0  0  0  0  0  0  0  0  0  0  0
   19.4731   -3.7023  -14.2785 O   0  0  0  0  0  0  0  0  0  0  0  0
   19.6165   -5.0544  -14.0006 C   0  0  0  0  0  0  0  0  0  0  0  0
   20.9808   -5.5509  -14.4959 C   0  0  2  0  0  0  0  0  0  0  0  0
   21.1402   -6.9509  -14.1578 N   0  0  0  0  0  0  0  0  0  0  0  0
   21.9948   -4.7450  -13.7855 C   0  0  0  0  0  0  0  0  0  0  0  0
   22.5468   -5.2210  -12.7684 O   0  0  0  0  0  0  0  0  0  0  0  0
   22.3393   -3.4847  -14.2240 O   0  0  0  0  0  0  0  0  0  0  0  0
  2  1  1  1
  2  7  1  0
  3  2  1  0
  4  3  1  0
  5  4  1  0
  6  5  2  0
  7  8  2  0
  9  5  1  0
 11 10  1  6
 11 12  1  0
 13 11  1  0
 14  7  1  0
 13 14  1  6
 15 16  2  0
 15 13  1  0
 18 17  1  0
 19 18  1  1
 19 20  1  0
 20 15  1  0
 21 23  1  0
 21 19  1  0
 22 21  2  0
M  END
$$$$
