EVS.pdb
     RDKit          3D

 23 22  0  0  1  0  0  0  0  0999 V2000
   27.8599  -21.6726  -15.7306 N   0  0  0  0  0  0  0  0  0  0  0  0
   27.3122  -20.5711  -14.9665 C   0  0  1  0  0  0  0  0  0  0  0  0
   26.8657  -19.4956  -15.9313 C   0  0  0  0  0  0  0  0  0  0  0  0
   28.1445  -18.9259  -16.5526 C   0  0  0  0  0  0  0  0  0  0  0  0
   28.1170  -19.1761  -18.0168 C   0  0  0  0  0  0  0  0  0  0  0  0
   28.6432  -20.1824  -18.5482 O   0  0  0  0  0  0  0  0  0  0  0  0
   26.1687  -21.0730  -14.1483 C   0  0  0  0  0  0  0  0  0  0  0  0
   25.5074  -22.0916  -14.5292 O   0  0  0  0  0  0  0  0  0  0  0  0
   27.4836  -18.2609  -18.8361 O   0  0  0  0  0  0  0  0  0  0  0  0
   26.1638  -21.1654  -10.0394 C   0  0  0  0  0  0  0  0  0  0  0  0
   24.9457  -20.5769  -10.6625 C   0  0  2  0  0  0  0  0  0  0  0  0
   23.7624  -20.9785   -9.7741 C   0  0  0  0  0  0  0  0  0  0  0  0
   24.6931  -20.9595  -12.0962 C   0  0  2  0  0  0  0  0  0  0  0  0
   25.7894  -20.4385  -12.9375 N   0  0  0  0  0  0  0  0  0  0  0  0
   23.3971  -20.4705  -12.6286 C   0  0  0  0  0  0  0  0  0  0  0  0
   23.2378  -19.2112  -12.8509 O   0  0  0  0  0  0  0  0  0  0  0  0
   20.4141  -23.0075  -13.9689 O   0  0  0  0  0  0  0  0  0  0  0  0
   20.4610  -21.7228  -14.4916 C   0  0  0  0  0  0  0  0  0  0  0  0
   21.0333  -20.7524  -13.4504 C   0  0  2  0  0  0  0  0  0  0  0  0
   22.2792  -21.2781  -12.9296 N   0  0  0  0  0  0  0  0  0  0  0  0
   20.0314  -20.6726  -12.3677 C   0  0  0  0  0  0  0  0  0  0  0  0
   20.2990  -21.1741  -11.2530 O   0  0  0  0  0  0  0  0  0  0  0  0
   18.8141  -20.0577  -12.5665 O   0  0  0  0  0  0  0  0  0  0  0  0
  2  1  1  6
  2  7  1  0
  3  2  1  0
  4  3  1  0
  5  4  1  0
  6  5  2  0
  7  8  2  0
  9  5  1  0
 11 10  1  1
 11 12  1  0
 13 11  1  0
 14  7  1  0
 13 14  1  6
 15 16  2  0
 15 13  1  0
 18 17  1  0
 19 18  1  6
 19 20  1  0
 20 15  1  0
 21 23  1  0
 21 19  1  0
 22 21  2  0
M  END
$$$$
