EVS.pdb
     RDKit          3D

 23 22  0  0  1  0  0  0  0  0999 V2000
   18.2139  -11.9277  -17.1279 N   0  0  0  0  0  0  0  0  0  0  0  0
   19.4098  -11.1911  -17.4804 C   0  0  1  0  0  0  0  0  0  0  0  0
   19.1608  -10.4728  -18.7877 C   0  0  0  0  0  0  0  0  0  0  0  0
   19.0619  -11.5634  -19.8585 C   0  0  0  0  0  0  0  0  0  0  0  0
   18.8496  -10.9181  -21.1797 C   0  0  0  0  0  0  0  0  0  0  0  0
   17.8793  -11.1906  -21.9254 O   0  0  0  0  0  0  0  0  0  0  0  0
   19.7232  -10.2271  -16.3842 C   0  0  0  0  0  0  0  0  0  0  0  0
   18.8046   -9.8327  -15.5965 O   0  0  0  0  0  0  0  0  0  0  0  0
   19.7605   -9.9730  -21.6122 O   0  0  0  0  0  0  0  0  0  0  0  0
   22.0931  -10.6566  -13.5321 C   0  0  0  0  0  0  0  0  0  0  0  0
   22.4457   -9.3933  -14.2379 C   0  0  2  0  0  0  0  0  0  0  0  0
   22.9008   -8.4024  -13.1601 C   0  0  0  0  0  0  0  0  0  0  0  0
   21.3601   -8.7948  -15.0917 C   0  0  2  0  0  0  0  0  0  0  0  0
   21.0368   -9.7279  -16.1898 N   0  0  0  0  0  0  0  0  0  0  0  0
   21.7084   -7.4711  -15.6650 C   0  0  0  0  0  0  0  0  0  0  0  0
   22.2987   -7.4114  -16.8091 O   0  0  0  0  0  0  0  0  0  0  0  0
   20.7931   -3.6232  -17.5437 O   0  0  0  0  0  0  0  0  0  0  0  0
   20.6146   -4.8287  -16.8797 C   0  0  0  0  0  0  0  0  0  0  0  0
   21.6307   -4.9549  -15.7374 C   0  0  2  0  0  0  0  0  0  0  0  0
   21.4457   -6.2228  -15.0607 N   0  0  0  0  0  0  0  0  0  0  0  0
   21.3444   -3.8437  -14.8071 C   0  0  0  0  0  0  0  0  0  0  0  0
   20.4813   -4.0039  -13.9154 O   0  0  0  0  0  0  0  0  0  0  0  0
   22.0098   -2.6409  -14.9066 O   0  0  0  0  0  0  0  0  0  0  0  0
  2  1  1  1
  2  7  1  0
  3  2  1  0
  4  3  1  0
  5  4  1  0
  6  5  2  0
  7  8  2  0
  9  5  1  0
 11 10  1  1
 11 12  1  0
 13 11  1  0
 14  7  1  0
 13 14  1  6
 15 16  2  0
 15 13  1  0
 18 17  1  0
 19 18  1  6
 19 20  1  0
 20 15  1  0
 21 23  1  0
 21 19  1  0
 22 21  2  0
M  END
$$$$
