EVS.pdb
     RDKit          3D

 23 22  0  0  1  0  0  0  0  0999 V2000
   22.4545  -13.2608  -17.4568 N   0  0  0  0  0  0  0  0  0  0  0  0
   22.9642  -12.2367  -16.5688 C   0  0  1  0  0  0  0  0  0  0  0  0
   24.4388  -12.0522  -16.8487 C   0  0  0  0  0  0  0  0  0  0  0  0
   25.1305  -13.3153  -16.3275 C   0  0  0  0  0  0  0  0  0  0  0  0
   26.5985  -13.1601  -16.4951 C   0  0  0  0  0  0  0  0  0  0  0  0
   27.1238  -12.1464  -17.0132 O   0  0  0  0  0  0  0  0  0  0  0  0
   22.2060  -10.9724  -16.8050 C   0  0  0  0  0  0  0  0  0  0  0  0
   21.7551  -10.7033  -17.9644 O   0  0  0  0  0  0  0  0  0  0  0  0
   27.4285  -14.1766  -16.0618 O   0  0  0  0  0  0  0  0  0  0  0  0
   19.7178   -9.4628  -13.9403 C   0  0  0  0  0  0  0  0  0  0  0  0
   19.7596   -9.1015  -15.3846 C   0  0  2  0  0  0  0  0  0  0  0  0
   19.0554  -10.2349  -16.1397 C   0  0  0  0  0  0  0  0  0  0  0  0
   21.1283   -8.8462  -15.9567 C   0  0  2  0  0  0  0  0  0  0  0  0
   21.9681  -10.0448  -15.7583 N   0  0  0  0  0  0  0  0  0  0  0  0
   21.8145   -7.6689  -15.3692 C   0  0  0  0  0  0  0  0  0  0  0  0
   22.5856   -7.8285  -14.3490 O   0  0  0  0  0  0  0  0  0  0  0  0
   22.9261   -2.9061  -15.5999 O   0  0  0  0  0  0  0  0  0  0  0  0
   22.2199   -3.9765  -16.1304 C   0  0  0  0  0  0  0  0  0  0  0  0
   22.4975   -5.2455  -15.3144 C   0  0  2  0  0  0  0  0  0  0  0  0
   21.7049   -6.3410  -15.8353 N   0  0  0  0  0  0  0  0  0  0  0  0
   22.0845   -4.9424  -13.9288 C   0  0  0  0  0  0  0  0  0  0  0  0
   20.8824   -5.0777  -13.6089 O   0  0  0  0  0  0  0  0  0  0  0  0
   22.9983   -4.5155  -12.9895 O   0  0  0  0  0  0  0  0  0  0  0  0
  2  1  1  6
  2  7  1  0
  3  2  1  0
  4  3  1  0
  5  4  1  0
  6  5  2  0
  7  8  2  0
  9  5  1  0
 11 10  1  1
 11 12  1  0
 13 11  1  0
 14  7  1  0
 13 14  1  1
 15 16  2  0
 15 13  1  0
 18 17  1  0
 19 18  1  6
 19 20  1  0
 20 15  1  0
 21 23  1  0
 21 19  1  0
 22 21  2  0
M  END
$$$$
