EVS.pdb
     RDKit          3D

 23 22  0  0  1  0  0  0  0  0999 V2000
   18.4136  -11.8505  -16.1953 N   0  0  0  0  0  0  0  0  0  0  0  0
   19.8114  -12.0175  -16.5347 C   0  0  1  0  0  0  0  0  0  0  0  0
   19.9120  -13.0103  -17.6709 C   0  0  0  0  0  0  0  0  0  0  0  0
   19.4106  -14.3456  -17.1129 C   0  0  0  0  0  0  0  0  0  0  0  0
   19.4899  -15.3715  -18.1846 C   0  0  0  0  0  0  0  0  0  0  0  0
   19.8609  -15.1113  -19.3536 O   0  0  0  0  0  0  0  0  0  0  0  0
   20.3754  -10.6909  -16.9234 C   0  0  0  0  0  0  0  0  0  0  0  0
   21.5877  -10.5958  -17.2989 O   0  0  0  0  0  0  0  0  0  0  0  0
   19.1398  -16.6744  -17.8851 O   0  0  0  0  0  0  0  0  0  0  0  0
   17.8581   -7.4896  -18.0868 C   0  0  0  0  0  0  0  0  0  0  0  0
   19.3208   -7.5894  -18.3497 C   0  0  2  0  0  0  0  0  0  0  0  0
   19.4784   -8.3914  -19.6469 C   0  0  0  0  0  0  0  0  0  0  0  0
   20.1456   -8.1917  -17.2440 C   0  0  2  0  0  0  0  0  0  0  0  0
   19.5877   -9.5116  -16.8866 N   0  0  0  0  0  0  0  0  0  0  0  0
   20.2216   -7.3495  -16.0246 C   0  0  0  0  0  0  0  0  0  0  0  0
   19.2770   -7.4135  -15.1502 O   0  0  0  0  0  0  0  0  0  0  0  0
   22.8391   -4.5286  -13.0377 O   0  0  0  0  0  0  0  0  0  0  0  0
   22.7820   -5.3548  -14.1512 C   0  0  0  0  0  0  0  0  0  0  0  0
   21.3222   -5.6908  -14.4820 C   0  0  2  0  0  0  0  0  0  0  0  0
   21.2661   -6.4525  -15.7134 N   0  0  0  0  0  0  0  0  0  0  0  0
   20.6325   -4.3967  -14.6611 C   0  0  0  0  0  0  0  0  0  0  0  0
   20.3968   -3.6888  -13.6566 O   0  0  0  0  0  0  0  0  0  0  0  0
   20.2473   -3.9608  -15.9106 O   0  0  0  0  0  0  0  0  0  0  0  0
  2  1  1  6
  2  7  1  0
  3  2  1  0
  4  3  1  0
  5  4  1  0
  6  5  2  0
  7  8  2  0
  9  5  1  0
 11 10  1  1
 11 12  1  0
 13 11  1  0
 14  7  1  0
 13 14  1  1
 15 16  2  0
 15 13  1  0
 18 17  1  0
 19 18  1  6
 19 20  1  0
 20 15  1  0
 21 23  1  0
 21 19  1  0
 22 21  2  0
M  END
$$$$
