EVS.pdb
     RDKit          3D

 23 22  0  0  1  0  0  0  0  0999 V2000
   18.3945  -13.2276  -16.0417 N   0  0  0  0  0  0  0  0  0  0  0  0
   18.4456  -11.8152  -16.3572 C   0  0  1  0  0  0  0  0  0  0  0  0
   17.0671  -11.2291  -16.1498 C   0  0  0  0  0  0  0  0  0  0  0  0
   16.1986  -11.7752  -17.2870 C   0  0  0  0  0  0  0  0  0  0  0  0
   14.8631  -11.1275  -17.2218 C   0  0  0  0  0  0  0  0  0  0  0  0
   14.5951  -10.0534  -17.8102 O   0  0  0  0  0  0  0  0  0  0  0  0
   19.4519  -11.1590  -15.4708 C   0  0  0  0  0  0  0  0  0  0  0  0
   19.3388  -11.2381  -14.2055 O   0  0  0  0  0  0  0  0  0  0  0  0
   13.8662  -11.7322  -16.4798 O   0  0  0  0  0  0  0  0  0  0  0  0
   24.0134   -9.7500  -14.6000 C   0  0  0  0  0  0  0  0  0  0  0  0
   22.8881  -10.3829  -15.3427 C   0  0  2  0  0  0  0  0  0  0  0  0
   23.2760  -10.3617  -16.8259 C   0  0  0  0  0  0  0  0  0  0  0  0
   21.5334   -9.7606  -15.1344 C   0  0  2  0  0  0  0  0  0  0  0  0
   20.5501  -10.4368  -16.0045 N   0  0  0  0  0  0  0  0  0  0  0  0
   21.4959   -8.3012  -15.4008 C   0  0  0  0  0  0  0  0  0  0  0  0
   21.4575   -7.8799  -16.6181 O   0  0  0  0  0  0  0  0  0  0  0  0
   19.4414   -5.7341  -13.6226 O   0  0  0  0  0  0  0  0  0  0  0  0
   20.1478   -5.2822  -14.7283 C   0  0  0  0  0  0  0  0  0  0  0  0
   21.5624   -5.8756  -14.7266 C   0  0  2  0  0  0  0  0  0  0  0  0
   21.4956   -7.2895  -14.4164 N   0  0  0  0  0  0  0  0  0  0  0  0
   22.3058   -5.1644  -13.6665 C   0  0  0  0  0  0  0  0  0  0  0  0
   22.7447   -5.8136  -12.6909 O   0  0  0  0  0  0  0  0  0  0  0  0
   22.5216   -3.8049  -13.7361 O   0  0  0  0  0  0  0  0  0  0  0  0
  2  1  1  1
  2  7  1  0
  3  2  1  0
  4  3  1  0
  5  4  1  0
  6  5  2  0
  7  8  2  0
  9  5  1  0
 11 10  1  1
 11 12  1  0
 13 11  1  0
 14  7  1  0
 13 14  1  6
 15 16  2  0
 15 13  1  0
 18 17  1  0
 19 18  1  1
 19 20  1  0
 20 15  1  0
 21 23  1  0
 21 19  1  0
 22 21  2  0
M  END
$$$$
