EVS.pdb
     RDKit          3D

 23 22  0  0  1  0  0  0  0  0999 V2000
   19.8343  -12.8425  -17.1986 N   0  0  0  0  0  0  0  0  0  0  0  0
   20.5083  -11.6522  -17.6738 C   0  0  1  0  0  0  0  0  0  0  0  0
   19.5351  -10.8546  -18.5126 C   0  0  0  0  0  0  0  0  0  0  0  0
   18.1428  -11.3987  -18.1790 C   0  0  0  0  0  0  0  0  0  0  0  0
   17.1345  -10.6518  -18.9744 C   0  0  0  0  0  0  0  0  0  0  0  0
   16.9659   -9.4135  -18.8744 O   0  0  0  0  0  0  0  0  0  0  0  0
   20.9817  -10.8638  -16.4976 C   0  0  0  0  0  0  0  0  0  0  0  0
   20.3304  -10.8912  -15.4045 O   0  0  0  0  0  0  0  0  0  0  0  0
   16.3430  -11.3487  -19.8676 O   0  0  0  0  0  0  0  0  0  0  0  0
   25.0455   -9.4592  -16.1906 C   0  0  0  0  0  0  0  0  0  0  0  0
   24.0616   -9.7010  -15.0987 C   0  0  2  0  0  0  0  0  0  0  0  0
   24.1492  -11.1922  -14.7533 C   0  0  0  0  0  0  0  0  0  0  0  0
   22.6410   -9.3028  -15.3970 C   0  0  2  0  0  0  0  0  0  0  0  0
   22.1563  -10.0709  -16.5616 N   0  0  0  0  0  0  0  0  0  0  0  0
   22.4672   -7.8534  -15.6639 C   0  0  0  0  0  0  0  0  0  0  0  0
   22.6756   -7.3981  -16.8514 O   0  0  0  0  0  0  0  0  0  0  0  0
   19.6945   -5.6253  -14.3895 O   0  0  0  0  0  0  0  0  0  0  0  0
   20.5579   -5.0862  -15.3329 C   0  0  0  0  0  0  0  0  0  0  0  0
   22.0056   -5.4685  -14.9995 C   0  0  2  0  0  0  0  0  0  0  0  0
   22.0794   -6.8866  -14.7113 N   0  0  0  0  0  0  0  0  0  0  0  0
   22.3694   -4.6928  -13.7960 C   0  0  0  0  0  0  0  0  0  0  0  0
   22.6175   -5.3019  -12.7316 O   0  0  0  0  0  0  0  0  0  0  0  0
   22.4389   -3.3167  -13.8287 O   0  0  0  0  0  0  0  0  0  0  0  0
  2  1  1  1
  2  7  1  0
  3  2  1  0
  4  3  1  0
  5  4  1  0
  6  5  2  0
  7  8  2  0
  9  5  1  0
 11 10  1  6
 11 12  1  0
 13 11  1  0
 14  7  1  0
 13 14  1  6
 15 16  2  0
 15 13  1  0
 18 17  1  0
 19 18  1  1
 19 20  1  0
 20 15  1  0
 21 23  1  0
 21 19  1  0
 22 21  2  0
M  END
$$$$
