EVS.pdb
     RDKit          3D

 23 22  0  0  1  0  0  0  0  0999 V2000
   20.0855  -13.4432  -16.4310 N   0  0  0  0  0  0  0  0  0  0  0  0
   20.1364  -12.0819  -16.9221 C   0  0  1  0  0  0  0  0  0  0  0  0
   18.7215  -11.6121  -17.1755 C   0  0  0  0  0  0  0  0  0  0  0  0
   18.2441  -12.3587  -18.4247 C   0  0  0  0  0  0  0  0  0  0  0  0
   16.8352  -11.9765  -18.7007 C   0  0  0  0  0  0  0  0  0  0  0  0
   16.3270  -10.9031  -18.2988 O   0  0  0  0  0  0  0  0  0  0  0  0
   20.8167  -11.2270  -15.9046 C   0  0  0  0  0  0  0  0  0  0  0  0
   20.5275  -11.3471  -14.6710 O   0  0  0  0  0  0  0  0  0  0  0  0
   16.0433  -12.8399  -19.4337 O   0  0  0  0  0  0  0  0  0  0  0  0
   24.6149   -9.4636  -16.5916 C   0  0  0  0  0  0  0  0  0  0  0  0
   23.9264   -9.6569  -15.2851 C   0  0  2  0  0  0  0  0  0  0  0  0
   24.2266  -11.0932  -14.8407 C   0  0  0  0  0  0  0  0  0  0  0  0
   22.4444   -9.3934  -15.2802 C   0  0  2  0  0  0  0  0  0  0  0  0
   21.7931  -10.2675  -16.2767 N   0  0  0  0  0  0  0  0  0  0  0  0
   22.0848   -7.9817  -15.5628 C   0  0  0  0  0  0  0  0  0  0  0  0
   22.1431   -7.5428  -16.7730 O   0  0  0  0  0  0  0  0  0  0  0  0
   19.4726   -5.8367  -13.5647 O   0  0  0  0  0  0  0  0  0  0  0  0
   19.9583   -5.3031  -14.7502 C   0  0  0  0  0  0  0  0  0  0  0  0
   21.4478   -5.6357  -14.9048 C   0  0  2  0  0  0  0  0  0  0  0  0
   21.6668   -7.0357  -14.6021 N   0  0  0  0  0  0  0  0  0  0  0  0
   22.1617   -4.7930  -13.9237 C   0  0  0  0  0  0  0  0  0  0  0  0
   22.7351   -5.3398  -12.9552 O   0  0  0  0  0  0  0  0  0  0  0  0
   22.2049   -3.4221  -14.0589 O   0  0  0  0  0  0  0  0  0  0  0  0
  2  1  1  1
  2  7  1  0
  3  2  1  0
  4  3  1  0
  5  4  1  0
  6  5  2  0
  7  8  2  0
  9  5  1  0
 11 10  1  6
 11 12  1  0
 13 11  1  0
 14  7  1  0
 13 14  1  6
 15 16  2  0
 15 13  1  0
 18 17  1  0
 19 18  1  1
 19 20  1  0
 20 15  1  0
 21 23  1  0
 21 19  1  0
 22 21  2  0
M  END
$$$$
