TIE.pdb
     RDKit          3D

 25 24  0  0  1  0  0  0  0  0999 V2000
   24.6608  -32.4749   -6.5534 C   0  0  0  0  0  0  0  0  0  0  0  0
   24.7196  -32.8687   -7.9918 C   0  0  1  0  0  0  0  0  0  0  0  0
   23.9843  -32.0098   -8.8151 O   0  0  0  0  0  0  0  0  0  0  0  0
   26.1540  -32.8580   -8.5352 C   0  0  2  0  0  0  0  0  0  0  0  0
   26.0495  -33.3386   -9.9109 N   0  0  0  0  0  0  0  0  0  0  0  0
   26.9018  -33.8369   -7.7016 C   0  0  0  0  0  0  0  0  0  0  0  0
   26.8161  -35.0507   -8.0068 O   0  0  0  0  0  0  0  0  0  0  0  0
   31.3339  -34.9539   -7.0657 C   0  0  0  0  0  0  0  0  0  0  0  0
   30.7076  -33.7354   -6.5002 C   0  0  0  0  0  0  0  0  0  0  0  0
   29.7140  -33.9011   -5.4256 C   0  0  2  0  0  0  0  0  0  0  0  0
   30.3147  -34.3682   -4.1102 C   0  0  0  0  0  0  0  0  0  0  0  0
   28.3826  -34.4892   -5.7434 C   0  0  2  0  0  0  0  0  0  0  0  0
   27.6927  -33.4787   -6.5996 N   0  0  0  0  0  0  0  0  0  0  0  0
   27.5023  -34.8923   -4.6633 C   0  0  0  0  0  0  0  0  0  0  0  0
   26.7682  -34.0071   -4.0654 O   0  0  0  0  0  0  0  0  0  0  0  0
   27.3024  -36.1947   -4.1321 N   0  0  0  0  0  0  0  0  0  0  0  0
   26.4249  -36.4361   -2.9814 C   0  0  1  0  0  0  0  0  0  0  0  0
   26.2590  -37.9390   -2.8171 C   0  0  0  0  0  0  0  0  0  0  0  0
   25.3670  -38.3415   -1.7008 C   0  0  0  0  0  0  0  0  0  0  0  0
   25.4289  -39.8372   -1.5629 C   0  0  0  0  0  0  0  0  0  0  0  0
   26.1074  -40.5050   -2.3795 O   0  0  0  0  0  0  0  0  0  0  0  0
   26.8864  -35.7683   -1.7586 C   0  0  0  0  0  0  0  0  0  0  0  0
   26.0220  -35.0943   -0.8892 O   0  0  0  0  0  0  0  0  0  0  0  0
   24.7587  -40.5120   -0.5589 O   0  0  0  0  0  0  0  0  0  0  0  0
   28.0910  -35.7612   -1.4193 O   0  0  0  0  0  0  0  0  0  0  0  0
  2  1  1  1
  3  2  1  0
  4  2  1  0
  4  6  1  0
  4  5  1  6
  6 13  1  0
  6  7  2  0
  9  8  1  0
 10  9  1  0
 10 11  1  1
 12 10  1  0
 12 13  1  1
 14 16  1  0
 14 12  1  0
 15 14  2  0
 17 22  1  0
 17 16  1  0
 17 18  1  1
 18 19  1  0
 19 20  1  0
 20 21  2  0
 22 23  1  0
 24 20  1  0
 25 22  2  0
M  END
$$$$
