TIE.pdb
     RDKit          3D

 25 24  0  0  1  0  0  0  0  0999 V2000
   27.0617  -10.8548  -14.9026 C   0  0  0  0  0  0  0  0  0  0  0  0
   25.7827  -10.3577  -15.4898 C   0  0  1  0  0  0  0  0  0  0  0  0
   25.9674   -9.7242  -16.7229 O   0  0  0  0  0  0  0  0  0  0  0  0
   24.7815  -11.4930  -15.7378 C   0  0  2  0  0  0  0  0  0  0  0  0
   25.3082  -12.2289  -16.8847 N   0  0  0  0  0  0  0  0  0  0  0  0
   23.5028  -10.8234  -16.0967 C   0  0  0  0  0  0  0  0  0  0  0  0
   23.2471  -10.6659  -17.3148 O   0  0  0  0  0  0  0  0  0  0  0  0
   18.9711  -12.8698  -15.3501 C   0  0  0  0  0  0  0  0  0  0  0  0
   19.9733  -11.9085  -15.8679 C   0  0  0  0  0  0  0  0  0  0  0  0
   20.2198  -10.6794  -15.0946 C   0  0  2  0  0  0  0  0  0  0  0  0
   18.9500  -10.0172  -14.5861 C   0  0  0  0  0  0  0  0  0  0  0  0
   21.2771   -9.7308  -15.5441 C   0  0  2  0  0  0  0  0  0  0  0  0
   22.5731  -10.3615  -15.1531 N   0  0  0  0  0  0  0  0  0  0  0  0
   21.2477   -8.3559  -15.0830 C   0  0  0  0  0  0  0  0  0  0  0  0
   21.5244   -8.0846  -13.8462 O   0  0  0  0  0  0  0  0  0  0  0  0
   20.9514   -7.1844  -15.8304 N   0  0  0  0  0  0  0  0  0  0  0  0
   20.9620   -5.8513  -15.2181 C   0  0  1  0  0  0  0  0  0  0  0  0
   21.8857   -4.9605  -16.0347 C   0  0  0  0  0  0  0  0  0  0  0  0
   21.9323   -3.5463  -15.5858 C   0  0  0  0  0  0  0  0  0  0  0  0
   22.7595   -2.7660  -16.5690 C   0  0  0  0  0  0  0  0  0  0  0  0
   22.1979   -1.9477  -17.3360 O   0  0  0  0  0  0  0  0  0  0  0  0
   19.6173   -5.2881  -15.0480 C   0  0  0  0  0  0  0  0  0  0  0  0
   19.2825   -4.4263  -13.9979 O   0  0  0  0  0  0  0  0  0  0  0  0
   24.1309   -2.9180  -16.6610 O   0  0  0  0  0  0  0  0  0  0  0  0
   18.6826   -5.5487  -15.8383 O   0  0  0  0  0  0  0  0  0  0  0  0
  2  1  1  6
  3  2  1  0
  4  2  1  0
  4  6  1  0
  4  5  1  6
  6 13  1  0
  6  7  2  0
  9  8  1  0
 10  9  1  0
 10 11  1  6
 12 10  1  0
 12 13  1  1
 14 16  1  0
 14 12  1  0
 15 14  2  0
 17 22  1  0
 17 16  1  0
 17 18  1  6
 18 19  1  0
 19 20  1  0
 20 21  2  0
 22 23  1  0
 24 20  1  0
 25 22  2  0
M  END
$$$$
