TIE.pdb
     RDKit          3D

 25 24  0  0  1  0  0  0  0  0999 V2000
   21.1891  -22.7759  -10.1956 C   0  0  0  0  0  0  0  0  0  0  0  0
   20.6912  -22.0662   -8.9808 C   0  0  1  0  0  0  0  0  0  0  0  0
   19.6706  -22.7662   -8.3293 O   0  0  0  0  0  0  0  0  0  0  0  0
   21.7982  -21.8570   -7.9399 C   0  0  2  0  0  0  0  0  0  0  0  0
   21.1712  -21.1068   -6.8544 N   0  0  0  0  0  0  0  0  0  0  0  0
   22.8273  -21.0232   -8.6167 C   0  0  0  0  0  0  0  0  0  0  0  0
   22.5063  -19.8586   -8.9550 O   0  0  0  0  0  0  0  0  0  0  0  0
   27.5362  -19.8632   -6.6595 C   0  0  0  0  0  0  0  0  0  0  0  0
   26.2807  -19.9710   -7.4395 C   0  0  0  0  0  0  0  0  0  0  0  0
   26.3407  -20.6082   -8.7661 C   0  0  2  0  0  0  0  0  0  0  0  0
   27.6382  -20.3400   -9.5103 C   0  0  0  0  0  0  0  0  0  0  0  0
   25.1242  -20.6253   -9.6262 C   0  0  2  0  0  0  0  0  0  0  0  0
   24.1292  -21.4656   -8.8954 N   0  0  0  0  0  0  0  0  0  0  0  0
   25.2259  -21.0782  -11.0004 C   0  0  0  0  0  0  0  0  0  0  0  0
   25.4994  -22.3200  -11.2514 O   0  0  0  0  0  0  0  0  0  0  0  0
   25.0517  -20.3216  -12.1903 N   0  0  0  0  0  0  0  0  0  0  0  0
   25.2077  -20.9215  -13.5199 C   0  0  1  0  0  0  0  0  0  0  0  0
   24.4363  -20.0719  -14.5182 C   0  0  0  0  0  0  0  0  0  0  0  0
   24.5807  -20.5002  -15.9322 C   0  0  0  0  0  0  0  0  0  0  0  0
   23.8507  -19.5142  -16.8010 C   0  0  0  0  0  0  0  0  0  0  0  0
   23.2763  -18.5324  -16.2725 O   0  0  0  0  0  0  0  0  0  0  0  0
   26.6118  -21.1238  -13.8963 C   0  0  0  0  0  0  0  0  0  0  0  0
   27.0448  -22.2180  -14.6531 O   0  0  0  0  0  0  0  0  0  0  0  0
   23.7879  -19.6501  -18.1758 O   0  0  0  0  0  0  0  0  0  0  0  0
   27.5125  -20.3234  -13.5584 O   0  0  0  0  0  0  0  0  0  0  0  0
  2  1  1  6
  3  2  1  0
  4  2  1  0
  4  6  1  0
  4  5  1  1
  6 13  1  0
  6  7  2  0
  9  8  1  0
 10  9  1  0
 10 11  1  6
 12 10  1  0
 12 13  1  1
 14 16  1  0
 14 12  1  0
 15 14  2  0
 17 22  1  0
 17 16  1  0
 17 18  1  6
 18 19  1  0
 19 20  1  0
 20 21  2  0
 22 23  1  0
 24 20  1  0
 25 22  2  0
M  END
$$$$
