TIE.pdb
     RDKit          3D

 25 24  0  0  1  0  0  0  0  0999 V2000
   17.2681  -11.2947  -17.4910 C   0  0  0  0  0  0  0  0  0  0  0  0
   17.0365  -12.5479  -16.7144 C   0  0  1  0  0  0  0  0  0  0  0  0
   16.2253  -13.4609  -17.3959 O   0  0  0  0  0  0  0  0  0  0  0  0
   18.3452  -13.2860  -16.4056 C   0  0  2  0  0  0  0  0  0  0  0  0
   17.9591  -14.4288  -15.5814 N   0  0  0  0  0  0  0  0  0  0  0  0
   19.1628  -12.3298  -15.6123 C   0  0  0  0  0  0  0  0  0  0  0  0
   18.7685  -12.0420  -14.4567 O   0  0  0  0  0  0  0  0  0  0  0  0
   24.3165  -12.7716  -14.8363 C   0  0  0  0  0  0  0  0  0  0  0  0
   22.8836  -12.3946  -14.8006 C   0  0  0  0  0  0  0  0  0  0  0  0
   22.4995  -11.0768  -15.3349 C   0  0  2  0  0  0  0  0  0  0  0  0
   23.4732   -9.9677  -14.9729 C   0  0  0  0  0  0  0  0  0  0  0  0
   21.0657  -10.6719  -15.3243 C   0  0  2  0  0  0  0  0  0  0  0  0
   20.3436  -11.7362  -16.0831 N   0  0  0  0  0  0  0  0  0  0  0  0
   20.6866   -9.3687  -15.8362 C   0  0  0  0  0  0  0  0  0  0  0  0
   20.8798   -9.0859  -17.0862 O   0  0  0  0  0  0  0  0  0  0  0  0
   20.0893   -8.2881  -15.1332 N   0  0  0  0  0  0  0  0  0  0  0  0
   19.8049   -7.0038  -15.7828 C   0  0  1  0  0  0  0  0  0  0  0  0
   18.4785   -6.4847  -15.2494 C   0  0  0  0  0  0  0  0  0  0  0  0
   18.0806   -5.1554  -15.7769 C   0  0  0  0  0  0  0  0  0  0  0  0
   16.8193   -4.7288  -15.0790 C   0  0  0  0  0  0  0  0  0  0  0  0
   16.3278   -5.4629  -14.1886 O   0  0  0  0  0  0  0  0  0  0  0  0
   20.9009   -6.0373  -15.6461 C   0  0  0  0  0  0  0  0  0  0  0  0
   21.1138   -4.9971  -16.5572 O   0  0  0  0  0  0  0  0  0  0  0  0
   16.1734   -3.5449  -15.3848 O   0  0  0  0  0  0  0  0  0  0  0  0
   21.7175   -6.0878  -14.6991 O   0  0  0  0  0  0  0  0  0  0  0  0
  2  1  1  6
  3  2  1  0
  4  2  1  0
  4  6  1  0
  4  5  1  1
  6 13  1  0
  6  7  2  0
  9  8  1  0
 10  9  1  0
 10 11  1  1
 12 10  1  0
 12 13  1  6
 14 16  1  0
 14 12  1  0
 15 14  2  0
 17 22  1  0
 17 16  1  0
 17 18  1  1
 18 19  1  0
 19 20  1  0
 20 21  2  0
 22 23  1  0
 24 20  1  0
 25 22  2  0
M  END
$$$$
