TIE.pdb
     RDKit          3D

 25 24  0  0  1  0  0  0  0  0999 V2000
   26.7039  -10.8133  -15.1917 C   0  0  0  0  0  0  0  0  0  0  0  0
   26.9228  -11.4736  -16.5121 C   0  0  1  0  0  0  0  0  0  0  0  0
   28.1206  -12.1939  -16.5613 O   0  0  0  0  0  0  0  0  0  0  0  0
   25.8088  -12.4724  -16.8500 C   0  0  2  0  0  0  0  0  0  0  0  0
   26.2145  -13.0923  -18.1091 N   0  0  0  0  0  0  0  0  0  0  0  0
   24.5854  -11.6504  -17.0497 C   0  0  0  0  0  0  0  0  0  0  0  0
   24.5137  -10.9517  -18.0892 O   0  0  0  0  0  0  0  0  0  0  0  0
   20.8379  -14.1994  -16.9275 C   0  0  0  0  0  0  0  0  0  0  0  0
   20.9626  -12.7812  -17.3398 C   0  0  0  0  0  0  0  0  0  0  0  0
   21.1481  -11.7667  -16.2882 C   0  0  2  0  0  0  0  0  0  0  0  0
   19.8457  -11.1587  -15.7948 C   0  0  0  0  0  0  0  0  0  0  0  0
   22.2824  -10.8061  -16.3891 C   0  0  2  0  0  0  0  0  0  0  0  0
   23.5142  -11.6142  -16.1444 N   0  0  0  0  0  0  0  0  0  0  0  0
   22.2992   -9.6276  -15.5438 C   0  0  0  0  0  0  0  0  0  0  0  0
   22.5469   -9.7462  -14.2771 O   0  0  0  0  0  0  0  0  0  0  0  0
   22.0801   -8.2745  -15.9177 N   0  0  0  0  0  0  0  0  0  0  0  0
   22.0547   -7.1915  -14.9285 C   0  0  1  0  0  0  0  0  0  0  0  0
   22.4445   -5.8988  -15.6289 C   0  0  0  0  0  0  0  0  0  0  0  0
   22.4337   -4.6982  -14.7558 C   0  0  0  0  0  0  0  0  0  0  0  0
   22.7986   -3.5033  -15.5919 C   0  0  0  0  0  0  0  0  0  0  0  0
   23.0464   -3.6558  -16.8120 O   0  0  0  0  0  0  0  0  0  0  0  0
   20.7766   -7.0986  -14.2130 C   0  0  0  0  0  0  0  0  0  0  0  0
   20.6868   -6.7462  -12.8620 O   0  0  0  0  0  0  0  0  0  0  0  0
   22.8721   -2.2285  -15.0610 O   0  0  0  0  0  0  0  0  0  0  0  0
   19.6824   -7.3323  -14.7736 O   0  0  0  0  0  0  0  0  0  0  0  0
  2  1  1  1
  3  2  1  0
  4  2  1  0
  4  6  1  0
  4  5  1  6
  6 13  1  0
  6  7  2  0
  9  8  1  0
 10  9  1  0
 10 11  1  6
 12 10  1  0
 12 13  1  1
 14 16  1  0
 14 12  1  0
 15 14  2  0
 17 22  1  0
 17 16  1  0
 17 18  1  6
 18 19  1  0
 19 20  1  0
 20 21  2  0
 22 23  1  0
 24 20  1  0
 25 22  2  0
M  END
$$$$
