TIE.pdb
     RDKit          3D

 25 24  0  0  1  0  0  0  0  0999 V2000
   17.0872  -10.1356  -16.9525 C   0  0  0  0  0  0  0  0  0  0  0  0
   17.2418  -11.6163  -16.8462 C   0  0  1  0  0  0  0  0  0  0  0  0
   16.4174  -12.3086  -17.7390 O   0  0  0  0  0  0  0  0  0  0  0  0
   18.6756  -12.0702  -17.1481 C   0  0  2  0  0  0  0  0  0  0  0  0
   18.6330  -13.5302  -17.1177 N   0  0  0  0  0  0  0  0  0  0  0  0
   19.5007  -11.5541  -16.0234 C   0  0  0  0  0  0  0  0  0  0  0  0
   19.2398  -11.9688  -14.8685 O   0  0  0  0  0  0  0  0  0  0  0  0
   23.9973  -12.0954  -15.0007 C   0  0  0  0  0  0  0  0  0  0  0  0
   23.2820  -11.1755  -15.9165 C   0  0  0  0  0  0  0  0  0  0  0  0
   22.6674   -9.9656  -15.3438 C   0  0  2  0  0  0  0  0  0  0  0  0
   23.5416   -9.2702  -14.3135 C   0  0  0  0  0  0  0  0  0  0  0  0
   21.2120   -9.9640  -15.0254 C   0  0  2  0  0  0  0  0  0  0  0  0
   20.5482  -10.6345  -16.1829 N   0  0  0  0  0  0  0  0  0  0  0  0
   20.5429   -8.7084  -14.7429 C   0  0  0  0  0  0  0  0  0  0  0  0
   19.4271   -8.7065  -14.0833 O   0  0  0  0  0  0  0  0  0  0  0  0
   20.9547   -7.3947  -15.0937 N   0  0  0  0  0  0  0  0  0  0  0  0
   20.1477   -6.2151  -14.7626 C   0  0  1  0  0  0  0  0  0  0  0  0
   21.0923   -5.0578  -14.4769 C   0  0  0  0  0  0  0  0  0  0  0  0
   20.4163   -3.7833  -14.1270 C   0  0  0  0  0  0  0  0  0  0  0  0
   21.4697   -2.7297  -13.9269 C   0  0  0  0  0  0  0  0  0  0  0  0
   22.2897   -2.8474  -12.9851 O   0  0  0  0  0  0  0  0  0  0  0  0
   19.1431   -5.9023  -15.7859 C   0  0  0  0  0  0  0  0  0  0  0  0
   19.2683   -6.3036  -17.1204 O   0  0  0  0  0  0  0  0  0  0  0  0
   21.5699   -1.6235  -14.7508 O   0  0  0  0  0  0  0  0  0  0  0  0
   18.1070   -5.2514  -15.5232 O   0  0  0  0  0  0  0  0  0  0  0  0
  2  1  1  6
  3  2  1  0
  4  2  1  0
  4  6  1  0
  4  5  1  1
  6 13  1  0
  6  7  2  0
  9  8  1  0
 10  9  1  0
 10 11  1  1
 12 10  1  0
 12 13  1  6
 14 16  1  0
 14 12  1  0
 15 14  2  0
 17 22  1  0
 17 16  1  0
 17 18  1  6
 18 19  1  0
 19 20  1  0
 20 21  2  0
 22 23  1  0
 24 20  1  0
 25 22  2  0
M  END
$$$$
