TIE.pdb
     RDKit          3D

 25 24  0  0  1  0  0  0  0  0999 V2000
   17.7202  -11.9008  -19.4164 C   0  0  0  0  0  0  0  0  0  0  0  0
   18.4091  -11.3554  -18.2099 C   0  0  1  0  0  0  0  0  0  0  0  0
   17.5179  -10.7956  -17.2887 O   0  0  0  0  0  0  0  0  0  0  0  0
   19.1860  -12.4378  -17.4500 C   0  0  2  0  0  0  0  0  0  0  0  0
   18.1670  -13.3053  -16.8639 N   0  0  0  0  0  0  0  0  0  0  0  0
   19.9281  -11.7175  -16.3810 C   0  0  0  0  0  0  0  0  0  0  0  0
   19.3561  -11.5617  -15.2754 O   0  0  0  0  0  0  0  0  0  0  0  0
   24.7797  -13.1423  -15.1357 C   0  0  0  0  0  0  0  0  0  0  0  0
   23.4244  -12.5430  -15.1111 C   0  0  0  0  0  0  0  0  0  0  0  0
   23.2982  -11.1016  -15.3868 C   0  0  2  0  0  0  0  0  0  0  0  0
   24.3481  -10.2553  -14.6863 C   0  0  0  0  0  0  0  0  0  0  0  0
   21.9439  -10.4838  -15.4496 C   0  0  2  0  0  0  0  0  0  0  0  0
   21.2246  -11.2060  -16.5410 N   0  0  0  0  0  0  0  0  0  0  0  0
   21.8190   -9.0527  -15.6502 C   0  0  0  0  0  0  0  0  0  0  0  0
   22.1407   -8.5313  -16.7924 O   0  0  0  0  0  0  0  0  0  0  0  0
   21.3601   -8.0728  -14.7295 N   0  0  0  0  0  0  0  0  0  0  0  0
   21.3093   -6.6480  -15.0751 C   0  0  1  0  0  0  0  0  0  0  0  0
   19.8494   -6.2261  -15.1392 C   0  0  0  0  0  0  0  0  0  0  0  0
   19.6372   -4.7841  -15.4209 C   0  0  0  0  0  0  0  0  0  0  0  0
   18.1582   -4.5147  -15.4153 C   0  0  0  0  0  0  0  0  0  0  0  0
   17.7444   -3.3381  -15.5480 O   0  0  0  0  0  0  0  0  0  0  0  0
   22.1140   -5.8113  -14.1770 C   0  0  0  0  0  0  0  0  0  0  0  0
   22.6386   -4.5723  -14.5606 O   0  0  0  0  0  0  0  0  0  0  0  0
   17.2266   -5.5261  -15.2678 O   0  0  0  0  0  0  0  0  0  0  0  0
   22.3817   -6.1604  -13.0054 O   0  0  0  0  0  0  0  0  0  0  0  0
  2  1  1  6
  3  2  1  0
  4  2  1  0
  4  6  1  0
  4  5  1  1
  6 13  1  0
  6  7  2  0
  9  8  1  0
 10  9  1  0
 10 11  1  1
 12 10  1  0
 12 13  1  6
 14 16  1  0
 14 12  1  0
 15 14  2  0
 17 22  1  0
 17 16  1  0
 17 18  1  1
 18 19  1  0
 19 20  1  0
 20 21  2  0
 22 23  1  0
 24 20  1  0
 25 22  2  0
M  END
$$$$
