TIE.pdb
     RDKit          3D

 25 24  0  0  1  0  0  0  0  0999 V2000
   16.1857  -10.4735  -13.1800 C   0  0  0  0  0  0  0  0  0  0  0  0
   15.0115  -11.3635  -12.9422 C   0  0  1  0  0  0  0  0  0  0  0  0
   15.2556  -12.6882  -13.3186 O   0  0  0  0  0  0  0  0  0  0  0  0
   14.6097  -11.4063  -11.4625 C   0  0  2  0  0  0  0  0  0  0  0  0
   13.4260  -12.2608  -11.4081 N   0  0  0  0  0  0  0  0  0  0  0  0
   14.2532  -10.0067  -11.1071 C   0  0  0  0  0  0  0  0  0  0  0  0
   13.2619   -9.4927  -11.6789 O   0  0  0  0  0  0  0  0  0  0  0  0
   12.6593   -8.2888   -6.5531 C   0  0  0  0  0  0  0  0  0  0  0  0
   12.9627   -8.2965   -8.0039 C   0  0  0  0  0  0  0  0  0  0  0  0
   14.2636   -7.7638   -8.4434 C   0  0  2  0  0  0  0  0  0  0  0  0
   14.6682   -6.4845   -7.7300 C   0  0  0  0  0  0  0  0  0  0  0  0
   14.6230   -7.8086   -9.8886 C   0  0  2  0  0  0  0  0  0  0  0  0
   14.9608   -9.2352  -10.1731 N   0  0  0  0  0  0  0  0  0  0  0  0
   15.6793   -6.9504  -10.3901 C   0  0  0  0  0  0  0  0  0  0  0  0
   16.8794   -7.4196  -10.5299 O   0  0  0  0  0  0  0  0  0  0  0  0
   15.5921   -5.5885  -10.7853 N   0  0  0  0  0  0  0  0  0  0  0  0
   16.5792   -4.9769  -11.6817 C   0  0  1  0  0  0  0  0  0  0  0  0
   16.6774   -5.8326  -12.9354 C   0  0  0  0  0  0  0  0  0  0  0  0
   17.5750   -5.2870  -13.9843 C   0  0  0  0  0  0  0  0  0  0  0  0
   18.8326   -6.1105  -14.0045 C   0  0  0  0  0  0  0  0  0  0  0  0
   19.0302   -6.9581  -13.1013 O   0  0  0  0  0  0  0  0  0  0  0  0
   16.2977   -3.5648  -11.9663 C   0  0  0  0  0  0  0  0  0  0  0  0
   17.3048   -2.6053  -12.1165 O   0  0  0  0  0  0  0  0  0  0  0  0
   19.7901   -5.9674  -14.9920 O   0  0  0  0  0  0  0  0  0  0  0  0
   15.1302   -3.1318  -12.0911 O   0  0  0  0  0  0  0  0  0  0  0  0
  2  1  1  1
  3  2  1  0
  4  2  1  0
  4  6  1  0
  4  5  1  6
  6 13  1  0
  6  7  2  0
  9  8  1  0
 10  9  1  0
 10 11  1  6
 12 10  1  0
 12 13  1  1
 14 16  1  0
 14 12  1  0
 15 14  2  0
 17 22  1  0
 17 16  1  0
 17 18  1  6
 18 19  1  0
 19 20  1  0
 20 21  2  0
 22 23  1  0
 24 20  1  0
 25 22  2  0
M  END
$$$$
