TIE.pdb
     RDKit          3D

 25 24  0  0  1  0  0  0  0  0999 V2000
   19.8481   -9.8436  -18.8862 C   0  0  0  0  0  0  0  0  0  0  0  0
   19.3022  -11.1521  -18.4203 C   0  0  1  0  0  0  0  0  0  0  0  0
   18.5475  -11.8007  -19.4031 O   0  0  0  0  0  0  0  0  0  0  0  0
   20.4127  -12.1310  -18.0185 C   0  0  2  0  0  0  0  0  0  0  0  0
   19.7206  -13.3253  -17.5401 N   0  0  0  0  0  0  0  0  0  0  0  0
   21.1379  -11.4714  -16.8998 C   0  0  0  0  0  0  0  0  0  0  0  0
   20.5508  -11.3815  -15.7948 O   0  0  0  0  0  0  0  0  0  0  0  0
   26.8507  -10.8043  -14.9008 C   0  0  0  0  0  0  0  0  0  0  0  0
   25.4771  -10.2477  -14.8948 C   0  0  0  0  0  0  0  0  0  0  0  0
   24.5024  -10.7955  -15.8536 C   0  0  2  0  0  0  0  0  0  0  0  0
   25.0970  -11.0943  -17.2199 C   0  0  0  0  0  0  0  0  0  0  0  0
   23.1183  -10.2453  -15.8861 C   0  0  2  0  0  0  0  0  0  0  0  0
   22.4346  -10.9477  -17.0127 N   0  0  0  0  0  0  0  0  0  0  0  0
   22.9201   -8.8142  -16.0148 C   0  0  0  0  0  0  0  0  0  0  0  0
   23.2790   -8.2089  -17.1033 O   0  0  0  0  0  0  0  0  0  0  0  0
   22.3477   -7.9179  -15.0727 N   0  0  0  0  0  0  0  0  0  0  0  0
   22.2232   -6.4819  -15.3457 C   0  0  1  0  0  0  0  0  0  0  0  0
   20.8868   -6.2425  -16.0314 C   0  0  0  0  0  0  0  0  0  0  0  0
   20.6080   -4.8214  -16.3575 C   0  0  0  0  0  0  0  0  0  0  0  0
   19.2397   -4.7383  -16.9746 C   0  0  0  0  0  0  0  0  0  0  0  0
   18.5763   -5.7884  -17.1492 O   0  0  0  0  0  0  0  0  0  0  0  0
   22.4164   -5.6523  -14.1505 C   0  0  0  0  0  0  0  0  0  0  0  0
   22.4291   -6.1794  -12.8545 O   0  0  0  0  0  0  0  0  0  0  0  0
   18.6786   -3.5349  -17.3611 O   0  0  0  0  0  0  0  0  0  0  0  0
   22.5814   -4.4137  -14.2205 O   0  0  0  0  0  0  0  0  0  0  0  0
  2  1  1  6
  3  2  1  0
  4  2  1  0
  4  6  1  0
  4  5  1  1
  6 13  1  0
  6  7  2  0
  9  8  1  0
 10  9  1  0
 10 11  1  6
 12 10  1  0
 12 13  1  6
 14 16  1  0
 14 12  1  0
 15 14  2  0
 17 22  1  0
 17 16  1  0
 17 18  1  1
 18 19  1  0
 19 20  1  0
 20 21  2  0
 22 23  1  0
 24 20  1  0
 25 22  2  0
M  END
$$$$
