TIE.pdb
     RDKit          3D

 25 24  0  0  1  0  0  0  0  0999 V2000
   25.9320  -10.9499  -15.3076 C   0  0  0  0  0  0  0  0  0  0  0  0
   25.9463  -12.0721  -16.2916 C   0  0  1  0  0  0  0  0  0  0  0  0
   26.9717  -12.9906  -16.0449 O   0  0  0  0  0  0  0  0  0  0  0  0
   24.6392  -12.8745  -16.2713 C   0  0  2  0  0  0  0  0  0  0  0  0
   24.8066  -13.9114  -17.2867 N   0  0  0  0  0  0  0  0  0  0  0  0
   23.5784  -11.9161  -16.6817 C   0  0  0  0  0  0  0  0  0  0  0  0
   23.4931  -11.6244  -17.8989 O   0  0  0  0  0  0  0  0  0  0  0  0
   18.6413  -12.8018  -16.5049 C   0  0  0  0  0  0  0  0  0  0  0  0
   19.9163  -12.1181  -16.8268 C   0  0  0  0  0  0  0  0  0  0  0  0
   20.3303  -10.9871  -15.9790 C   0  0  2  0  0  0  0  0  0  0  0  0
   19.1978  -10.0289  -15.6495 C   0  0  0  0  0  0  0  0  0  0  0  0
   21.6462  -10.3322  -16.2227 C   0  0  2  0  0  0  0  0  0  0  0  0
   22.6739  -11.3244  -15.7873 N   0  0  0  0  0  0  0  0  0  0  0  0
   21.9275   -9.0446  -15.6171 C   0  0  0  0  0  0  0  0  0  0  0  0
   22.0762   -8.9548  -14.3327 O   0  0  0  0  0  0  0  0  0  0  0  0
   22.0838   -7.7868  -16.2591 N   0  0  0  0  0  0  0  0  0  0  0  0
   22.3746   -6.5625  -15.5049 C   0  0  1  0  0  0  0  0  0  0  0  0
   22.6288   -5.4404  -16.4996 C   0  0  0  0  0  0  0  0  0  0  0  0
   22.9581   -4.1319  -15.8807 C   0  0  0  0  0  0  0  0  0  0  0  0
   23.1717   -3.1298  -16.9807 C   0  0  0  0  0  0  0  0  0  0  0  0
   22.2811   -2.2807  -17.2239 O   0  0  0  0  0  0  0  0  0  0  0  0
   21.3373   -6.2369  -14.5188 C   0  0  0  0  0  0  0  0  0  0  0  0
   21.6315   -5.7578  -13.2376 O   0  0  0  0  0  0  0  0  0  0  0  0
   24.3253   -3.1084  -17.7430 O   0  0  0  0  0  0  0  0  0  0  0  0
   20.1182   -6.3710  -14.7675 O   0  0  0  0  0  0  0  0  0  0  0  0
  2  1  1  1
  3  2  1  0
  4  2  1  0
  4  6  1  0
  4  5  1  6
  6 13  1  0
  6  7  2  0
  9  8  1  0
 10  9  1  0
 10 11  1  6
 12 10  1  0
 12 13  1  1
 14 16  1  0
 14 12  1  0
 15 14  2  0
 17 22  1  0
 17 16  1  0
 17 18  1  6
 18 19  1  0
 19 20  1  0
 20 21  2  0
 22 23  1  0
 24 20  1  0
 25 22  2  0
M  END
$$$$
