TIE.pdb
     RDKit          3D

 25 24  0  0  1  0  0  0  0  0999 V2000
   19.8635  -15.0669  -17.5739 C   0  0  0  0  0  0  0  0  0  0  0  0
   18.9232  -13.9080  -17.5579 C   0  0  1  0  0  0  0  0  0  0  0  0
   17.5841  -14.3004  -17.6522 O   0  0  0  0  0  0  0  0  0  0  0  0
   19.0388  -13.0885  -16.2664 C   0  0  2  0  0  0  0  0  0  0  0  0
   18.4763  -13.9371  -15.2187 N   0  0  0  0  0  0  0  0  0  0  0  0
   18.1814  -11.8916  -16.4775 C   0  0  0  0  0  0  0  0  0  0  0  0
   18.4547  -11.1396  -17.4437 O   0  0  0  0  0  0  0  0  0  0  0  0
   13.0748  -12.3926  -15.7839 C   0  0  0  0  0  0  0  0  0  0  0  0
   14.1774  -11.6018  -16.3804 C   0  0  0  0  0  0  0  0  0  0  0  0
   14.8994  -10.6547  -15.5138 C   0  0  2  0  0  0  0  0  0  0  0  0
   14.0443   -9.4905  -15.0418 C   0  0  0  0  0  0  0  0  0  0  0  0
   16.3104  -10.2987  -15.8336 C   0  0  2  0  0  0  0  0  0  0  0  0
   17.0907  -11.5600  -15.6598 N   0  0  0  0  0  0  0  0  0  0  0  0
   16.9588   -9.2230  -15.1081 C   0  0  0  0  0  0  0  0  0  0  0  0
   17.4524   -9.4453  -13.9305 O   0  0  0  0  0  0  0  0  0  0  0  0
   17.1561   -7.8780  -15.5215 N   0  0  0  0  0  0  0  0  0  0  0  0
   17.8310   -6.8955  -14.6663 C   0  0  1  0  0  0  0  0  0  0  0  0
   19.3317   -7.0443  -14.8643 C   0  0  0  0  0  0  0  0  0  0  0  0
   20.1556   -6.1261  -14.0386 C   0  0  0  0  0  0  0  0  0  0  0  0
   21.6045   -6.3984  -14.3328 C   0  0  0  0  0  0  0  0  0  0  0  0
   22.2740   -5.5528  -14.9731 O   0  0  0  0  0  0  0  0  0  0  0  0
   17.3528   -5.5246  -14.8808 C   0  0  0  0  0  0  0  0  0  0  0  0
   17.5921   -4.4864  -13.9739 O   0  0  0  0  0  0  0  0  0  0  0  0
   22.2339   -7.5584  -13.9198 O   0  0  0  0  0  0  0  0  0  0  0  0
   16.6959   -5.2008  -15.8957 O   0  0  0  0  0  0  0  0  0  0  0  0
  2  1  1  1
  3  2  1  0
  4  2  1  0
  4  6  1  0
  4  5  1  1
  6 13  1  0
  6  7  2  0
  9  8  1  0
 10  9  1  0
 10 11  1  6
 12 10  1  0
 12 13  1  1
 14 16  1  0
 14 12  1  0
 15 14  2  0
 17 22  1  0
 17 16  1  0
 17 18  1  6
 18 19  1  0
 19 20  1  0
 20 21  2  0
 22 23  1  0
 24 20  1  0
 25 22  2  0
M  END
$$$$
