TIE.pdb
     RDKit          3D

 25 24  0  0  1  0  0  0  0  0999 V2000
   24.1927  -10.7901  -14.9457 C   0  0  0  0  0  0  0  0  0  0  0  0
   24.2287  -11.8512  -15.9946 C   0  0  1  0  0  0  0  0  0  0  0  0
   25.2969  -12.7382  -15.8259 O   0  0  0  0  0  0  0  0  0  0  0  0
   22.9567  -12.7084  -15.9927 C   0  0  2  0  0  0  0  0  0  0  0  0
   23.1732  -13.7234  -17.0209 N   0  0  0  0  0  0  0  0  0  0  0  0
   21.8585  -11.7902  -16.3967 C   0  0  0  0  0  0  0  0  0  0  0  0
   21.8385  -11.3900  -17.5855 O   0  0  0  0  0  0  0  0  0  0  0  0
   17.7159  -13.5142  -15.5769 C   0  0  0  0  0  0  0  0  0  0  0  0
   18.0752  -12.3007  -16.3483 C   0  0  0  0  0  0  0  0  0  0  0  0
   18.4892  -11.1009  -15.6010 C   0  0  2  0  0  0  0  0  0  0  0  0
   17.3397  -10.1617  -15.2756 C   0  0  0  0  0  0  0  0  0  0  0  0
   19.7652  -10.4196  -15.9580 C   0  0  2  0  0  0  0  0  0  0  0  0
   20.8503  -11.3502  -15.5259 N   0  0  0  0  0  0  0  0  0  0  0  0
   20.0337   -9.0895  -15.4455 C   0  0  0  0  0  0  0  0  0  0  0  0
   20.8051   -8.9393  -14.4148 O   0  0  0  0  0  0  0  0  0  0  0  0
   19.5567   -7.8451  -15.9377 N   0  0  0  0  0  0  0  0  0  0  0  0
   20.0538   -6.5653  -15.4209 C   0  0  1  0  0  0  0  0  0  0  0  0
   21.5604   -6.5229  -15.6256 C   0  0  0  0  0  0  0  0  0  0  0  0
   22.2048   -5.2569  -15.1949 C   0  0  0  0  0  0  0  0  0  0  0  0
   22.1685   -5.1958  -13.6932 C   0  0  0  0  0  0  0  0  0  0  0  0
   22.3869   -6.2361  -13.0275 O   0  0  0  0  0  0  0  0  0  0  0  0
   19.3596   -5.4067  -15.9953 C   0  0  0  0  0  0  0  0  0  0  0  0
   19.0137   -4.2791  -15.2426 O   0  0  0  0  0  0  0  0  0  0  0  0
   21.9005   -4.0233  -13.0108 O   0  0  0  0  0  0  0  0  0  0  0  0
   19.0322   -5.3591  -17.2022 O   0  0  0  0  0  0  0  0  0  0  0  0
  2  1  1  1
  3  2  1  0
  4  2  1  0
  4  6  1  0
  4  5  1  6
  6 13  1  0
  6  7  2  0
  9  8  1  0
 10  9  1  0
 10 11  1  6
 12 10  1  0
 12 13  1  1
 14 16  1  0
 14 12  1  0
 15 14  2  0
 17 22  1  0
 17 16  1  0
 17 18  1  6
 18 19  1  0
 19 20  1  0
 20 21  2  0
 22 23  1  0
 24 20  1  0
 25 22  2  0
M  END
$$$$
