QGC.pdb
     RDKit          3D

 20 19  0  0  1  0  0  0  0  0999 V2000
   12.9114  -12.2848  -16.5613 N   0  0  0  0  0  0  0  0  0  0  0  0
   13.4322  -12.9888  -15.4481 C   0  0  0  0  0  0  0  0  0  0  0  0
   12.6940  -13.7871  -14.8361 O   0  0  0  0  0  0  0  0  0  0  0  0
   14.8201  -12.7771  -15.0263 C   0  0  0  0  0  0  0  0  0  0  0  0
   15.5767  -11.7669  -15.8162 C   0  0  0  0  0  0  0  0  0  0  0  0
   17.0004  -11.5934  -15.4090 C   0  0  2  0  0  0  0  0  0  0  0  0
   17.0485  -11.7253  -13.9436 N   0  0  0  0  0  0  0  0  0  0  0  0
   17.5186  -10.2558  -15.7636 C   0  0  0  0  0  0  0  0  0  0  0  0
   17.7364   -9.8893  -16.9467 O   0  0  0  0  0  0  0  0  0  0  0  0
   17.8028   -9.2948  -14.7579 N   0  0  0  0  0  0  0  0  0  0  0  0
   18.1713   -7.9276  -15.0667 C   0  0  0  0  0  0  0  0  0  0  0  0
   19.3945   -7.5455  -14.3349 C   0  0  0  0  0  0  0  0  0  0  0  0
   19.5436   -7.9587  -13.1561 O   0  0  0  0  0  0  0  0  0  0  0  0
   20.4211   -6.7418  -14.8655 N   0  0  0  0  0  0  0  0  0  0  0  0
   21.6387   -6.4179  -14.1512 C   0  0  1  0  0  0  0  0  0  0  0  0
   22.8641   -6.5911  -15.0241 C   0  0  0  0  0  0  0  0  0  0  0  0
   22.9539   -8.3642  -15.4515 S   0  0  0  0  0  0  0  0  0  0  0  0
   21.6108   -5.0090  -13.7178 C   0  0  0  0  0  0  0  0  0  0  0  0
   20.8972   -4.1920  -14.3287 O   0  0  0  0  0  0  0  0  0  0  0  0
   22.3665   -4.6021  -12.6485 O   0  0  0  0  0  0  0  0  0  0  0  0
  2  3  2  0
  2  1  1  0
  4  2  1  0
  5  4  1  0
  6  5  1  0
  6  7  1  1
  8  6  1  0
  8 10  1  0
  9  8  2  0
 11 10  1  0
 12 11  1  0
 13 12  2  0
 14 12  1  0
 15 14  1  0
 15 16  1  6
 16 17  1  0
 18 15  1  0
 19 18  2  0
 20 18  1  0
M  END
$$$$
