QGC.pdb
     RDKit          3D

 20 19  0  0  1  0  0  0  0  0999 V2000
   20.5941  -14.4514  -19.1365 N   0  0  0  0  0  0  0  0  0  0  0  0
   19.4109  -14.0514  -19.8044 C   0  0  0  0  0  0  0  0  0  0  0  0
   18.6874  -14.9216  -20.3298 O   0  0  0  0  0  0  0  0  0  0  0  0
   19.0479  -12.6328  -19.8738 C   0  0  0  0  0  0  0  0  0  0  0  0
   20.0044  -11.6999  -19.2168 C   0  0  0  0  0  0  0  0  0  0  0  0
   19.4249  -10.8889  -18.1079 C   0  0  2  0  0  0  0  0  0  0  0  0
   18.1056  -10.4192  -18.5615 N   0  0  0  0  0  0  0  0  0  0  0  0
   20.2502   -9.7027  -17.7998 C   0  0  0  0  0  0  0  0  0  0  0  0
   21.3812   -9.7691  -17.2540 O   0  0  0  0  0  0  0  0  0  0  0  0
   19.7927   -8.3959  -18.1141 N   0  0  0  0  0  0  0  0  0  0  0  0
   20.6181   -7.2172  -17.9404 C   0  0  0  0  0  0  0  0  0  0  0  0
   20.4340   -6.6535  -16.5891 C   0  0  0  0  0  0  0  0  0  0  0  0
   19.2639   -6.4294  -16.1855 O   0  0  0  0  0  0  0  0  0  0  0  0
   21.4855   -6.3437  -15.7060 N   0  0  0  0  0  0  0  0  0  0  0  0
   21.2905   -5.7350  -14.4063 C   0  0  1  0  0  0  0  0  0  0  0  0
   22.2402   -6.3034  -13.3725 C   0  0  0  0  0  0  0  0  0  0  0  0
   21.8474   -8.0807  -13.2245 S   0  0  0  0  0  0  0  0  0  0  0  0
   21.5501   -4.2857  -14.4830 C   0  0  0  0  0  0  0  0  0  0  0  0
   21.3023   -3.5640  -13.4993 O   0  0  0  0  0  0  0  0  0  0  0  0
   22.0612   -3.7373  -15.6310 O   0  0  0  0  0  0  0  0  0  0  0  0
  2  3  2  0
  2  1  1  0
  4  2  1  0
  5  4  1  0
  6  5  1  0
  6  7  1  6
  8  6  1  0
  8 10  1  0
  9  8  2  0
 11 10  1  0
 12 11  1  0
 13 12  2  0
 14 12  1  0
 15 14  1  0
 15 16  1  1
 16 17  1  0
 18 15  1  0
 19 18  2  0
 20 18  1  0
M  END
$$$$
