QGC.pdb
     RDKit          3D

 20 19  0  0  1  0  0  0  0  0999 V2000
   23.1385  -13.6418  -21.2689 N   0  0  0  0  0  0  0  0  0  0  0  0
   22.8242  -12.8220  -22.3804 C   0  0  0  0  0  0  0  0  0  0  0  0
   22.9865  -13.2736  -23.5321 O   0  0  0  0  0  0  0  0  0  0  0  0
   22.3161  -11.4627  -22.1728 C   0  0  0  0  0  0  0  0  0  0  0  0
   22.0706  -11.0866  -20.7533 C   0  0  0  0  0  0  0  0  0  0  0  0
   20.6403  -10.8434  -20.4094 C   0  0  2  0  0  0  0  0  0  0  0  0
   20.3494   -9.4396  -20.7439 N   0  0  0  0  0  0  0  0  0  0  0  0
   20.3777  -11.0324  -18.9677 C   0  0  0  0  0  0  0  0  0  0  0  0
   20.2017  -12.1594  -18.4381 O   0  0  0  0  0  0  0  0  0  0  0  0
   20.3096   -9.9201  -18.0880 N   0  0  0  0  0  0  0  0  0  0  0  0
   20.1165  -10.0659  -16.6590 C   0  0  0  0  0  0  0  0  0  0  0  0
   20.2266   -8.7563  -15.9876 C   0  0  0  0  0  0  0  0  0  0  0  0
   19.1994   -8.2682  -15.4499 O   0  0  0  0  0  0  0  0  0  0  0  0
   21.4123   -8.0024  -15.9032 N   0  0  0  0  0  0  0  0  0  0  0  0
   21.5167   -6.7460  -15.1902 C   0  0  1  0  0  0  0  0  0  0  0  0
   22.9176   -6.5149  -14.6632 C   0  0  0  0  0  0  0  0  0  0  0  0
   22.8836   -4.9215  -13.7719 S   0  0  0  0  0  0  0  0  0  0  0  0
   21.2031   -5.6244  -16.0942 C   0  0  0  0  0  0  0  0  0  0  0  0
   21.6097   -5.6509  -17.2705 O   0  0  0  0  0  0  0  0  0  0  0  0
   20.4680   -4.5593  -15.6411 O   0  0  0  0  0  0  0  0  0  0  0  0
  2  3  2  0
  2  1  1  0
  4  2  1  0
  5  4  1  0
  6  5  1  0
  6  7  1  1
  8  6  1  0
  8 10  1  0
  9  8  2  0
 11 10  1  0
 12 11  1  0
 13 12  2  0
 14 12  1  0
 15 14  1  0
 15 16  1  6
 16 17  1  0
 18 15  1  0
 19 18  2  0
 20 18  1  0
M  END
$$$$
