QGC.pdb
     RDKit          3D

 20 19  0  0  1  0  0  0  0  0999 V2000
   15.1045  -16.7853  -15.9572 N   0  0  0  0  0  0  0  0  0  0  0  0
   16.2994  -16.7829  -16.7178 C   0  0  0  0  0  0  0  0  0  0  0  0
   16.6980  -17.8512  -17.2242 O   0  0  0  0  0  0  0  0  0  0  0  0
   17.0522  -15.5387  -16.9028 C   0  0  0  0  0  0  0  0  0  0  0  0
   16.4061  -14.3172  -16.3484 C   0  0  0  0  0  0  0  0  0  0  0  0
   17.3534  -13.2477  -15.9221 C   0  0  2  0  0  0  0  0  0  0  0  0
   17.8659  -13.6296  -14.5960 N   0  0  0  0  0  0  0  0  0  0  0  0
   16.6854  -11.9361  -15.7923 C   0  0  0  0  0  0  0  0  0  0  0  0
   15.8570  -11.6680  -14.8848 O   0  0  0  0  0  0  0  0  0  0  0  0
   16.9546  -10.8878  -16.7112 N   0  0  0  0  0  0  0  0  0  0  0  0
   16.3022   -9.5958  -16.6342 C   0  0  0  0  0  0  0  0  0  0  0  0
   17.3045   -8.5131  -16.6066 C   0  0  0  0  0  0  0  0  0  0  0  0
   18.4954   -8.8033  -16.3240 O   0  0  0  0  0  0  0  0  0  0  0  0
   17.0228   -7.1606  -16.8769 N   0  0  0  0  0  0  0  0  0  0  0  0
   18.0290   -6.1191  -16.8999 C   0  0  1  0  0  0  0  0  0  0  0  0
   17.6165   -4.9600  -17.7829 C   0  0  0  0  0  0  0  0  0  0  0  0
   17.2916   -5.6559  -19.4396 S   0  0  0  0  0  0  0  0  0  0  0  0
   18.2293   -5.5801  -15.5423 C   0  0  0  0  0  0  0  0  0  0  0  0
   17.3316   -5.7121  -14.6899 O   0  0  0  0  0  0  0  0  0  0  0  0
   19.3974   -4.9375  -15.2217 O   0  0  0  0  0  0  0  0  0  0  0  0
  2  3  2  0
  2  1  1  0
  4  2  1  0
  5  4  1  0
  6  5  1  0
  6  7  1  1
  8  6  1  0
  8 10  1  0
  9  8  2  0
 11 10  1  0
 12 11  1  0
 13 12  2  0
 14 12  1  0
 15 14  1  0
 15 16  1  6
 16 17  1  0
 18 15  1  0
 19 18  2  0
 20 18  1  0
M  END
$$$$
