QGC.pdb
     RDKit          3D

 20 19  0  0  1  0  0  0  0  0999 V2000
   26.5932  -20.7828  -19.6586 N   0  0  0  0  0  0  0  0  0  0  0  0
   27.9565  -20.9878  -19.9831 C   0  0  0  0  0  0  0  0  0  0  0  0
   28.4254  -20.4440  -21.0035 O   0  0  0  0  0  0  0  0  0  0  0  0
   28.7989  -21.8290  -19.1276 C   0  0  0  0  0  0  0  0  0  0  0  0
   28.9949  -21.3274  -17.7395 C   0  0  0  0  0  0  0  0  0  0  0  0
   27.7676  -21.3347  -16.8930 C   0  0  2  0  0  0  0  0  0  0  0  0
   27.0528  -20.0758  -17.1596 N   0  0  0  0  0  0  0  0  0  0  0  0
   28.0895  -21.3798  -15.4516 C   0  0  0  0  0  0  0  0  0  0  0  0
   28.7421  -22.3124  -14.9170 O   0  0  0  0  0  0  0  0  0  0  0  0
   27.6657  -20.3438  -14.5781 N   0  0  0  0  0  0  0  0  0  0  0  0
   27.8711  -20.3990  -13.1445 C   0  0  0  0  0  0  0  0  0  0  0  0
   26.7205  -21.0446  -12.4833 C   0  0  0  0  0  0  0  0  0  0  0  0
   26.7343  -22.2940  -12.3375 O   0  0  0  0  0  0  0  0  0  0  0  0
   25.5929  -20.3564  -11.9971 N   0  0  0  0  0  0  0  0  0  0  0  0
   24.4615  -21.0087  -11.3708 C   0  0  1  0  0  0  0  0  0  0  0  0
   24.2373  -20.5095   -9.9587 C   0  0  0  0  0  0  0  0  0  0  0  0
   25.8015  -20.7785   -9.0556 S   0  0  0  0  0  0  0  0  0  0  0  0
   23.2306  -20.7258  -12.1312 C   0  0  0  0  0  0  0  0  0  0  0  0
   23.2723  -19.9450  -13.1000 O   0  0  0  0  0  0  0  0  0  0  0  0
   22.0477  -21.3195  -11.7729 O   0  0  0  0  0  0  0  0  0  0  0  0
  2  3  2  0
  2  1  1  0
  4  2  1  0
  5  4  1  0
  6  5  1  0
  6  7  1  1
  8  6  1  0
  8 10  1  0
  9  8  2  0
 11 10  1  0
 12 11  1  0
 13 12  2  0
 14 12  1  0
 15 14  1  0
 15 16  1  1
 16 17  1  0
 18 15  1  0
 19 18  2  0
 20 18  1  0
M  END
$$$$
