QGC.pdb
     RDKit          3D

 20 19  0  0  1  0  0  0  0  0999 V2000
   26.5357  -26.8789  -16.4647 N   0  0  0  0  0  0  0  0  0  0  0  0
   25.7315  -25.9197  -17.1277 C   0  0  0  0  0  0  0  0  0  0  0  0
   24.4896  -26.0155  -17.0554 O   0  0  0  0  0  0  0  0  0  0  0  0
   26.3567  -24.8325  -17.8867 C   0  0  0  0  0  0  0  0  0  0  0  0
   27.8445  -24.7991  -17.8397 C   0  0  0  0  0  0  0  0  0  0  0  0
   28.4179  -24.2522  -16.5766 C   0  0  2  0  0  0  0  0  0  0  0  0
   28.9131  -22.8993  -16.8787 N   0  0  0  0  0  0  0  0  0  0  0  0
   29.5580  -25.0575  -16.0921 C   0  0  0  0  0  0  0  0  0  0  0  0
   29.4367  -26.2197  -15.6273 O   0  0  0  0  0  0  0  0  0  0  0  0
   30.8808  -24.5430  -16.1292 N   0  0  0  0  0  0  0  0  0  0  0  0
   32.0020  -25.2277  -15.5172 C   0  0  0  0  0  0  0  0  0  0  0  0
   32.5664  -26.2256  -16.4465 C   0  0  0  0  0  0  0  0  0  0  0  0
   32.9261  -25.8457  -17.5905 O   0  0  0  0  0  0  0  0  0  0  0  0
   32.7343  -27.5899  -16.1434 N   0  0  0  0  0  0  0  0  0  0  0  0
   33.3756  -28.5374  -17.0315 C   0  0  1  0  0  0  0  0  0  0  0  0
   33.7887  -29.7988  -16.3022 C   0  0  0  0  0  0  0  0  0  0  0  0
   34.9422  -30.6855  -17.4057 S   0  0  0  0  0  0  0  0  0  0  0  0
   32.4425  -28.9400  -18.0997 C   0  0  0  0  0  0  0  0  0  0  0  0
   31.2523  -29.1747  -17.8200 O   0  0  0  0  0  0  0  0  0  0  0  0
   32.8840  -29.0550  -19.3927 O   0  0  0  0  0  0  0  0  0  0  0  0
  2  3  2  0
  2  1  1  0
  4  2  1  0
  5  4  1  0
  6  5  1  0
  6  7  1  6
  8  6  1  0
  8 10  1  0
  9  8  2  0
 11 10  1  0
 12 11  1  0
 13 12  2  0
 14 12  1  0
 15 14  1  0
 15 16  1  1
 16 17  1  0
 18 15  1  0
 19 18  2  0
 20 18  1  0
M  END
$$$$
