QGC.pdb
     RDKit          3D

 20 19  0  0  1  0  0  0  0  0999 V2000
   15.2561  -13.9713  -16.3500 N   0  0  0  0  0  0  0  0  0  0  0  0
   16.2083  -14.5989  -15.5101 C   0  0  0  0  0  0  0  0  0  0  0  0
   15.9728  -15.7452  -15.0771 O   0  0  0  0  0  0  0  0  0  0  0  0
   17.4508  -13.9052  -15.1582 C   0  0  0  0  0  0  0  0  0  0  0  0
   17.5843  -12.5262  -15.7034 C   0  0  0  0  0  0  0  0  0  0  0  0
   18.9165  -12.2145  -16.2960 C   0  0  2  0  0  0  0  0  0  0  0  0
   19.9191  -12.4313  -15.2401 N   0  0  0  0  0  0  0  0  0  0  0  0
   19.0122  -10.8064  -16.7334 C   0  0  0  0  0  0  0  0  0  0  0  0
   18.3790  -10.3423  -17.7158 O   0  0  0  0  0  0  0  0  0  0  0  0
   19.8463   -9.8856  -16.0464 N   0  0  0  0  0  0  0  0  0  0  0  0
   19.8292   -8.4624  -16.3203 C   0  0  0  0  0  0  0  0  0  0  0  0
   20.8266   -7.7649  -15.4857 C   0  0  0  0  0  0  0  0  0  0  0  0
   21.1727   -8.2908  -14.3967 O   0  0  0  0  0  0  0  0  0  0  0  0
   21.4277   -6.5374  -15.8228 N   0  0  0  0  0  0  0  0  0  0  0  0
   22.4737   -5.9129  -15.0394 C   0  0  1  0  0  0  0  0  0  0  0  0
   23.0815   -4.7272  -15.7592 C   0  0  0  0  0  0  0  0  0  0  0  0
   23.5610   -5.3148  -17.4203 S   0  0  0  0  0  0  0  0  0  0  0  0
   21.9216   -5.4116  -13.7676 C   0  0  0  0  0  0  0  0  0  0  0  0
   20.7063   -5.1551  -13.6838 O   0  0  0  0  0  0  0  0  0  0  0  0
   22.7425   -5.2295  -12.6845 O   0  0  0  0  0  0  0  0  0  0  0  0
  2  3  2  0
  2  1  1  0
  4  2  1  0
  5  4  1  0
  6  5  1  0
  6  7  1  1
  8  6  1  0
  8 10  1  0
  9  8  2  0
 11 10  1  0
 12 11  1  0
 13 12  2  0
 14 12  1  0
 15 14  1  0
 15 16  1  6
 16 17  1  0
 18 15  1  0
 19 18  2  0
 20 18  1  0
M  END
$$$$
