QGC.pdb
     RDKit          3D

 20 19  0  0  1  0  0  0  0  0999 V2000
   24.6376  -21.6366  -10.4744 N   0  0  0  0  0  0  0  0  0  0  0  0
   25.5327  -20.7674   -9.8041 C   0  0  0  0  0  0  0  0  0  0  0  0
   25.1339  -20.1425   -8.8005 O   0  0  0  0  0  0  0  0  0  0  0  0
   26.9071  -20.6089  -10.2887 C   0  0  0  0  0  0  0  0  0  0  0  0
   27.2142  -21.3077  -11.5670 C   0  0  0  0  0  0  0  0  0  0  0  0
   26.3135  -20.9582  -12.7026 C   0  0  2  0  0  0  0  0  0  0  0  0
   26.1556  -22.1741  -13.5173 N   0  0  0  0  0  0  0  0  0  0  0  0
   26.8907  -19.9047  -13.5630 C   0  0  0  0  0  0  0  0  0  0  0  0
   27.9002  -20.0821  -14.2917 O   0  0  0  0  0  0  0  0  0  0  0  0
   26.3172  -18.6068  -13.6090 N   0  0  0  0  0  0  0  0  0  0  0  0
   26.8790  -17.5329  -14.4039 C   0  0  0  0  0  0  0  0  0  0  0  0
   25.8292  -16.8905  -15.2180 C   0  0  0  0  0  0  0  0  0  0  0  0
   24.6877  -17.4180  -15.2521 O   0  0  0  0  0  0  0  0  0  0  0  0
   26.0130  -15.7147  -15.9699 N   0  0  0  0  0  0  0  0  0  0  0  0
   24.9386  -15.0158  -16.6444 C   0  0  1  0  0  0  0  0  0  0  0  0
   24.9668  -13.5298  -16.3539 C   0  0  0  0  0  0  0  0  0  0  0  0
   24.7973  -13.3484  -14.5447 S   0  0  0  0  0  0  0  0  0  0  0  0
   25.0705  -15.1748  -18.1042 C   0  0  0  0  0  0  0  0  0  0  0  0
   26.2037  -15.2418  -18.6153 O   0  0  0  0  0  0  0  0  0  0  0  0
   23.9514  -15.2483  -18.8930 O   0  0  0  0  0  0  0  0  0  0  0  0
  2  3  2  0
  2  1  1  0
  4  2  1  0
  5  4  1  0
  6  5  1  0
  6  7  1  6
  8  6  1  0
  8 10  1  0
  9  8  2  0
 11 10  1  0
 12 11  1  0
 13 12  2  0
 14 12  1  0
 15 14  1  0
 15 16  1  6
 16 17  1  0
 18 15  1  0
 19 18  2  0
 20 18  1  0
M  END
$$$$
