QGC.pdb
     RDKit          3D

 20 19  0  0  1  0  0  0  0  0999 V2000
   13.0957  -12.6603  -15.6014 N   0  0  0  0  0  0  0  0  0  0  0  0
   14.1033  -13.6551  -15.5648 C   0  0  0  0  0  0  0  0  0  0  0  0
   13.7763  -14.8423  -15.3640 O   0  0  0  0  0  0  0  0  0  0  0  0
   15.5088  -13.2873  -15.7605 C   0  0  0  0  0  0  0  0  0  0  0  0
   15.7679  -11.8294  -15.9161 C   0  0  0  0  0  0  0  0  0  0  0  0
   17.0252  -11.3462  -15.2767 C   0  0  2  0  0  0  0  0  0  0  0  0
   16.9620  -11.7308  -13.8572 N   0  0  0  0  0  0  0  0  0  0  0  0
   17.1515   -9.8757  -15.3455 C   0  0  0  0  0  0  0  0  0  0  0  0
   16.1776   -9.1060  -15.5475 O   0  0  0  0  0  0  0  0  0  0  0  0
   18.4128   -9.2447  -15.1824 N   0  0  0  0  0  0  0  0  0  0  0  0
   18.5683   -7.8038  -15.1644 C   0  0  0  0  0  0  0  0  0  0  0  0
   19.9608   -7.4396  -14.8390 C   0  0  0  0  0  0  0  0  0  0  0  0
   20.7509   -8.3487  -14.4762 O   0  0  0  0  0  0  0  0  0  0  0  0
   20.4777   -6.1319  -14.9054 N   0  0  0  0  0  0  0  0  0  0  0  0
   21.8688   -5.8047  -14.6697 C   0  0  1  0  0  0  0  0  0  0  0  0
   22.4191   -4.8887  -15.7429 C   0  0  0  0  0  0  0  0  0  0  0  0
   22.0672   -5.6915  -17.3449 S   0  0  0  0  0  0  0  0  0  0  0  0
   22.0109   -5.0993  -13.3829 C   0  0  0  0  0  0  0  0  0  0  0  0
   21.1021   -4.3432  -12.9927 O   0  0  0  0  0  0  0  0  0  0  0  0
   23.1375   -5.2757  -12.6215 O   0  0  0  0  0  0  0  0  0  0  0  0
  2  3  2  0
  2  1  1  0
  4  2  1  0
  5  4  1  0
  6  5  1  0
  6  7  1  1
  8  6  1  0
  8 10  1  0
  9  8  2  0
 11 10  1  0
 12 11  1  0
 13 12  2  0
 14 12  1  0
 15 14  1  0
 15 16  1  6
 16 17  1  0
 18 15  1  0
 19 18  2  0
 20 18  1  0
M  END
$$$$
