QGC.pdb
     RDKit          3D

 20 19  0  0  1  0  0  0  0  0999 V2000
   27.3740  -18.8952  -17.6089 N   0  0  0  0  0  0  0  0  0  0  0  0
   28.3928  -19.8771  -17.6718 C   0  0  0  0  0  0  0  0  0  0  0  0
   28.9372  -20.1166  -18.7686 O   0  0  0  0  0  0  0  0  0  0  0  0
   28.7965  -20.5983  -16.4610 C   0  0  0  0  0  0  0  0  0  0  0  0
   28.1219  -20.1619  -15.2075 C   0  0  0  0  0  0  0  0  0  0  0  0
   27.1157  -21.1230  -14.6719 C   0  0  2  0  0  0  0  0  0  0  0  0
   26.7557  -22.0291  -15.7747 N   0  0  0  0  0  0  0  0  0  0  0  0
   25.8846  -20.4417  -14.2211 C   0  0  0  0  0  0  0  0  0  0  0  0
   25.8465  -19.6614  -13.2356 O   0  0  0  0  0  0  0  0  0  0  0  0
   24.6525  -20.6411  -14.8979 N   0  0  0  0  0  0  0  0  0  0  0  0
   23.4305  -19.9654  -14.5098 C   0  0  0  0  0  0  0  0  0  0  0  0
   22.6137  -20.8355  -13.6416 C   0  0  0  0  0  0  0  0  0  0  0  0
   22.2751  -21.9676  -14.0730 O   0  0  0  0  0  0  0  0  0  0  0  0
   22.1795  -20.4877  -12.3486 N   0  0  0  0  0  0  0  0  0  0  0  0
   21.4067  -21.3677  -11.4965 C   0  0  1  0  0  0  0  0  0  0  0  0
   21.7169  -21.1443  -10.0311 C   0  0  0  0  0  0  0  0  0  0  0  0
   21.5697  -19.3484   -9.7345 S   0  0  0  0  0  0  0  0  0  0  0  0
   19.9664  -21.1111  -11.6788 C   0  0  0  0  0  0  0  0  0  0  0  0
   19.5964  -20.0967  -12.2984 O   0  0  0  0  0  0  0  0  0  0  0  0
   19.0411  -21.9850  -11.1687 O   0  0  0  0  0  0  0  0  0  0  0  0
  2  3  2  0
  2  1  1  0
  4  2  1  0
  5  4  1  0
  6  5  1  0
  6  7  1  6
  8  6  1  0
  8 10  1  0
  9  8  2  0
 11 10  1  0
 12 11  1  0
 13 12  2  0
 14 12  1  0
 15 14  1  0
 15 16  1  1
 16 17  1  0
 18 15  1  0
 19 18  2  0
 20 18  1  0
M  END
$$$$
