QGC.pdb
     RDKit          3D

 20 19  0  0  1  0  0  0  0  0999 V2000
   14.7615  -12.5601  -18.5514 N   0  0  0  0  0  0  0  0  0  0  0  0
   14.9841  -12.1888  -17.2028 C   0  0  0  0  0  0  0  0  0  0  0  0
   14.0055  -12.0632  -16.4390 O   0  0  0  0  0  0  0  0  0  0  0  0
   16.3480  -11.9567  -16.7182 C   0  0  0  0  0  0  0  0  0  0  0  0
   17.4056  -11.9743  -17.7660 C   0  0  0  0  0  0  0  0  0  0  0  0
   18.7809  -11.6798  -17.2710 C   0  0  2  0  0  0  0  0  0  0  0  0
   18.7511  -11.8214  -15.8061 N   0  0  0  0  0  0  0  0  0  0  0  0
   19.1990  -10.2984  -17.5872 C   0  0  0  0  0  0  0  0  0  0  0  0
   19.4827   -9.9098  -18.7491 O   0  0  0  0  0  0  0  0  0  0  0  0
   19.3031   -9.3174  -16.5661 N   0  0  0  0  0  0  0  0  0  0  0  0
   19.5153   -7.9125  -16.8523 C   0  0  0  0  0  0  0  0  0  0  0  0
   19.8479   -7.1790  -15.6157 C   0  0  0  0  0  0  0  0  0  0  0  0
   19.0078   -7.1668  -14.6795 O   0  0  0  0  0  0  0  0  0  0  0  0
   21.0524   -6.4822  -15.4031 N   0  0  0  0  0  0  0  0  0  0  0  0
   21.3777   -5.7974  -14.1691 C   0  0  1  0  0  0  0  0  0  0  0  0
   22.6549   -6.3287  -13.5526 C   0  0  0  0  0  0  0  0  0  0  0  0
   22.4166   -8.1249  -13.3251 S   0  0  0  0  0  0  0  0  0  0  0  0
   21.5862   -4.3610  -14.4280 C   0  0  0  0  0  0  0  0  0  0  0  0
   21.6915   -3.9569  -15.6008 O   0  0  0  0  0  0  0  0  0  0  0  0
   21.6633   -3.4768  -13.3829 O   0  0  0  0  0  0  0  0  0  0  0  0
  2  3  2  0
  2  1  1  0
  4  2  1  0
  5  4  1  0
  6  5  1  0
  6  7  1  1
  8  6  1  0
  8 10  1  0
  9  8  2  0
 11 10  1  0
 12 11  1  0
 13 12  2  0
 14 12  1  0
 15 14  1  0
 15 16  1  6
 16 17  1  0
 18 15  1  0
 19 18  2  0
 20 18  1  0
M  END
$$$$
