QGC.pdb
     RDKit          3D

 20 19  0  0  1  0  0  0  0  0999 V2000
   14.2333  -13.4845  -16.3915 N   0  0  0  0  0  0  0  0  0  0  0  0
   15.1869  -14.3071  -15.7435 C   0  0  0  0  0  0  0  0  0  0  0  0
   14.8950  -15.4947  -15.4961 O   0  0  0  0  0  0  0  0  0  0  0  0
   16.4966  -13.7638  -15.3712 C   0  0  0  0  0  0  0  0  0  0  0  0
   16.7299  -12.3459  -15.7611 C   0  0  0  0  0  0  0  0  0  0  0  0
   18.1154  -12.0441  -16.2219 C   0  0  2  0  0  0  0  0  0  0  0  0
   18.9979  -12.1807  -15.0516 N   0  0  0  0  0  0  0  0  0  0  0  0
   18.2414  -10.6621  -16.7292 C   0  0  0  0  0  0  0  0  0  0  0  0
   17.8817  -10.3126  -17.8824 O   0  0  0  0  0  0  0  0  0  0  0  0
   18.7895   -9.6352  -15.9163 N   0  0  0  0  0  0  0  0  0  0  0  0
   18.8789   -8.2567  -16.3548 C   0  0  0  0  0  0  0  0  0  0  0  0
   19.4614   -7.4144  -15.2923 C   0  0  0  0  0  0  0  0  0  0  0  0
   19.1373   -7.6430  -14.0985 O   0  0  0  0  0  0  0  0  0  0  0  0
   20.3655   -6.3595  -15.5187 N   0  0  0  0  0  0  0  0  0  0  0  0
   20.9049   -5.5234  -14.4663 C   0  0  1  0  0  0  0  0  0  0  0  0
   22.0437   -6.2048  -13.7366 C   0  0  0  0  0  0  0  0  0  0  0  0
   22.5216   -5.0976  -12.3654 S   0  0  0  0  0  0  0  0  0  0  0  0
   21.4416   -4.2748  -15.0379 C   0  0  0  0  0  0  0  0  0  0  0  0
   21.4018   -3.2257  -14.3689 O   0  0  0  0  0  0  0  0  0  0  0  0
   21.9811   -4.2705  -16.2984 O   0  0  0  0  0  0  0  0  0  0  0  0
  2  3  2  0
  2  1  1  0
  4  2  1  0
  5  4  1  0
  6  5  1  0
  6  7  1  1
  8  6  1  0
  8 10  1  0
  9  8  2  0
 11 10  1  0
 12 11  1  0
 13 12  2  0
 14 12  1  0
 15 14  1  0
 15 16  1  6
 16 17  1  0
 18 15  1  0
 19 18  2  0
 20 18  1  0
M  END
$$$$
