QGC.pdb
     RDKit          3D

 20 19  0  0  1  0  0  0  0  0999 V2000
   10.4855  -10.3841   -9.8177 N   0  0  0  0  0  0  0  0  0  0  0  0
   11.8722  -10.6680   -9.7662 C   0  0  0  0  0  0  0  0  0  0  0  0
   12.3177  -11.6351  -10.4166 O   0  0  0  0  0  0  0  0  0  0  0  0
   12.7654   -9.8330   -8.9576 C   0  0  0  0  0  0  0  0  0  0  0  0
   13.5779   -8.8470   -9.7222 C   0  0  0  0  0  0  0  0  0  0  0  0
   14.7682   -9.4200  -10.4136 C   0  0  2  0  0  0  0  0  0  0  0  0
   15.7985   -9.6411   -9.3857 N   0  0  0  0  0  0  0  0  0  0  0  0
   15.3219   -8.4931  -11.4222 C   0  0  0  0  0  0  0  0  0  0  0  0
   14.6927   -8.1313  -12.4492 O   0  0  0  0  0  0  0  0  0  0  0  0
   16.6264   -7.9521  -11.2756 N   0  0  0  0  0  0  0  0  0  0  0  0
   17.1841   -6.9953  -12.2105 C   0  0  0  0  0  0  0  0  0  0  0  0
   18.6371   -7.2067  -12.3593 C   0  0  0  0  0  0  0  0  0  0  0  0
   19.2664   -7.7442  -11.4120 O   0  0  0  0  0  0  0  0  0  0  0  0
   19.3813   -6.8463  -13.4985 N   0  0  0  0  0  0  0  0  0  0  0  0
   20.8131   -7.0309  -13.6145 C   0  0  1  0  0  0  0  0  0  0  0  0
   21.1790   -7.8102  -14.8604 C   0  0  0  0  0  0  0  0  0  0  0  0
   22.9843   -8.0778  -14.7972 S   0  0  0  0  0  0  0  0  0  0  0  0
   21.4853   -5.7221  -13.7088 C   0  0  0  0  0  0  0  0  0  0  0  0
   21.0211   -4.8455  -14.4611 O   0  0  0  0  0  0  0  0  0  0  0  0
   22.6145   -5.4730  -12.9721 O   0  0  0  0  0  0  0  0  0  0  0  0
  2  3  2  0
  2  1  1  0
  4  2  1  0
  5  4  1  0
  6  5  1  0
  6  7  1  1
  8  6  1  0
  8 10  1  0
  9  8  2  0
 11 10  1  0
 12 11  1  0
 13 12  2  0
 14 12  1  0
 15 14  1  0
 15 16  1  6
 16 17  1  0
 18 15  1  0
 19 18  2  0
 20 18  1  0
M  END
$$$$
