DAW.pdb
     RDKit          3D

 28 29  0  0  1  0  0  0  0  0999 V2000
   28.4750  -20.7204  -16.9978 N   0  0  0  0  0  0  0  0  0  0  0  0
   27.9204  -21.5563  -15.9856 C   0  0  1  0  0  0  0  0  0  0  0  0
   28.9619  -22.5374  -15.5060 C   0  0  0  0  0  0  0  0  0  0  0  0
   29.3280  -23.3891  -16.6618 C   0  0  0  0  0  0  0  0  0  0  0  0
   30.4868  -23.8640  -16.7039 O   0  0  0  0  0  0  0  0  0  0  0  0
   27.2189  -20.8489  -14.9128 C   0  0  0  0  0  0  0  0  0  0  0  0
   27.9031  -20.1552  -14.0990 O   0  0  0  0  0  0  0  0  0  0  0  0
   28.4621  -23.6894  -17.6969 O   0  0  0  0  0  0  0  0  0  0  0  0
   23.7506  -19.8034  -13.8903 C   0  0  0  0  0  0  0  0  0  0  0  0
   25.1918  -20.1113  -13.6104 C   0  0  2  0  0  0  0  0  0  0  0  0
   25.8224  -20.8579  -14.6819 N   0  0  0  0  0  0  0  0  0  0  0  0
   25.3716  -20.7958  -12.2962 C   0  0  0  0  0  0  0  0  0  0  0  0
   25.3594  -22.0625  -12.1972 O   0  0  0  0  0  0  0  0  0  0  0  0
   25.5659  -20.0832  -11.0857 N   0  0  0  0  0  0  0  0  0  0  0  0
   25.6540  -20.6901   -9.7722 C   0  0  1  0  0  0  0  0  0  0  0  0
   26.8792  -20.3011   -9.0273 C   0  0  0  0  0  0  0  0  0  0  0  0
   26.8099  -20.4620   -7.5511 C   0  0  0  0  0  0  0  0  0  0  0  0
   25.9353  -21.3379   -6.8803 C   0  0  0  0  0  0  0  0  0  0  0  0
   26.1647  -21.2413   -5.5711 N   0  0  0  0  0  0  0  0  0  0  0  0
   27.1354  -20.3582   -5.3155 C   0  0  0  0  0  0  0  0  0  0  0  0
   27.7113  -19.9167   -4.1515 C   0  0  0  0  0  0  0  0  0  0  0  0
   28.7141  -18.9717   -4.1359 C   0  0  0  0  0  0  0  0  0  0  0  0
   29.1119  -18.4889   -5.3570 C   0  0  0  0  0  0  0  0  0  0  0  0
   28.5357  -18.9294   -6.5383 C   0  0  0  0  0  0  0  0  0  0  0  0
   27.5387  -19.8712   -6.5438 C   0  0  0  0  0  0  0  0  0  0  0  0
   24.4175  -20.6658   -8.9964 C   0  0  0  0  0  0  0  0  0  0  0  0
   23.4830  -19.6796   -9.2308 O   0  0  0  0  0  0  0  0  0  0  0  0
   24.1824  -21.5198   -8.1146 O   0  0  0  0  0  0  0  0  0  0  0  0
  2  1  1  6
  2  3  1  0
  4  3  1  0
  4  5  2  0
  6  2  1  0
  7  6  2  0
  8  4  1  0
 10  9  1  6
 10 12  1  0
 10 11  1  0
 11  6  1  0
 12 13  2  0
 14 15  1  0
 14 12  1  0
 15 16  1  1
 16 17  1  0
 17 25  1  0
 18 17  2  0
 18 19  1  0
 19 20  1  0
 20 21  1  0
 21 22  2  0
 23 22  1  0
 24 23  2  0
 25 20  2  0
 25 24  1  0
 26 27  1  0
 26 15  1  0
 28 26  2  0
M  END
$$$$
