DAW.pdb
     RDKit          3D

 28 29  0  0  1  0  0  0  0  0999 V2000
   27.2610  -18.8496  -17.0329 N   0  0  0  0  0  0  0  0  0  0  0  0
   27.6840  -18.6614  -15.6851 C   0  0  1  0  0  0  0  0  0  0  0  0
   27.9279  -17.1948  -15.4264 C   0  0  0  0  0  0  0  0  0  0  0  0
   28.4529  -16.6088  -16.6820 C   0  0  0  0  0  0  0  0  0  0  0  0
   28.7812  -15.3996  -16.6792 O   0  0  0  0  0  0  0  0  0  0  0  0
   26.8531  -19.3216  -14.6765 C   0  0  0  0  0  0  0  0  0  0  0  0
   25.7385  -18.7949  -14.3736 O   0  0  0  0  0  0  0  0  0  0  0  0
   28.6009  -17.3222  -17.8571 O   0  0  0  0  0  0  0  0  0  0  0  0
   25.9272  -22.5722  -13.4804 C   0  0  0  0  0  0  0  0  0  0  0  0
   26.2559  -21.1677  -13.0688 C   0  0  2  0  0  0  0  0  0  0  0  0
   27.1707  -20.5158  -13.9861 N   0  0  0  0  0  0  0  0  0  0  0  0
   26.7589  -21.1003  -11.6651 C   0  0  0  0  0  0  0  0  0  0  0  0
   28.0018  -21.0986  -11.4016 O   0  0  0  0  0  0  0  0  0  0  0  0
   25.8899  -21.0344  -10.5463 N   0  0  0  0  0  0  0  0  0  0  0  0
   26.3203  -21.0371   -9.1620 C   0  0  1  0  0  0  0  0  0  0  0  0
   27.4953  -20.1632   -8.9114 C   0  0  0  0  0  0  0  0  0  0  0  0
   27.6692  -19.7105   -7.5061 C   0  0  0  0  0  0  0  0  0  0  0  0
   26.7899  -18.8448   -6.8281 C   0  0  0  0  0  0  0  0  0  0  0  0
   27.2392  -18.6773   -5.5847 N   0  0  0  0  0  0  0  0  0  0  0  0
   28.3629  -19.3724   -5.3803 C   0  0  0  0  0  0  0  0  0  0  0  0
   29.1864  -19.5144   -4.2926 C   0  0  0  0  0  0  0  0  0  0  0  0
   30.3204  -20.2966   -4.3221 C   0  0  0  0  0  0  0  0  0  0  0  0
   30.5876  -20.9333   -5.5078 C   0  0  0  0  0  0  0  0  0  0  0  0
   29.7610  -20.7957   -6.6120 C   0  0  0  0  0  0  0  0  0  0  0  0
   28.6336  -20.0156   -6.5726 C   0  0  0  0  0  0  0  0  0  0  0  0
   25.2444  -20.9336   -8.1806 C   0  0  0  0  0  0  0  0  0  0  0  0
   25.3433  -21.6115   -6.9841 O   0  0  0  0  0  0  0  0  0  0  0  0
   24.2248  -20.2445   -8.3988 O   0  0  0  0  0  0  0  0  0  0  0  0
  2  1  1  6
  2  3  1  0
  4  3  1  0
  4  5  2  0
  6  2  1  0
  7  6  2  0
  8  4  1  0
 10  9  1  6
 10 12  1  0
 10 11  1  0
 11  6  1  0
 12 13  2  0
 14 15  1  0
 14 12  1  0
 15 16  1  6
 16 17  1  0
 17 25  1  0
 18 17  2  0
 18 19  1  0
 19 20  1  0
 20 21  1  0
 21 22  2  0
 23 22  1  0
 24 23  2  0
 25 20  2  0
 25 24  1  0
 26 27  1  0
 26 15  1  0
 28 26  2  0
M  END
$$$$
