DAW.pdb
     RDKit          3D

 28 29  0  0  1  0  0  0  0  0999 V2000
   22.9475  -20.8511  -15.5352 N   0  0  0  0  0  0  0  0  0  0  0  0
   23.8390  -20.1067  -14.7094 C   0  0  1  0  0  0  0  0  0  0  0  0
   23.1281  -19.6741  -13.4505 C   0  0  0  0  0  0  0  0  0  0  0  0
   21.9935  -18.8139  -13.8605 C   0  0  0  0  0  0  0  0  0  0  0  0
   20.9324  -18.8776  -13.1972 O   0  0  0  0  0  0  0  0  0  0  0  0
   25.1422  -20.7337  -14.4810 C   0  0  0  0  0  0  0  0  0  0  0  0
   25.1761  -21.9722  -14.2045 O   0  0  0  0  0  0  0  0  0  0  0  0
   22.0403  -17.9445  -14.9344 O   0  0  0  0  0  0  0  0  0  0  0  0
   28.8094  -19.7801  -14.1745 C   0  0  0  0  0  0  0  0  0  0  0  0
   27.6223  -20.6870  -14.0381 C   0  0  2  0  0  0  0  0  0  0  0  0
   26.4001  -20.0870  -14.5374 N   0  0  0  0  0  0  0  0  0  0  0  0
   27.4513  -21.1766  -12.6385 C   0  0  0  0  0  0  0  0  0  0  0  0
   27.9602  -22.2738  -12.2492 O   0  0  0  0  0  0  0  0  0  0  0  0
   26.7170  -20.4554  -11.6629 N   0  0  0  0  0  0  0  0  0  0  0  0
   26.6062  -20.8285  -10.2665 C   0  0  1  0  0  0  0  0  0  0  0  0
   27.4844  -20.0285   -9.3743 C   0  0  0  0  0  0  0  0  0  0  0  0
   27.1977  -20.1452   -7.9203 C   0  0  0  0  0  0  0  0  0  0  0  0
   25.9802  -20.5977   -7.3770 C   0  0  0  0  0  0  0  0  0  0  0  0
   26.0860  -20.5979   -6.0485 N   0  0  0  0  0  0  0  0  0  0  0  0
   27.2938  -20.1754   -5.6610 C   0  0  0  0  0  0  0  0  0  0  0  0
   27.8681  -19.9982   -4.4280 C   0  0  0  0  0  0  0  0  0  0  0  0
   29.1556  -19.5322   -4.2732 C   0  0  0  0  0  0  0  0  0  0  0  0
   29.8420  -19.2509   -5.4275 C   0  0  0  0  0  0  0  0  0  0  0  0
   29.2697  -19.4272   -6.6776 C   0  0  0  0  0  0  0  0  0  0  0  0
   27.9876  -19.8925   -6.8217 C   0  0  0  0  0  0  0  0  0  0  0  0
   25.2418  -21.0259   -9.7863 C   0  0  0  0  0  0  0  0  0  0  0  0
   24.9907  -21.9640   -8.8077 O   0  0  0  0  0  0  0  0  0  0  0  0
   24.2854  -20.3648  -10.2452 O   0  0  0  0  0  0  0  0  0  0  0  0
  2  1  1  1
  2  3  1  0
  4  3  1  0
  4  5  2  0
  6  2  1  0
  7  6  2  0
  8  4  1  0
 10  9  1  1
 10 12  1  0
 10 11  1  0
 11  6  1  0
 12 13  2  0
 14 15  1  0
 14 12  1  0
 15 16  1  1
 16 17  1  0
 17 25  1  0
 18 17  2  0
 18 19  1  0
 19 20  1  0
 20 21  1  0
 21 22  2  0
 23 22  1  0
 24 23  2  0
 25 20  2  0
 25 24  1  0
 26 27  1  0
 26 15  1  0
 28 26  2  0
M  END
$$$$
