DAW.pdb
     RDKit          3D

 28 29  0  0  1  0  0  0  0  0999 V2000
   27.0962  -20.9725  -16.8525 N   0  0  0  0  0  0  0  0  0  0  0  0
   27.4254  -21.2708  -15.4984 C   0  0  1  0  0  0  0  0  0  0  0  0
   28.9127  -21.1230  -15.2898 C   0  0  0  0  0  0  0  0  0  0  0  0
   29.5777  -22.1466  -16.1296 C   0  0  0  0  0  0  0  0  0  0  0  0
   29.3481  -23.3538  -15.8847 O   0  0  0  0  0  0  0  0  0  0  0  0
   26.6050  -20.5883  -14.4960 C   0  0  0  0  0  0  0  0  0  0  0  0
   26.5884  -19.3189  -14.4921 O   0  0  0  0  0  0  0  0  0  0  0  0
   30.4376  -21.8441  -17.1690 O   0  0  0  0  0  0  0  0  0  0  0  0
   23.5716  -20.3359  -12.9953 C   0  0  0  0  0  0  0  0  0  0  0  0
   24.9999  -20.4698  -12.5572 C   0  0  2  0  0  0  0  0  0  0  0  0
   25.8085  -21.2114  -13.5056 N   0  0  0  0  0  0  0  0  0  0  0  0
   25.1115  -21.0464  -11.1849 C   0  0  0  0  0  0  0  0  0  0  0  0
   25.1388  -22.3015  -10.9893 O   0  0  0  0  0  0  0  0  0  0  0  0
   25.1934  -20.2379  -10.0226 N   0  0  0  0  0  0  0  0  0  0  0  0
   25.0776  -20.7277   -8.6632 C   0  0  1  0  0  0  0  0  0  0  0  0
   25.7656  -19.8650   -7.6684 C   0  0  0  0  0  0  0  0  0  0  0  0
   27.1995  -20.1778   -7.4317 C   0  0  0  0  0  0  0  0  0  0  0  0
   28.0340  -20.8522   -8.3433 C   0  0  0  0  0  0  0  0  0  0  0  0
   29.2549  -20.9342   -7.8154 N   0  0  0  0  0  0  0  0  0  0  0  0
   29.2981  -20.3603   -6.6087 C   0  0  0  0  0  0  0  0  0  0  0  0
   30.3024  -20.1989   -5.6885 C   0  0  0  0  0  0  0  0  0  0  0  0
   30.1028  -19.5660   -4.4809 C   0  0  0  0  0  0  0  0  0  0  0  0
   28.8344  -19.1003   -4.2423 C   0  0  0  0  0  0  0  0  0  0  0  0
   27.8134  -19.2587   -5.1665 C   0  0  0  0  0  0  0  0  0  0  0  0
   28.0221  -19.8894   -6.3664 C   0  0  0  0  0  0  0  0  0  0  0  0
   23.7429  -21.1793   -8.2811 C   0  0  0  0  0  0  0  0  0  0  0  0
   23.5927  -22.0464   -7.2198 O   0  0  0  0  0  0  0  0  0  0  0  0
   22.7236  -20.8014   -8.8979 O   0  0  0  0  0  0  0  0  0  0  0  0
  2  1  1  6
  2  3  1  0
  4  3  1  0
  4  5  2  0
  6  2  1  0
  7  6  2  0
  8  4  1  0
 10  9  1  6
 10 12  1  0
 10 11  1  0
 11  6  1  0
 12 13  2  0
 14 15  1  0
 14 12  1  0
 15 16  1  1
 16 17  1  0
 17 25  1  0
 18 17  2  0
 18 19  1  0
 19 20  1  0
 20 21  1  0
 21 22  2  0
 23 22  1  0
 24 23  2  0
 25 20  2  0
 25 24  1  0
 26 27  1  0
 26 15  1  0
 28 26  2  0
M  END
$$$$
