DAW.pdb
     RDKit          3D

 28 29  0  0  1  0  0  0  0  0999 V2000
   27.5948  -19.4715  -16.4206 N   0  0  0  0  0  0  0  0  0  0  0  0
   27.1640  -20.5136  -15.5491 C   0  0  1  0  0  0  0  0  0  0  0  0
   28.3190  -21.4366  -15.2466 C   0  0  0  0  0  0  0  0  0  0  0  0
   28.6051  -22.2015  -16.4829 C   0  0  0  0  0  0  0  0  0  0  0  0
   27.8991  -21.9788  -17.4938 O   0  0  0  0  0  0  0  0  0  0  0  0
   26.4232  -20.0674  -14.3678 C   0  0  0  0  0  0  0  0  0  0  0  0
   26.8235  -19.0262  -13.7618 O   0  0  0  0  0  0  0  0  0  0  0  0
   29.6081  -23.1478  -16.5835 O   0  0  0  0  0  0  0  0  0  0  0  0
   23.1034  -20.3058  -12.7436 C   0  0  0  0  0  0  0  0  0  0  0  0
   24.5955  -20.1939  -12.6377 C   0  0  2  0  0  0  0  0  0  0  0  0
   25.2786  -20.6914  -13.8164 N   0  0  0  0  0  0  0  0  0  0  0  0
   25.1175  -20.8402  -11.3976 C   0  0  0  0  0  0  0  0  0  0  0  0
   25.2603  -22.0998  -11.3117 O   0  0  0  0  0  0  0  0  0  0  0  0
   25.4840  -20.0968  -10.2469 N   0  0  0  0  0  0  0  0  0  0  0  0
   25.8919  -20.6758   -8.9820 C   0  0  1  0  0  0  0  0  0  0  0  0
   26.8657  -19.8350   -8.2391 C   0  0  0  0  0  0  0  0  0  0  0  0
   27.3181  -20.3811   -6.9325 C   0  0  0  0  0  0  0  0  0  0  0  0
   27.0859  -21.6974   -6.4901 C   0  0  0  0  0  0  0  0  0  0  0  0
   27.6522  -21.8453   -5.2928 N   0  0  0  0  0  0  0  0  0  0  0  0
   28.2499  -20.7160   -4.8992 C   0  0  0  0  0  0  0  0  0  0  0  0
   28.9459  -20.3751   -3.7675 C   0  0  0  0  0  0  0  0  0  0  0  0
   29.4749  -19.1172   -3.5767 C   0  0  0  0  0  0  0  0  0  0  0  0
   29.2680  -18.2124   -4.5871 C   0  0  0  0  0  0  0  0  0  0  0  0
   28.5661  -18.5481   -5.7344 C   0  0  0  0  0  0  0  0  0  0  0  0
   28.0440  -19.8033   -5.9156 C   0  0  0  0  0  0  0  0  0  0  0  0
   24.8070  -21.2321   -8.1790 C   0  0  0  0  0  0  0  0  0  0  0  0
   25.0413  -22.3329   -7.3828 O   0  0  0  0  0  0  0  0  0  0  0  0
   23.6599  -20.7360   -8.1969 O   0  0  0  0  0  0  0  0  0  0  0  0
  2  1  1  1
  2  3  1  0
  4  3  1  0
  4  5  2  0
  6  2  1  0
  7  6  2  0
  8  4  1  0
 10  9  1  6
 10 12  1  0
 10 11  1  0
 11  6  1  0
 12 13  2  0
 14 15  1  0
 14 12  1  0
 15 16  1  1
 16 17  1  0
 17 25  1  0
 18 17  2  0
 18 19  1  0
 19 20  1  0
 20 21  1  0
 21 22  2  0
 23 22  1  0
 24 23  2  0
 25 20  2  0
 25 24  1  0
 26 27  1  0
 26 15  1  0
 28 26  2  0
M  END
$$$$
