DAW.pdb
     RDKit          3D

 28 29  0  0  1  0  0  0  0  0999 V2000
   27.0600  -18.5257  -15.3472 N   0  0  0  0  0  0  0  0  0  0  0  0
   26.4695  -18.7426  -14.0685 C   0  0  1  0  0  0  0  0  0  0  0  0
   24.9726  -18.5753  -14.1621 C   0  0  0  0  0  0  0  0  0  0  0  0
   24.7148  -17.2125  -14.6832 C   0  0  0  0  0  0  0  0  0  0  0  0
   25.6747  -16.5757  -15.1763 O   0  0  0  0  0  0  0  0  0  0  0  0
   26.8982  -19.9653  -13.3868 C   0  0  0  0  0  0  0  0  0  0  0  0
   26.3224  -21.0565  -13.6853 O   0  0  0  0  0  0  0  0  0  0  0  0
   23.4738  -16.6039  -14.6559 O   0  0  0  0  0  0  0  0  0  0  0  0
   29.7652  -21.3218  -11.3999 C   0  0  0  0  0  0  0  0  0  0  0  0
   28.3213  -21.3169  -11.8064 C   0  0  2  0  0  0  0  0  0  0  0  0
   27.9131  -20.0604  -12.4046 N   0  0  0  0  0  0  0  0  0  0  0  0
   27.4217  -21.6951  -10.6769 C   0  0  0  0  0  0  0  0  0  0  0  0
   27.5402  -22.8072  -10.0739 O   0  0  0  0  0  0  0  0  0  0  0  0
   26.3871  -20.8455  -10.2090 N   0  0  0  0  0  0  0  0  0  0  0  0
   25.3088  -21.2588   -9.3328 C   0  0  1  0  0  0  0  0  0  0  0  0
   25.6178  -21.0681   -7.8922 C   0  0  0  0  0  0  0  0  0  0  0  0
   26.7230  -20.1196   -7.5939 C   0  0  0  0  0  0  0  0  0  0  0  0
   27.3700  -19.3158   -8.5518 C   0  0  0  0  0  0  0  0  0  0  0  0
   28.2862  -18.5743   -7.9297 N   0  0  0  0  0  0  0  0  0  0  0  0
   28.2994  -18.8256   -6.6166 C   0  0  0  0  0  0  0  0  0  0  0  0
   29.0506  -18.3319   -5.5805 C   0  0  0  0  0  0  0  0  0  0  0  0
   28.8866  -18.7588   -4.2806 C   0  0  0  0  0  0  0  0  0  0  0  0
   27.9234  -19.7135   -4.0725 C   0  0  0  0  0  0  0  0  0  0  0  0
   27.1595  -20.2179   -5.1134 C   0  0  0  0  0  0  0  0  0  0  0  0
   27.3294  -19.7860   -6.4040 C   0  0  0  0  0  0  0  0  0  0  0  0
   23.9767  -20.8292   -9.7478 C   0  0  0  0  0  0  0  0  0  0  0  0
   23.8319  -20.0365  -10.8665 O   0  0  0  0  0  0  0  0  0  0  0  0
   22.9547  -21.1596   -9.1086 O   0  0  0  0  0  0  0  0  0  0  0  0
  2  1  1  6
  2  3  1  0
  4  3  1  0
  4  5  2  0
  6  2  1  0
  7  6  2  0
  8  4  1  0
 10  9  1  1
 10 12  1  0
 10 11  1  0
 11  6  1  0
 12 13  2  0
 14 15  1  0
 14 12  1  0
 15 16  1  1
 16 17  1  0
 17 25  1  0
 18 17  2  0
 18 19  1  0
 19 20  1  0
 20 21  1  0
 21 22  2  0
 23 22  1  0
 24 23  2  0
 25 20  2  0
 25 24  1  0
 26 27  1  0
 26 15  1  0
 28 26  2  0
M  END
$$$$
