DAW.pdb
     RDKit          3D

 28 29  0  0  1  0  0  0  0  0999 V2000
   18.0195  -11.8616  -18.3292 N   0  0  0  0  0  0  0  0  0  0  0  0
   18.0511  -11.0935  -17.1292 C   0  0  1  0  0  0  0  0  0  0  0  0
   18.5224  -11.9552  -15.9835 C   0  0  0  0  0  0  0  0  0  0  0  0
   17.5139  -13.0242  -15.7944 C   0  0  0  0  0  0  0  0  0  0  0  0
   17.8521  -14.2065  -16.0349 O   0  0  0  0  0  0  0  0  0  0  0  0
   18.7368   -9.8044  -17.2360 C   0  0  0  0  0  0  0  0  0  0  0  0
   19.9529   -9.7957  -17.6003 O   0  0  0  0  0  0  0  0  0  0  0  0
   16.2201  -12.7900  -15.3672 O   0  0  0  0  0  0  0  0  0  0  0  0
   18.0483   -6.0823  -17.0165 C   0  0  0  0  0  0  0  0  0  0  0  0
   18.9257   -7.2984  -17.0513 C   0  0  2  0  0  0  0  0  0  0  0  0
   18.1716   -8.5345  -16.9685 N   0  0  0  0  0  0  0  0  0  0  0  0
   19.9940   -7.2464  -16.0101 C   0  0  0  0  0  0  0  0  0  0  0  0
   19.7781   -7.6178  -14.8143 O   0  0  0  0  0  0  0  0  0  0  0  0
   21.3058   -6.7837  -16.2863 N   0  0  0  0  0  0  0  0  0  0  0  0
   22.3588   -6.6421  -15.3002 C   0  0  1  0  0  0  0  0  0  0  0  0
   23.6731   -7.1529  -15.7681 C   0  0  0  0  0  0  0  0  0  0  0  0
   23.7707   -8.6287  -15.9178 C   0  0  0  0  0  0  0  0  0  0  0  0
   22.7163   -9.4637  -16.3341 C   0  0  0  0  0  0  0  0  0  0  0  0
   23.1653  -10.7176  -16.3805 N   0  0  0  0  0  0  0  0  0  0  0  0
   24.4519  -10.7827  -16.0228 C   0  0  0  0  0  0  0  0  0  0  0  0
   25.3363  -11.8249  -15.9092 C   0  0  0  0  0  0  0  0  0  0  0  0
   26.6411  -11.6453  -15.5043 C   0  0  0  0  0  0  0  0  0  0  0  0
   27.0153  -10.3569  -15.2169 C   0  0  0  0  0  0  0  0  0  0  0  0
   26.1284   -9.2976  -15.3291 C   0  0  0  0  0  0  0  0  0  0  0  0
   24.8316   -9.4862  -15.7340 C   0  0  0  0  0  0  0  0  0  0  0  0
   22.3972   -5.3516  -14.6186 C   0  0  0  0  0  0  0  0  0  0  0  0
   23.0170   -5.2450  -13.3917 O   0  0  0  0  0  0  0  0  0  0  0  0
   21.8751   -4.3323  -15.1193 O   0  0  0  0  0  0  0  0  0  0  0  0
  2  1  1  6
  2  3  1  0
  4  3  1  0
  4  5  2  0
  6  2  1  0
  7  6  2  0
  8  4  1  0
 10  9  1  1
 10 12  1  0
 10 11  1  0
 11  6  1  0
 12 13  2  0
 14 15  1  0
 14 12  1  0
 15 16  1  6
 16 17  1  0
 17 25  1  0
 18 17  2  0
 18 19  1  0
 19 20  1  0
 20 21  1  0
 21 22  2  0
 23 22  1  0
 24 23  2  0
 25 20  2  0
 25 24  1  0
 26 27  1  0
 26 15  1  0
 28 26  2  0
M  END
$$$$
