DAW.pdb
     RDKit          3D

 28 29  0  0  1  0  0  0  0  0999 V2000
   27.6024  -18.9893  -19.2922 N   0  0  0  0  0  0  0  0  0  0  0  0
   28.6907  -19.1341  -18.3837 C   0  0  1  0  0  0  0  0  0  0  0  0
   29.8484  -18.2764  -18.8327 C   0  0  0  0  0  0  0  0  0  0  0  0
   30.5127  -18.9859  -19.9511 C   0  0  0  0  0  0  0  0  0  0  0  0
   30.0239  -20.0736  -20.3358 O   0  0  0  0  0  0  0  0  0  0  0  0
   28.3423  -18.9845  -16.9697 C   0  0  0  0  0  0  0  0  0  0  0  0
   29.2755  -19.0273  -16.1101 O   0  0  0  0  0  0  0  0  0  0  0  0
   31.6420  -18.5145  -20.5943 O   0  0  0  0  0  0  0  0  0  0  0  0
   25.9379  -17.4153  -14.7392 C   0  0  0  0  0  0  0  0  0  0  0  0
   26.7716  -18.6274  -15.0318 C   0  0  2  0  0  0  0  0  0  0  0  0
   27.0407  -18.7925  -16.4473 N   0  0  0  0  0  0  0  0  0  0  0  0
   26.1806  -19.8666  -14.4460 C   0  0  0  0  0  0  0  0  0  0  0  0
   25.4086  -20.6192  -15.1183 O   0  0  0  0  0  0  0  0  0  0  0  0
   26.4404  -20.2793  -13.1144 N   0  0  0  0  0  0  0  0  0  0  0  0
   26.0103  -21.5382  -12.5385 C   0  0  1  0  0  0  0  0  0  0  0  0
   26.8012  -21.9384  -11.3463 C   0  0  0  0  0  0  0  0  0  0  0  0
   26.5427  -21.1513  -10.1119 C   0  0  0  0  0  0  0  0  0  0  0  0
   25.3321  -20.4953   -9.8182 C   0  0  0  0  0  0  0  0  0  0  0  0
   25.4464  -19.9153   -8.6238 N   0  0  0  0  0  0  0  0  0  0  0  0
   26.6537  -20.1367   -8.0938 C   0  0  0  0  0  0  0  0  0  0  0  0
   27.2388  -19.7520   -6.9144 C   0  0  0  0  0  0  0  0  0  0  0  0
   28.5292  -20.1022   -6.5815 C   0  0  0  0  0  0  0  0  0  0  0  0
   29.2073  -20.8635   -7.4998 C   0  0  0  0  0  0  0  0  0  0  0  0
   28.6239  -21.2570   -8.6941 C   0  0  0  0  0  0  0  0  0  0  0  0
   27.3383  -20.9042   -9.0161 C   0  0  0  0  0  0  0  0  0  0  0  0
   24.5646  -21.6969  -12.4109 C   0  0  0  0  0  0  0  0  0  0  0  0
   23.7611  -20.5814  -12.3076 O   0  0  0  0  0  0  0  0  0  0  0  0
   24.0308  -22.8269  -12.3882 O   0  0  0  0  0  0  0  0  0  0  0  0
  2  1  1  6
  2  3  1  0
  4  3  1  0
  4  5  2  0
  6  2  1  0
  7  6  2  0
  8  4  1  0
 10  9  1  6
 10 12  1  0
 10 11  1  0
 11  6  1  0
 12 13  2  0
 14 15  1  0
 14 12  1  0
 15 16  1  1
 16 17  1  0
 17 25  1  0
 18 17  2  0
 18 19  1  0
 19 20  1  0
 20 21  1  0
 21 22  2  0
 23 22  1  0
 24 23  2  0
 25 20  2  0
 25 24  1  0
 26 27  1  0
 26 15  1  0
 28 26  2  0
M  END
$$$$
