DAW.pdb
     RDKit          3D

 28 29  0  0  1  0  0  0  0  0999 V2000
   27.5673  -16.0283  -16.5185 N   0  0  0  0  0  0  0  0  0  0  0  0
   27.5833  -17.4164  -16.1962 C   0  0  1  0  0  0  0  0  0  0  0  0
   28.9797  -17.9636  -16.3636 C   0  0  0  0  0  0  0  0  0  0  0  0
   29.2710  -17.9866  -17.8162 C   0  0  0  0  0  0  0  0  0  0  0  0
   28.4294  -17.4843  -18.5969 O   0  0  0  0  0  0  0  0  0  0  0  0
   26.9474  -17.7650  -14.9244 C   0  0  0  0  0  0  0  0  0  0  0  0
   27.5874  -17.5475  -13.8498 O   0  0  0  0  0  0  0  0  0  0  0  0
   30.4200  -18.5314  -18.3586 O   0  0  0  0  0  0  0  0  0  0  0  0
   23.6124  -18.9222  -13.5441 C   0  0  0  0  0  0  0  0  0  0  0  0
   25.0807  -18.6255  -13.4667 C   0  0  2  0  0  0  0  0  0  0  0  0
   25.6613  -18.3339  -14.7633 N   0  0  0  0  0  0  0  0  0  0  0  0
   25.8336  -19.7091  -12.7689 C   0  0  0  0  0  0  0  0  0  0  0  0
   26.3750  -20.6636  -13.4093 O   0  0  0  0  0  0  0  0  0  0  0  0
   25.9912  -19.7423  -11.3599 N   0  0  0  0  0  0  0  0  0  0  0  0
   26.6719  -20.7917  -10.6272 C   0  0  1  0  0  0  0  0  0  0  0  0
   27.5941  -20.2748   -9.5833 C   0  0  0  0  0  0  0  0  0  0  0  0
   27.0557  -20.2702   -8.1977 C   0  0  0  0  0  0  0  0  0  0  0  0
   25.7460  -20.6482   -7.8453 C   0  0  0  0  0  0  0  0  0  0  0  0
   25.6201  -20.5472   -6.5224 N   0  0  0  0  0  0  0  0  0  0  0  0
   26.7577  -20.1259   -5.9605 C   0  0  0  0  0  0  0  0  0  0  0  0
   27.1161  -19.8671   -4.6620 C   0  0  0  0  0  0  0  0  0  0  0  0
   28.3742  -19.4228   -4.3178 C   0  0  0  0  0  0  0  0  0  0  0  0
   29.2604  -19.2499   -5.3509 C   0  0  0  0  0  0  0  0  0  0  0  0
   28.9070  -19.5091   -6.6660 C   0  0  0  0  0  0  0  0  0  0  0  0
   27.6524  -19.9521   -6.9988 C   0  0  0  0  0  0  0  0  0  0  0  0
   25.8245  -21.9067  -10.2151 C   0  0  0  0  0  0  0  0  0  0  0  0
   26.3913  -23.1365   -9.9561 O   0  0  0  0  0  0  0  0  0  0  0  0
   24.5873  -21.7772  -10.0935 O   0  0  0  0  0  0  0  0  0  0  0  0
  2  1  1  1
  2  3  1  0
  4  3  1  0
  4  5  2  0
  6  2  1  0
  7  6  2  0
  8  4  1  0
 10  9  1  6
 10 12  1  0
 10 11  1  0
 11  6  1  0
 12 13  2  0
 14 15  1  0
 14 12  1  0
 15 16  1  1
 16 17  1  0
 17 25  1  0
 18 17  2  0
 18 19  1  0
 19 20  1  0
 20 21  1  0
 21 22  2  0
 23 22  1  0
 24 23  2  0
 25 20  2  0
 25 24  1  0
 26 27  1  0
 26 15  1  0
 28 26  2  0
M  END
$$$$
