DAW.pdb
     RDKit          3D

 28 29  0  0  1  0  0  0  0  0999 V2000
   28.6450  -20.1339  -18.8713 N   0  0  0  0  0  0  0  0  0  0  0  0
   28.9270  -21.0673  -17.8320 C   0  0  1  0  0  0  0  0  0  0  0  0
   30.3334  -21.5928  -17.9851 C   0  0  0  0  0  0  0  0  0  0  0  0
   30.3890  -22.3309  -19.2686 C   0  0  0  0  0  0  0  0  0  0  0  0
   29.3547  -22.3692  -19.9750 O   0  0  0  0  0  0  0  0  0  0  0  0
   28.5982  -20.6091  -16.4809 C   0  0  0  0  0  0  0  0  0  0  0  0
   28.9557  -21.3265  -15.4964 O   0  0  0  0  0  0  0  0  0  0  0  0
   31.5188  -22.9800  -19.7308 O   0  0  0  0  0  0  0  0  0  0  0  0
   27.0912  -17.6316  -14.6763 C   0  0  0  0  0  0  0  0  0  0  0  0
   27.5878  -19.0428  -14.7852 C   0  0  2  0  0  0  0  0  0  0  0  0
   27.9056  -19.4201  -16.1490 N   0  0  0  0  0  0  0  0  0  0  0  0
   26.6444  -20.0167  -14.1610 C   0  0  0  0  0  0  0  0  0  0  0  0
   25.7155  -20.5676  -14.8303 O   0  0  0  0  0  0  0  0  0  0  0  0
   26.7238  -20.3859  -12.7941 N   0  0  0  0  0  0  0  0  0  0  0  0
   25.8559  -21.3482  -12.1443 C   0  0  1  0  0  0  0  0  0  0  0  0
   26.4714  -21.9794  -10.9485 C   0  0  0  0  0  0  0  0  0  0  0  0
   26.5479  -21.1198   -9.7380 C   0  0  0  0  0  0  0  0  0  0  0  0
   25.4889  -20.3342   -9.2444 C   0  0  0  0  0  0  0  0  0  0  0  0
   25.9015  -19.7196   -8.1362 N   0  0  0  0  0  0  0  0  0  0  0  0
   27.1681  -20.0388   -7.8508 C   0  0  0  0  0  0  0  0  0  0  0  0
   28.0186  -19.6662   -6.8413 C   0  0  0  0  0  0  0  0  0  0  0  0
   29.3134  -20.1299   -6.7577 C   0  0  0  0  0  0  0  0  0  0  0  0
   29.7139  -20.9927   -7.7465 C   0  0  0  0  0  0  0  0  0  0  0  0
   28.8612  -21.3749   -8.7704 C   0  0  0  0  0  0  0  0  0  0  0  0
   27.5735  -20.9086   -8.8446 C   0  0  0  0  0  0  0  0  0  0  0  0
   24.4705  -20.9181  -11.9800 C   0  0  0  0  0  0  0  0  0  0  0  0
   24.1755  -19.5728  -11.9169 O   0  0  0  0  0  0  0  0  0  0  0  0
   23.5363  -21.7435  -11.8898 O   0  0  0  0  0  0  0  0  0  0  0  0
  2  1  1  6
  2  3  1  0
  4  3  1  0
  4  5  2  0
  6  2  1  0
  7  6  2  0
  8  4  1  0
 10  9  1  6
 10 12  1  0
 10 11  1  0
 11  6  1  0
 12 13  2  0
 14 15  1  0
 14 12  1  0
 15 16  1  1
 16 17  1  0
 17 25  1  0
 18 17  2  0
 18 19  1  0
 19 20  1  0
 20 21  1  0
 21 22  2  0
 23 22  1  0
 24 23  2  0
 25 20  2  0
 25 24  1  0
 26 27  1  0
 26 15  1  0
 28 26  2  0
M  END
$$$$
