DAW.pdb
     RDKit          3D

 28 29  0  0  1  0  0  0  0  0999 V2000
   29.0787  -22.2474  -17.4979 N   0  0  0  0  0  0  0  0  0  0  0  0
   27.8916  -22.2561  -16.7094 C   0  0  1  0  0  0  0  0  0  0  0  0
   27.3806  -23.6693  -16.5711 C   0  0  0  0  0  0  0  0  0  0  0  0
   26.7016  -24.0170  -17.8414 C   0  0  0  0  0  0  0  0  0  0  0  0
   26.5238  -23.1084  -18.6856 O   0  0  0  0  0  0  0  0  0  0  0  0
   27.9806  -21.5207  -15.4466 C   0  0  0  0  0  0  0  0  0  0  0  0
   28.7356  -21.9774  -14.5339 O   0  0  0  0  0  0  0  0  0  0  0  0
   26.2533  -25.2885  -18.1473 O   0  0  0  0  0  0  0  0  0  0  0  0
   26.9827  -18.2045  -13.9277 C   0  0  0  0  0  0  0  0  0  0  0  0
   27.4666  -19.6232  -13.8703 C   0  0  2  0  0  0  0  0  0  0  0  0
   27.2953  -20.3236  -15.1286 N   0  0  0  0  0  0  0  0  0  0  0  0
   26.8473  -20.3794  -12.7422 C   0  0  0  0  0  0  0  0  0  0  0  0
   25.8225  -21.1109  -12.9131 O   0  0  0  0  0  0  0  0  0  0  0  0
   27.3581  -20.3303  -11.4202 N   0  0  0  0  0  0  0  0  0  0  0  0
   26.7310  -20.9448  -10.2667 C   0  0  1  0  0  0  0  0  0  0  0  0
   27.6462  -21.0798   -9.1041 C   0  0  0  0  0  0  0  0  0  0  0  0
   27.0497  -20.7661   -7.7791 C   0  0  0  0  0  0  0  0  0  0  0  0
   25.7304  -21.0787   -7.3996 C   0  0  0  0  0  0  0  0  0  0  0  0
   25.5477  -20.6774   -6.1420 N   0  0  0  0  0  0  0  0  0  0  0  0
   26.6561  -20.1149   -5.6494 C   0  0  0  0  0  0  0  0  0  0  0  0
   26.9565  -19.5561   -4.4333 C   0  0  0  0  0  0  0  0  0  0  0  0
   28.1942  -19.0191   -4.1530 C   0  0  0  0  0  0  0  0  0  0  0  0
   29.1213  -19.0717   -5.1631 C   0  0  0  0  0  0  0  0  0  0  0  0
   28.8265  -19.6347   -6.3950 C   0  0  0  0  0  0  0  0  0  0  0  0
   27.5919  -20.1678   -6.6643 C   0  0  0  0  0  0  0  0  0  0  0  0
   25.3934  -20.4503   -9.9542 C   0  0  0  0  0  0  0  0  0  0  0  0
   24.4070  -21.3378   -9.5798 O   0  0  0  0  0  0  0  0  0  0  0  0
   25.1141  -19.2339  -10.0216 O   0  0  0  0  0  0  0  0  0  0  0  0
  2  1  1  1
  2  3  1  0
  4  3  1  0
  4  5  2  0
  6  2  1  0
  7  6  2  0
  8  4  1  0
 10  9  1  6
 10 12  1  0
 10 11  1  0
 11  6  1  0
 12 13  2  0
 14 15  1  0
 14 12  1  0
 15 16  1  1
 16 17  1  0
 17 25  1  0
 18 17  2  0
 18 19  1  0
 19 20  1  0
 20 21  1  0
 21 22  2  0
 23 22  1  0
 24 23  2  0
 25 20  2  0
 25 24  1  0
 26 27  1  0
 26 15  1  0
 28 26  2  0
M  END
$$$$
