DAW.pdb
     RDKit          3D

 28 29  0  0  1  0  0  0  0  0999 V2000
   19.3304  -18.0575  -14.6821 N   0  0  0  0  0  0  0  0  0  0  0  0
   20.5718  -18.4625  -15.2531 C   0  0  1  0  0  0  0  0  0  0  0  0
   21.1599  -17.3271  -16.0545 C   0  0  0  0  0  0  0  0  0  0  0  0
   20.2937  -17.1320  -17.2406 C   0  0  0  0  0  0  0  0  0  0  0  0
   20.1313  -18.0990  -18.0208 O   0  0  0  0  0  0  0  0  0  0  0  0
   21.5085  -19.0901  -14.3192 C   0  0  0  0  0  0  0  0  0  0  0  0
   22.1146  -18.3509  -13.4840 O   0  0  0  0  0  0  0  0  0  0  0  0
   19.6541  -15.9421  -17.5348 O   0  0  0  0  0  0  0  0  0  0  0  0
   22.4892  -22.4153  -12.9093 C   0  0  0  0  0  0  0  0  0  0  0  0
   22.8079  -21.0144  -13.3403 C   0  0  2  0  0  0  0  0  0  0  0  0
   21.8170  -20.4698  -14.2485 N   0  0  0  0  0  0  0  0  0  0  0  0
   24.1826  -20.9047  -13.9115 C   0  0  0  0  0  0  0  0  0  0  0  0
   24.4243  -21.1880  -15.1263 O   0  0  0  0  0  0  0  0  0  0  0  0
   25.2962  -20.4814  -13.1422 N   0  0  0  0  0  0  0  0  0  0  0  0
   26.6579  -20.3984  -13.6322 C   0  0  1  0  0  0  0  0  0  0  0  0
   27.5040  -19.4554  -12.8563 C   0  0  0  0  0  0  0  0  0  0  0  0
   28.1264  -20.0151  -11.6277 C   0  0  0  0  0  0  0  0  0  0  0  0
   29.3329  -20.7402  -11.5992 C   0  0  0  0  0  0  0  0  0  0  0  0
   29.6011  -21.0618  -10.3340 N   0  0  0  0  0  0  0  0  0  0  0  0
   28.6552  -20.6019   -9.5086 C   0  0  0  0  0  0  0  0  0  0  0  0
   28.4848  -20.6807   -8.1499 C   0  0  0  0  0  0  0  0  0  0  0  0
   27.4002  -20.1235   -7.5081 C   0  0  0  0  0  0  0  0  0  0  0  0
   26.4887  -19.4788   -8.3056 C   0  0  0  0  0  0  0  0  0  0  0  0
   26.6528  -19.3940   -9.6794 C   0  0  0  0  0  0  0  0  0  0  0  0
   27.7364  -19.9511  -10.3092 C   0  0  0  0  0  0  0  0  0  0  0  0
   27.2800  -21.6810  -13.9475 C   0  0  0  0  0  0  0  0  0  0  0  0
   26.8828  -22.8169  -13.2747 O   0  0  0  0  0  0  0  0  0  0  0  0
   28.1741  -21.7778  -14.8155 O   0  0  0  0  0  0  0  0  0  0  0  0
  2  1  1  1
  2  3  1  0
  4  3  1  0
  4  5  2  0
  6  2  1  0
  7  6  2  0
  8  4  1  0
 10  9  1  6
 10 12  1  0
 10 11  1  0
 11  6  1  0
 12 13  2  0
 14 15  1  0
 14 12  1  0
 15 16  1  1
 16 17  1  0
 17 25  1  0
 18 17  2  0
 18 19  1  0
 19 20  1  0
 20 21  1  0
 21 22  2  0
 23 22  1  0
 24 23  2  0
 25 20  2  0
 25 24  1  0
 26 27  1  0
 26 15  1  0
 28 26  2  0
M  END
$$$$
