DAW.pdb
     RDKit          3D

 28 29  0  0  1  0  0  0  0  0999 V2000
   28.0816  -23.3816  -17.0040 N   0  0  0  0  0  0  0  0  0  0  0  0
   28.0882  -21.9582  -17.0716 C   0  0  1  0  0  0  0  0  0  0  0  0
   27.0058  -21.4863  -18.0113 C   0  0  0  0  0  0  0  0  0  0  0  0
   27.6653  -20.7050  -19.0837 C   0  0  0  0  0  0  0  0  0  0  0  0
   28.2585  -19.6478  -18.7668 O   0  0  0  0  0  0  0  0  0  0  0  0
   28.1019  -21.2759  -15.7763 C   0  0  0  0  0  0  0  0  0  0  0  0
   28.9355  -21.6612  -14.8998 O   0  0  0  0  0  0  0  0  0  0  0  0
   27.6629  -21.0775  -20.4151 O   0  0  0  0  0  0  0  0  0  0  0  0
   26.8040  -18.1493  -14.1254 C   0  0  0  0  0  0  0  0  0  0  0  0
   27.3668  -19.5396  -14.1046 C   0  0  2  0  0  0  0  0  0  0  0  0
   27.2615  -20.2047  -15.3891 N   0  0  0  0  0  0  0  0  0  0  0  0
   26.7688  -20.3681  -13.0165 C   0  0  0  0  0  0  0  0  0  0  0  0
   25.7507  -21.1007  -13.2194 O   0  0  0  0  0  0  0  0  0  0  0  0
   27.2936  -20.3904  -11.6993 N   0  0  0  0  0  0  0  0  0  0  0  0
   26.7762  -21.2018  -10.6152 C   0  0  1  0  0  0  0  0  0  0  0  0
   27.7492  -21.3916   -9.5086 C   0  0  0  0  0  0  0  0  0  0  0  0
   27.4400  -20.6616   -8.2510 C   0  0  0  0  0  0  0  0  0  0  0  0
   26.2084  -20.0417   -7.9660 C   0  0  0  0  0  0  0  0  0  0  0  0
   26.2771  -19.5098   -6.7460 N   0  0  0  0  0  0  0  0  0  0  0  0
   27.4732  -19.7298   -6.1906 C   0  0  0  0  0  0  0  0  0  0  0  0
   28.0168  -19.3833   -4.9799 C   0  0  0  0  0  0  0  0  0  0  0  0
   29.3042  -19.7222   -4.6244 C   0  0  0  0  0  0  0  0  0  0  0  0
   30.0233  -20.4315   -5.5530 C   0  0  0  0  0  0  0  0  0  0  0  0
   29.4821  -20.7861   -6.7789 C   0  0  0  0  0  0  0  0  0  0  0  0
   28.1991  -20.4450   -7.1234 C   0  0  0  0  0  0  0  0  0  0  0  0
   25.4135  -20.8820  -10.2004 C   0  0  0  0  0  0  0  0  0  0  0  0
   24.5905  -21.8820   -9.7277 O   0  0  0  0  0  0  0  0  0  0  0  0
   24.9667  -19.7165  -10.2666 O   0  0  0  0  0  0  0  0  0  0  0  0
  2  1  1  1
  2  3  1  0
  4  3  1  0
  4  5  2  0
  6  2  1  0
  7  6  2  0
  8  4  1  0
 10  9  1  6
 10 12  1  0
 10 11  1  0
 11  6  1  0
 12 13  2  0
 14 15  1  0
 14 12  1  0
 15 16  1  1
 16 17  1  0
 17 25  1  0
 18 17  2  0
 18 19  1  0
 19 20  1  0
 20 21  1  0
 21 22  2  0
 23 22  1  0
 24 23  2  0
 25 20  2  0
 25 24  1  0
 26 27  1  0
 26 15  1  0
 28 26  2  0
M  END
$$$$
