DAW.pdb
     RDKit          3D

 28 29  0  0  1  0  0  0  0  0999 V2000
   17.1097  -16.9383  -17.0417 N   0  0  0  0  0  0  0  0  0  0  0  0
   16.5545  -15.6262  -17.0724 C   0  0  1  0  0  0  0  0  0  0  0  0
   15.4949  -15.4948  -16.0059 C   0  0  0  0  0  0  0  0  0  0  0  0
   14.3522  -16.3446  -16.4153 C   0  0  0  0  0  0  0  0  0  0  0  0
   13.7833  -17.0348  -15.5378 O   0  0  0  0  0  0  0  0  0  0  0  0
   17.5343  -14.5384  -17.0862 C   0  0  0  0  0  0  0  0  0  0  0  0
   18.3123  -14.4140  -16.0909 O   0  0  0  0  0  0  0  0  0  0  0  0
   13.8782  -16.4184  -17.7120 O   0  0  0  0  0  0  0  0  0  0  0  0
   19.0061  -12.0176  -19.4929 C   0  0  0  0  0  0  0  0  0  0  0  0
   18.8000  -12.6312  -18.1398 C   0  0  2  0  0  0  0  0  0  0  0  0
   17.7093  -13.5867  -18.1194 N   0  0  0  0  0  0  0  0  0  0  0  0
   18.6320  -11.5966  -17.0770 C   0  0  0  0  0  0  0  0  0  0  0  0
   17.4825  -11.2005  -16.7079 O   0  0  0  0  0  0  0  0  0  0  0  0
   19.7340  -10.9952  -16.4175 N   0  0  0  0  0  0  0  0  0  0  0  0
   19.6398   -9.8806  -15.4955 C   0  0  1  0  0  0  0  0  0  0  0  0
   20.6848   -9.9028  -14.4397 C   0  0  0  0  0  0  0  0  0  0  0  0
   20.7864   -8.6718  -13.6125 C   0  0  0  0  0  0  0  0  0  0  0  0
   20.1664   -8.4935  -12.3611 C   0  0  0  0  0  0  0  0  0  0  0  0
   20.4937   -7.2878  -11.8970 N   0  0  0  0  0  0  0  0  0  0  0  0
   21.2925   -6.6422  -12.7528 C   0  0  0  0  0  0  0  0  0  0  0  0
   21.8770   -5.4016  -12.7276 C   0  0  0  0  0  0  0  0  0  0  0  0
   22.6726   -4.9391  -13.7532 C   0  0  0  0  0  0  0  0  0  0  0  0
   22.8526   -5.7917  -14.8131 C   0  0  0  0  0  0  0  0  0  0  0  0
   22.2661   -7.0472  -14.8470 C   0  0  0  0  0  0  0  0  0  0  0  0
   21.4764   -7.4991  -13.8207 C   0  0  0  0  0  0  0  0  0  0  0  0
   19.4101   -8.5808  -16.1194 C   0  0  0  0  0  0  0  0  0  0  0  0
   18.5145   -7.6993  -15.5522 O   0  0  0  0  0  0  0  0  0  0  0  0
   20.0051   -8.2436  -17.1655 O   0  0  0  0  0  0  0  0  0  0  0  0
  2  1  1  1
  2  3  1  0
  4  3  1  0
  4  5  2  0
  6  2  1  0
  7  6  2  0
  8  4  1  0
 10  9  1  6
 10 12  1  0
 10 11  1  0
 11  6  1  0
 12 13  2  0
 14 15  1  0
 14 12  1  0
 15 16  1  6
 16 17  1  0
 17 25  1  0
 18 17  2  0
 18 19  1  0
 19 20  1  0
 20 21  1  0
 21 22  2  0
 23 22  1  0
 24 23  2  0
 25 20  2  0
 25 24  1  0
 26 27  1  0
 26 15  1  0
 28 26  2  0
M  END
$$$$
