DAW.pdb
     RDKit          3D

 28 29  0  0  1  0  0  0  0  0999 V2000
   14.5955  -10.4645  -14.8679 N   0  0  0  0  0  0  0  0  0  0  0  0
   15.8481  -10.5402  -15.5432 C   0  0  1  0  0  0  0  0  0  0  0  0
   15.7932  -11.6133  -16.6029 C   0  0  0  0  0  0  0  0  0  0  0  0
   15.6876  -12.9155  -15.9040 C   0  0  0  0  0  0  0  0  0  0  0  0
   14.6373  -13.1620  -15.2666 O   0  0  0  0  0  0  0  0  0  0  0  0
   16.3795   -9.2583  -16.0100 C   0  0  0  0  0  0  0  0  0  0  0  0
   17.3172   -9.2691  -16.8656 O   0  0  0  0  0  0  0  0  0  0  0  0
   16.6835  -13.8744  -15.9159 O   0  0  0  0  0  0  0  0  0  0  0  0
   15.6982   -5.5384  -15.7647 C   0  0  0  0  0  0  0  0  0  0  0  0
   16.5259   -6.7443  -16.0972 C   0  0  2  0  0  0  0  0  0  0  0  0
   15.9462   -7.9758  -15.5965 N   0  0  0  0  0  0  0  0  0  0  0  0
   17.9412   -6.5915  -15.6480 C   0  0  0  0  0  0  0  0  0  0  0  0
   18.3053   -6.9077  -14.4725 O   0  0  0  0  0  0  0  0  0  0  0  0
   18.9602   -6.0884  -16.4963 N   0  0  0  0  0  0  0  0  0  0  0  0
   20.3167   -5.7954  -16.0776 C   0  0  1  0  0  0  0  0  0  0  0  0
   21.2609   -5.6411  -17.2142 C   0  0  0  0  0  0  0  0  0  0  0  0
   22.6788   -5.3960  -16.8408 C   0  0  0  0  0  0  0  0  0  0  0  0
   23.5445   -6.3656  -16.2998 C   0  0  0  0  0  0  0  0  0  0  0  0
   24.7396   -5.8061  -16.1133 N   0  0  0  0  0  0  0  0  0  0  0  0
   24.7362   -4.5239  -16.4923 C   0  0  0  0  0  0  0  0  0  0  0  0
   25.7005   -3.5485  -16.4896 C   0  0  0  0  0  0  0  0  0  0  0  0
   25.4553   -2.2666  -16.9315 C   0  0  0  0  0  0  0  0  0  0  0  0
   24.1836   -2.0119  -17.3791 C   0  0  0  0  0  0  0  0  0  0  0  0
   23.2028   -2.9915  -17.3856 C   0  0  0  0  0  0  0  0  0  0  0  0
   23.4568   -4.2652  -16.9447 C   0  0  0  0  0  0  0  0  0  0  0  0
   20.4350   -4.7891  -15.0266 C   0  0  0  0  0  0  0  0  0  0  0  0
   21.2227   -5.0420  -13.9238 O   0  0  0  0  0  0  0  0  0  0  0  0
   19.8328   -3.6961  -15.0976 O   0  0  0  0  0  0  0  0  0  0  0  0
  2  1  1  6
  2  3  1  0
  4  3  1  0
  4  5  2  0
  6  2  1  0
  7  6  2  0
  8  4  1  0
 10  9  1  1
 10 12  1  0
 10 11  1  0
 11  6  1  0
 12 13  2  0
 14 15  1  0
 14 12  1  0
 15 16  1  6
 16 17  1  0
 17 25  1  0
 18 17  2  0
 18 19  1  0
 19 20  1  0
 20 21  1  0
 21 22  2  0
 23 22  1  0
 24 23  2  0
 25 20  2  0
 25 24  1  0
 26 27  1  0
 26 15  1  0
 28 26  2  0
M  END
$$$$
