PRY.pdb
     RDKit          3D

 31 32  0  0  1  0  0  0  0  0999 V2000
    9.3627  -13.9197   18.4557 N   0  0  0  0  0  0  0  0  0  0  0  0
    8.4502  -14.3246   17.4335 C   0  0  0  0  0  0  0  0  0  0  0  0
    7.2939  -13.3674   17.5873 C   0  0  0  0  0  0  0  0  0  0  0  0
    7.1751  -13.3189   19.1148 C   0  0  0  0  0  0  0  0  0  0  0  0
    8.6104  -13.5133   19.6006 C   0  0  1  0  0  0  0  0  0  0  0  0
    8.6400  -14.5384   20.6890 C   0  0  0  0  0  0  0  0  0  0  0  0
    7.7948  -14.4658   21.6414 O   0  0  0  0  0  0  0  0  0  0  0  0
    7.8255  -21.1305   16.5630 N   0  0  0  0  0  0  0  0  0  0  0  0
    7.4940  -21.0550   17.9412 C   0  0  0  0  0  0  0  0  0  0  0  0
    7.0856  -22.0828   18.6248 N   0  0  0  0  0  0  0  0  0  0  0  0
    7.5878  -19.8259   18.6857 N   0  0  0  0  0  0  0  0  0  0  0  0
    8.6648  -19.5692   19.5936 C   0  0  0  0  0  0  0  0  0  0  0  0
    8.5418  -18.2159   20.2900 C   0  0  0  0  0  0  0  0  0  0  0  0
    9.6801  -17.9544   21.2000 C   0  0  0  0  0  0  0  0  0  0  0  0
    9.6207  -16.5706   21.8413 C   0  0  2  0  0  0  0  0  0  0  0  0
    9.5620  -15.5934   20.7198 N   0  0  0  0  0  0  0  0  0  0  0  0
   10.8122  -16.2776   22.6371 C   0  0  0  0  0  0  0  0  0  0  0  0
   11.7511  -17.1248   22.6428 O   0  0  0  0  0  0  0  0  0  0  0  0
    7.0128  -21.9516   19.6589 O   0  0  0  0  0  0  0  0  0  0  0  0
    9.7897  -15.9607   31.1167 C   0  0  0  0  0  0  0  0  0  0  0  0
    9.7930  -15.6865   29.7612 C   0  0  0  0  0  0  0  0  0  0  0  0
    9.8064  -16.7319   28.8638 C   0  0  0  0  0  0  0  0  0  0  0  0
    9.8095  -16.4667   27.5113 C   0  0  0  0  0  0  0  0  0  0  0  0
    9.8002  -15.2029   26.9695 C   0  0  0  0  0  0  0  0  0  0  0  0
    9.8061  -15.0251   25.5221 C   0  0  1  0  0  0  0  0  0  0  0  0
   11.1371  -15.1337   24.8658 N   0  0  0  0  0  0  0  0  0  0  0  0
   11.0354  -15.1127   23.4210 C   0  0  0  0  0  0  0  0  0  0  0  0
   11.8907  -16.3247   25.2659 O   0  0  0  0  0  0  0  0  0  0  0  0
   13.0001  -16.2612   25.8797 C   0  0  0  0  0  0  0  0  0  0  0  0
    9.7868  -14.1606   27.8923 C   0  0  0  0  0  0  0  0  0  0  0  0
    9.7833  -14.4074   29.2511 O   0  0  0  0  0  0  0  0  0  0  0  0
  1  2  1  0
  3  2  1  0
  4  3  1  0
  5  4  1  0
  5  1  1  0
  6  7  2  0
  5  6  1  1
  9 11  1  0
  9  8  1  0
 10  9  2  0
 12 13  1  0
 12 11  1  0
 15 14  1  6
 14 13  1  0
 15 16  1  0
 16  6  1  0
 17 26  1  0
 17 15  1  0
 18 17  2  0
 20 19  1  0
 21 20  2  0
 22 21  1  0
 23 22  2  0
 23 29  1  0
 24 23  1  0
 25 24  1  1
 25 26  1  0
 27 31  1  0
 27 25  1  0
 28 27  2  0
 29 30  2  0
 30 20  1  0
M  END
$$$$
