PRY.pdb
     RDKit          3D

 31 32  0  0  1  0  0  0  0  0999 V2000
    9.0792  -13.9895   19.5250 N   0  0  0  0  0  0  0  0  0  0  0  0
    8.1957  -14.2339   18.4289 C   0  0  0  0  0  0  0  0  0  0  0  0
    7.1162  -13.1939   18.6017 C   0  0  0  0  0  0  0  0  0  0  0  0
    6.9154  -13.2519   20.1203 C   0  0  0  0  0  0  0  0  0  0  0  0
    8.2997  -13.6075   20.6599 C   0  0  1  0  0  0  0  0  0  0  0  0
    8.1821  -14.7114   21.6619 C   0  0  0  0  0  0  0  0  0  0  0  0
    7.2378  -14.6820   22.5188 O   0  0  0  0  0  0  0  0  0  0  0  0
   11.6903  -18.0200   17.9014 N   0  0  0  0  0  0  0  0  0  0  0  0
   10.7189  -19.0375   17.7115 C   0  0  0  0  0  0  0  0  0  0  0  0
   10.2613  -19.3646   16.5393 N   0  0  0  0  0  0  0  0  0  0  0  0
   10.1677  -19.7857   18.8116 N   0  0  0  0  0  0  0  0  0  0  0  0
   10.4404  -19.4424   20.1747 C   0  0  0  0  0  0  0  0  0  0  0  0
    9.4673  -18.4048   20.7295 C   0  0  0  0  0  0  0  0  0  0  0  0
    9.7621  -18.0659   22.1403 C   0  0  0  0  0  0  0  0  0  0  0  0
    8.8989  -16.9233   22.6685 C   0  0  2  0  0  0  0  0  0  0  0  0
    9.0685  -15.7957   21.7113 N   0  0  0  0  0  0  0  0  0  0  0  0
    9.3314  -16.4671   23.9889 C   0  0  0  0  0  0  0  0  0  0  0  0
   10.3760  -15.7580   24.0643 O   0  0  0  0  0  0  0  0  0  0  0  0
    9.5854  -20.1610   16.5119 O   0  0  0  0  0  0  0  0  0  0  0  0
    6.1811  -10.7532   25.4223 C   0  0  0  0  0  0  0  0  0  0  0  0
    6.7145  -11.9306   25.9139 C   0  0  0  0  0  0  0  0  0  0  0  0
    6.0348  -13.1121   25.7132 C   0  0  0  0  0  0  0  0  0  0  0  0
    6.5602  -14.2897   26.1999 C   0  0  0  0  0  0  0  0  0  0  0  0
    7.7452  -14.3822   26.8913 C   0  0  0  0  0  0  0  0  0  0  0  0
    8.2174  -15.6769   27.3680 C   0  0  2  0  0  0  0  0  0  0  0  0
    9.2316  -16.3476   26.5102 N   0  0  0  0  0  0  0  0  0  0  0  0
    8.6864  -16.7386   25.2264 C   0  0  0  0  0  0  0  0  0  0  0  0
    9.8435  -17.5217   27.1374 O   0  0  0  0  0  0  0  0  0  0  0  0
    9.8042  -18.6780   26.6151 C   0  0  0  0  0  0  0  0  0  0  0  0
    8.4167  -13.1779   27.0837 C   0  0  0  0  0  0  0  0  0  0  0  0
    7.9054  -11.9884   26.6031 O   0  0  0  0  0  0  0  0  0  0  0  0
  1  2  1  0
  3  2  1  0
  4  3  1  0
  5  4  1  0
  5  1  1  0
  6  7  2  0
  5  6  1  1
  9 11  1  0
  9  8  1  0
 10  9  2  0
 12 13  1  0
 12 11  1  0
 15 14  1  6
 14 13  1  0
 15 16  1  0
 16  6  1  0
 17 26  1  0
 17 15  1  0
 18 17  2  0
 20 19  1  0
 21 20  2  0
 22 21  1  0
 23 22  2  0
 23 29  1  0
 24 23  1  0
 25 24  1  6
 25 26  1  0
 27 31  1  0
 27 25  1  0
 28 27  2  0
 29 30  2  0
 30 20  1  0
M  END
$$$$
