PRY.pdb
     RDKit          3D

 31 32  0  0  1  0  0  0  0  0999 V2000
    8.9444  -14.0577   19.3492 N   0  0  0  0  0  0  0  0  0  0  0  0
    8.0440  -14.1568   18.2441 C   0  0  0  0  0  0  0  0  0  0  0  0
    7.1017  -12.9957   18.4461 C   0  0  0  0  0  0  0  0  0  0  0  0
    6.8859  -13.0738   19.9617 C   0  0  0  0  0  0  0  0  0  0  0  0
    8.2117  -13.6156   20.4934 C   0  0  1  0  0  0  0  0  0  0  0  0
    7.9512  -14.7258   21.4610 C   0  0  0  0  0  0  0  0  0  0  0  0
    6.9471  -14.6519   22.2440 O   0  0  0  0  0  0  0  0  0  0  0  0
    6.8482  -20.6785   18.7373 N   0  0  0  0  0  0  0  0  0  0  0  0
    8.1158  -20.3713   18.1769 C   0  0  0  0  0  0  0  0  0  0  0  0
    8.3382  -20.3708   16.8960 N   0  0  0  0  0  0  0  0  0  0  0  0
    9.2534  -20.0350   18.9934 N   0  0  0  0  0  0  0  0  0  0  0  0
    9.1943  -20.0594   20.4237 C   0  0  0  0  0  0  0  0  0  0  0  0
    8.4478  -18.8611   21.0055 C   0  0  0  0  0  0  0  0  0  0  0  0
    9.2325  -18.1757   22.0575 C   0  0  0  0  0  0  0  0  0  0  0  0
    8.5469  -16.9176   22.5837 C   0  0  2  0  0  0  0  0  0  0  0  0
    8.7644  -15.8631   21.5555 N   0  0  0  0  0  0  0  0  0  0  0  0
    9.1314  -16.4532   23.8411 C   0  0  0  0  0  0  0  0  0  0  0  0
   10.2735  -15.9110   23.8058 O   0  0  0  0  0  0  0  0  0  0  0  0
    9.3132  -20.1455   16.5955 O   0  0  0  0  0  0  0  0  0  0  0  0
    6.7093  -10.3508   25.3435 C   0  0  0  0  0  0  0  0  0  0  0  0
    7.0665  -11.6009   25.8151 C   0  0  0  0  0  0  0  0  0  0  0  0
    8.3911  -11.8628   26.0892 C   0  0  0  0  0  0  0  0  0  0  0  0
    8.7549  -13.1060   26.5597 C   0  0  0  0  0  0  0  0  0  0  0  0
    7.8741  -14.1379   26.7842 C   0  0  0  0  0  0  0  0  0  0  0  0
    8.3577  -15.4200   27.2830 C   0  0  2  0  0  0  0  0  0  0  0  0
    9.2292  -16.1857   26.3511 N   0  0  0  0  0  0  0  0  0  0  0  0
    8.5379  -16.5445   25.1298 C   0  0  0  0  0  0  0  0  0  0  0  0
    9.7948  -17.4000   26.9443 O   0  0  0  0  0  0  0  0  0  0  0  0
   10.5140  -17.3825   27.9902 C   0  0  0  0  0  0  0  0  0  0  0  0
    6.5410  -13.8535   26.5013 C   0  0  0  0  0  0  0  0  0  0  0  0
    6.1580  -12.6134   26.0293 O   0  0  0  0  0  0  0  0  0  0  0  0
  1  2  1  0
  3  2  1  0
  4  3  1  0
  5  4  1  0
  5  1  1  0
  6  7  2  0
  5  6  1  1
  9 11  1  0
  9  8  1  0
 10  9  2  0
 12 13  1  0
 12 11  1  0
 15 14  1  6
 14 13  1  0
 15 16  1  0
 16  6  1  0
 17 26  1  0
 17 15  1  0
 18 17  2  0
 20 19  1  0
 21 20  2  0
 22 21  1  0
 23 22  2  0
 23 29  1  0
 24 23  1  0
 25 24  1  6
 25 26  1  0
 27 31  1  0
 27 25  1  0
 28 27  2  0
 29 30  2  0
 30 20  1  0
M  END
$$$$
