PRY.pdb
     RDKit          3D

 31 32  0  0  1  0  0  0  0  0999 V2000
    9.2319  -13.9473   18.1232 N   0  0  0  0  0  0  0  0  0  0  0  0
    8.1646  -14.1759   17.2011 C   0  0  0  0  0  0  0  0  0  0  0  0
    7.1461  -13.1239   17.5658 C   0  0  0  0  0  0  0  0  0  0  0  0
    7.2178  -13.1868   19.0957 C   0  0  0  0  0  0  0  0  0  0  0  0
    8.6714  -13.5615   19.3796 C   0  0  1  0  0  0  0  0  0  0  0  0
    8.7200  -14.6687   20.3837 C   0  0  0  0  0  0  0  0  0  0  0  0
    7.9977  -14.5958   21.4324 O   0  0  0  0  0  0  0  0  0  0  0  0
    8.6746  -19.2214   16.8113 N   0  0  0  0  0  0  0  0  0  0  0  0
    8.7560  -20.5564   17.2867 C   0  0  0  0  0  0  0  0  0  0  0  0
    7.9937  -21.5106   16.8410 N   0  0  0  0  0  0  0  0  0  0  0  0
    9.6961  -20.9518   18.3035 N   0  0  0  0  0  0  0  0  0  0  0  0
   10.4533  -19.9933   19.0505 C   0  0  0  0  0  0  0  0  0  0  0  0
    9.5717  -18.9936   19.7955 C   0  0  0  0  0  0  0  0  0  0  0  0
   10.3706  -18.0345   20.5916 C   0  0  0  0  0  0  0  0  0  0  0  0
    9.5228  -16.9256   21.2091 C   0  0  2  0  0  0  0  0  0  0  0  0
    9.5300  -15.8022   20.2323 N   0  0  0  0  0  0  0  0  0  0  0  0
   10.0831  -16.4362   22.4682 C   0  0  0  0  0  0  0  0  0  0  0  0
   11.2939  -16.0711   22.4824 O   0  0  0  0  0  0  0  0  0  0  0  0
    8.0726  -22.4318   17.3279 O   0  0  0  0  0  0  0  0  0  0  0  0
   11.1331  -14.5616   31.1409 C   0  0  0  0  0  0  0  0  0  0  0  0
   10.6157  -14.7319   29.8697 C   0  0  0  0  0  0  0  0  0  0  0  0
   10.4212  -16.0081   29.3884 C   0  0  0  0  0  0  0  0  0  0  0  0
    9.9057  -16.1861   28.1226 C   0  0  0  0  0  0  0  0  0  0  0  0
    9.5596  -15.1596   27.2756 C   0  0  0  0  0  0  0  0  0  0  0  0
    9.0222  -15.4505   25.9515 C   0  0  1  0  0  0  0  0  0  0  0  0
   10.0227  -15.8471   24.9239 N   0  0  0  0  0  0  0  0  0  0  0  0
    9.3953  -16.3203   23.7070 C   0  0  0  0  0  0  0  0  0  0  0  0
   10.9684  -16.8640   25.3904 O   0  0  0  0  0  0  0  0  0  0  0  0
   12.1278  -16.5776   25.8209 C   0  0  0  0  0  0  0  0  0  0  0  0
    9.7636  -13.8782   27.7800 C   0  0  0  0  0  0  0  0  0  0  0  0
   10.2790  -13.6809   29.0461 O   0  0  0  0  0  0  0  0  0  0  0  0
  1  2  1  0
  3  2  1  0
  4  3  1  0
  5  4  1  0
  5  1  1  0
  6  7  2  0
  5  6  1  1
  9 11  1  0
  9  8  1  0
 10  9  2  0
 12 13  1  0
 12 11  1  0
 15 14  1  6
 14 13  1  0
 15 16  1  0
 16  6  1  0
 17 26  1  0
 17 15  1  0
 18 17  2  0
 20 19  1  0
 21 20  2  0
 22 21  1  0
 23 22  2  0
 23 29  1  0
 24 23  1  0
 25 24  1  6
 25 26  1  0
 27 31  1  0
 27 25  1  0
 28 27  2  0
 29 30  2  0
 30 20  1  0
M  END
$$$$
