PRY.pdb
     RDKit          3D

 31 32  0  0  1  0  0  0  0  0999 V2000
    9.2088  -13.8810   19.3545 N   0  0  0  0  0  0  0  0  0  0  0  0
    8.3237  -13.9494   18.2349 C   0  0  0  0  0  0  0  0  0  0  0  0
    7.4097  -12.7647   18.4293 C   0  0  0  0  0  0  0  0  0  0  0  0
    7.1679  -12.8458   19.9408 C   0  0  0  0  0  0  0  0  0  0  0  0
    8.4701  -13.4261   20.4899 C   0  0  1  0  0  0  0  0  0  0  0  0
    8.1646  -14.5346   21.4462 C   0  0  0  0  0  0  0  0  0  0  0  0
    7.2439  -14.3771   22.3147 O   0  0  0  0  0  0  0  0  0  0  0  0
   10.4874  -17.6733   17.7030 N   0  0  0  0  0  0  0  0  0  0  0  0
    9.5765  -18.7262   17.4258 C   0  0  0  0  0  0  0  0  0  0  0  0
    8.9934  -18.8677   16.2724 N   0  0  0  0  0  0  0  0  0  0  0  0
    9.2317  -19.7199   18.4094 N   0  0  0  0  0  0  0  0  0  0  0  0
    9.5151  -19.5399   19.8012 C   0  0  0  0  0  0  0  0  0  0  0  0
    8.9472  -18.2360   20.3568 C   0  0  0  0  0  0  0  0  0  0  0  0
    9.1479  -18.1218   21.8194 C   0  0  0  0  0  0  0  0  0  0  0  0
    8.5386  -16.8502   22.4039 C   0  0  2  0  0  0  0  0  0  0  0  0
    8.8468  -15.7587   21.4397 N   0  0  0  0  0  0  0  0  0  0  0  0
    9.1284  -16.4962   23.6944 C   0  0  0  0  0  0  0  0  0  0  0  0
   10.2771  -15.9670   23.7022 O   0  0  0  0  0  0  0  0  0  0  0  0
    8.3776  -19.7050   16.1647 O   0  0  0  0  0  0  0  0  0  0  0  0
    6.1321  -10.7251   25.9146 C   0  0  0  0  0  0  0  0  0  0  0  0
    6.7122  -11.9424   26.2216 C   0  0  0  0  0  0  0  0  0  0  0  0
    5.9202  -12.9628   26.7010 C   0  0  0  0  0  0  0  0  0  0  0  0
    6.4909  -14.1789   27.0090 C   0  0  0  0  0  0  0  0  0  0  0  0
    7.8291  -14.4638   26.8718 C   0  0  0  0  0  0  0  0  0  0  0  0
    8.3385  -15.7833   27.2267 C   0  0  2  0  0  0  0  0  0  0  0  0
    9.2251  -16.4235   26.2176 N   0  0  0  0  0  0  0  0  0  0  0  0
    8.5334  -16.6841   24.9718 C   0  0  0  0  0  0  0  0  0  0  0  0
    9.8371  -17.6702   26.6842 O   0  0  0  0  0  0  0  0  0  0  0  0
    9.6760  -18.7793   26.0881 C   0  0  0  0  0  0  0  0  0  0  0  0
    8.6123  -13.4202   26.3863 C   0  0  0  0  0  0  0  0  0  0  0  0
    8.0577  -12.1950   26.0724 O   0  0  0  0  0  0  0  0  0  0  0  0
  1  2  1  0
  3  2  1  0
  4  3  1  0
  5  4  1  0
  5  1  1  0
  6  7  2  0
  5  6  1  1
  9 11  1  0
  9  8  1  0
 10  9  2  0
 12 13  1  0
 12 11  1  0
 15 14  1  6
 14 13  1  0
 15 16  1  0
 16  6  1  0
 17 26  1  0
 17 15  1  0
 18 17  2  0
 20 19  1  0
 21 20  2  0
 22 21  1  0
 23 22  2  0
 23 29  1  0
 24 23  1  0
 25 24  1  6
 25 26  1  0
 27 31  1  0
 27 25  1  0
 28 27  2  0
 29 30  2  0
 30 20  1  0
M  END
$$$$
