PRY.pdb
     RDKit          3D

 31 32  0  0  1  0  0  0  0  0999 V2000
    7.2960  -19.7735   22.5018 N   0  0  0  0  0  0  0  0  0  0  0  0
    6.8707  -20.2234   21.2141 C   0  0  0  0  0  0  0  0  0  0  0  0
    7.1250  -21.7102   21.2532 C   0  0  0  0  0  0  0  0  0  0  0  0
    8.4859  -21.7405   21.9580 C   0  0  0  0  0  0  0  0  0  0  0  0
    8.4422  -20.5323   22.8919 C   0  0  1  0  0  0  0  0  0  0  0  0
    9.7093  -19.7485   22.7622 C   0  0  0  0  0  0  0  0  0  0  0  0
   10.8078  -20.2635   23.1559 O   0  0  0  0  0  0  0  0  0  0  0  0
    8.5265  -14.4729   16.6436 N   0  0  0  0  0  0  0  0  0  0  0  0
    8.4375  -13.7902   17.8851 C   0  0  0  0  0  0  0  0  0  0  0  0
    8.0869  -12.5419   17.9790 N   0  0  0  0  0  0  0  0  0  0  0  0
    8.7308  -14.4370   19.1379 N   0  0  0  0  0  0  0  0  0  0  0  0
    9.8215  -15.3535   19.2814 C   0  0  0  0  0  0  0  0  0  0  0  0
    9.8794  -15.9919   20.6673 C   0  0  0  0  0  0  0  0  0  0  0  0
   10.9909  -16.9629   20.7851 C   0  0  0  0  0  0  0  0  0  0  0  0
   11.0184  -17.6714   22.1368 C   0  0  2  0  0  0  0  0  0  0  0  0
    9.7563  -18.4564   22.2219 N   0  0  0  0  0  0  0  0  0  0  0  0
   11.0438  -16.7296   23.2552 C   0  0  0  0  0  0  0  0  0  0  0  0
   11.5097  -15.5716   23.0518 O   0  0  0  0  0  0  0  0  0  0  0  0
    8.0823  -12.1334   18.9407 O   0  0  0  0  0  0  0  0  0  0  0  0
    6.0932  -11.2660   27.5345 C   0  0  0  0  0  0  0  0  0  0  0  0
    6.7086  -12.2902   26.8381 C   0  0  0  0  0  0  0  0  0  0  0  0
    7.9949  -12.1121   26.3776 C   0  0  0  0  0  0  0  0  0  0  0  0
    8.6150  -13.1282   25.6831 C   0  0  0  0  0  0  0  0  0  0  0  0
    8.0343  -14.3431   25.4043 C   0  0  0  0  0  0  0  0  0  0  0  0
    8.7734  -15.3560   24.6598 C   0  0  2  0  0  0  0  0  0  0  0  0
    9.9073  -15.9890   25.3862 N   0  0  0  0  0  0  0  0  0  0  0  0
   10.5865  -16.9807   24.5777 C   0  0  0  0  0  0  0  0  0  0  0  0
    9.5163  -16.6065   26.6559 O   0  0  0  0  0  0  0  0  0  0  0  0
    9.6503  -16.0210   27.7743 C   0  0  0  0  0  0  0  0  0  0  0  0
    6.7350  -14.5035   25.8778 C   0  0  0  0  0  0  0  0  0  0  0  0
    6.0979  -13.4963   26.5757 O   0  0  0  0  0  0  0  0  0  0  0  0
  1  2  1  0
  3  2  1  0
  4  3  1  0
  5  4  1  0
  5  1  1  0
  6  7  2  0
  5  6  1  6
  9 11  1  0
  9  8  1  0
 10  9  2  0
 12 13  1  0
 12 11  1  0
 15 14  1  6
 14 13  1  0
 15 16  1  0
 16  6  1  0
 17 26  1  0
 17 15  1  0
 18 17  2  0
 20 19  1  0
 21 20  2  0
 22 21  1  0
 23 22  2  0
 23 29  1  0
 24 23  1  0
 25 24  1  6
 25 26  1  0
 27 31  1  0
 27 25  1  0
 28 27  2  0
 29 30  2  0
 30 20  1  0
M  END
$$$$
