PRY.pdb
     RDKit          3D

 31 32  0  0  1  0  0  0  0  0999 V2000
   11.3536  -19.7045   20.1878 N   0  0  0  0  0  0  0  0  0  0  0  0
   11.0194  -19.8445   18.8056 C   0  0  0  0  0  0  0  0  0  0  0  0
   12.2463  -19.3372   18.0884 C   0  0  0  0  0  0  0  0  0  0  0  0
   12.5846  -18.1142   18.9483 C   0  0  0  0  0  0  0  0  0  0  0  0
   12.1251  -18.5128   20.3497 C   0  0  1  0  0  0  0  0  0  0  0  0
   11.3277  -17.4014   20.9542 C   0  0  0  0  0  0  0  0  0  0  0  0
   11.8505  -16.2433   21.0649 O   0  0  0  0  0  0  0  0  0  0  0  0
    6.6921  -12.7805   18.0593 N   0  0  0  0  0  0  0  0  0  0  0  0
    7.8163  -12.9555   18.9082 C   0  0  0  0  0  0  0  0  0  0  0  0
    8.6427  -11.9923   19.1903 N   0  0  0  0  0  0  0  0  0  0  0  0
    8.1231  -14.2215   19.5224 N   0  0  0  0  0  0  0  0  0  0  0  0
    7.3659  -15.4039   19.2420 C   0  0  0  0  0  0  0  0  0  0  0  0
    7.9014  -16.6355   19.9686 C   0  0  0  0  0  0  0  0  0  0  0  0
    7.8643  -16.4718   21.4397 C   0  0  0  0  0  0  0  0  0  0  0  0
    9.2540  -16.4676   22.0710 C   0  0  2  0  0  0  0  0  0  0  0  0
   10.0140  -17.5660   21.4135 N   0  0  0  0  0  0  0  0  0  0  0  0
    9.2108  -16.7415   23.5068 C   0  0  0  0  0  0  0  0  0  0  0  0
    9.3312  -17.9405   23.8911 O   0  0  0  0  0  0  0  0  0  0  0  0
    9.5179  -12.2652   19.6916 O   0  0  0  0  0  0  0  0  0  0  0  0
    4.8500  -11.2222   26.3364 C   0  0  0  0  0  0  0  0  0  0  0  0
    5.9133  -12.1028   26.4167 C   0  0  0  0  0  0  0  0  0  0  0  0
    5.9194  -13.0612   27.4065 C   0  0  0  0  0  0  0  0  0  0  0  0
    6.9754  -13.9425   27.4928 C   0  0  0  0  0  0  0  0  0  0  0  0
    8.0571  -13.9414   26.6438 C   0  0  0  0  0  0  0  0  0  0  0  0
    9.1277  -14.9160   26.8181 C   0  0  1  0  0  0  0  0  0  0  0  0
    9.0474  -16.1222   25.9504 N   0  0  0  0  0  0  0  0  0  0  0  0
    9.0476  -15.7813   24.5425 C   0  0  0  0  0  0  0  0  0  0  0  0
    7.8826  -16.9660   26.2287 O   0  0  0  0  0  0  0  0  0  0  0  0
    6.9110  -17.0837   25.4203 C   0  0  0  0  0  0  0  0  0  0  0  0
    8.0324  -12.9657   25.6510 C   0  0  0  0  0  0  0  0  0  0  0  0
    6.9824  -12.0744   25.5491 O   0  0  0  0  0  0  0  0  0  0  0  0
  1  2  1  0
  3  2  1  0
  4  3  1  0
  5  4  1  0
  5  1  1  0
  6  7  2  0
  5  6  1  6
  9 11  1  0
  9  8  1  0
 10  9  2  0
 12 13  1  0
 12 11  1  0
 15 14  1  6
 14 13  1  0
 15 16  1  0
 16  6  1  0
 17 26  1  0
 17 15  1  0
 18 17  2  0
 20 19  1  0
 21 20  2  0
 22 21  1  0
 23 22  2  0
 23 29  1  0
 24 23  1  0
 25 24  1  6
 25 26  1  0
 27 31  1  0
 27 25  1  0
 28 27  2  0
 29 30  2  0
 30 20  1  0
M  END
$$$$
