PRY.pdb
     RDKit          3D

 31 32  0  0  1  0  0  0  0  0999 V2000
    9.0938  -14.1752   18.9689 N   0  0  0  0  0  0  0  0  0  0  0  0
    8.1811  -14.0734   17.8743 C   0  0  0  0  0  0  0  0  0  0  0  0
    7.6435  -12.6680   17.9870 C   0  0  0  0  0  0  0  0  0  0  0  0
    7.4490  -12.5661   19.5041 C   0  0  0  0  0  0  0  0  0  0  0  0
    8.5577  -13.4481   20.0760 C   0  0  1  0  0  0  0  0  0  0  0  0
    7.9926  -14.3518   21.1250 C   0  0  0  0  0  0  0  0  0  0  0  0
    7.3490  -13.8492   22.1048 O   0  0  0  0  0  0  0  0  0  0  0  0
    8.2584  -22.5689   23.5983 N   0  0  0  0  0  0  0  0  0  0  0  0
    8.9595  -21.8428   22.6002 C   0  0  0  0  0  0  0  0  0  0  0  0
   10.2535  -21.8800   22.4802 N   0  0  0  0  0  0  0  0  0  0  0  0
    8.2822  -21.0077   21.6421 N   0  0  0  0  0  0  0  0  0  0  0  0
    6.9932  -20.4427   21.9056 C   0  0  0  0  0  0  0  0  0  0  0  0
    7.0735  -19.0529   22.5328 C   0  0  0  0  0  0  0  0  0  0  0  0
    7.6008  -18.0455   21.5844 C   0  0  0  0  0  0  0  0  0  0  0  0
    7.5947  -16.6310   22.1578 C   0  0  2  0  0  0  0  0  0  0  0  0
    8.1340  -15.7456   21.0893 N   0  0  0  0  0  0  0  0  0  0  0  0
    8.4588  -16.5053   23.3308 C   0  0  0  0  0  0  0  0  0  0  0  0
    9.7009  -16.3549   23.1456 O   0  0  0  0  0  0  0  0  0  0  0  0
   10.6626  -21.3168   21.7009 O   0  0  0  0  0  0  0  0  0  0  0  0
    5.8755  -10.6254   25.5844 C   0  0  0  0  0  0  0  0  0  0  0  0
    6.5073  -11.8130   25.9056 C   0  0  0  0  0  0  0  0  0  0  0  0
    5.7454  -12.9315   26.1639 C   0  0  0  0  0  0  0  0  0  0  0  0
    6.3676  -14.1187   26.4844 C   0  0  0  0  0  0  0  0  0  0  0  0
    7.7305  -14.2809   26.5698 C   0  0  0  0  0  0  0  0  0  0  0  0
    8.2944  -15.5797   26.9182 C   0  0  2  0  0  0  0  0  0  0  0  0
    8.9451  -16.3189   25.8027 N   0  0  0  0  0  0  0  0  0  0  0  0
    8.0423  -16.5308   24.6899 C   0  0  0  0  0  0  0  0  0  0  0  0
    9.5047  -17.6114   26.2057 O   0  0  0  0  0  0  0  0  0  0  0  0
   10.4142  -17.7220   27.0844 C   0  0  0  0  0  0  0  0  0  0  0  0
    8.4826  -13.1395   26.3054 C   0  0  0  0  0  0  0  0  0  0  0  0
    7.8762  -11.9415   25.9825 O   0  0  0  0  0  0  0  0  0  0  0  0
  1  2  1  0
  3  2  1  0
  4  3  1  0
  5  4  1  0
  5  1  1  0
  6  7  2  0
  5  6  1  1
  9 11  1  0
  9  8  1  0
 10  9  2  0
 12 13  1  0
 12 11  1  0
 15 14  1  6
 14 13  1  0
 15 16  1  0
 16  6  1  0
 17 26  1  0
 17 15  1  0
 18 17  2  0
 20 19  1  0
 21 20  2  0
 22 21  1  0
 23 22  2  0
 23 29  1  0
 24 23  1  0
 25 24  1  6
 25 26  1  0
 27 31  1  0
 27 25  1  0
 28 27  2  0
 29 30  2  0
 30 20  1  0
M  END
$$$$
