PRY.pdb
     RDKit          3D

 31 32  0  0  1  0  0  0  0  0999 V2000
    7.5986  -21.4005   22.3864 N   0  0  0  0  0  0  0  0  0  0  0  0
    6.7303  -21.8907   21.3629 C   0  0  0  0  0  0  0  0  0  0  0  0
    7.5310  -22.9919   20.7125 C   0  0  0  0  0  0  0  0  0  0  0  0
    8.9156  -22.3362   20.6628 C   0  0  0  0  0  0  0  0  0  0  0  0
    8.9414  -21.4398   21.8996 C   0  0  1  0  0  0  0  0  0  0  0  0
    9.4475  -20.0824   21.5283 C   0  0  0  0  0  0  0  0  0  0  0  0
   10.6375  -19.9564   21.0869 O   0  0  0  0  0  0  0  0  0  0  0  0
    8.3761  -12.6292   20.8266 N   0  0  0  0  0  0  0  0  0  0  0  0
    8.3913  -12.5427   19.4098 C   0  0  0  0  0  0  0  0  0  0  0  0
    8.7908  -11.4820   18.7731 N   0  0  0  0  0  0  0  0  0  0  0  0
    7.9626  -13.6320   18.5710 N   0  0  0  0  0  0  0  0  0  0  0  0
    7.5229  -14.8811   19.1154 C   0  0  0  0  0  0  0  0  0  0  0  0
    8.5553  -15.5187   20.0424 C   0  0  0  0  0  0  0  0  0  0  0  0
    8.1426  -16.8691   20.4875 C   0  0  0  0  0  0  0  0  0  0  0  0
    9.2084  -17.5681   21.3272 C   0  0  2  0  0  0  0  0  0  0  0  0
    8.6716  -18.9209   21.6405 N   0  0  0  0  0  0  0  0  0  0  0  0
    9.4602  -16.8757   22.5905 C   0  0  0  0  0  0  0  0  0  0  0  0
    8.4669  -16.5483   23.3016 O   0  0  0  0  0  0  0  0  0  0  0  0
    8.6694  -11.4918   17.7353 O   0  0  0  0  0  0  0  0  0  0  0  0
   10.5390  -14.2619   30.6439 C   0  0  0  0  0  0  0  0  0  0  0  0
   10.3492  -14.6853   29.3410 C   0  0  0  0  0  0  0  0  0  0  0  0
   10.6363  -15.9914   29.0099 C   0  0  0  0  0  0  0  0  0  0  0  0
   10.4495  -16.4209   27.7137 C   0  0  0  0  0  0  0  0  0  0  0  0
    9.9852  -15.6250   26.6930 C   0  0  0  0  0  0  0  0  0  0  0  0
    9.8223  -16.1729   25.3514 C   0  0  1  0  0  0  0  0  0  0  0  0
   10.9073  -15.8461   24.3869 N   0  0  0  0  0  0  0  0  0  0  0  0
   10.7325  -16.5258   23.1197 C   0  0  0  0  0  0  0  0  0  0  0  0
   12.2495  -16.1393   24.8954 O   0  0  0  0  0  0  0  0  0  0  0  0
   12.8364  -17.2455   24.6870 C   0  0  0  0  0  0  0  0  0  0  0  0
    9.7009  -14.3091   27.0476 C   0  0  0  0  0  0  0  0  0  0  0  0
    9.8819  -13.8613   28.3415 O   0  0  0  0  0  0  0  0  0  0  0  0
  1  2  1  0
  3  2  1  0
  4  3  1  0
  5  4  1  0
  5  1  1  0
  6  7  2  0
  5  6  1  6
  9 11  1  0
  9  8  1  0
 10  9  2  0
 12 13  1  0
 12 11  1  0
 15 14  1  6
 14 13  1  0
 15 16  1  0
 16  6  1  0
 17 26  1  0
 17 15  1  0
 18 17  2  0
 20 19  1  0
 21 20  2  0
 22 21  1  0
 23 22  2  0
 23 29  1  0
 24 23  1  0
 25 24  1  6
 25 26  1  0
 27 31  1  0
 27 25  1  0
 28 27  2  0
 29 30  2  0
 30 20  1  0
M  END
$$$$
