PRY.pdb
     RDKit          3D

 31 32  0  0  1  0  0  0  0  0999 V2000
    9.3711  -14.1661   19.3240 N   0  0  0  0  0  0  0  0  0  0  0  0
    8.5546  -14.3288   18.1628 C   0  0  0  0  0  0  0  0  0  0  0  0
    7.6478  -13.1232   18.1921 C   0  0  0  0  0  0  0  0  0  0  0  0
    7.3137  -13.0634   19.6869 C   0  0  0  0  0  0  0  0  0  0  0  0
    8.5717  -13.6026   20.3656 C   0  0  1  0  0  0  0  0  0  0  0  0
    8.1928  -14.6161   21.3980 C   0  0  0  0  0  0  0  0  0  0  0  0
    7.2903  -14.3321   22.2534 O   0  0  0  0  0  0  0  0  0  0  0  0
   10.9942  -20.3393   18.9284 N   0  0  0  0  0  0  0  0  0  0  0  0
   10.3085  -19.4375   18.0730 C   0  0  0  0  0  0  0  0  0  0  0  0
   10.8025  -19.0245   16.9435 N   0  0  0  0  0  0  0  0  0  0  0  0
    9.0073  -18.9127   18.3976 N   0  0  0  0  0  0  0  0  0  0  0  0
    8.4738  -18.9748   19.7248 C   0  0  0  0  0  0  0  0  0  0  0  0
    9.3477  -18.2532   20.7481 C   0  0  0  0  0  0  0  0  0  0  0  0
    8.7184  -18.2163   22.0878 C   0  0  0  0  0  0  0  0  0  0  0  0
    8.5627  -16.7984   22.6310 C   0  0  2  0  0  0  0  0  0  0  0  0
    8.7857  -15.8834   21.4780 N   0  0  0  0  0  0  0  0  0  0  0  0
    9.5568  -16.4864   23.6572 C   0  0  0  0  0  0  0  0  0  0  0  0
   10.6230  -17.1660   23.6835 O   0  0  0  0  0  0  0  0  0  0  0  0
   10.2322  -18.3250   16.4170 O   0  0  0  0  0  0  0  0  0  0  0  0
    5.6072  -10.6271   25.9188 C   0  0  0  0  0  0  0  0  0  0  0  0
    6.1812  -11.8734   26.0922 C   0  0  0  0  0  0  0  0  0  0  0  0
    7.4867  -11.9582   26.5242 C   0  0  0  0  0  0  0  0  0  0  0  0
    8.0656  -13.1965   26.6996 C   0  0  0  0  0  0  0  0  0  0  0  0
    7.4243  -14.3912   26.4705 C   0  0  0  0  0  0  0  0  0  0  0  0
    8.1243  -15.6525   26.6842 C   0  0  2  0  0  0  0  0  0  0  0  0
    9.4771  -15.7493   26.0720 N   0  0  0  0  0  0  0  0  0  0  0  0
    9.4525  -15.4742   24.6500 C   0  0  0  0  0  0  0  0  0  0  0  0
   10.1252  -17.0453   26.2881 O   0  0  0  0  0  0  0  0  0  0  0  0
   10.3277  -17.8767   25.3504 C   0  0  0  0  0  0  0  0  0  0  0  0
    6.1064  -14.2843   26.0347 C   0  0  0  0  0  0  0  0  0  0  0  0
    5.5100  -13.0519   25.8535 O   0  0  0  0  0  0  0  0  0  0  0  0
  1  2  1  0
  3  2  1  0
  4  3  1  0
  5  4  1  0
  5  1  1  0
  6  7  2  0
  5  6  1  1
  9 11  1  0
  9  8  1  0
 10  9  2  0
 12 13  1  0
 12 11  1  0
 15 14  1  6
 14 13  1  0
 15 16  1  0
 16  6  1  0
 17 26  1  0
 17 15  1  0
 18 17  2  0
 20 19  1  0
 21 20  2  0
 22 21  1  0
 23 22  2  0
 23 29  1  0
 24 23  1  0
 25 24  1  1
 25 26  1  0
 27 31  1  0
 27 25  1  0
 28 27  2  0
 29 30  2  0
 30 20  1  0
M  END
$$$$
