PRY.pdb
     RDKit          3D

 31 32  0  0  1  0  0  0  0  0999 V2000
    9.1099  -19.6919   18.9230 N   0  0  0  0  0  0  0  0  0  0  0  0
    8.4020  -19.5108   17.6951 C   0  0  0  0  0  0  0  0  0  0  0  0
    9.4961  -19.4488   16.6579 C   0  0  0  0  0  0  0  0  0  0  0  0
   10.5255  -18.5819   17.3918 C   0  0  0  0  0  0  0  0  0  0  0  0
   10.3221  -18.9379   18.8634 C   0  0  1  0  0  0  0  0  0  0  0  0
   10.2500  -17.6869   19.6797 C   0  0  0  0  0  0  0  0  0  0  0  0
   11.2906  -16.9604   19.8065 O   0  0  0  0  0  0  0  0  0  0  0  0
    8.3159  -13.2679   15.1431 N   0  0  0  0  0  0  0  0  0  0  0  0
    7.9955  -13.8521   16.3965 C   0  0  0  0  0  0  0  0  0  0  0  0
    7.9331  -15.1378   16.5791 N   0  0  0  0  0  0  0  0  0  0  0  0
    7.7155  -13.0563   17.5637 N   0  0  0  0  0  0  0  0  0  0  0  0
    7.3298  -13.6468   18.8097 C   0  0  0  0  0  0  0  0  0  0  0  0
    8.4561  -14.4481   19.4584 C   0  0  0  0  0  0  0  0  0  0  0  0
    8.0108  -15.1314   20.6942 C   0  0  0  0  0  0  0  0  0  0  0  0
    9.0566  -16.0951   21.2486 C   0  0  2  0  0  0  0  0  0  0  0  0
    9.0803  -17.2616   20.3239 N   0  0  0  0  0  0  0  0  0  0  0  0
    8.7094  -16.5808   22.5835 C   0  0  0  0  0  0  0  0  0  0  0  0
    7.7495  -17.3972   22.6923 O   0  0  0  0  0  0  0  0  0  0  0  0
    7.7892  -15.4593   17.5628 O   0  0  0  0  0  0  0  0  0  0  0  0
    5.4386  -10.8446   28.0245 C   0  0  0  0  0  0  0  0  0  0  0  0
    6.1585  -11.6479   27.1591 C   0  0  0  0  0  0  0  0  0  0  0  0
    5.6147  -11.9754   25.9363 C   0  0  0  0  0  0  0  0  0  0  0  0
    6.3261  -12.7754   25.0683 C   0  0  0  0  0  0  0  0  0  0  0  0
    7.5738  -13.2887   25.3336 C   0  0  0  0  0  0  0  0  0  0  0  0
    8.2463  -14.1284   24.3491 C   0  0  1  0  0  0  0  0  0  0  0  0
    8.7125  -15.4522   24.8435 N   0  0  0  0  0  0  0  0  0  0  0  0
    9.3528  -16.2283   23.8013 C   0  0  0  0  0  0  0  0  0  0  0  0
    7.6479  -16.2603   25.4434 O   0  0  0  0  0  0  0  0  0  0  0  0
    6.6772  -16.7258   24.7707 C   0  0  0  0  0  0  0  0  0  0  0  0
    8.1059  -12.9466   26.5738 C   0  0  0  0  0  0  0  0  0  0  0  0
    7.4075  -12.1460   27.4562 O   0  0  0  0  0  0  0  0  0  0  0  0
  1  2  1  0
  3  2  1  0
  4  3  1  0
  5  4  1  0
  5  1  1  0
  6  7  2  0
  5  6  1  1
  9 11  1  0
  9  8  1  0
 10  9  2  0
 12 13  1  0
 12 11  1  0
 15 14  1  6
 14 13  1  0
 15 16  1  0
 16  6  1  0
 17 26  1  0
 17 15  1  0
 18 17  2  0
 20 19  1  0
 21 20  2  0
 22 21  1  0
 23 22  2  0
 23 29  1  0
 24 23  1  0
 25 24  1  1
 25 26  1  0
 27 31  1  0
 27 25  1  0
 28 27  2  0
 29 30  2  0
 30 20  1  0
M  END
$$$$
