PRY.pdb
     RDKit          3D

 31 32  0  0  1  0  0  0  0  0999 V2000
    9.1963  -14.7822   19.7881 N   0  0  0  0  0  0  0  0  0  0  0  0
    8.2740  -14.7692   18.6967 C   0  0  0  0  0  0  0  0  0  0  0  0
    7.7789  -13.3442   18.6644 C   0  0  0  0  0  0  0  0  0  0  0  0
    7.6054  -13.0766   20.1638 C   0  0  0  0  0  0  0  0  0  0  0  0
    8.6946  -13.9262   20.8163 C   0  0  1  0  0  0  0  0  0  0  0  0
    8.1159  -14.6965   21.9602 C   0  0  0  0  0  0  0  0  0  0  0  0
    7.4167  -14.0874   22.8359 O   0  0  0  0  0  0  0  0  0  0  0  0
    6.4830  -21.6230   24.7694 N   0  0  0  0  0  0  0  0  0  0  0  0
    5.9133  -21.5173   23.4735 C   0  0  0  0  0  0  0  0  0  0  0  0
    6.0872  -22.4178   22.5520 N   0  0  0  0  0  0  0  0  0  0  0  0
    5.0957  -20.3973   23.0849 N   0  0  0  0  0  0  0  0  0  0  0  0
    5.5700  -19.0486   23.1632 C   0  0  0  0  0  0  0  0  0  0  0  0
    6.7680  -18.7889   22.2528 C   0  0  0  0  0  0  0  0  0  0  0  0
    7.9408  -18.2912   23.0071 C   0  0  0  0  0  0  0  0  0  0  0  0
    7.8448  -16.8045   23.3393 C   0  0  2  0  0  0  0  0  0  0  0  0
    8.3031  -16.0755   22.1249 N   0  0  0  0  0  0  0  0  0  0  0  0
    8.7169  -16.4282   24.4511 C   0  0  0  0  0  0  0  0  0  0  0  0
    9.9636  -16.3798   24.2438 O   0  0  0  0  0  0  0  0  0  0  0  0
    5.6563  -22.2171   21.6215 O   0  0  0  0  0  0  0  0  0  0  0  0
    5.5087  -10.7923   24.9807 C   0  0  0  0  0  0  0  0  0  0  0  0
    6.2390  -11.7450   25.6675 C   0  0  0  0  0  0  0  0  0  0  0  0
    7.5768  -11.9037   25.3788 C   0  0  0  0  0  0  0  0  0  0  0  0
    8.3113  -12.8507   26.0591 C   0  0  0  0  0  0  0  0  0  0  0  0
    7.7996  -13.6756   27.0331 C   0  0  0  0  0  0  0  0  0  0  0  0
    8.6592  -14.6494   27.6959 C   0  0  2  0  0  0  0  0  0  0  0  0
    9.2249  -15.7103   26.8192 N   0  0  0  0  0  0  0  0  0  0  0  0
    8.3038  -16.0992   25.7711 C   0  0  0  0  0  0  0  0  0  0  0  0
    9.6403  -16.9112   27.5483 O   0  0  0  0  0  0  0  0  0  0  0  0
   10.5329  -16.8923   28.4507 C   0  0  0  0  0  0  0  0  0  0  0  0
    6.4467  -13.4998   27.3103 C   0  0  0  0  0  0  0  0  0  0  0  0
    5.6950  -12.5557   26.6387 O   0  0  0  0  0  0  0  0  0  0  0  0
  1  2  1  0
  3  2  1  0
  4  3  1  0
  5  4  1  0
  5  1  1  0
  6  7  2  0
  5  6  1  1
  9 11  1  0
  9  8  1  0
 10  9  2  0
 12 13  1  0
 12 11  1  0
 15 14  1  6
 14 13  1  0
 15 16  1  0
 16  6  1  0
 17 26  1  0
 17 15  1  0
 18 17  2  0
 20 19  1  0
 21 20  2  0
 22 21  1  0
 23 22  2  0
 23 29  1  0
 24 23  1  0
 25 24  1  6
 25 26  1  0
 27 31  1  0
 27 25  1  0
 28 27  2  0
 29 30  2  0
 30 20  1  0
M  END
$$$$
