PRY.pdb
     RDKit          3D

 31 32  0  0  1  0  0  0  0  0999 V2000
    9.5870  -13.6259   19.1624 N   0  0  0  0  0  0  0  0  0  0  0  0
    8.8260  -13.9108   17.9871 C   0  0  0  0  0  0  0  0  0  0  0  0
    7.6767  -12.9359   18.0607 C   0  0  0  0  0  0  0  0  0  0  0  0
    7.3377  -13.0186   19.5533 C   0  0  0  0  0  0  0  0  0  0  0  0
    8.6834  -13.2991   20.2199 C   0  0  1  0  0  0  0  0  0  0  0  0
    8.5362  -14.4166   21.2028 C   0  0  0  0  0  0  0  0  0  0  0  0
    7.5961  -14.3743   22.0636 O   0  0  0  0  0  0  0  0  0  0  0  0
    7.5769  -20.0727   18.1945 N   0  0  0  0  0  0  0  0  0  0  0  0
    8.7385  -20.6625   18.7583 C   0  0  0  0  0  0  0  0  0  0  0  0
    8.7374  -21.8463   19.2958 N   0  0  0  0  0  0  0  0  0  0  0  0
   10.0102  -19.9868   18.7744 N   0  0  0  0  0  0  0  0  0  0  0  0
   10.5355  -19.3870   19.9636 C   0  0  0  0  0  0  0  0  0  0  0  0
    9.5710  -18.3874   20.5977 C   0  0  0  0  0  0  0  0  0  0  0  0
   10.1485  -17.7452   21.8003 C   0  0  0  0  0  0  0  0  0  0  0  0
    9.3203  -16.5632   22.2968 C   0  0  2  0  0  0  0  0  0  0  0  0
    9.3899  -15.5277   21.2295 N   0  0  0  0  0  0  0  0  0  0  0  0
    9.8617  -15.9853   23.5263 C   0  0  0  0  0  0  0  0  0  0  0  0
   10.1969  -14.7658   23.5171 O   0  0  0  0  0  0  0  0  0  0  0  0
    9.6286  -22.1497   19.7491 O   0  0  0  0  0  0  0  0  0  0  0  0
    5.9025  -10.9431   26.6644 C   0  0  0  0  0  0  0  0  0  0  0  0
    6.3547  -12.2312   26.4430 C   0  0  0  0  0  0  0  0  0  0  0  0
    7.6184  -12.5821   26.8650 C   0  0  0  0  0  0  0  0  0  0  0  0
    8.0760  -13.8639   26.6483 C   0  0  0  0  0  0  0  0  0  0  0  0
    7.3495  -14.8510   26.0249 C   0  0  0  0  0  0  0  0  0  0  0  0
    7.9231  -16.1790   25.8407 C   0  0  2  0  0  0  0  0  0  0  0  0
    9.4005  -16.2686   25.9937 N   0  0  0  0  0  0  0  0  0  0  0  0
   10.0528  -16.6623   24.7617 C   0  0  0  0  0  0  0  0  0  0  0  0
    9.8236  -17.1793   27.0605 O   0  0  0  0  0  0  0  0  0  0  0  0
    9.7367  -18.4418   26.9602 C   0  0  0  0  0  0  0  0  0  0  0  0
    6.0756  -14.4769   25.6060 C   0  0  0  0  0  0  0  0  0  0  0  0
    5.6004  -13.1971   25.8149 O   0  0  0  0  0  0  0  0  0  0  0  0
  1  2  1  0
  3  2  1  0
  4  3  1  0
  5  4  1  0
  5  1  1  0
  6  7  2  0
  5  6  1  1
  9 11  1  0
  9  8  1  0
 10  9  2  0
 12 13  1  0
 12 11  1  0
 15 14  1  6
 14 13  1  0
 15 16  1  0
 16  6  1  0
 17 26  1  0
 17 15  1  0
 18 17  2  0
 20 19  1  0
 21 20  2  0
 22 21  1  0
 23 22  2  0
 23 29  1  0
 24 23  1  0
 25 24  1  6
 25 26  1  0
 27 31  1  0
 27 25  1  0
 28 27  2  0
 29 30  2  0
 30 20  1  0
M  END
$$$$
