AAK.pdb
     RDKit          3D

 20 19  0  0  1  0  0  0  0  0999 V2000
   14.7215  -17.2657   15.4178 C   0  0  0  0  0  0  0  0  0  0  0  0
   13.6472  -18.3093   15.1948 C   0  0  2  0  0  0  0  0  0  0  0  0
   12.7139  -17.7893   14.2320 N   0  0  0  0  0  0  0  0  0  0  0  0
   12.9957  -18.6126   16.4987 C   0  0  0  0  0  0  0  0  0  0  0  0
   11.9597  -17.9742   16.7981 O   0  0  0  0  0  0  0  0  0  0  0  0
   13.3959  -21.2688   19.1647 C   0  0  0  0  0  0  0  0  0  0  0  0
   12.9405  -19.9449   18.6078 C   0  0  2  0  0  0  0  0  0  0  0  0
   13.5443  -19.5960   17.3616 N   0  0  0  0  0  0  0  0  0  0  0  0
   13.1534  -18.8286   19.5772 C   0  0  0  0  0  0  0  0  0  0  0  0
   14.1104  -18.0218   19.5043 O   0  0  0  0  0  0  0  0  0  0  0  0
   12.2490  -18.6269   20.6604 N   0  0  0  0  0  0  0  0  0  0  0  0
   12.4512  -17.5245   21.6184 C   0  0  1  0  0  0  0  0  0  0  0  0
   11.2052  -17.3470   22.4085 C   0  0  0  0  0  0  0  0  0  0  0  0
   11.0144  -16.0481   23.0934 C   0  0  0  0  0  0  0  0  0  0  0  0
    9.7230  -15.8069   23.7780 C   0  0  0  0  0  0  0  0  0  0  0  0
    9.6626  -14.4501   24.4607 C   0  0  0  0  0  0  0  0  0  0  0  0
    8.3607  -14.2329   25.0474 N   0  0  0  0  0  0  0  0  0  0  0  0
   13.6888  -17.7429   22.3517 C   0  0  0  0  0  0  0  0  0  0  0  0
   14.0331  -19.0523   22.7599 O   0  0  0  0  0  0  0  0  0  0  0  0
   14.5198  -16.8688   22.6755 O   0  0  0  0  0  0  0  0  0  0  0  0
  2  1  1  1
  2  3  1  0
  4  5  2  0
  4  2  1  0
  7  6  1  1
  7  8  1  0
  8  4  1  0
  9 10  2  0
  9  7  1  0
 11  9  1  0
 12 13  1  1
 12 11  1  0
 13 14  1  0
 14 15  1  0
 15 16  1  0
 16 17  1  0
 18 12  1  0
 19 18  1  0
 20 18  2  0
M  END
$$$$
