AAK.pdb
     RDKit          3D

 20 19  0  0  1  0  0  0  0  0999 V2000
    7.2712  -13.3500   17.9076 C   0  0  0  0  0  0  0  0  0  0  0  0
    8.6552  -13.6672   18.4342 C   0  0  2  0  0  0  0  0  0  0  0  0
    9.3647  -14.3919   17.4145 N   0  0  0  0  0  0  0  0  0  0  0  0
    8.5210  -14.4551   19.6903 C   0  0  0  0  0  0  0  0  0  0  0  0
    7.8246  -13.9713   20.6133 O   0  0  0  0  0  0  0  0  0  0  0  0
    9.6102  -17.9235   20.8105 C   0  0  0  0  0  0  0  0  0  0  0  0
    8.9354  -16.5816   20.9282 C   0  0  2  0  0  0  0  0  0  0  0  0
    9.1676  -15.7111   19.8204 N   0  0  0  0  0  0  0  0  0  0  0  0
    9.3163  -15.8737   22.1872 C   0  0  0  0  0  0  0  0  0  0  0  0
   10.4025  -15.2659   22.3378 O   0  0  0  0  0  0  0  0  0  0  0  0
    8.4332  -15.8588   23.3060 N   0  0  0  0  0  0  0  0  0  0  0  0
    8.6906  -14.9784   24.4603 C   0  0  1  0  0  0  0  0  0  0  0  0
    7.4419  -14.2403   24.7829 C   0  0  0  0  0  0  0  0  0  0  0  0
    7.4704  -13.3370   25.9559 C   0  0  0  0  0  0  0  0  0  0  0  0
    6.2398  -12.5779   26.2781 C   0  0  0  0  0  0  0  0  0  0  0  0
    6.3810  -11.7321   27.5333 C   0  0  0  0  0  0  0  0  0  0  0  0
    5.2053  -10.9170   27.7328 N   0  0  0  0  0  0  0  0  0  0  0  0
    9.3123  -15.7492   25.5264 C   0  0  0  0  0  0  0  0  0  0  0  0
    9.2674  -17.1618   25.4800 O   0  0  0  0  0  0  0  0  0  0  0  0
    9.9089  -15.2868   26.5213 O   0  0  0  0  0  0  0  0  0  0  0  0
  2  1  1  6
  2  3  1  0
  4  5  2  0
  4  2  1  0
  7  6  1  6
  7  8  1  0
  8  4  1  0
  9 10  2  0
  9  7  1  0
 11  9  1  0
 12 13  1  1
 12 11  1  0
 13 14  1  0
 14 15  1  0
 15 16  1  0
 16 17  1  0
 18 12  1  0
 19 18  1  0
 20 18  2  0
M  END
$$$$
