AAK.pdb
     RDKit          3D

 20 19  0  0  1  0  0  0  0  0999 V2000
    9.8940  -25.5020   23.5833 C   0  0  0  0  0  0  0  0  0  0  0  0
   10.9475  -24.5648   24.1354 C   0  0  2  0  0  0  0  0  0  0  0  0
   12.2358  -25.0429   23.7110 N   0  0  0  0  0  0  0  0  0  0  0  0
   10.8253  -24.5270   25.6188 C   0  0  0  0  0  0  0  0  0  0  0  0
   10.1098  -23.6311   26.1246 O   0  0  0  0  0  0  0  0  0  0  0  0
   11.8921  -26.7865   28.4722 C   0  0  0  0  0  0  0  0  0  0  0  0
   11.3834  -25.5169   27.8402 C   0  0  2  0  0  0  0  0  0  0  0  0
   11.5043  -25.4826   26.4178 N   0  0  0  0  0  0  0  0  0  0  0  0
   12.0450  -24.3053   28.4107 C   0  0  0  0  0  0  0  0  0  0  0  0
   13.1317  -23.8457   27.9865 O   0  0  0  0  0  0  0  0  0  0  0  0
   11.4502  -23.5978   29.4959 N   0  0  0  0  0  0  0  0  0  0  0  0
   12.0352  -22.3368   29.9871 C   0  0  1  0  0  0  0  0  0  0  0  0
   11.6331  -21.2378   29.0712 C   0  0  0  0  0  0  0  0  0  0  0  0
   12.1548  -19.8835   29.3650 C   0  0  0  0  0  0  0  0  0  0  0  0
   11.7659  -18.7777   28.4592 C   0  0  0  0  0  0  0  0  0  0  0  0
   12.3644  -17.4420   28.8694 C   0  0  0  0  0  0  0  0  0  0  0  0
   12.0360  -16.4190   27.9039 N   0  0  0  0  0  0  0  0  0  0  0  0
   11.7296  -22.1812   31.4012 C   0  0  0  0  0  0  0  0  0  0  0  0
   12.4118  -21.1990   32.1559 O   0  0  0  0  0  0  0  0  0  0  0  0
   10.8963  -22.8436   32.0542 O   0  0  0  0  0  0  0  0  0  0  0  0
  2  1  1  6
  2  3  1  0
  4  5  2  0
  4  2  1  0
  7  6  1  1
  7  8  1  0
  8  4  1  0
  9 10  2  0
  9  7  1  0
 11  9  1  0
 12 13  1  6
 12 11  1  0
 13 14  1  0
 14 15  1  0
 15 16  1  0
 16 17  1  0
 18 12  1  0
 19 18  1  0
 20 18  2  0
M  END
$$$$
