AAK.pdb
     RDKit          3D

 20 19  0  0  1  0  0  0  0  0999 V2000
   13.1416  -14.4632   19.6616 C   0  0  0  0  0  0  0  0  0  0  0  0
   12.2490  -15.5161   19.0387 C   0  0  2  0  0  0  0  0  0  0  0  0
   11.8530  -15.0510   17.7366 N   0  0  0  0  0  0  0  0  0  0  0  0
   11.0796  -15.7423   19.9319 C   0  0  0  0  0  0  0  0  0  0  0  0
   10.1542  -14.8974   19.9102 O   0  0  0  0  0  0  0  0  0  0  0  0
    9.7746  -18.6196   21.9887 C   0  0  0  0  0  0  0  0  0  0  0  0
    9.9156  -17.1659   21.6185 C   0  0  2  0  0  0  0  0  0  0  0  0
   11.0315  -16.8833   20.7736 N   0  0  0  0  0  0  0  0  0  0  0  0
    9.9879  -16.2873   22.8244 C   0  0  0  0  0  0  0  0  0  0  0  0
   11.0652  -15.8856   23.3244 O   0  0  0  0  0  0  0  0  0  0  0  0
    8.7974  -15.8546   23.4783 N   0  0  0  0  0  0  0  0  0  0  0  0
    8.8627  -15.0524   24.7136 C   0  0  1  0  0  0  0  0  0  0  0  0
    7.6302  -14.2278   24.8105 C   0  0  0  0  0  0  0  0  0  0  0  0
    7.4638  -13.3947   26.0232 C   0  0  0  0  0  0  0  0  0  0  0  0
    6.2208  -12.5995   26.1546 C   0  0  0  0  0  0  0  0  0  0  0  0
    6.2003  -11.7414   27.4091 C   0  0  0  0  0  0  0  0  0  0  0  0
    5.0051  -10.9314   27.4524 N   0  0  0  0  0  0  0  0  0  0  0  0
    9.1828  -15.9203   25.8367 C   0  0  0  0  0  0  0  0  0  0  0  0
   10.0137  -15.4371   26.8739 O   0  0  0  0  0  0  0  0  0  0  0  0
    8.7899  -17.0946   25.9984 O   0  0  0  0  0  0  0  0  0  0  0  0
  2  1  1  1
  2  3  1  0
  4  5  2  0
  4  2  1  0
  7  6  1  1
  7  8  1  0
  8  4  1  0
  9 10  2  0
  9  7  1  0
 11  9  1  0
 12 13  1  1
 12 11  1  0
 13 14  1  0
 14 15  1  0
 15 16  1  0
 16 17  1  0
 18 12  1  0
 19 18  1  0
 20 18  2  0
M  END
$$$$
