AAK.pdb
     RDKit          3D

 20 19  0  0  1  0  0  0  0  0999 V2000
    8.3140  -12.3929   19.7340 C   0  0  0  0  0  0  0  0  0  0  0  0
    7.8977  -13.7132   19.1203 C   0  0  2  0  0  0  0  0  0  0  0  0
    6.4653  -13.7129   18.9918 N   0  0  0  0  0  0  0  0  0  0  0  0
    8.3814  -14.8200   19.9909 C   0  0  0  0  0  0  0  0  0  0  0  0
    7.7102  -15.0975   21.0122 O   0  0  0  0  0  0  0  0  0  0  0  0
   10.7148  -17.7001   19.4954 C   0  0  0  0  0  0  0  0  0  0  0  0
    9.9742  -16.7064   20.3522 C   0  0  2  0  0  0  0  0  0  0  0  0
    9.5661  -15.5265   19.6592 N   0  0  0  0  0  0  0  0  0  0  0  0
   10.7635  -16.3105   21.5570 C   0  0  0  0  0  0  0  0  0  0  0  0
   11.5557  -15.3389   21.5767 O   0  0  0  0  0  0  0  0  0  0  0  0
   10.6458  -17.0438   22.7737 N   0  0  0  0  0  0  0  0  0  0  0  0
   11.3273  -16.5885   23.9994 C   0  0  1  0  0  0  0  0  0  0  0  0
   10.7379  -17.3001   25.1632 C   0  0  0  0  0  0  0  0  0  0  0  0
   11.3812  -17.0962   26.4811 C   0  0  0  0  0  0  0  0  0  0  0  0
   10.7835  -17.7695   27.6575 C   0  0  0  0  0  0  0  0  0  0  0  0
   11.4130  -17.3313   28.9700 C   0  0  0  0  0  0  0  0  0  0  0  0
   10.7988  -18.0171   30.0831 N   0  0  0  0  0  0  0  0  0  0  0  0
   12.7675  -16.6788   23.8130 C   0  0  0  0  0  0  0  0  0  0  0  0
   13.3186  -17.8289   23.2021 O   0  0  0  0  0  0  0  0  0  0  0  0
   13.6107  -15.8190   24.1438 O   0  0  0  0  0  0  0  0  0  0  0  0
  2  1  1  1
  2  3  1  0
  4  5  2  0
  4  2  1  0
  7  6  1  6
  7  8  1  0
  8  4  1  0
  9 10  2  0
  9  7  1  0
 11  9  1  0
 12 13  1  1
 12 11  1  0
 13 14  1  0
 14 15  1  0
 15 16  1  0
 16 17  1  0
 18 12  1  0
 19 18  1  0
 20 18  2  0
M  END
$$$$
