AAK.pdb
     RDKit          3D

 20 19  0  0  1  0  0  0  0  0999 V2000
    6.6021  -15.3940   19.9419 C   0  0  0  0  0  0  0  0  0  0  0  0
    7.2035  -14.0716   20.3693 C   0  0  2  0  0  0  0  0  0  0  0  0
    8.0729  -13.6169   19.3177 N   0  0  0  0  0  0  0  0  0  0  0  0
    7.9327  -14.2691   21.6523 C   0  0  0  0  0  0  0  0  0  0  0  0
    9.1395  -14.6022   21.5945 O   0  0  0  0  0  0  0  0  0  0  0  0
    7.1511  -13.5908   25.3025 C   0  0  0  0  0  0  0  0  0  0  0  0
    7.9505  -14.1268   24.1434 C   0  0  2  0  0  0  0  0  0  0  0  0
    7.2665  -14.0818   22.8907 N   0  0  0  0  0  0  0  0  0  0  0  0
    8.4201  -15.5237   24.3876 C   0  0  0  0  0  0  0  0  0  0  0  0
    7.6980  -16.5353   24.2225 O   0  0  0  0  0  0  0  0  0  0  0  0
    9.7510  -15.7736   24.8327 N   0  0  0  0  0  0  0  0  0  0  0  0
   10.1957  -17.1419   25.1551 C   0  0  1  0  0  0  0  0  0  0  0  0
   11.4527  -17.4203   24.4131 C   0  0  0  0  0  0  0  0  0  0  0  0
   11.3934  -18.4284   23.3302 C   0  0  0  0  0  0  0  0  0  0  0  0
   12.6340  -18.7043   22.5692 C   0  0  0  0  0  0  0  0  0  0  0  0
   12.4268  -19.7118   21.4499 C   0  0  0  0  0  0  0  0  0  0  0  0
   13.6376  -19.8721   20.6786 N   0  0  0  0  0  0  0  0  0  0  0  0
   10.2130  -17.3162   26.5995 C   0  0  0  0  0  0  0  0  0  0  0  0
    9.8938  -16.2215   27.4358 O   0  0  0  0  0  0  0  0  0  0  0  0
   10.4881  -18.3684   27.2134 O   0  0  0  0  0  0  0  0  0  0  0  0
  2  1  1  6
  2  3  1  0
  4  5  2  0
  4  2  1  0
  7  6  1  1
  7  8  1  0
  8  4  1  0
  9 10  2  0
  9  7  1  0
 11  9  1  0
 12 13  1  1
 12 11  1  0
 13 14  1  0
 14 15  1  0
 15 16  1  0
 16 17  1  0
 18 12  1  0
 19 18  1  0
 20 18  2  0
M  END
$$$$
