AAK.pdb
     RDKit          3D

 20 19  0  0  1  0  0  0  0  0999 V2000
    7.3454  -16.5465   15.5923 C   0  0  0  0  0  0  0  0  0  0  0  0
    7.6131  -15.0726   15.3707 C   0  0  2  0  0  0  0  0  0  0  0  0
    8.2336  -14.9211   14.0822 N   0  0  0  0  0  0  0  0  0  0  0  0
    8.4808  -14.5722   16.4722 C   0  0  0  0  0  0  0  0  0  0  0  0
    9.7155  -14.7656   16.3787 O   0  0  0  0  0  0  0  0  0  0  0  0
    7.9510  -12.4912   19.6049 C   0  0  0  0  0  0  0  0  0  0  0  0
    8.6999  -13.3974   18.6627 C   0  0  2  0  0  0  0  0  0  0  0  0
    7.9108  -13.9003   17.5841 N   0  0  0  0  0  0  0  0  0  0  0  0
    9.3304  -14.5476   19.3774 C   0  0  0  0  0  0  0  0  0  0  0  0
    8.7759  -15.6634   19.5172 O   0  0  0  0  0  0  0  0  0  0  0  0
   10.6302  -14.4214   19.9487 N   0  0  0  0  0  0  0  0  0  0  0  0
   11.2890  -15.5741   20.5900 C   0  0  1  0  0  0  0  0  0  0  0  0
   12.7418  -15.5232   20.2818 C   0  0  0  0  0  0  0  0  0  0  0  0
   13.1483  -15.7764   18.8806 C   0  0  0  0  0  0  0  0  0  0  0  0
   14.5862  -15.6628   18.5432 C   0  0  0  0  0  0  0  0  0  0  0  0
   14.8543  -15.8001   17.0532 C   0  0  0  0  0  0  0  0  0  0  0  0
   16.2730  -15.7578   16.7852 N   0  0  0  0  0  0  0  0  0  0  0  0
   10.8990  -15.6356   21.9904 C   0  0  0  0  0  0  0  0  0  0  0  0
   11.2870  -16.7484   22.7720 O   0  0  0  0  0  0  0  0  0  0  0  0
   10.2325  -14.7802   22.6100 O   0  0  0  0  0  0  0  0  0  0  0  0
  2  1  1  1
  2  3  1  0
  4  5  2  0
  4  2  1  0
  7  6  1  1
  7  8  1  0
  8  4  1  0
  9 10  2  0
  9  7  1  0
 11  9  1  0
 12 13  1  1
 12 11  1  0
 13 14  1  0
 14 15  1  0
 15 16  1  0
 16 17  1  0
 18 12  1  0
 19 18  1  0
 20 18  2  0
M  END
$$$$
