AAK.pdb
     RDKit          3D

 20 19  0  0  1  0  0  0  0  0999 V2000
    8.8500  -12.4762   18.8624 C   0  0  0  0  0  0  0  0  0  0  0  0
    8.6325  -13.9207   18.4633 C   0  0  2  0  0  0  0  0  0  0  0  0
    7.4611  -13.9815   17.6311 N   0  0  0  0  0  0  0  0  0  0  0  0
    8.4862  -14.7418   19.6966 C   0  0  0  0  0  0  0  0  0  0  0  0
    7.3977  -14.6810   20.3148 O   0  0  0  0  0  0  0  0  0  0  0  0
   10.3669  -17.6226   21.2203 C   0  0  0  0  0  0  0  0  0  0  0  0
    9.4313  -16.4423   21.2592 C   0  0  2  0  0  0  0  0  0  0  0  0
    9.5554  -15.5607   20.1427 N   0  0  0  0  0  0  0  0  0  0  0  0
    9.5815  -15.6520   22.5178 C   0  0  0  0  0  0  0  0  0  0  0  0
   10.5188  -14.8441   22.7200 O   0  0  0  0  0  0  0  0  0  0  0  0
    8.6358  -15.7871   23.5758 N   0  0  0  0  0  0  0  0  0  0  0  0
    8.7345  -14.9545   24.7886 C   0  0  1  0  0  0  0  0  0  0  0  0
    7.4754  -14.1794   24.9368 C   0  0  0  0  0  0  0  0  0  0  0  0
    7.3424  -13.3225   26.1370 C   0  0  0  0  0  0  0  0  0  0  0  0
    6.0997  -12.5309   26.2912 C   0  0  0  0  0  0  0  0  0  0  0  0
    6.0960  -11.6796   27.5506 C   0  0  0  0  0  0  0  0  0  0  0  0
    4.8698  -10.9226   27.6497 N   0  0  0  0  0  0  0  0  0  0  0  0
    9.1522  -15.7823   25.9099 C   0  0  0  0  0  0  0  0  0  0  0  0
    8.6827  -17.1128   26.0045 O   0  0  0  0  0  0  0  0  0  0  0  0
    9.9125  -15.4387   26.8391 O   0  0  0  0  0  0  0  0  0  0  0  0
  2  1  1  1
  2  3  1  0
  4  5  2  0
  4  2  1  0
  7  6  1  6
  7  8  1  0
  8  4  1  0
  9 10  2  0
  9  7  1  0
 11  9  1  0
 12 13  1  1
 12 11  1  0
 13 14  1  0
 14 15  1  0
 15 16  1  0
 16 17  1  0
 18 12  1  0
 19 18  1  0
 20 18  2  0
M  END
$$$$
