AAK.pdb
     RDKit          3D

 20 19  0  0  1  0  0  0  0  0999 V2000
    8.9791  -16.4303   15.8094 C   0  0  0  0  0  0  0  0  0  0  0  0
    8.6690  -16.8977   17.2159 C   0  0  2  0  0  0  0  0  0  0  0  0
    7.2581  -17.1649   17.2959 N   0  0  0  0  0  0  0  0  0  0  0  0
    9.0942  -15.8425   18.1763 C   0  0  0  0  0  0  0  0  0  0  0  0
   10.3228  -15.6369   18.3141 O   0  0  0  0  0  0  0  0  0  0  0  0
    7.3956  -13.0730   20.0928 C   0  0  0  0  0  0  0  0  0  0  0  0
    8.4822  -14.0853   19.8388 C   0  0  2  0  0  0  0  0  0  0  0  0
    8.1257  -15.1035   18.9033 N   0  0  0  0  0  0  0  0  0  0  0  0
    8.9494  -14.7317   21.1018 C   0  0  0  0  0  0  0  0  0  0  0  0
    8.2253  -14.8735   22.1155 O   0  0  0  0  0  0  0  0  0  0  0  0
   10.2802  -15.2304   21.2116 N   0  0  0  0  0  0  0  0  0  0  0  0
   10.7134  -15.9705   22.4109 C   0  0  1  0  0  0  0  0  0  0  0  0
   10.3664  -17.4047   22.2355 C   0  0  0  0  0  0  0  0  0  0  0  0
   10.7602  -18.3361   23.3172 C   0  0  0  0  0  0  0  0  0  0  0  0
   10.5887  -19.7884   23.0801 C   0  0  0  0  0  0  0  0  0  0  0  0
   11.0302  -20.6346   24.2632 C   0  0  0  0  0  0  0  0  0  0  0  0
   10.6647  -22.0178   24.0642 N   0  0  0  0  0  0  0  0  0  0  0  0
   12.1005  -15.6438   22.7051 C   0  0  0  0  0  0  0  0  0  0  0  0
   12.6044  -15.8609   24.0084 O   0  0  0  0  0  0  0  0  0  0  0  0
   12.9350  -15.1742   21.9034 O   0  0  0  0  0  0  0  0  0  0  0  0
  2  1  1  6
  2  3  1  0
  4  5  2  0
  4  2  1  0
  7  6  1  1
  7  8  1  0
  8  4  1  0
  9 10  2  0
  9  7  1  0
 11  9  1  0
 12 13  1  6
 12 11  1  0
 13 14  1  0
 14 15  1  0
 15 16  1  0
 16 17  1  0
 18 12  1  0
 19 18  1  0
 20 18  2  0
M  END
$$$$
