AAK.pdb
     RDKit          3D

 20 19  0  0  1  0  0  0  0  0999 V2000
    8.7328  -12.5456   18.7477 C   0  0  0  0  0  0  0  0  0  0  0  0
    8.6654  -13.9662   18.2274 C   0  0  2  0  0  0  0  0  0  0  0  0
    7.5643  -14.0514   17.3060 N   0  0  0  0  0  0  0  0  0  0  0  0
    8.5023  -14.8921   19.3818 C   0  0  0  0  0  0  0  0  0  0  0  0
    7.3665  -14.9825   19.9039 O   0  0  0  0  0  0  0  0  0  0  0  0
   10.4647  -17.6745   20.9564 C   0  0  0  0  0  0  0  0  0  0  0  0
    9.5148  -16.5056   20.9935 C   0  0  2  0  0  0  0  0  0  0  0  0
    9.6081  -15.6401   19.8616 N   0  0  0  0  0  0  0  0  0  0  0  0
    9.6766  -15.6941   22.2371 C   0  0  0  0  0  0  0  0  0  0  0  0
   10.6073  -14.8720   22.4108 O   0  0  0  0  0  0  0  0  0  0  0  0
    8.7505  -15.8239   23.3130 N   0  0  0  0  0  0  0  0  0  0  0  0
    8.9288  -15.0578   24.5601 C   0  0  1  0  0  0  0  0  0  0  0  0
    7.6808  -14.2991   24.8343 C   0  0  0  0  0  0  0  0  0  0  0  0
    7.6622  -13.4333   26.0354 C   0  0  0  0  0  0  0  0  0  0  0  0
    6.4023  -12.7261   26.3625 C   0  0  0  0  0  0  0  0  0  0  0  0
    6.5439  -11.7896   27.5514 C   0  0  0  0  0  0  0  0  0  0  0  0
    5.3071  -11.0840   27.7939 N   0  0  0  0  0  0  0  0  0  0  0  0
    9.4226  -15.9429   25.6040 C   0  0  0  0  0  0  0  0  0  0  0  0
   10.2391  -15.4176   26.6321 O   0  0  0  0  0  0  0  0  0  0  0  0
    9.1973  -17.1674   25.7022 O   0  0  0  0  0  0  0  0  0  0  0  0
  2  1  1  1
  2  3  1  0
  4  5  2  0
  4  2  1  0
  7  6  1  6
  7  8  1  0
  8  4  1  0
  9 10  2  0
  9  7  1  0
 11  9  1  0
 12 13  1  1
 12 11  1  0
 13 14  1  0
 14 15  1  0
 15 16  1  0
 16 17  1  0
 18 12  1  0
 19 18  1  0
 20 18  2  0
M  END
$$$$
