WIC.pdb
     RDKit          3D

 29 30  0  0  1  0  0  0  0  0999 V2000
    6.3590  -18.7982   24.9829 N   0  0  0  0  0  0  0  0  0  0  0  0
    6.6276  -17.4715   24.5182 C   0  0  1  0  0  0  0  0  0  0  0  0
    7.4395  -16.7459   25.5835 C   0  0  0  0  0  0  0  0  0  0  0  0
    6.8199  -15.4272   25.8739 C   0  0  0  0  0  0  0  0  0  0  0  0
    5.4895  -15.0643   25.8434 C   0  0  0  0  0  0  0  0  0  0  0  0
    5.3875  -13.7633   26.1783 N   0  0  0  0  0  0  0  0  0  0  0  0
    6.5982  -13.2452   26.4308 C   0  0  0  0  0  0  0  0  0  0  0  0
    7.0087  -11.9828   26.8041 C   0  0  0  0  0  0  0  0  0  0  0  0
    8.3772  -11.8068   26.9809 C   0  0  0  0  0  0  0  0  0  0  0  0
    9.2894  -12.8147   26.8007 C   0  0  0  0  0  0  0  0  0  0  0  0
    8.8506  -14.0831   26.4230 C   0  0  0  0  0  0  0  0  0  0  0  0
    7.5004  -14.2721   26.2446 C   0  0  0  0  0  0  0  0  0  0  0  0
    7.4409  -17.4479   23.2766 C   0  0  0  0  0  0  0  0  0  0  0  0
    7.9961  -18.4902   22.8911 O   0  0  0  0  0  0  0  0  0  0  0  0
    7.8386  -12.5639   20.1043 C   0  0  0  0  0  0  0  0  0  0  0  0
    8.3619  -13.6785   20.9590 C   0  0  0  0  0  0  0  0  0  0  0  0
    7.8442  -15.0134   20.4779 C   0  0  2  0  0  0  0  0  0  0  0  0
    6.3419  -15.0768   20.4555 C   0  0  0  0  0  0  0  0  0  0  0  0
    8.3614  -16.1282   21.3380 C   0  0  2  0  0  0  0  0  0  0  0  0
    7.5746  -16.2426   22.5481 N   0  0  0  0  0  0  0  0  0  0  0  0
    9.8011  -15.9868   21.6538 C   0  0  0  0  0  0  0  0  0  0  0  0
   10.6132  -15.9543   20.7061 O   0  0  0  0  0  0  0  0  0  0  0  0
   10.2755  -15.8890   22.9758 N   0  0  0  0  0  0  0  0  0  0  0  0
   11.6909  -15.7271   23.2145 C   0  0  1  0  0  0  0  0  0  0  0  0
   11.8757  -15.0387   24.5467 C   0  0  0  0  0  0  0  0  0  0  0  0
   11.0436  -16.0840   25.8030 S   0  0  0  0  0  0  0  0  0  0  0  0
   12.3657  -17.0334   23.1241 C   0  0  0  0  0  0  0  0  0  0  0  0
   13.6146  -17.0756   23.1393 O   0  0  0  0  0  0  0  0  0  0  0  0
   11.6107  -18.1870   23.0233 O   0  0  0  0  0  0  0  0  0  0  0  0
  2  1  1  1
  3  4  1  0
  3  2  1  0
  4 12  1  0
  5  4  2  0
  5  6  1  0
  6  7  1  0
  7  8  1  0
  8  9  2  0
 10  9  1  0
 11 10  2  0
 12  7  2  0
 12 11  1  0
 13 20  1  0
 13  2  1  0
 14 13  2  0
 16 15  1  0
 17 16  1  0
 17 18  1  1
 19 17  1  0
 19 20  1  1
 21 19  1  0
 22 21  2  0
 23 21  1  0
 24 27  1  0
 24 23  1  0
 24 25  1  1
 26 25  1  0
 27 29  1  0
 28 27  2  0
M  END
$$$$
