WIC.pdb
     RDKit          3D

 29 30  0  0  1  0  0  0  0  0999 V2000
    5.8015  -18.3399   24.1637 N   0  0  0  0  0  0  0  0  0  0  0  0
    6.4177  -17.0524   24.0611 C   0  0  1  0  0  0  0  0  0  0  0  0
    7.4476  -16.9238   25.1761 C   0  0  0  0  0  0  0  0  0  0  0  0
    7.0843  -15.7905   26.0653 C   0  0  0  0  0  0  0  0  0  0  0  0
    6.2936  -15.7890   27.1956 C   0  0  0  0  0  0  0  0  0  0  0  0
    6.2385  -14.5346   27.6842 N   0  0  0  0  0  0  0  0  0  0  0  0
    6.9617  -13.7003   26.9233 C   0  0  0  0  0  0  0  0  0  0  0  0
    7.2115  -12.3468   27.0084 C   0  0  0  0  0  0  0  0  0  0  0  0
    8.0271  -11.8071   26.0191 C   0  0  0  0  0  0  0  0  0  0  0  0
    8.5659  -12.5559   25.0045 C   0  0  0  0  0  0  0  0  0  0  0  0
    8.2993  -13.9229   24.9392 C   0  0  0  0  0  0  0  0  0  0  0  0
    7.4945  -14.4704   25.9105 C   0  0  0  0  0  0  0  0  0  0  0  0
    7.1503  -16.8629   22.7839 C   0  0  0  0  0  0  0  0  0  0  0  0
    7.6178  -17.8523   22.1961 O   0  0  0  0  0  0  0  0  0  0  0  0
    8.0390  -12.3095   18.6601 C   0  0  0  0  0  0  0  0  0  0  0  0
    8.3639  -13.6801   19.1727 C   0  0  0  0  0  0  0  0  0  0  0  0
    7.6360  -13.9565   20.4669 C   0  0  2  0  0  0  0  0  0  0  0  0
    7.8743  -12.8928   21.5028 C   0  0  0  0  0  0  0  0  0  0  0  0
    8.0429  -15.2836   21.0356 C   0  0  2  0  0  0  0  0  0  0  0  0
    7.3078  -15.5616   22.2517 N   0  0  0  0  0  0  0  0  0  0  0  0
    9.5024  -15.3850   21.2641 C   0  0  0  0  0  0  0  0  0  0  0  0
   10.2588  -15.3586   20.2713 O   0  0  0  0  0  0  0  0  0  0  0  0
   10.0555  -15.5090   22.5529 N   0  0  0  0  0  0  0  0  0  0  0  0
   11.4902  -15.5704   22.7094 C   0  0  1  0  0  0  0  0  0  0  0  0
   11.8288  -15.2487   24.1463 C   0  0  0  0  0  0  0  0  0  0  0  0
   10.8096  -16.3582   25.1919 S   0  0  0  0  0  0  0  0  0  0  0  0
   11.9860  -16.8840   22.2638 C   0  0  0  0  0  0  0  0  0  0  0  0
   11.1637  -17.7597   21.9190 O   0  0  0  0  0  0  0  0  0  0  0  0
   13.3465  -17.1270   22.2348 O   0  0  0  0  0  0  0  0  0  0  0  0
  2  1  1  6
  3  4  1  0
  3  2  1  0
  4 12  1  0
  5  4  2  0
  5  6  1  0
  6  7  1  0
  7  8  1  0
  8  9  2  0
 10  9  1  0
 11 10  2  0
 12  7  2  0
 12 11  1  0
 13 20  1  0
 13  2  1  0
 14 13  2  0
 16 15  1  0
 17 16  1  0
 17 18  1  1
 19 17  1  0
 19 20  1  1
 21 19  1  0
 22 21  2  0
 23 21  1  0
 24 27  1  0
 24 23  1  0
 24 25  1  1
 26 25  1  0
 27 29  1  0
 28 27  2  0
M  END
$$$$
