WIC.pdb
     RDKit          3D

 29 30  0  0  1  0  0  0  0  0999 V2000
    6.0914  -18.5640   24.7758 N   0  0  0  0  0  0  0  0  0  0  0  0
    6.5320  -17.2147   24.5929 C   0  0  1  0  0  0  0  0  0  0  0  0
    7.3038  -16.7900   25.8356 C   0  0  0  0  0  0  0  0  0  0  0  0
    6.8242  -15.4605   26.2932 C   0  0  0  0  0  0  0  0  0  0  0  0
    5.5318  -14.9906   26.4013 C   0  0  0  0  0  0  0  0  0  0  0  0
    5.5681  -13.7245   26.8606 N   0  0  0  0  0  0  0  0  0  0  0  0
    6.8344  -13.3325   27.0626 C   0  0  0  0  0  0  0  0  0  0  0  0
    7.3793  -12.1496   27.5159 C   0  0  0  0  0  0  0  0  0  0  0  0
    8.7670  -12.1022   27.5991 C   0  0  0  0  0  0  0  0  0  0  0  0
    9.5724  -13.1577   27.2561 C   0  0  0  0  0  0  0  0  0  0  0  0
    8.9986  -14.3438   26.8002 C   0  0  0  0  0  0  0  0  0  0  0  0
    7.6277  -14.4054   26.7128 C   0  0  0  0  0  0  0  0  0  0  0  0
    7.4603  -17.0609   23.4447 C   0  0  0  0  0  0  0  0  0  0  0  0
    8.0831  -18.0511   23.0267 O   0  0  0  0  0  0  0  0  0  0  0  0
    6.3041  -14.7535   20.0373 C   0  0  0  0  0  0  0  0  0  0  0  0
    6.9260  -13.8205   21.0320 C   0  0  0  0  0  0  0  0  0  0  0  0
    8.3868  -14.1463   21.2345 C   0  0  2  0  0  0  0  0  0  0  0  0
    9.1911  -14.0045   19.9717 C   0  0  0  0  0  0  0  0  0  0  0  0
    8.5552  -15.5412   21.7597 C   0  0  2  0  0  0  0  0  0  0  0  0
    7.6252  -15.7923   22.8408 N   0  0  0  0  0  0  0  0  0  0  0  0
    9.9454  -15.8311   22.1789 C   0  0  0  0  0  0  0  0  0  0  0  0
   10.4433  -15.1399   23.0916 O   0  0  0  0  0  0  0  0  0  0  0  0
   10.7131  -16.8513   21.5856 N   0  0  0  0  0  0  0  0  0  0  0  0
   12.1161  -16.9670   21.9096 C   0  0  1  0  0  0  0  0  0  0  0  0
   12.3308  -18.2675   22.6480 C   0  0  0  0  0  0  0  0  0  0  0  0
   10.8052  -19.2607   22.4263 S   0  0  0  0  0  0  0  0  0  0  0  0
   12.9241  -16.8411   20.6844 C   0  0  0  0  0  0  0  0  0  0  0  0
   12.3454  -16.7506   19.5804 O   0  0  0  0  0  0  0  0  0  0  0  0
   14.3035  -16.8260   20.7741 O   0  0  0  0  0  0  0  0  0  0  0  0
  2  1  1  1
  3  4  1  0
  3  2  1  0
  4 12  1  0
  5  4  2  0
  5  6  1  0
  6  7  1  0
  7  8  1  0
  8  9  2  0
 10  9  1  0
 11 10  2  0
 12  7  2  0
 12 11  1  0
 13 20  1  0
 13  2  1  0
 14 13  2  0
 16 15  1  0
 17 16  1  0
 17 18  1  6
 19 17  1  0
 19 20  1  1
 21 19  1  0
 22 21  2  0
 23 21  1  0
 24 27  1  0
 24 23  1  0
 24 25  1  6
 26 25  1  0
 27 29  1  0
 28 27  2  0
M  END
$$$$
