WIC.pdb
     RDKit          3D

 29 30  0  0  1  0  0  0  0  0999 V2000
    7.4928  -19.3704   26.7222 N   0  0  0  0  0  0  0  0  0  0  0  0
    7.9804  -18.0250   26.7092 C   0  0  1  0  0  0  0  0  0  0  0  0
    9.5020  -18.0662   26.7688 C   0  0  0  0  0  0  0  0  0  0  0  0
    9.9676  -17.5134   28.0667 C   0  0  0  0  0  0  0  0  0  0  0  0
   10.3021  -18.1795   29.2274 C   0  0  0  0  0  0  0  0  0  0  0  0
   10.6709  -17.2749   30.1553 N   0  0  0  0  0  0  0  0  0  0  0  0
   10.5951  -16.0319   29.6580 C   0  0  0  0  0  0  0  0  0  0  0  0
   10.8622  -14.7948   30.2054 C   0  0  0  0  0  0  0  0  0  0  0  0
   10.6661  -13.6973   29.3735 C   0  0  0  0  0  0  0  0  0  0  0  0
   10.2321  -13.8103   28.0776 C   0  0  0  0  0  0  0  0  0  0  0  0
    9.9684  -15.0719   27.5458 C   0  0  0  0  0  0  0  0  0  0  0  0
   10.1579  -16.1663   28.3565 C   0  0  0  0  0  0  0  0  0  0  0  0
    7.6249  -17.2938   25.4671 C   0  0  0  0  0  0  0  0  0  0  0  0
    7.0736  -17.9044   24.5363 O   0  0  0  0  0  0  0  0  0  0  0  0
    6.6437  -12.3033   26.4791 C   0  0  0  0  0  0  0  0  0  0  0  0
    6.3397  -13.4636   25.5802 C   0  0  0  0  0  0  0  0  0  0  0  0
    7.4479  -13.6695   24.5748 C   0  0  2  0  0  0  0  0  0  0  0  0
    7.2502  -12.8603   23.3228 C   0  0  0  0  0  0  0  0  0  0  0  0
    7.5668  -15.1170   24.2000 C   0  0  2  0  0  0  0  0  0  0  0  0
    7.9168  -15.9139   25.3572 N   0  0  0  0  0  0  0  0  0  0  0  0
    8.5220  -15.3446   23.0917 C   0  0  0  0  0  0  0  0  0  0  0  0
    8.2113  -14.9408   21.9519 O   0  0  0  0  0  0  0  0  0  0  0  0
    9.7558  -15.9953   23.2832 N   0  0  0  0  0  0  0  0  0  0  0  0
   10.6160  -16.2395   22.1488 C   0  0  1  0  0  0  0  0  0  0  0  0
   11.6704  -15.1582   22.1064 C   0  0  0  0  0  0  0  0  0  0  0  0
   12.8613  -15.6306   20.7943 S   0  0  0  0  0  0  0  0  0  0  0  0
   11.1685  -17.6030   22.2246 C   0  0  0  0  0  0  0  0  0  0  0  0
   11.5771  -18.1530   21.1795 O   0  0  0  0  0  0  0  0  0  0  0  0
   11.2251  -18.2503   23.4448 O   0  0  0  0  0  0  0  0  0  0  0  0
  2  1  1  6
  3  4  1  0
  3  2  1  0
  4 12  1  0
  5  4  2  0
  5  6  1  0
  6  7  1  0
  7  8  1  0
  8  9  2  0
 10  9  1  0
 11 10  2  0
 12  7  2  0
 12 11  1  0
 13 20  1  0
 13  2  1  0
 14 13  2  0
 16 15  1  0
 17 16  1  0
 17 18  1  6
 19 17  1  0
 19 20  1  1
 21 19  1  0
 22 21  2  0
 23 21  1  0
 24 27  1  0
 24 23  1  0
 24 25  1  1
 26 25  1  0
 27 29  1  0
 28 27  2  0
M  END
$$$$
