WIC.pdb
     RDKit          3D

 29 30  0  0  1  0  0  0  0  0999 V2000
   10.1654  -14.8012   23.0413 N   0  0  0  0  0  0  0  0  0  0  0  0
    9.2699  -15.8849   22.7733 C   0  0  1  0  0  0  0  0  0  0  0  0
    9.7303  -16.5832   21.5002 C   0  0  0  0  0  0  0  0  0  0  0  0
    9.6046  -15.6556   20.3465 C   0  0  0  0  0  0  0  0  0  0  0  0
   10.2156  -15.7140   19.1112 C   0  0  0  0  0  0  0  0  0  0  0  0
    9.8082  -14.6611   18.3760 N   0  0  0  0  0  0  0  0  0  0  0  0
    8.9494  -13.9033   19.0734 C   0  0  0  0  0  0  0  0  0  0  0  0
    8.2706  -12.7438   18.7632 C   0  0  0  0  0  0  0  0  0  0  0  0
    7.4462  -12.2274   19.7575 C   0  0  0  0  0  0  0  0  0  0  0  0
    7.2981  -12.8177   20.9863 C   0  0  0  0  0  0  0  0  0  0  0  0
    7.9948  -13.9899   21.2772 C   0  0  0  0  0  0  0  0  0  0  0  0
    8.8137  -14.5121   20.3038 C   0  0  0  0  0  0  0  0  0  0  0  0
    9.2706  -16.9130   23.8442 C   0  0  0  0  0  0  0  0  0  0  0  0
    9.8238  -16.6644   24.9283 O   0  0  0  0  0  0  0  0  0  0  0  0
    4.8944  -20.0462   23.0219 C   0  0  0  0  0  0  0  0  0  0  0  0
    5.9382  -19.1327   23.5898 C   0  0  0  0  0  0  0  0  0  0  0  0
    7.0800  -19.9239   24.1827 C   0  0  2  0  0  0  0  0  0  0  0  0
    6.6398  -20.8194   25.3078 C   0  0  0  0  0  0  0  0  0  0  0  0
    8.1579  -19.0105   24.6866 C   0  0  2  0  0  0  0  0  0  0  0  0
    8.6432  -18.1608   23.6193 N   0  0  0  0  0  0  0  0  0  0  0  0
    9.2731  -19.7416   25.3302 C   0  0  0  0  0  0  0  0  0  0  0  0
    9.9867  -20.4770   24.6170 O   0  0  0  0  0  0  0  0  0  0  0  0
    9.5492  -19.6331   26.7065 N   0  0  0  0  0  0  0  0  0  0  0  0
   10.6457  -20.3826   27.2744 C   0  0  1  0  0  0  0  0  0  0  0  0
   11.5253  -19.4301   28.0500 C   0  0  0  0  0  0  0  0  0  0  0  0
   12.1157  -18.1659   26.8599 S   0  0  0  0  0  0  0  0  0  0  0  0
   10.1233  -21.4980   28.0825 C   0  0  0  0  0  0  0  0  0  0  0  0
    8.8891  -21.6039   28.2477 O   0  0  0  0  0  0  0  0  0  0  0  0
   11.0022  -22.4054   28.6439 O   0  0  0  0  0  0  0  0  0  0  0  0
  2  1  1  1
  3  4  1  0
  3  2  1  0
  4 12  1  0
  5  4  2  0
  5  6  1  0
  6  7  1  0
  7  8  1  0
  8  9  2  0
 10  9  1  0
 11 10  2  0
 12  7  2  0
 12 11  1  0
 13 20  1  0
 13  2  1  0
 14 13  2  0
 16 15  1  0
 17 16  1  0
 17 18  1  1
 19 17  1  0
 19 20  1  6
 21 19  1  0
 22 21  2  0
 23 21  1  0
 24 27  1  0
 24 23  1  0
 24 25  1  1
 26 25  1  0
 27 29  1  0
 28 27  2  0
M  END
$$$$
