WIC.pdb
     RDKit          3D

 29 30  0  0  1  0  0  0  0  0999 V2000
    9.2330  -16.2678   21.9479 N   0  0  0  0  0  0  0  0  0  0  0  0
    8.8934  -15.8720   23.2806 C   0  0  1  0  0  0  0  0  0  0  0  0
    7.7135  -16.7161   23.7453 C   0  0  0  0  0  0  0  0  0  0  0  0
    6.6761  -15.8391   24.3467 C   0  0  0  0  0  0  0  0  0  0  0  0
    5.3277  -16.0752   24.5168 C   0  0  0  0  0  0  0  0  0  0  0  0
    4.7708  -15.0003   25.1081 N   0  0  0  0  0  0  0  0  0  0  0  0
    5.6957  -14.0571   25.3386 C   0  0  0  0  0  0  0  0  0  0  0  0
    5.6221  -12.8044   25.9102 C   0  0  0  0  0  0  0  0  0  0  0  0
    6.8133  -12.0899   25.9846 C   0  0  0  0  0  0  0  0  0  0  0  0
    8.0082  -12.5796   25.5231 C   0  0  0  0  0  0  0  0  0  0  0  0
    8.0580  -13.8491   24.9489 C   0  0  0  0  0  0  0  0  0  0  0  0
    6.8881  -14.5673   24.8686 C   0  0  0  0  0  0  0  0  0  0  0  0
    9.9916  -16.1087   24.2509 C   0  0  0  0  0  0  0  0  0  0  0  0
   11.0364  -16.6605   23.8673 O   0  0  0  0  0  0  0  0  0  0  0  0
   10.0334  -13.0057   28.8699 C   0  0  0  0  0  0  0  0  0  0  0  0
   10.4778  -13.7444   27.6437 C   0  0  0  0  0  0  0  0  0  0  0  0
   10.4810  -15.2353   27.8858 C   0  0  2  0  0  0  0  0  0  0  0  0
   11.4478  -15.6439   28.9627 C   0  0  0  0  0  0  0  0  0  0  0  0
   10.8170  -15.9800   26.6279 C   0  0  2  0  0  0  0  0  0  0  0  0
    9.8372  -15.7047   25.5979 N   0  0  0  0  0  0  0  0  0  0  0  0
   10.9603  -17.4374   26.8465 C   0  0  0  0  0  0  0  0  0  0  0  0
    9.9762  -18.0685   27.2847 O   0  0  0  0  0  0  0  0  0  0  0  0
   12.1596  -18.1244   26.5778 N   0  0  0  0  0  0  0  0  0  0  0  0
   12.2064  -19.5605   26.7260 C   0  0  1  0  0  0  0  0  0  0  0  0
   13.2534  -20.1048   25.7825 C   0  0  0  0  0  0  0  0  0  0  0  0
   14.7685  -19.1037   26.0380 S   0  0  0  0  0  0  0  0  0  0  0  0
   12.4418  -19.9100   28.1375 C   0  0  0  0  0  0  0  0  0  0  0  0
   12.6542  -18.9963   28.9633 O   0  0  0  0  0  0  0  0  0  0  0  0
   12.4253  -21.2369   28.5249 O   0  0  0  0  0  0  0  0  0  0  0  0
  2  1  1  6
  3  4  1  0
  3  2  1  0
  4 12  1  0
  5  4  2  0
  5  6  1  0
  6  7  1  0
  7  8  1  0
  8  9  2  0
 10  9  1  0
 11 10  2  0
 12  7  2  0
 12 11  1  0
 13 20  1  0
 13  2  1  0
 14 13  2  0
 16 15  1  0
 17 16  1  0
 17 18  1  1
 19 17  1  0
 19 20  1  6
 21 19  1  0
 22 21  2  0
 23 21  1  0
 24 27  1  0
 24 23  1  0
 24 25  1  6
 26 25  1  0
 27 29  1  0
 28 27  2  0
M  END
$$$$
