WIC.pdb
     RDKit          3D

 29 30  0  0  1  0  0  0  0  0999 V2000
    6.5840  -18.6833   24.8756 N   0  0  0  0  0  0  0  0  0  0  0  0
    6.6753  -17.2990   24.5244 C   0  0  1  0  0  0  0  0  0  0  0  0
    7.4332  -16.5734   25.6288 C   0  0  0  0  0  0  0  0  0  0  0  0
    6.6926  -15.3471   26.0223 C   0  0  0  0  0  0  0  0  0  0  0  0
    5.3369  -15.1688   26.2038 C   0  0  0  0  0  0  0  0  0  0  0  0
    5.1120  -13.8890   26.5599 N   0  0  0  0  0  0  0  0  0  0  0  0
    6.2652  -13.2077   26.6227 C   0  0  0  0  0  0  0  0  0  0  0  0
    6.5529  -11.8959   26.9360 C   0  0  0  0  0  0  0  0  0  0  0  0
    7.8952  -11.5330   26.8968 C   0  0  0  0  0  0  0  0  0  0  0  0
    8.8969  -12.4101   26.5683 C   0  0  0  0  0  0  0  0  0  0  0  0
    8.5816  -13.7317   26.2553 C   0  0  0  0  0  0  0  0  0  0  0  0
    7.2586  -14.1050   26.2898 C   0  0  0  0  0  0  0  0  0  0  0  0
    7.4344  -17.0704   23.2693 C   0  0  0  0  0  0  0  0  0  0  0  0
    8.0822  -18.0050   22.7692 O   0  0  0  0  0  0  0  0  0  0  0  0
    8.0129  -12.4536   19.1242 C   0  0  0  0  0  0  0  0  0  0  0  0
    8.2661  -13.8692   19.5469 C   0  0  0  0  0  0  0  0  0  0  0  0
    7.7116  -14.1251   20.9283 C   0  0  2  0  0  0  0  0  0  0  0  0
    8.2024  -13.1285   21.9419 C   0  0  0  0  0  0  0  0  0  0  0  0
    8.0646  -15.5051   21.3984 C   0  0  2  0  0  0  0  0  0  0  0  0
    7.4119  -15.7947   22.6581 N   0  0  0  0  0  0  0  0  0  0  0  0
    9.5263  -15.7195   21.4977 C   0  0  0  0  0  0  0  0  0  0  0  0
   10.2018  -15.6787   20.4486 O   0  0  0  0  0  0  0  0  0  0  0  0
   10.1692  -15.9649   22.7260 N   0  0  0  0  0  0  0  0  0  0  0  0
   11.6068  -16.1013   22.7629 C   0  0  1  0  0  0  0  0  0  0  0  0
   12.0989  -15.6179   24.1071 C   0  0  0  0  0  0  0  0  0  0  0  0
   11.4504  -16.7887   25.3609 S   0  0  0  0  0  0  0  0  0  0  0  0
   11.9849  -17.4921   22.4587 C   0  0  0  0  0  0  0  0  0  0  0  0
   11.0945  -18.3675   22.4074 O   0  0  0  0  0  0  0  0  0  0  0  0
   13.3127  -17.8064   22.2369 O   0  0  0  0  0  0  0  0  0  0  0  0
  2  1  1  1
  3  4  1  0
  3  2  1  0
  4 12  1  0
  5  4  2  0
  5  6  1  0
  6  7  1  0
  7  8  1  0
  8  9  2  0
 10  9  1  0
 11 10  2  0
 12  7  2  0
 12 11  1  0
 13 20  1  0
 13  2  1  0
 14 13  2  0
 16 15  1  0
 17 16  1  0
 17 18  1  1
 19 17  1  0
 19 20  1  1
 21 19  1  0
 22 21  2  0
 23 21  1  0
 24 27  1  0
 24 23  1  0
 24 25  1  1
 26 25  1  0
 27 29  1  0
 28 27  2  0
M  END
$$$$
