WIC.pdb
     RDKit          3D

 29 30  0  0  1  0  0  0  0  0999 V2000
    5.9200  -17.7166   24.6012 N   0  0  0  0  0  0  0  0  0  0  0  0
    6.7142  -16.5703   24.2800 C   0  0  1  0  0  0  0  0  0  0  0  0
    7.7418  -16.3737   25.3872 C   0  0  0  0  0  0  0  0  0  0  0  0
    7.2221  -15.4053   26.3868 C   0  0  0  0  0  0  0  0  0  0  0  0
    6.6226  -15.6482   27.6051 C   0  0  0  0  0  0  0  0  0  0  0  0
    6.3103  -14.4691   28.1772 N   0  0  0  0  0  0  0  0  0  0  0  0
    6.6785  -13.4499   27.3874 C   0  0  0  0  0  0  0  0  0  0  0  0
    6.5759  -12.0819   27.5281 C   0  0  0  0  0  0  0  0  0  0  0  0
    7.0775  -11.3153   26.4815 C   0  0  0  0  0  0  0  0  0  0  0  0
    7.6473  -11.8628   25.3607 C   0  0  0  0  0  0  0  0  0  0  0  0
    7.7400  -13.2488   25.2407 C   0  0  0  0  0  0  0  0  0  0  0  0
    7.2483  -14.0196   26.2678 C   0  0  0  0  0  0  0  0  0  0  0  0
    7.4779  -16.7321   23.0174 C   0  0  0  0  0  0  0  0  0  0  0  0
    7.7927  -17.8719   22.6366 O   0  0  0  0  0  0  0  0  0  0  0  0
    7.0220  -12.4252   19.9458 C   0  0  0  0  0  0  0  0  0  0  0  0
    7.1031  -13.9099   20.1350 C   0  0  0  0  0  0  0  0  0  0  0  0
    8.5374  -14.3530   20.3017 C   0  0  2  0  0  0  0  0  0  0  0  0
    9.2529  -14.5017   18.9874 C   0  0  0  0  0  0  0  0  0  0  0  0
    8.6113  -15.6559   21.0414 C   0  0  2  0  0  0  0  0  0  0  0  0
    7.8378  -15.5903   22.2637 N   0  0  0  0  0  0  0  0  0  0  0  0
   10.0031  -16.0791   21.3175 C   0  0  0  0  0  0  0  0  0  0  0  0
   10.6895  -15.3821   22.0933 O   0  0  0  0  0  0  0  0  0  0  0  0
   10.5686  -17.2309   20.7378 N   0  0  0  0  0  0  0  0  0  0  0  0
   11.9283  -17.5966   21.0606 C   0  0  1  0  0  0  0  0  0  0  0  0
   12.0074  -19.1019   21.1625 C   0  0  0  0  0  0  0  0  0  0  0  0
   10.9662  -19.5916   22.5906 S   0  0  0  0  0  0  0  0  0  0  0  0
   12.8502  -17.0209   20.0664 C   0  0  0  0  0  0  0  0  0  0  0  0
   12.3800  -16.4194   19.0770 O   0  0  0  0  0  0  0  0  0  0  0  0
   14.2149  -17.1550   20.2417 O   0  0  0  0  0  0  0  0  0  0  0  0
  2  1  1  1
  3  4  1  0
  3  2  1  0
  4 12  1  0
  5  4  2  0
  5  6  1  0
  6  7  1  0
  7  8  1  0
  8  9  2  0
 10  9  1  0
 11 10  2  0
 12  7  2  0
 12 11  1  0
 13 20  1  0
 13  2  1  0
 14 13  2  0
 16 15  1  0
 17 16  1  0
 17 18  1  6
 19 17  1  0
 19 20  1  1
 21 19  1  0
 22 21  2  0
 23 21  1  0
 24 27  1  0
 24 23  1  0
 24 25  1  6
 26 25  1  0
 27 29  1  0
 28 27  2  0
M  END
$$$$
