WIC.pdb
     RDKit          3D

 29 30  0  0  1  0  0  0  0  0999 V2000
    5.8656  -18.3479   24.7546 N   0  0  0  0  0  0  0  0  0  0  0  0
    6.3903  -17.0317   24.5536 C   0  0  1  0  0  0  0  0  0  0  0  0
    7.0269  -16.5656   25.8567 C   0  0  0  0  0  0  0  0  0  0  0  0
    6.5267  -15.2100   26.2018 C   0  0  0  0  0  0  0  0  0  0  0  0
    5.2321  -14.7905   26.4272 C   0  0  0  0  0  0  0  0  0  0  0  0
    5.2464  -13.4734   26.7104 N   0  0  0  0  0  0  0  0  0  0  0  0
    6.5003  -12.9989   26.6825 C   0  0  0  0  0  0  0  0  0  0  0  0
    7.0224  -11.7413   26.9000 C   0  0  0  0  0  0  0  0  0  0  0  0
    8.4030  -11.6183   26.7828 C   0  0  0  0  0  0  0  0  0  0  0  0
    9.2229  -12.6719   26.4697 C   0  0  0  0  0  0  0  0  0  0  0  0
    8.6721  -13.9345   26.2541 C   0  0  0  0  0  0  0  0  0  0  0  0
    7.3085  -14.0713   26.3666 C   0  0  0  0  0  0  0  0  0  0  0  0
    7.4563  -16.9863   23.5215 C   0  0  0  0  0  0  0  0  0  0  0  0
    8.1371  -18.0020   23.3024 O   0  0  0  0  0  0  0  0  0  0  0  0
    7.0228  -12.9219   19.8102 C   0  0  0  0  0  0  0  0  0  0  0  0
    7.2282  -14.2594   20.4549 C   0  0  0  0  0  0  0  0  0  0  0  0
    8.5995  -14.3491   21.0818 C   0  0  2  0  0  0  0  0  0  0  0  0
    9.7060  -14.2471   20.0686 C   0  0  0  0  0  0  0  0  0  0  0  0
    8.7569  -15.6335   21.8405 C   0  0  2  0  0  0  0  0  0  0  0  0
    7.6846  -15.7905   22.8007 N   0  0  0  0  0  0  0  0  0  0  0  0
   10.0783  -15.7514   22.4982 C   0  0  0  0  0  0  0  0  0  0  0  0
   10.4078  -14.8742   23.3231 O   0  0  0  0  0  0  0  0  0  0  0  0
   10.9635  -16.8113   22.2239 N   0  0  0  0  0  0  0  0  0  0  0  0
   12.2887  -16.7996   22.7988 C   0  0  1  0  0  0  0  0  0  0  0  0
   12.5186  -18.1193   23.4976 C   0  0  0  0  0  0  0  0  0  0  0  0
   11.2545  -19.2842   22.8589 S   0  0  0  0  0  0  0  0  0  0  0  0
   13.2839  -16.5008   21.7547 C   0  0  0  0  0  0  0  0  0  0  0  0
   12.9116  -16.4195   20.5645 O   0  0  0  0  0  0  0  0  0  0  0  0
   14.6083  -16.3168   22.1057 O   0  0  0  0  0  0  0  0  0  0  0  0
  2  1  1  1
  3  4  1  0
  3  2  1  0
  4 12  1  0
  5  4  2  0
  5  6  1  0
  6  7  1  0
  7  8  1  0
  8  9  2  0
 10  9  1  0
 11 10  2  0
 12  7  2  0
 12 11  1  0
 13 20  1  0
 13  2  1  0
 14 13  2  0
 16 15  1  0
 17 16  1  0
 17 18  1  6
 19 17  1  0
 19 20  1  1
 21 19  1  0
 22 21  2  0
 23 21  1  0
 24 27  1  0
 24 23  1  0
 24 25  1  6
 26 25  1  0
 27 29  1  0
 28 27  2  0
M  END
$$$$
