WIC.pdb
     RDKit          3D

 29 30  0  0  1  0  0  0  0  0999 V2000
    6.6495  -17.9864   25.7644 N   0  0  0  0  0  0  0  0  0  0  0  0
    7.0671  -16.7108   25.2680 C   0  0  1  0  0  0  0  0  0  0  0  0
    8.4343  -16.3909   25.8586 C   0  0  0  0  0  0  0  0  0  0  0  0
    8.3017  -15.3161   26.8755 C   0  0  0  0  0  0  0  0  0  0  0  0
    8.7951  -15.2692   28.1629 C   0  0  0  0  0  0  0  0  0  0  0  0
    8.4317  -14.0994   28.7239 N   0  0  0  0  0  0  0  0  0  0  0  0
    7.7154  -13.3650   27.8604 C   0  0  0  0  0  0  0  0  0  0  0  0
    7.1299  -12.1206   27.9624 C   0  0  0  0  0  0  0  0  0  0  0  0
    6.4493  -11.6657   26.8378 C   0  0  0  0  0  0  0  0  0  0  0  0
    6.3502  -12.3931   25.6795 C   0  0  0  0  0  0  0  0  0  0  0  0
    6.9504  -13.6490   25.6000 C   0  0  0  0  0  0  0  0  0  0  0  0
    7.6269  -14.1119   26.7040 C   0  0  0  0  0  0  0  0  0  0  0  0
    7.2277  -16.6896   23.7924 C   0  0  0  0  0  0  0  0  0  0  0  0
    7.2623  -17.7623   23.1670 O   0  0  0  0  0  0  0  0  0  0  0  0
    7.5222  -12.3396   19.3368 C   0  0  0  0  0  0  0  0  0  0  0  0
    7.5286  -13.7787   19.7559 C   0  0  0  0  0  0  0  0  0  0  0  0
    7.4772  -13.9007   21.2605 C   0  0  2  0  0  0  0  0  0  0  0  0
    8.6184  -13.1928   21.9372 C   0  0  0  0  0  0  0  0  0  0  0  0
    7.4859  -15.3408   21.6802 C   0  0  2  0  0  0  0  0  0  0  0  0
    7.3392  -15.4519   23.1164 N   0  0  0  0  0  0  0  0  0  0  0  0
    8.6894  -16.0658   21.2131 C   0  0  0  0  0  0  0  0  0  0  0  0
    8.7063  -16.4868   20.0378 O   0  0  0  0  0  0  0  0  0  0  0  0
    9.8022  -16.2918   22.0455 N   0  0  0  0  0  0  0  0  0  0  0  0
   11.0845  -16.5955   21.4538 C   0  0  1  0  0  0  0  0  0  0  0  0
   11.5126  -15.4181   20.6094 C   0  0  0  0  0  0  0  0  0  0  0  0
   11.3308  -15.9286   18.8574 S   0  0  0  0  0  0  0  0  0  0  0  0
   12.0500  -16.9506   22.5081 C   0  0  0  0  0  0  0  0  0  0  0  0
   11.6816  -16.9318   23.7021 O   0  0  0  0  0  0  0  0  0  0  0  0
   13.3430  -17.2967   22.1622 O   0  0  0  0  0  0  0  0  0  0  0  0
  2  1  1  1
  3  4  1  0
  3  2  1  0
  4 12  1  0
  5  4  2  0
  5  6  1  0
  6  7  1  0
  7  8  1  0
  8  9  2  0
 10  9  1  0
 11 10  2  0
 12  7  2  0
 12 11  1  0
 13 20  1  0
 13  2  1  0
 14 13  2  0
 16 15  1  0
 17 16  1  0
 17 18  1  1
 19 17  1  0
 19 20  1  1
 21 19  1  0
 22 21  2  0
 23 21  1  0
 24 27  1  0
 24 23  1  0
 24 25  1  1
 26 25  1  0
 27 29  1  0
 28 27  2  0
M  END
$$$$
