WIC.pdb
     RDKit          3D

 29 30  0  0  1  0  0  0  0  0999 V2000
    7.1110  -17.5769   25.6323 N   0  0  0  0  0  0  0  0  0  0  0  0
    7.2920  -16.3769   24.8738 C   0  0  1  0  0  0  0  0  0  0  0  0
    8.5785  -15.7061   25.3379 C   0  0  0  0  0  0  0  0  0  0  0  0
    8.3067  -14.8813   26.5432 C   0  0  0  0  0  0  0  0  0  0  0  0
    8.6536  -15.1181   27.8572 C   0  0  0  0  0  0  0  0  0  0  0  0
    8.2004  -14.1007   28.6152 N   0  0  0  0  0  0  0  0  0  0  0  0
    7.5650  -13.1951   27.8574 C   0  0  0  0  0  0  0  0  0  0  0  0
    6.9399  -12.0041   28.1616 C   0  0  0  0  0  0  0  0  0  0  0  0
    6.3760  -11.3137   27.0937 C   0  0  0  0  0  0  0  0  0  0  0  0
    6.4242  -11.7687   25.8010 C   0  0  0  0  0  0  0  0  0  0  0  0
    7.0618  -12.9758   25.5177 C   0  0  0  0  0  0  0  0  0  0  0  0
    7.6240  -13.6695   26.5634 C   0  0  0  0  0  0  0  0  0  0  0  0
    7.4476  -16.6308   23.4195 C   0  0  0  0  0  0  0  0  0  0  0  0
    7.2352  -17.7704   22.9729 O   0  0  0  0  0  0  0  0  0  0  0  0
    7.3392  -12.0968   21.1294 C   0  0  0  0  0  0  0  0  0  0  0  0
    6.8777  -13.5161   20.9907 C   0  0  0  0  0  0  0  0  0  0  0  0
    7.9847  -14.3913   20.4523 C   0  0  2  0  0  0  0  0  0  0  0  0
    7.8858  -14.5998   18.9663 C   0  0  0  0  0  0  0  0  0  0  0  0
    7.9839  -15.7302   21.1285 C   0  0  2  0  0  0  0  0  0  0  0  0
    7.8347  -15.5756   22.5604 N   0  0  0  0  0  0  0  0  0  0  0  0
    9.1835  -16.5356   20.8049 C   0  0  0  0  0  0  0  0  0  0  0  0
    9.2806  -17.0154   19.6564 O   0  0  0  0  0  0  0  0  0  0  0  0
   10.2060  -16.7732   21.7432 N   0  0  0  0  0  0  0  0  0  0  0  0
   11.4094  -17.4558   21.3279 C   0  0  1  0  0  0  0  0  0  0  0  0
   12.5188  -16.4376   21.2052 C   0  0  0  0  0  0  0  0  0  0  0  0
   14.0709  -17.3755   20.9321 S   0  0  0  0  0  0  0  0  0  0  0  0
   11.7117  -18.5512   22.2654 C   0  0  0  0  0  0  0  0  0  0  0  0
   11.0369  -18.6604   23.3115 O   0  0  0  0  0  0  0  0  0  0  0  0
   12.7329  -19.4366   21.9753 O   0  0  0  0  0  0  0  0  0  0  0  0
  2  1  1  1
  3  4  1  0
  3  2  1  0
  4 12  1  0
  5  4  2  0
  5  6  1  0
  6  7  1  0
  7  8  1  0
  8  9  2  0
 10  9  1  0
 11 10  2  0
 12  7  2  0
 12 11  1  0
 13 20  1  0
 13  2  1  0
 14 13  2  0
 16 15  1  0
 17 16  1  0
 17 18  1  6
 19 17  1  0
 19 20  1  1
 21 19  1  0
 22 21  2  0
 23 21  1  0
 24 27  1  0
 24 23  1  0
 24 25  1  1
 26 25  1  0
 27 29  1  0
 28 27  2  0
M  END
$$$$
