FLM.pdb
     RDKit          3D

 28 28  0  0  1  0  0  0  0  0999 V2000
   26.1828  -21.5387  -12.3270 N   0  0  0  0  0  0  0  0  0  0  0  0
   25.6772  -20.4101  -11.5263 C   0  0  1  0  0  0  0  0  0  0  0  0
   24.2212  -20.2062  -11.9028 C   0  0  0  0  0  0  0  0  0  0  0  0
   24.0557  -19.5865  -13.2311 C   0  0  0  0  0  0  0  0  0  0  0  0
   24.9748  -18.7161  -13.7511 C   0  0  0  0  0  0  0  0  0  0  0  0
   24.8344  -18.1324  -15.0080 C   0  0  0  0  0  0  0  0  0  0  0  0
   23.7132  -18.4594  -15.7449 C   0  0  0  0  0  0  0  0  0  0  0  0
   22.7823  -19.3318  -15.2361 C   0  0  0  0  0  0  0  0  0  0  0  0
   22.9376  -19.9096  -13.9709 C   0  0  0  0  0  0  0  0  0  0  0  0
   25.6713  -20.8625  -10.1149 C   0  0  0  0  0  0  0  0  0  0  0  0
   25.6136  -22.0841   -9.8450 O   0  0  0  0  0  0  0  0  0  0  0  0
   28.5899  -18.1327   -6.5283 C   0  0  0  0  0  0  0  0  0  0  0  0
   27.8992  -19.2650   -7.3070 C   0  0  1  0  0  0  0  0  0  0  0  0
   28.6929  -20.5163   -7.0147 C   0  0  0  0  0  0  0  0  0  0  0  0
   26.4976  -19.4690   -6.7852 C   0  0  0  0  0  0  0  0  0  0  0  0
   25.7725  -20.4734   -7.6257 C   0  0  2  0  0  0  0  0  0  0  0  0
   25.7296  -19.9735   -9.0059 N   0  0  0  0  0  0  0  0  0  0  0  0
   24.4169  -20.7716   -7.1555 C   0  0  0  0  0  0  0  0  0  0  0  0
   24.2446  -20.9143   -5.9096 O   0  0  0  0  0  0  0  0  0  0  0  0
   18.5316  -19.9903  -10.2242 C   0  0  0  0  0  0  0  0  0  0  0  0
   18.3398  -21.5997   -9.3691 S   0  0  0  0  0  0  0  0  0  0  0  0
   19.5882  -21.6405   -8.0327 C   0  0  0  0  0  0  0  0  0  0  0  0
   20.9472  -21.2603   -8.5653 C   0  0  0  0  0  0  0  0  0  0  0  0
   21.9539  -21.2571   -7.4740 C   0  0  2  0  0  0  0  0  0  0  0  0
   23.2881  -20.9143   -7.9784 N   0  0  0  0  0  0  0  0  0  0  0  0
   21.9712  -22.4604   -6.6747 C   0  0  0  0  0  0  0  0  0  0  0  0
   22.7938  -23.3835   -7.0272 O   0  0  0  0  0  0  0  0  0  0  0  0
   21.2215  -22.7705   -5.5631 O   0  0  0  0  0  0  0  0  0  0  0  0
  2  1  1  6
  3  2  1  0
  4  9  2  0
  4  3  1  0
  5  4  1  0
  6  7  1  0
  6  5  2  0
  7  8  2  0
  8  9  1  0
 10 17  1  0
 10  2  1  0
 11 10  2  0
 13 12  1  1
 14 13  1  0
 16 15  1  1
 15 13  1  0
 16 17  1  0
 18 16  1  0
 19 18  2  0
 21 20  1  0
 21 22  1  0
 22 23  1  0
 24 23  1  6
 24 26  1  0
 24 25  1  0
 25 18  1  0
 26 28  1  0
 27 26  2  0
M  END
$$$$
