FLM.pdb
     RDKit          3D

 28 28  0  0  1  0  0  0  0  0999 V2000
   20.1801  -12.3415  -17.3899 N   0  0  0  0  0  0  0  0  0  0  0  0
   20.6752  -11.1260  -18.0592 C   0  0  1  0  0  0  0  0  0  0  0  0
   19.4653  -10.2806  -18.4122 C   0  0  0  0  0  0  0  0  0  0  0  0
   19.0962  -10.3779  -19.8371 C   0  0  0  0  0  0  0  0  0  0  0  0
   19.9173   -9.9319  -20.8368 C   0  0  0  0  0  0  0  0  0  0  0  0
   19.5841  -10.0274  -22.1859 C   0  0  0  0  0  0  0  0  0  0  0  0
   18.3692  -10.6000  -22.5071 C   0  0  0  0  0  0  0  0  0  0  0  0
   17.5348  -11.0525  -21.5143 C   0  0  0  0  0  0  0  0  0  0  0  0
   17.8839  -10.9488  -20.1630 C   0  0  0  0  0  0  0  0  0  0  0  0
   21.4232  -10.3560  -17.0372 C   0  0  0  0  0  0  0  0  0  0  0  0
   20.9518  -10.2132  -15.8858 O   0  0  0  0  0  0  0  0  0  0  0  0
   26.7367  -10.7936  -16.5264 C   0  0  0  0  0  0  0  0  0  0  0  0
   25.2226  -10.6173  -16.3202 C   0  0  1  0  0  0  0  0  0  0  0  0
   24.9398  -11.0646  -14.9056 C   0  0  0  0  0  0  0  0  0  0  0  0
   24.8539   -9.1578  -16.4304 C   0  0  0  0  0  0  0  0  0  0  0  0
   23.3798   -8.9796  -16.2403 C   0  0  2  0  0  0  0  0  0  0  0  0
   22.6852   -9.7469  -17.2822 N   0  0  0  0  0  0  0  0  0  0  0  0
   22.9433   -7.5809  -16.2692 C   0  0  0  0  0  0  0  0  0  0  0  0
   22.8324   -7.0226  -17.3998 O   0  0  0  0  0  0  0  0  0  0  0  0
   18.4240   -1.9876  -17.0556 C   0  0  0  0  0  0  0  0  0  0  0  0
   18.8894   -3.7598  -17.0273 S   0  0  0  0  0  0  0  0  0  0  0  0
   20.4439   -3.8831  -16.0708 C   0  0  0  0  0  0  0  0  0  0  0  0
   20.9077   -5.3164  -15.9958 C   0  0  0  0  0  0  0  0  0  0  0  0
   22.1635   -5.4187  -15.2106 C   0  0  2  0  0  0  0  0  0  0  0  0
   22.6381   -6.8050  -15.1393 N   0  0  0  0  0  0  0  0  0  0  0  0
   22.1038   -4.8004  -13.9063 C   0  0  0  0  0  0  0  0  0  0  0  0
   22.0839   -5.5856  -12.8884 O   0  0  0  0  0  0  0  0  0  0  0  0
   22.0675   -3.4627  -13.5848 O   0  0  0  0  0  0  0  0  0  0  0  0
  2  1  1  1
  3  2  1  0
  4  9  2  0
  4  3  1  0
  5  4  1  0
  6  7  1  0
  6  5  2  0
  7  8  2  0
  8  9  1  0
 10 17  1  0
 10  2  1  0
 11 10  2  0
 13 12  1  1
 14 13  1  0
 16 15  1  6
 15 13  1  0
 16 17  1  0
 18 16  1  0
 19 18  2  0
 21 20  1  0
 21 22  1  0
 22 23  1  0
 24 23  1  1
 24 26  1  0
 24 25  1  0
 25 18  1  0
 26 28  1  0
 27 26  2  0
M  END
$$$$
