FLM.pdb
     RDKit          3D

 28 28  0  0  1  0  0  0  0  0999 V2000
   23.2435  -20.5789  -15.8912 N   0  0  0  0  0  0  0  0  0  0  0  0
   23.6552  -19.8801  -14.6612 C   0  0  1  0  0  0  0  0  0  0  0  0
   22.5300  -20.0370  -13.6549 C   0  0  0  0  0  0  0  0  0  0  0  0
   21.2609  -19.4464  -14.1202 C   0  0  0  0  0  0  0  0  0  0  0  0
   21.1462  -18.1215  -14.4426 C   0  0  0  0  0  0  0  0  0  0  0  0
   19.9559  -17.5546  -14.8924 C   0  0  0  0  0  0  0  0  0  0  0  0
   18.8567  -18.3820  -15.0113 C   0  0  0  0  0  0  0  0  0  0  0  0
   18.9569  -19.7141  -14.6917 C   0  0  0  0  0  0  0  0  0  0  0  0
   20.1601  -20.2684  -14.2405 C   0  0  0  0  0  0  0  0  0  0  0  0
   24.8021  -20.6388  -14.1080 C   0  0  0  0  0  0  0  0  0  0  0  0
   24.7725  -21.8904  -14.0748 O   0  0  0  0  0  0  0  0  0  0  0  0
   29.5217  -18.7159  -15.1836 C   0  0  0  0  0  0  0  0  0  0  0  0
   28.2441  -19.5001  -14.8394 C   0  0  1  0  0  0  0  0  0  0  0  0
   28.1543  -20.6161  -15.8531 C   0  0  0  0  0  0  0  0  0  0  0  0
   28.3745  -20.1227  -13.4705 C   0  0  0  0  0  0  0  0  0  0  0  0
   27.1037  -20.8190  -13.0944 C   0  0  2  0  0  0  0  0  0  0  0  0
   25.9765  -20.0216  -13.5948 N   0  0  0  0  0  0  0  0  0  0  0  0
   26.9580  -21.0493  -11.6545 C   0  0  0  0  0  0  0  0  0  0  0  0
   27.8836  -21.6782  -11.0627 O   0  0  0  0  0  0  0  0  0  0  0  0
   29.3953  -20.5267   -6.1083 C   0  0  0  0  0  0  0  0  0  0  0  0
   28.0650  -19.2939   -6.3702 S   0  0  0  0  0  0  0  0  0  0  0  0
   26.7018  -20.1611   -7.2280 C   0  0  0  0  0  0  0  0  0  0  0  0
   26.8702  -20.0642   -8.7238 C   0  0  0  0  0  0  0  0  0  0  0  0
   25.7934  -20.8121   -9.4204 C   0  0  2  0  0  0  0  0  0  0  0  0
   25.8691  -20.6288  -10.8739 N   0  0  0  0  0  0  0  0  0  0  0  0
   24.4652  -20.5575   -8.9122 C   0  0  0  0  0  0  0  0  0  0  0  0
   23.6649  -19.8999   -9.6739 O   0  0  0  0  0  0  0  0  0  0  0  0
   23.9160  -20.9268   -7.7056 O   0  0  0  0  0  0  0  0  0  0  0  0
  2  1  1  6
  3  2  1  0
  4  9  2  0
  4  3  1  0
  5  4  1  0
  6  7  1  0
  6  5  2  0
  7  8  2  0
  8  9  1  0
 10 17  1  0
 10  2  1  0
 11 10  2  0
 13 12  1  6
 14 13  1  0
 16 15  1  1
 15 13  1  0
 16 17  1  0
 18 16  1  0
 19 18  2  0
 21 20  1  0
 21 22  1  0
 22 23  1  0
 24 23  1  1
 24 26  1  0
 24 25  1  0
 25 18  1  0
 26 28  1  0
 27 26  2  0
M  END
$$$$
