FLM.pdb
     RDKit          3D

 28 28  0  0  1  0  0  0  0  0999 V2000
   24.3871  -20.2941  -16.3937 N   0  0  0  0  0  0  0  0  0  0  0  0
   24.7720  -19.4990  -15.2146 C   0  0  1  0  0  0  0  0  0  0  0  0
   23.5116  -19.2512  -14.4064 C   0  0  0  0  0  0  0  0  0  0  0  0
   22.5525  -18.3703  -15.0991 C   0  0  0  0  0  0  0  0  0  0  0  0
   21.3669  -18.8329  -15.6020 C   0  0  0  0  0  0  0  0  0  0  0  0
   20.4489  -18.0090  -16.2492 C   0  0  0  0  0  0  0  0  0  0  0  0
   20.7677  -16.6716  -16.3782 C   0  0  0  0  0  0  0  0  0  0  0  0
   21.9540  -16.1928  -15.8781 C   0  0  0  0  0  0  0  0  0  0  0  0
   22.8662  -17.0339  -15.2307 C   0  0  0  0  0  0  0  0  0  0  0  0
   25.6259  -20.3732  -14.3759 C   0  0  0  0  0  0  0  0  0  0  0  0
   25.3506  -21.5883  -14.2486 O   0  0  0  0  0  0  0  0  0  0  0  0
   30.2784  -22.0822  -12.3077 C   0  0  0  0  0  0  0  0  0  0  0  0
   29.6319  -20.9541  -11.4861 C   0  0  1  0  0  0  0  0  0  0  0  0
   30.7729  -20.1214  -10.9513 C   0  0  0  0  0  0  0  0  0  0  0  0
   28.7950  -20.0764  -12.3848 C   0  0  0  0  0  0  0  0  0  0  0  0
   27.5622  -20.8058  -12.8200 C   0  0  2  0  0  0  0  0  0  0  0  0
   26.7782  -19.9114  -13.6814 N   0  0  0  0  0  0  0  0  0  0  0  0
   26.7361  -21.2881  -11.7099 C   0  0  0  0  0  0  0  0  0  0  0  0
   26.9624  -22.4538  -11.2713 O   0  0  0  0  0  0  0  0  0  0  0  0
   28.1826  -20.6025   -5.3638 C   0  0  0  0  0  0  0  0  0  0  0  0
   27.3768  -19.2849   -6.3500 S   0  0  0  0  0  0  0  0  0  0  0  0
   26.0924  -20.0971   -7.3683 C   0  0  0  0  0  0  0  0  0  0  0  0
   26.4451  -20.0128   -8.8324 C   0  0  0  0  0  0  0  0  0  0  0  0
   25.3931  -20.6537   -9.6610 C   0  0  2  0  0  0  0  0  0  0  0  0
   25.7075  -20.5597  -11.0908 N   0  0  0  0  0  0  0  0  0  0  0  0
   24.0505  -20.2053   -9.3723 C   0  0  0  0  0  0  0  0  0  0  0  0
   23.6336  -20.3507   -8.1648 O   0  0  0  0  0  0  0  0  0  0  0  0
   23.1311  -19.6286  -10.2186 O   0  0  0  0  0  0  0  0  0  0  0  0
  2  1  1  6
  3  2  1  0
  4  9  2  0
  4  3  1  0
  5  4  1  0
  6  7  1  0
  6  5  2  0
  7  8  2  0
  8  9  1  0
 10 17  1  0
 10  2  1  0
 11 10  2  0
 13 12  1  6
 14 13  1  0
 16 15  1  1
 15 13  1  0
 16 17  1  0
 18 16  1  0
 19 18  2  0
 21 20  1  0
 21 22  1  0
 22 23  1  0
 24 23  1  1
 24 26  1  0
 24 25  1  0
 25 18  1  0
 26 28  1  0
 27 26  2  0
M  END
$$$$
