FLM.pdb
     RDKit          3D

 28 28  0  0  1  0  0  0  0  0999 V2000
   26.0135  -24.4665  -15.7167 N   0  0  0  0  0  0  0  0  0  0  0  0
   25.0950  -23.6113  -14.9450 C   0  0  1  0  0  0  0  0  0  0  0  0
   24.3133  -24.5165  -14.0108 C   0  0  0  0  0  0  0  0  0  0  0  0
   23.2287  -25.2449  -14.6957 C   0  0  0  0  0  0  0  0  0  0  0  0
   22.1077  -24.6153  -15.1640 C   0  0  0  0  0  0  0  0  0  0  0  0
   21.0817  -25.2907  -15.8209 C   0  0  0  0  0  0  0  0  0  0  0  0
   21.2213  -26.6532  -15.9972 C   0  0  0  0  0  0  0  0  0  0  0  0
   22.3412  -27.2987  -15.5327 C   0  0  0  0  0  0  0  0  0  0  0  0
   23.3633  -26.6057  -14.8740 C   0  0  0  0  0  0  0  0  0  0  0  0
   25.9407  -22.7621  -14.0729 C   0  0  0  0  0  0  0  0  0  0  0  0
   27.0662  -23.1658  -13.7004 O   0  0  0  0  0  0  0  0  0  0  0  0
   26.4036  -17.3933  -14.6671 C   0  0  0  0  0  0  0  0  0  0  0  0
   26.6800  -18.8777  -14.3739 C   0  0  1  0  0  0  0  0  0  0  0  0
   28.1828  -19.0284  -14.3679 C   0  0  0  0  0  0  0  0  0  0  0  0
   26.1698  -19.2352  -12.9991 C   0  0  0  0  0  0  0  0  0  0  0  0
   26.4069  -20.6866  -12.7193 C   0  0  2  0  0  0  0  0  0  0  0  0
   25.5488  -21.4739  -13.6141 N   0  0  0  0  0  0  0  0  0  0  0  0
   26.1658  -21.0684  -11.3252 C   0  0  0  0  0  0  0  0  0  0  0  0
   25.1322  -21.7546  -11.0735 O   0  0  0  0  0  0  0  0  0  0  0  0
   28.4146  -19.9177   -4.0477 C   0  0  0  0  0  0  0  0  0  0  0  0
   27.9527  -18.8873   -5.4910 S   0  0  0  0  0  0  0  0  0  0  0  0
   26.8878  -19.9216   -6.5599 C   0  0  0  0  0  0  0  0  0  0  0  0
   27.4147  -19.9408   -7.9731 C   0  0  0  0  0  0  0  0  0  0  0  0
   26.5526  -20.7824   -8.8407 C   0  0  2  0  0  0  0  0  0  0  0  0
   26.9909  -20.7322  -10.2398 N   0  0  0  0  0  0  0  0  0  0  0  0
   25.1378  -20.5225   -8.7080 C   0  0  0  0  0  0  0  0  0  0  0  0
   24.6359  -19.6194   -9.4733 O   0  0  0  0  0  0  0  0  0  0  0  0
   24.2253  -21.1154   -7.8655 O   0  0  0  0  0  0  0  0  0  0  0  0
  2  1  1  6
  3  2  1  0
  4  9  2  0
  4  3  1  0
  5  4  1  0
  6  7  1  0
  6  5  2  0
  7  8  2  0
  8  9  1  0
 10 17  1  0
 10  2  1  0
 11 10  2  0
 13 12  1  1
 14 13  1  0
 16 15  1  1
 15 13  1  0
 16 17  1  0
 18 16  1  0
 19 18  2  0
 21 20  1  0
 21 22  1  0
 22 23  1  0
 24 23  1  1
 24 26  1  0
 24 25  1  0
 25 18  1  0
 26 28  1  0
 27 26  2  0
M  END
$$$$
