FLM.pdb
     RDKit          3D

 28 28  0  0  1  0  0  0  0  0999 V2000
   16.0848  -16.8980    4.7159 N   0  0  0  0  0  0  0  0  0  0  0  0
   17.2686  -16.1591    5.1884 C   0  0  1  0  0  0  0  0  0  0  0  0
   16.7763  -15.0650    6.1178 C   0  0  0  0  0  0  0  0  0  0  0  0
   17.6507  -13.8770    6.1157 C   0  0  0  0  0  0  0  0  0  0  0  0
   18.3792  -13.5038    7.2123 C   0  0  0  0  0  0  0  0  0  0  0  0
   19.2157  -12.3901    7.2191 C   0  0  0  0  0  0  0  0  0  0  0  0
   19.2996  -11.6444    6.0598 C   0  0  0  0  0  0  0  0  0  0  0  0
   18.5745  -12.0071    4.9511 C   0  0  0  0  0  0  0  0  0  0  0  0
   17.7378  -13.1289    4.9604 C   0  0  0  0  0  0  0  0  0  0  0  0
   18.0400  -17.0965    6.0387 C   0  0  0  0  0  0  0  0  0  0  0  0
   17.9987  -18.3283    5.8167 O   0  0  0  0  0  0  0  0  0  0  0  0
   22.8964  -15.7506    8.4711 C   0  0  0  0  0  0  0  0  0  0  0  0
   21.8517  -16.6129    7.7425 C   0  0  1  0  0  0  0  0  0  0  0  0
   22.5368  -17.9221    7.4296 C   0  0  0  0  0  0  0  0  0  0  0  0
   20.6903  -16.9023    8.6622 C   0  0  0  0  0  0  0  0  0  0  0  0
   19.6189  -17.6452    7.9265 C   0  0  2  0  0  0  0  0  0  0  0  0
   18.8540  -16.6787    7.1280 N   0  0  0  0  0  0  0  0  0  0  0  0
   18.7178  -18.4035    8.7986 C   0  0  0  0  0  0  0  0  0  0  0  0
   17.8389  -17.7574    9.4408 O   0  0  0  0  0  0  0  0  0  0  0  0
   14.9498  -24.9523   10.8612 C   0  0  0  0  0  0  0  0  0  0  0  0
   16.1547  -24.2222    9.6895 S   0  0  0  0  0  0  0  0  0  0  0  0
   16.5495  -22.5479   10.3117 C   0  0  0  0  0  0  0  0  0  0  0  0
   17.5860  -21.8881    9.4368 C   0  0  0  0  0  0  0  0  0  0  0  0
   17.8737  -20.5122    9.9143 C   0  0  2  0  0  0  0  0  0  0  0  0
   18.7510  -19.7952    8.9824 N   0  0  0  0  0  0  0  0  0  0  0  0
   18.3566  -20.4413   11.2740 C   0  0  0  0  0  0  0  0  0  0  0  0
   19.5085  -20.9604   11.5121 O   0  0  0  0  0  0  0  0  0  0  0  0
   17.7526  -19.8838   12.3778 O   0  0  0  0  0  0  0  0  0  0  0  0
  2  1  1  1
  3  2  1  0
  4  9  2  0
  4  3  1  0
  5  4  1  0
  6  7  1  0
  6  5  2  0
  7  8  2  0
  8  9  1  0
 10 17  1  0
 10  2  1  0
 11 10  2  0
 13 12  1  1
 14 13  1  0
 16 15  1  1
 15 13  1  0
 16 17  1  0
 18 16  1  0
 19 18  2  0
 21 20  1  0
 21 22  1  0
 22 23  1  0
 24 23  1  6
 24 26  1  0
 24 25  1  0
 25 18  1  0
 26 28  1  0
 27 26  2  0
M  END
$$$$
