FLM.pdb
     RDKit          3D

 28 28  0  0  1  0  0  0  0  0999 V2000
   34.6952  -22.8628    7.1097 N   0  0  0  0  0  0  0  0  0  0  0  0
   35.0949  -23.5224    5.8544 C   0  0  1  0  0  0  0  0  0  0  0  0
   35.2480  -22.4379    4.8038 C   0  0  0  0  0  0  0  0  0  0  0  0
   33.9681  -21.7901    4.4604 C   0  0  0  0  0  0  0  0  0  0  0  0
   32.8450  -22.5085    4.1517 C   0  0  0  0  0  0  0  0  0  0  0  0
   31.6285  -21.9081    3.8356 C   0  0  0  0  0  0  0  0  0  0  0  0
   31.5744  -20.5283    3.8398 C   0  0  0  0  0  0  0  0  0  0  0  0
   32.6936  -19.7940    4.1480 C   0  0  0  0  0  0  0  0  0  0  0  0
   33.9089  -20.4123    4.4630 C   0  0  0  0  0  0  0  0  0  0  0  0
   36.4557  -24.0657    6.0774 C   0  0  0  0  0  0  0  0  0  0  0  0
   37.0568  -24.6588    5.1525 O   0  0  0  0  0  0  0  0  0  0  0  0
   40.6809  -21.9716    8.5719 C   0  0  0  0  0  0  0  0  0  0  0  0
   39.7458  -22.8146    7.6882 C   0  0  1  0  0  0  0  0  0  0  0  0
   40.5884  -23.2969    6.5312 C   0  0  0  0  0  0  0  0  0  0  0  0
   39.2665  -24.0247    8.4526 C   0  0  0  0  0  0  0  0  0  0  0  0
   38.3023  -24.8138    7.6228 C   0  0  2  0  0  0  0  0  0  0  0  0
   37.1517  -23.9552    7.3131 N   0  0  0  0  0  0  0  0  0  0  0  0
   37.8490  -26.0535    8.2592 C   0  0  0  0  0  0  0  0  0  0  0  0
   38.7299  -26.8977    8.5966 O   0  0  0  0  0  0  0  0  0  0  0  0
   31.7199  -28.3093    9.8240 C   0  0  0  0  0  0  0  0  0  0  0  0
   32.7607  -28.6083   11.3023 S   0  0  0  0  0  0  0  0  0  0  0  0
   34.4988  -28.6192   10.7319 C   0  0  0  0  0  0  0  0  0  0  0  0
   34.7140  -27.5714    9.6684 C   0  0  0  0  0  0  0  0  0  0  0  0
   36.0917  -27.6571    9.1218 C   0  0  2  0  0  0  0  0  0  0  0  0
   36.5104  -26.3840    8.5253 N   0  0  0  0  0  0  0  0  0  0  0  0
   36.3107  -28.7706    8.2278 C   0  0  0  0  0  0  0  0  0  0  0  0
   36.7614  -29.8567    8.7478 O   0  0  0  0  0  0  0  0  0  0  0  0
   36.0999  -28.8432    6.8698 O   0  0  0  0  0  0  0  0  0  0  0  0
  2  1  1  1
  3  2  1  0
  4  9  2  0
  4  3  1  0
  5  4  1  0
  6  7  1  0
  6  5  2  0
  7  8  2  0
  8  9  1  0
 10 17  1  0
 10  2  1  0
 11 10  2  0
 13 12  1  1
 14 13  1  0
 16 15  1  1
 15 13  1  0
 16 17  1  0
 18 16  1  0
 19 18  2  0
 21 20  1  0
 21 22  1  0
 22 23  1  0
 24 23  1  6
 24 26  1  0
 24 25  1  0
 25 18  1  0
 26 28  1  0
 27 26  2  0
M  END
$$$$
