FLM.pdb
     RDKit          3D

 28 28  0  0  1  0  0  0  0  0999 V2000
   25.9323  -20.4571  -12.9440 N   0  0  0  0  0  0  0  0  0  0  0  0
   25.3408  -20.0837  -11.6474 C   0  0  1  0  0  0  0  0  0  0  0  0
   23.9283  -20.6383  -11.6193 C   0  0  0  0  0  0  0  0  0  0  0  0
   23.0759  -20.0853  -12.6886 C   0  0  0  0  0  0  0  0  0  0  0  0
   22.7680  -18.7541  -12.7629 C   0  0  0  0  0  0  0  0  0  0  0  0
   21.9725  -18.2189  -13.7733 C   0  0  0  0  0  0  0  0  0  0  0  0
   21.4839  -19.0853  -14.7312 C   0  0  0  0  0  0  0  0  0  0  0  0
   21.7849  -20.4240  -14.6698 C   0  0  0  0  0  0  0  0  0  0  0  0
   22.5854  -20.9465  -13.6476 C   0  0  0  0  0  0  0  0  0  0  0  0
   26.0904  -20.8314  -10.6101 C   0  0  0  0  0  0  0  0  0  0  0  0
   26.3162  -22.0548  -10.7547 O   0  0  0  0  0  0  0  0  0  0  0  0
   29.1090  -18.4682   -6.1496 C   0  0  0  0  0  0  0  0  0  0  0  0
   28.0042  -19.3930   -6.6882 C   0  0  1  0  0  0  0  0  0  0  0  0
   26.8517  -18.4914   -7.0623 C   0  0  0  0  0  0  0  0  0  0  0  0
   28.4790  -20.0875   -7.9414 C   0  0  0  0  0  0  0  0  0  0  0  0
   27.4107  -20.9943   -8.4682 C   0  0  2  0  0  0  0  0  0  0  0  0
   26.5897  -20.2342   -9.4195 N   0  0  0  0  0  0  0  0  0  0  0  0
   26.5627  -21.5790   -7.4258 C   0  0  0  0  0  0  0  0  0  0  0  0
   27.0342  -22.5448   -6.7570 O   0  0  0  0  0  0  0  0  0  0  0  0
   24.7441  -19.5881   -2.2998 C   0  0  0  0  0  0  0  0  0  0  0  0
   22.9953  -19.9129   -2.7409 S   0  0  0  0  0  0  0  0  0  0  0  0
   23.0130  -20.9031   -4.2790 C   0  0  0  0  0  0  0  0  0  0  0  0
   24.4146  -21.0059   -4.8269 C   0  0  0  0  0  0  0  0  0  0  0  0
   24.4271  -21.7937   -6.0853 C   0  0  2  0  0  0  0  0  0  0  0  0
   25.2624  -21.1546   -7.1079 N   0  0  0  0  0  0  0  0  0  0  0  0
   23.1166  -22.1307   -6.5913 C   0  0  0  0  0  0  0  0  0  0  0  0
   22.7034  -21.4805   -7.6207 O   0  0  0  0  0  0  0  0  0  0  0  0
   22.2252  -23.0699   -6.1250 O   0  0  0  0  0  0  0  0  0  0  0  0
  2  1  1  6
  3  2  1  0
  4  9  2  0
  4  3  1  0
  5  4  1  0
  6  7  1  0
  6  5  2  0
  7  8  2  0
  8  9  1  0
 10 17  1  0
 10  2  1  0
 11 10  2  0
 13 12  1  6
 14 13  1  0
 16 15  1  1
 15 13  1  0
 16 17  1  0
 18 16  1  0
 19 18  2  0
 21 20  1  0
 21 22  1  0
 22 23  1  0
 24 23  1  1
 24 26  1  0
 24 25  1  0
 25 18  1  0
 26 28  1  0
 27 26  2  0
M  END
$$$$
