FLM.pdb
     RDKit          3D

 28 28  0  0  1  0  0  0  0  0999 V2000
   24.9372   -9.5031  -18.1969 N   0  0  0  0  0  0  0  0  0  0  0  0
   25.2997  -10.8073  -18.7785 C   0  0  1  0  0  0  0  0  0  0  0  0
   26.2919  -11.4620  -17.8350 C   0  0  0  0  0  0  0  0  0  0  0  0
   27.6469  -10.8892  -17.9432 C   0  0  0  0  0  0  0  0  0  0  0  0
   28.0943   -9.9067  -17.1024 C   0  0  0  0  0  0  0  0  0  0  0  0
   29.3748   -9.3652  -17.1886 C   0  0  0  0  0  0  0  0  0  0  0  0
   30.2130   -9.8547  -18.1709 C   0  0  0  0  0  0  0  0  0  0  0  0
   29.7778  -10.8411  -19.0219 C   0  0  0  0  0  0  0  0  0  0  0  0
   28.4877  -11.3745  -18.9227 C   0  0  0  0  0  0  0  0  0  0  0  0
   24.0788  -11.6461  -18.7284 C   0  0  0  0  0  0  0  0  0  0  0  0
   23.3580  -11.6494  -17.7043 O   0  0  0  0  0  0  0  0  0  0  0  0
   20.2791  -11.6323  -22.4065 C   0  0  0  0  0  0  0  0  0  0  0  0
   21.0487  -11.7718  -21.0821 C   0  0  1  0  0  0  0  0  0  0  0  0
   20.0161  -11.6560  -19.9859 C   0  0  0  0  0  0  0  0  0  0  0  0
   21.6738  -13.1426  -20.9912 C   0  0  0  0  0  0  0  0  0  0  0  0
   22.4298  -13.2836  -19.7068 C   0  0  2  0  0  0  0  0  0  0  0  0
   23.6533  -12.4768  -19.8020 N   0  0  0  0  0  0  0  0  0  0  0  0
   22.7650  -14.6687  -19.3654 C   0  0  0  0  0  0  0  0  0  0  0  0
   23.6509  -15.2479  -20.0598 O   0  0  0  0  0  0  0  0  0  0  0  0
   20.1787  -18.6127  -14.6486 C   0  0  0  0  0  0  0  0  0  0  0  0
   21.9618  -19.0355  -14.6393 S   0  0  0  0  0  0  0  0  0  0  0  0
   22.6321  -18.5362  -16.2665 C   0  0  0  0  0  0  0  0  0  0  0  0
   22.2538  -17.1103  -16.5806 C   0  0  0  0  0  0  0  0  0  0  0  0
   22.5631  -16.7873  -17.9963 C   0  0  2  0  0  0  0  0  0  0  0  0
   22.1796  -15.4105  -18.3267 N   0  0  0  0  0  0  0  0  0  0  0  0
   22.0429  -17.7374  -18.9523 C   0  0  0  0  0  0  0  0  0  0  0  0
   20.8653  -17.5126  -19.4169 O   0  0  0  0  0  0  0  0  0  0  0  0
   22.6374  -18.8728  -19.4536 O   0  0  0  0  0  0  0  0  0  0  0  0
  2  1  1  1
  3  2  1  0
  4  9  2  0
  4  3  1  0
  5  4  1  0
  6  7  1  0
  6  5  2  0
  7  8  2  0
  8  9  1  0
 10 17  1  0
 10  2  1  0
 11 10  2  0
 13 12  1  6
 14 13  1  0
 16 15  1  6
 15 13  1  0
 16 17  1  0
 18 16  1  0
 19 18  2  0
 21 20  1  0
 21 22  1  0
 22 23  1  0
 24 23  1  1
 24 26  1  0
 24 25  1  0
 25 18  1  0
 26 28  1  0
 27 26  2  0
M  END
$$$$
