FLM.pdb
     RDKit          3D

 28 28  0  0  1  0  0  0  0  0999 V2000
   22.9004  -20.2507  -17.0210 N   0  0  0  0  0  0  0  0  0  0  0  0
   23.4722  -19.3713  -15.9864 C   0  0  1  0  0  0  0  0  0  0  0  0
   22.4422  -19.2489  -14.8786 C   0  0  0  0  0  0  0  0  0  0  0  0
   21.2267  -18.5301  -15.3051 C   0  0  0  0  0  0  0  0  0  0  0  0
   20.0097  -19.1476  -15.4050 C   0  0  0  0  0  0  0  0  0  0  0  0
   18.8533  -18.4772  -15.7970 C   0  0  0  0  0  0  0  0  0  0  0  0
   18.9610  -17.1327  -16.0928 C   0  0  0  0  0  0  0  0  0  0  0  0
   20.1760  -16.4993  -15.9967 C   0  0  0  0  0  0  0  0  0  0  0  0
   21.3291  -17.1872  -15.6018 C   0  0  0  0  0  0  0  0  0  0  0  0
   24.6177  -20.1032  -15.3957 C   0  0  0  0  0  0  0  0  0  0  0  0
   24.5905  -21.3523  -15.3096 O   0  0  0  0  0  0  0  0  0  0  0  0
   29.3918  -17.7650  -16.0574 C   0  0  0  0  0  0  0  0  0  0  0  0
   28.1728  -18.6959  -15.9425 C   0  0  1  0  0  0  0  0  0  0  0  0
   28.3566  -19.7560  -17.0024 C   0  0  0  0  0  0  0  0  0  0  0  0
   28.1702  -19.3779  -14.5960 C   0  0  0  0  0  0  0  0  0  0  0  0
   26.9519  -20.2359  -14.4516 C   0  0  2  0  0  0  0  0  0  0  0  0
   25.7881  -19.4622  -14.9030 N   0  0  0  0  0  0  0  0  0  0  0  0
   26.7320  -20.7283  -13.0890 C   0  0  0  0  0  0  0  0  0  0  0  0
   27.5184  -21.6182  -12.6510 O   0  0  0  0  0  0  0  0  0  0  0  0
   28.7312  -20.1093   -7.5505 C   0  0  0  0  0  0  0  0  0  0  0  0
   27.0048  -19.5681   -7.2593 S   0  0  0  0  0  0  0  0  0  0  0  0
   25.9613  -20.4531   -8.4735 C   0  0  0  0  0  0  0  0  0  0  0  0
   26.3416  -20.0661   -9.8809 C   0  0  0  0  0  0  0  0  0  0  0  0
   25.5225  -20.8137  -10.8679 C   0  0  2  0  0  0  0  0  0  0  0  0
   25.7138  -20.2926  -12.2257 N   0  0  0  0  0  0  0  0  0  0  0  0
   24.1238  -20.9218  -10.5227 C   0  0  0  0  0  0  0  0  0  0  0  0
   23.2796  -20.3919  -11.3347 O   0  0  0  0  0  0  0  0  0  0  0  0
   23.5478  -21.5258   -9.4284 O   0  0  0  0  0  0  0  0  0  0  0  0
  2  1  1  6
  3  2  1  0
  4  9  2  0
  4  3  1  0
  5  4  1  0
  6  7  1  0
  6  5  2  0
  7  8  2  0
  8  9  1  0
 10 17  1  0
 10  2  1  0
 11 10  2  0
 13 12  1  1
 14 13  1  0
 16 15  1  1
 15 13  1  0
 16 17  1  0
 18 16  1  0
 19 18  2  0
 21 20  1  0
 21 22  1  0
 22 23  1  0
 24 23  1  1
 24 26  1  0
 24 25  1  0
 25 18  1  0
 26 28  1  0
 27 26  2  0
M  END
$$$$
