FLM.pdb
     RDKit          3D

 28 28  0  0  1  0  0  0  0  0999 V2000
   13.7001   -9.0642  -13.8373 N   0  0  0  0  0  0  0  0  0  0  0  0
   14.1223   -7.9481  -12.9732 C   0  0  1  0  0  0  0  0  0  0  0  0
   14.5736   -8.5454  -11.6530 C   0  0  0  0  0  0  0  0  0  0  0  0
   13.4454   -8.9627  -10.7992 C   0  0  0  0  0  0  0  0  0  0  0  0
   13.0749  -10.2734  -10.6668 C   0  0  0  0  0  0  0  0  0  0  0  0
   12.0180  -10.6805   -9.8561 C   0  0  0  0  0  0  0  0  0  0  0  0
   11.3277   -9.7046   -9.1647 C   0  0  0  0  0  0  0  0  0  0  0  0
   11.6884   -8.3849   -9.2874 C   0  0  0  0  0  0  0  0  0  0  0  0
   12.7527   -7.9919  -10.1068 C   0  0  0  0  0  0  0  0  0  0  0  0
   15.3382   -7.3703  -13.5932 C   0  0  0  0  0  0  0  0  0  0  0  0
   16.0661   -8.0752  -14.3292 O   0  0  0  0  0  0  0  0  0  0  0  0
   14.8709   -2.4277  -15.5452 C   0  0  0  0  0  0  0  0  0  0  0  0
   15.3120   -3.8949  -15.4086 C   0  0  1  0  0  0  0  0  0  0  0  0
   15.7792   -4.3191  -16.7808 C   0  0  0  0  0  0  0  0  0  0  0  0
   16.4856   -3.9945  -14.4647 C   0  0  0  0  0  0  0  0  0  0  0  0
   16.8257   -5.4300  -14.2099 C   0  0  2  0  0  0  0  0  0  0  0  0
   15.7499   -6.0218  -13.4041 N   0  0  0  0  0  0  0  0  0  0  0  0
   18.1176   -5.6241  -13.5460 C   0  0  0  0  0  0  0  0  0  0  0  0
   18.1826   -5.3861  -12.3044 O   0  0  0  0  0  0  0  0  0  0  0  0
   22.7145   -9.7834  -15.4356 C   0  0  0  0  0  0  0  0  0  0  0  0
   22.9405   -9.6950  -13.6193 S   0  0  0  0  0  0  0  0  0  0  0  0
   22.2856   -8.0732  -13.0832 C   0  0  0  0  0  0  0  0  0  0  0  0
   20.9979   -7.7577  -13.8024 C   0  0  0  0  0  0  0  0  0  0  0  0
   20.5269   -6.3930  -13.4563 C   0  0  2  0  0  0  0  0  0  0  0  0
   19.2959   -6.0531  -14.1781 N   0  0  0  0  0  0  0  0  0  0  0  0
   21.5321   -5.3637  -13.5876 C   0  0  0  0  0  0  0  0  0  0  0  0
   21.5164   -4.6671  -14.6682 O   0  0  0  0  0  0  0  0  0  0  0  0
   22.5255   -5.0080  -12.7042 O   0  0  0  0  0  0  0  0  0  0  0  0
  2  1  1  6
  3  2  1  0
  4  9  2  0
  4  3  1  0
  5  4  1  0
  6  7  1  0
  6  5  2  0
  7  8  2  0
  8  9  1  0
 10 17  1  0
 10  2  1  0
 11 10  2  0
 13 12  1  6
 14 13  1  0
 16 15  1  1
 15 13  1  0
 16 17  1  0
 18 16  1  0
 19 18  2  0
 21 20  1  0
 21 22  1  0
 22 23  1  0
 24 23  1  6
 24 26  1  0
 24 25  1  0
 25 18  1  0
 26 28  1  0
 27 26  2  0
M  END
$$$$
