FLM.pdb
     RDKit          3D

 28 28  0  0  1  0  0  0  0  0999 V2000
   26.0942  -18.9539   -3.9895 N   0  0  0  0  0  0  0  0  0  0  0  0
   26.0549  -20.3242   -3.4497 C   0  0  1  0  0  0  0  0  0  0  0  0
   26.9756  -21.1734   -4.3069 C   0  0  0  0  0  0  0  0  0  0  0  0
   27.1682  -20.6197   -5.6604 C   0  0  0  0  0  0  0  0  0  0  0  0
   28.1475  -19.7070   -5.9442 C   0  0  0  0  0  0  0  0  0  0  0  0
   28.3453  -19.1847   -7.2202 C   0  0  0  0  0  0  0  0  0  0  0  0
   27.5071  -19.6196   -8.2279 C   0  0  0  0  0  0  0  0  0  0  0  0
   26.5199  -20.5356   -7.9580 C   0  0  0  0  0  0  0  0  0  0  0  0
   26.3336  -21.0507   -6.6702 C   0  0  0  0  0  0  0  0  0  0  0  0
   26.6858  -20.2687   -2.1097 C   0  0  0  0  0  0  0  0  0  0  0  0
   26.5325  -21.2129   -1.3014 O   0  0  0  0  0  0  0  0  0  0  0  0
   31.1406  -17.7151   -3.1708 C   0  0  0  0  0  0  0  0  0  0  0  0
   30.0737  -18.7164   -2.6962 C   0  0  1  0  0  0  0  0  0  0  0  0
   30.7097  -20.0825   -2.7982 C   0  0  0  0  0  0  0  0  0  0  0  0
   29.7394  -18.4646   -1.2460 C   0  0  0  0  0  0  0  0  0  0  0  0
   28.6504  -19.3885   -0.7970 C   0  0  2  0  0  0  0  0  0  0  0  0
   27.4826  -19.1785   -1.6624 N   0  0  0  0  0  0  0  0  0  0  0  0
   28.2725  -19.2201    0.6088 C   0  0  0  0  0  0  0  0  0  0  0  0
   29.1763  -19.3680    1.4827 O   0  0  0  0  0  0  0  0  0  0  0  0
   22.6804  -17.0936    2.9912 C   0  0  0  0  0  0  0  0  0  0  0  0
   23.0509  -18.2374    4.3742 S   0  0  0  0  0  0  0  0  0  0  0  0
   24.7361  -18.8879    4.0855 C   0  0  0  0  0  0  0  0  0  0  0  0
   25.1259  -18.7257    2.6375 C   0  0  0  0  0  0  0  0  0  0  0  0
   26.4823  -19.2791    2.3963 C   0  0  2  0  0  0  0  0  0  0  0  0
   26.9828  -18.9082    1.0683 N   0  0  0  0  0  0  0  0  0  0  0  0
   26.5999  -20.6980    2.6412 C   0  0  0  0  0  0  0  0  0  0  0  0
   25.9478  -21.4816    1.8577 O   0  0  0  0  0  0  0  0  0  0  0  0
   27.3271  -21.3505    3.6105 O   0  0  0  0  0  0  0  0  0  0  0  0
  2  1  1  6
  3  2  1  0
  4  9  2  0
  4  3  1  0
  5  4  1  0
  6  7  1  0
  6  5  2  0
  7  8  2  0
  8  9  1  0
 10 17  1  0
 10  2  1  0
 11 10  2  0
 13 12  1  1
 14 13  1  0
 16 15  1  6
 15 13  1  0
 16 17  1  0
 18 16  1  0
 19 18  2  0
 21 20  1  0
 21 22  1  0
 22 23  1  0
 24 23  1  6
 24 26  1  0
 24 25  1  0
 25 18  1  0
 26 28  1  0
 27 26  2  0
M  END
$$$$
