FLM.pdb
     RDKit          3D

 28 28  0  0  1  0  0  0  0  0999 V2000
   27.0248  -20.3142  -11.3308 N   0  0  0  0  0  0  0  0  0  0  0  0
   25.9089  -21.1417  -10.8402 C   0  0  1  0  0  0  0  0  0  0  0  0
   25.4325  -20.5292   -9.5358 C   0  0  0  0  0  0  0  0  0  0  0  0
   26.5133  -20.3897   -8.5417 C   0  0  0  0  0  0  0  0  0  0  0  0
   27.2449  -21.4595   -8.1025 C   0  0  0  0  0  0  0  0  0  0  0  0
   28.2741  -21.3388   -7.1717 C   0  0  0  0  0  0  0  0  0  0  0  0
   28.5524  -20.0772   -6.6839 C   0  0  0  0  0  0  0  0  0  0  0  0
   27.8267  -18.9939   -7.1158 C   0  0  0  0  0  0  0  0  0  0  0  0
   26.7950  -19.1319   -8.0513 C   0  0  0  0  0  0  0  0  0  0  0  0
   24.7956  -20.9629  -11.8022 C   0  0  0  0  0  0  0  0  0  0  0  0
   24.3970  -19.8131  -12.0982 O   0  0  0  0  0  0  0  0  0  0  0  0
   25.2259  -24.0660  -14.8631 C   0  0  0  0  0  0  0  0  0  0  0  0
   25.1943  -22.5471  -14.6228 C   0  0  1  0  0  0  0  0  0  0  0  0
   26.0711  -21.9379  -15.6911 C   0  0  0  0  0  0  0  0  0  0  0  0
   23.7917  -22.0238  -14.8160 C   0  0  0  0  0  0  0  0  0  0  0  0
   23.1284  -21.8168  -13.4900 C   0  0  2  0  0  0  0  0  0  0  0  0
   24.1252  -22.0456  -12.4360 N   0  0  0  0  0  0  0  0  0  0  0  0
   21.9592  -22.6730  -13.2722 C   0  0  0  0  0  0  0  0  0  0  0  0
   21.2570  -22.9775  -14.2804 O   0  0  0  0  0  0  0  0  0  0  0  0
   20.0295  -23.8247   -7.2645 C   0  0  0  0  0  0  0  0  0  0  0  0
   18.4082  -24.1987   -8.0324 S   0  0  0  0  0  0  0  0  0  0  0  0
   18.5655  -23.8137   -9.8138 C   0  0  0  0  0  0  0  0  0  0  0  0
   20.0138  -23.6205  -10.1884 C   0  0  0  0  0  0  0  0  0  0  0  0
   20.1460  -23.3512  -11.6424 C   0  0  2  0  0  0  0  0  0  0  0  0
   21.5510  -23.1846  -12.0297 N   0  0  0  0  0  0  0  0  0  0  0  0
   19.3201  -22.2692  -12.1263 C   0  0  0  0  0  0  0  0  0  0  0  0
   18.4297  -22.5630  -13.0061 O   0  0  0  0  0  0  0  0  0  0  0  0
   19.3440  -20.9392  -11.7736 O   0  0  0  0  0  0  0  0  0  0  0  0
  2  1  1  6
  3  2  1  0
  4  9  2  0
  4  3  1  0
  5  4  1  0
  6  7  1  0
  6  5  2  0
  7  8  2  0
  8  9  1  0
 10 17  1  0
 10  2  1  0
 11 10  2  0
 13 12  1  6
 14 13  1  0
 16 15  1  6
 15 13  1  0
 16 17  1  0
 18 16  1  0
 19 18  2  0
 21 20  1  0
 21 22  1  0
 22 23  1  0
 24 23  1  1
 24 26  1  0
 24 25  1  0
 25 18  1  0
 26 28  1  0
 27 26  2  0
M  END
$$$$
