MER.pdb
     RDKit          3D

 29 28  0  0  1  0  0  0  0  0999 V2000
   29.2935  -18.9732   -7.8306 C   0  0  0  0  0  0  0  0  0  0  0  0
   28.5331  -20.5497   -7.3597 S   0  0  0  0  0  0  0  0  0  0  0  0
   26.8472  -20.5989   -8.0140 C   0  0  0  0  0  0  0  0  0  0  0  0
   26.7989  -20.0715   -9.4397 C   0  0  0  0  0  0  0  0  0  0  0  0
   25.3374  -20.0908   -9.8849 C   0  0  2  0  0  0  0  0  0  0  0  0
   24.8178  -21.4009   -9.5442 N   0  0  0  0  0  0  0  0  0  0  0  0
   25.3508  -19.8737  -11.3529 C   0  0  0  0  0  0  0  0  0  0  0  0
   25.7440  -18.7793  -11.8268 O   0  0  0  0  0  0  0  0  0  0  0  0
   24.9247  -20.8782  -12.3009 N   0  0  0  0  0  0  0  0  0  0  0  0
   24.7120  -20.5959  -13.6763 C   0  0  1  0  0  0  0  0  0  0  0  0
   25.5595  -21.3724  -14.6256 C   0  0  0  0  0  0  0  0  0  0  0  0
   26.7454  -22.0773  -14.1035 C   0  0  0  0  0  0  0  0  0  0  0  0
   27.8685  -22.1216  -15.0363 C   0  0  0  0  0  0  0  0  0  0  0  0
   27.8048  -21.6316  -16.1800 O   0  0  0  0  0  0  0  0  0  0  0  0
   23.2935  -20.7702  -14.0905 C   0  0  0  0  0  0  0  0  0  0  0  0
   22.6153  -21.6752  -13.5327 O   0  0  0  0  0  0  0  0  0  0  0  0
   29.0926  -22.7311  -14.6750 O   0  0  0  0  0  0  0  0  0  0  0  0
   19.1322  -15.5302  -19.3129 N   0  0  0  0  0  0  0  0  0  0  0  0
   19.7508  -15.5220  -18.0324 C   0  0  0  0  0  0  0  0  0  0  0  0
   20.2809  -14.4378  -17.6216 N   0  0  0  0  0  0  0  0  0  0  0  0
   19.7523  -16.7143  -17.2689 N   0  0  0  0  0  0  0  0  0  0  0  0
   19.3388  -17.9432  -17.8712 C   0  0  0  0  0  0  0  0  0  0  0  0
   19.4646  -19.0649  -16.8288 C   0  0  0  0  0  0  0  0  0  0  0  0
   20.9087  -19.1175  -16.4510 C   0  0  0  0  0  0  0  0  0  0  0  0
   21.2145  -20.1264  -15.3641 C   0  0  2  0  0  0  0  0  0  0  0  0
   22.6339  -19.9933  -15.0718 N   0  0  0  0  0  0  0  0  0  0  0  0
   20.9278  -21.4709  -15.9517 C   0  0  0  0  0  0  0  0  0  0  0  0
   19.8273  -22.2156  -15.6074 O   0  0  0  0  0  0  0  0  0  0  0  0
   21.7273  -21.9460  -16.7998 O   0  0  0  0  0  0  0  0  0  0  0  0
  2  1  1  0
  3  2  1  0
  4  5  1  0
  4  3  1  0
  5  6  1  6
  7  5  1  0
  7  8  2  0
  9  7  1  0
 10  9  1  0
 10 11  1  6
 12 11  1  0
 12 13  1  0
 13 17  1  0
 13 14  2  0
 15 10  1  0
 16 15  2  0
 18 19  1  0
 19 20  2  0
 19 21  1  0
 21 22  1  0
 22 23  1  0
 23 24  1  0
 25 24  1  6
 25 26  1  0
 25 27  1  0
 26 15  1  0
 27 28  1  0
 29 27  2  0
M  END
$$$$
