MER.pdb
     RDKit          3D

 29 28  0  0  1  0  0  0  0  0999 V2000
   35.6797  -26.5767  -14.3235 C   0  0  0  0  0  0  0  0  0  0  0  0
   34.4682  -25.2839  -14.7059 S   0  0  0  0  0  0  0  0  0  0  0  0
   34.2580  -25.1985  -16.5007 C   0  0  0  0  0  0  0  0  0  0  0  0
   33.2675  -24.1098  -16.8837 C   0  0  0  0  0  0  0  0  0  0  0  0
   31.8644  -24.6585  -16.6293 C   0  0  2  0  0  0  0  0  0  0  0  0
   31.5569  -25.5401  -17.7387 N   0  0  0  0  0  0  0  0  0  0  0  0
   30.9607  -23.4816  -16.6006 C   0  0  0  0  0  0  0  0  0  0  0  0
   31.0721  -22.6207  -15.6933 O   0  0  0  0  0  0  0  0  0  0  0  0
   29.9264  -23.2594  -17.5857 N   0  0  0  0  0  0  0  0  0  0  0  0
   29.0359  -22.1547  -17.5292 C   0  0  1  0  0  0  0  0  0  0  0  0
   28.4676  -21.7256  -18.8389 C   0  0  0  0  0  0  0  0  0  0  0  0
   27.5177  -20.5974  -18.8641 C   0  0  0  0  0  0  0  0  0  0  0  0
   26.9988  -20.2876  -20.1939 C   0  0  0  0  0  0  0  0  0  0  0  0
   26.6865  -21.1748  -21.0109 O   0  0  0  0  0  0  0  0  0  0  0  0
   27.8998  -22.3742  -16.5937 C   0  0  0  0  0  0  0  0  0  0  0  0
   27.1791  -23.3957  -16.7586 O   0  0  0  0  0  0  0  0  0  0  0  0
   26.8267  -18.9484  -20.6153 O   0  0  0  0  0  0  0  0  0  0  0  0
   29.0700  -19.9957  -10.9967 N   0  0  0  0  0  0  0  0  0  0  0  0
   28.6160  -21.0617  -10.1721 C   0  0  0  0  0  0  0  0  0  0  0  0
   29.4395  -21.5894   -9.3544 N   0  0  0  0  0  0  0  0  0  0  0  0
   27.2723  -21.4914  -10.2925 N   0  0  0  0  0  0  0  0  0  0  0  0
   26.3223  -20.6682  -10.9735 C   0  0  0  0  0  0  0  0  0  0  0  0
   25.8172  -21.4261  -12.2108 C   0  0  0  0  0  0  0  0  0  0  0  0
   26.8041  -21.1478  -13.2970 C   0  0  0  0  0  0  0  0  0  0  0  0
   26.4422  -21.7841  -14.6223 C   0  0  2  0  0  0  0  0  0  0  0  0
   27.5569  -21.5195  -15.5197 N   0  0  0  0  0  0  0  0  0  0  0  0
   25.2118  -21.0814  -15.0993 C   0  0  0  0  0  0  0  0  0  0  0  0
   23.9443  -21.5461  -14.8508 O   0  0  0  0  0  0  0  0  0  0  0  0
   25.3375  -20.0163  -15.7580 O   0  0  0  0  0  0  0  0  0  0  0  0
  2  1  1  0
  3  2  1  0
  4  5  1  0
  4  3  1  0
  5  6  1  6
  7  5  1  0
  7  8  2  0
  9  7  1  0
 10  9  1  0
 10 11  1  6
 12 11  1  0
 12 13  1  0
 13 17  1  0
 13 14  2  0
 15 10  1  0
 16 15  2  0
 18 19  1  0
 19 20  2  0
 19 21  1  0
 21 22  1  0
 22 23  1  0
 23 24  1  0
 25 24  1  1
 25 26  1  0
 25 27  1  0
 26 15  1  0
 27 28  1  0
 29 27  2  0
M  END
$$$$
