MER.pdb
     RDKit          3D

 29 28  0  0  1  0  0  0  0  0999 V2000
   32.3025  -22.1099  -10.0559 C   0  0  0  0  0  0  0  0  0  0  0  0
   30.5847  -21.8379  -10.5668 S   0  0  0  0  0  0  0  0  0  0  0  0
   30.5730  -20.7220  -11.9906 C   0  0  0  0  0  0  0  0  0  0  0  0
   29.1509  -20.4284  -12.4430 C   0  0  0  0  0  0  0  0  0  0  0  0
   28.4150  -21.7643  -12.5335 C   0  0  2  0  0  0  0  0  0  0  0  0
   29.0713  -22.5290  -13.5761 N   0  0  0  0  0  0  0  0  0  0  0  0
   27.0131  -21.4389  -12.8954 C   0  0  0  0  0  0  0  0  0  0  0  0
   26.6609  -21.4120  -14.1004 O   0  0  0  0  0  0  0  0  0  0  0  0
   25.9955  -21.1410  -11.9129 N   0  0  0  0  0  0  0  0  0  0  0  0
   24.6511  -20.8474  -12.2635 C   0  0  1  0  0  0  0  0  0  0  0  0
   23.7533  -20.5094  -11.1224 C   0  0  0  0  0  0  0  0  0  0  0  0
   22.3141  -20.3204  -11.3845 C   0  0  0  0  0  0  0  0  0  0  0  0
   21.5218  -20.0564  -10.1861 C   0  0  0  0  0  0  0  0  0  0  0  0
   21.4922  -20.8426   -9.2201 O   0  0  0  0  0  0  0  0  0  0  0  0
   24.5399  -19.7531  -13.2656 C   0  0  0  0  0  0  0  0  0  0  0  0
   25.3588  -18.7965  -13.1987 O   0  0  0  0  0  0  0  0  0  0  0  0
   20.7442  -18.8806  -10.0707 O   0  0  0  0  0  0  0  0  0  0  0  0
   29.1120  -19.9533  -18.8465 N   0  0  0  0  0  0  0  0  0  0  0  0
   28.7968  -20.3225  -17.5098 C   0  0  0  0  0  0  0  0  0  0  0  0
   29.7556  -20.5441  -16.6993 N   0  0  0  0  0  0  0  0  0  0  0  0
   27.4355  -20.4280  -17.1352 N   0  0  0  0  0  0  0  0  0  0  0  0
   26.4130  -20.2515  -18.1188 C   0  0  0  0  0  0  0  0  0  0  0  0
   25.3632  -19.2773  -17.5628 C   0  0  0  0  0  0  0  0  0  0  0  0
   24.9484  -19.8289  -16.2381 C   0  0  0  0  0  0  0  0  0  0  0  0
   23.8293  -19.0493  -15.5805 C   0  0  2  0  0  0  0  0  0  0  0  0
   23.5781  -19.6968  -14.3015 N   0  0  0  0  0  0  0  0  0  0  0  0
   22.6414  -19.1897  -16.4772 C   0  0  0  0  0  0  0  0  0  0  0  0
   22.4209  -18.3703  -17.5563 O   0  0  0  0  0  0  0  0  0  0  0  0
   21.8031  -20.0974  -16.2372 O   0  0  0  0  0  0  0  0  0  0  0  0
  2  1  1  0
  3  2  1  0
  4  5  1  0
  4  3  1  0
  5  6  1  6
  7  5  1  0
  7  8  2  0
  9  7  1  0
 10  9  1  0
 10 11  1  1
 12 11  1  0
 12 13  1  0
 13 17  1  0
 13 14  2  0
 15 10  1  0
 16 15  2  0
 18 19  1  0
 19 20  2  0
 19 21  1  0
 21 22  1  0
 22 23  1  0
 23 24  1  0
 25 24  1  6
 25 26  1  0
 25 27  1  0
 26 15  1  0
 27 28  1  0
 29 27  2  0
M  END
$$$$
