MER.pdb
     RDKit          3D

 29 28  0  0  1  0  0  0  0  0999 V2000
   30.3688  -20.7819  -10.4885 C   0  0  0  0  0  0  0  0  0  0  0  0
   29.4602  -22.0866   -9.6178 S   0  0  0  0  0  0  0  0  0  0  0  0
   27.6868  -21.7869   -9.8122 C   0  0  0  0  0  0  0  0  0  0  0  0
   27.3981  -21.0319  -11.1004 C   0  0  0  0  0  0  0  0  0  0  0  0
   26.0323  -20.3653  -10.9433 C   0  0  2  0  0  0  0  0  0  0  0  0
   25.3785  -21.0188   -9.8262 N   0  0  0  0  0  0  0  0  0  0  0  0
   25.3078  -20.6050  -12.2161 C   0  0  0  0  0  0  0  0  0  0  0  0
   25.7814  -20.1876  -13.3016 O   0  0  0  0  0  0  0  0  0  0  0  0
   24.0492  -21.3126  -12.2840 N   0  0  0  0  0  0  0  0  0  0  0  0
   23.3322  -21.4908  -13.4968 C   0  0  1  0  0  0  0  0  0  0  0  0
   22.3032  -22.5693  -13.4770 C   0  0  0  0  0  0  0  0  0  0  0  0
   21.5069  -22.8119  -14.6948 C   0  0  0  0  0  0  0  0  0  0  0  0
   20.4550  -23.8114  -14.5273 C   0  0  0  0  0  0  0  0  0  0  0  0
   20.2391  -24.3757  -13.4378 O   0  0  0  0  0  0  0  0  0  0  0  0
   22.6708  -20.2436  -13.9669 C   0  0  0  0  0  0  0  0  0  0  0  0
   22.0359  -19.5508  -13.1261 O   0  0  0  0  0  0  0  0  0  0  0  0
   19.6259  -24.1855  -15.6104 O   0  0  0  0  0  0  0  0  0  0  0  0
   25.0394  -14.4804  -19.8873 N   0  0  0  0  0  0  0  0  0  0  0  0
   23.6789  -14.1036  -19.7158 C   0  0  0  0  0  0  0  0  0  0  0  0
   23.2629  -13.0496  -20.2999 N   0  0  0  0  0  0  0  0  0  0  0  0
   22.8449  -14.9121  -18.9062 N   0  0  0  0  0  0  0  0  0  0  0  0
   23.3961  -16.0428  -18.2266 C   0  0  0  0  0  0  0  0  0  0  0  0
   22.3244  -16.6190  -17.2884 C   0  0  0  0  0  0  0  0  0  0  0  0
   22.9151  -17.8573  -16.6979 C   0  0  0  0  0  0  0  0  0  0  0  0
   21.9981  -18.5586  -15.7183 C   0  0  2  0  0  0  0  0  0  0  0  0
   22.6961  -19.7645  -15.2978 N   0  0  0  0  0  0  0  0  0  0  0  0
   20.7634  -18.9119  -16.4836 C   0  0  0  0  0  0  0  0  0  0  0  0
   19.6142  -18.1629  -16.4316 O   0  0  0  0  0  0  0  0  0  0  0  0
   20.7721  -19.9402  -17.2093 O   0  0  0  0  0  0  0  0  0  0  0  0
  2  1  1  0
  3  2  1  0
  4  5  1  0
  4  3  1  0
  5  6  1  1
  7  5  1  0
  7  8  2  0
  9  7  1  0
 10  9  1  0
 10 11  1  1
 12 11  1  0
 12 13  1  0
 13 17  1  0
 13 14  2  0
 15 10  1  0
 16 15  2  0
 18 19  1  0
 19 20  2  0
 19 21  1  0
 21 22  1  0
 22 23  1  0
 23 24  1  0
 25 24  1  6
 25 26  1  0
 25 27  1  0
 26 15  1  0
 27 28  1  0
 29 27  2  0
M  END
$$$$
