MER.pdb
     RDKit          3D

 29 28  0  0  1  0  0  0  0  0999 V2000
   29.5703  -19.4391   -3.7578 C   0  0  0  0  0  0  0  0  0  0  0  0
   28.3145  -19.2418   -5.0500 S   0  0  0  0  0  0  0  0  0  0  0  0
   29.1177  -19.3796   -6.6651 C   0  0  0  0  0  0  0  0  0  0  0  0
   28.1387  -19.0793   -7.7896 C   0  0  0  0  0  0  0  0  0  0  0  0
   27.4481  -20.3918   -8.1570 C   0  0  2  0  0  0  0  0  0  0  0  0
   28.5004  -21.3558   -8.4138 N   0  0  0  0  0  0  0  0  0  0  0  0
   26.6543  -20.1117   -9.3792 C   0  0  0  0  0  0  0  0  0  0  0  0
   25.7694  -19.2209   -9.3683 O   0  0  0  0  0  0  0  0  0  0  0  0
   26.8442  -20.8257  -10.6217 N   0  0  0  0  0  0  0  0  0  0  0  0
   26.1503  -20.4904  -11.8145 C   0  0  1  0  0  0  0  0  0  0  0  0
   26.9072  -20.7183  -13.0785 C   0  0  0  0  0  0  0  0  0  0  0  0
   26.2823  -20.3338  -14.3581 C   0  0  0  0  0  0  0  0  0  0  0  0
   27.1418  -20.5330  -15.5223 C   0  0  0  0  0  0  0  0  0  0  0  0
   27.7976  -19.6050  -16.0332 O   0  0  0  0  0  0  0  0  0  0  0  0
   24.8421  -21.1884  -11.9390 C   0  0  0  0  0  0  0  0  0  0  0  0
   24.7469  -22.3630  -11.4904 O   0  0  0  0  0  0  0  0  0  0  0  0
   27.2671  -21.8056  -16.1266 O   0  0  0  0  0  0  0  0  0  0  0  0
   19.2401  -23.7834   -8.3368 N   0  0  0  0  0  0  0  0  0  0  0  0
   18.4132  -23.7107   -9.4916 C   0  0  0  0  0  0  0  0  0  0  0  0
   17.2264  -24.1702   -9.4180 N   0  0  0  0  0  0  0  0  0  0  0  0
   18.9404  -23.1326  -10.6717 N   0  0  0  0  0  0  0  0  0  0  0  0
   20.2087  -22.4738  -10.6337 C   0  0  0  0  0  0  0  0  0  0  0  0
   20.1285  -21.2092  -11.5026 C   0  0  0  0  0  0  0  0  0  0  0  0
   21.5140  -20.6532  -11.5516 C   0  0  0  0  0  0  0  0  0  0  0  0
   22.4047  -21.3342  -12.5690 C   0  0  2  0  0  0  0  0  0  0  0  0
   23.6805  -20.6350  -12.5270 N   0  0  0  0  0  0  0  0  0  0  0  0
   21.7465  -21.1370  -13.8967 C   0  0  0  0  0  0  0  0  0  0  0  0
   20.8926  -22.0587  -14.4497 O   0  0  0  0  0  0  0  0  0  0  0  0
   21.9819  -20.0814  -14.5405 O   0  0  0  0  0  0  0  0  0  0  0  0
  2  1  1  0
  3  2  1  0
  4  5  1  0
  4  3  1  0
  5  6  1  6
  7  5  1  0
  7  8  2  0
  9  7  1  0
 10  9  1  0
 10 11  1  6
 12 11  1  0
 12 13  1  0
 13 17  1  0
 13 14  2  0
 15 10  1  0
 16 15  2  0
 18 19  1  0
 19 20  2  0
 19 21  1  0
 21 22  1  0
 22 23  1  0
 23 24  1  0
 25 24  1  1
 25 26  1  0
 25 27  1  0
 26 15  1  0
 27 28  1  0
 29 27  2  0
M  END
$$$$
