MER.pdb
     RDKit          3D

 29 28  0  0  1  0  0  0  0  0999 V2000
   21.8295  -11.4770  -22.6064 C   0  0  0  0  0  0  0  0  0  0  0  0
   23.2883  -12.4121  -22.0744 S   0  0  0  0  0  0  0  0  0  0  0  0
   24.0760  -11.5290  -20.7061 C   0  0  0  0  0  0  0  0  0  0  0  0
   23.0763  -11.2338  -19.5986 C   0  0  0  0  0  0  0  0  0  0  0  0
   23.8630  -11.1054  -18.2951 C   0  0  2  0  0  0  0  0  0  0  0  0
   24.2409  -12.4498  -17.9051 N   0  0  0  0  0  0  0  0  0  0  0  0
   22.9349  -10.4924  -17.3125 C   0  0  0  0  0  0  0  0  0  0  0  0
   22.0255  -11.1805  -16.7870 O   0  0  0  0  0  0  0  0  0  0  0  0
   23.0172   -9.1063  -16.9109 N   0  0  0  0  0  0  0  0  0  0  0  0
   22.1460   -8.5322  -15.9476 C   0  0  1  0  0  0  0  0  0  0  0  0
   22.6336   -7.2727  -15.3165 C   0  0  0  0  0  0  0  0  0  0  0  0
   21.7535   -6.5702  -14.3638 C   0  0  0  0  0  0  0  0  0  0  0  0
   22.2991   -5.3081  -13.8708 C   0  0  0  0  0  0  0  0  0  0  0  0
   22.6322   -4.3822  -14.6349 O   0  0  0  0  0  0  0  0  0  0  0  0
   20.7825   -8.2709  -16.4831 C   0  0  0  0  0  0  0  0  0  0  0  0
   20.6791   -7.7806  -17.6402 O   0  0  0  0  0  0  0  0  0  0  0  0
   22.4746   -5.0814  -12.4857 O   0  0  0  0  0  0  0  0  0  0  0  0
   13.2329  -12.1420  -14.6591 N   0  0  0  0  0  0  0  0  0  0  0  0
   12.9294  -11.4153  -15.8432 C   0  0  0  0  0  0  0  0  0  0  0  0
   11.7979  -11.6056  -16.3988 N   0  0  0  0  0  0  0  0  0  0  0  0
   13.8932  -10.5130  -16.3546 N   0  0  0  0  0  0  0  0  0  0  0  0
   15.1910  -10.4478  -15.7584 C   0  0  0  0  0  0  0  0  0  0  0  0
   15.9597   -9.2760  -16.3880 C   0  0  0  0  0  0  0  0  0  0  0  0
   17.3412   -9.3372  -15.8235 C   0  0  0  0  0  0  0  0  0  0  0  0
   18.2637   -8.2637  -16.3610 C   0  0  2  0  0  0  0  0  0  0  0  0
   19.5761   -8.5312  -15.7915 N   0  0  0  0  0  0  0  0  0  0  0  0
   17.7305   -6.9633  -15.8517 C   0  0  0  0  0  0  0  0  0  0  0  0
   18.3332   -6.2543  -14.8426 O   0  0  0  0  0  0  0  0  0  0  0  0
   16.6829   -6.4928  -16.3671 O   0  0  0  0  0  0  0  0  0  0  0  0
  2  1  1  0
  3  2  1  0
  4  5  1  0
  4  3  1  0
  5  6  1  1
  7  5  1  0
  7  8  2  0
  9  7  1  0
 10  9  1  0
 10 11  1  6
 12 11  1  0
 12 13  1  0
 13 17  1  0
 13 14  2  0
 15 10  1  0
 16 15  2  0
 18 19  1  0
 19 20  2  0
 19 21  1  0
 21 22  1  0
 22 23  1  0
 23 24  1  0
 25 24  1  1
 25 26  1  0
 25 27  1  0
 26 15  1  0
 27 28  1  0
 29 27  2  0
M  END
$$$$
