MER.pdb
     RDKit          3D

 29 28  0  0  1  0  0  0  0  0999 V2000
   12.0063  -11.7846   -9.4665 C   0  0  0  0  0  0  0  0  0  0  0  0
   12.4581  -12.1939  -11.1735 S   0  0  0  0  0  0  0  0  0  0  0  0
   14.2621  -12.2309  -11.3029 C   0  0  0  0  0  0  0  0  0  0  0  0
   14.8926  -11.1267  -10.4685 C   0  0  0  0  0  0  0  0  0  0  0  0
   16.4063  -11.2219  -10.6532 C   0  0  2  0  0  0  0  0  0  0  0  0
   16.8528  -12.3401   -9.8453 N   0  0  0  0  0  0  0  0  0  0  0  0
   16.9630   -9.9368  -10.1620 C   0  0  0  0  0  0  0  0  0  0  0  0
   17.1747   -9.7667   -8.9361 O   0  0  0  0  0  0  0  0  0  0  0  0
   17.2864   -8.8333  -11.0379 N   0  0  0  0  0  0  0  0  0  0  0  0
   17.8432   -7.6152  -10.5660 C   0  0  1  0  0  0  0  0  0  0  0  0
   19.0351   -7.1257  -11.3158 C   0  0  0  0  0  0  0  0  0  0  0  0
   19.6506   -5.8473  -10.9124 C   0  0  0  0  0  0  0  0  0  0  0  0
   20.8248   -5.4790  -11.6993 C   0  0  0  0  0  0  0  0  0  0  0  0
   21.1743   -4.2941  -11.8604 O   0  0  0  0  0  0  0  0  0  0  0  0
   16.8525   -6.5060  -10.5180 C   0  0  0  0  0  0  0  0  0  0  0  0
   16.1546   -6.2837  -11.5444 O   0  0  0  0  0  0  0  0  0  0  0  0
   21.6253   -6.4662  -12.3199 O   0  0  0  0  0  0  0  0  0  0  0  0
   11.6730   -4.0540   -4.2494 N   0  0  0  0  0  0  0  0  0  0  0  0
   11.4463   -4.8292   -5.4199 C   0  0  0  0  0  0  0  0  0  0  0  0
   10.5241   -5.7091   -5.3958 N   0  0  0  0  0  0  0  0  0  0  0  0
   12.2514   -4.5925   -6.5603 N   0  0  0  0  0  0  0  0  0  0  0  0
   13.3845   -3.7263   -6.4616 C   0  0  0  0  0  0  0  0  0  0  0  0
   13.9701   -3.5257   -7.8677 C   0  0  0  0  0  0  0  0  0  0  0  0
   14.9657   -4.6224   -8.0609 C   0  0  0  0  0  0  0  0  0  0  0  0
   15.6564   -4.5836   -9.4077 C   0  0  2  0  0  0  0  0  0  0  0  0
   16.6259   -5.6690   -9.4001 N   0  0  0  0  0  0  0  0  0  0  0  0
   16.3537   -3.2633   -9.4800 C   0  0  0  0  0  0  0  0  0  0  0  0
   15.6851   -2.0746   -9.6367 O   0  0  0  0  0  0  0  0  0  0  0  0
   17.6091   -3.2339   -9.3940 O   0  0  0  0  0  0  0  0  0  0  0  0
  2  1  1  0
  3  2  1  0
  4  5  1  0
  4  3  1  0
  5  6  1  1
  7  5  1  0
  7  8  2  0
  9  7  1  0
 10  9  1  0
 10 11  1  6
 12 11  1  0
 12 13  1  0
 13 17  1  0
 13 14  2  0
 15 10  1  0
 16 15  2  0
 18 19  1  0
 19 20  2  0
 19 21  1  0
 21 22  1  0
 22 23  1  0
 23 24  1  0
 25 24  1  1
 25 26  1  0
 25 27  1  0
 26 15  1  0
 27 28  1  0
 29 27  2  0
M  END
$$$$
