MER.pdb
     RDKit          3D

 29 28  0  0  1  0  0  0  0  0999 V2000
   28.3770  -22.3465  -10.3356 C   0  0  0  0  0  0  0  0  0  0  0  0
   29.4577  -20.8999  -10.4941 S   0  0  0  0  0  0  0  0  0  0  0  0
   29.3527  -20.2807  -12.1907 C   0  0  0  0  0  0  0  0  0  0  0  0
   27.9041  -20.1157  -12.6234 C   0  0  0  0  0  0  0  0  0  0  0  0
   27.9112  -19.6873  -14.0900 C   0  0  2  0  0  0  0  0  0  0  0  0
   28.6298  -18.4294  -14.1507 N   0  0  0  0  0  0  0  0  0  0  0  0
   26.4882  -19.5224  -14.4781 C   0  0  0  0  0  0  0  0  0  0  0  0
   25.7895  -18.6216  -13.9517 O   0  0  0  0  0  0  0  0  0  0  0  0
   25.8369  -20.3635  -15.4568 N   0  0  0  0  0  0  0  0  0  0  0  0
   24.4790  -20.1920  -15.8355 C   0  0  1  0  0  0  0  0  0  0  0  0
   24.1122  -20.7535  -17.1669 C   0  0  0  0  0  0  0  0  0  0  0  0
   22.7043  -20.6854  -17.6015 C   0  0  0  0  0  0  0  0  0  0  0  0
   22.4659  -21.2394  -18.9319 C   0  0  0  0  0  0  0  0  0  0  0  0
   23.2589  -21.0677  -19.8773 O   0  0  0  0  0  0  0  0  0  0  0  0
   23.5250  -20.7418  -14.8347 C   0  0  0  0  0  0  0  0  0  0  0  0
   23.9044  -21.7043  -14.1139 O   0  0  0  0  0  0  0  0  0  0  0  0
   21.3085  -22.0047  -19.2062 O   0  0  0  0  0  0  0  0  0  0  0  0
   19.8353  -21.4935   -7.8799 N   0  0  0  0  0  0  0  0  0  0  0  0
   19.7474  -22.6019   -8.7665 C   0  0  0  0  0  0  0  0  0  0  0  0
   19.0024  -23.5833   -8.4392 N   0  0  0  0  0  0  0  0  0  0  0  0
   20.4883  -22.5699   -9.9727 N   0  0  0  0  0  0  0  0  0  0  0  0
   21.2115  -21.3896  -10.3302 C   0  0  0  0  0  0  0  0  0  0  0  0
   20.3925  -20.6114  -11.3714 C   0  0  0  0  0  0  0  0  0  0  0  0
   21.3686  -20.1491  -12.4031 C   0  0  0  0  0  0  0  0  0  0  0  0
   21.2741  -20.9079  -13.7100 C   0  0  2  0  0  0  0  0  0  0  0  0
   22.2094  -20.2668  -14.6223 N   0  0  0  0  0  0  0  0  0  0  0  0
   19.8707  -20.7306  -14.1937 C   0  0  0  0  0  0  0  0  0  0  0  0
   18.8613  -21.6104  -13.8913 O   0  0  0  0  0  0  0  0  0  0  0  0
   19.5967  -19.7327  -14.9101 O   0  0  0  0  0  0  0  0  0  0  0  0
  2  1  1  0
  3  2  1  0
  4  5  1  0
  4  3  1  0
  5  6  1  1
  7  5  1  0
  7  8  2  0
  9  7  1  0
 10  9  1  0
 10 11  1  6
 12 11  1  0
 12 13  1  0
 13 17  1  0
 13 14  2  0
 15 10  1  0
 16 15  2  0
 18 19  1  0
 19 20  2  0
 19 21  1  0
 21 22  1  0
 22 23  1  0
 23 24  1  0
 25 24  1  1
 25 26  1  0
 25 27  1  0
 26 15  1  0
 27 28  1  0
 29 27  2  0
M  END
$$$$
