MER.pdb
     RDKit          3D

 29 28  0  0  1  0  0  0  0  0999 V2000
   19.7315  -14.9240  -19.0325 C   0  0  0  0  0  0  0  0  0  0  0  0
   19.6727  -13.2972  -19.8298 S   0  0  0  0  0  0  0  0  0  0  0  0
   21.0101  -12.2766  -19.1646 C   0  0  0  0  0  0  0  0  0  0  0  0
   20.9557  -12.2269  -17.6456 C   0  0  0  0  0  0  0  0  0  0  0  0
   22.1404  -11.3856  -17.1731 C   0  0  2  0  0  0  0  0  0  0  0  0
   23.1607  -12.3171  -16.7330 N   0  0  0  0  0  0  0  0  0  0  0  0
   21.6358  -10.5577  -16.0495 C   0  0  0  0  0  0  0  0  0  0  0  0
   21.2022  -11.1048  -15.0057 O   0  0  0  0  0  0  0  0  0  0  0  0
   21.6122   -9.1128  -16.0853 N   0  0  0  0  0  0  0  0  0  0  0  0
   21.0376   -8.3277  -15.0508 C   0  0  1  0  0  0  0  0  0  0  0  0
   21.5847   -6.9472  -14.9188 C   0  0  0  0  0  0  0  0  0  0  0  0
   21.0450   -6.0687  -13.8639 C   0  0  0  0  0  0  0  0  0  0  0  0
   21.6130   -4.7230  -13.8636 C   0  0  0  0  0  0  0  0  0  0  0  0
   20.9781   -3.7316  -13.4557 O   0  0  0  0  0  0  0  0  0  0  0  0
   19.5577   -8.2188  -15.1608 C   0  0  0  0  0  0  0  0  0  0  0  0
   19.0615   -7.9362  -16.2851 O   0  0  0  0  0  0  0  0  0  0  0  0
   22.9260   -4.4859  -14.3328 O   0  0  0  0  0  0  0  0  0  0  0  0
   13.1321  -11.1711   -9.9871 N   0  0  0  0  0  0  0  0  0  0  0  0
   12.4656  -10.7453  -11.1690 C   0  0  0  0  0  0  0  0  0  0  0  0
   11.2695  -11.1397  -11.3668 N   0  0  0  0  0  0  0  0  0  0  0  0
   13.1554   -9.9032  -12.0744 N   0  0  0  0  0  0  0  0  0  0  0  0
   14.5782   -9.7886  -11.9934 C   0  0  0  0  0  0  0  0  0  0  0  0
   15.0643   -8.9084  -13.1551 C   0  0  0  0  0  0  0  0  0  0  0  0
   16.5567   -8.9390  -13.1000 C   0  0  0  0  0  0  0  0  0  0  0  0
   17.2204   -8.1602  -14.2160 C   0  0  2  0  0  0  0  0  0  0  0  0
   18.6491   -8.4090  -14.0932 N   0  0  0  0  0  0  0  0  0  0  0  0
   16.9186   -6.7195  -13.9549 C   0  0  0  0  0  0  0  0  0  0  0  0
   17.7623   -5.8968  -13.2507 O   0  0  0  0  0  0  0  0  0  0  0  0
   15.8452   -6.2338  -14.3977 O   0  0  0  0  0  0  0  0  0  0  0  0
  2  1  1  0
  3  2  1  0
  4  5  1  0
  4  3  1  0
  5  6  1  1
  7  5  1  0
  7  8  2  0
  9  7  1  0
 10  9  1  0
 10 11  1  6
 12 11  1  0
 12 13  1  0
 13 17  1  0
 13 14  2  0
 15 10  1  0
 16 15  2  0
 18 19  1  0
 19 20  2  0
 19 21  1  0
 21 22  1  0
 22 23  1  0
 23 24  1  0
 25 24  1  1
 25 26  1  0
 25 27  1  0
 26 15  1  0
 27 28  1  0
 29 27  2  0
M  END
$$$$
