MER.pdb
     RDKit          3D

 29 28  0  0  1  0  0  0  0  0999 V2000
   13.5721  -30.1925   -7.6224 C   0  0  0  0  0  0  0  0  0  0  0  0
   15.2189  -30.5841   -8.2707 S   0  0  0  0  0  0  0  0  0  0  0  0
   16.4553  -29.7137   -7.2776 C   0  0  0  0  0  0  0  0  0  0  0  0
   15.9977  -29.5755   -5.8338 C   0  0  0  0  0  0  0  0  0  0  0  0
   17.0685  -28.7795   -5.0892 C   0  0  2  0  0  0  0  0  0  0  0  0
   18.3036  -29.5289   -5.2142 N   0  0  0  0  0  0  0  0  0  0  0  0
   16.6174  -28.7022   -3.6774 C   0  0  0  0  0  0  0  0  0  0  0  0
   15.5482  -28.1115   -3.3866 O   0  0  0  0  0  0  0  0  0  0  0  0
   17.3585  -29.2845   -2.5814 N   0  0  0  0  0  0  0  0  0  0  0  0
   16.8380  -29.3737   -1.2632 C   0  0  1  0  0  0  0  0  0  0  0  0
   17.4303  -30.4467   -0.4146 C   0  0  0  0  0  0  0  0  0  0  0  0
   16.9829  -31.8378   -0.6159 C   0  0  0  0  0  0  0  0  0  0  0  0
   17.5820  -32.7945    0.3112 C   0  0  0  0  0  0  0  0  0  0  0  0
   16.9058  -33.4306    1.1420 O   0  0  0  0  0  0  0  0  0  0  0  0
   16.9425  -28.0937   -0.5117 C   0  0  0  0  0  0  0  0  0  0  0  0
   17.9905  -27.4056   -0.6470 O   0  0  0  0  0  0  0  0  0  0  0  0
   18.9745  -33.0420    0.3042 O   0  0  0  0  0  0  0  0  0  0  0  0
   14.1556  -21.3721   -0.4795 N   0  0  0  0  0  0  0  0  0  0  0  0
   14.9368  -21.2651    0.7039 C   0  0  0  0  0  0  0  0  0  0  0  0
   15.4118  -20.1241    1.0163 N   0  0  0  0  0  0  0  0  0  0  0  0
   15.1538  -22.4264    1.4843 N   0  0  0  0  0  0  0  0  0  0  0  0
   14.2627  -23.5381    1.3654 C   0  0  0  0  0  0  0  0  0  0  0  0
   14.7284  -24.6426    2.3264 C   0  0  0  0  0  0  0  0  0  0  0  0
   14.7382  -25.9061    1.5299 C   0  0  0  0  0  0  0  0  0  0  0  0
   16.1255  -26.3536    1.1204 C   0  0  2  0  0  0  0  0  0  0  0  0
   15.9493  -27.5781    0.3538 N   0  0  0  0  0  0  0  0  0  0  0  0
   16.8635  -26.6357    2.3895 C   0  0  0  0  0  0  0  0  0  0  0  0
   16.6439  -27.7602    3.1455 O   0  0  0  0  0  0  0  0  0  0  0  0
   17.7254  -25.8092    2.7874 O   0  0  0  0  0  0  0  0  0  0  0  0
  2  1  1  0
  3  2  1  0
  4  5  1  0
  4  3  1  0
  5  6  1  1
  7  5  1  0
  7  8  2  0
  9  7  1  0
 10  9  1  0
 10 11  1  1
 12 11  1  0
 12 13  1  0
 13 17  1  0
 13 14  2  0
 15 10  1  0
 16 15  2  0
 18 19  1  0
 19 20  2  0
 19 21  1  0
 21 22  1  0
 22 23  1  0
 23 24  1  0
 25 24  1  1
 25 26  1  0
 25 27  1  0
 26 15  1  0
 27 28  1  0
 29 27  2  0
M  END
$$$$
