FWN.pdb
     RDKit          3D

 34 36  0  0  1  0  0  0  0  0999 V2000
   31.5745  -32.2128  -17.8223 N   0  0  0  0  0  0  0  0  0  0  0  0
   31.1352  -31.0941  -18.6700 C   0  0  1  0  0  0  0  0  0  0  0  0
   30.6252  -31.6703  -19.9881 C   0  0  0  0  0  0  0  0  0  0  0  0
   31.7767  -32.0279  -20.8675 C   0  0  0  0  0  0  0  0  0  0  0  0
   32.3769  -31.0431  -21.6229 C   0  0  0  0  0  0  0  0  0  0  0  0
   33.4525  -31.3262  -22.4496 C   0  0  0  0  0  0  0  0  0  0  0  0
   33.9636  -32.5977  -22.5504 C   0  0  0  0  0  0  0  0  0  0  0  0
   33.3656  -33.5923  -21.7945 C   0  0  0  0  0  0  0  0  0  0  0  0
   32.2937  -33.2967  -20.9739 C   0  0  0  0  0  0  0  0  0  0  0  0
   30.0383  -30.4052  -17.9439 C   0  0  0  0  0  0  0  0  0  0  0  0
   29.3218  -30.9215  -17.0718 O   0  0  0  0  0  0  0  0  0  0  0  0
   29.8150  -29.0275  -18.3028 N   0  0  0  0  0  0  0  0  0  0  0  0
   28.7646  -28.2533  -17.6865 C   0  0  1  0  0  0  0  0  0  0  0  0
   29.0954  -26.7963  -18.0619 C   0  0  0  0  0  0  0  0  0  0  0  0
   28.1194  -25.8664  -17.4882 C   0  0  0  0  0  0  0  0  0  0  0  0
   27.6643  -25.8968  -16.1886 C   0  0  0  0  0  0  0  0  0  0  0  0
   26.7787  -24.8608  -16.0903 N   0  0  0  0  0  0  0  0  0  0  0  0
   26.6885  -24.2218  -17.2644 C   0  0  0  0  0  0  0  0  0  0  0  0
   25.9494  -23.1434  -17.6554 C   0  0  0  0  0  0  0  0  0  0  0  0
   26.0235  -22.6507  -18.9487 C   0  0  0  0  0  0  0  0  0  0  0  0
   26.8573  -23.2474  -19.8819 C   0  0  0  0  0  0  0  0  0  0  0  0
   27.5921  -24.3314  -19.4664 C   0  0  0  0  0  0  0  0  0  0  0  0
   27.5254  -24.8308  -18.1784 C   0  0  0  0  0  0  0  0  0  0  0  0
   27.4450  -28.6364  -18.1658 C   0  0  0  0  0  0  0  0  0  0  0  0
   27.2085  -28.9023  -19.3972 O   0  0  0  0  0  0  0  0  0  0  0  0
   22.6857  -30.4520  -18.6454 N   0  0  0  0  0  0  0  0  0  0  0  0
   23.0764  -30.5575  -17.2825 C   0  0  0  0  0  0  0  0  0  0  0  0
   22.2777  -31.2684  -16.5766 O   0  0  0  0  0  0  0  0  0  0  0  0
   24.2823  -29.9085  -16.7487 C   0  0  0  0  0  0  0  0  0  0  0  0
   25.0395  -29.1983  -17.8290 C   0  0  2  0  0  0  0  0  0  0  0  0
   26.3495  -28.7364  -17.2785 N   0  0  0  0  0  0  0  0  0  0  0  0
   24.3044  -27.9518  -18.1685 C   0  0  0  0  0  0  0  0  0  0  0  0
   24.2878  -26.8339  -17.3050 O   0  0  0  0  0  0  0  0  0  0  0  0
   23.6494  -27.7834  -19.2235 O   0  0  0  0  0  0  0  0  0  0  0  0
  2  1  1  1
  2  3  1  0
  4  5  2  0
  4  3  1  0
  6  5  1  0
  7  6  2  0
  8  7  1  0
  8  9  2  0
  9  4  1  0
 10  2  1  0
 11 10  2  0
 12 10  1  0
 13 12  1  0
 13 14  1  6
 15 14  1  0
 16 15  2  0
 17 18  1  0
 17 16  1  0
 18 23  2  0
 19 20  2  0
 19 18  1  0
 20 21  1  0
 21 22  2  0
 23 15  1  0
 23 22  1  0
 24 13  1  0
 24 25  2  0
 26 27  1  0
 27 28  2  0
 27 29  1  0
 30 29  1  1
 30 31  1  0
 31 24  1  0
 32 30  1  0
 33 32  1  0
 34 32  2  0
M  END
$$$$
