FWN.pdb
     RDKit          3D

 34 36  0  0  1  0  0  0  0  0999 V2000
   28.5962  -19.4982  -15.8001 N   0  0  0  0  0  0  0  0  0  0  0  0
   27.6745  -19.2753  -14.6758 C   0  0  1  0  0  0  0  0  0  0  0  0
   26.5655  -18.3404  -15.1507 C   0  0  0  0  0  0  0  0  0  0  0  0
   27.1223  -16.9808  -15.4129 C   0  0  0  0  0  0  0  0  0  0  0  0
   27.3679  -16.5942  -16.7133 C   0  0  0  0  0  0  0  0  0  0  0  0
   27.8790  -15.3398  -17.0061 C   0  0  0  0  0  0  0  0  0  0  0  0
   28.1619  -14.4319  -16.0141 C   0  0  0  0  0  0  0  0  0  0  0  0
   27.9179  -14.8134  -14.7054 C   0  0  0  0  0  0  0  0  0  0  0  0
   27.4079  -16.0673  -14.4269 C   0  0  0  0  0  0  0  0  0  0  0  0
   27.1155  -20.5999  -14.3048 C   0  0  0  0  0  0  0  0  0  0  0  0
   26.9648  -21.5565  -15.0811 O   0  0  0  0  0  0  0  0  0  0  0  0
   26.7287  -20.7550  -12.9253 N   0  0  0  0  0  0  0  0  0  0  0  0
   25.7522  -21.7399  -12.5270 C   0  0  1  0  0  0  0  0  0  0  0  0
   26.2932  -22.2956  -11.1959 C   0  0  0  0  0  0  0  0  0  0  0  0
   26.2995  -21.2649  -10.1546 C   0  0  0  0  0  0  0  0  0  0  0  0
   25.2671  -20.3899   -9.8991 C   0  0  0  0  0  0  0  0  0  0  0  0
   25.6969  -19.6163   -8.8579 N   0  0  0  0  0  0  0  0  0  0  0  0
   26.9287  -19.9902   -8.4869 C   0  0  0  0  0  0  0  0  0  0  0  0
   27.7622  -19.5255   -7.5115 C   0  0  0  0  0  0  0  0  0  0  0  0
   29.0157  -20.0816   -7.3107 C   0  0  0  0  0  0  0  0  0  0  0  0
   29.4545  -21.1312   -8.1030 C   0  0  0  0  0  0  0  0  0  0  0  0
   28.5991  -21.5830   -9.0785 C   0  0  0  0  0  0  0  0  0  0  0  0
   27.3465  -21.0351   -9.2871 C   0  0  0  0  0  0  0  0  0  0  0  0
   24.4262  -21.1639  -12.3597 C   0  0  0  0  0  0  0  0  0  0  0  0
   24.2387  -19.9950  -11.8684 O   0  0  0  0  0  0  0  0  0  0  0  0
   20.2881  -18.9472  -15.0713 N   0  0  0  0  0  0  0  0  0  0  0  0
   20.4738  -20.2981  -14.6688 C   0  0  0  0  0  0  0  0  0  0  0  0
   19.3785  -20.9546  -14.5652 O   0  0  0  0  0  0  0  0  0  0  0  0
   21.8000  -20.8725  -14.4010 C   0  0  0  0  0  0  0  0  0  0  0  0
   22.0012  -21.1131  -12.9359 C   0  0  2  0  0  0  0  0  0  0  0  0
   23.2688  -21.8798  -12.7409 N   0  0  0  0  0  0  0  0  0  0  0  0
   20.9252  -22.0230  -12.4630 C   0  0  0  0  0  0  0  0  0  0  0  0
   21.0237  -23.4267  -12.5873 O   0  0  0  0  0  0  0  0  0  0  0  0
   19.8606  -21.6381  -11.9255 O   0  0  0  0  0  0  0  0  0  0  0  0
  2  1  1  6
  2  3  1  0
  4  5  2  0
  4  3  1  0
  6  5  1  0
  7  6  2  0
  8  7  1  0
  8  9  2  0
  9  4  1  0
 10  2  1  0
 11 10  2  0
 12 10  1  0
 13 12  1  0
 13 14  1  1
 15 14  1  0
 16 15  2  0
 17 18  1  0
 17 16  1  0
 18 23  2  0
 19 20  2  0
 19 18  1  0
 20 21  1  0
 21 22  2  0
 23 15  1  0
 23 22  1  0
 24 13  1  0
 24 25  2  0
 26 27  1  0
 27 28  2  0
 27 29  1  0
 30 29  1  6
 30 31  1  0
 31 24  1  0
 32 30  1  0
 33 32  1  0
 34 32  2  0
M  END
$$$$
