FWN.pdb
     RDKit          3D

 34 36  0  0  1  0  0  0  0  0999 V2000
   28.2632  -23.0967  -16.2403 N   0  0  0  0  0  0  0  0  0  0  0  0
   27.4510  -21.8753  -16.1313 C   0  0  1  0  0  0  0  0  0  0  0  0
   26.5074  -21.8254  -17.3299 C   0  0  0  0  0  0  0  0  0  0  0  0
   27.2657  -21.4536  -18.5604 C   0  0  0  0  0  0  0  0  0  0  0  0
   27.5441  -20.1253  -18.8029 C   0  0  0  0  0  0  0  0  0  0  0  0
   28.2501  -19.7326  -19.9289 C   0  0  0  0  0  0  0  0  0  0  0  0
   28.7002  -20.6493  -20.8483 C   0  0  0  0  0  0  0  0  0  0  0  0
   28.4240  -21.9856  -20.6114 C   0  0  0  0  0  0  0  0  0  0  0  0
   27.7191  -22.3640  -19.4845 C   0  0  0  0  0  0  0  0  0  0  0  0
   26.6805  -21.9790  -14.8662 C   0  0  0  0  0  0  0  0  0  0  0  0
   26.1529  -23.0151  -14.4318 O   0  0  0  0  0  0  0  0  0  0  0  0
   26.5557  -20.7620  -14.1046 N   0  0  0  0  0  0  0  0  0  0  0  0
   25.7907  -20.7182  -12.8818 C   0  0  1  0  0  0  0  0  0  0  0  0
   26.5326  -19.6913  -12.0053 C   0  0  0  0  0  0  0  0  0  0  0  0
   27.5136  -20.3465  -11.1363 C   0  0  0  0  0  0  0  0  0  0  0  0
   28.6069  -21.0612  -11.5729 C   0  0  0  0  0  0  0  0  0  0  0  0
   29.2380  -21.4873  -10.4382 N   0  0  0  0  0  0  0  0  0  0  0  0
   28.5732  -21.0607   -9.3561 C   0  0  0  0  0  0  0  0  0  0  0  0
   28.8089  -21.2283   -8.0225 C   0  0  0  0  0  0  0  0  0  0  0  0
   27.9650  -20.6824   -7.0683 C   0  0  0  0  0  0  0  0  0  0  0  0
   26.8532  -19.9476   -7.4504 C   0  0  0  0  0  0  0  0  0  0  0  0
   26.6354  -19.7915   -8.7979 C   0  0  0  0  0  0  0  0  0  0  0  0
   27.4713  -20.3322   -9.7581 C   0  0  0  0  0  0  0  0  0  0  0  0
   24.4100  -20.3190  -13.1104 C   0  0  0  0  0  0  0  0  0  0  0  0
   24.0910  -19.3543  -13.8917 O   0  0  0  0  0  0  0  0  0  0  0  0
   20.5374  -23.5028  -12.8990 N   0  0  0  0  0  0  0  0  0  0  0  0
   21.5103  -22.7693  -13.6315 C   0  0  0  0  0  0  0  0  0  0  0  0
   22.4897  -23.4874  -14.0397 O   0  0  0  0  0  0  0  0  0  0  0  0
   21.3913  -21.3270  -13.8882 C   0  0  0  0  0  0  0  0  0  0  0  0
   21.9514  -20.5258  -12.7527 C   0  0  2  0  0  0  0  0  0  0  0  0
   23.3432  -20.9913  -12.4721 N   0  0  0  0  0  0  0  0  0  0  0  0
   21.1806  -20.8576  -11.5259 C   0  0  0  0  0  0  0  0  0  0  0  0
   19.8115  -20.5362  -11.3924 O   0  0  0  0  0  0  0  0  0  0  0  0
   21.6622  -21.4370  -10.5246 O   0  0  0  0  0  0  0  0  0  0  0  0
  2  1  1  6
  2  3  1  0
  4  5  2  0
  4  3  1  0
  6  5  1  0
  7  6  2  0
  8  7  1  0
  8  9  2  0
  9  4  1  0
 10  2  1  0
 11 10  2  0
 12 10  1  0
 13 12  1  0
 13 14  1  1
 15 14  1  0
 16 15  2  0
 17 18  1  0
 17 16  1  0
 18 23  2  0
 19 20  2  0
 19 18  1  0
 20 21  1  0
 21 22  2  0
 23 15  1  0
 23 22  1  0
 24 13  1  0
 24 25  2  0
 26 27  1  0
 27 28  2  0
 27 29  1  0
 30 29  1  6
 30 31  1  0
 31 24  1  0
 32 30  1  0
 33 32  1  0
 34 32  2  0
M  END
$$$$
