FWN.pdb
     RDKit          3D

 34 36  0  0  1  0  0  0  0  0999 V2000
   25.8355  -21.5493   -8.0594 N   0  0  0  0  0  0  0  0  0  0  0  0
   25.9184  -20.0898   -8.2211 C   0  0  1  0  0  0  0  0  0  0  0  0
   27.3729  -19.6729   -8.0214 C   0  0  0  0  0  0  0  0  0  0  0  0
   27.7546  -19.8254   -6.5867 C   0  0  0  0  0  0  0  0  0  0  0  0
   27.2345  -18.9512   -5.6561 C   0  0  0  0  0  0  0  0  0  0  0  0
   27.5554  -19.0571   -4.3122 C   0  0  0  0  0  0  0  0  0  0  0  0
   28.4039  -20.0356   -3.8530 C   0  0  0  0  0  0  0  0  0  0  0  0
   28.9304  -20.9173   -4.7822 C   0  0  0  0  0  0  0  0  0  0  0  0
   28.6022  -20.8010   -6.1196 C   0  0  0  0  0  0  0  0  0  0  0  0
   25.4734  -19.7812   -9.6037 C   0  0  0  0  0  0  0  0  0  0  0  0
   25.7010  -18.7222  -10.2097 O   0  0  0  0  0  0  0  0  0  0  0  0
   24.7211  -20.8156  -10.2676 N   0  0  0  0  0  0  0  0  0  0  0  0
   24.4820  -20.7728  -11.6901 C   0  0  1  0  0  0  0  0  0  0  0  0
   25.6306  -21.6028  -12.2942 C   0  0  0  0  0  0  0  0  0  0  0  0
   26.8053  -20.7682  -12.5594 C   0  0  0  0  0  0  0  0  0  0  0  0
   26.8219  -19.6598  -13.3768 C   0  0  0  0  0  0  0  0  0  0  0  0
   28.1065  -19.1958  -13.3321 N   0  0  0  0  0  0  0  0  0  0  0  0
   28.8472  -19.9732  -12.5309 C   0  0  0  0  0  0  0  0  0  0  0  0
   30.1632  -19.9152  -12.1750 C   0  0  0  0  0  0  0  0  0  0  0  0
   30.7178  -20.8489  -11.3139 C   0  0  0  0  0  0  0  0  0  0  0  0
   29.9414  -21.8712  -10.7905 C   0  0  0  0  0  0  0  0  0  0  0  0
   28.6193  -21.9103  -11.1622 C   0  0  0  0  0  0  0  0  0  0  0  0
   28.0563  -20.9836  -12.0207 C   0  0  0  0  0  0  0  0  0  0  0  0
   23.1845  -21.3269  -12.0469 C   0  0  0  0  0  0  0  0  0  0  0  0
   23.0295  -22.1526  -13.0150 O   0  0  0  0  0  0  0  0  0  0  0  0
   20.7048  -22.8331   -8.4065 N   0  0  0  0  0  0  0  0  0  0  0  0
   20.3205  -22.9368   -9.7713 C   0  0  0  0  0  0  0  0  0  0  0  0
   20.4188  -24.1252  -10.2399 O   0  0  0  0  0  0  0  0  0  0  0  0
   19.8572  -21.7840  -10.5565 C   0  0  0  0  0  0  0  0  0  0  0  0
   20.7194  -21.5671  -11.7625 C   0  0  2  0  0  0  0  0  0  0  0  0
   22.0202  -20.9747  -11.3274 N   0  0  0  0  0  0  0  0  0  0  0  0
   20.0836  -20.5210  -12.6055 C   0  0  0  0  0  0  0  0  0  0  0  0
   20.7136  -19.2834  -12.8645 O   0  0  0  0  0  0  0  0  0  0  0  0
   18.9604  -20.6381  -13.1487 O   0  0  0  0  0  0  0  0  0  0  0  0
  2  1  1  6
  2  3  1  0
  4  5  2  0
  4  3  1  0
  6  5  1  0
  7  6  2  0
  8  7  1  0
  8  9  2  0
  9  4  1  0
 10  2  1  0
 11 10  2  0
 12 10  1  0
 13 12  1  0
 13 14  1  6
 15 14  1  0
 16 15  2  0
 17 18  1  0
 17 16  1  0
 18 23  2  0
 19 20  2  0
 19 18  1  0
 20 21  1  0
 21 22  2  0
 23 15  1  0
 23 22  1  0
 24 13  1  0
 24 25  2  0
 26 27  1  0
 27 28  2  0
 27 29  1  0
 30 29  1  1
 30 31  1  0
 31 24  1  0
 32 30  1  0
 33 32  1  0
 34 32  2  0
M  END
$$$$
