FWN.pdb
     RDKit          3D

 34 36  0  0  1  0  0  0  0  0999 V2000
   27.9417  -20.9164  -14.6783 N   0  0  0  0  0  0  0  0  0  0  0  0
   27.0252  -19.9772  -14.0140 C   0  0  1  0  0  0  0  0  0  0  0  0
   26.1589  -19.3223  -15.0864 C   0  0  0  0  0  0  0  0  0  0  0  0
   26.9687  -18.3416  -15.8671 C   0  0  0  0  0  0  0  0  0  0  0  0
   27.3865  -17.1779  -15.2572 C   0  0  0  0  0  0  0  0  0  0  0  0
   28.1450  -16.2405  -15.9401 C   0  0  0  0  0  0  0  0  0  0  0  0
   28.5108  -16.4319  -17.2508 C   0  0  0  0  0  0  0  0  0  0  0  0
   28.0945  -17.5986  -17.8701 C   0  0  0  0  0  0  0  0  0  0  0  0
   27.3385  -18.5255  -17.1778 C   0  0  0  0  0  0  0  0  0  0  0  0
   26.1872  -20.7750  -13.0832 C   0  0  0  0  0  0  0  0  0  0  0  0
   25.7127  -21.8954  -13.3282 O   0  0  0  0  0  0  0  0  0  0  0  0
   25.9240  -20.1725  -11.8009 N   0  0  0  0  0  0  0  0  0  0  0  0
   25.0113  -20.7781  -10.8615 C   0  0  1  0  0  0  0  0  0  0  0  0
   25.4669  -20.2445   -9.4901 C   0  0  0  0  0  0  0  0  0  0  0  0
   26.8368  -20.6659   -9.1857 C   0  0  0  0  0  0  0  0  0  0  0  0
   27.6511  -21.3858  -10.0316 C   0  0  0  0  0  0  0  0  0  0  0  0
   28.8240  -21.5528   -9.3504 N   0  0  0  0  0  0  0  0  0  0  0  0
   28.7427  -20.9686   -8.1475 C   0  0  0  0  0  0  0  0  0  0  0  0
   29.6418  -20.8675   -7.1260 C   0  0  0  0  0  0  0  0  0  0  0  0
   29.3261  -20.2009   -5.9526 C   0  0  0  0  0  0  0  0  0  0  0  0
   28.0794  -19.6170   -5.7891 C   0  0  0  0  0  0  0  0  0  0  0  0
   27.1901  -19.7311   -6.8302 C   0  0  0  0  0  0  0  0  0  0  0  0
   27.4953  -20.3940   -8.0050 C   0  0  0  0  0  0  0  0  0  0  0  0
   23.6262  -20.4237  -11.1334 C   0  0  0  0  0  0  0  0  0  0  0  0
   23.1378  -19.2752  -10.8412 O   0  0  0  0  0  0  0  0  0  0  0  0
   22.4326  -21.7540  -14.4343 N   0  0  0  0  0  0  0  0  0  0  0  0
   21.8830  -20.4455  -14.3524 C   0  0  0  0  0  0  0  0  0  0  0  0
   21.8993  -19.8147  -15.4675 O   0  0  0  0  0  0  0  0  0  0  0  0
   21.3510  -19.8835  -13.1028 C   0  0  0  0  0  0  0  0  0  0  0  0
   21.3422  -20.9067  -12.0083 C   0  0  2  0  0  0  0  0  0  0  0  0
   22.7460  -21.3453  -11.7443 N   0  0  0  0  0  0  0  0  0  0  0  0
   20.6489  -22.1206  -12.5133 C   0  0  0  0  0  0  0  0  0  0  0  0
   21.3420  -23.3227  -12.7780 O   0  0  0  0  0  0  0  0  0  0  0  0
   19.4191  -22.1865  -12.7447 O   0  0  0  0  0  0  0  0  0  0  0  0
  2  1  1  6
  2  3  1  0
  4  5  2  0
  4  3  1  0
  6  5  1  0
  7  6  2  0
  8  7  1  0
  8  9  2  0
  9  4  1  0
 10  2  1  0
 11 10  2  0
 12 10  1  0
 13 12  1  0
 13 14  1  1
 15 14  1  0
 16 15  2  0
 17 18  1  0
 17 16  1  0
 18 23  2  0
 19 20  2  0
 19 18  1  0
 20 21  1  0
 21 22  2  0
 23 15  1  0
 23 22  1  0
 24 13  1  0
 24 25  2  0
 26 27  1  0
 27 28  2  0
 27 29  1  0
 30 29  1  6
 30 31  1  0
 31 24  1  0
 32 30  1  0
 33 32  1  0
 34 32  2  0
M  END
$$$$
