FWN.pdb
     RDKit          3D

 34 36  0  0  1  0  0  0  0  0999 V2000
   28.0591  -23.1408  -17.3465 N   0  0  0  0  0  0  0  0  0  0  0  0
   26.8248  -22.3423  -17.3003 C   0  0  1  0  0  0  0  0  0  0  0  0
   25.9651  -22.7293  -18.5006 C   0  0  0  0  0  0  0  0  0  0  0  0
   26.4500  -22.0244  -19.7234 C   0  0  0  0  0  0  0  0  0  0  0  0
   26.0746  -20.7153  -19.9381 C   0  0  0  0  0  0  0  0  0  0  0  0
   26.5046  -20.0182  -21.0560 C   0  0  0  0  0  0  0  0  0  0  0  0
   27.3209  -20.6022  -21.9945 C   0  0  0  0  0  0  0  0  0  0  0  0
   27.7019  -21.9171  -21.7855 C   0  0  0  0  0  0  0  0  0  0  0  0
   27.2662  -22.6011  -20.6665 C   0  0  0  0  0  0  0  0  0  0  0  0
   26.1334  -22.6866  -16.0321 C   0  0  0  0  0  0  0  0  0  0  0  0
   26.2328  -23.7692  -15.4333 O   0  0  0  0  0  0  0  0  0  0  0  0
   25.2887  -21.6591  -15.4776 N   0  0  0  0  0  0  0  0  0  0  0  0
   24.6017  -21.8498  -14.2231 C   0  0  1  0  0  0  0  0  0  0  0  0
   24.7618  -20.5028  -13.4929 C   0  0  0  0  0  0  0  0  0  0  0  0
   24.3414  -20.6054  -12.0931 C   0  0  0  0  0  0  0  0  0  0  0  0
   25.0124  -21.3024  -11.1129 C   0  0  0  0  0  0  0  0  0  0  0  0
   24.2756  -21.1281   -9.9753 N   0  0  0  0  0  0  0  0  0  0  0  0
   23.2057  -20.3646  -10.2345 C   0  0  0  0  0  0  0  0  0  0  0  0
   22.1931  -19.9208   -9.4346 C   0  0  0  0  0  0  0  0  0  0  0  0
   21.1750  -19.1257   -9.9367 C   0  0  0  0  0  0  0  0  0  0  0  0
   21.1623  -18.7605  -11.2740 C   0  0  0  0  0  0  0  0  0  0  0  0
   22.1913  -19.2185  -12.0607 C   0  0  0  0  0  0  0  0  0  0  0  0
   23.2119  -20.0122  -11.5696 C   0  0  0  0  0  0  0  0  0  0  0  0
   23.1983  -22.1867  -14.4098 C   0  0  0  0  0  0  0  0  0  0  0  0
   22.4194  -21.5039  -15.1647 O   0  0  0  0  0  0  0  0  0  0  0  0
   22.2125  -27.0517  -14.2561 N   0  0  0  0  0  0  0  0  0  0  0  0
   21.4159  -25.9262  -14.6027 C   0  0  0  0  0  0  0  0  0  0  0  0
   21.2161  -25.8115  -15.8630 O   0  0  0  0  0  0  0  0  0  0  0  0
   20.8802  -24.9929  -13.6015 C   0  0  0  0  0  0  0  0  0  0  0  0
   21.1713  -23.5713  -13.9745 C   0  0  2  0  0  0  0  0  0  0  0  0
   22.6249  -23.3019  -13.7579 N   0  0  0  0  0  0  0  0  0  0  0  0
   20.4683  -22.6852  -13.0101 C   0  0  0  0  0  0  0  0  0  0  0  0
   19.3851  -21.8660  -13.3987 O   0  0  0  0  0  0  0  0  0  0  0  0
   20.7649  -22.5864  -11.7966 O   0  0  0  0  0  0  0  0  0  0  0  0
  2  1  1  6
  2  3  1  0
  4  5  2  0
  4  3  1  0
  6  5  1  0
  7  6  2  0
  8  7  1  0
  8  9  2  0
  9  4  1  0
 10  2  1  0
 11 10  2  0
 12 10  1  0
 13 12  1  0
 13 14  1  1
 15 14  1  0
 16 15  2  0
 17 18  1  0
 17 16  1  0
 18 23  2  0
 19 20  2  0
 19 18  1  0
 20 21  1  0
 21 22  2  0
 23 15  1  0
 23 22  1  0
 24 13  1  0
 24 25  2  0
 26 27  1  0
 27 28  2  0
 27 29  1  0
 30 29  1  1
 30 31  1  0
 31 24  1  0
 32 30  1  0
 33 32  1  0
 34 32  2  0
M  END
$$$$
