FWN.pdb
     RDKit          3D

 34 36  0  0  1  0  0  0  0  0999 V2000
   27.1779  -18.4521   -7.9769 N   0  0  0  0  0  0  0  0  0  0  0  0
   27.2814  -19.8469   -8.4319 C   0  0  1  0  0  0  0  0  0  0  0  0
   26.9316  -20.7557   -7.2567 C   0  0  0  0  0  0  0  0  0  0  0  0
   27.8204  -20.4536   -6.0965 C   0  0  0  0  0  0  0  0  0  0  0  0
   29.1843  -20.5953   -6.2396 C   0  0  0  0  0  0  0  0  0  0  0  0
   30.0494  -20.3210   -5.1923 C   0  0  0  0  0  0  0  0  0  0  0  0
   29.5841  -19.8978   -3.9706 C   0  0  0  0  0  0  0  0  0  0  0  0
   28.2151  -19.7534   -3.8194 C   0  0  0  0  0  0  0  0  0  0  0  0
   27.3631  -20.0301   -4.8717 C   0  0  0  0  0  0  0  0  0  0  0  0
   26.2992  -20.0175   -9.5324 C   0  0  0  0  0  0  0  0  0  0  0  0
   25.0653  -20.0001   -9.4000 O   0  0  0  0  0  0  0  0  0  0  0  0
   26.8559  -20.2153  -10.8468 N   0  0  0  0  0  0  0  0  0  0  0  0
   26.1018  -19.8982  -12.0355 C   0  0  1  0  0  0  0  0  0  0  0  0
   27.1568  -19.8634  -13.1575 C   0  0  0  0  0  0  0  0  0  0  0  0
   26.7528  -18.9591  -14.2372 C   0  0  0  0  0  0  0  0  0  0  0  0
   25.4785  -18.4729  -14.4289 C   0  0  0  0  0  0  0  0  0  0  0  0
   25.5572  -17.6768  -15.5368 N   0  0  0  0  0  0  0  0  0  0  0  0
   26.8115  -17.6688  -16.0074 C   0  0  0  0  0  0  0  0  0  0  0  0
   27.3753  -17.0331  -17.0752 C   0  0  0  0  0  0  0  0  0  0  0  0
   28.7215  -17.1786  -17.3708 C   0  0  0  0  0  0  0  0  0  0  0  0
   29.5322  -17.9801  -16.5819 C   0  0  0  0  0  0  0  0  0  0  0  0
   28.9436  -18.6104  -15.5124 C   0  0  0  0  0  0  0  0  0  0  0  0
   27.6014  -18.4718  -15.2088 C   0  0  0  0  0  0  0  0  0  0  0  0
   25.0686  -20.8853  -12.3114 C   0  0  0  0  0  0  0  0  0  0  0  0
   25.2039  -22.1259  -12.0191 O   0  0  0  0  0  0  0  0  0  0  0  0
   20.6136  -23.2402  -13.5463 N   0  0  0  0  0  0  0  0  0  0  0  0
   20.4348  -22.0572  -12.7782 C   0  0  0  0  0  0  0  0  0  0  0  0
   19.2597  -21.9453  -12.2801 O   0  0  0  0  0  0  0  0  0  0  0  0
   21.5035  -21.0672  -12.5829 C   0  0  0  0  0  0  0  0  0  0  0  0
   22.8105  -21.5667  -13.1187 C   0  0  2  0  0  0  0  0  0  0  0  0
   23.8497  -20.5115  -12.9213 N   0  0  0  0  0  0  0  0  0  0  0  0
   22.6834  -21.7098  -14.5928 C   0  0  0  0  0  0  0  0  0  0  0  0
   22.1410  -22.8703  -15.1881 O   0  0  0  0  0  0  0  0  0  0  0  0
   23.0369  -20.8373  -15.4199 O   0  0  0  0  0  0  0  0  0  0  0  0
  2  1  1  1
  2  3  1  0
  4  5  2  0
  4  3  1  0
  6  5  1  0
  7  6  2  0
  8  7  1  0
  8  9  2  0
  9  4  1  0
 10  2  1  0
 11 10  2  0
 12 10  1  0
 13 12  1  0
 13 14  1  6
 15 14  1  0
 16 15  2  0
 17 18  1  0
 17 16  1  0
 18 23  2  0
 19 20  2  0
 19 18  1  0
 20 21  1  0
 21 22  2  0
 23 15  1  0
 23 22  1  0
 24 13  1  0
 24 25  2  0
 26 27  1  0
 27 28  2  0
 27 29  1  0
 30 29  1  6
 30 31  1  0
 31 24  1  0
 32 30  1  0
 33 32  1  0
 34 32  2  0
M  END
$$$$
