FWN.pdb
     RDKit          3D

 34 36  0  0  1  0  0  0  0  0999 V2000
   27.2096  -24.2824  -15.9066 N   0  0  0  0  0  0  0  0  0  0  0  0
   25.9135  -23.8600  -16.4588 C   0  0  1  0  0  0  0  0  0  0  0  0
   25.3285  -25.0313  -17.2433 C   0  0  0  0  0  0  0  0  0  0  0  0
   26.0950  -25.2312  -18.5081 C   0  0  0  0  0  0  0  0  0  0  0  0
   25.8760  -24.3782  -19.5689 C   0  0  0  0  0  0  0  0  0  0  0  0
   26.5680  -24.5211  -20.7610 C   0  0  0  0  0  0  0  0  0  0  0  0
   27.4987  -25.5171  -20.9345 C   0  0  0  0  0  0  0  0  0  0  0  0
   27.7238  -26.3779  -19.8732 C   0  0  0  0  0  0  0  0  0  0  0  0
   27.0271  -26.2245  -18.6896 C   0  0  0  0  0  0  0  0  0  0  0  0
   25.0421  -23.5185  -15.3060 C   0  0  0  0  0  0  0  0  0  0  0  0
   25.0538  -24.0913  -14.2050 O   0  0  0  0  0  0  0  0  0  0  0  0
   24.1220  -22.4292  -15.5144 N   0  0  0  0  0  0  0  0  0  0  0  0
   23.2425  -21.9793  -14.4626 C   0  0  1  0  0  0  0  0  0  0  0  0
   23.2753  -20.4429  -14.5701 C   0  0  0  0  0  0  0  0  0  0  0  0
   22.5048  -19.8194  -13.4911 C   0  0  0  0  0  0  0  0  0  0  0  0
   22.5531  -20.1905  -12.1657 C   0  0  0  0  0  0  0  0  0  0  0  0
   21.6870  -19.3517  -11.5226 N   0  0  0  0  0  0  0  0  0  0  0  0
   21.1311  -18.5059  -12.4004 C   0  0  0  0  0  0  0  0  0  0  0  0
   20.2212  -17.5015  -12.2404 C   0  0  0  0  0  0  0  0  0  0  0  0
   19.7861  -16.7462  -13.3179 C   0  0  0  0  0  0  0  0  0  0  0  0
   20.2695  -16.9961  -14.5929 C   0  0  0  0  0  0  0  0  0  0  0  0
   21.1845  -18.0117  -14.7307 C   0  0  0  0  0  0  0  0  0  0  0  0
   21.6251  -18.7713  -13.6621 C   0  0  0  0  0  0  0  0  0  0  0  0
   21.8895  -22.4918  -14.6198 C   0  0  0  0  0  0  0  0  0  0  0  0
   21.3048  -22.5581  -15.7584 O   0  0  0  0  0  0  0  0  0  0  0  0
   21.2134  -26.5429  -12.7889 N   0  0  0  0  0  0  0  0  0  0  0  0
   20.2922  -25.7751  -13.5526 C   0  0  0  0  0  0  0  0  0  0  0  0
   20.2149  -26.1421  -14.7777 O   0  0  0  0  0  0  0  0  0  0  0  0
   19.5110  -24.6700  -12.9791 C   0  0  0  0  0  0  0  0  0  0  0  0
   19.7425  -23.3947  -13.7307 C   0  0  2  0  0  0  0  0  0  0  0  0
   21.1506  -22.9487  -13.5050 N   0  0  0  0  0  0  0  0  0  0  0  0
   18.9006  -22.3348  -13.1166 C   0  0  0  0  0  0  0  0  0  0  0  0
   17.4902  -22.3627  -13.1904 O   0  0  0  0  0  0  0  0  0  0  0  0
   19.3532  -21.3458  -12.4942 O   0  0  0  0  0  0  0  0  0  0  0  0
  2  1  1  1
  2  3  1  0
  4  5  2  0
  4  3  1  0
  6  5  1  0
  7  6  2  0
  8  7  1  0
  8  9  2  0
  9  4  1  0
 10  2  1  0
 11 10  2  0
 12 10  1  0
 13 12  1  0
 13 14  1  6
 15 14  1  0
 16 15  2  0
 17 18  1  0
 17 16  1  0
 18 23  2  0
 19 20  2  0
 19 18  1  0
 20 21  1  0
 21 22  2  0
 23 15  1  0
 23 22  1  0
 24 13  1  0
 24 25  2  0
 26 27  1  0
 27 28  2  0
 27 29  1  0
 30 29  1  1
 30 31  1  0
 31 24  1  0
 32 30  1  0
 33 32  1  0
 34 32  2  0
M  END
$$$$
