FWN.pdb
     RDKit          3D

 34 36  0  0  1  0  0  0  0  0999 V2000
   24.7449  -11.9276  -17.1209 N   0  0  0  0  0  0  0  0  0  0  0  0
   24.7629  -13.3975  -17.0710 C   0  0  1  0  0  0  0  0  0  0  0  0
   25.5726  -13.8200  -15.8482 C   0  0  0  0  0  0  0  0  0  0  0  0
   27.0245  -13.5714  -16.0873 C   0  0  0  0  0  0  0  0  0  0  0  0
   27.6915  -12.6648  -15.2911 C   0  0  0  0  0  0  0  0  0  0  0  0
   29.0407  -12.4054  -15.4718 C   0  0  0  0  0  0  0  0  0  0  0  0
   29.7676  -13.0395  -16.4505 C   0  0  0  0  0  0  0  0  0  0  0  0
   29.1041  -13.9513  -17.2544 C   0  0  0  0  0  0  0  0  0  0  0  0
   27.7584  -14.2011  -17.0637 C   0  0  0  0  0  0  0  0  0  0  0  0
   23.3527  -13.8438  -16.9414 C   0  0  0  0  0  0  0  0  0  0  0  0
   22.5239  -13.3763  -16.1444 O   0  0  0  0  0  0  0  0  0  0  0  0
   22.9451  -14.9048  -17.8273 N   0  0  0  0  0  0  0  0  0  0  0  0
   21.6023  -15.4323  -17.7968 C   0  0  1  0  0  0  0  0  0  0  0  0
   21.1419  -15.3863  -19.2662 C   0  0  0  0  0  0  0  0  0  0  0  0
   20.6962  -14.0416  -19.6402 C   0  0  0  0  0  0  0  0  0  0  0  0
   20.4081  -13.0270  -18.7545 C   0  0  0  0  0  0  0  0  0  0  0  0
   20.0375  -11.9640  -19.5292 N   0  0  0  0  0  0  0  0  0  0  0  0
   20.0924  -12.2999  -20.8250 C   0  0  0  0  0  0  0  0  0  0  0  0
   19.8203  -11.5898  -21.9581 C   0  0  0  0  0  0  0  0  0  0  0  0
   19.9521  -12.1605  -23.2142 C   0  0  0  0  0  0  0  0  0  0  0  0
   20.3666  -13.4765  -23.3487 C   0  0  0  0  0  0  0  0  0  0  0  0
   20.6350  -14.1724  -22.1949 C   0  0  0  0  0  0  0  0  0  0  0  0
   20.5068  -13.6123  -20.9369 C   0  0  0  0  0  0  0  0  0  0  0  0
   21.5555  -16.7882  -17.2700 C   0  0  0  0  0  0  0  0  0  0  0  0
   22.5977  -17.5285  -17.1768 O   0  0  0  0  0  0  0  0  0  0  0  0
   20.7759  -21.1747  -14.9786 N   0  0  0  0  0  0  0  0  0  0  0  0
   21.9183  -20.4047  -15.3294 C   0  0  0  0  0  0  0  0  0  0  0  0
   23.0274  -20.9746  -15.0353 O   0  0  0  0  0  0  0  0  0  0  0  0
   21.8214  -19.0840  -15.9673 C   0  0  0  0  0  0  0  0  0  0  0  0
   20.4016  -18.6080  -16.0162 C   0  0  2  0  0  0  0  0  0  0  0  0
   20.3387  -17.3555  -16.8285 N   0  0  0  0  0  0  0  0  0  0  0  0
   20.0024  -18.1969  -14.6447 C   0  0  0  0  0  0  0  0  0  0  0  0
   18.7493  -17.6024  -14.3765 O   0  0  0  0  0  0  0  0  0  0  0  0
   20.7220  -18.3361  -13.6283 O   0  0  0  0  0  0  0  0  0  0  0  0
  2  1  1  1
  2  3  1  0
  4  5  2  0
  4  3  1  0
  6  5  1  0
  7  6  2  0
  8  7  1  0
  8  9  2  0
  9  4  1  0
 10  2  1  0
 11 10  2  0
 12 10  1  0
 13 12  1  0
 13 14  1  6
 15 14  1  0
 16 15  2  0
 17 18  1  0
 17 16  1  0
 18 23  2  0
 19 20  2  0
 19 18  1  0
 20 21  1  0
 21 22  2  0
 23 15  1  0
 23 22  1  0
 24 13  1  0
 24 25  2  0
 26 27  1  0
 27 28  2  0
 27 29  1  0
 30 29  1  1
 30 31  1  0
 31 24  1  0
 32 30  1  0
 33 32  1  0
 34 32  2  0
M  END
$$$$
