FWN.pdb
     RDKit          3D

 34 36  0  0  1  0  0  0  0  0999 V2000
   27.9620  -20.0662  -11.6393 N   0  0  0  0  0  0  0  0  0  0  0  0
   27.0347  -21.0402  -11.0437 C   0  0  1  0  0  0  0  0  0  0  0  0
   27.3707  -21.1684   -9.5605 C   0  0  0  0  0  0  0  0  0  0  0  0
   28.8039  -21.5495   -9.3935 C   0  0  0  0  0  0  0  0  0  0  0  0
   29.5941  -20.8294   -8.5230 C   0  0  0  0  0  0  0  0  0  0  0  0
   30.9286  -21.1496   -8.3308 C   0  0  0  0  0  0  0  0  0  0  0  0
   31.5180  -22.1957   -8.9990 C   0  0  0  0  0  0  0  0  0  0  0  0
   30.7304  -22.9235   -9.8753 C   0  0  0  0  0  0  0  0  0  0  0  0
   29.4008  -22.5939  -10.0579 C   0  0  0  0  0  0  0  0  0  0  0  0
   25.6639  -20.4982  -11.2221 C   0  0  0  0  0  0  0  0  0  0  0  0
   25.2153  -19.4861  -10.6609 O   0  0  0  0  0  0  0  0  0  0  0  0
   24.8122  -21.2279  -12.1270 N   0  0  0  0  0  0  0  0  0  0  0  0
   23.7536  -20.5702  -12.8544 C   0  0  1  0  0  0  0  0  0  0  0  0
   24.3910  -20.2075  -14.2092 C   0  0  0  0  0  0  0  0  0  0  0  0
   23.4558  -19.4571  -15.0512 C   0  0  0  0  0  0  0  0  0  0  0  0
   22.9546  -18.2077  -14.7604 C   0  0  0  0  0  0  0  0  0  0  0  0
   22.1329  -17.8944  -15.8063 N   0  0  0  0  0  0  0  0  0  0  0  0
   22.1240  -18.8943  -16.6979 C   0  0  0  0  0  0  0  0  0  0  0  0
   21.4681  -19.0449  -17.8850 C   0  0  0  0  0  0  0  0  0  0  0  0
   21.6182  -20.1909  -18.6498 C   0  0  0  0  0  0  0  0  0  0  0  0
   22.4449  -21.2184  -18.2225 C   0  0  0  0  0  0  0  0  0  0  0  0
   23.0953  -21.0454  -17.0247 C   0  0  0  0  0  0  0  0  0  0  0  0
   22.9524  -19.9059  -16.2540 C   0  0  0  0  0  0  0  0  0  0  0  0
   22.5910  -21.4279  -13.0296 C   0  0  0  0  0  0  0  0  0  0  0  0
   22.6868  -22.6565  -13.3822 O   0  0  0  0  0  0  0  0  0  0  0  0
   19.2072  -24.0735  -11.6554 N   0  0  0  0  0  0  0  0  0  0  0  0
   18.6304  -22.8029  -11.3832 C   0  0  0  0  0  0  0  0  0  0  0  0
   17.7125  -22.8403  -10.4901 O   0  0  0  0  0  0  0  0  0  0  0  0
   19.0557  -21.5738  -12.0677 C   0  0  0  0  0  0  0  0  0  0  0  0
   20.1352  -21.8555  -13.0679 C   0  0  2  0  0  0  0  0  0  0  0  0
   21.2843  -20.9354  -12.8120 N   0  0  0  0  0  0  0  0  0  0  0  0
   19.6313  -21.4760  -14.4138 C   0  0  0  0  0  0  0  0  0  0  0  0
   19.2348  -20.1551  -14.7194 O   0  0  0  0  0  0  0  0  0  0  0  0
   19.5150  -22.2722  -15.3745 O   0  0  0  0  0  0  0  0  0  0  0  0
  2  1  1  6
  2  3  1  0
  4  5  2  0
  4  3  1  0
  6  5  1  0
  7  6  2  0
  8  7  1  0
  8  9  2  0
  9  4  1  0
 10  2  1  0
 11 10  2  0
 12 10  1  0
 13 12  1  0
 13 14  1  6
 15 14  1  0
 16 15  2  0
 17 18  1  0
 17 16  1  0
 18 23  2  0
 19 20  2  0
 19 18  1  0
 20 21  1  0
 21 22  2  0
 23 15  1  0
 23 22  1  0
 24 13  1  0
 24 25  2  0
 26 27  1  0
 27 28  2  0
 27 29  1  0
 30 29  1  1
 30 31  1  0
 31 24  1  0
 32 30  1  0
 33 32  1  0
 34 32  2  0
M  END
$$$$
