FWN.pdb
     RDKit          3D

 34 36  0  0  1  0  0  0  0  0999 V2000
   34.0492  -25.7716  -15.2127 N   0  0  0  0  0  0  0  0  0  0  0  0
   32.6535  -25.3742  -14.9735 C   0  0  1  0  0  0  0  0  0  0  0  0
   32.5973  -23.8498  -14.9212 C   0  0  0  0  0  0  0  0  0  0  0  0
   32.8882  -23.3762  -13.5362 C   0  0  0  0  0  0  0  0  0  0  0  0
   34.1879  -23.3993  -13.0769 C   0  0  0  0  0  0  0  0  0  0  0  0
   34.5071  -22.9642  -11.8005 C   0  0  0  0  0  0  0  0  0  0  0  0
   33.5432  -22.4933  -10.9419 C   0  0  0  0  0  0  0  0  0  0  0  0
   32.2352  -22.4674  -11.3964 C   0  0  0  0  0  0  0  0  0  0  0  0
   31.9302  -22.9040  -12.6716 C   0  0  0  0  0  0  0  0  0  0  0  0
   31.8554  -25.8857  -16.1164 C   0  0  0  0  0  0  0  0  0  0  0  0
   32.1516  -25.7506  -17.3141 O   0  0  0  0  0  0  0  0  0  0  0  0
   30.6474  -26.5925  -15.7733 N   0  0  0  0  0  0  0  0  0  0  0  0
   29.7353  -27.0556  -16.7912 C   0  0  1  0  0  0  0  0  0  0  0  0
   28.7716  -27.9940  -16.0402 C   0  0  0  0  0  0  0  0  0  0  0  0
   27.8009  -28.5998  -16.9553 C   0  0  0  0  0  0  0  0  0  0  0  0
   28.0863  -29.5840  -17.8756 C   0  0  0  0  0  0  0  0  0  0  0  0
   26.9015  -29.8475  -18.5035 N   0  0  0  0  0  0  0  0  0  0  0  0
   25.9333  -29.0698  -18.0008 C   0  0  0  0  0  0  0  0  0  0  0  0
   24.6054  -28.9686  -18.2984 C   0  0  0  0  0  0  0  0  0  0  0  0
   23.7844  -28.0735  -17.6308 C   0  0  0  0  0  0  0  0  0  0  0  0
   24.2982  -27.2542  -16.6375 C   0  0  0  0  0  0  0  0  0  0  0  0
   25.6373  -27.3730  -16.3545 C   0  0  0  0  0  0  0  0  0  0  0  0
   26.4651  -28.2628  -17.0147 C   0  0  0  0  0  0  0  0  0  0  0  0
   29.0185  -25.9604  -17.4273 C   0  0  0  0  0  0  0  0  0  0  0  0
   28.7475  -24.8663  -16.8170 O   0  0  0  0  0  0  0  0  0  0  0  0
   28.2418  -21.3113  -19.7737 N   0  0  0  0  0  0  0  0  0  0  0  0
   28.2097  -22.6426  -20.2714 C   0  0  0  0  0  0  0  0  0  0  0  0
   27.5851  -22.7563  -21.3842 O   0  0  0  0  0  0  0  0  0  0  0  0
   28.8368  -23.7699  -19.5668 C   0  0  0  0  0  0  0  0  0  0  0  0
   27.8630  -24.8895  -19.3595 C   0  0  2  0  0  0  0  0  0  0  0  0
   28.5856  -26.0565  -18.7692 N   0  0  0  0  0  0  0  0  0  0  0  0
   27.4027  -25.3572  -20.6932 C   0  0  0  0  0  0  0  0  0  0  0  0
   26.1564  -24.9690  -21.2334 O   0  0  0  0  0  0  0  0  0  0  0  0
   28.0605  -26.1186  -21.4401 O   0  0  0  0  0  0  0  0  0  0  0  0
  2  1  1  6
  2  3  1  0
  4  5  2  0
  4  3  1  0
  6  5  1  0
  7  6  2  0
  8  7  1  0
  8  9  2  0
  9  4  1  0
 10  2  1  0
 11 10  2  0
 12 10  1  0
 13 12  1  0
 13 14  1  1
 15 14  1  0
 16 15  2  0
 17 18  1  0
 17 16  1  0
 18 23  2  0
 19 20  2  0
 19 18  1  0
 20 21  1  0
 21 22  2  0
 23 15  1  0
 23 22  1  0
 24 13  1  0
 24 25  2  0
 26 27  1  0
 27 28  2  0
 27 29  1  0
 30 29  1  6
 30 31  1  0
 31 24  1  0
 32 30  1  0
 33 32  1  0
 34 32  2  0
M  END
$$$$
