FWN.pdb
     RDKit          3D

 34 36  0  0  1  0  0  0  0  0999 V2000
   27.6523  -21.3844  -14.9263 N   0  0  0  0  0  0  0  0  0  0  0  0
   27.4948  -20.3294  -13.9137 C   0  0  1  0  0  0  0  0  0  0  0  0
   26.6198  -19.2291  -14.5082 C   0  0  0  0  0  0  0  0  0  0  0  0
   27.3726  -18.4959  -15.5678 C   0  0  0  0  0  0  0  0  0  0  0  0
   27.1377  -18.7999  -16.8919 C   0  0  0  0  0  0  0  0  0  0  0  0
   27.8083  -18.1419  -17.9106 C   0  0  0  0  0  0  0  0  0  0  0  0
   28.7334  -17.1616  -17.6432 C   0  0  0  0  0  0  0  0  0  0  0  0
   28.9747  -16.8509  -16.3153 C   0  0  0  0  0  0  0  0  0  0  0  0
   28.2991  -17.5146  -15.3089 C   0  0  0  0  0  0  0  0  0  0  0  0
   26.8264  -20.9499  -12.7419 C   0  0  0  0  0  0  0  0  0  0  0  0
   25.9055  -21.7801  -12.7993 O   0  0  0  0  0  0  0  0  0  0  0  0
   27.3105  -20.5352  -11.4495 N   0  0  0  0  0  0  0  0  0  0  0  0
   26.5738  -20.8282  -10.2439 C   0  0  1  0  0  0  0  0  0  0  0  0
   27.4899  -20.3339   -9.1083 C   0  0  0  0  0  0  0  0  0  0  0  0
   26.8510  -20.5017   -7.8005 C   0  0  0  0  0  0  0  0  0  0  0  0
   25.5965  -21.0310   -7.5933 C   0  0  0  0  0  0  0  0  0  0  0  0
   25.4090  -20.9997   -6.2400 N   0  0  0  0  0  0  0  0  0  0  0  0
   26.4877  -20.4795   -5.6396 C   0  0  0  0  0  0  0  0  0  0  0  0
   26.7700  -20.2470   -4.3249 C   0  0  0  0  0  0  0  0  0  0  0  0
   27.9774  -19.6887   -3.9358 C   0  0  0  0  0  0  0  0  0  0  0  0
   28.9333  -19.3510   -4.8814 C   0  0  0  0  0  0  0  0  0  0  0  0
   28.6279  -19.5938   -6.1988 C   0  0  0  0  0  0  0  0  0  0  0  0
   27.4262  -20.1505   -6.5975 C   0  0  0  0  0  0  0  0  0  0  0  0
   25.2824  -20.1579  -10.2114 C   0  0  0  0  0  0  0  0  0  0  0  0
   25.1680  -18.8853  -10.1096 O   0  0  0  0  0  0  0  0  0  0  0  0
   23.2005  -21.6759  -12.6221 N   0  0  0  0  0  0  0  0  0  0  0  0
   22.8897  -20.2971  -12.7753 C   0  0  0  0  0  0  0  0  0  0  0  0
   22.7884  -19.9299  -13.9986 O   0  0  0  0  0  0  0  0  0  0  0  0
   22.7052  -19.3921  -11.6320 C   0  0  0  0  0  0  0  0  0  0  0  0
   22.7925  -20.1339  -10.3331 C   0  0  2  0  0  0  0  0  0  0  0  0
   24.0786  -20.8935  -10.2950 N   0  0  0  0  0  0  0  0  0  0  0  0
   21.7312  -21.1745  -10.3209 C   0  0  0  0  0  0  0  0  0  0  0  0
   20.3671  -20.8504  -10.1485 O   0  0  0  0  0  0  0  0  0  0  0  0
   21.9441  -22.4018  -10.4582 O   0  0  0  0  0  0  0  0  0  0  0  0
  2  1  1  6
  2  3  1  0
  4  5  2  0
  4  3  1  0
  6  5  1  0
  7  6  2  0
  8  7  1  0
  8  9  2  0
  9  4  1  0
 10  2  1  0
 11 10  2  0
 12 10  1  0
 13 12  1  0
 13 14  1  1
 15 14  1  0
 16 15  2  0
 17 18  1  0
 17 16  1  0
 18 23  2  0
 19 20  2  0
 19 18  1  0
 20 21  1  0
 21 22  2  0
 23 15  1  0
 23 22  1  0
 24 13  1  0
 24 25  2  0
 26 27  1  0
 27 28  2  0
 27 29  1  0
 30 29  1  6
 30 31  1  0
 31 24  1  0
 32 30  1  0
 33 32  1  0
 34 32  2  0
M  END
$$$$
