FWN.pdb
     RDKit          3D

 34 36  0  0  1  0  0  0  0  0999 V2000
   28.5040  -20.8106   -8.5415 N   0  0  0  0  0  0  0  0  0  0  0  0
   27.1187  -20.4256   -8.2316 C   0  0  1  0  0  0  0  0  0  0  0  0
   27.1601  -19.2187   -7.2982 C   0  0  0  0  0  0  0  0  0  0  0  0
   27.9191  -19.5584   -6.0590 C   0  0  0  0  0  0  0  0  0  0  0  0
   29.1335  -18.9488   -5.8261 C   0  0  0  0  0  0  0  0  0  0  0  0
   29.8714  -19.2281   -4.6868 C   0  0  0  0  0  0  0  0  0  0  0  0
   29.4239  -20.1227   -3.7446 C   0  0  0  0  0  0  0  0  0  0  0  0
   28.2047  -20.7390   -3.9719 C   0  0  0  0  0  0  0  0  0  0  0  0
   27.4786  -20.4516   -5.1121 C   0  0  0  0  0  0  0  0  0  0  0  0
   26.4707  -20.0667   -9.5185 C   0  0  0  0  0  0  0  0  0  0  0  0
   26.4081  -18.9219   -9.9939 O   0  0  0  0  0  0  0  0  0  0  0  0
   25.8784  -21.1579  -10.2499 N   0  0  0  0  0  0  0  0  0  0  0  0
   25.4644  -21.0021  -11.6235 C   0  0  1  0  0  0  0  0  0  0  0  0
   26.0745  -22.2186  -12.3452 C   0  0  0  0  0  0  0  0  0  0  0  0
   25.7602  -22.1987  -13.7761 C   0  0  0  0  0  0  0  0  0  0  0  0
   25.8905  -21.1036  -14.6012 C   0  0  0  0  0  0  0  0  0  0  0  0
   25.4927  -21.5312  -15.8366 N   0  0  0  0  0  0  0  0  0  0  0  0
   25.1349  -22.8211  -15.7820 C   0  0  0  0  0  0  0  0  0  0  0  0
   24.6763  -23.6763  -16.7415 C   0  0  0  0  0  0  0  0  0  0  0  0
   24.3654  -24.9934  -16.4425 C   0  0  0  0  0  0  0  0  0  0  0  0
   24.5146  -25.4756  -15.1514 C   0  0  0  0  0  0  0  0  0  0  0  0
   24.9777  -24.5974  -14.2017 C   0  0  0  0  0  0  0  0  0  0  0  0
   25.2907  -23.2814  -14.4896 C   0  0  0  0  0  0  0  0  0  0  0  0
   24.0159  -20.9765  -11.7621 C   0  0  0  0  0  0  0  0  0  0  0  0
   23.2361  -21.6225  -10.9763 O   0  0  0  0  0  0  0  0  0  0  0  0
   19.1601  -19.6955  -13.0168 N   0  0  0  0  0  0  0  0  0  0  0  0
   20.0469  -18.6609  -13.4224 C   0  0  0  0  0  0  0  0  0  0  0  0
   19.4468  -17.6209  -13.8694 O   0  0  0  0  0  0  0  0  0  0  0  0
   21.5085  -18.7860  -13.3320 C   0  0  0  0  0  0  0  0  0  0  0  0
   21.9056  -20.1193  -12.7757 C   0  0  2  0  0  0  0  0  0  0  0  0
   23.3961  -20.2232  -12.7847 N   0  0  0  0  0  0  0  0  0  0  0  0
   21.4414  -21.1719  -13.7169 C   0  0  0  0  0  0  0  0  0  0  0  0
   22.1897  -21.5388  -14.8576 O   0  0  0  0  0  0  0  0  0  0  0  0
   20.3721  -21.8124  -13.5882 O   0  0  0  0  0  0  0  0  0  0  0  0
  2  1  1  6
  2  3  1  0
  4  5  2  0
  4  3  1  0
  6  5  1  0
  7  6  2  0
  8  7  1  0
  8  9  2  0
  9  4  1  0
 10  2  1  0
 11 10  2  0
 12 10  1  0
 13 12  1  0
 13 14  1  6
 15 14  1  0
 16 15  2  0
 17 18  1  0
 17 16  1  0
 18 23  2  0
 19 20  2  0
 19 18  1  0
 20 21  1  0
 21 22  2  0
 23 15  1  0
 23 22  1  0
 24 13  1  0
 24 25  2  0
 26 27  1  0
 27 28  2  0
 27 29  1  0
 30 29  1  6
 30 31  1  0
 31 24  1  0
 32 30  1  0
 33 32  1  0
 34 32  2  0
M  END
$$$$
