FWN.pdb
     RDKit          3D

 34 36  0  0  1  0  0  0  0  0999 V2000
   26.4820  -21.5941   -8.3856 N   0  0  0  0  0  0  0  0  0  0  0  0
   26.1535  -20.1618   -8.4467 C   0  0  1  0  0  0  0  0  0  0  0  0
   27.4198  -19.3714   -8.1284 C   0  0  0  0  0  0  0  0  0  0  0  0
   27.7730  -19.5331   -6.6875 C   0  0  0  0  0  0  0  0  0  0  0  0
   26.8565  -20.1046   -5.8307 C   0  0  0  0  0  0  0  0  0  0  0  0
   27.1417  -20.2805   -4.4860 C   0  0  0  0  0  0  0  0  0  0  0  0
   28.3473  -19.8929   -3.9525 C   0  0  0  0  0  0  0  0  0  0  0  0
   29.2728  -19.3178   -4.8073 C   0  0  0  0  0  0  0  0  0  0  0  0
   28.9760  -19.1481   -6.1462 C   0  0  0  0  0  0  0  0  0  0  0  0
   25.6985  -19.8804   -9.8319 C   0  0  0  0  0  0  0  0  0  0  0  0
   25.6161  -18.7526  -10.3434 O   0  0  0  0  0  0  0  0  0  0  0  0
   25.3323  -21.0305  -10.6191 N   0  0  0  0  0  0  0  0  0  0  0  0
   24.8183  -20.8881  -11.9599 C   0  0  1  0  0  0  0  0  0  0  0  0
   25.7520  -21.7607  -12.8201 C   0  0  0  0  0  0  0  0  0  0  0  0
   26.9652  -21.0295  -13.1945 C   0  0  0  0  0  0  0  0  0  0  0  0
   28.2484  -21.3956  -12.8536 C   0  0  0  0  0  0  0  0  0  0  0  0
   29.0563  -20.4421  -13.4063 N   0  0  0  0  0  0  0  0  0  0  0  0
   28.3156  -19.5336  -14.0550 C   0  0  0  0  0  0  0  0  0  0  0  0
   28.6613  -18.4134  -14.7535 C   0  0  0  0  0  0  0  0  0  0  0  0
   27.7007  -17.6125  -15.3506 C   0  0  0  0  0  0  0  0  0  0  0  0
   26.3559  -17.9340  -15.2507 C   0  0  0  0  0  0  0  0  0  0  0  0
   26.0308  -19.0659  -14.5430 C   0  0  0  0  0  0  0  0  0  0  0  0
   26.9816  -19.8718  -13.9435 C   0  0  0  0  0  0  0  0  0  0  0  0
   23.4351  -21.3272  -12.0686 C   0  0  0  0  0  0  0  0  0  0  0  0
   22.8954  -22.1233  -11.2213 O   0  0  0  0  0  0  0  0  0  0  0  0
   19.0914  -18.4298  -12.0517 N   0  0  0  0  0  0  0  0  0  0  0  0
   20.3357  -19.0943  -12.2283 C   0  0  0  0  0  0  0  0  0  0  0  0
   21.2650  -18.3289  -12.6666 O   0  0  0  0  0  0  0  0  0  0  0  0
   20.5236  -20.5218  -11.9326 C   0  0  0  0  0  0  0  0  0  0  0  0
   21.1608  -21.2354  -13.0857 C   0  0  2  0  0  0  0  0  0  0  0  0
   22.6126  -20.8849  -13.1293 N   0  0  0  0  0  0  0  0  0  0  0  0
   20.5941  -20.6829  -14.3438 C   0  0  0  0  0  0  0  0  0  0  0  0
   21.3810  -19.9520  -15.2615 O   0  0  0  0  0  0  0  0  0  0  0  0
   19.3983  -20.8113  -14.6957 O   0  0  0  0  0  0  0  0  0  0  0  0
  2  1  1  6
  2  3  1  0
  4  5  2  0
  4  3  1  0
  6  5  1  0
  7  6  2  0
  8  7  1  0
  8  9  2  0
  9  4  1  0
 10  2  1  0
 11 10  2  0
 12 10  1  0
 13 12  1  0
 13 14  1  6
 15 14  1  0
 16 15  2  0
 17 18  1  0
 17 16  1  0
 18 23  2  0
 19 20  2  0
 19 18  1  0
 20 21  1  0
 21 22  2  0
 23 15  1  0
 23 22  1  0
 24 13  1  0
 24 25  2  0
 26 27  1  0
 27 28  2  0
 27 29  1  0
 30 29  1  1
 30 31  1  0
 31 24  1  0
 32 30  1  0
 33 32  1  0
 34 32  2  0
M  END
$$$$
