FWN.pdb
     RDKit          3D

 34 36  0  0  1  0  0  0  0  0999 V2000
   25.9620  -21.3011  -13.3503 N   0  0  0  0  0  0  0  0  0  0  0  0
   24.9848  -20.5594  -12.5390 C   0  0  1  0  0  0  0  0  0  0  0  0
   23.6217  -20.6756  -13.2157 C   0  0  0  0  0  0  0  0  0  0  0  0
   23.6120  -19.8854  -14.4816 C   0  0  0  0  0  0  0  0  0  0  0  0
   23.5538  -20.5495  -15.6884 C   0  0  0  0  0  0  0  0  0  0  0  0
   23.5368  -19.8583  -16.8894 C   0  0  0  0  0  0  0  0  0  0  0  0
   23.5776  -18.4853  -16.9266 C   0  0  0  0  0  0  0  0  0  0  0  0
   23.6363  -17.8113  -15.7182 C   0  0  0  0  0  0  0  0  0  0  0  0
   23.6525  -18.5125  -14.5274 C   0  0  0  0  0  0  0  0  0  0  0  0
   24.9577  -21.2007  -11.2000 C   0  0  0  0  0  0  0  0  0  0  0  0
   25.0408  -22.4209  -10.9885 O   0  0  0  0  0  0  0  0  0  0  0  0
   24.8253  -20.3068  -10.0774 N   0  0  0  0  0  0  0  0  0  0  0  0
   24.7868  -20.8046   -8.7235 C   0  0  1  0  0  0  0  0  0  0  0  0
   25.5244  -19.7304   -7.9019 C   0  0  0  0  0  0  0  0  0  0  0  0
   26.9306  -20.0894   -7.7008 C   0  0  0  0  0  0  0  0  0  0  0  0
   27.7218  -20.7406   -8.6210 C   0  0  0  0  0  0  0  0  0  0  0  0
   28.9440  -20.8671   -8.0230 N   0  0  0  0  0  0  0  0  0  0  0  0
   28.9137  -20.3243   -6.7985 C   0  0  0  0  0  0  0  0  0  0  0  0
   29.8723  -20.2076   -5.8344 C   0  0  0  0  0  0  0  0  0  0  0  0
   29.6023  -19.5936   -4.6216 C   0  0  0  0  0  0  0  0  0  0  0  0
   28.3417  -19.0801   -4.3585 C   0  0  0  0  0  0  0  0  0  0  0  0
   27.3923  -19.2087   -5.3432 C   0  0  0  0  0  0  0  0  0  0  0  0
   27.6515  -19.8194   -6.5567 C   0  0  0  0  0  0  0  0  0  0  0  0
   23.4254  -20.9941   -8.2453 C   0  0  0  0  0  0  0  0  0  0  0  0
   22.5250  -20.0879   -8.3499 O   0  0  0  0  0  0  0  0  0  0  0  0
   18.8932  -24.6746   -7.3495 N   0  0  0  0  0  0  0  0  0  0  0  0
   19.9405  -24.0586   -6.6113 C   0  0  0  0  0  0  0  0  0  0  0  0
   19.5976  -23.7219   -5.4236 O   0  0  0  0  0  0  0  0  0  0  0  0
   21.2819  -23.8359   -7.1692 C   0  0  0  0  0  0  0  0  0  0  0  0
   21.5909  -22.3734   -7.2719 C   0  0  2  0  0  0  0  0  0  0  0  0
   23.0301  -22.2071   -7.6374 N   0  0  0  0  0  0  0  0  0  0  0  0
   21.4673  -21.7766   -5.9162 C   0  0  0  0  0  0  0  0  0  0  0  0
   20.2803  -21.1461   -5.4813 O   0  0  0  0  0  0  0  0  0  0  0  0
   22.3807  -21.7778   -5.0583 O   0  0  0  0  0  0  0  0  0  0  0  0
  2  1  1  6
  2  3  1  0
  4  5  2  0
  4  3  1  0
  6  5  1  0
  7  6  2  0
  8  7  1  0
  8  9  2  0
  9  4  1  0
 10  2  1  0
 11 10  2  0
 12 10  1  0
 13 12  1  0
 13 14  1  1
 15 14  1  0
 16 15  2  0
 17 18  1  0
 17 16  1  0
 18 23  2  0
 19 20  2  0
 19 18  1  0
 20 21  1  0
 21 22  2  0
 23 15  1  0
 23 22  1  0
 24 13  1  0
 24 25  2  0
 26 27  1  0
 27 28  2  0
 27 29  1  0
 30 29  1  1
 30 31  1  0
 31 24  1  0
 32 30  1  0
 33 32  1  0
 34 32  2  0
M  END
$$$$
