THA.pdb
     RDKit          3D

 23 23  0  0  1  0  0  0  0  0999 V2000
   15.6262  -14.7365   19.8639 C   0  0  0  0  0  0  0  0  0  0  0  0
   15.3135  -14.1840   18.5043 C   0  0  1  0  0  0  0  0  0  0  0  0
   16.4519  -13.9522   17.7716 O   0  0  0  0  0  0  0  0  0  0  0  0
   14.3931  -15.1332   17.7618 C   0  0  2  0  0  0  0  0  0  0  0  0
   14.0839  -14.5328   16.4871 N   0  0  0  0  0  0  0  0  0  0  0  0
   13.1456  -15.4069   18.5061 C   0  0  0  0  0  0  0  0  0  0  0  0
   12.2557  -14.5406   18.6814 O   0  0  0  0  0  0  0  0  0  0  0  0
   12.9104  -16.6923   19.0606 N   0  0  0  0  0  0  0  0  0  0  0  0
   11.7828  -17.0458   19.8529 C   0  0  1  0  0  0  0  0  0  0  0  0
   11.4395  -18.4864   19.6581 C   0  0  0  0  0  0  0  0  0  0  0  0
   10.6965  -18.7242   18.3980 C   0  0  0  0  0  0  0  0  0  0  0  0
   10.2394  -17.7753   17.5220 C   0  0  0  0  0  0  0  0  0  0  0  0
    9.6291  -18.4366   16.5251 N   0  0  0  0  0  0  0  0  0  0  0  0
    9.6854  -19.7615   16.7413 C   0  0  0  0  0  0  0  0  0  0  0  0
   10.3465  -19.9282   17.9002 N   0  0  0  0  0  0  0  0  0  0  0  0
   11.9072  -16.6627   21.2743 C   0  0  0  0  0  0  0  0  0  0  0  0
   13.0236  -16.7753   21.8404 O   0  0  0  0  0  0  0  0  0  0  0  0
    9.5818  -15.0279   23.7007 C   0  0  0  0  0  0  0  0  0  0  0  0
   10.8952  -15.7280   23.3890 C   0  0  2  0  0  0  0  0  0  0  0  0
   10.8079  -16.1745   22.0117 N   0  0  0  0  0  0  0  0  0  0  0  0
   11.1214  -16.8649   24.3187 C   0  0  0  0  0  0  0  0  0  0  0  0
   11.6472  -16.5576   25.5672 O   0  0  0  0  0  0  0  0  0  0  0  0
   10.8473  -18.0377   23.9807 O   0  0  0  0  0  0  0  0  0  0  0  0
  2  1  1  1
  2  4  1  0
  3  2  1  0
  4  5  1  6
  6  8  1  0
  6  4  1  0
  7  6  2  0
  9  8  1  0
  9 16  1  0
  9 10  1  1
 11 10  1  0
 11 15  1  0
 12 11  2  0
 13 12  1  0
 13 14  1  0
 14 15  2  0
 16 20  1  0
 17 16  2  0
 19 21  1  0
 19 18  1  1
 20 19  1  0
 21 22  1  0
 23 21  2  0
M  END
$$$$
