THA.pdb
     RDKit          3D

 23 23  0  0  1  0  0  0  0  0999 V2000
    8.3461  -12.6680   19.8211 C   0  0  0  0  0  0  0  0  0  0  0  0
    7.7874  -13.3621   18.6138 C   0  0  1  0  0  0  0  0  0  0  0  0
    6.8855  -12.5738   17.9417 O   0  0  0  0  0  0  0  0  0  0  0  0
    8.9160  -13.7768   17.6898 C   0  0  2  0  0  0  0  0  0  0  0  0
    8.3238  -14.3936   16.5279 N   0  0  0  0  0  0  0  0  0  0  0  0
    9.8569  -14.7166   18.3352 C   0  0  0  0  0  0  0  0  0  0  0  0
    9.6617  -15.9550   18.3714 O   0  0  0  0  0  0  0  0  0  0  0  0
   11.0414  -14.2337   18.9508 N   0  0  0  0  0  0  0  0  0  0  0  0
   11.9664  -15.0319   19.6797 C   0  0  1  0  0  0  0  0  0  0  0  0
   13.2966  -14.3560   19.7496 C   0  0  0  0  0  0  0  0  0  0  0  0
   14.1596  -14.6872   18.5911 C   0  0  0  0  0  0  0  0  0  0  0  0
   13.9298  -15.6500   17.6441 C   0  0  0  0  0  0  0  0  0  0  0  0
   14.9631  -15.5991   16.7876 N   0  0  0  0  0  0  0  0  0  0  0  0
   15.8308  -14.6433   17.1600 C   0  0  0  0  0  0  0  0  0  0  0  0
   15.3252  -14.0865   18.2746 N   0  0  0  0  0  0  0  0  0  0  0  0
   11.4662  -15.4732   20.9979 C   0  0  0  0  0  0  0  0  0  0  0  0
   11.0871  -14.6079   21.8268 O   0  0  0  0  0  0  0  0  0  0  0  0
   10.1884  -18.6500   22.3054 C   0  0  0  0  0  0  0  0  0  0  0  0
   10.8650  -17.3220   22.6073 C   0  0  2  0  0  0  0  0  0  0  0  0
   11.4028  -16.8379   21.3502 N   0  0  0  0  0  0  0  0  0  0  0  0
   11.9312  -17.4924   23.6282 C   0  0  0  0  0  0  0  0  0  0  0  0
   11.5190  -17.7997   24.9187 O   0  0  0  0  0  0  0  0  0  0  0  0
   13.1383  -17.3627   23.3268 O   0  0  0  0  0  0  0  0  0  0  0  0
  2  1  1  1
  2  4  1  0
  3  2  1  0
  4  5  1  6
  6  8  1  0
  6  4  1  0
  7  6  2  0
  9  8  1  0
  9 16  1  0
  9 10  1  1
 11 10  1  0
 11 15  1  0
 12 11  2  0
 13 12  1  0
 13 14  1  0
 14 15  2  0
 16 20  1  0
 17 16  2  0
 19 21  1  0
 19 18  1  6
 20 19  1  0
 21 22  1  0
 23 21  2  0
M  END
$$$$
