THA.pdb
     RDKit          3D

 23 23  0  0  1  0  0  0  0  0999 V2000
   11.3029  -14.9953   19.5829 C   0  0  0  0  0  0  0  0  0  0  0  0
   10.6795  -13.7391   19.0491 C   0  0  1  0  0  0  0  0  0  0  0  0
   11.2817  -13.3226   17.8870 O   0  0  0  0  0  0  0  0  0  0  0  0
    9.1955  -13.9555   18.8253 C   0  0  2  0  0  0  0  0  0  0  0  0
    8.6293  -12.6960   18.4081 N   0  0  0  0  0  0  0  0  0  0  0  0
    8.5066  -14.4402   20.0401 C   0  0  0  0  0  0  0  0  0  0  0  0
    8.0943  -13.6698   20.9399 O   0  0  0  0  0  0  0  0  0  0  0  0
    8.2853  -15.8293   20.2313 N   0  0  0  0  0  0  0  0  0  0  0  0
    7.5790  -16.4004   21.3263 C   0  0  1  0  0  0  0  0  0  0  0  0
    7.1981  -17.8122   21.0219 C   0  0  0  0  0  0  0  0  0  0  0  0
    6.5282  -18.4753   22.1656 C   0  0  0  0  0  0  0  0  0  0  0  0
    6.1458  -17.8918   23.3446 C   0  0  0  0  0  0  0  0  0  0  0  0
    5.5789  -18.8588   24.0843 N   0  0  0  0  0  0  0  0  0  0  0  0
    5.5908  -20.0244   23.4163 C   0  0  0  0  0  0  0  0  0  0  0  0
    6.1791  -19.7766   22.2329 N   0  0  0  0  0  0  0  0  0  0  0  0
    8.2661  -16.2485   22.6253 C   0  0  0  0  0  0  0  0  0  0  0  0
    9.4948  -16.5025   22.6983 O   0  0  0  0  0  0  0  0  0  0  0  0
    7.3192  -14.6091   25.8139 C   0  0  0  0  0  0  0  0  0  0  0  0
    8.2307  -15.5591   25.0529 C   0  0  2  0  0  0  0  0  0  0  0  0
    7.5807  -15.8267   23.7842 N   0  0  0  0  0  0  0  0  0  0  0  0
    8.4554  -16.8081   25.8258 C   0  0  0  0  0  0  0  0  0  0  0  0
    7.9780  -17.9860   25.2650 O   0  0  0  0  0  0  0  0  0  0  0  0
    9.0476  -16.7862   26.9275 O   0  0  0  0  0  0  0  0  0  0  0  0
  2  1  1  6
  2  4  1  0
  3  2  1  0
  4  5  1  1
  6  8  1  0
  6  4  1  0
  7  6  2  0
  9  8  1  0
  9 16  1  0
  9 10  1  6
 11 10  1  0
 11 15  1  0
 12 11  2  0
 13 12  1  0
 13 14  1  0
 14 15  2  0
 16 20  1  0
 17 16  2  0
 19 21  1  0
 19 18  1  1
 20 19  1  0
 21 22  1  0
 23 21  2  0
M  END
$$$$
