THA.pdb
     RDKit          3D

 23 23  0  0  1  0  0  0  0  0999 V2000
    8.2626  -18.3302   18.8935 C   0  0  0  0  0  0  0  0  0  0  0  0
    8.5092  -17.8106   20.2795 C   0  0  1  0  0  0  0  0  0  0  0  0
    9.3434  -18.6350   20.9944 O   0  0  0  0  0  0  0  0  0  0  0  0
    9.0858  -16.4099   20.2094 C   0  0  2  0  0  0  0  0  0  0  0  0
   10.3330  -16.4875   19.4886 N   0  0  0  0  0  0  0  0  0  0  0  0
    9.3127  -15.8258   21.5482 C   0  0  0  0  0  0  0  0  0  0  0  0
   10.4302  -15.8459   22.1173 O   0  0  0  0  0  0  0  0  0  0  0  0
    8.2444  -15.2082   22.2500 N   0  0  0  0  0  0  0  0  0  0  0  0
    8.3167  -14.7249   23.5862 C   0  0  1  0  0  0  0  0  0  0  0  0
    7.2179  -13.7474   23.8474 C   0  0  0  0  0  0  0  0  0  0  0  0
    7.1742  -13.3124   25.2635 C   0  0  0  0  0  0  0  0  0  0  0  0
    6.1202  -13.4383   26.1294 C   0  0  0  0  0  0  0  0  0  0  0  0
    6.5212  -12.9147   27.2994 N   0  0  0  0  0  0  0  0  0  0  0  0
    7.7837  -12.4661   27.2012 C   0  0  0  0  0  0  0  0  0  0  0  0
    8.1775  -12.7165   25.9402 N   0  0  0  0  0  0  0  0  0  0  0  0
    8.4023  -15.7922   24.6040 C   0  0  0  0  0  0  0  0  0  0  0  0
    7.4027  -16.5280   24.8013 O   0  0  0  0  0  0  0  0  0  0  0  0
   11.0243  -17.7419   26.1073 C   0  0  0  0  0  0  0  0  0  0  0  0
    9.7034  -17.0368   26.3727 C   0  0  2  0  0  0  0  0  0  0  0  0
    9.5745  -16.0071   25.3593 N   0  0  0  0  0  0  0  0  0  0  0  0
    9.6775  -16.4615   27.7425 C   0  0  0  0  0  0  0  0  0  0  0  0
    9.7005  -17.3618   28.8002 O   0  0  0  0  0  0  0  0  0  0  0  0
    9.6370  -15.2240   27.9208 O   0  0  0  0  0  0  0  0  0  0  0  0
  2  1  1  6
  2  4  1  0
  3  2  1  0
  4  5  1  1
  6  8  1  0
  6  4  1  0
  7  6  2  0
  9  8  1  0
  9 16  1  0
  9 10  1  1
 11 10  1  0
 11 15  1  0
 12 11  2  0
 13 12  1  0
 13 14  1  0
 14 15  2  0
 16 20  1  0
 17 16  2  0
 19 21  1  0
 19 18  1  6
 20 19  1  0
 21 22  1  0
 23 21  2  0
M  END
$$$$
