THA.pdb
     RDKit          3D

 23 23  0  0  1  0  0  0  0  0999 V2000
    7.7557  -12.1847   18.0719 C   0  0  0  0  0  0  0  0  0  0  0  0
    8.0085  -13.5609   18.6138 C   0  0  1  0  0  0  0  0  0  0  0  0
    8.5024  -14.4074   17.6514 O   0  0  0  0  0  0  0  0  0  0  0  0
    8.9640  -13.4844   19.7887 C   0  0  2  0  0  0  0  0  0  0  0  0
   10.2384  -13.0328   19.2855 N   0  0  0  0  0  0  0  0  0  0  0  0
    9.1240  -14.7857   20.4714 C   0  0  0  0  0  0  0  0  0  0  0  0
    8.1689  -15.3879   21.0174 O   0  0  0  0  0  0  0  0  0  0  0  0
   10.3974  -15.4101   20.5323 N   0  0  0  0  0  0  0  0  0  0  0  0
   10.6706  -16.6455   21.1829 C   0  0  1  0  0  0  0  0  0  0  0  0
   11.5614  -17.4948   20.3366 C   0  0  0  0  0  0  0  0  0  0  0  0
   10.8537  -18.0618   19.1644 C   0  0  0  0  0  0  0  0  0  0  0  0
    9.5475  -18.4714   19.1123 C   0  0  0  0  0  0  0  0  0  0  0  0
    9.3334  -18.9107   17.8614 N   0  0  0  0  0  0  0  0  0  0  0  0
   10.4528  -18.7929   17.1278 C   0  0  0  0  0  0  0  0  0  0  0  0
   11.3853  -18.2678   17.9418 N   0  0  0  0  0  0  0  0  0  0  0  0
   11.1536  -16.4960   22.5711 C   0  0  0  0  0  0  0  0  0  0  0  0
   12.2164  -15.8588   22.7814 O   0  0  0  0  0  0  0  0  0  0  0  0
    9.6898  -16.6437   25.8836 C   0  0  0  0  0  0  0  0  0  0  0  0
   10.9125  -16.9663   25.0390 C   0  0  2  0  0  0  0  0  0  0  0  0
   10.4547  -17.0485   23.6651 N   0  0  0  0  0  0  0  0  0  0  0  0
   11.5405  -18.2378   25.4826 C   0  0  0  0  0  0  0  0  0  0  0  0
   12.2363  -18.2065   26.6845 O   0  0  0  0  0  0  0  0  0  0  0  0
   11.4398  -19.2794   24.7973 O   0  0  0  0  0  0  0  0  0  0  0  0
  2  1  1  6
  2  4  1  0
  3  2  1  0
  4  5  1  6
  6  8  1  0
  6  4  1  0
  7  6  2  0
  9  8  1  0
  9 16  1  0
  9 10  1  6
 11 10  1  0
 11 15  1  0
 12 11  2  0
 13 12  1  0
 13 14  1  0
 14 15  2  0
 16 20  1  0
 17 16  2  0
 19 21  1  0
 19 18  1  1
 20 19  1  0
 21 22  1  0
 23 21  2  0
M  END
$$$$
