THA.pdb
     RDKit          3D

 23 23  0  0  1  0  0  0  0  0999 V2000
    9.6955  -19.3808   20.5190 C   0  0  0  0  0  0  0  0  0  0  0  0
   10.7968  -18.9234   19.6081 C   0  0  1  0  0  0  0  0  0  0  0  0
   11.2060  -19.9218   18.7581 O   0  0  0  0  0  0  0  0  0  0  0  0
   10.3416  -17.7122   18.8175 C   0  0  2  0  0  0  0  0  0  0  0  0
   11.2827  -17.5145   17.7423 N   0  0  0  0  0  0  0  0  0  0  0  0
   10.2630  -16.4927   19.6494 C   0  0  0  0  0  0  0  0  0  0  0  0
   11.2471  -15.7404   19.8459 O   0  0  0  0  0  0  0  0  0  0  0  0
    9.0392  -16.1262   20.2683 N   0  0  0  0  0  0  0  0  0  0  0  0
    8.8496  -14.9772   21.0855 C   0  0  1  0  0  0  0  0  0  0  0  0
    7.5957  -14.2634   20.6990 C   0  0  0  0  0  0  0  0  0  0  0  0
    7.5800  -13.8857   19.2660 C   0  0  0  0  0  0  0  0  0  0  0  0
    8.0087  -12.7032   18.7232 C   0  0  0  0  0  0  0  0  0  0  0  0
    7.8117  -12.7964   17.3980 N   0  0  0  0  0  0  0  0  0  0  0  0
    7.2769  -13.9895   17.0888 C   0  0  0  0  0  0  0  0  0  0  0  0
    7.1380  -14.6542   18.2492 N   0  0  0  0  0  0  0  0  0  0  0  0
    8.9416  -15.2522   22.5342 C   0  0  0  0  0  0  0  0  0  0  0  0
    8.7521  -14.3119   23.3463 O   0  0  0  0  0  0  0  0  0  0  0  0
    9.2393  -18.3594   24.5658 C   0  0  0  0  0  0  0  0  0  0  0  0
    9.3736  -16.8500   24.4395 C   0  0  2  0  0  0  0  0  0  0  0  0
    9.2359  -16.5402   23.0292 N   0  0  0  0  0  0  0  0  0  0  0  0
   10.6809  -16.3893   24.9750 C   0  0  0  0  0  0  0  0  0  0  0  0
   10.8489  -16.4481   26.3527 O   0  0  0  0  0  0  0  0  0  0  0  0
   11.5786  -15.9709   24.2110 O   0  0  0  0  0  0  0  0  0  0  0  0
  2  1  1  6
  2  4  1  0
  3  2  1  0
  4  5  1  6
  6  8  1  0
  6  4  1  0
  7  6  2  0
  9  8  1  0
  9 16  1  0
  9 10  1  1
 11 10  1  0
 11 15  1  0
 12 11  2  0
 13 12  1  0
 13 14  1  0
 14 15  2  0
 16 20  1  0
 17 16  2  0
 19 21  1  0
 19 18  1  6
 20 19  1  0
 21 22  1  0
 23 21  2  0
M  END
$$$$
