THA.pdb
     RDKit          3D

 23 23  0  0  1  0  0  0  0  0999 V2000
    8.0552  -11.5884   19.6726 C   0  0  0  0  0  0  0  0  0  0  0  0
    8.5307  -12.9040   20.2155 C   0  0  1  0  0  0  0  0  0  0  0  0
    7.5832  -13.5028   21.0095 O   0  0  0  0  0  0  0  0  0  0  0  0
    8.9180  -13.8229   19.0732 C   0  0  2  0  0  0  0  0  0  0  0  0
    7.7408  -14.0361   18.2670 N   0  0  0  0  0  0  0  0  0  0  0  0
    9.4464  -15.1196   19.5467 C   0  0  0  0  0  0  0  0  0  0  0  0
    8.7470  -16.1594   19.5996 O   0  0  0  0  0  0  0  0  0  0  0  0
   10.7975  -15.2310   19.9680 N   0  0  0  0  0  0  0  0  0  0  0  0
   11.3675  -16.3777   20.5879 C   0  0  1  0  0  0  0  0  0  0  0  0
   12.7004  -16.6863   19.9886 C   0  0  0  0  0  0  0  0  0  0  0  0
   12.5862  -17.4164   18.7040 C   0  0  0  0  0  0  0  0  0  0  0  0
   11.4683  -18.0308   18.2046 C   0  0  0  0  0  0  0  0  0  0  0  0
   11.8187  -18.5604   17.0212 N   0  0  0  0  0  0  0  0  0  0  0  0
   13.1109  -18.3026   16.7592 C   0  0  0  0  0  0  0  0  0  0  0  0
   13.5754  -17.5958   17.8044 N   0  0  0  0  0  0  0  0  0  0  0  0
   11.3930  -16.3088   22.0635 C   0  0  0  0  0  0  0  0  0  0  0  0
   12.1814  -15.5054   22.6226 O   0  0  0  0  0  0  0  0  0  0  0  0
    9.2246  -17.7451   24.7320 C   0  0  0  0  0  0  0  0  0  0  0  0
   10.5089  -17.0498   24.3083 C   0  0  2  0  0  0  0  0  0  0  0  0
   10.5573  -17.1195   22.8603 N   0  0  0  0  0  0  0  0  0  0  0  0
   11.6918  -17.7026   24.9266 C   0  0  0  0  0  0  0  0  0  0  0  0
   11.9158  -17.4462   26.2734 O   0  0  0  0  0  0  0  0  0  0  0  0
   12.4420  -18.4452   24.2554 O   0  0  0  0  0  0  0  0  0  0  0  0
  2  1  1  6
  2  4  1  0
  3  2  1  0
  4  5  1  6
  6  8  1  0
  6  4  1  0
  7  6  2  0
  9  8  1  0
  9 16  1  0
  9 10  1  6
 11 10  1  0
 11 15  1  0
 12 11  2  0
 13 12  1  0
 13 14  1  0
 14 15  2  0
 16 20  1  0
 17 16  2  0
 19 21  1  0
 19 18  1  1
 20 19  1  0
 21 22  1  0
 23 21  2  0
M  END
$$$$
