THA.pdb
     RDKit          3D

 23 23  0  0  1  0  0  0  0  0999 V2000
    7.4860  -12.3751   18.5048 C   0  0  0  0  0  0  0  0  0  0  0  0
    8.5638  -13.2062   19.1368 C   0  0  1  0  0  0  0  0  0  0  0  0
    8.0493  -14.1348   20.0084 O   0  0  0  0  0  0  0  0  0  0  0  0
    9.3837  -13.8911   18.0607 C   0  0  2  0  0  0  0  0  0  0  0  0
    8.4784  -14.6727   17.2541 N   0  0  0  0  0  0  0  0  0  0  0  0
   10.4376  -14.7618   18.6231 C   0  0  0  0  0  0  0  0  0  0  0  0
   10.3512  -16.0130   18.6327 O   0  0  0  0  0  0  0  0  0  0  0  0
   11.6108  -14.1936   19.1853 N   0  0  0  0  0  0  0  0  0  0  0  0
   12.6778  -14.9330   19.7674 C   0  0  1  0  0  0  0  0  0  0  0  0
   13.9678  -14.1959   19.6138 C   0  0  0  0  0  0  0  0  0  0  0  0
   14.6211  -14.4668   18.3114 C   0  0  0  0  0  0  0  0  0  0  0  0
   14.2591  -15.4158   17.3923 C   0  0  0  0  0  0  0  0  0  0  0  0
   15.1206  -15.3053   16.3680 N   0  0  0  0  0  0  0  0  0  0  0  0
   16.0077  -14.3254   16.6084 C   0  0  0  0  0  0  0  0  0  0  0  0
   15.6904  -13.8142   17.8109 N   0  0  0  0  0  0  0  0  0  0  0  0
   12.4162  -15.3684   21.1548 C   0  0  0  0  0  0  0  0  0  0  0  0
   13.3166  -15.9820   21.7811 O   0  0  0  0  0  0  0  0  0  0  0  0
    9.5697  -14.8664   23.5268 C   0  0  0  0  0  0  0  0  0  0  0  0
   10.8659  -15.5596   23.1372 C   0  0  2  0  0  0  0  0  0  0  0  0
   11.1845  -15.1140   21.7941 N   0  0  0  0  0  0  0  0  0  0  0  0
   10.7151  -17.0365   23.2014 C   0  0  0  0  0  0  0  0  0  0  0  0
   10.7718  -17.6174   24.4620 O   0  0  0  0  0  0  0  0  0  0  0  0
   10.5459  -17.7125   22.1626 O   0  0  0  0  0  0  0  0  0  0  0  0
  2  1  1  6
  2  4  1  0
  3  2  1  0
  4  5  1  1
  6  8  1  0
  6  4  1  0
  7  6  2  0
  9  8  1  0
  9 16  1  0
  9 10  1  1
 11 10  1  0
 11 15  1  0
 12 11  2  0
 13 12  1  0
 13 14  1  0
 14 15  2  0
 16 20  1  0
 17 16  2  0
 19 21  1  0
 19 18  1  6
 20 19  1  0
 21 22  1  0
 23 21  2  0
M  END
$$$$
