THA.pdb
     RDKit          3D

 23 23  0  0  1  0  0  0  0  0999 V2000
    7.3854  -13.1045   19.0436 C   0  0  0  0  0  0  0  0  0  0  0  0
    7.4700  -14.0252   20.2254 C   0  0  1  0  0  0  0  0  0  0  0  0
    7.6627  -15.3307   19.8446 O   0  0  0  0  0  0  0  0  0  0  0  0
    8.5852  -13.5759   21.1495 C   0  0  2  0  0  0  0  0  0  0  0  0
    9.8209  -13.6478   20.4086 N   0  0  0  0  0  0  0  0  0  0  0  0
    8.6783  -14.4084   22.3674 C   0  0  0  0  0  0  0  0  0  0  0  0
    7.7410  -14.5087   23.1946 O   0  0  0  0  0  0  0  0  0  0  0  0
    9.8633  -15.1388   22.6461 N   0  0  0  0  0  0  0  0  0  0  0  0
   10.0520  -15.9906   23.7699 C   0  0  1  0  0  0  0  0  0  0  0  0
   10.9707  -17.1160   23.4229 C   0  0  0  0  0  0  0  0  0  0  0  0
   10.3431  -18.0939   22.5030 C   0  0  0  0  0  0  0  0  0  0  0  0
    9.0093  -18.2106   22.2133 C   0  0  0  0  0  0  0  0  0  0  0  0
    8.8948  -19.2211   21.3361 N   0  0  0  0  0  0  0  0  0  0  0  0
   10.1031  -19.7420   21.0646 C   0  0  0  0  0  0  0  0  0  0  0  0
   10.9902  -19.0389   21.7902 N   0  0  0  0  0  0  0  0  0  0  0  0
   10.4439  -15.2762   25.0023 C   0  0  0  0  0  0  0  0  0  0  0  0
   11.3507  -14.4081   24.9414 O   0  0  0  0  0  0  0  0  0  0  0  0
    9.2469  -13.7629   27.7157 C   0  0  0  0  0  0  0  0  0  0  0  0
   10.2190  -14.9102   27.4893 C   0  0  2  0  0  0  0  0  0  0  0  0
    9.8283  -15.5422   26.2436 N   0  0  0  0  0  0  0  0  0  0  0  0
   10.1787  -15.8684   28.6242 C   0  0  0  0  0  0  0  0  0  0  0  0
   10.6840  -15.4221   29.8388 O   0  0  0  0  0  0  0  0  0  0  0  0
    9.7096  -17.0190   28.4795 O   0  0  0  0  0  0  0  0  0  0  0  0
  2  1  1  6
  2  4  1  0
  3  2  1  0
  4  5  1  6
  6  8  1  0
  6  4  1  0
  7  6  2  0
  9  8  1  0
  9 16  1  0
  9 10  1  6
 11 10  1  0
 11 15  1  0
 12 11  2  0
 13 12  1  0
 13 14  1  0
 14 15  2  0
 16 20  1  0
 17 16  2  0
 19 21  1  0
 19 18  1  1
 20 19  1  0
 21 22  1  0
 23 21  2  0
M  END
$$$$
