THA.pdb
     RDKit          3D

 23 23  0  0  1  0  0  0  0  0999 V2000
    7.6238  -12.4157   20.1646 C   0  0  0  0  0  0  0  0  0  0  0  0
    8.2300  -13.7381   19.7964 C   0  0  1  0  0  0  0  0  0  0  0  0
    8.7304  -13.7336   18.5173 O   0  0  0  0  0  0  0  0  0  0  0  0
    9.3197  -14.0989   20.7872 C   0  0  2  0  0  0  0  0  0  0  0  0
    9.9803  -15.2838   20.2965 N   0  0  0  0  0  0  0  0  0  0  0  0
    8.7890  -14.3433   22.1450 C   0  0  0  0  0  0  0  0  0  0  0  0
    8.1519  -13.4774   22.7911 O   0  0  0  0  0  0  0  0  0  0  0  0
    8.9901  -15.5987   22.7768 N   0  0  0  0  0  0  0  0  0  0  0  0
    8.5204  -15.9440   24.0746 C   0  0  1  0  0  0  0  0  0  0  0  0
    8.0810  -17.3712   24.1075 C   0  0  0  0  0  0  0  0  0  0  0  0
    7.0126  -17.6557   23.1205 C   0  0  0  0  0  0  0  0  0  0  0  0
    5.7380  -17.1538   23.1218 C   0  0  0  0  0  0  0  0  0  0  0  0
    5.1204  -17.6741   22.0487 N   0  0  0  0  0  0  0  0  0  0  0  0
    5.9567  -18.4817   21.3753 C   0  0  0  0  0  0  0  0  0  0  0  0
    7.1222  -18.4632   22.0455 N   0  0  0  0  0  0  0  0  0  0  0  0
    9.4589  -15.5973   25.1616 C   0  0  0  0  0  0  0  0  0  0  0  0
   10.6776  -15.8730   25.0260 O   0  0  0  0  0  0  0  0  0  0  0  0
    9.2378  -13.4001   28.1275 C   0  0  0  0  0  0  0  0  0  0  0  0
    9.9137  -14.5633   27.4186 C   0  0  2  0  0  0  0  0  0  0  0  0
    9.0241  -14.9659   26.3461 N   0  0  0  0  0  0  0  0  0  0  0  0
   10.1706  -15.6807   28.3638 C   0  0  0  0  0  0  0  0  0  0  0  0
   11.1696  -15.4842   29.3089 O   0  0  0  0  0  0  0  0  0  0  0  0
    9.5116  -16.7421   28.3008 O   0  0  0  0  0  0  0  0  0  0  0  0
  2  1  1  1
  2  4  1  0
  3  2  1  0
  4  5  1  6
  6  8  1  0
  6  4  1  0
  7  6  2  0
  9  8  1  0
  9 16  1  0
  9 10  1  6
 11 10  1  0
 11 15  1  0
 12 11  2  0
 13 12  1  0
 13 14  1  0
 14 15  2  0
 16 20  1  0
 17 16  2  0
 19 21  1  0
 19 18  1  1
 20 19  1  0
 21 22  1  0
 23 21  2  0
M  END
$$$$
