THA.pdb
     RDKit          3D

 23 23  0  0  1  0  0  0  0  0999 V2000
   10.1206  -22.9496   21.5675 C   0  0  0  0  0  0  0  0  0  0  0  0
    8.6298  -23.0604   21.6968 C   0  0  1  0  0  0  0  0  0  0  0  0
    7.9947  -22.8482   20.4975 O   0  0  0  0  0  0  0  0  0  0  0  0
    8.2609  -24.4213   22.2547 C   0  0  2  0  0  0  0  0  0  0  0  0
    6.9163  -24.7187   21.8251 N   0  0  0  0  0  0  0  0  0  0  0  0
    8.3405  -24.4664   23.7301 C   0  0  0  0  0  0  0  0  0  0  0  0
    7.4334  -24.0210   24.4729 O   0  0  0  0  0  0  0  0  0  0  0  0
    9.4764  -25.0297   24.3686 N   0  0  0  0  0  0  0  0  0  0  0  0
    9.6942  -25.0545   25.7744 C   0  0  1  0  0  0  0  0  0  0  0  0
   10.3742  -26.3227   26.1745 C   0  0  0  0  0  0  0  0  0  0  0  0
    9.4122  -27.4137   26.4586 C   0  0  0  0  0  0  0  0  0  0  0  0
    8.0451  -27.3341   26.4214 C   0  0  0  0  0  0  0  0  0  0  0  0
    7.5816  -28.5527   26.7434 N   0  0  0  0  0  0  0  0  0  0  0  0
    8.6031  -29.3925   26.9809 C   0  0  0  0  0  0  0  0  0  0  0  0
    9.7289  -28.6792   26.8022 N   0  0  0  0  0  0  0  0  0  0  0  0
   10.3614  -23.8445   26.2972 C   0  0  0  0  0  0  0  0  0  0  0  0
   10.5443  -23.7364   27.5360 O   0  0  0  0  0  0  0  0  0  0  0  0
   10.5000  -20.7016   26.5125 C   0  0  0  0  0  0  0  0  0  0  0  0
   11.5274  -21.6414   25.9014 C   0  0  2  0  0  0  0  0  0  0  0  0
   10.7981  -22.8089   25.4444 N   0  0  0  0  0  0  0  0  0  0  0  0
   12.5700  -22.0034   26.8964 C   0  0  0  0  0  0  0  0  0  0  0  0
   13.4205  -20.9860   27.3104 O   0  0  0  0  0  0  0  0  0  0  0  0
   12.6663  -23.1719   27.3324 O   0  0  0  0  0  0  0  0  0  0  0  0
  2  1  1  6
  2  4  1  0
  3  2  1  0
  4  5  1  1
  6  8  1  0
  6  4  1  0
  7  6  2  0
  9  8  1  0
  9 16  1  0
  9 10  1  6
 11 10  1  0
 11 15  1  0
 12 11  2  0
 13 12  1  0
 13 14  1  0
 14 15  2  0
 16 20  1  0
 17 16  2  0
 19 21  1  0
 19 18  1  1
 20 19  1  0
 21 22  1  0
 23 21  2  0
M  END
$$$$
