THA.pdb
     RDKit          3D

 23 23  0  0  1  0  0  0  0  0999 V2000
    7.8911  -13.0071   19.2336 C   0  0  0  0  0  0  0  0  0  0  0  0
    7.3933  -13.4024   17.8744 C   0  0  1  0  0  0  0  0  0  0  0  0
    7.0684  -12.3084   17.1101 O   0  0  0  0  0  0  0  0  0  0  0  0
    8.4369  -14.2467   17.1691 C   0  0  2  0  0  0  0  0  0  0  0  0
    7.9499  -14.5206   15.8391 N   0  0  0  0  0  0  0  0  0  0  0  0
    8.7089  -15.5152   17.8776 C   0  0  0  0  0  0  0  0  0  0  0  0
    8.4809  -16.6390   17.3696 O   0  0  0  0  0  0  0  0  0  0  0  0
    9.2504  -15.5001   19.1898 N   0  0  0  0  0  0  0  0  0  0  0  0
    9.9456  -16.5819   19.7986 C   0  0  1  0  0  0  0  0  0  0  0  0
   10.9528  -17.1519   18.8542 C   0  0  0  0  0  0  0  0  0  0  0  0
   11.5504  -18.4108   19.3587 C   0  0  0  0  0  0  0  0  0  0  0  0
   10.8976  -19.4323   19.9965 C   0  0  0  0  0  0  0  0  0  0  0  0
   11.8232  -20.3660   20.2711 N   0  0  0  0  0  0  0  0  0  0  0  0
   13.0294  -19.9704   19.8310 C   0  0  0  0  0  0  0  0  0  0  0  0
   12.8498  -18.7621   19.2693 N   0  0  0  0  0  0  0  0  0  0  0  0
   10.5076  -16.2596   21.1263 C   0  0  0  0  0  0  0  0  0  0  0  0
   11.4215  -15.4009   21.2093 O   0  0  0  0  0  0  0  0  0  0  0  0
    9.4800  -17.1012   24.6050 C   0  0  0  0  0  0  0  0  0  0  0  0
   10.5130  -16.5526   23.6332 C   0  0  2  0  0  0  0  0  0  0  0  0
   10.0463  -16.8892   22.3017 N   0  0  0  0  0  0  0  0  0  0  0  0
   11.8540  -17.1320   23.9048 C   0  0  0  0  0  0  0  0  0  0  0  0
   12.5334  -16.6451   25.0143 O   0  0  0  0  0  0  0  0  0  0  0  0
   12.3365  -18.0154   23.1621 O   0  0  0  0  0  0  0  0  0  0  0  0
  2  1  1  1
  2  4  1  0
  3  2  1  0
  4  5  1  6
  6  8  1  0
  6  4  1  0
  7  6  2  0
  9  8  1  0
  9 16  1  0
  9 10  1  6
 11 10  1  0
 11 15  1  0
 12 11  2  0
 13 12  1  0
 13 14  1  0
 14 15  2  0
 16 20  1  0
 17 16  2  0
 19 21  1  0
 19 18  1  1
 20 19  1  0
 21 22  1  0
 23 21  2  0
M  END
$$$$
