PKD.pdb
     RDKit          3D

 25 25  0  0  1  0  0  0  0  0999 V2000
    7.9136  -14.9372   18.6557 N   0  0  0  0  0  0  0  0  0  0  0  0
    7.9265  -13.9805   17.5323 C   0  0  0  0  0  0  0  0  0  0  0  0
    7.3170  -12.7215   18.1648 C   0  0  0  0  0  0  0  0  0  0  0  0
    7.5087  -12.9136   19.6416 C   0  0  0  0  0  0  0  0  0  0  0  0
    8.4971  -14.0897   19.6797 C   0  0  1  0  0  0  0  0  0  0  0  0
    8.4005  -14.6663   21.0237 C   0  0  0  0  0  0  0  0  0  0  0  0
    8.8009  -14.0848   22.0614 O   0  0  0  0  0  0  0  0  0  0  0  0
    7.8203  -15.9539   21.1626 N   0  0  0  0  0  0  0  0  0  0  0  0
    7.8045  -16.6185   22.4547 C   0  0  1  0  0  0  0  0  0  0  0  0
    6.8925  -17.8147   22.3330 C   0  0  0  0  0  0  0  0  0  0  0  0
    6.9225  -18.7417   23.5079 C   0  0  0  0  0  0  0  0  0  0  0  0
    6.0832  -19.9733   23.2992 C   0  0  0  0  0  0  0  0  0  0  0  0
    6.0518  -20.8410   24.5262 C   0  0  0  0  0  0  0  0  0  0  0  0
    5.2016  -22.0050   24.3184 N   0  0  0  0  0  0  0  0  0  0  0  0
    9.1648  -17.0693   22.8339 C   0  0  0  0  0  0  0  0  0  0  0  0
    9.8405  -17.7896   22.0597 O   0  0  0  0  0  0  0  0  0  0  0  0
    9.7468  -16.7060   24.0719 N   0  0  0  0  0  0  0  0  0  0  0  0
   11.0241  -17.3104   24.4586 C   0  0  1  0  0  0  0  0  0  0  0  0
   12.1589  -16.3564   24.3256 C   0  0  0  0  0  0  0  0  0  0  0  0
   13.1539  -16.6885   23.2893 C   0  0  0  0  0  0  0  0  0  0  0  0
   12.9591  -17.7301   22.6001 O   0  0  0  0  0  0  0  0  0  0  0  0
   10.9538  -17.8197   25.8425 C   0  0  0  0  0  0  0  0  0  0  0  0
   10.0238  -17.6161   26.6334 O   0  0  0  0  0  0  0  0  0  0  0  0
   14.2904  -15.9666   22.9966 O   0  0  0  0  0  0  0  0  0  0  0  0
   12.0315  -18.5979   26.2994 O   0  0  0  0  0  0  0  0  0  0  0  0
  1  2  1  0
  3  2  1  0
  4  5  1  0
  4  3  1  0
  5  1  1  0
  5  6  1  1
  7  6  2  0
  8  6  1  0
  9  8  1  0
 10 11  1  0
  9 10  1  6
 11 12  1  0
 12 13  1  0
 13 14  1  0
 15  9  1  0
 15 17  1  0
 16 15  2  0
 18 17  1  0
 18 22  1  0
 18 19  1  1
 20 19  1  0
 21 20  2  0
 22 25  1  0
 23 22  2  0
 24 20  1  0
M  END
$$$$
