PKD.pdb
     RDKit          3D

 25 25  0  0  1  0  0  0  0  0999 V2000
    7.3635  -15.0465   19.6630 N   0  0  0  0  0  0  0  0  0  0  0  0
    6.9673  -14.3480   18.4252 C   0  0  0  0  0  0  0  0  0  0  0  0
    7.0677  -12.8715   18.8335 C   0  0  0  0  0  0  0  0  0  0  0  0
    7.9785  -12.8738   20.0272 C   0  0  0  0  0  0  0  0  0  0  0  0
    8.5654  -14.2930   19.9716 C   0  0  1  0  0  0  0  0  0  0  0  0
    9.0900  -14.5751   21.3107 C   0  0  0  0  0  0  0  0  0  0  0  0
   10.1294  -14.0480   21.7768 O   0  0  0  0  0  0  0  0  0  0  0  0
    8.3840  -15.4944   22.1295 N   0  0  0  0  0  0  0  0  0  0  0  0
    8.9174  -15.8890   23.4222 C   0  0  1  0  0  0  0  0  0  0  0  0
    7.8902  -16.7784   24.0790 C   0  0  0  0  0  0  0  0  0  0  0  0
    8.3391  -17.4039   25.3627 C   0  0  0  0  0  0  0  0  0  0  0  0
    7.3251  -18.3606   25.9298 C   0  0  0  0  0  0  0  0  0  0  0  0
    7.8365  -19.0470   27.1654 C   0  0  0  0  0  0  0  0  0  0  0  0
    6.8130  -19.9063   27.7443 N   0  0  0  0  0  0  0  0  0  0  0  0
   10.1892  -16.6338   23.2642 C   0  0  0  0  0  0  0  0  0  0  0  0
   10.4186  -17.2972   22.2240 O   0  0  0  0  0  0  0  0  0  0  0  0
   11.1833  -16.6233   24.2716 N   0  0  0  0  0  0  0  0  0  0  0  0
   12.5246  -17.1160   23.9483 C   0  0  1  0  0  0  0  0  0  0  0  0
   13.2678  -16.1788   23.0625 C   0  0  0  0  0  0  0  0  0  0  0  0
   14.6524  -16.5690   22.7386 C   0  0  0  0  0  0  0  0  0  0  0  0
   15.5471  -15.6795   22.8176 O   0  0  0  0  0  0  0  0  0  0  0  0
   13.2949  -17.3587   25.1841 C   0  0  0  0  0  0  0  0  0  0  0  0
   14.4600  -17.7737   25.2311 O   0  0  0  0  0  0  0  0  0  0  0  0
   15.0711  -17.8232   22.3514 O   0  0  0  0  0  0  0  0  0  0  0  0
   12.6522  -17.0987   26.4068 O   0  0  0  0  0  0  0  0  0  0  0  0
  1  2  1  0
  3  2  1  0
  4  5  1  0
  4  3  1  0
  5  1  1  0
  5  6  1  1
  7  6  2  0
  8  6  1  0
  9  8  1  0
 10 11  1  0
  9 10  1  6
 11 12  1  0
 12 13  1  0
 13 14  1  0
 15  9  1  0
 15 17  1  0
 16 15  2  0
 18 17  1  0
 18 22  1  0
 18 19  1  6
 20 19  1  0
 21 20  2  0
 22 25  1  0
 23 22  2  0
 24 20  1  0
M  END
$$$$
