PKD.pdb
     RDKit          3D

 25 25  0  0  1  0  0  0  0  0999 V2000
    8.0261  -14.9439   19.0496 N   0  0  0  0  0  0  0  0  0  0  0  0
    8.2711  -13.8895   18.0469 C   0  0  0  0  0  0  0  0  0  0  0  0
    7.5670  -12.6747   18.6676 C   0  0  0  0  0  0  0  0  0  0  0  0
    7.4640  -13.0070   20.1282 C   0  0  0  0  0  0  0  0  0  0  0  0
    8.4099  -14.2126   20.2435 C   0  0  1  0  0  0  0  0  0  0  0  0
    8.0449  -14.9062   21.4819 C   0  0  0  0  0  0  0  0  0  0  0  0
    8.1401  -14.3913   22.6226 O   0  0  0  0  0  0  0  0  0  0  0  0
    7.5544  -16.2347   21.3889 N   0  0  0  0  0  0  0  0  0  0  0  0
    7.3325  -17.0230   22.5892 C   0  0  1  0  0  0  0  0  0  0  0  0
    6.3758  -18.1325   22.2269 C   0  0  0  0  0  0  0  0  0  0  0  0
    5.0018  -17.6714   21.8529 C   0  0  0  0  0  0  0  0  0  0  0  0
    4.1397  -18.7835   21.3190 C   0  0  0  0  0  0  0  0  0  0  0  0
    2.8173  -18.2729   20.8192 C   0  0  0  0  0  0  0  0  0  0  0  0
    2.0472  -19.3425   20.1997 N   0  0  0  0  0  0  0  0  0  0  0  0
    8.6035  -17.6058   23.0813 C   0  0  0  0  0  0  0  0  0  0  0  0
    9.5258  -17.8992   22.2825 O   0  0  0  0  0  0  0  0  0  0  0  0
    8.8220  -17.8495   24.4583 N   0  0  0  0  0  0  0  0  0  0  0  0
   10.1077  -18.4089   24.8833 C   0  0  1  0  0  0  0  0  0  0  0  0
   11.1571  -17.3622   25.0189 C   0  0  0  0  0  0  0  0  0  0  0  0
   12.4797  -17.8381   25.4645 C   0  0  0  0  0  0  0  0  0  0  0  0
   12.5119  -18.7390   26.3507 O   0  0  0  0  0  0  0  0  0  0  0  0
    9.9550  -19.1372   26.1584 C   0  0  0  0  0  0  0  0  0  0  0  0
    8.9502  -19.1127   26.8805 O   0  0  0  0  0  0  0  0  0  0  0  0
   13.6989  -17.3899   25.0051 O   0  0  0  0  0  0  0  0  0  0  0  0
   11.0399  -19.9211   26.5878 O   0  0  0  0  0  0  0  0  0  0  0  0
  1  2  1  0
  3  2  1  0
  4  5  1  0
  4  3  1  0
  5  1  1  0
  5  6  1  1
  7  6  2  0
  8  6  1  0
  9  8  1  0
 10 11  1  0
  9 10  1  6
 11 12  1  0
 12 13  1  0
 13 14  1  0
 15  9  1  0
 15 17  1  0
 16 15  2  0
 18 17  1  0
 18 22  1  0
 18 19  1  1
 20 19  1  0
 21 20  2  0
 22 25  1  0
 23 22  2  0
 24 20  1  0
M  END
$$$$
