PKD.pdb
     RDKit          3D

 25 25  0  0  1  0  0  0  0  0999 V2000
    7.2335  -15.0413   19.4253 N   0  0  0  0  0  0  0  0  0  0  0  0
    6.9852  -14.7891   17.9929 C   0  0  0  0  0  0  0  0  0  0  0  0
    7.4008  -13.3192   17.8403 C   0  0  0  0  0  0  0  0  0  0  0  0
    8.2996  -13.0599   19.0147 C   0  0  0  0  0  0  0  0  0  0  0  0
    8.5706  -14.4846   19.5234 C   0  0  1  0  0  0  0  0  0  0  0  0
    9.0337  -14.3473   20.9071 C   0  0  0  0  0  0  0  0  0  0  0  0
   10.1931  -13.9828   21.2206 O   0  0  0  0  0  0  0  0  0  0  0  0
    8.1213  -14.6410   21.9536 N   0  0  0  0  0  0  0  0  0  0  0  0
    8.4735  -14.3654   23.3362 C   0  0  1  0  0  0  0  0  0  0  0  0
    7.2410  -13.8166   24.0124 C   0  0  0  0  0  0  0  0  0  0  0  0
    7.4414  -13.4169   25.4409 C   0  0  0  0  0  0  0  0  0  0  0  0
    6.2038  -12.8235   26.0585 C   0  0  0  0  0  0  0  0  0  0  0  0
    6.4443  -12.3825   27.4751 C   0  0  0  0  0  0  0  0  0  0  0  0
    5.2121  -11.9055   28.0876 N   0  0  0  0  0  0  0  0  0  0  0  0
    8.9085  -15.6024   24.0274 C   0  0  0  0  0  0  0  0  0  0  0  0
    8.2114  -16.6447   23.9756 O   0  0  0  0  0  0  0  0  0  0  0  0
   10.1161  -15.6533   24.7638 N   0  0  0  0  0  0  0  0  0  0  0  0
   10.5159  -16.9199   25.3822 C   0  0  1  0  0  0  0  0  0  0  0  0
   11.9716  -17.1865   25.2232 C   0  0  0  0  0  0  0  0  0  0  0  0
   12.4637  -17.2353   23.8341 C   0  0  0  0  0  0  0  0  0  0  0  0
   11.8663  -18.0019   23.0258 O   0  0  0  0  0  0  0  0  0  0  0  0
   10.1555  -16.9294   26.8138 C   0  0  0  0  0  0  0  0  0  0  0  0
    9.6462  -15.9843   27.4297 O   0  0  0  0  0  0  0  0  0  0  0  0
   13.5254  -16.5196   23.3252 O   0  0  0  0  0  0  0  0  0  0  0  0
   10.4131  -18.1072   27.5364 O   0  0  0  0  0  0  0  0  0  0  0  0
  1  2  1  0
  3  2  1  0
  4  5  1  0
  4  3  1  0
  5  1  1  0
  5  6  1  1
  7  6  2  0
  8  6  1  0
  9  8  1  0
 10 11  1  0
  9 10  1  1
 11 12  1  0
 12 13  1  0
 13 14  1  0
 15  9  1  0
 15 17  1  0
 16 15  2  0
 18 17  1  0
 18 22  1  0
 18 19  1  1
 20 19  1  0
 21 20  2  0
 22 25  1  0
 23 22  2  0
 24 20  1  0
M  END
$$$$
