PKD.pdb
     RDKit          3D

 25 25  0  0  1  0  0  0  0  0999 V2000
    7.5196  -15.3003   19.3374 N   0  0  0  0  0  0  0  0  0  0  0  0
    7.1741  -14.6259   18.0712 C   0  0  0  0  0  0  0  0  0  0  0  0
    7.1237  -13.1492   18.4876 C   0  0  0  0  0  0  0  0  0  0  0  0
    7.9292  -13.0889   19.7533 C   0  0  0  0  0  0  0  0  0  0  0  0
    8.6285  -14.4573   19.7460 C   0  0  1  0  0  0  0  0  0  0  0  0
    9.0602  -14.7072   21.1241 C   0  0  0  0  0  0  0  0  0  0  0  0
    9.9988  -14.0890   21.6828 O   0  0  0  0  0  0  0  0  0  0  0  0
    8.3793  -15.7028   21.8718 N   0  0  0  0  0  0  0  0  0  0  0  0
    8.7559  -15.9756   23.2485 C   0  0  1  0  0  0  0  0  0  0  0  0
    7.6108  -16.7225   23.8874 C   0  0  0  0  0  0  0  0  0  0  0  0
    7.8888  -17.2216   25.2710 C   0  0  0  0  0  0  0  0  0  0  0  0
    6.9778  -18.3485   25.6773 C   0  0  0  0  0  0  0  0  0  0  0  0
    7.2012  -18.7584   27.1061 C   0  0  0  0  0  0  0  0  0  0  0  0
    6.4289  -19.9491   27.4325 N   0  0  0  0  0  0  0  0  0  0  0  0
    9.9825  -16.8059   23.3062 C   0  0  0  0  0  0  0  0  0  0  0  0
   10.0560  -17.8860   22.6716 O   0  0  0  0  0  0  0  0  0  0  0  0
   11.1065  -16.4136   24.0717 N   0  0  0  0  0  0  0  0  0  0  0  0
   12.2218  -17.3514   24.2243 C   0  0  1  0  0  0  0  0  0  0  0  0
   13.5384  -16.6576   24.2479 C   0  0  0  0  0  0  0  0  0  0  0  0
   13.9729  -16.0688   22.9678 C   0  0  0  0  0  0  0  0  0  0  0  0
   14.7564  -15.0778   23.0128 O   0  0  0  0  0  0  0  0  0  0  0  0
   12.0537  -18.1548   25.4513 C   0  0  0  0  0  0  0  0  0  0  0  0
   11.1876  -17.9684   26.3156 O   0  0  0  0  0  0  0  0  0  0  0  0
   13.6020  -16.4971   21.7118 O   0  0  0  0  0  0  0  0  0  0  0  0
   12.9515  -19.2170   25.6554 O   0  0  0  0  0  0  0  0  0  0  0  0
  1  2  1  0
  3  2  1  0
  4  5  1  0
  4  3  1  0
  5  1  1  0
  5  6  1  1
  7  6  2  0
  8  6  1  0
  9  8  1  0
 10 11  1  0
  9 10  1  6
 11 12  1  0
 12 13  1  0
 13 14  1  0
 15  9  1  0
 15 17  1  0
 16 15  2  0
 18 17  1  0
 18 22  1  0
 18 19  1  1
 20 19  1  0
 21 20  2  0
 22 25  1  0
 23 22  2  0
 24 20  1  0
M  END
$$$$
