PKD.pdb
     RDKit          3D

 25 25  0  0  1  0  0  0  0  0999 V2000
    7.2114  -15.0820   19.6002 N   0  0  0  0  0  0  0  0  0  0  0  0
    6.9673  -14.8185   18.1691 C   0  0  0  0  0  0  0  0  0  0  0  0
    7.3718  -13.3440   18.0318 C   0  0  0  0  0  0  0  0  0  0  0  0
    8.2635  -13.0885   19.2125 C   0  0  0  0  0  0  0  0  0  0  0  0
    8.5436  -14.5156   19.7092 C   0  0  1  0  0  0  0  0  0  0  0  0
    8.9996  -14.3875   21.0961 C   0  0  0  0  0  0  0  0  0  0  0  0
   10.1546  -14.0162   21.4180 O   0  0  0  0  0  0  0  0  0  0  0  0
    8.0853  -14.6986   22.1359 N   0  0  0  0  0  0  0  0  0  0  0  0
    8.4300  -14.4346   23.5226 C   0  0  1  0  0  0  0  0  0  0  0  0
    7.2347  -13.7733   24.1641 C   0  0  0  0  0  0  0  0  0  0  0  0
    7.4342  -13.3817   25.5949 C   0  0  0  0  0  0  0  0  0  0  0  0
    6.2705  -12.6087   26.1546 C   0  0  0  0  0  0  0  0  0  0  0  0
    6.4951  -12.2247   27.5904 C   0  0  0  0  0  0  0  0  0  0  0  0
    5.3701  -11.4566   28.1054 N   0  0  0  0  0  0  0  0  0  0  0  0
    8.7427  -15.6943   24.2385 C   0  0  0  0  0  0  0  0  0  0  0  0
    7.9277  -16.6485   24.2429 O   0  0  0  0  0  0  0  0  0  0  0  0
    9.9620  -15.8660   24.9364 N   0  0  0  0  0  0  0  0  0  0  0  0
   10.2345  -17.1537   25.5801 C   0  0  1  0  0  0  0  0  0  0  0  0
   11.6490  -17.5812   25.4022 C   0  0  0  0  0  0  0  0  0  0  0  0
   12.0868  -17.7752   24.0076 C   0  0  0  0  0  0  0  0  0  0  0  0
   11.2371  -18.2139   23.1808 O   0  0  0  0  0  0  0  0  0  0  0  0
    9.9045  -17.0899   27.0176 C   0  0  0  0  0  0  0  0  0  0  0  0
    9.5807  -16.0657   27.6326 O   0  0  0  0  0  0  0  0  0  0  0  0
   13.3475  -17.5239   23.5118 O   0  0  0  0  0  0  0  0  0  0  0  0
    9.9645  -18.2896   27.7475 O   0  0  0  0  0  0  0  0  0  0  0  0
  1  2  1  0
  3  2  1  0
  4  5  1  0
  4  3  1  0
  5  1  1  0
  5  6  1  1
  7  6  2  0
  8  6  1  0
  9  8  1  0
 10 11  1  0
  9 10  1  1
 11 12  1  0
 12 13  1  0
 13 14  1  0
 15  9  1  0
 15 17  1  0
 16 15  2  0
 18 17  1  0
 18 22  1  0
 18 19  1  1
 20 19  1  0
 21 20  2  0
 22 25  1  0
 23 22  2  0
 24 20  1  0
M  END
$$$$
