PKD.pdb
     RDKit          3D

 25 25  0  0  1  0  0  0  0  0999 V2000
    7.3622  -15.1327   19.2059 N   0  0  0  0  0  0  0  0  0  0  0  0
    7.1299  -14.2683   18.0328 C   0  0  0  0  0  0  0  0  0  0  0  0
    6.9233  -12.8894   18.6754 C   0  0  0  0  0  0  0  0  0  0  0  0
    7.5588  -13.0084   20.0306 C   0  0  0  0  0  0  0  0  0  0  0  0
    8.3490  -14.3193   19.8929 C   0  0  1  0  0  0  0  0  0  0  0  0
    8.6226  -14.7811   21.2567 C   0  0  0  0  0  0  0  0  0  0  0  0
    9.4437  -14.2276   22.0278 O   0  0  0  0  0  0  0  0  0  0  0  0
    7.9195  -15.9170   21.7355 N   0  0  0  0  0  0  0  0  0  0  0  0
    8.1175  -16.3853   23.0967 C   0  0  1  0  0  0  0  0  0  0  0  0
    7.1397  -17.5108   23.3308 C   0  0  0  0  0  0  0  0  0  0  0  0
    7.3639  -18.2758   24.5977 C   0  0  0  0  0  0  0  0  0  0  0  0
    6.4200  -19.4380   24.7507 C   0  0  0  0  0  0  0  0  0  0  0  0
    6.6462  -20.1736   26.0419 C   0  0  0  0  0  0  0  0  0  0  0  0
    5.8502  -21.3921   26.0926 N   0  0  0  0  0  0  0  0  0  0  0  0
    9.5006  -16.8828   23.2886 C   0  0  0  0  0  0  0  0  0  0  0  0
    9.9785  -17.7580   22.5267 O   0  0  0  0  0  0  0  0  0  0  0  0
   10.3262  -16.3923   24.3283 N   0  0  0  0  0  0  0  0  0  0  0  0
   11.6290  -17.0228   24.5555 C   0  0  1  0  0  0  0  0  0  0  0  0
   12.7510  -16.0531   24.4276 C   0  0  0  0  0  0  0  0  0  0  0  0
   13.8487  -16.4615   23.5318 C   0  0  0  0  0  0  0  0  0  0  0  0
   14.7656  -15.6212   23.3053 O   0  0  0  0  0  0  0  0  0  0  0  0
   11.6655  -17.6628   25.8854 C   0  0  0  0  0  0  0  0  0  0  0  0
   12.3789  -18.6250   26.1970 O   0  0  0  0  0  0  0  0  0  0  0  0
   13.9732  -17.6837   22.9082 O   0  0  0  0  0  0  0  0  0  0  0  0
   10.8201  -17.1375   26.8779 O   0  0  0  0  0  0  0  0  0  0  0  0
  1  2  1  0
  3  2  1  0
  4  5  1  0
  4  3  1  0
  5  1  1  0
  5  6  1  1
  7  6  2  0
  8  6  1  0
  9  8  1  0
 10 11  1  0
  9 10  1  6
 11 12  1  0
 12 13  1  0
 13 14  1  0
 15  9  1  0
 15 17  1  0
 16 15  2  0
 18 17  1  0
 18 22  1  0
 18 19  1  1
 20 19  1  0
 21 20  2  0
 22 25  1  0
 23 22  2  0
 24 20  1  0
M  END
$$$$
