PKD.pdb
     RDKit          3D

 25 25  0  0  1  0  0  0  0  0999 V2000
    7.2587  -14.9827   19.4644 N   0  0  0  0  0  0  0  0  0  0  0  0
    6.9925  -14.6921   18.0425 C   0  0  0  0  0  0  0  0  0  0  0  0
    7.4581  -13.2351   17.9112 C   0  0  0  0  0  0  0  0  0  0  0  0
    8.3880  -13.0328   19.0726 C   0  0  0  0  0  0  0  0  0  0  0  0
    8.6168  -14.4765   19.5471 C   0  0  1  0  0  0  0  0  0  0  0  0
    9.1109  -14.3848   20.9238 C   0  0  0  0  0  0  0  0  0  0  0  0
   10.2684  -14.0039   21.2244 O   0  0  0  0  0  0  0  0  0  0  0  0
    8.2325  -14.7449   21.9787 N   0  0  0  0  0  0  0  0  0  0  0  0
    8.5633  -14.4192   23.3556 C   0  0  1  0  0  0  0  0  0  0  0  0
    7.2980  -13.9316   24.0179 C   0  0  0  0  0  0  0  0  0  0  0  0
    7.4705  -13.4865   25.4366 C   0  0  0  0  0  0  0  0  0  0  0  0
    6.2209  -12.8750   26.0108 C   0  0  0  0  0  0  0  0  0  0  0  0
    6.4246  -12.4178   27.4282 C   0  0  0  0  0  0  0  0  0  0  0  0
    5.2362  -11.7444   27.9333 N   0  0  0  0  0  0  0  0  0  0  0  0
    9.0703  -15.6126   24.0739 C   0  0  0  0  0  0  0  0  0  0  0  0
    8.4052  -16.6765   24.0985 O   0  0  0  0  0  0  0  0  0  0  0  0
   10.3128  -15.5964   24.7515 N   0  0  0  0  0  0  0  0  0  0  0  0
   10.7831  -16.8242   25.3979 C   0  0  1  0  0  0  0  0  0  0  0  0
   12.2688  -16.9059   25.4324 C   0  0  0  0  0  0  0  0  0  0  0  0
   12.9492  -16.7102   24.1390 C   0  0  0  0  0  0  0  0  0  0  0  0
   12.6019  -17.4500   23.1746 O   0  0  0  0  0  0  0  0  0  0  0  0
   10.2412  -16.9241   26.7675 C   0  0  0  0  0  0  0  0  0  0  0  0
    9.5238  -16.0781   27.3166 O   0  0  0  0  0  0  0  0  0  0  0  0
   13.9402  -15.7898   23.8760 O   0  0  0  0  0  0  0  0  0  0  0  0
   10.5679  -18.0729   27.5088 O   0  0  0  0  0  0  0  0  0  0  0  0
  1  2  1  0
  3  2  1  0
  4  5  1  0
  4  3  1  0
  5  1  1  0
  5  6  1  1
  7  6  2  0
  8  6  1  0
  9  8  1  0
 10 11  1  0
  9 10  1  1
 11 12  1  0
 12 13  1  0
 13 14  1  0
 15  9  1  0
 15 17  1  0
 16 15  2  0
 18 17  1  0
 18 22  1  0
 18 19  1  1
 20 19  1  0
 21 20  2  0
 22 25  1  0
 23 22  2  0
 24 20  1  0
M  END
$$$$
