PKD.pdb
     RDKit          3D

 25 25  0  0  1  0  0  0  0  0999 V2000
    8.0107  -14.7192   18.2682 N   0  0  0  0  0  0  0  0  0  0  0  0
    7.8884  -13.6309   17.2793 C   0  0  0  0  0  0  0  0  0  0  0  0
    7.2799  -12.4948   18.1133 C   0  0  0  0  0  0  0  0  0  0  0  0
    7.6022  -12.8585   19.5339 C   0  0  0  0  0  0  0  0  0  0  0  0
    8.6403  -13.9756   19.3444 C   0  0  1  0  0  0  0  0  0  0  0  0
    8.6813  -14.7192   20.6066 C   0  0  0  0  0  0  0  0  0  0  0  0
    9.0760  -14.2276   21.6920 O   0  0  0  0  0  0  0  0  0  0  0  0
    8.2492  -16.0710   20.6049 N   0  0  0  0  0  0  0  0  0  0  0  0
    8.2257  -16.8377   21.8390 C   0  0  1  0  0  0  0  0  0  0  0  0
    7.3744  -18.0592   21.5922 C   0  0  0  0  0  0  0  0  0  0  0  0
    7.1683  -18.9266   22.7946 C   0  0  0  0  0  0  0  0  0  0  0  0
    6.3740  -20.1676   22.4878 C   0  0  0  0  0  0  0  0  0  0  0  0
    6.0665  -20.9542   23.7312 C   0  0  0  0  0  0  0  0  0  0  0  0
    5.3845  -22.1987   23.4039 N   0  0  0  0  0  0  0  0  0  0  0  0
    9.5935  -17.2572   22.2267 C   0  0  0  0  0  0  0  0  0  0  0  0
   10.4447  -17.5540   21.3536 O   0  0  0  0  0  0  0  0  0  0  0  0
    9.9866  -17.3366   23.5841 N   0  0  0  0  0  0  0  0  0  0  0  0
   11.3653  -17.7179   23.9011 C   0  0  1  0  0  0  0  0  0  0  0  0
   11.5029  -18.2132   25.2979 C   0  0  0  0  0  0  0  0  0  0  0  0
   11.1828  -17.2371   26.3558 C   0  0  0  0  0  0  0  0  0  0  0  0
   11.0655  -16.0241   26.0200 O   0  0  0  0  0  0  0  0  0  0  0  0
   11.8460  -18.7429   22.9536 C   0  0  0  0  0  0  0  0  0  0  0  0
   13.0294  -19.0652   22.7878 O   0  0  0  0  0  0  0  0  0  0  0  0
   10.9987  -17.5212   27.6914 O   0  0  0  0  0  0  0  0  0  0  0  0
   10.8812  -19.4056   22.1753 O   0  0  0  0  0  0  0  0  0  0  0  0
  1  2  1  0
  3  2  1  0
  4  5  1  0
  4  3  1  0
  5  1  1  0
  5  6  1  1
  7  6  2  0
  8  6  1  0
  9  8  1  0
 10 11  1  0
  9 10  1  6
 11 12  1  0
 12 13  1  0
 13 14  1  0
 15  9  1  0
 15 17  1  0
 16 15  2  0
 18 17  1  0
 18 22  1  0
 18 19  1  1
 20 19  1  0
 21 20  2  0
 22 25  1  0
 23 22  2  0
 24 20  1  0
M  END
$$$$
