PKD.pdb
     RDKit          3D

 25 25  0  0  1  0  0  0  0  0999 V2000
    7.0721  -14.9262   19.3510 N   0  0  0  0  0  0  0  0  0  0  0  0
    6.7887  -14.6520   17.9292 C   0  0  0  0  0  0  0  0  0  0  0  0
    7.2965  -13.2127   17.7637 C   0  0  0  0  0  0  0  0  0  0  0  0
    8.2535  -13.0194   18.9045 C   0  0  0  0  0  0  0  0  0  0  0  0
    8.4464  -14.4611   19.4005 C   0  0  1  0  0  0  0  0  0  0  0  0
    8.9683  -14.3611   20.7663 C   0  0  0  0  0  0  0  0  0  0  0  0
   10.1637  -14.0910   21.0370 O   0  0  0  0  0  0  0  0  0  0  0  0
    8.0733  -14.5800   21.8457 N   0  0  0  0  0  0  0  0  0  0  0  0
    8.4920  -14.3216   23.2129 C   0  0  1  0  0  0  0  0  0  0  0  0
    7.2925  -13.7866   23.9561 C   0  0  0  0  0  0  0  0  0  0  0  0
    7.5549  -13.4306   25.3861 C   0  0  0  0  0  0  0  0  0  0  0  0
    6.3614  -12.8088   26.0597 C   0  0  0  0  0  0  0  0  0  0  0  0
    6.6657  -12.4106   27.4768 C   0  0  0  0  0  0  0  0  0  0  0  0
    5.4956  -11.8232   28.1147 N   0  0  0  0  0  0  0  0  0  0  0  0
    8.9642  -15.5661   23.8652 C   0  0  0  0  0  0  0  0  0  0  0  0
    8.2904  -16.6224   23.7945 O   0  0  0  0  0  0  0  0  0  0  0  0
   10.1826  -15.6086   24.5843 N   0  0  0  0  0  0  0  0  0  0  0  0
   10.6643  -16.8981   25.0860 C   0  0  1  0  0  0  0  0  0  0  0  0
   12.1417  -17.0310   24.9630 C   0  0  0  0  0  0  0  0  0  0  0  0
   12.6218  -18.2912   24.3667 C   0  0  0  0  0  0  0  0  0  0  0  0
   11.7599  -19.1682   24.0733 O   0  0  0  0  0  0  0  0  0  0  0  0
   10.2569  -17.0872   26.4924 C   0  0  0  0  0  0  0  0  0  0  0  0
    9.7170  -16.2292   27.2024 O   0  0  0  0  0  0  0  0  0  0  0  0
   13.9344  -18.6111   24.0965 O   0  0  0  0  0  0  0  0  0  0  0  0
   10.5038  -18.3435   27.0725 O   0  0  0  0  0  0  0  0  0  0  0  0
  1  2  1  0
  3  2  1  0
  4  5  1  0
  4  3  1  0
  5  1  1  0
  5  6  1  1
  7  6  2  0
  8  6  1  0
  9  8  1  0
 10 11  1  0
  9 10  1  1
 11 12  1  0
 12 13  1  0
 13 14  1  0
 15  9  1  0
 15 17  1  0
 16 15  2  0
 18 17  1  0
 18 22  1  0
 18 19  1  1
 20 19  1  0
 21 20  2  0
 22 25  1  0
 23 22  2  0
 24 20  1  0
M  END
$$$$
