PKD.pdb
     RDKit          3D

 25 25  0  0  1  0  0  0  0  0999 V2000
    6.5344  -19.4761   20.9074 N   0  0  0  0  0  0  0  0  0  0  0  0
    5.5470  -20.4872   20.4834 C   0  0  0  0  0  0  0  0  0  0  0  0
    5.6686  -20.4452   18.9536 C   0  0  0  0  0  0  0  0  0  0  0  0
    7.0183  -19.8377   18.7014 C   0  0  0  0  0  0  0  0  0  0  0  0
    7.6592  -19.9061   20.0965 C   0  0  1  0  0  0  0  0  0  0  0  0
    8.7629  -18.9419   20.0911 C   0  0  0  0  0  0  0  0  0  0  0  0
    9.9368  -19.2290   19.7518 O   0  0  0  0  0  0  0  0  0  0  0  0
    8.4917  -17.6073   20.4900 N   0  0  0  0  0  0  0  0  0  0  0  0
    9.5426  -16.6041   20.4665 C   0  0  1  0  0  0  0  0  0  0  0  0
    8.8793  -15.2639   20.2632 C   0  0  0  0  0  0  0  0  0  0  0  0
    8.3663  -15.0280   18.8769 C   0  0  0  0  0  0  0  0  0  0  0  0
    7.8046  -13.6440   18.6917 C   0  0  0  0  0  0  0  0  0  0  0  0
    7.2935  -13.4323   17.2941 C   0  0  0  0  0  0  0  0  0  0  0  0
    6.6615  -12.1267   17.1637 N   0  0  0  0  0  0  0  0  0  0  0  0
   10.2943  -16.5960   21.7441 C   0  0  0  0  0  0  0  0  0  0  0  0
    9.6990  -16.4348   22.8370 O   0  0  0  0  0  0  0  0  0  0  0  0
   11.6985  -16.7696   21.7779 N   0  0  0  0  0  0  0  0  0  0  0  0
   12.3823  -16.7612   23.0736 C   0  0  1  0  0  0  0  0  0  0  0  0
   12.5406  -18.1314   23.6329 C   0  0  0  0  0  0  0  0  0  0  0  0
   13.3210  -18.2255   24.8805 C   0  0  0  0  0  0  0  0  0  0  0  0
   14.5566  -18.4739   24.7833 O   0  0  0  0  0  0  0  0  0  0  0  0
   13.7020  -16.1103   22.9543 C   0  0  0  0  0  0  0  0  0  0  0  0
   14.5421  -16.0249   23.8591 O   0  0  0  0  0  0  0  0  0  0  0  0
   12.8285  -18.0691   26.1578 O   0  0  0  0  0  0  0  0  0  0  0  0
   14.0303  -15.5397   21.7123 O   0  0  0  0  0  0  0  0  0  0  0  0
  1  2  1  0
  3  2  1  0
  4  5  1  0
  4  3  1  0
  5  1  1  0
  5  6  1  6
  7  6  2  0
  8  6  1  0
  9  8  1  0
 10 11  1  0
  9 10  1  1
 11 12  1  0
 12 13  1  0
 13 14  1  0
 15  9  1  0
 15 17  1  0
 16 15  2  0
 18 17  1  0
 18 22  1  0
 18 19  1  6
 20 19  1  0
 21 20  2  0
 22 25  1  0
 23 22  2  0
 24 20  1  0
M  END
$$$$
