PKD.pdb
     RDKit          3D

 25 25  0  0  1  0  0  0  0  0999 V2000
    8.4370  -14.7906   19.0216 N   0  0  0  0  0  0  0  0  0  0  0  0
    8.8719  -13.8149   18.0038 C   0  0  0  0  0  0  0  0  0  0  0  0
    7.8493  -12.6827   18.1748 C   0  0  0  0  0  0  0  0  0  0  0  0
    7.2984  -12.8808   19.5574 C   0  0  0  0  0  0  0  0  0  0  0  0
    8.2944  -13.8895   20.1508 C   0  0  1  0  0  0  0  0  0  0  0  0
    7.6214  -14.5087   21.2961 C   0  0  0  0  0  0  0  0  0  0  0  0
    7.3179  -13.8885   22.3443 O   0  0  0  0  0  0  0  0  0  0  0  0
    7.2916  -15.8868   21.2176 N   0  0  0  0  0  0  0  0  0  0  0  0
    6.6917  -16.5659   22.3535 C   0  0  1  0  0  0  0  0  0  0  0  0
    6.0756  -17.8435   21.8383 C   0  0  0  0  0  0  0  0  0  0  0  0
    5.5385  -18.7483   22.9029 C   0  0  0  0  0  0  0  0  0  0  0  0
    5.0121  -20.0464   22.3526 C   0  0  0  0  0  0  0  0  0  0  0  0
    4.4346  -20.9168   23.4335 C   0  0  0  0  0  0  0  0  0  0  0  0
    3.9957  -22.1957   22.8925 N   0  0  0  0  0  0  0  0  0  0  0  0
    7.7140  -16.8867   23.3777 C   0  0  0  0  0  0  0  0  0  0  0  0
    7.3808  -17.3715   24.4862 O   0  0  0  0  0  0  0  0  0  0  0  0
    9.0917  -16.6612   23.1445 N   0  0  0  0  0  0  0  0  0  0  0  0
   10.0582  -17.0569   24.1721 C   0  0  1  0  0  0  0  0  0  0  0  0
   10.0579  -18.5269   24.4056 C   0  0  0  0  0  0  0  0  0  0  0  0
   11.1267  -19.0337   25.2861 C   0  0  0  0  0  0  0  0  0  0  0  0
   11.5460  -18.2689   26.2011 O   0  0  0  0  0  0  0  0  0  0  0  0
   11.4145  -16.6058   23.8032 C   0  0  0  0  0  0  0  0  0  0  0  0
   11.7317  -16.1075   22.7155 O   0  0  0  0  0  0  0  0  0  0  0  0
   11.7218  -20.2738   25.2067 O   0  0  0  0  0  0  0  0  0  0  0  0
   12.4286  -16.7557   24.7650 O   0  0  0  0  0  0  0  0  0  0  0  0
  1  2  1  0
  3  2  1  0
  4  5  1  0
  4  3  1  0
  5  1  1  0
  5  6  1  1
  7  6  2  0
  8  6  1  0
  9  8  1  0
 10 11  1  0
  9 10  1  6
 11 12  1  0
 12 13  1  0
 13 14  1  0
 15  9  1  0
 15 17  1  0
 16 15  2  0
 18 17  1  0
 18 22  1  0
 18 19  1  6
 20 19  1  0
 21 20  2  0
 22 25  1  0
 23 22  2  0
 24 20  1  0
M  END
$$$$
