TVY.pdb
     RDKit          3D

 27 27  0  0  1  0  0  0  0  0999 V2000
   18.1021  -10.7989  -20.2422 C   0  0  0  0  0  0  0  0  0  0  0  0
   18.6587  -10.0697  -19.0185 C   0  0  1  0  0  0  0  0  0  0  0  0
   17.6124   -9.2874  -18.5301 O   0  0  0  0  0  0  0  0  0  0  0  0
   19.0162  -11.0633  -17.9466 C   0  0  2  0  0  0  0  0  0  0  0  0
   17.8296  -11.8275  -17.6133 N   0  0  0  0  0  0  0  0  0  0  0  0
   19.5769  -10.4136  -16.7352 C   0  0  0  0  0  0  0  0  0  0  0  0
   18.8479  -10.2089  -15.7311 O   0  0  0  0  0  0  0  0  0  0  0  0
   23.2586   -9.2413  -13.7355 C   0  0  0  0  0  0  0  0  0  0  0  0
   22.6524  -10.0364  -14.8854 C   0  0  1  0  0  0  0  0  0  0  0  0
   22.3584  -11.4421  -14.4842 C   0  0  0  0  0  0  0  0  0  0  0  0
   21.4588   -9.3146  -15.4731 C   0  0  2  0  0  0  0  0  0  0  0  0
   20.9326   -9.9933  -16.6342 N   0  0  0  0  0  0  0  0  0  0  0  0
   21.7987   -7.9110  -15.7084 C   0  0  0  0  0  0  0  0  0  0  0  0
   22.6309   -7.5053  -16.5578 O   0  0  0  0  0  0  0  0  0  0  0  0
   20.9971    0.9026  -15.5100 O   0  0  0  0  0  0  0  0  0  0  0  0
   20.8236   -0.4663  -15.3949 C   0  0  0  0  0  0  0  0  0  0  0  0
   20.7785   -1.2947  -16.4979 C   0  0  0  0  0  0  0  0  0  0  0  0
   20.6071   -2.6482  -16.3832 C   0  0  0  0  0  0  0  0  0  0  0  0
   20.4699   -3.2501  -15.1365 C   0  0  0  0  0  0  0  0  0  0  0  0
   20.2777   -4.6936  -15.0203 C   0  0  0  0  0  0  0  0  0  0  0  0
   21.5427   -5.5131  -15.0685 C   0  0  2  0  0  0  0  0  0  0  0  0
   21.1405   -6.9270  -14.9195 N   0  0  0  0  0  0  0  0  0  0  0  0
   22.3963   -5.1251  -13.9218 C   0  0  0  0  0  0  0  0  0  0  0  0
   22.1732   -5.5867  -12.7576 O   0  0  0  0  0  0  0  0  0  0  0  0
   20.5164   -2.4124  -14.0427 C   0  0  0  0  0  0  0  0  0  0  0  0
   20.6896   -1.0468  -14.1621 C   0  0  0  0  0  0  0  0  0  0  0  0
   23.4669   -4.2579  -14.0366 O   0  0  0  0  0  0  0  0  0  0  0  0
  2  1  1  6
  2  4  1  0
  3  2  1  0
  4  6  1  0
  4  5  1  1
  6  7  2  0
  9 11  1  0
  9  8  1  1
 10  9  1  0
 11 12  1  6
 12  6  1  0
 13 14  2  0
 13 11  1  0
 15 16  1  0
 16 26  2  0
 16 17  1  0
 17 18  2  0
 18 19  1  0
 19 20  1  0
 21 20  1  1
 21 23  1  0
 21 22  1  0
 22 13  1  0
 23 27  1  0
 24 23  2  0
 25 19  2  0
 26 25  1  0
M  END
$$$$
