TVY.pdb
     RDKit          3D

 27 27  0  0  1  0  0  0  0  0999 V2000
   23.7812  -11.8396  -18.9732 C   0  0  0  0  0  0  0  0  0  0  0  0
   23.4587  -10.3553  -18.7950 C   0  0  1  0  0  0  0  0  0  0  0  0
   24.6140   -9.6657  -19.1625 O   0  0  0  0  0  0  0  0  0  0  0  0
   22.3688   -9.9479  -19.7490 C   0  0  2  0  0  0  0  0  0  0  0  0
   22.8861  -10.0307  -21.1013 N   0  0  0  0  0  0  0  0  0  0  0  0
   21.8509   -8.5849  -19.4699 C   0  0  0  0  0  0  0  0  0  0  0  0
   22.3938   -7.5805  -19.9974 O   0  0  0  0  0  0  0  0  0  0  0  0
   18.2588   -5.5270  -18.1043 C   0  0  0  0  0  0  0  0  0  0  0  0
   18.8176   -6.8143  -18.6978 C   0  0  1  0  0  0  0  0  0  0  0  0
   18.5775   -6.8892  -20.1676 C   0  0  0  0  0  0  0  0  0  0  0  0
   20.2695   -7.0026  -18.3134 C   0  0  2  0  0  0  0  0  0  0  0  0
   20.7419   -8.3336  -18.6145 N   0  0  0  0  0  0  0  0  0  0  0  0
   20.4658   -6.6034  -16.9194 C   0  0  0  0  0  0  0  0  0  0  0  0
   19.8544   -7.0947  -15.9379 O   0  0  0  0  0  0  0  0  0  0  0  0
   24.9285  -10.7777  -15.5419 O   0  0  0  0  0  0  0  0  0  0  0  0
   24.4966   -9.4690  -15.4084 C   0  0  0  0  0  0  0  0  0  0  0  0
   23.5846   -9.0929  -14.4431 C   0  0  0  0  0  0  0  0  0  0  0  0
   23.1582   -7.7985  -14.3116 C   0  0  0  0  0  0  0  0  0  0  0  0
   23.6321   -6.7987  -15.1549 C   0  0  0  0  0  0  0  0  0  0  0  0
   23.1665   -5.4210  -15.0164 C   0  0  0  0  0  0  0  0  0  0  0  0
   21.6891   -5.2195  -15.2422 C   0  0  2  0  0  0  0  0  0  0  0  0
   21.4195   -5.5831  -16.6487 N   0  0  0  0  0  0  0  0  0  0  0  0
   21.3756   -3.7860  -15.0401 C   0  0  0  0  0  0  0  0  0  0  0  0
   20.9883   -3.0603  -16.0104 O   0  0  0  0  0  0  0  0  0  0  0  0
   24.5421   -7.1866  -16.1149 C   0  0  0  0  0  0  0  0  0  0  0  0
   24.9704   -8.4939  -16.2447 C   0  0  0  0  0  0  0  0  0  0  0  0
   21.4788   -3.1559  -13.8138 O   0  0  0  0  0  0  0  0  0  0  0  0
  2  1  1  6
  2  4  1  0
  3  2  1  0
  4  6  1  0
  4  5  1  6
  6  7  2  0
  9 11  1  0
  9  8  1  6
 10  9  1  0
 11 12  1  1
 12  6  1  0
 13 14  2  0
 13 11  1  0
 15 16  1  0
 16 26  2  0
 16 17  1  0
 17 18  2  0
 18 19  1  0
 19 20  1  0
 21 20  1  6
 21 23  1  0
 21 22  1  0
 22 13  1  0
 23 27  1  0
 24 23  2  0
 25 19  2  0
 26 25  1  0
M  END
$$$$
