TVY.pdb
     RDKit          3D

 27 27  0  0  1  0  0  0  0  0999 V2000
   29.0592  -22.7830  -16.8305 C   0  0  0  0  0  0  0  0  0  0  0  0
   28.2742  -22.2758  -15.6200 C   0  0  1  0  0  0  0  0  0  0  0  0
   29.1418  -21.4314  -14.9274 O   0  0  0  0  0  0  0  0  0  0  0  0
   27.1060  -21.4445  -16.0764 C   0  0  2  0  0  0  0  0  0  0  0  0
   27.5928  -20.4287  -16.9897 N   0  0  0  0  0  0  0  0  0  0  0  0
   26.3757  -20.8223  -14.9435 C   0  0  0  0  0  0  0  0  0  0  0  0
   26.5590  -19.6107  -14.6604 O   0  0  0  0  0  0  0  0  0  0  0  0
   22.6364  -20.6674  -11.7397 C   0  0  0  0  0  0  0  0  0  0  0  0
   23.2950  -21.2040  -13.0046 C   0  0  1  0  0  0  0  0  0  0  0  0
   22.6106  -20.7058  -14.2321 C   0  0  0  0  0  0  0  0  0  0  0  0
   24.7850  -20.9378  -12.9945 C   0  0  2  0  0  0  0  0  0  0  0  0
   25.4499  -21.5334  -14.1297 N   0  0  0  0  0  0  0  0  0  0  0  0
   25.3471  -21.3320  -11.7024 C   0  0  0  0  0  0  0  0  0  0  0  0
   25.4415  -22.5151  -11.2901 O   0  0  0  0  0  0  0  0  0  0  0  0
   29.1712  -20.0515   -3.7460 O   0  0  0  0  0  0  0  0  0  0  0  0
   28.6857  -19.9293   -5.0369 C   0  0  0  0  0  0  0  0  0  0  0  0
   29.3011  -20.5377   -6.1121 C   0  0  0  0  0  0  0  0  0  0  0  0
   28.8203  -20.4164   -7.3884 C   0  0  0  0  0  0  0  0  0  0  0  0
   27.6793  -19.6668   -7.6561 C   0  0  0  0  0  0  0  0  0  0  0  0
   27.1761  -19.5328   -9.0210 C   0  0  0  0  0  0  0  0  0  0  0  0
   26.3078  -20.6702   -9.4969 C   0  0  2  0  0  0  0  0  0  0  0  0
   25.8247  -20.3029  -10.8440 N   0  0  0  0  0  0  0  0  0  0  0  0
   25.1508  -20.7918   -8.5800 C   0  0  0  0  0  0  0  0  0  0  0  0
   24.1201  -20.0618   -8.7307 O   0  0  0  0  0  0  0  0  0  0  0  0
   27.0740  -19.0638   -6.5743 C   0  0  0  0  0  0  0  0  0  0  0  0
   27.5618  -19.1884   -5.2877 C   0  0  0  0  0  0  0  0  0  0  0  0
   25.1134  -21.6853   -7.5256 O   0  0  0  0  0  0  0  0  0  0  0  0
  2  1  1  6
  2  4  1  0
  3  2  1  0
  4  6  1  0
  4  5  1  6
  6  7  2  0
  9 11  1  0
  9  8  1  1
 10  9  1  0
 11 12  1  6
 12  6  1  0
 13 14  2  0
 13 11  1  0
 15 16  1  0
 16 26  2  0
 16 17  1  0
 17 18  2  0
 18 19  1  0
 19 20  1  0
 21 20  1  1
 21 23  1  0
 21 22  1  0
 22 13  1  0
 23 27  1  0
 24 23  2  0
 25 19  2  0
 26 25  1  0
M  END
$$$$
