TVY.pdb
     RDKit          3D

 27 27  0  0  1  0  0  0  0  0999 V2000
   29.1153  -27.0071  -17.9051 C   0  0  0  0  0  0  0  0  0  0  0  0
   28.4294  -25.7682  -17.3278 C   0  0  1  0  0  0  0  0  0  0  0  0
   28.0605  -26.1065  -16.0259 O   0  0  0  0  0  0  0  0  0  0  0  0
   29.4118  -24.6322  -17.2364 C   0  0  2  0  0  0  0  0  0  0  0  0
   30.5481  -25.0687  -16.4480 N   0  0  0  0  0  0  0  0  0  0  0  0
   28.8099  -23.4074  -16.6521 C   0  0  0  0  0  0  0  0  0  0  0  0
   29.0887  -23.0639  -15.4748 O   0  0  0  0  0  0  0  0  0  0  0  0
   28.8005  -19.7971  -18.1348 C   0  0  0  0  0  0  0  0  0  0  0  0
   27.3733  -20.2147  -17.8023 C   0  0  1  0  0  0  0  0  0  0  0  0
   26.5834  -20.4952  -19.0355 C   0  0  0  0  0  0  0  0  0  0  0  0
   27.3604  -21.3537  -16.8055 C   0  0  2  0  0  0  0  0  0  0  0  0
   27.9067  -22.5686  -17.3632 N   0  0  0  0  0  0  0  0  0  0  0  0
   26.0153  -21.5071  -16.2503 C   0  0  0  0  0  0  0  0  0  0  0  0
   25.1765  -22.3645  -16.6242 O   0  0  0  0  0  0  0  0  0  0  0  0
   19.1298  -19.3733  -10.9781 O   0  0  0  0  0  0  0  0  0  0  0  0
   20.3734  -19.4976  -11.5739 C   0  0  0  0  0  0  0  0  0  0  0  0
   21.3467  -20.3369  -11.0708 C   0  0  0  0  0  0  0  0  0  0  0  0
   22.5762  -20.4593  -11.6607 C   0  0  0  0  0  0  0  0  0  0  0  0
   22.8979  -19.7347  -12.8039 C   0  0  0  0  0  0  0  0  0  0  0  0
   24.2145  -19.8619  -13.4238 C   0  0  0  0  0  0  0  0  0  0  0  0
   24.2673  -20.7594  -14.6346 C   0  0  2  0  0  0  0  0  0  0  0  0
   25.6220  -20.6220  -15.2082 N   0  0  0  0  0  0  0  0  0  0  0  0
   23.2698  -20.2782  -15.6182 C   0  0  0  0  0  0  0  0  0  0  0  0
   23.5233  -19.2845  -16.3708 O   0  0  0  0  0  0  0  0  0  0  0  0
   21.9179  -18.8998  -13.2967 C   0  0  0  0  0  0  0  0  0  0  0  0
   20.6781  -18.7788  -12.6988 C   0  0  0  0  0  0  0  0  0  0  0  0
   22.0275  -20.8626  -15.7816 O   0  0  0  0  0  0  0  0  0  0  0  0
  2  1  1  1
  2  4  1  0
  3  2  1  0
  4  6  1  0
  4  5  1  1
  6  7  2  0
  9 11  1  0
  9  8  1  6
 10  9  1  0
 11 12  1  6
 12  6  1  0
 13 14  2  0
 13 11  1  0
 15 16  1  0
 16 26  2  0
 16 17  1  0
 17 18  2  0
 18 19  1  0
 19 20  1  0
 21 20  1  1
 21 23  1  0
 21 22  1  0
 22 13  1  0
 23 27  1  0
 24 23  2  0
 25 19  2  0
 26 25  1  0
M  END
$$$$
