TVY.pdb
     RDKit          3D

 27 27  0  0  1  0  0  0  0  0999 V2000
   23.9720  -15.5335  -18.6015 C   0  0  0  0  0  0  0  0  0  0  0  0
   24.4294  -16.6571  -17.6702 C   0  0  1  0  0  0  0  0  0  0  0  0
   23.3650  -16.8900  -16.7995 O   0  0  0  0  0  0  0  0  0  0  0  0
   24.6508  -17.9197  -18.4581 C   0  0  2  0  0  0  0  0  0  0  0  0
   23.3969  -18.3006  -19.0790 N   0  0  0  0  0  0  0  0  0  0  0  0
   25.1765  -19.0264  -17.6199 C   0  0  0  0  0  0  0  0  0  0  0  0
   24.3888  -19.7472  -16.9553 O   0  0  0  0  0  0  0  0  0  0  0  0
   28.7561  -22.2094  -16.3763 C   0  0  0  0  0  0  0  0  0  0  0  0
   28.1630  -21.1842  -17.3350 C   0  0  1  0  0  0  0  0  0  0  0  0
   27.7322  -21.8163  -18.6150 C   0  0  0  0  0  0  0  0  0  0  0  0
   27.0711  -20.3808  -16.6615 C   0  0  2  0  0  0  0  0  0  0  0  0
   26.5620  -19.3344  -17.5166 N   0  0  0  0  0  0  0  0  0  0  0  0
   27.5398  -19.9081  -15.3585 C   0  0  0  0  0  0  0  0  0  0  0  0
   28.3155  -18.9355  -15.1829 O   0  0  0  0  0  0  0  0  0  0  0  0
   21.8353  -21.3164  -10.2038 O   0  0  0  0  0  0  0  0  0  0  0  0
   22.9982  -20.7832  -10.7334 C   0  0  0  0  0  0  0  0  0  0  0  0
   23.0900  -20.3913  -12.0536 C   0  0  0  0  0  0  0  0  0  0  0  0
   24.2403  -19.8640  -12.5764 C   0  0  0  0  0  0  0  0  0  0  0  0
   25.3758  -19.7000  -11.7895 C   0  0  0  0  0  0  0  0  0  0  0  0
   26.6035  -19.1457  -12.3549 C   0  0  0  0  0  0  0  0  0  0  0  0
   27.5842  -20.1653  -12.8772 C   0  0  2  0  0  0  0  0  0  0  0  0
   27.0863  -20.5973  -14.1995 N   0  0  0  0  0  0  0  0  0  0  0  0
   27.5900  -21.3247  -11.9554 C   0  0  0  0  0  0  0  0  0  0  0  0
   27.0057  -22.4101  -12.2694 O   0  0  0  0  0  0  0  0  0  0  0  0
   25.2718  -20.0952  -10.4730 C   0  0  0  0  0  0  0  0  0  0  0  0
   24.1092  -20.6269   -9.9486 C   0  0  0  0  0  0  0  0  0  0  0  0
   28.2163  -21.3066  -10.7229 O   0  0  0  0  0  0  0  0  0  0  0  0
  2  1  1  6
  2  4  1  0
  3  2  1  0
  4  6  1  0
  4  5  1  1
  6  7  2  0
  9 11  1  0
  9  8  1  1
 10  9  1  0
 11 12  1  6
 12  6  1  0
 13 14  2  0
 13 11  1  0
 15 16  1  0
 16 26  2  0
 16 17  1  0
 17 18  2  0
 18 19  1  0
 19 20  1  0
 21 20  1  1
 21 23  1  0
 21 22  1  0
 22 13  1  0
 23 27  1  0
 24 23  2  0
 25 19  2  0
 26 25  1  0
M  END
$$$$
