TVY.pdb
     RDKit          3D

 27 27  0  0  1  0  0  0  0  0999 V2000
   28.5508  -28.7208  -19.5315 C   0  0  0  0  0  0  0  0  0  0  0  0
   28.3998  -29.6472  -18.3242 C   0  0  1  0  0  0  0  0  0  0  0  0
   28.8880  -30.8889  -18.7308 O   0  0  0  0  0  0  0  0  0  0  0  0
   29.2726  -29.1680  -17.1961 C   0  0  2  0  0  0  0  0  0  0  0  0
   29.1005  -30.0636  -16.0686 N   0  0  0  0  0  0  0  0  0  0  0  0
   28.9730  -27.7683  -16.8024 C   0  0  0  0  0  0  0  0  0  0  0  0
   28.0502  -27.5241  -15.9835 O   0  0  0  0  0  0  0  0  0  0  0  0
   30.3104  -23.0295  -16.3547 C   0  0  0  0  0  0  0  0  0  0  0  0
   30.6493  -24.4754  -16.6956 C   0  0  1  0  0  0  0  0  0  0  0  0
   31.5712  -25.0742  -15.6881 C   0  0  0  0  0  0  0  0  0  0  0  0
   29.3922  -25.2879  -16.9210 C   0  0  2  0  0  0  0  0  0  0  0  0
   29.6874  -26.6471  -17.3096 N   0  0  0  0  0  0  0  0  0  0  0  0
   28.5097  -24.5823  -17.8507 C   0  0  0  0  0  0  0  0  0  0  0  0
   28.7901  -24.3154  -19.0459 O   0  0  0  0  0  0  0  0  0  0  0  0
   22.7149  -28.6519  -16.8913 O   0  0  0  0  0  0  0  0  0  0  0  0
   23.4781  -27.6536  -17.4727 C   0  0  0  0  0  0  0  0  0  0  0  0
   24.8518  -27.7442  -17.5705 C   0  0  0  0  0  0  0  0  0  0  0  0
   25.6057  -26.7566  -18.1458 C   0  0  0  0  0  0  0  0  0  0  0  0
   25.0111  -25.6091  -18.6607 C   0  0  0  0  0  0  0  0  0  0  0  0
   25.8212  -24.5542  -19.2649 C   0  0  0  0  0  0  0  0  0  0  0  0
   26.3105  -23.4963  -18.3079 C   0  0  2  0  0  0  0  0  0  0  0  0
   27.2371  -24.1648  -17.3710 N   0  0  0  0  0  0  0  0  0  0  0  0
   25.1479  -22.9727  -17.5540 C   0  0  0  0  0  0  0  0  0  0  0  0
   25.0340  -23.1809  -16.3043 O   0  0  0  0  0  0  0  0  0  0  0  0
   23.6388  -25.5302  -18.5569 C   0  0  0  0  0  0  0  0  0  0  0  0
   22.8810  -26.5288  -17.9758 C   0  0  0  0  0  0  0  0  0  0  0  0
   24.1341  -22.2398  -18.1426 O   0  0  0  0  0  0  0  0  0  0  0  0
  2  1  1  6
  2  4  1  0
  3  2  1  0
  4  6  1  0
  4  5  1  1
  6  7  2  0
  9 11  1  0
  9  8  1  1
 10  9  1  0
 11 12  1  6
 12  6  1  0
 13 14  2  0
 13 11  1  0
 15 16  1  0
 16 26  2  0
 16 17  1  0
 17 18  2  0
 18 19  1  0
 19 20  1  0
 21 20  1  6
 21 23  1  0
 21 22  1  0
 22 13  1  0
 23 27  1  0
 24 23  2  0
 25 19  2  0
 26 25  1  0
M  END
$$$$
