TVY.pdb
     RDKit          3D

 27 27  0  0  1  0  0  0  0  0999 V2000
   15.4514   -8.8678  -15.2899 C   0  0  0  0  0  0  0  0  0  0  0  0
   16.2529  -10.1244  -15.6322 C   0  0  1  0  0  0  0  0  0  0  0  0
   15.7950  -10.5421  -16.8817 O   0  0  0  0  0  0  0  0  0  0  0  0
   17.7104   -9.7804  -15.7790 C   0  0  2  0  0  0  0  0  0  0  0  0
   18.4231  -10.9692  -16.2055 N   0  0  0  0  0  0  0  0  0  0  0  0
   18.2951   -9.2420  -14.5251 C   0  0  0  0  0  0  0  0  0  0  0  0
   18.4324   -9.9851  -13.5198 O   0  0  0  0  0  0  0  0  0  0  0  0
   20.8394   -5.9332  -11.9178 C   0  0  0  0  0  0  0  0  0  0  0  0
   20.4345   -6.5439  -13.2538 C   0  0  1  0  0  0  0  0  0  0  0  0
   21.5515   -7.3230  -13.8610 C   0  0  0  0  0  0  0  0  0  0  0  0
   19.1501   -7.3340  -13.1213 C   0  0  2  0  0  0  0  0  0  0  0  0
   18.7248   -7.8929  -14.3832 N   0  0  0  0  0  0  0  0  0  0  0  0
   18.1334   -6.5144  -12.4614 C   0  0  0  0  0  0  0  0  0  0  0  0
   17.1725   -5.9532  -13.0446 O   0  0  0  0  0  0  0  0  0  0  0  0
   11.2219   -6.1316   -7.5311 O   0  0  0  0  0  0  0  0  0  0  0  0
   12.3917   -6.3442   -8.2407 C   0  0  0  0  0  0  0  0  0  0  0  0
   12.8834   -7.6113   -8.4807 C   0  0  0  0  0  0  0  0  0  0  0  0
   14.0402   -7.8207   -9.1826 C   0  0  0  0  0  0  0  0  0  0  0  0
   14.7750   -6.7529   -9.6879 C   0  0  0  0  0  0  0  0  0  0  0  0
   16.0137   -6.9816  -10.4279 C   0  0  0  0  0  0  0  0  0  0  0  0
   17.0420   -5.8850  -10.3079 C   0  0  2  0  0  0  0  0  0  0  0  0
   18.2351   -6.3361  -11.0537 N   0  0  0  0  0  0  0  0  0  0  0  0
   17.3921   -5.7255   -8.8775 C   0  0  0  0  0  0  0  0  0  0  0  0
   18.2251   -6.5080   -8.3191 O   0  0  0  0  0  0  0  0  0  0  0  0
   14.2740   -5.4926   -9.4415 C   0  0  0  0  0  0  0  0  0  0  0  0
   13.1062   -5.2849   -8.7329 C   0  0  0  0  0  0  0  0  0  0  0  0
   16.8517   -4.7394   -8.0731 O   0  0  0  0  0  0  0  0  0  0  0  0
  2  1  1  6
  2  4  1  0
  3  2  1  0
  4  6  1  0
  4  5  1  1
  6  7  2  0
  9 11  1  0
  9  8  1  1
 10  9  1  0
 11 12  1  6
 12  6  1  0
 13 14  2  0
 13 11  1  0
 15 16  1  0
 16 26  2  0
 16 17  1  0
 17 18  2  0
 18 19  1  0
 19 20  1  0
 21 20  1  1
 21 23  1  0
 21 22  1  0
 22 13  1  0
 23 27  1  0
 24 23  2  0
 25 19  2  0
 26 25  1  0
M  END
$$$$
