TVY.pdb
     RDKit          3D

 27 27  0  0  1  0  0  0  0  0999 V2000
   18.0944   -9.8502  -17.2978 C   0  0  0  0  0  0  0  0  0  0  0  0
   19.0796  -11.0141  -17.4144 C   0  0  1  0  0  0  0  0  0  0  0  0
   18.3469  -12.0866  -17.9225 O   0  0  0  0  0  0  0  0  0  0  0  0
   20.1492  -10.6835  -18.4197 C   0  0  2  0  0  0  0  0  0  0  0  0
   21.0156  -11.8371  -18.5661 N   0  0  0  0  0  0  0  0  0  0  0  0
   20.9360   -9.4841  -18.0370 C   0  0  0  0  0  0  0  0  0  0  0  0
   21.7515   -9.5398  -17.0813 O   0  0  0  0  0  0  0  0  0  0  0  0
   22.1955   -4.7000  -18.7910 C   0  0  0  0  0  0  0  0  0  0  0  0
   21.6284   -6.0041  -19.3384 C   0  0  1  0  0  0  0  0  0  0  0  0
   22.4143   -6.4957  -20.5063 C   0  0  0  0  0  0  0  0  0  0  0  0
   21.4755   -7.0324  -18.2383 C   0  0  2  0  0  0  0  0  0  0  0  0
   20.8224   -8.2329  -18.7052 N   0  0  0  0  0  0  0  0  0  0  0  0
   20.8313   -6.4189  -17.0765 C   0  0  0  0  0  0  0  0  0  0  0  0
   19.6407   -6.0190  -17.0422 O   0  0  0  0  0  0  0  0  0  0  0  0
   17.6967   -5.6964   -9.1204 O   0  0  0  0  0  0  0  0  0  0  0  0
   18.4568   -5.9830  -10.2417 C   0  0  0  0  0  0  0  0  0  0  0  0
   19.6502   -6.6716  -10.1618 C   0  0  0  0  0  0  0  0  0  0  0  0
   20.4011   -6.9547  -11.2711 C   0  0  0  0  0  0  0  0  0  0  0  0
   19.9870   -6.5554  -12.5378 C   0  0  0  0  0  0  0  0  0  0  0  0
   20.7969   -6.8517  -13.7170 C   0  0  0  0  0  0  0  0  0  0  0  0
   20.9549   -5.7087  -14.6880 C   0  0  2  0  0  0  0  0  0  0  0  0
   21.6061   -6.2608  -15.8939 N   0  0  0  0  0  0  0  0  0  0  0  0
   21.8426   -4.6933  -14.0757 C   0  0  0  0  0  0  0  0  0  0  0  0
   23.1029   -4.7447  -14.2407 O   0  0  0  0  0  0  0  0  0  0  0  0
   18.7939   -5.8683  -12.6046 C   0  0  0  0  0  0  0  0  0  0  0  0
   18.0385   -5.5844  -11.4830 C   0  0  0  0  0  0  0  0  0  0  0  0
   21.3733   -3.6466  -13.3039 O   0  0  0  0  0  0  0  0  0  0  0  0
  2  1  1  6
  2  4  1  0
  3  2  1  0
  4  6  1  0
  4  5  1  1
  6  7  2  0
  9 11  1  0
  9  8  1  1
 10  9  1  0
 11 12  1  6
 12  6  1  0
 13 14  2  0
 13 11  1  0
 15 16  1  0
 16 26  2  0
 16 17  1  0
 17 18  2  0
 18 19  1  0
 19 20  1  0
 21 20  1  1
 21 23  1  0
 21 22  1  0
 22 13  1  0
 23 27  1  0
 24 23  2  0
 25 19  2  0
 26 25  1  0
M  END
$$$$
