TVY.pdb
     RDKit          3D

 27 27  0  0  1  0  0  0  0  0999 V2000
   23.2497  -10.0796  -20.3756 C   0  0  0  0  0  0  0  0  0  0  0  0
   22.1210  -11.1006  -20.5246 C   0  0  1  0  0  0  0  0  0  0  0  0
   22.5797  -12.0477  -21.4400 O   0  0  0  0  0  0  0  0  0  0  0  0
   21.8944  -11.8108  -19.2176 C   0  0  2  0  0  0  0  0  0  0  0  0
   20.9287  -12.8714  -19.4314 N   0  0  0  0  0  0  0  0  0  0  0  0
   21.4338  -10.8928  -18.1457 C   0  0  0  0  0  0  0  0  0  0  0  0
   20.3441  -10.2763  -18.2643 O   0  0  0  0  0  0  0  0  0  0  0  0
   21.3195   -9.2486  -13.5359 C   0  0  0  0  0  0  0  0  0  0  0  0
   21.6404  -10.3087  -14.5824 C   0  0  1  0  0  0  0  0  0  0  0  0
   20.6736  -11.4425  -14.5279 C   0  0  0  0  0  0  0  0  0  0  0  0
   21.7683   -9.6906  -15.9582 C   0  0  2  0  0  0  0  0  0  0  0  0
   22.1717  -10.6578  -16.9518 N   0  0  0  0  0  0  0  0  0  0  0  0
   22.6332   -8.5122  -15.8904 C   0  0  0  0  0  0  0  0  0  0  0  0
   23.8790   -8.5244  -16.0526 O   0  0  0  0  0  0  0  0  0  0  0  0
   25.9690   -0.8685  -17.8854 O   0  0  0  0  0  0  0  0  0  0  0  0
   25.2829   -2.0547  -17.6869 C   0  0  0  0  0  0  0  0  0  0  0  0
   23.9083   -2.1313  -17.7833 C   0  0  0  0  0  0  0  0  0  0  0  0
   23.2306   -3.3047  -17.5870 C   0  0  0  0  0  0  0  0  0  0  0  0
   23.9076   -4.4804  -17.2790 C   0  0  0  0  0  0  0  0  0  0  0  0
   23.1789   -5.7276  -17.0611 C   0  0  0  0  0  0  0  0  0  0  0  0
   22.8681   -6.0432  -15.6196 C   0  0  2  0  0  0  0  0  0  0  0  0
   22.0234   -7.2554  -15.6212 N   0  0  0  0  0  0  0  0  0  0  0  0
   22.0992   -4.9135  -15.0479 C   0  0  0  0  0  0  0  0  0  0  0  0
   22.6870   -3.9771  -14.4188 O   0  0  0  0  0  0  0  0  0  0  0  0
   25.2800   -4.3911  -17.1851 C   0  0  0  0  0  0  0  0  0  0  0  0
   25.9607   -3.2052  -17.3840 C   0  0  0  0  0  0  0  0  0  0  0  0
   20.7255   -4.8026  -15.1578 O   0  0  0  0  0  0  0  0  0  0  0  0
  2  1  1  1
  2  4  1  0
  3  2  1  0
  4  6  1  0
  4  5  1  6
  6  7  2  0
  9 11  1  0
  9  8  1  1
 10  9  1  0
 11 12  1  6
 12  6  1  0
 13 14  2  0
 13 11  1  0
 15 16  1  0
 16 26  2  0
 16 17  1  0
 17 18  2  0
 18 19  1  0
 19 20  1  0
 21 20  1  6
 21 23  1  0
 21 22  1  0
 22 13  1  0
 23 27  1  0
 24 23  2  0
 25 19  2  0
 26 25  1  0
M  END
$$$$
