TVY.pdb
     RDKit          3D

 27 27  0  0  1  0  0  0  0  0999 V2000
   25.9858  -15.4098  -20.1376 C   0  0  0  0  0  0  0  0  0  0  0  0
   25.5818  -16.6486  -19.3370 C   0  0  1  0  0  0  0  0  0  0  0  0
   24.4715  -17.1820  -19.9911 O   0  0  0  0  0  0  0  0  0  0  0  0
   26.6770  -17.6787  -19.3963 C   0  0  2  0  0  0  0  0  0  0  0  0
   26.8815  -18.0536  -20.7822 N   0  0  0  0  0  0  0  0  0  0  0  0
   26.3758  -18.8748  -18.5702 C   0  0  0  0  0  0  0  0  0  0  0  0
   25.6803  -19.8111  -19.0406 O   0  0  0  0  0  0  0  0  0  0  0  0
   27.2353  -21.7917  -14.6589 C   0  0  0  0  0  0  0  0  0  0  0  0
   27.6461  -20.6263  -15.5504 C   0  0  1  0  0  0  0  0  0  0  0  0
   28.8800  -20.9391  -16.3270 C   0  0  0  0  0  0  0  0  0  0  0  0
   26.4893  -20.1706  -16.4137 C   0  0  2  0  0  0  0  0  0  0  0  0
   26.8397  -19.0352  -17.2345 N   0  0  0  0  0  0  0  0  0  0  0  0
   25.3059  -19.9583  -15.5796 C   0  0  0  0  0  0  0  0  0  0  0  0
   25.0669  -18.9142  -14.9229 O   0  0  0  0  0  0  0  0  0  0  0  0
   17.2957  -18.7978  -12.8844 O   0  0  0  0  0  0  0  0  0  0  0  0
   18.5166  -19.0394  -13.4911 C   0  0  0  0  0  0  0  0  0  0  0  0
   18.6611  -19.9654  -14.5042 C   0  0  0  0  0  0  0  0  0  0  0  0
   19.8688  -20.2036  -15.1038 C   0  0  0  0  0  0  0  0  0  0  0  0
   21.0119  -19.5142  -14.7118 C   0  0  0  0  0  0  0  0  0  0  0  0
   22.2998  -19.7791  -15.3483 C   0  0  0  0  0  0  0  0  0  0  0  0
   23.1509  -20.8174  -14.6616 C   0  0  2  0  0  0  0  0  0  0  0  0
   24.3504  -21.0095  -15.5027 N   0  0  0  0  0  0  0  0  0  0  0  0
   22.3874  -22.0854  -14.6038 C   0  0  0  0  0  0  0  0  0  0  0  0
   22.4486  -22.9271  -15.5555 O   0  0  0  0  0  0  0  0  0  0  0  0
   20.8548  -18.5923  -13.6990 C   0  0  0  0  0  0  0  0  0  0  0  0
   19.6345  -18.3544  -13.0962 C   0  0  0  0  0  0  0  0  0  0  0  0
   21.5780  -22.4317  -13.5377 O   0  0  0  0  0  0  0  0  0  0  0  0
  2  1  1  6
  2  4  1  0
  3  2  1  0
  4  6  1  0
  4  5  1  6
  6  7  2  0
  9 11  1  0
  9  8  1  6
 10  9  1  0
 11 12  1  1
 12  6  1  0
 13 14  2  0
 13 11  1  0
 15 16  1  0
 16 26  2  0
 16 17  1  0
 17 18  2  0
 18 19  1  0
 19 20  1  0
 21 20  1  6
 21 23  1  0
 21 22  1  0
 22 13  1  0
 23 27  1  0
 24 23  2  0
 25 19  2  0
 26 25  1  0
M  END
$$$$
