TVY.pdb
     RDKit          3D

 27 27  0  0  1  0  0  0  0  0999 V2000
   23.4842  -11.2705  -22.5362 C   0  0  0  0  0  0  0  0  0  0  0  0
   23.4714  -10.7906  -21.0842 C   0  0  1  0  0  0  0  0  0  0  0  0
   22.1470  -10.4554  -20.8034 O   0  0  0  0  0  0  0  0  0  0  0  0
   23.8542  -11.9197  -20.1662 C   0  0  2  0  0  0  0  0  0  0  0  0
   22.8751  -12.9800  -20.3077 N   0  0  0  0  0  0  0  0  0  0  0  0
   23.9570  -11.4887  -18.7494 C   0  0  0  0  0  0  0  0  0  0  0  0
   23.0120  -11.7100  -17.9496 O   0  0  0  0  0  0  0  0  0  0  0  0
   26.7452  -10.4104  -14.8294 C   0  0  0  0  0  0  0  0  0  0  0  0
   26.6065  -10.8290  -16.2879 C   0  0  1  0  0  0  0  0  0  0  0  0
   26.9840  -12.2579  -16.4859 C   0  0  0  0  0  0  0  0  0  0  0  0
   25.2311  -10.4890  -16.8207 C   0  0  2  0  0  0  0  0  0  0  0  0
   25.0952  -10.8183  -18.2203 N   0  0  0  0  0  0  0  0  0  0  0  0
   24.9103   -9.0970  -16.5038 C   0  0  0  0  0  0  0  0  0  0  0  0
   25.5133   -8.0968  -16.9669 O   0  0  0  0  0  0  0  0  0  0  0  0
   20.4476   -1.8465  -16.6303 O   0  0  0  0  0  0  0  0  0  0  0  0
   21.0153   -3.1093  -16.6455 C   0  0  0  0  0  0  0  0  0  0  0  0
   22.3485   -3.3171  -16.3554 C   0  0  0  0  0  0  0  0  0  0  0  0
   22.9091   -4.5662  -16.3705 C   0  0  0  0  0  0  0  0  0  0  0  0
   22.1491   -5.6890  -16.6824 C   0  0  0  0  0  0  0  0  0  0  0  0
   22.7544   -7.0183  -16.7064 C   0  0  0  0  0  0  0  0  0  0  0  0
   23.3801   -7.4596  -15.4073 C   0  0  2  0  0  0  0  0  0  0  0  0
   23.8356   -8.8513  -15.6046 N   0  0  0  0  0  0  0  0  0  0  0  0
   22.3400   -7.4315  -14.3530 C   0  0  0  0  0  0  0  0  0  0  0  0
   21.5880   -8.4377  -14.1522 O   0  0  0  0  0  0  0  0  0  0  0  0
   20.8192   -5.4686  -16.9706 C   0  0  0  0  0  0  0  0  0  0  0  0
   20.2568   -4.2066  -16.9542 C   0  0  0  0  0  0  0  0  0  0  0  0
   22.1225   -6.3378  -13.5357 O   0  0  0  0  0  0  0  0  0  0  0  0
  2  1  1  6
  2  4  1  0
  3  2  1  0
  4  6  1  0
  4  5  1  1
  6  7  2  0
  9 11  1  0
  9  8  1  1
 10  9  1  0
 11 12  1  6
 12  6  1  0
 13 14  2  0
 13 11  1  0
 15 16  1  0
 16 26  2  0
 16 17  1  0
 17 18  2  0
 18 19  1  0
 19 20  1  0
 21 20  1  6
 21 23  1  0
 21 22  1  0
 22 13  1  0
 23 27  1  0
 24 23  2  0
 25 19  2  0
 26 25  1  0
M  END
$$$$
