TVY.pdb
     RDKit          3D

 27 27  0  0  1  0  0  0  0  0999 V2000
   13.1367   -2.7707   -3.3050 C   0  0  0  0  0  0  0  0  0  0  0  0
   13.0825   -3.3979   -4.6987 C   0  0  1  0  0  0  0  0  0  0  0  0
   11.7476   -3.7410   -4.9126 O   0  0  0  0  0  0  0  0  0  0  0  0
   13.4564   -2.3756   -5.7375 C   0  0  2  0  0  0  0  0  0  0  0  0
   12.4363   -1.3451   -5.7571 N   0  0  0  0  0  0  0  0  0  0  0  0
   13.6226   -2.9724   -7.0866 C   0  0  0  0  0  0  0  0  0  0  0  0
   12.6141   -3.2828   -7.7708 O   0  0  0  0  0  0  0  0  0  0  0  0
   16.1040   -3.3992  -11.2581 C   0  0  0  0  0  0  0  0  0  0  0  0
   15.7335   -2.7496   -9.9306 C   0  0  1  0  0  0  0  0  0  0  0  0
   14.9563   -1.4934  -10.1336 C   0  0  0  0  0  0  0  0  0  0  0  0
   15.0487   -3.7413   -9.0146 C   0  0  2  0  0  0  0  0  0  0  0  0
   14.8935   -3.2244   -7.6751 N   0  0  0  0  0  0  0  0  0  0  0  0
   15.7401   -5.0293   -9.0782 C   0  0  0  0  0  0  0  0  0  0  0  0
   16.8327   -5.2875   -8.5142 O   0  0  0  0  0  0  0  0  0  0  0  0
   16.5273  -13.5085  -11.7547 O   0  0  0  0  0  0  0  0  0  0  0  0
   16.1408  -12.2757  -11.2571 C   0  0  0  0  0  0  0  0  0  0  0  0
   14.8883  -11.7481  -11.4974 C   0  0  0  0  0  0  0  0  0  0  0  0
   14.5068  -10.5289  -11.0047 C   0  0  0  0  0  0  0  0  0  0  0  0
   15.3759   -9.7639  -10.2334 C   0  0  0  0  0  0  0  0  0  0  0  0
   14.9671   -8.4594   -9.7183 C   0  0  0  0  0  0  0  0  0  0  0  0
   15.8940   -7.3191  -10.0570 C   0  0  2  0  0  0  0  0  0  0  0  0
   15.1344   -6.0716   -9.8335 N   0  0  0  0  0  0  0  0  0  0  0  0
   16.2564   -7.4196  -11.4897 C   0  0  0  0  0  0  0  0  0  0  0  0
   17.4020   -7.8442  -11.8441 O   0  0  0  0  0  0  0  0  0  0  0  0
   16.6238  -10.3012  -10.0006 C   0  0  0  0  0  0  0  0  0  0  0  0
   17.0054  -11.5320  -10.4992 C   0  0  0  0  0  0  0  0  0  0  0  0
   15.3954   -7.0688  -12.5130 O   0  0  0  0  0  0  0  0  0  0  0  0
  2  1  1  1
  2  4  1  0
  3  2  1  0
  4  6  1  0
  4  5  1  6
  6  7  2  0
  9 11  1  0
  9  8  1  6
 10  9  1  0
 11 12  1  1
 12  6  1  0
 13 14  2  0
 13 11  1  0
 15 16  1  0
 16 26  2  0
 16 17  1  0
 17 18  2  0
 18 19  1  0
 19 20  1  0
 21 20  1  6
 21 23  1  0
 21 22  1  0
 22 13  1  0
 23 27  1  0
 24 23  2  0
 25 19  2  0
 26 25  1  0
M  END
$$$$
