TVY.pdb
     RDKit          3D

 27 27  0  0  1  0  0  0  0  0999 V2000
   32.9951  -32.2034  -21.2183 C   0  0  0  0  0  0  0  0  0  0  0  0
   34.2145  -31.4428  -20.6955 C   0  0  1  0  0  0  0  0  0  0  0  0
   35.2924  -31.8668  -21.4726 O   0  0  0  0  0  0  0  0  0  0  0  0
   34.0410  -29.9672  -20.9336 C   0  0  2  0  0  0  0  0  0  0  0  0
   35.2179  -29.2796  -20.4384 N   0  0  0  0  0  0  0  0  0  0  0  0
   32.8138  -29.4300  -20.2938 C   0  0  0  0  0  0  0  0  0  0  0  0
   32.8742  -28.8944  -19.1575 O   0  0  0  0  0  0  0  0  0  0  0  0
   28.1424  -27.8267  -20.6207 C   0  0  0  0  0  0  0  0  0  0  0  0
   29.5267  -28.0984  -21.1966 C   0  0  1  0  0  0  0  0  0  0  0  0
   30.2212  -26.8338  -21.5731 C   0  0  0  0  0  0  0  0  0  0  0  0
   30.3365  -28.9781  -20.2683 C   0  0  2  0  0  0  0  0  0  0  0  0
   31.5298  -29.4842  -20.9048 N   0  0  0  0  0  0  0  0  0  0  0  0
   29.4778  -30.0189  -19.7023 C   0  0  0  0  0  0  0  0  0  0  0  0
   28.9458  -30.9483  -20.3595 O   0  0  0  0  0  0  0  0  0  0  0  0
   26.0195  -35.1792  -13.3741 O   0  0  0  0  0  0  0  0  0  0  0  0
   26.6970  -34.1991  -14.0795 C   0  0  0  0  0  0  0  0  0  0  0  0
   26.4484  -32.8549  -13.8895 C   0  0  0  0  0  0  0  0  0  0  0  0
   27.1189  -31.8864  -14.5875 C   0  0  0  0  0  0  0  0  0  0  0  0
   28.0887  -32.2217  -15.5268 C   0  0  0  0  0  0  0  0  0  0  0  0
   28.7944  -31.1846  -16.2756 C   0  0  0  0  0  0  0  0  0  0  0  0
   28.3610  -31.0254  -17.7112 C   0  0  2  0  0  0  0  0  0  0  0  0
   29.2226  -29.9813  -18.3033 N   0  0  0  0  0  0  0  0  0  0  0  0
   26.9536  -30.5637  -17.7272 C   0  0  0  0  0  0  0  0  0  0  0  0
   26.6645  -29.3457  -17.5008 O   0  0  0  0  0  0  0  0  0  0  0  0
   28.3279  -33.5671  -15.7078 C   0  0  0  0  0  0  0  0  0  0  0  0
   27.6494  -34.5419  -15.0016 C   0  0  0  0  0  0  0  0  0  0  0  0
   25.8860  -31.4037  -17.9841 O   0  0  0  0  0  0  0  0  0  0  0  0
  2  1  1  6
  2  4  1  0
  3  2  1  0
  4  6  1  0
  4  5  1  1
  6  7  2  0
  9 11  1  0
  9  8  1  1
 10  9  1  0
 11 12  1  6
 12  6  1  0
 13 14  2  0
 13 11  1  0
 15 16  1  0
 16 26  2  0
 16 17  1  0
 17 18  2  0
 18 19  1  0
 19 20  1  0
 21 20  1  1
 21 23  1  0
 21 22  1  0
 22 13  1  0
 23 27  1  0
 24 23  2  0
 25 19  2  0
 26 25  1  0
M  END
$$$$
