VHT.pdb
     RDKit          3D

 25 25  0  0  1  0  0  0  0  0999 V2000
    7.4517  -12.4138   19.5352 C   0  0  0  0  0  0  0  0  0  0  0  0
    8.2982  -13.4784   18.9333 C   0  0  2  0  0  0  0  0  0  0  0  0
    7.7334  -13.8687   17.5606 C   0  0  0  0  0  0  0  0  0  0  0  0
    8.4984  -14.7085   19.7536 C   0  0  2  0  0  0  0  0  0  0  0  0
    7.2645  -15.5186   19.6376 N   0  0  0  0  0  0  0  0  0  0  0  0
    8.8263  -14.4764   21.1696 C   0  0  0  0  0  0  0  0  0  0  0  0
    9.9755  -14.0423   21.4541 O   0  0  0  0  0  0  0  0  0  0  0  0
    7.9216  -14.7146   22.2000 N   0  0  0  0  0  0  0  0  0  0  0  0
    8.2137  -14.4138   23.6096 C   0  0  1  0  0  0  0  0  0  0  0  0
    6.9110  -13.8093   24.1533 C   0  0  0  0  0  0  0  0  0  0  0  0
    7.0794  -13.4032   25.5677 C   0  0  0  0  0  0  0  0  0  0  0  0
    7.7039  -12.2809   26.0800 C   0  0  0  0  0  0  0  0  0  0  0  0
    7.6167  -12.3225   27.4285 N   0  0  0  0  0  0  0  0  0  0  0  0
    6.9569  -13.4367   27.7720 C   0  0  0  0  0  0  0  0  0  0  0  0
    6.6364  -14.0837   26.6338 N   0  0  0  0  0  0  0  0  0  0  0  0
    8.4634  -15.6994   24.3047 C   0  0  0  0  0  0  0  0  0  0  0  0
    7.6928  -16.6798   24.1541 O   0  0  0  0  0  0  0  0  0  0  0  0
   12.2333  -16.7790   25.1170 C   0  0  0  0  0  0  0  0  0  0  0  0
   11.1220  -17.8065   25.1734 C   0  0  1  0  0  0  0  0  0  0  0  0
   11.4963  -18.9782   25.7937 O   0  0  0  0  0  0  0  0  0  0  0  0
    9.8938  -17.1746   25.7829 C   0  0  2  0  0  0  0  0  0  0  0  0
    9.5725  -15.9033   25.1724 N   0  0  0  0  0  0  0  0  0  0  0  0
   10.0241  -16.9785   27.2353 C   0  0  0  0  0  0  0  0  0  0  0  0
   10.1786  -18.0242   28.1364 O   0  0  0  0  0  0  0  0  0  0  0  0
    9.9992  -15.8266   27.7213 O   0  0  0  0  0  0  0  0  0  0  0  0
  2  1  1  1
  2  3  1  0
  4  6  1  0
  4  2  1  0
  4  5  1  1
  6  7  2  0
  8  9  1  0
  8  6  1  0
  9 10  1  1
 10 11  1  0
 11 12  2  0
 13 12  1  0
 14 13  1  0
 15 14  2  0
 15 11  1  0
 16  9  1  0
 17 16  2  0
 19 18  1  1
 19 20  1  0
 19 21  1  0
 21 22  1  6
 22 16  1  0
 23 21  1  0
 23 24  1  0
 25 23  2  0
M  END
$$$$
