VHT.pdb
     RDKit          3D

 25 25  0  0  1  0  0  0  0  0999 V2000
    7.3716  -13.6450   20.6204 C   0  0  0  0  0  0  0  0  0  0  0  0
    8.4293  -13.2497   19.6524 C   0  0  2  0  0  0  0  0  0  0  0  0
    7.9206  -12.0942   18.7796 C   0  0  0  0  0  0  0  0  0  0  0  0
    8.9640  -14.3329   18.7765 C   0  0  2  0  0  0  0  0  0  0  0  0
    7.8643  -14.7539   17.8790 N   0  0  0  0  0  0  0  0  0  0  0  0
    9.5221  -15.4976   19.4825 C   0  0  0  0  0  0  0  0  0  0  0  0
    8.7829  -16.5050   19.6520 O   0  0  0  0  0  0  0  0  0  0  0  0
   10.8269  -15.5301   19.9656 N   0  0  0  0  0  0  0  0  0  0  0  0
   11.3461  -16.6235   20.8008 C   0  0  1  0  0  0  0  0  0  0  0  0
   12.8477  -16.6724   20.4831 C   0  0  0  0  0  0  0  0  0  0  0  0
   13.1031  -17.5580   19.3237 C   0  0  0  0  0  0  0  0  0  0  0  0
   12.2467  -18.4540   18.7106 C   0  0  0  0  0  0  0  0  0  0  0  0
   12.9075  -19.0454   17.6902 N   0  0  0  0  0  0  0  0  0  0  0  0
   14.1496  -18.5451   17.6487 C   0  0  0  0  0  0  0  0  0  0  0  0
   14.2556  -17.6436   18.6452 N   0  0  0  0  0  0  0  0  0  0  0  0
   11.1768  -16.2290   22.2200 C   0  0  0  0  0  0  0  0  0  0  0  0
   11.4892  -15.0788   22.6163 O   0  0  0  0  0  0  0  0  0  0  0  0
    8.6485  -16.4996   26.3329 C   0  0  0  0  0  0  0  0  0  0  0  0
    8.8761  -16.8137   24.8688 C   0  0  1  0  0  0  0  0  0  0  0  0
    8.0915  -16.0606   24.0231 O   0  0  0  0  0  0  0  0  0  0  0  0
   10.3511  -16.7110   24.5638 C   0  0  2  0  0  0  0  0  0  0  0  0
   10.6585  -17.1117   23.2083 N   0  0  0  0  0  0  0  0  0  0  0  0
   11.1733  -17.5085   25.4872 C   0  0  0  0  0  0  0  0  0  0  0  0
   11.5685  -17.0590   26.7406 O   0  0  0  0  0  0  0  0  0  0  0  0
   11.5554  -18.6543   25.1629 O   0  0  0  0  0  0  0  0  0  0  0  0
  2  1  1  6
  2  3  1  0
  4  6  1  0
  4  2  1  0
  4  5  1  6
  6  7  2  0
  8  9  1  0
  8  6  1  0
  9 10  1  6
 10 11  1  0
 11 12  2  0
 13 12  1  0
 14 13  1  0
 15 14  2  0
 15 11  1  0
 16  9  1  0
 17 16  2  0
 19 18  1  1
 19 20  1  0
 19 21  1  0
 21 22  1  6
 22 16  1  0
 23 21  1  0
 23 24  1  0
 25 23  2  0
M  END
$$$$
