VHT.pdb
     RDKit          3D

 25 25  0  0  1  0  0  0  0  0999 V2000
    4.3112  -19.3625   22.8684 C   0  0  0  0  0  0  0  0  0  0  0  0
    3.8676  -18.3159   21.9092 C   0  0  2  0  0  0  0  0  0  0  0  0
    2.5271  -18.7268   21.2847 C   0  0  0  0  0  0  0  0  0  0  0  0
    4.8296  -17.9599   20.8256 C   0  0  2  0  0  0  0  0  0  0  0  0
    5.0160  -19.1681   19.9904 N   0  0  0  0  0  0  0  0  0  0  0  0
    6.1320  -17.4473   21.2812 C   0  0  0  0  0  0  0  0  0  0  0  0
    7.1202  -18.2305   21.2699 O   0  0  0  0  0  0  0  0  0  0  0  0
    6.3138  -16.1391   21.7196 N   0  0  0  0  0  0  0  0  0  0  0  0
    7.5746  -15.6563   22.3027 C   0  0  1  0  0  0  0  0  0  0  0  0
    7.5395  -14.1355   22.0933 C   0  0  0  0  0  0  0  0  0  0  0  0
    7.9299  -13.7947   20.7058 C   0  0  0  0  0  0  0  0  0  0  0  0
    7.2500  -13.0296   19.7760 C   0  0  0  0  0  0  0  0  0  0  0  0
    7.9833  -12.9868   18.6410 N   0  0  0  0  0  0  0  0  0  0  0  0
    9.0994  -13.7019   18.8354 C   0  0  0  0  0  0  0  0  0  0  0  0
    9.0549  -14.1867   20.0922 N   0  0  0  0  0  0  0  0  0  0  0  0
    7.5354  -15.9331   23.7589 C   0  0  0  0  0  0  0  0  0  0  0  0
    6.5560  -15.5793   24.4613 O   0  0  0  0  0  0  0  0  0  0  0  0
    8.0224  -18.9548   27.3320 C   0  0  0  0  0  0  0  0  0  0  0  0
    7.9825  -18.4947   25.8895 C   0  0  1  0  0  0  0  0  0  0  0  0
    6.7512  -18.6703   25.2971 O   0  0  0  0  0  0  0  0  0  0  0  0
    8.4862  -17.0738   25.8088 C   0  0  2  0  0  0  0  0  0  0  0  0
    8.5857  -16.6055   24.4438 N   0  0  0  0  0  0  0  0  0  0  0  0
    9.7942  -16.9029   26.4604 C   0  0  0  0  0  0  0  0  0  0  0  0
   10.0052  -17.1143   27.8170 O   0  0  0  0  0  0  0  0  0  0  0  0
   10.7908  -16.5502   25.7924 O   0  0  0  0  0  0  0  0  0  0  0  0
  2  1  1  6
  2  3  1  0
  4  6  1  0
  4  2  1  0
  4  5  1  1
  6  7  2  0
  8  9  1  0
  8  6  1  0
  9 10  1  1
 10 11  1  0
 11 12  2  0
 13 12  1  0
 14 13  1  0
 15 14  2  0
 15 11  1  0
 16  9  1  0
 17 16  2  0
 19 18  1  1
 19 20  1  0
 19 21  1  0
 21 22  1  6
 22 16  1  0
 23 21  1  0
 23 24  1  0
 25 23  2  0
M  END
$$$$
