VHT.pdb
     RDKit          3D

 25 25  0  0  1  0  0  0  0  0999 V2000
    7.5256  -12.4741   18.6856 C   0  0  0  0  0  0  0  0  0  0  0  0
    7.6578  -13.4509   19.7993 C   0  0  2  0  0  0  0  0  0  0  0  0
    8.1537  -12.7287   21.0595 C   0  0  0  0  0  0  0  0  0  0  0  0
    8.5209  -14.6399   19.5387 C   0  0  2  0  0  0  0  0  0  0  0  0
    7.9435  -15.3547   18.3778 N   0  0  0  0  0  0  0  0  0  0  0  0
    8.6869  -15.5605   20.6751 C   0  0  0  0  0  0  0  0  0  0  0  0
    7.7129  -16.2932   20.9986 O   0  0  0  0  0  0  0  0  0  0  0  0
    9.8708  -15.6540   21.4007 N   0  0  0  0  0  0  0  0  0  0  0  0
   10.0379  -16.5552   22.5507 C   0  0  1  0  0  0  0  0  0  0  0  0
   11.4996  -17.0187   22.4688 C   0  0  0  0  0  0  0  0  0  0  0  0
   11.6343  -18.1408   21.5116 C   0  0  0  0  0  0  0  0  0  0  0  0
   10.8476  -19.2706   21.3825 C   0  0  0  0  0  0  0  0  0  0  0  0
   11.3434  -20.0224   20.3741 N   0  0  0  0  0  0  0  0  0  0  0  0
   12.4150  -19.3954   19.8710 C   0  0  0  0  0  0  0  0  0  0  0  0
   12.5809  -18.2548   20.5699 N   0  0  0  0  0  0  0  0  0  0  0  0
    9.8662  -15.7514   23.7847 C   0  0  0  0  0  0  0  0  0  0  0  0
   10.3401  -14.5918   23.8759 O   0  0  0  0  0  0  0  0  0  0  0  0
    7.5915  -13.6597   25.1162 C   0  0  0  0  0  0  0  0  0  0  0  0
    7.5958  -14.7825   26.1326 C   0  0  1  0  0  0  0  0  0  0  0  0
    6.5502  -15.6651   25.9715 O   0  0  0  0  0  0  0  0  0  0  0  0
    8.9486  -15.4525   26.1248 C   0  0  2  0  0  0  0  0  0  0  0  0
    9.1660  -16.2324   24.9261 N   0  0  0  0  0  0  0  0  0  0  0  0
    9.1524  -16.3219   27.2941 C   0  0  0  0  0  0  0  0  0  0  0  0
    9.2360  -15.8443   28.5958 O   0  0  0  0  0  0  0  0  0  0  0  0
    9.2605  -17.5593   27.1493 O   0  0  0  0  0  0  0  0  0  0  0  0
  2  1  1  6
  2  3  1  0
  4  6  1  0
  4  2  1  0
  4  5  1  6
  6  7  2  0
  8  9  1  0
  8  6  1  0
  9 10  1  1
 10 11  1  0
 11 12  2  0
 13 12  1  0
 14 13  1  0
 15 14  2  0
 15 11  1  0
 16  9  1  0
 17 16  2  0
 19 18  1  6
 19 20  1  0
 19 21  1  0
 21 22  1  6
 22 16  1  0
 23 21  1  0
 23 24  1  0
 25 23  2  0
M  END
$$$$
