VHT.pdb
     RDKit          3D

 25 25  0  0  1  0  0  0  0  0999 V2000
    5.3745  -23.4473   21.2036 C   0  0  0  0  0  0  0  0  0  0  0  0
    6.6020  -23.0057   20.4892 C   0  0  2  0  0  0  0  0  0  0  0  0
    7.7567  -22.8661   21.4907 C   0  0  0  0  0  0  0  0  0  0  0  0
    6.4875  -21.7519   19.6885 C   0  0  2  0  0  0  0  0  0  0  0  0
    5.5016  -22.0067   18.6136 N   0  0  0  0  0  0  0  0  0  0  0  0
    7.7481  -21.2504   19.1176 C   0  0  0  0  0  0  0  0  0  0  0  0
    8.2606  -21.8806   18.1531 O   0  0  0  0  0  0  0  0  0  0  0  0
    8.3912  -20.1132   19.5974 N   0  0  0  0  0  0  0  0  0  0  0  0
    9.6875  -19.6472   19.0824 C   0  0  1  0  0  0  0  0  0  0  0  0
    9.4353  -18.1920   18.6620 C   0  0  0  0  0  0  0  0  0  0  0  0
    8.7934  -18.1422   17.3281 C   0  0  0  0  0  0  0  0  0  0  0  0
    7.4706  -17.8949   17.0102 C   0  0  0  0  0  0  0  0  0  0  0  0
    7.3380  -17.9482   15.6659 N   0  0  0  0  0  0  0  0  0  0  0  0
    8.5380  -18.2211   15.1364 C   0  0  0  0  0  0  0  0  0  0  0  0
    9.4125  -18.3365   16.1556 N   0  0  0  0  0  0  0  0  0  0  0  0
   10.6509  -19.6525   20.2095 C   0  0  0  0  0  0  0  0  0  0  0  0
   10.3486  -19.1601   21.3248 O   0  0  0  0  0  0  0  0  0  0  0  0
   14.6924  -22.0181   21.3638 C   0  0  0  0  0  0  0  0  0  0  0  0
   13.1906  -21.8428   21.4533 C   0  0  1  0  0  0  0  0  0  0  0  0
   12.6517  -22.3569   22.6123 O   0  0  0  0  0  0  0  0  0  0  0  0
   12.8474  -20.3899   21.2289 C   0  0  2  0  0  0  0  0  0  0  0  0
   11.9575  -20.2056   20.1035 N   0  0  0  0  0  0  0  0  0  0  0  0
   14.0414  -19.5548   21.0251 C   0  0  0  0  0  0  0  0  0  0  0  0
   14.8079  -19.0506   22.0680 O   0  0  0  0  0  0  0  0  0  0  0  0
   14.4172  -19.2624   19.8688 O   0  0  0  0  0  0  0  0  0  0  0  0
  2  1  1  1
  2  3  1  0
  4  6  1  0
  4  2  1  0
  4  5  1  6
  6  7  2  0
  8  9  1  0
  8  6  1  0
  9 10  1  1
 10 11  1  0
 11 12  2  0
 13 12  1  0
 14 13  1  0
 15 14  2  0
 15 11  1  0
 16  9  1  0
 17 16  2  0
 19 18  1  1
 19 20  1  0
 19 21  1  0
 21 22  1  6
 22 16  1  0
 23 21  1  0
 23 24  1  0
 25 23  2  0
M  END
$$$$
