VHT.pdb
     RDKit          3D

 25 25  0  0  1  0  0  0  0  0999 V2000
    9.3557  -21.0091   19.3558 C   0  0  0  0  0  0  0  0  0  0  0  0
    8.0317  -20.3603   19.1604 C   0  0  2  0  0  0  0  0  0  0  0  0
    7.1834  -21.2039   18.1989 C   0  0  0  0  0  0  0  0  0  0  0  0
    8.0508  -18.9442   18.6907 C   0  0  2  0  0  0  0  0  0  0  0  0
    8.5176  -18.9546   17.2857 N   0  0  0  0  0  0  0  0  0  0  0  0
    8.8705  -18.0235   19.4950 C   0  0  0  0  0  0  0  0  0  0  0  0
   10.0997  -17.9298   19.2297 O   0  0  0  0  0  0  0  0  0  0  0  0
    8.3438  -17.2558   20.5294 N   0  0  0  0  0  0  0  0  0  0  0  0
    9.1564  -16.3366   21.3403 C   0  0  1  0  0  0  0  0  0  0  0  0
    8.1766  -15.2377   21.7768 C   0  0  0  0  0  0  0  0  0  0  0  0
    7.9519  -14.2760   20.6730 C   0  0  0  0  0  0  0  0  0  0  0  0
    8.5197  -14.2535   19.4124 C   0  0  0  0  0  0  0  0  0  0  0  0
    8.0201  -13.1933   18.7386 N   0  0  0  0  0  0  0  0  0  0  0  0
    7.1582  -12.5545   19.5410 C   0  0  0  0  0  0  0  0  0  0  0  0
    7.1259  -13.2215   20.7118 N   0  0  0  0  0  0  0  0  0  0  0  0
    9.6065  -17.0733   22.5458 C   0  0  0  0  0  0  0  0  0  0  0  0
    8.8280  -17.8371   23.1688 O   0  0  0  0  0  0  0  0  0  0  0  0
   13.0301  -19.6370   24.6780 C   0  0  0  0  0  0  0  0  0  0  0  0
   12.3733  -18.8914   23.5349 C   0  0  1  0  0  0  0  0  0  0  0  0
   11.7512  -19.7231   22.6299 O   0  0  0  0  0  0  0  0  0  0  0  0
   11.4583  -17.8301   24.0967 C   0  0  2  0  0  0  0  0  0  0  0  0
   10.9263  -16.9653   23.0665 N   0  0  0  0  0  0  0  0  0  0  0  0
   12.1203  -16.9974   25.1132 C   0  0  0  0  0  0  0  0  0  0  0  0
   12.2943  -17.3963   26.4323 O   0  0  0  0  0  0  0  0  0  0  0  0
   12.5620  -15.8667   24.8127 O   0  0  0  0  0  0  0  0  0  0  0  0
  2  1  1  6
  2  3  1  0
  4  6  1  0
  4  2  1  0
  4  5  1  6
  6  7  2  0
  8  9  1  0
  8  6  1  0
  9 10  1  1
 10 11  1  0
 11 12  2  0
 13 12  1  0
 14 13  1  0
 15 14  2  0
 15 11  1  0
 16  9  1  0
 17 16  2  0
 19 18  1  1
 19 20  1  0
 19 21  1  0
 21 22  1  6
 22 16  1  0
 23 21  1  0
 23 24  1  0
 25 23  2  0
M  END
$$$$
