VHT.pdb
     RDKit          3D

 25 25  0  0  1  0  0  0  0  0999 V2000
    7.9331  -13.6919   20.7416 C   0  0  0  0  0  0  0  0  0  0  0  0
    8.6876  -12.9095   19.7264 C   0  0  2  0  0  0  0  0  0  0  0  0
    7.7878  -11.8040   19.1574 C   0  0  0  0  0  0  0  0  0  0  0  0
    9.2871  -13.6866   18.6026 C   0  0  2  0  0  0  0  0  0  0  0  0
    8.1693  -14.2850   17.8380 N   0  0  0  0  0  0  0  0  0  0  0  0
   10.2507  -14.7267   18.9978 C   0  0  0  0  0  0  0  0  0  0  0  0
    9.8637  -15.9267   19.0113 O   0  0  0  0  0  0  0  0  0  0  0  0
   11.5650  -14.4384   19.3533 N   0  0  0  0  0  0  0  0  0  0  0  0
   12.5290  -15.4694   19.7661 C   0  0  1  0  0  0  0  0  0  0  0  0
   13.9045  -14.8353   19.5132 C   0  0  0  0  0  0  0  0  0  0  0  0
   14.3416  -15.0850   18.1202 C   0  0  0  0  0  0  0  0  0  0  0  0
   14.3323  -16.2694   17.4068 C   0  0  0  0  0  0  0  0  0  0  0  0
   14.8227  -16.0264   16.1706 N   0  0  0  0  0  0  0  0  0  0  0  0
   15.1371  -14.7265   16.0920 C   0  0  0  0  0  0  0  0  0  0  0  0
   14.8404  -14.1665   17.2816 N   0  0  0  0  0  0  0  0  0  0  0  0
   12.3683  -15.6815   21.2248 C   0  0  0  0  0  0  0  0  0  0  0  0
   12.4637  -14.7261   22.0346 O   0  0  0  0  0  0  0  0  0  0  0  0
   10.6596  -18.4806   24.9213 C   0  0  0  0  0  0  0  0  0  0  0  0
   10.7948  -18.2339   23.4331 C   0  0  1  0  0  0  0  0  0  0  0  0
    9.5946  -17.9536   22.8175 O   0  0  0  0  0  0  0  0  0  0  0  0
   11.8463  -17.1761   23.1999 C   0  0  2  0  0  0  0  0  0  0  0  0
   12.1005  -16.9583   21.7927 N   0  0  0  0  0  0  0  0  0  0  0  0
   13.1204  -17.4934   23.8637 C   0  0  0  0  0  0  0  0  0  0  0  0
   13.3943  -17.1689   25.1862 O   0  0  0  0  0  0  0  0  0  0  0  0
   14.0275  -18.0850   23.2384 O   0  0  0  0  0  0  0  0  0  0  0  0
  2  1  1  1
  2  3  1  0
  4  6  1  0
  4  2  1  0
  4  5  1  1
  6  7  2  0
  8  9  1  0
  8  6  1  0
  9 10  1  1
 10 11  1  0
 11 12  2  0
 13 12  1  0
 14 13  1  0
 15 14  2  0
 15 11  1  0
 16  9  1  0
 17 16  2  0
 19 18  1  1
 19 20  1  0
 19 21  1  0
 21 22  1  6
 22 16  1  0
 23 21  1  0
 23 24  1  0
 25 23  2  0
M  END
$$$$
