VHT.pdb
     RDKit          3D

 25 25  0  0  1  0  0  0  0  0999 V2000
    7.3330  -12.5741   20.8320 C   0  0  0  0  0  0  0  0  0  0  0  0
    8.3671  -13.5091   20.3139 C   0  0  2  0  0  0  0  0  0  0  0  0
    8.7456  -13.1127   18.8802 C   0  0  0  0  0  0  0  0  0  0  0  0
    8.0261  -14.9612   20.3519 C   0  0  2  0  0  0  0  0  0  0  0  0
    6.9661  -15.1891   19.3437 N   0  0  0  0  0  0  0  0  0  0  0  0
    7.6027  -15.4759   21.6642 C   0  0  0  0  0  0  0  0  0  0  0  0
    6.3696  -15.5040   21.9263 O   0  0  0  0  0  0  0  0  0  0  0  0
    8.5055  -15.9317   22.6203 N   0  0  0  0  0  0  0  0  0  0  0  0
    8.0936  -16.4136   23.9473 C   0  0  1  0  0  0  0  0  0  0  0  0
    8.1929  -17.9430   23.8506 C   0  0  0  0  0  0  0  0  0  0  0  0
    7.9496  -18.5624   25.1737 C   0  0  0  0  0  0  0  0  0  0  0  0
    7.6626  -17.9494   26.3794 C   0  0  0  0  0  0  0  0  0  0  0  0
    7.5181  -18.9082   27.3216 N   0  0  0  0  0  0  0  0  0  0  0  0
    7.7065  -20.1000   26.7395 C   0  0  0  0  0  0  0  0  0  0  0  0
    7.9675  -19.8764   25.4362 N   0  0  0  0  0  0  0  0  0  0  0  0
    9.0938  -15.9373   24.9327 C   0  0  0  0  0  0  0  0  0  0  0  0
   10.3234  -16.1162   24.7487 O   0  0  0  0  0  0  0  0  0  0  0  0
    9.3224  -12.4800   27.1138 C   0  0  0  0  0  0  0  0  0  0  0  0
    9.2239  -13.7200   27.9780 C   0  0  1  0  0  0  0  0  0  0  0  0
    7.9835  -13.8830   28.5549 O   0  0  0  0  0  0  0  0  0  0  0  0
    9.6715  -14.9188   27.1769 C   0  0  2  0  0  0  0  0  0  0  0  0
    8.7329  -15.2585   26.1300 N   0  0  0  0  0  0  0  0  0  0  0  0
    9.8887  -16.1072   28.0167 C   0  0  0  0  0  0  0  0  0  0  0  0
   10.8714  -16.1815   28.9956 O   0  0  0  0  0  0  0  0  0  0  0  0
    9.1723  -17.1219   27.8717 O   0  0  0  0  0  0  0  0  0  0  0  0
  2  1  1  6
  2  3  1  0
  4  6  1  0
  4  2  1  0
  4  5  1  6
  6  7  2  0
  8  9  1  0
  8  6  1  0
  9 10  1  6
 10 11  1  0
 11 12  2  0
 13 12  1  0
 14 13  1  0
 15 14  2  0
 15 11  1  0
 16  9  1  0
 17 16  2  0
 19 18  1  6
 19 20  1  0
 19 21  1  0
 21 22  1  6
 22 16  1  0
 23 21  1  0
 23 24  1  0
 25 23  2  0
M  END
$$$$
