VHT.pdb
     RDKit          3D

 25 25  0  0  1  0  0  0  0  0999 V2000
    3.5058  -19.9211   20.8021 C   0  0  0  0  0  0  0  0  0  0  0  0
    4.6625  -19.2288   21.4304 C   0  0  2  0  0  0  0  0  0  0  0  0
    4.1950  -18.4890   22.6913 C   0  0  0  0  0  0  0  0  0  0  0  0
    5.4245  -18.2876   20.5587 C   0  0  2  0  0  0  0  0  0  0  0  0
    5.8899  -19.0581   19.3831 N   0  0  0  0  0  0  0  0  0  0  0  0
    6.5580  -17.6063   21.2048 C   0  0  0  0  0  0  0  0  0  0  0  0
    7.6460  -18.2332   21.3198 O   0  0  0  0  0  0  0  0  0  0  0  0
    6.4759  -16.3041   21.6890 N   0  0  0  0  0  0  0  0  0  0  0  0
    7.5866  -15.6346   22.3824 C   0  0  1  0  0  0  0  0  0  0  0  0
    7.3404  -14.1368   22.1495 C   0  0  0  0  0  0  0  0  0  0  0  0
    7.8418  -13.7308   20.8163 C   0  0  0  0  0  0  0  0  0  0  0  0
    8.4996  -14.4920   19.8676 C   0  0  0  0  0  0  0  0  0  0  0  0
    8.7683  -13.7055   18.8013 N   0  0  0  0  0  0  0  0  0  0  0  0
    8.2979  -12.4774   19.0568 C   0  0  0  0  0  0  0  0  0  0  0  0
    7.7381  -12.5060   20.2825 N   0  0  0  0  0  0  0  0  0  0  0  0
    7.4505  -15.9152   23.8320 C   0  0  0  0  0  0  0  0  0  0  0  0
    6.5274  -15.3992   24.5097 O   0  0  0  0  0  0  0  0  0  0  0  0
    7.4247  -18.8711   27.5287 C   0  0  0  0  0  0  0  0  0  0  0  0
    7.6049  -18.5514   26.0593 C   0  0  1  0  0  0  0  0  0  0  0  0
    6.4647  -18.7589   25.3143 O   0  0  0  0  0  0  0  0  0  0  0  0
    8.1620  -17.1551   25.9209 C   0  0  2  0  0  0  0  0  0  0  0  0
    8.3407  -16.7720   24.5376 N   0  0  0  0  0  0  0  0  0  0  0  0
    9.4439  -16.9888   26.6236 C   0  0  0  0  0  0  0  0  0  0  0  0
   10.6272  -16.6444   25.9829 O   0  0  0  0  0  0  0  0  0  0  0  0
    9.5119  -17.1577   27.8609 O   0  0  0  0  0  0  0  0  0  0  0  0
  2  1  1  6
  2  3  1  0
  4  6  1  0
  4  2  1  0
  4  5  1  6
  6  7  2  0
  8  9  1  0
  8  6  1  0
  9 10  1  1
 10 11  1  0
 11 12  2  0
 13 12  1  0
 14 13  1  0
 15 14  2  0
 15 11  1  0
 16  9  1  0
 17 16  2  0
 19 18  1  1
 19 20  1  0
 19 21  1  0
 21 22  1  6
 22 16  1  0
 23 21  1  0
 23 24  1  0
 25 23  2  0
M  END
$$$$
