VHT.pdb
     RDKit          3D

 25 25  0  0  1  0  0  0  0  0999 V2000
    7.0582  -14.3147   19.8394 C   0  0  0  0  0  0  0  0  0  0  0  0
    8.2155  -15.1607   19.4433 C   0  0  2  0  0  0  0  0  0  0  0  0
    7.8848  -15.9072   18.1436 C   0  0  0  0  0  0  0  0  0  0  0  0
    8.7036  -16.1348   20.4627 C   0  0  2  0  0  0  0  0  0  0  0  0
    7.7372  -17.2560   20.4958 N   0  0  0  0  0  0  0  0  0  0  0  0
    8.8991  -15.5882   21.8153 C   0  0  0  0  0  0  0  0  0  0  0  0
    9.8073  -14.7307   21.9884 O   0  0  0  0  0  0  0  0  0  0  0  0
    8.1236  -15.9778   22.9032 N   0  0  0  0  0  0  0  0  0  0  0  0
    8.3960  -15.5398   24.2804 C   0  0  1  0  0  0  0  0  0  0  0  0
    7.0382  -15.0520   24.8062 C   0  0  0  0  0  0  0  0  0  0  0  0
    7.2252  -14.1568   25.9712 C   0  0  0  0  0  0  0  0  0  0  0  0
    8.4003  -13.7712   26.5896 C   0  0  0  0  0  0  0  0  0  0  0  0
    8.0917  -12.9447   27.6140 N   0  0  0  0  0  0  0  0  0  0  0  0
    6.7600  -12.8036   27.6527 C   0  0  0  0  0  0  0  0  0  0  0  0
    6.2460  -13.5441   26.6506 N   0  0  0  0  0  0  0  0  0  0  0  0
    8.8042  -16.7316   25.0624 C   0  0  0  0  0  0  0  0  0  0  0  0
    8.1314  -17.7918   25.0296 O   0  0  0  0  0  0  0  0  0  0  0  0
   11.6447  -18.8153   24.7108 C   0  0  0  0  0  0  0  0  0  0  0  0
   11.7417  -18.4202   26.1697 C   0  0  1  0  0  0  0  0  0  0  0  0
   12.7750  -17.5465   26.4284 O   0  0  0  0  0  0  0  0  0  0  0  0
   10.3990  -17.9108   26.6352 C   0  0  2  0  0  0  0  0  0  0  0  0
    9.9640  -16.7522   25.8864 N   0  0  0  0  0  0  0  0  0  0  0  0
   10.3907  -17.5746   28.0675 C   0  0  0  0  0  0  0  0  0  0  0  0
   10.5586  -18.5167   29.0743 O   0  0  0  0  0  0  0  0  0  0  0  0
   10.2268  -16.3911   28.4370 O   0  0  0  0  0  0  0  0  0  0  0  0
  2  1  1  1
  2  3  1  0
  4  6  1  0
  4  2  1  0
  4  5  1  1
  6  7  2  0
  8  9  1  0
  8  6  1  0
  9 10  1  1
 10 11  1  0
 11 12  2  0
 13 12  1  0
 14 13  1  0
 15 14  2  0
 15 11  1  0
 16  9  1  0
 17 16  2  0
 19 18  1  6
 19 20  1  0
 19 21  1  0
 21 22  1  6
 22 16  1  0
 23 21  1  0
 23 24  1  0
 25 23  2  0
M  END
$$$$
