VHT.pdb
     RDKit          3D

 25 25  0  0  1  0  0  0  0  0999 V2000
    7.6827  -13.7385   20.4004 C   0  0  0  0  0  0  0  0  0  0  0  0
    8.3953  -12.9002   19.3997 C   0  0  2  0  0  0  0  0  0  0  0  0
    7.4263  -11.8636   18.8148 C   0  0  0  0  0  0  0  0  0  0  0  0
    9.0715  -13.6284   18.2866 C   0  0  2  0  0  0  0  0  0  0  0  0
    8.0135  -14.2865   17.4867 N   0  0  0  0  0  0  0  0  0  0  0  0
   10.0860  -14.6114   18.7000 C   0  0  0  0  0  0  0  0  0  0  0  0
    9.7306  -15.8125   18.8457 O   0  0  0  0  0  0  0  0  0  0  0  0
   11.4145  -14.2686   18.9330 N   0  0  0  0  0  0  0  0  0  0  0  0
   12.4006  -15.2091   19.4860 C   0  0  1  0  0  0  0  0  0  0  0  0
   13.7620  -14.6082   19.1071 C   0  0  0  0  0  0  0  0  0  0  0  0
   14.1735  -15.0665   17.7601 C   0  0  0  0  0  0  0  0  0  0  0  0
   13.6580  -16.1002   17.0000 C   0  0  0  0  0  0  0  0  0  0  0  0
   14.3425  -16.1555   15.8355 N   0  0  0  0  0  0  0  0  0  0  0  0
   15.2688  -15.1877   15.8469 C   0  0  0  0  0  0  0  0  0  0  0  0
   15.1558  -14.5341   17.0202 N   0  0  0  0  0  0  0  0  0  0  0  0
   12.2694  -15.1863   20.9628 C   0  0  0  0  0  0  0  0  0  0  0  0
   12.7339  -14.2372   21.6417 O   0  0  0  0  0  0  0  0  0  0  0  0
    9.2527  -15.1510   23.1684 C   0  0  0  0  0  0  0  0  0  0  0  0
   10.0364  -16.3860   23.5617 C   0  0  1  0  0  0  0  0  0  0  0  0
    9.4678  -17.5569   23.1104 O   0  0  0  0  0  0  0  0  0  0  0  0
   11.4742  -16.2172   23.1336 C   0  0  2  0  0  0  0  0  0  0  0  0
   11.6204  -16.2197   21.6945 N   0  0  0  0  0  0  0  0  0  0  0  0
   12.3541  -17.2533   23.6968 C   0  0  0  0  0  0  0  0  0  0  0  0
   12.6407  -17.3580   25.0519 O   0  0  0  0  0  0  0  0  0  0  0  0
   12.8898  -18.1008   22.9494 O   0  0  0  0  0  0  0  0  0  0  0  0
  2  1  1  1
  2  3  1  0
  4  6  1  0
  4  2  1  0
  4  5  1  1
  6  7  2  0
  8  9  1  0
  8  6  1  0
  9 10  1  1
 10 11  1  0
 11 12  2  0
 13 12  1  0
 14 13  1  0
 15 14  2  0
 15 11  1  0
 16  9  1  0
 17 16  2  0
 19 18  1  6
 19 20  1  0
 19 21  1  0
 21 22  1  6
 22 16  1  0
 23 21  1  0
 23 24  1  0
 25 23  2  0
M  END
$$$$
