VHT.pdb
     RDKit          3D

 25 25  0  0  1  0  0  0  0  0999 V2000
    7.9999  -13.8070   20.3815 C   0  0  0  0  0  0  0  0  0  0  0  0
    8.8334  -13.0061   19.4456 C   0  0  2  0  0  0  0  0  0  0  0  0
    7.9879  -11.8749   18.8447 C   0  0  0  0  0  0  0  0  0  0  0  0
    9.5050  -13.7591   18.3465 C   0  0  2  0  0  0  0  0  0  0  0  0
    8.4396  -14.3630   17.5142 N   0  0  0  0  0  0  0  0  0  0  0  0
   10.4611  -14.7906   18.7805 C   0  0  0  0  0  0  0  0  0  0  0  0
   10.1048  -15.9988   18.7228 O   0  0  0  0  0  0  0  0  0  0  0  0
   11.7361  -14.4854   19.2475 N   0  0  0  0  0  0  0  0  0  0  0  0
   12.6891  -15.5080   19.7045 C   0  0  1  0  0  0  0  0  0  0  0  0
   14.0692  -14.9357   19.3495 C   0  0  0  0  0  0  0  0  0  0  0  0
   14.3928  -15.2074   17.9299 C   0  0  0  0  0  0  0  0  0  0  0  0
   14.6384  -14.3085   16.9084 C   0  0  0  0  0  0  0  0  0  0  0  0
   14.8906  -15.0060   15.7781 N   0  0  0  0  0  0  0  0  0  0  0  0
   14.8096  -16.3122   16.0643 C   0  0  0  0  0  0  0  0  0  0  0  0
   14.5070  -16.4210   17.3732 N   0  0  0  0  0  0  0  0  0  0  0  0
   12.5819  -15.5997   21.1805 C   0  0  0  0  0  0  0  0  0  0  0  0
   12.9559  -14.6549   21.9190 O   0  0  0  0  0  0  0  0  0  0  0  0
    9.3730  -16.4479   23.1351 C   0  0  0  0  0  0  0  0  0  0  0  0
   10.4592  -17.4016   23.5872 C   0  0  1  0  0  0  0  0  0  0  0  0
   10.3005  -18.6785   23.0950 O   0  0  0  0  0  0  0  0  0  0  0  0
   11.8080  -16.8029   23.2688 C   0  0  2  0  0  0  0  0  0  0  0  0
   12.0577  -16.7433   21.8453 N   0  0  0  0  0  0  0  0  0  0  0  0
   12.9130  -17.5332   23.9093 C   0  0  0  0  0  0  0  0  0  0  0  0
   13.1228  -17.5506   25.2823 O   0  0  0  0  0  0  0  0  0  0  0  0
   13.7256  -18.1832   23.2157 O   0  0  0  0  0  0  0  0  0  0  0  0
  2  1  1  6
  2  3  1  0
  4  6  1  0
  4  2  1  0
  4  5  1  1
  6  7  2  0
  8  9  1  0
  8  6  1  0
  9 10  1  1
 10 11  1  0
 11 12  2  0
 13 12  1  0
 14 13  1  0
 15 14  2  0
 15 11  1  0
 16  9  1  0
 17 16  2  0
 19 18  1  6
 19 20  1  0
 19 21  1  0
 21 22  1  6
 22 16  1  0
 23 21  1  0
 23 24  1  0
 25 23  2  0
M  END
$$$$
