VHT.pdb
     RDKit          3D

 25 25  0  0  1  0  0  0  0  0999 V2000
    7.8260  -12.2083   18.3062 C   0  0  0  0  0  0  0  0  0  0  0  0
    7.7129  -13.1734   19.4322 C   0  0  2  0  0  0  0  0  0  0  0  0
    8.1498  -12.4935   20.7370 C   0  0  0  0  0  0  0  0  0  0  0  0
    8.4477  -14.4626   19.2761 C   0  0  2  0  0  0  0  0  0  0  0  0
    7.8999  -15.1371   18.0773 N   0  0  0  0  0  0  0  0  0  0  0  0
    8.3951  -15.3638   20.4387 C   0  0  0  0  0  0  0  0  0  0  0  0
    7.3548  -16.0548   20.6133 O   0  0  0  0  0  0  0  0  0  0  0  0
    9.4436  -15.4831   21.3459 N   0  0  0  0  0  0  0  0  0  0  0  0
    9.3950  -16.3729   22.5158 C   0  0  1  0  0  0  0  0  0  0  0  0
   10.7059  -17.1698   22.4496 C   0  0  0  0  0  0  0  0  0  0  0  0
   10.5402  -18.3694   21.5969 C   0  0  0  0  0  0  0  0  0  0  0  0
    9.4197  -18.7969   20.9084 C   0  0  0  0  0  0  0  0  0  0  0  0
    9.7280  -19.9437   20.2624 N   0  0  0  0  0  0  0  0  0  0  0  0
   11.0065  -20.2439   20.5273 C   0  0  0  0  0  0  0  0  0  0  0  0
   11.4880  -19.2808   21.3381 N   0  0  0  0  0  0  0  0  0  0  0  0
    9.4195  -15.5244   23.7315 C   0  0  0  0  0  0  0  0  0  0  0  0
   10.1878  -14.5344   23.8174 O   0  0  0  0  0  0  0  0  0  0  0  0
    7.0541  -13.1792   25.0302 C   0  0  0  0  0  0  0  0  0  0  0  0
    7.1782  -14.2148   26.1284 C   0  0  1  0  0  0  0  0  0  0  0  0
    6.1182  -15.0938   26.1687 O   0  0  0  0  0  0  0  0  0  0  0  0
    8.5180  -14.9008   26.0131 C   0  0  2  0  0  0  0  0  0  0  0  0
    8.5893  -15.7715   24.8603 N   0  0  0  0  0  0  0  0  0  0  0  0
    8.8550  -15.6822   27.2134 C   0  0  0  0  0  0  0  0  0  0  0  0
    9.0271  -15.1160   28.4701 O   0  0  0  0  0  0  0  0  0  0  0  0
    9.0023  -16.9218   27.1386 O   0  0  0  0  0  0  0  0  0  0  0  0
  2  1  1  6
  2  3  1  0
  4  6  1  0
  4  2  1  0
  4  5  1  6
  6  7  2  0
  8  9  1  0
  8  6  1  0
  9 10  1  1
 10 11  1  0
 11 12  2  0
 13 12  1  0
 14 13  1  0
 15 14  2  0
 15 11  1  0
 16  9  1  0
 17 16  2  0
 19 18  1  6
 19 20  1  0
 19 21  1  0
 21 22  1  6
 22 16  1  0
 23 21  1  0
 23 24  1  0
 25 23  2  0
M  END
$$$$
