MRD.pdb
     RDKit          3D

 28 27  0  0  1  0  0  0  0  0999 V2000
   15.4372  -11.7910  -18.4678 C   0  0  0  0  0  0  0  0  0  0  0  0
   15.1991  -13.0133  -17.1388 S   0  0  0  0  0  0  0  0  0  0  0  0
   16.4491  -12.8076  -15.8501 C   0  0  0  0  0  0  0  0  0  0  0  0
   16.9063  -11.3661  -15.8681 C   0  0  0  0  0  0  0  0  0  0  0  0
   18.0720  -11.1612  -14.9192 C   0  0  2  0  0  0  0  0  0  0  0  0
   18.0335  -12.0978  -13.8347 N   0  0  0  0  0  0  0  0  0  0  0  0
   18.1315   -9.7464  -14.5158 C   0  0  0  0  0  0  0  0  0  0  0  0
   18.2006   -8.8720  -15.3927 O   0  0  0  0  0  0  0  0  0  0  0  0
   14.5334   -6.8712   -6.9591 N   0  0  0  0  0  0  0  0  0  0  0  0
   13.8993   -7.6894   -7.9426 C   0  0  0  0  0  0  0  0  0  0  0  0
   12.7640   -8.2267   -7.6669 N   0  0  0  0  0  0  0  0  0  0  0  0
   14.4552   -7.9370   -9.2098 N   0  0  0  0  0  0  0  0  0  0  0  0
   15.8286   -7.7010   -9.5906 C   0  0  0  0  0  0  0  0  0  0  0  0
   16.1621   -8.0754  -10.9975 C   0  0  0  0  0  0  0  0  0  0  0  0
   17.6140   -7.8128  -11.2724 C   0  0  0  0  0  0  0  0  0  0  0  0
   18.0759   -8.0040  -12.6638 C   0  0  2  0  0  0  0  0  0  0  0  0
   18.1144   -9.3407  -13.1703 N   0  0  0  0  0  0  0  0  0  0  0  0
   19.4055   -7.3128  -12.8293 C   0  0  0  0  0  0  0  0  0  0  0  0
   20.4255   -7.6962  -12.2049 O   0  0  0  0  0  0  0  0  0  0  0  0
   12.2222   -8.7373   -8.3819 N   0  0  0  0  0  0  0  0  0  0  0  0
   19.5699   -6.1888  -13.7038 C   0  0  1  0  0  0  0  0  0  0  0  0
   20.8347   -5.4847  -13.8205 C   0  0  0  0  0  0  0  0  0  0  0  0
   21.5777   -6.1210  -14.9834 C   0  0  0  0  0  0  0  0  0  0  0  0
   22.8878   -5.4799  -15.1139 O   0  0  0  0  0  0  0  0  0  0  0  0
   23.3428   -4.6971  -14.2506 C   0  0  0  0  0  0  0  0  0  0  0  0
   20.5706   -4.0576  -14.0691 O   0  0  0  0  0  0  0  0  0  0  0  0
   19.2936   -3.5419  -14.1878 O   0  0  0  0  0  0  0  0  0  0  0  0
   23.6580   -5.7496  -16.2390 O   0  0  0  0  0  0  0  0  0  0  0  0
  2  1  1  0
  3  2  1  0
  4  3  1  0
  4  5  1  0
  5  6  1  1
  7  8  2  0
  7  5  1  0
  9 10  1  0
 10 11  2  0
 12 10  1  0
 12 13  1  0
 13 14  1  0
 15 14  1  0
 16 15  1  1
 16 17  1  0
 17  7  1  0
 18 20  1  0
 18 16  1  0
 19 18  2  0
 21 20  1  0
 21 25  1  0
 21 22  1  6
 23 22  1  0
 24 23  2  0
 25 26  1  0
 27 23  1  0
 28 25  2  0
M  END
$$$$
