MRD.pdb
     RDKit          3D

 28 27  0  0  1  0  0  0  0  0999 V2000
   30.1372  -22.4382   -9.4729 C   0  0  0  0  0  0  0  0  0  0  0  0
   31.2727  -21.4902  -10.5354 S   0  0  0  0  0  0  0  0  0  0  0  0
   30.3497  -20.4832  -11.7183 C   0  0  0  0  0  0  0  0  0  0  0  0
   29.2588  -21.3444  -12.3145 C   0  0  0  0  0  0  0  0  0  0  0  0
   28.4003  -20.5375  -13.2701 C   0  0  2  0  0  0  0  0  0  0  0  0
   28.4520  -19.1381  -12.9639 N   0  0  0  0  0  0  0  0  0  0  0  0
   27.0459  -21.1133  -13.3161 C   0  0  0  0  0  0  0  0  0  0  0  0
   26.8685  -22.1899  -13.9057 O   0  0  0  0  0  0  0  0  0  0  0  0
   20.1206  -19.5349   -8.6265 N   0  0  0  0  0  0  0  0  0  0  0  0
   20.4920  -20.7769   -9.2250 C   0  0  0  0  0  0  0  0  0  0  0  0
   19.6313  -21.7315   -9.2626 N   0  0  0  0  0  0  0  0  0  0  0  0
   21.7605  -21.0109   -9.7841 N   0  0  0  0  0  0  0  0  0  0  0  0
   22.8785  -20.0965   -9.7544 C   0  0  0  0  0  0  0  0  0  0  0  0
   24.0398  -20.4987  -10.6032 C   0  0  0  0  0  0  0  0  0  0  0  0
   23.5783  -20.8118  -11.9966 C   0  0  0  0  0  0  0  0  0  0  0  0
   24.5613  -20.6218  -13.0845 C   0  0  2  0  0  0  0  0  0  0  0  0
   25.9371  -20.4908  -12.7177 N   0  0  0  0  0  0  0  0  0  0  0  0
   24.1084  -19.4714  -13.9473 C   0  0  0  0  0  0  0  0  0  0  0  0
   24.7774  -18.4118  -14.0307 O   0  0  0  0  0  0  0  0  0  0  0  0
   19.8592  -22.6457   -9.6843 N   0  0  0  0  0  0  0  0  0  0  0  0
   22.8971  -19.5305  -14.7118 C   0  0  1  0  0  0  0  0  0  0  0  0
   22.8524  -19.1458  -16.1114 C   0  0  0  0  0  0  0  0  0  0  0  0
   24.2935  -19.0908  -16.5906 C   0  0  0  0  0  0  0  0  0  0  0  0
   24.4973  -17.8443  -17.3316 O   0  0  0  0  0  0  0  0  0  0  0  0
   23.6002  -16.9812  -17.4562 C   0  0  0  0  0  0  0  0  0  0  0  0
   22.0755  -20.1466  -16.8617 O   0  0  0  0  0  0  0  0  0  0  0  0
   22.2356  -21.5078  -16.6816 O   0  0  0  0  0  0  0  0  0  0  0  0
   25.7340  -17.6079  -17.9203 O   0  0  0  0  0  0  0  0  0  0  0  0
  2  1  1  0
  3  2  1  0
  4  3  1  0
  4  5  1  0
  5  6  1  1
  7  8  2  0
  7  5  1  0
  9 10  1  0
 10 11  2  0
 12 10  1  0
 12 13  1  0
 13 14  1  0
 15 14  1  0
 16 15  1  1
 16 17  1  0
 17  7  1  0
 18 20  1  0
 18 16  1  0
 19 18  2  0
 21 20  1  0
 21 25  1  0
 21 22  1  6
 23 22  1  0
 24 23  2  0
 25 26  1  0
 27 23  1  0
 28 25  2  0
M  END
$$$$
