MRD.pdb
     RDKit          3D

 28 27  0  0  1  0  0  0  0  0999 V2000
   24.2484  -13.2109  -14.0959 C   0  0  0  0  0  0  0  0  0  0  0  0
   22.9443  -11.9400  -14.1236 S   0  0  0  0  0  0  0  0  0  0  0  0
   23.3424  -10.6420  -15.3161 C   0  0  0  0  0  0  0  0  0  0  0  0
   22.2807   -9.5698  -15.2120 C   0  0  0  0  0  0  0  0  0  0  0  0
   20.9144  -10.1328  -15.5547 C   0  0  2  0  0  0  0  0  0  0  0  0
   20.9078  -10.7312  -16.8572 N   0  0  0  0  0  0  0  0  0  0  0  0
   19.8909   -9.0957  -15.3427 C   0  0  0  0  0  0  0  0  0  0  0  0
   19.6573   -8.2848  -16.2516 O   0  0  0  0  0  0  0  0  0  0  0  0
   13.9017   -8.9974   -8.9593 N   0  0  0  0  0  0  0  0  0  0  0  0
   14.9382   -8.0172   -8.8982 C   0  0  0  0  0  0  0  0  0  0  0  0
   15.1998   -7.4579   -7.7703 N   0  0  0  0  0  0  0  0  0  0  0  0
   15.6973   -7.6316  -10.0168 N   0  0  0  0  0  0  0  0  0  0  0  0
   15.2662   -7.6984  -11.3940 C   0  0  0  0  0  0  0  0  0  0  0  0
   16.2595   -7.1903  -12.3870 C   0  0  0  0  0  0  0  0  0  0  0  0
   17.2384   -8.2720  -12.7393 C   0  0  0  0  0  0  0  0  0  0  0  0
   18.2369   -7.9556  -13.7828 C   0  0  2  0  0  0  0  0  0  0  0  0
   19.1625   -8.9832  -14.1461 N   0  0  0  0  0  0  0  0  0  0  0  0
   18.9482   -6.6830  -13.3988 C   0  0  0  0  0  0  0  0  0  0  0  0
   19.3956   -6.5069  -12.2387 O   0  0  0  0  0  0  0  0  0  0  0  0
   15.9516   -6.7565   -7.6786 N   0  0  0  0  0  0  0  0  0  0  0  0
   19.1479   -5.6161  -14.3354 C   0  0  1  0  0  0  0  0  0  0  0  0
   19.7612   -4.3582  -13.9475 C   0  0  0  0  0  0  0  0  0  0  0  0
   21.0794   -4.2705  -14.6987 C   0  0  0  0  0  0  0  0  0  0  0  0
   22.0631   -5.1221  -14.0268 O   0  0  0  0  0  0  0  0  0  0  0  0
   22.1649   -5.1787  -12.7811 C   0  0  0  0  0  0  0  0  0  0  0  0
   18.8616   -3.2509  -14.3118 O   0  0  0  0  0  0  0  0  0  0  0  0
   17.6554   -3.4475  -14.9576 O   0  0  0  0  0  0  0  0  0  0  0  0
   22.9181   -5.8987  -14.8000 O   0  0  0  0  0  0  0  0  0  0  0  0
  2  1  1  0
  3  2  1  0
  4  3  1  0
  4  5  1  0
  5  6  1  6
  7  8  2  0
  7  5  1  0
  9 10  1  0
 10 11  2  0
 12 10  1  0
 12 13  1  0
 13 14  1  0
 15 14  1  0
 16 15  1  1
 16 17  1  0
 17  7  1  0
 18 20  1  0
 18 16  1  0
 19 18  2  0
 21 20  1  0
 21 25  1  0
 21 22  1  1
 23 22  1  0
 24 23  2  0
 25 26  1  0
 27 23  1  0
 28 25  2  0
M  END
$$$$
