MRD.pdb
     RDKit          3D

 28 27  0  0  1  0  0  0  0  0999 V2000
   23.5519  -20.5211   -8.0682 C   0  0  0  0  0  0  0  0  0  0  0  0
   25.3545  -20.3160   -7.9088 S   0  0  0  0  0  0  0  0  0  0  0  0
   26.1959  -20.8719   -9.4083 C   0  0  0  0  0  0  0  0  0  0  0  0
   25.2561  -20.6659  -10.5754 C   0  0  0  0  0  0  0  0  0  0  0  0
   25.9224  -21.0672  -11.8778 C   0  0  2  0  0  0  0  0  0  0  0  0
   27.3393  -20.8563  -11.8263 N   0  0  0  0  0  0  0  0  0  0  0  0
   25.2369  -20.4074  -13.0015 C   0  0  0  0  0  0  0  0  0  0  0  0
   25.1114  -19.1735  -12.9901 O   0  0  0  0  0  0  0  0  0  0  0  0
   26.4489  -24.0499  -16.5184 N   0  0  0  0  0  0  0  0  0  0  0  0
   27.6096  -23.5985  -17.2168 C   0  0  0  0  0  0  0  0  0  0  0  0
   28.6753  -24.3172  -17.1821 N   0  0  0  0  0  0  0  0  0  0  0  0
   27.6466  -22.3999  -17.9504 N   0  0  0  0  0  0  0  0  0  0  0  0
   26.5751  -21.4359  -18.0483 C   0  0  0  0  0  0  0  0  0  0  0  0
   26.1468  -20.8407  -16.7471 C   0  0  0  0  0  0  0  0  0  0  0  0
   24.6624  -20.9829  -16.5768 C   0  0  0  0  0  0  0  0  0  0  0  0
   24.0987  -20.5858  -15.2689 C   0  0  2  0  0  0  0  0  0  0  0  0
   24.7136  -21.1202  -14.0938 N   0  0  0  0  0  0  0  0  0  0  0  0
   22.6145  -20.8501  -15.2839 C   0  0  0  0  0  0  0  0  0  0  0  0
   22.0754  -21.6081  -14.4401 O   0  0  0  0  0  0  0  0  0  0  0  0
   29.4819  -24.1141  -17.7935 N   0  0  0  0  0  0  0  0  0  0  0  0
   21.7495  -20.2514  -16.2579 C   0  0  1  0  0  0  0  0  0  0  0  0
   20.3450  -20.0004  -15.9870 C   0  0  0  0  0  0  0  0  0  0  0  0
   20.2972  -19.0168  -14.8297 C   0  0  0  0  0  0  0  0  0  0  0  0
   18.8969  -18.7367  -14.5057 O   0  0  0  0  0  0  0  0  0  0  0  0
   18.0254  -19.6330  -14.4564 C   0  0  0  0  0  0  0  0  0  0  0  0
   19.7142  -19.4399  -17.1937 O   0  0  0  0  0  0  0  0  0  0  0  0
   20.4155  -19.1915  -18.3587 O   0  0  0  0  0  0  0  0  0  0  0  0
   18.5181  -17.4256  -14.2423 O   0  0  0  0  0  0  0  0  0  0  0  0
  2  1  1  0
  3  2  1  0
  4  3  1  0
  4  5  1  0
  5  6  1  1
  7  8  2  0
  7  5  1  0
  9 10  1  0
 10 11  2  0
 12 10  1  0
 12 13  1  0
 13 14  1  0
 15 14  1  0
 16 15  1  6
 16 17  1  0
 17  7  1  0
 18 20  1  0
 18 16  1  0
 19 18  2  0
 21 20  1  0
 21 25  1  0
 21 22  1  6
 23 22  1  0
 24 23  2  0
 25 26  1  0
 27 23  1  0
 28 25  2  0
M  END
$$$$
