MRD.pdb
     RDKit          3D

 28 27  0  0  1  0  0  0  0  0999 V2000
   28.8709  -18.4686   -5.2287 C   0  0  0  0  0  0  0  0  0  0  0  0
   28.1555  -19.9708   -4.4881 S   0  0  0  0  0  0  0  0  0  0  0  0
   26.7488  -20.5549   -5.4605 C   0  0  0  0  0  0  0  0  0  0  0  0
   26.9248  -20.0624   -6.8796 C   0  0  0  0  0  0  0  0  0  0  0  0
   25.7486  -20.4799   -7.7420 C   0  0  2  0  0  0  0  0  0  0  0  0
   25.4475  -21.8715   -7.5763 N   0  0  0  0  0  0  0  0  0  0  0  0
   25.9871  -20.0575   -9.1322 C   0  0  0  0  0  0  0  0  0  0  0  0
   26.1436  -18.8518   -9.3773 O   0  0  0  0  0  0  0  0  0  0  0  0
   32.9737  -22.3026  -10.8080 N   0  0  0  0  0  0  0  0  0  0  0  0
   32.0055  -22.6111  -11.8113 C   0  0  0  0  0  0  0  0  0  0  0  0
   32.3758  -23.2703  -12.8513 N   0  0  0  0  0  0  0  0  0  0  0  0
   30.6552  -22.2314  -11.7178 N   0  0  0  0  0  0  0  0  0  0  0  0
   30.1291  -20.9112  -11.9770 C   0  0  0  0  0  0  0  0  0  0  0  0
   28.8564  -20.5924  -11.2632 C   0  0  0  0  0  0  0  0  0  0  0  0
   27.6797  -21.0519  -12.0737 C   0  0  0  0  0  0  0  0  0  0  0  0
   26.3383  -20.6845  -11.5718 C   0  0  2  0  0  0  0  0  0  0  0  0
   26.0442  -20.9677  -10.2015 N   0  0  0  0  0  0  0  0  0  0  0  0
   25.3011  -21.2758  -12.4924 C   0  0  0  0  0  0  0  0  0  0  0  0
   24.9819  -22.4887  -12.4268 O   0  0  0  0  0  0  0  0  0  0  0  0
   31.7115  -23.5018  -13.6068 N   0  0  0  0  0  0  0  0  0  0  0  0
   24.6310  -20.4859  -13.4834 C   0  0  1  0  0  0  0  0  0  0  0  0
   23.3075  -20.8287  -13.9731 C   0  0  0  0  0  0  0  0  0  0  0  0
   22.3816  -20.8056  -12.7683 C   0  0  0  0  0  0  0  0  0  0  0  0
   21.0212  -21.1158  -13.2125 O   0  0  0  0  0  0  0  0  0  0  0  0
   20.7853  -21.8801  -14.1746 C   0  0  0  0  0  0  0  0  0  0  0  0
   22.8968  -19.8402  -14.9842 O   0  0  0  0  0  0  0  0  0  0  0  0
   21.9067  -20.0893  -15.9161 O   0  0  0  0  0  0  0  0  0  0  0  0
   19.9484  -20.5407  -12.5415 O   0  0  0  0  0  0  0  0  0  0  0  0
  2  1  1  0
  3  2  1  0
  4  3  1  0
  4  5  1  0
  5  6  1  6
  7  8  2  0
  7  5  1  0
  9 10  1  0
 10 11  2  0
 12 10  1  0
 12 13  1  0
 13 14  1  0
 15 14  1  0
 16 15  1  6
 16 17  1  0
 17  7  1  0
 18 20  1  0
 18 16  1  0
 19 18  2  0
 21 20  1  0
 21 25  1  0
 21 22  1  6
 23 22  1  0
 24 23  2  0
 25 26  1  0
 27 23  1  0
 28 25  2  0
M  END
$$$$
