MRD.pdb
     RDKit          3D

 28 27  0  0  1  0  0  0  0  0999 V2000
   27.6661  -10.8344  -15.2630 C   0  0  0  0  0  0  0  0  0  0  0  0
   27.5815  -12.6289  -15.5622 S   0  0  0  0  0  0  0  0  0  0  0  0
   25.8692  -13.2045  -15.5150 C   0  0  0  0  0  0  0  0  0  0  0  0
   24.9894  -12.0994  -16.0558 C   0  0  0  0  0  0  0  0  0  0  0  0
   23.5347  -12.5292  -16.0676 C   0  0  2  0  0  0  0  0  0  0  0  0
   23.3548  -13.7431  -16.8084 N   0  0  0  0  0  0  0  0  0  0  0  0
   22.6954  -11.4027  -16.5085 C   0  0  0  0  0  0  0  0  0  0  0  0
   22.5390  -11.2068  -17.7231 O   0  0  0  0  0  0  0  0  0  0  0  0
   14.8440  -11.3535  -15.0424 N   0  0  0  0  0  0  0  0  0  0  0  0
   15.9256  -12.2563  -15.2748 C   0  0  0  0  0  0  0  0  0  0  0  0
   15.7330  -13.5157  -15.1016 N   0  0  0  0  0  0  0  0  0  0  0  0
   17.2009  -11.8357  -15.6908 N   0  0  0  0  0  0  0  0  0  0  0  0
   17.5074  -10.5804  -16.3368 C   0  0  0  0  0  0  0  0  0  0  0  0
   18.9352  -10.4171  -16.7437 C   0  0  0  0  0  0  0  0  0  0  0  0
   19.7071   -9.7273  -15.6570 C   0  0  0  0  0  0  0  0  0  0  0  0
   21.1423   -9.4792  -15.9111 C   0  0  2  0  0  0  0  0  0  0  0  0
   22.0600  -10.5325  -15.6061 N   0  0  0  0  0  0  0  0  0  0  0  0
   21.5358   -8.1912  -15.2335 C   0  0  0  0  0  0  0  0  0  0  0  0
   21.8503   -8.1598  -14.0180 O   0  0  0  0  0  0  0  0  0  0  0  0
   16.4732  -14.2064  -15.3032 N   0  0  0  0  0  0  0  0  0  0  0  0
   21.5703   -6.9445  -15.9404 C   0  0  2  0  0  0  0  0  0  0  0  0
   21.9935   -5.7107  -15.3019 C   0  0  0  0  0  0  0  0  0  0  0  0
   22.5027   -4.8035  -16.4096 C   0  0  0  0  0  0  0  0  0  0  0  0
   22.8706   -3.5105  -15.8290 O   0  0  0  0  0  0  0  0  0  0  0  0
   22.7834   -3.2738  -14.6036 C   0  0  0  0  0  0  0  0  0  0  0  0
   20.8444   -5.1110  -14.6032 O   0  0  0  0  0  0  0  0  0  0  0  0
   19.5667   -5.6330  -14.6782 O   0  0  0  0  0  0  0  0  0  0  0  0
   23.3350   -2.5052  -16.6690 O   0  0  0  0  0  0  0  0  0  0  0  0
  2  1  1  0
  3  2  1  0
  4  3  1  0
  4  5  1  0
  5  6  1  6
  7  8  2  0
  7  5  1  0
  9 10  1  0
 10 11  2  0
 12 10  1  0
 12 13  1  0
 13 14  1  0
 15 14  1  0
 16 15  1  1
 16 17  1  0
 17  7  1  0
 18 20  1  0
 18 16  1  0
 19 18  2  0
 21 20  1  0
 21 25  1  0
 21 22  1  6
 23 22  1  0
 24 23  2  0
 25 26  1  0
 27 23  1  0
 28 25  2  0
M  END
$$$$
