MRD.pdb
     RDKit          3D

 28 27  0  0  1  0  0  0  0  0999 V2000
   38.5622   -6.3194   -9.0709 C   0  0  0  0  0  0  0  0  0  0  0  0
   37.6165   -6.0403  -10.6021 S   0  0  0  0  0  0  0  0  0  0  0  0
   37.9210   -7.3661  -11.7917 C   0  0  0  0  0  0  0  0  0  0  0  0
   37.1321   -7.0598  -13.0452 C   0  0  0  0  0  0  0  0  0  0  0  0
   37.1281   -8.2534  -13.9815 C   0  0  2  0  0  0  0  0  0  0  0  0
   38.4616   -8.6696  -14.3028 N   0  0  0  0  0  0  0  0  0  0  0  0
   36.2722   -7.9608  -15.1433 C   0  0  0  0  0  0  0  0  0  0  0  0
   36.6909   -7.1923  -16.0221 O   0  0  0  0  0  0  0  0  0  0  0  0
   30.3738  -13.3243  -18.4638 N   0  0  0  0  0  0  0  0  0  0  0  0
   29.7808  -12.0905  -18.0572 C   0  0  0  0  0  0  0  0  0  0  0  0
   28.5052  -12.0334  -17.9061 N   0  0  0  0  0  0  0  0  0  0  0  0
   30.5269  -10.9255  -17.8075 N   0  0  0  0  0  0  0  0  0  0  0  0
   31.7793  -10.5735  -18.4357 C   0  0  0  0  0  0  0  0  0  0  0  0
   32.3591   -9.2708  -17.9910 C   0  0  0  0  0  0  0  0  0  0  0  0
   33.2885   -9.4868  -16.8325 C   0  0  0  0  0  0  0  0  0  0  0  0
   34.0839   -8.3225  -16.3879 C   0  0  2  0  0  0  0  0  0  0  0  0
   34.9914   -8.5177  -15.3003 N   0  0  0  0  0  0  0  0  0  0  0  0
   33.1466   -7.1712  -16.1245 C   0  0  0  0  0  0  0  0  0  0  0  0
   32.5482   -7.0514  -15.0270 O   0  0  0  0  0  0  0  0  0  0  0  0
   28.0355  -11.1599  -17.6198 N   0  0  0  0  0  0  0  0  0  0  0  0
   32.8939   -6.1611  -17.1100 C   0  0  1  0  0  0  0  0  0  0  0  0
   32.0094   -5.0390  -16.8505 C   0  0  0  0  0  0  0  0  0  0  0  0
   32.8636   -3.9528  -16.2181 C   0  0  0  0  0  0  0  0  0  0  0  0
   32.0208   -2.7854  -15.9506 O   0  0  0  0  0  0  0  0  0  0  0  0
   30.7891   -2.8763  -15.7512 C   0  0  0  0  0  0  0  0  0  0  0  0
   31.4201   -4.5859  -18.1216 O   0  0  0  0  0  0  0  0  0  0  0  0
   30.3498   -3.7132  -18.1818 O   0  0  0  0  0  0  0  0  0  0  0  0
   32.6091   -1.5266  -15.9160 O   0  0  0  0  0  0  0  0  0  0  0  0
  2  1  1  0
  3  2  1  0
  4  3  1  0
  4  5  1  0
  5  6  1  6
  7  8  2  0
  7  5  1  0
  9 10  1  0
 10 11  2  0
 12 10  1  0
 12 13  1  0
 13 14  1  0
 15 14  1  0
 16 15  1  1
 16 17  1  0
 17  7  1  0
 18 20  1  0
 18 16  1  0
 19 18  2  0
 21 20  1  0
 21 25  1  0
 21 22  1  6
 23 22  1  0
 24 23  2  0
 25 26  1  0
 27 23  1  0
 28 25  2  0
M  END
$$$$
