MRD.pdb
     RDKit          3D

 28 27  0  0  1  0  0  0  0  0999 V2000
   26.3552  -16.6770  -15.9124 C   0  0  0  0  0  0  0  0  0  0  0  0
   27.8777  -17.6479  -16.1494 S   0  0  0  0  0  0  0  0  0  0  0  0
   27.7541  -19.2445  -15.3121 C   0  0  0  0  0  0  0  0  0  0  0  0
   26.2915  -19.5185  -15.0416 C   0  0  0  0  0  0  0  0  0  0  0  0
   26.1214  -20.8196  -14.2802 C   0  0  2  0  0  0  0  0  0  0  0  0
   26.7688  -21.9070  -14.9533 N   0  0  0  0  0  0  0  0  0  0  0  0
   24.6941  -21.0320  -13.9876 C   0  0  0  0  0  0  0  0  0  0  0  0
   24.1134  -22.0042  -14.4935 O   0  0  0  0  0  0  0  0  0  0  0  0
   18.1241  -21.4846  -11.8825 N   0  0  0  0  0  0  0  0  0  0  0  0
   18.0070  -21.1415  -10.5013 C   0  0  0  0  0  0  0  0  0  0  0  0
   17.0486  -21.6519   -9.8126 N   0  0  0  0  0  0  0  0  0  0  0  0
   18.8959  -20.2696   -9.8487 N   0  0  0  0  0  0  0  0  0  0  0  0
   20.2987  -20.1091  -10.1542 C   0  0  0  0  0  0  0  0  0  0  0  0
   20.5836  -19.4565  -11.4672 C   0  0  0  0  0  0  0  0  0  0  0  0
   22.0623  -19.4316  -11.7225 C   0  0  0  0  0  0  0  0  0  0  0  0
   22.5581  -20.2382  -12.8581 C   0  0  2  0  0  0  0  0  0  0  0  0
   23.9554  -20.1742  -13.1548 N   0  0  0  0  0  0  0  0  0  0  0  0
   21.7213  -19.9256  -14.0725 C   0  0  0  0  0  0  0  0  0  0  0  0
   22.0981  -19.0893  -14.9303 O   0  0  0  0  0  0  0  0  0  0  0  0
   17.0038  -21.5407   -8.7873 N   0  0  0  0  0  0  0  0  0  0  0  0
   20.4598  -20.5651  -14.3068 C   0  0  2  0  0  0  0  0  0  0  0  0
   19.8903  -20.6763  -15.6380 C   0  0  0  0  0  0  0  0  0  0  0  0
   20.8674  -21.5019  -16.4584 C   0  0  0  0  0  0  0  0  0  0  0  0
   20.3191  -21.6822  -17.8043 O   0  0  0  0  0  0  0  0  0  0  0  0
   19.1912  -21.2532  -18.1344 C   0  0  0  0  0  0  0  0  0  0  0  0
   18.5764  -21.3347  -15.5467 O   0  0  0  0  0  0  0  0  0  0  0  0
   17.4926  -20.9533  -16.3152 O   0  0  0  0  0  0  0  0  0  0  0  0
   21.0787  -22.3552  -18.7539 O   0  0  0  0  0  0  0  0  0  0  0  0
  2  1  1  0
  3  2  1  0
  4  3  1  0
  4  5  1  0
  5  6  1  6
  7  8  2  0
  7  5  1  0
  9 10  1  0
 10 11  2  0
 12 10  1  0
 12 13  1  0
 13 14  1  0
 15 14  1  0
 16 15  1  1
 16 17  1  0
 17  7  1  0
 18 20  1  0
 18 16  1  0
 19 18  2  0
 21 20  1  0
 21 25  1  0
 21 22  1  1
 23 22  1  0
 24 23  2  0
 25 26  1  0
 27 23  1  0
 28 25  2  0
M  END
$$$$
