MRD.pdb
     RDKit          3D

 28 27  0  0  1  0  0  0  0  0999 V2000
   24.0869  -21.7944  -22.6791 C   0  0  0  0  0  0  0  0  0  0  0  0
   25.2864  -20.4241  -22.6900 S   0  0  0  0  0  0  0  0  0  0  0  0
   26.6626  -20.7708  -21.5713 C   0  0  0  0  0  0  0  0  0  0  0  0
   26.0874  -21.2494  -20.2569 C   0  0  0  0  0  0  0  0  0  0  0  0
   25.7713  -20.0748  -19.3503 C   0  0  2  0  0  0  0  0  0  0  0  0
   26.7415  -19.0293  -19.4926 N   0  0  0  0  0  0  0  0  0  0  0  0
   25.5770  -20.5583  -17.9732 C   0  0  0  0  0  0  0  0  0  0  0  0
   24.8102  -21.5120  -17.7718 O   0  0  0  0  0  0  0  0  0  0  0  0
   30.1058  -20.4071   -9.9733 N   0  0  0  0  0  0  0  0  0  0  0  0
   29.7216  -21.4284  -10.8943 C   0  0  0  0  0  0  0  0  0  0  0  0
   30.4335  -22.4965  -10.9715 N   0  0  0  0  0  0  0  0  0  0  0  0
   28.5927  -21.3274  -11.7259 N   0  0  0  0  0  0  0  0  0  0  0  0
   28.0602  -20.1053  -12.2827 C   0  0  0  0  0  0  0  0  0  0  0  0
   26.8125  -20.2741  -13.0861 C   0  0  0  0  0  0  0  0  0  0  0  0
   27.0914  -20.0084  -14.5367 C   0  0  0  0  0  0  0  0  0  0  0  0
   25.9773  -20.2308  -15.4830 C   0  0  2  0  0  0  0  0  0  0  0  0
   26.2265  -19.9810  -16.8687 N   0  0  0  0  0  0  0  0  0  0  0  0
   24.7707  -19.4708  -14.9936 C   0  0  0  0  0  0  0  0  0  0  0  0
   24.7144  -18.2180  -15.0595 O   0  0  0  0  0  0  0  0  0  0  0  0
   31.2353  -22.6558  -10.3412 N   0  0  0  0  0  0  0  0  0  0  0  0
   23.6333  -20.1384  -14.4316 C   0  0  1  0  0  0  0  0  0  0  0  0
   22.3525  -19.4724  -14.2730 C   0  0  0  0  0  0  0  0  0  0  0  0
   21.9655  -18.9477  -15.6457 C   0  0  0  0  0  0  0  0  0  0  0  0
   20.6701  -18.2722  -15.5448 O   0  0  0  0  0  0  0  0  0  0  0  0
   20.2614  -17.7561  -14.4809 C   0  0  0  0  0  0  0  0  0  0  0  0
   21.3642  -20.4417  -13.7711 O   0  0  0  0  0  0  0  0  0  0  0  0
   20.3353  -20.0886  -12.9182 O   0  0  0  0  0  0  0  0  0  0  0  0
   19.8611  -18.1999  -16.6727 O   0  0  0  0  0  0  0  0  0  0  0  0
  2  1  1  0
  3  2  1  0
  4  3  1  0
  4  5  1  0
  5  6  1  1
  7  8  2  0
  7  5  1  0
  9 10  1  0
 10 11  2  0
 12 10  1  0
 12 13  1  0
 13 14  1  0
 15 14  1  0
 16 15  1  1
 16 17  1  0
 17  7  1  0
 18 20  1  0
 18 16  1  0
 19 18  2  0
 21 20  1  0
 21 25  1  0
 21 22  1  1
 23 22  1  0
 24 23  2  0
 25 26  1  0
 27 23  1  0
 28 25  2  0
M  END
$$$$
