MRD.pdb
     RDKit          3D

 28 27  0  0  1  0  0  0  0  0999 V2000
   28.1752  -18.8981   -5.4957 C   0  0  0  0  0  0  0  0  0  0  0  0
   29.7540  -19.7190   -5.8832 S   0  0  0  0  0  0  0  0  0  0  0  0
   29.5629  -20.8416   -7.2863 C   0  0  0  0  0  0  0  0  0  0  0  0
   28.1670  -20.6635   -7.8408 C   0  0  0  0  0  0  0  0  0  0  0  0
   27.9564  -21.5454   -9.0569 C   0  0  2  0  0  0  0  0  0  0  0  0
   29.1993  -22.0649   -9.5469 N   0  0  0  0  0  0  0  0  0  0  0  0
   27.1506  -20.8203  -10.0533 C   0  0  0  0  0  0  0  0  0  0  0  0
   26.0595  -20.3396   -9.7118 O   0  0  0  0  0  0  0  0  0  0  0  0
   27.1284  -17.5495  -18.4999 N   0  0  0  0  0  0  0  0  0  0  0  0
   28.0834  -17.3615  -17.4552 C   0  0  0  0  0  0  0  0  0  0  0  0
   28.8615  -16.3387  -17.5002 N   0  0  0  0  0  0  0  0  0  0  0  0
   28.2155  -18.2426  -16.3679 N   0  0  0  0  0  0  0  0  0  0  0  0
   27.4757  -19.4691  -16.1797 C   0  0  0  0  0  0  0  0  0  0  0  0
   26.6521  -19.5196  -14.9348 C   0  0  0  0  0  0  0  0  0  0  0  0
   27.4945  -19.9637  -13.7748 C   0  0  0  0  0  0  0  0  0  0  0  0
   26.8173  -20.0894  -12.4665 C   0  0  2  0  0  0  0  0  0  0  0  0
   27.5666  -20.6488  -11.3848 N   0  0  0  0  0  0  0  0  0  0  0  0
   25.5120  -20.8164  -12.6677 C   0  0  0  0  0  0  0  0  0  0  0  0
   25.4805  -22.0346  -12.9716 O   0  0  0  0  0  0  0  0  0  0  0  0
   29.5845  -16.1801  -16.7807 N   0  0  0  0  0  0  0  0  0  0  0  0
   24.2481  -20.1557  -12.5224 C   0  0  2  0  0  0  0  0  0  0  0  0
   22.9909  -20.8392  -12.7702 C   0  0  0  0  0  0  0  0  0  0  0  0
   21.8910  -19.9110  -12.2825 C   0  0  0  0  0  0  0  0  0  0  0  0
   20.6227  -20.6430  -12.2788 O   0  0  0  0  0  0  0  0  0  0  0  0
   20.5315  -21.8328  -12.6546 C   0  0  0  0  0  0  0  0  0  0  0  0
   22.8650  -21.1087  -14.2123 O   0  0  0  0  0  0  0  0  0  0  0  0
   22.3452  -22.2885  -14.7111 O   0  0  0  0  0  0  0  0  0  0  0  0
   19.4742  -19.9938  -11.8413 O   0  0  0  0  0  0  0  0  0  0  0  0
  2  1  1  0
  3  2  1  0
  4  3  1  0
  4  5  1  0
  5  6  1  6
  7  8  2  0
  7  5  1  0
  9 10  1  0
 10 11  2  0
 12 10  1  0
 12 13  1  0
 13 14  1  0
 15 14  1  0
 16 15  1  6
 16 17  1  0
 17  7  1  0
 18 20  1  0
 18 16  1  0
 19 18  2  0
 21 20  1  0
 21 25  1  0
 21 22  1  1
 23 22  1  0
 24 23  2  0
 25 26  1  0
 27 23  1  0
 28 25  2  0
M  END
$$$$
