MRD.pdb
     RDKit          3D

 28 27  0  0  1  0  0  0  0  0999 V2000
   30.4831  -21.7032  -22.4819 C   0  0  0  0  0  0  0  0  0  0  0  0
   31.7577  -21.1266  -21.3158 S   0  0  0  0  0  0  0  0  0  0  0  0
   31.5022  -21.8515  -19.6803 C   0  0  0  0  0  0  0  0  0  0  0  0
   30.1082  -22.4369  -19.6410 C   0  0  0  0  0  0  0  0  0  0  0  0
   29.5882  -22.4889  -18.2169 C   0  0  2  0  0  0  0  0  0  0  0  0
   30.5948  -22.9571  -17.3101 N   0  0  0  0  0  0  0  0  0  0  0  0
   28.3243  -23.2434  -18.1849 C   0  0  0  0  0  0  0  0  0  0  0  0
   27.4027  -22.9080  -18.9440 O   0  0  0  0  0  0  0  0  0  0  0  0
   28.0278  -30.8522  -15.7573 N   0  0  0  0  0  0  0  0  0  0  0  0
   28.5259  -30.4240  -17.0251 C   0  0  0  0  0  0  0  0  0  0  0  0
   28.2897  -31.1461  -18.0625 N   0  0  0  0  0  0  0  0  0  0  0  0
   29.2646  -29.2408  -17.2001 N   0  0  0  0  0  0  0  0  0  0  0  0
   28.8444  -27.9163  -16.8048 C   0  0  0  0  0  0  0  0  0  0  0  0
   27.4037  -27.6142  -17.0579 C   0  0  0  0  0  0  0  0  0  0  0  0
   27.0111  -26.3446  -16.3604 C   0  0  0  0  0  0  0  0  0  0  0  0
   26.9299  -25.1237  -17.1905 C   0  0  2  0  0  0  0  0  0  0  0  0
   28.1148  -24.3346  -17.3243 N   0  0  0  0  0  0  0  0  0  0  0  0
   25.7651  -24.2937  -16.7137 C   0  0  0  0  0  0  0  0  0  0  0  0
   25.9388  -23.1993  -16.1228 O   0  0  0  0  0  0  0  0  0  0  0  0
   28.6792  -30.9038  -18.9873 N   0  0  0  0  0  0  0  0  0  0  0  0
   24.4079  -24.7113  -16.9107 C   0  0  2  0  0  0  0  0  0  0  0  0
   23.2841  -23.9055  -16.4674 C   0  0  0  0  0  0  0  0  0  0  0  0
   23.3727  -22.5887  -17.2208 C   0  0  0  0  0  0  0  0  0  0  0  0
   22.2649  -21.7285  -16.7997 O   0  0  0  0  0  0  0  0  0  0  0  0
   21.4588  -22.0604  -15.9023 C   0  0  0  0  0  0  0  0  0  0  0  0
   22.0312  -24.6156  -16.7740 O   0  0  0  0  0  0  0  0  0  0  0  0
   20.8989  -24.5100  -15.9881 O   0  0  0  0  0  0  0  0  0  0  0  0
   22.1001  -20.4951  -17.4188 O   0  0  0  0  0  0  0  0  0  0  0  0
  2  1  1  0
  3  2  1  0
  4  3  1  0
  4  5  1  0
  5  6  1  1
  7  8  2  0
  7  5  1  0
  9 10  1  0
 10 11  2  0
 12 10  1  0
 12 13  1  0
 13 14  1  0
 15 14  1  0
 16 15  1  1
 16 17  1  0
 17  7  1  0
 18 20  1  0
 18 16  1  0
 19 18  2  0
 21 20  1  0
 21 25  1  0
 21 22  1  6
 23 22  1  0
 24 23  2  0
 25 26  1  0
 27 23  1  0
 28 25  2  0
M  END
$$$$
