MRD.pdb
     RDKit          3D

 28 27  0  0  1  0  0  0  0  0999 V2000
   26.6339  -17.6749  -17.1840 C   0  0  0  0  0  0  0  0  0  0  0  0
   27.8477  -17.8506  -15.8376 S   0  0  0  0  0  0  0  0  0  0  0  0
   27.5924  -19.4014  -14.9457 C   0  0  0  0  0  0  0  0  0  0  0  0
   26.1047  -19.6675  -14.8870 C   0  0  0  0  0  0  0  0  0  0  0  0
   25.8132  -20.9026  -14.0558 C   0  0  2  0  0  0  0  0  0  0  0  0
   26.4498  -22.0637  -14.6047 N   0  0  0  0  0  0  0  0  0  0  0  0
   24.3595  -21.0269  -13.8577 C   0  0  0  0  0  0  0  0  0  0  0  0
   23.7400  -21.9059  -14.4756 O   0  0  0  0  0  0  0  0  0  0  0  0
   18.3751  -22.5967  -10.3344 N   0  0  0  0  0  0  0  0  0  0  0  0
   19.5701  -22.3142   -9.6055 C   0  0  0  0  0  0  0  0  0  0  0  0
   20.0021  -23.1806   -8.7593 N   0  0  0  0  0  0  0  0  0  0  0  0
   20.3076  -21.1288   -9.7698 N   0  0  0  0  0  0  0  0  0  0  0  0
   19.7660  -19.8409  -10.1372 C   0  0  0  0  0  0  0  0  0  0  0  0
   20.2313  -19.3186  -11.4568 C   0  0  0  0  0  0  0  0  0  0  0  0
   21.7189  -19.4747  -11.5796 C   0  0  0  0  0  0  0  0  0  0  0  0
   22.2221  -20.1474  -12.7963 C   0  0  2  0  0  0  0  0  0  0  0  0
   23.6378  -20.1859  -12.9934 N   0  0  0  0  0  0  0  0  0  0  0  0
   21.5136  -19.5685  -13.9946 C   0  0  0  0  0  0  0  0  0  0  0  0
   21.7595  -18.4066  -14.4030 O   0  0  0  0  0  0  0  0  0  0  0  0
   20.8498  -23.0072   -8.1964 N   0  0  0  0  0  0  0  0  0  0  0  0
   20.5289  -20.3129  -14.7236 C   0  0  2  0  0  0  0  0  0  0  0  0
   19.8804  -19.7758  -15.9067 C   0  0  0  0  0  0  0  0  0  0  0  0
   19.6798  -20.9442  -16.8575 C   0  0  0  0  0  0  0  0  0  0  0  0
   19.1085  -20.4419  -18.1088 O   0  0  0  0  0  0  0  0  0  0  0  0
   18.8702  -19.2287  -18.3004 C   0  0  0  0  0  0  0  0  0  0  0  0
   18.5942  -19.1726  -15.5193 O   0  0  0  0  0  0  0  0  0  0  0  0
   18.2400  -17.8807  -15.8603 O   0  0  0  0  0  0  0  0  0  0  0  0
   18.8187  -21.3451  -19.1247 O   0  0  0  0  0  0  0  0  0  0  0  0
  2  1  1  0
  3  2  1  0
  4  3  1  0
  4  5  1  0
  5  6  1  6
  7  8  2  0
  7  5  1  0
  9 10  1  0
 10 11  2  0
 12 10  1  0
 12 13  1  0
 13 14  1  0
 15 14  1  0
 16 15  1  1
 16 17  1  0
 17  7  1  0
 18 20  1  0
 18 16  1  0
 19 18  2  0
 21 20  1  0
 21 25  1  0
 21 22  1  6
 23 22  1  0
 24 23  2  0
 25 26  1  0
 27 23  1  0
 28 25  2  0
M  END
$$$$
