MRD.pdb
     RDKit          3D

 28 27  0  0  1  0  0  0  0  0999 V2000
   22.2736  -24.8004  -14.1793 C   0  0  0  0  0  0  0  0  0  0  0  0
   24.0023  -25.2639  -14.5162 S   0  0  0  0  0  0  0  0  0  0  0  0
   25.1315  -23.9684  -13.9578 C   0  0  0  0  0  0  0  0  0  0  0  0
   24.3217  -22.9327  -13.2101 C   0  0  0  0  0  0  0  0  0  0  0  0
   25.2027  -21.7796  -12.7679 C   0  0  2  0  0  0  0  0  0  0  0  0
   25.4523  -21.8244  -11.3571 N   0  0  0  0  0  0  0  0  0  0  0  0
   24.6335  -20.5132  -13.2578 C   0  0  0  0  0  0  0  0  0  0  0  0
   24.3141  -19.6389  -12.4382 O   0  0  0  0  0  0  0  0  0  0  0  0
   26.7264  -17.9544  -19.7489 N   0  0  0  0  0  0  0  0  0  0  0  0
   27.8297  -17.4346  -19.0063 C   0  0  0  0  0  0  0  0  0  0  0  0
   28.9802  -17.3551  -19.5750 N   0  0  0  0  0  0  0  0  0  0  0  0
   27.7213  -16.9976  -17.6746 N   0  0  0  0  0  0  0  0  0  0  0  0
   26.5094  -16.9764  -16.8885 C   0  0  0  0  0  0  0  0  0  0  0  0
   26.1463  -18.2823  -16.2611 C   0  0  0  0  0  0  0  0  0  0  0  0
   24.6746  -18.5363  -16.4101 C   0  0  0  0  0  0  0  0  0  0  0  0
   23.9593  -19.0394  -15.2179 C   0  0  2  0  0  0  0  0  0  0  0  0
   24.4337  -20.2505  -14.6239 N   0  0  0  0  0  0  0  0  0  0  0  0
   22.4882  -19.1211  -15.5377 C   0  0  0  0  0  0  0  0  0  0  0  0
   21.9907  -20.1399  -16.0779 O   0  0  0  0  0  0  0  0  0  0  0  0
   29.7920  -16.9388  -19.0920 N   0  0  0  0  0  0  0  0  0  0  0  0
   21.5891  -18.0444  -15.2420 C   0  0  2  0  0  0  0  0  0  0  0  0
   20.1606  -18.1487  -15.4817 C   0  0  0  0  0  0  0  0  0  0  0  0
   19.9132  -17.5843  -16.8709 C   0  0  0  0  0  0  0  0  0  0  0  0
   19.7845  -16.1289  -16.7731 O   0  0  0  0  0  0  0  0  0  0  0  0
   19.9074  -15.5137  -15.6906 C   0  0  0  0  0  0  0  0  0  0  0  0
   19.7599  -19.5631  -15.3983 O   0  0  0  0  0  0  0  0  0  0  0  0
   19.5257  -20.2055  -14.1969 O   0  0  0  0  0  0  0  0  0  0  0  0
   19.5154  -15.3999  -17.9254 O   0  0  0  0  0  0  0  0  0  0  0  0
  2  1  1  0
  3  2  1  0
  4  3  1  0
  4  5  1  0
  5  6  1  1
  7  8  2  0
  7  5  1  0
  9 10  1  0
 10 11  2  0
 12 10  1  0
 12 13  1  0
 13 14  1  0
 15 14  1  0
 16 15  1  6
 16 17  1  0
 17  7  1  0
 18 20  1  0
 18 16  1  0
 19 18  2  0
 21 20  1  0
 21 25  1  0
 21 22  1  1
 23 22  1  0
 24 23  2  0
 25 26  1  0
 27 23  1  0
 28 25  2  0
M  END
$$$$
