PQA.pdb
     RDKit          3D

 22 22  0  0  1  0  0  0  0  0999 V2000
   27.1001  -33.4482  -16.2926 N   0  0  0  0  0  0  0  0  0  0  0  0
   27.6864  -32.3260  -16.9628 C   0  0  0  0  0  0  0  0  0  0  0  0
   28.8804  -31.9190  -16.1231 C   0  0  0  0  0  0  0  0  0  0  0  0
   28.3446  -32.1981  -14.7332 C   0  0  0  0  0  0  0  0  0  0  0  0
   27.6606  -33.5454  -14.9820 C   0  0  1  0  0  0  0  0  0  0  0  0
   26.6316  -33.8134  -13.9485 C   0  0  0  0  0  0  0  0  0  0  0  0
   25.4111  -33.7628  -14.3137 O   0  0  0  0  0  0  0  0  0  0  0  0
   25.5805  -38.6311  -11.4015 N   0  0  0  0  0  0  0  0  0  0  0  0
   24.6580  -37.9080  -10.6129 C   0  0  0  0  0  0  0  0  0  0  0  0
   23.8275  -38.5192   -9.9097 O   0  0  0  0  0  0  0  0  0  0  0  0
   24.7076  -36.4017  -10.6472 C   0  0  0  0  0  0  0  0  0  0  0  0
   25.8265  -35.9487  -11.5385 C   0  0  0  0  0  0  0  0  0  0  0  0
   25.9248  -34.4521  -11.6716 C   0  0  2  0  0  0  0  0  0  0  0  0
   26.9794  -34.1085  -12.6323 N   0  0  0  0  0  0  0  0  0  0  0  0
   26.2363  -33.8602  -10.3483 C   0  0  0  0  0  0  0  0  0  0  0  0
   27.3492  -34.0459   -9.8118 O   0  0  0  0  0  0  0  0  0  0  0  0
   24.7135  -31.4081   -7.9236 C   0  0  0  0  0  0  0  0  0  0  0  0
   25.6962  -32.4679   -8.3882 C   0  0  2  0  0  0  0  0  0  0  0  0
   25.2917  -33.0623   -9.6370 N   0  0  0  0  0  0  0  0  0  0  0  0
   25.7278  -33.5023   -7.3270 C   0  0  0  0  0  0  0  0  0  0  0  0
   25.0469  -34.5447   -7.4774 O   0  0  0  0  0  0  0  0  0  0  0  0
   26.4761  -33.3768   -6.1684 O   0  0  0  0  0  0  0  0  0  0  0  0
  1  2  1  0
  2  3  1  0
  4  3  1  0
  5  1  1  0
  5  6  1  1
  5  4  1  0
  6 14  1  0
  7  6  2  0
  9 11  1  0
  9  8  1  0
 10  9  2  0
 12 11  1  0
 13 12  1  1
 14 13  1  0
 15 13  1  0
 16 15  2  0
 18 17  1  1
 18 20  1  0
 18 19  1  0
 19 15  1  0
 20 22  1  0
 21 20  2  0
M  END
$$$$
