PQA.pdb
     RDKit          3D

 22 22  0  0  1  0  0  0  0  0999 V2000
   17.6159  -10.9471  -14.5387 N   0  0  0  0  0  0  0  0  0  0  0  0
   17.5886  -12.3641  -14.3300 C   0  0  0  0  0  0  0  0  0  0  0  0
   16.4482  -12.8865  -15.1803 C   0  0  0  0  0  0  0  0  0  0  0  0
   15.4591  -11.7467  -15.0405 C   0  0  0  0  0  0  0  0  0  0  0  0
   16.4088  -10.5555  -15.1951 C   0  0  1  0  0  0  0  0  0  0  0  0
   15.8189   -9.3304  -14.6039 C   0  0  0  0  0  0  0  0  0  0  0  0
   14.7375   -8.8955  -15.1209 O   0  0  0  0  0  0  0  0  0  0  0  0
   15.8173   -7.8972   -8.7602 N   0  0  0  0  0  0  0  0  0  0  0  0
   14.5497   -7.6044   -9.3107 C   0  0  0  0  0  0  0  0  0  0  0  0
   13.5613   -7.4716   -8.5603 O   0  0  0  0  0  0  0  0  0  0  0  0
   14.4309   -7.4600  -10.8066 C   0  0  0  0  0  0  0  0  0  0  0  0
   15.7828   -7.6042  -11.4415 C   0  0  0  0  0  0  0  0  0  0  0  0
   15.7584   -7.5050  -12.9437 C   0  0  2  0  0  0  0  0  0  0  0  0
   16.4177   -8.6783  -13.5284 N   0  0  0  0  0  0  0  0  0  0  0  0
   16.4609   -6.2695  -13.3663 C   0  0  0  0  0  0  0  0  0  0  0  0
   17.6960   -6.1546  -13.2174 O   0  0  0  0  0  0  0  0  0  0  0  0
   15.7200   -3.1887  -15.3957 C   0  0  0  0  0  0  0  0  0  0  0  0
   16.5384   -4.0648  -14.4643 C   0  0  2  0  0  0  0  0  0  0  0  0
   15.7675   -5.1704  -13.9545 N   0  0  0  0  0  0  0  0  0  0  0  0
   16.9698   -3.1951  -13.3443 C   0  0  0  0  0  0  0  0  0  0  0  0
   17.7053   -2.2099  -13.5916 O   0  0  0  0  0  0  0  0  0  0  0  0
   16.6001   -3.4155  -12.0279 O   0  0  0  0  0  0  0  0  0  0  0  0
  1  2  1  0
  2  3  1  0
  4  3  1  0
  5  1  1  0
  5  6  1  1
  5  4  1  0
  6 14  1  0
  7  6  2  0
  9 11  1  0
  9  8  1  0
 10  9  2  0
 12 11  1  0
 13 12  1  1
 14 13  1  0
 15 13  1  0
 16 15  2  0
 18 17  1  6
 18 20  1  0
 18 19  1  0
 19 15  1  0
 20 22  1  0
 21 20  2  0
M  END
$$$$
