PQA.pdb
     RDKit          3D

 22 22  0  0  1  0  0  0  0  0999 V2000
   24.3102  -10.9966  -16.0856 N   0  0  0  0  0  0  0  0  0  0  0  0
   24.9249  -12.2886  -16.0146 C   0  0  0  0  0  0  0  0  0  0  0  0
   25.1226  -12.7330  -17.4498 C   0  0  0  0  0  0  0  0  0  0  0  0
   23.8761  -12.1547  -18.0889 C   0  0  0  0  0  0  0  0  0  0  0  0
   23.8553  -10.7764  -17.4220 C   0  0  1  0  0  0  0  0  0  0  0  0
   22.4937  -10.1908  -17.4635 C   0  0  0  0  0  0  0  0  0  0  0  0
   22.0144   -9.9094  -18.6110 O   0  0  0  0  0  0  0  0  0  0  0  0
   15.6814  -10.9437  -15.8272 N   0  0  0  0  0  0  0  0  0  0  0  0
   17.0740  -11.1464  -15.7045 C   0  0  0  0  0  0  0  0  0  0  0  0
   17.5155  -12.2801  -15.4263 O   0  0  0  0  0  0  0  0  0  0  0  0
   17.9936   -9.9707  -15.9166 C   0  0  0  0  0  0  0  0  0  0  0  0
   19.4228  -10.4215  -15.8414 C   0  0  0  0  0  0  0  0  0  0  0  0
   20.4013   -9.4241  -16.4024 C   0  0  2  0  0  0  0  0  0  0  0  0
   21.7649   -9.9562  -16.2997 N   0  0  0  0  0  0  0  0  0  0  0  0
   20.2975   -8.1539  -15.6446 C   0  0  0  0  0  0  0  0  0  0  0  0
   19.2469   -7.4783  -15.6714 O   0  0  0  0  0  0  0  0  0  0  0  0
   21.9240   -6.3307  -12.8700 C   0  0  0  0  0  0  0  0  0  0  0  0
   21.2244   -6.3721  -14.2168 C   0  0  2  0  0  0  0  0  0  0  0  0
   21.3786   -7.6520  -14.8608 N   0  0  0  0  0  0  0  0  0  0  0  0
   21.8504   -5.3147  -15.0455 C   0  0  0  0  0  0  0  0  0  0  0  0
   21.7895   -4.1244  -14.6553 O   0  0  0  0  0  0  0  0  0  0  0  0
   22.5046   -5.5746  -16.2383 O   0  0  0  0  0  0  0  0  0  0  0  0
  1  2  1  0
  2  3  1  0
  4  3  1  0
  5  1  1  0
  5  6  1  1
  5  4  1  0
  6 14  1  0
  7  6  2  0
  9 11  1  0
  9  8  1  0
 10  9  2  0
 12 11  1  0
 13 12  1  1
 14 13  1  0
 15 13  1  0
 16 15  2  0
 18 17  1  1
 18 20  1  0
 18 19  1  0
 19 15  1  0
 20 22  1  0
 21 20  2  0
M  END
$$$$
