PQA.pdb
     RDKit          3D

 22 22  0  0  1  0  0  0  0  0999 V2000
   19.3287  -11.9825  -15.8972 N   0  0  0  0  0  0  0  0  0  0  0  0
   18.6450  -13.2202  -16.1273 C   0  0  0  0  0  0  0  0  0  0  0  0
   17.8245  -13.0131  -17.3843 C   0  0  0  0  0  0  0  0  0  0  0  0
   17.4205  -11.5627  -17.2109 C   0  0  0  0  0  0  0  0  0  0  0  0
   18.7510  -10.9761  -16.7308 C   0  0  1  0  0  0  0  0  0  0  0  0
   18.5342   -9.7011  -16.0054 C   0  0  0  0  0  0  0  0  0  0  0  0
   18.0433   -8.7290  -16.6684 O   0  0  0  0  0  0  0  0  0  0  0  0
   17.2252   -8.9242  -10.0898 N   0  0  0  0  0  0  0  0  0  0  0  0
   17.3557   -7.5656  -10.4539 C   0  0  0  0  0  0  0  0  0  0  0  0
   17.0647   -6.6710   -9.6336 O   0  0  0  0  0  0  0  0  0  0  0  0
   17.8488   -7.2363  -11.8400 C   0  0  0  0  0  0  0  0  0  0  0  0
   18.0518   -8.5004  -12.6224 C   0  0  0  0  0  0  0  0  0  0  0  0
   18.6339   -8.2760  -13.9928 C   0  0  2  0  0  0  0  0  0  0  0  0
   18.8521   -9.5667  -14.6558 N   0  0  0  0  0  0  0  0  0  0  0  0
   19.9207   -7.5500  -13.8674 C   0  0  0  0  0  0  0  0  0  0  0  0
   20.8781   -8.0512  -13.2405 O   0  0  0  0  0  0  0  0  0  0  0  0
   21.5620   -4.4331  -15.2122 C   0  0  0  0  0  0  0  0  0  0  0  0
   21.4062   -5.6301  -14.2915 C   0  0  2  0  0  0  0  0  0  0  0  0
   20.1213   -6.2630  -14.4492 N   0  0  0  0  0  0  0  0  0  0  0  0
   21.5452   -5.1146  -12.9088 C   0  0  0  0  0  0  0  0  0  0  0  0
   20.5428   -5.1251  -12.1552 O   0  0  0  0  0  0  0  0  0  0  0  0
   22.7342   -4.6177  -12.4012 O   0  0  0  0  0  0  0  0  0  0  0  0
  1  2  1  0
  2  3  1  0
  4  3  1  0
  5  1  1  0
  5  6  1  1
  5  4  1  0
  6 14  1  0
  7  6  2  0
  9 11  1  0
  9  8  1  0
 10  9  2  0
 12 11  1  0
 13 12  1  1
 14 13  1  0
 15 13  1  0
 16 15  2  0
 18 17  1  6
 18 20  1  0
 18 19  1  0
 19 15  1  0
 20 22  1  0
 21 20  2  0
M  END
$$$$
