PQA.pdb
     RDKit          3D

 22 22  0  0  1  0  0  0  0  0999 V2000
   18.5247  -16.0507  -20.7614 N   0  0  0  0  0  0  0  0  0  0  0  0
   18.6863  -16.0957  -22.1841 C   0  0  0  0  0  0  0  0  0  0  0  0
   19.9515  -15.3169  -22.4825 C   0  0  0  0  0  0  0  0  0  0  0  0
   19.8564  -14.2286  -21.4321 C   0  0  0  0  0  0  0  0  0  0  0  0
   19.4107  -15.0644  -20.2289 C   0  0  1  0  0  0  0  0  0  0  0  0
   18.7553  -14.2118  -19.2080 C   0  0  0  0  0  0  0  0  0  0  0  0
   17.5344  -13.9009  -19.4042 O   0  0  0  0  0  0  0  0  0  0  0  0
   20.1972  -15.0684  -13.9248 N   0  0  0  0  0  0  0  0  0  0  0  0
   18.8970  -15.4551  -14.3191 C   0  0  0  0  0  0  0  0  0  0  0  0
   18.3861  -16.4912  -13.8468 O   0  0  0  0  0  0  0  0  0  0  0  0
   18.1593  -14.5918  -15.3108 C   0  0  0  0  0  0  0  0  0  0  0  0
   19.0172  -13.4273  -15.7100 C   0  0  0  0  0  0  0  0  0  0  0  0
   18.7429  -12.9241  -17.1024 C   0  0  2  0  0  0  0  0  0  0  0  0
   19.4410  -13.7667  -18.0801 N   0  0  0  0  0  0  0  0  0  0  0  0
   19.2114  -11.5222  -17.2198 C   0  0  0  0  0  0  0  0  0  0  0  0
   20.4267  -11.2640  -17.3510 O   0  0  0  0  0  0  0  0  0  0  0  0
   17.9360   -8.1089  -17.9176 C   0  0  0  0  0  0  0  0  0  0  0  0
   18.8511   -9.0846  -17.1996 C   0  0  2  0  0  0  0  0  0  0  0  0
   18.3075  -10.4190  -17.1886 N   0  0  0  0  0  0  0  0  0  0  0  0
   18.9858   -8.5860  -15.8103 C   0  0  0  0  0  0  0  0  0  0  0  0
   18.5467   -9.2896  -14.8695 O   0  0  0  0  0  0  0  0  0  0  0  0
   19.5761   -7.3737  -15.4940 O   0  0  0  0  0  0  0  0  0  0  0  0
  1  2  1  0
  2  3  1  0
  4  3  1  0
  5  1  1  0
  5  6  1  1
  5  4  1  0
  6 14  1  0
  7  6  2  0
  9 11  1  0
  9  8  1  0
 10  9  2  0
 12 11  1  0
 13 12  1  1
 14 13  1  0
 15 13  1  0
 16 15  2  0
 18 17  1  6
 18 20  1  0
 18 19  1  0
 19 15  1  0
 20 22  1  0
 21 20  2  0
M  END
$$$$
