PQA.pdb
     RDKit          3D

 22 22  0  0  1  0  0  0  0  0999 V2000
   26.7455  -20.1898  -16.3011 N   0  0  0  0  0  0  0  0  0  0  0  0
   27.1842  -18.8265  -16.3378 C   0  0  0  0  0  0  0  0  0  0  0  0
   28.0500  -18.7028  -17.5753 C   0  0  0  0  0  0  0  0  0  0  0  0
   28.7203  -20.0621  -17.5766 C   0  0  0  0  0  0  0  0  0  0  0  0
   27.5184  -20.9470  -17.2341 C   0  0  1  0  0  0  0  0  0  0  0  0
   27.9624  -22.2459  -16.6736 C   0  0  0  0  0  0  0  0  0  0  0  0
   27.0989  -22.9301  -16.0318 O   0  0  0  0  0  0  0  0  0  0  0  0
   28.2086  -27.9239  -15.7390 N   0  0  0  0  0  0  0  0  0  0  0  0
   27.9128  -27.0688  -16.8238 C   0  0  0  0  0  0  0  0  0  0  0  0
   26.7254  -26.8673  -17.1511 O   0  0  0  0  0  0  0  0  0  0  0  0
   29.0565  -26.4190  -17.5604 C   0  0  0  0  0  0  0  0  0  0  0  0
   28.8163  -24.9422  -17.6736 C   0  0  0  0  0  0  0  0  0  0  0  0
   29.5578  -24.1290  -16.6460 C   0  0  2  0  0  0  0  0  0  0  0  0
   29.2677  -22.7036  -16.8388 N   0  0  0  0  0  0  0  0  0  0  0  0
   31.0141  -24.3703  -16.7855 C   0  0  0  0  0  0  0  0  0  0  0  0
   31.6274  -24.0002  -17.8091 O   0  0  0  0  0  0  0  0  0  0  0  0
   33.8801  -25.5276  -14.6266 C   0  0  0  0  0  0  0  0  0  0  0  0
   33.2037  -25.0893  -15.9132 C   0  0  2  0  0  0  0  0  0  0  0  0
   31.7712  -25.0274  -15.7706 N   0  0  0  0  0  0  0  0  0  0  0  0
   33.5628  -26.0976  -16.9385 C   0  0  0  0  0  0  0  0  0  0  0  0
   34.7728  -26.2726  -17.2178 O   0  0  0  0  0  0  0  0  0  0  0  0
   32.6240  -26.8632  -17.6099 O   0  0  0  0  0  0  0  0  0  0  0  0
  1  2  1  0
  2  3  1  0
  4  3  1  0
  5  1  1  0
  5  6  1  1
  5  4  1  0
  6 14  1  0
  7  6  2  0
  9 11  1  0
  9  8  1  0
 10  9  2  0
 12 11  1  0
 13 12  1  6
 14 13  1  0
 15 13  1  0
 16 15  2  0
 18 17  1  1
 18 20  1  0
 18 19  1  0
 19 15  1  0
 20 22  1  0
 21 20  2  0
M  END
$$$$
