PQA.pdb
     RDKit          3D

 22 22  0  0  1  0  0  0  0  0999 V2000
   24.7192  -21.7917  -13.4913 N   0  0  0  0  0  0  0  0  0  0  0  0
   25.7976  -21.9577  -14.4196 C   0  0  0  0  0  0  0  0  0  0  0  0
   25.6929  -20.7971  -15.3884 C   0  0  0  0  0  0  0  0  0  0  0  0
   24.1870  -20.6560  -15.4838 C   0  0  0  0  0  0  0  0  0  0  0  0
   23.8154  -20.8124  -14.0065 C   0  0  1  0  0  0  0  0  0  0  0  0
   22.3980  -21.2226  -13.8597 C   0  0  0  0  0  0  0  0  0  0  0  0
   21.5073  -20.3671  -14.1768 O   0  0  0  0  0  0  0  0  0  0  0  0
   19.9931  -26.0278  -16.0713 N   0  0  0  0  0  0  0  0  0  0  0  0
   18.8448  -25.6150  -15.3596 C   0  0  0  0  0  0  0  0  0  0  0  0
   17.7507  -26.1803  -15.5624 O   0  0  0  0  0  0  0  0  0  0  0  0
   18.9804  -24.4901  -14.3652 C   0  0  0  0  0  0  0  0  0  0  0  0
   20.4140  -24.0553  -14.2799 C   0  0  0  0  0  0  0  0  0  0  0  0
   20.6351  -22.8784  -13.3672 C   0  0  2  0  0  0  0  0  0  0  0  0
   22.0496  -22.4888  -13.3950 N   0  0  0  0  0  0  0  0  0  0  0  0
   20.2409  -23.2464  -11.9860 C   0  0  0  0  0  0  0  0  0  0  0  0
   21.0673  -23.7579  -11.2010 O   0  0  0  0  0  0  0  0  0  0  0  0
   17.2979  -22.8538   -9.6668 C   0  0  0  0  0  0  0  0  0  0  0  0
   18.6079  -23.4485  -10.1517 C   0  0  2  0  0  0  0  0  0  0  0  0
   18.9174  -23.0359  -11.4972 N   0  0  0  0  0  0  0  0  0  0  0  0
   18.4416  -24.9205  -10.1039 C   0  0  0  0  0  0  0  0  0  0  0  0
   18.3456  -25.5541  -11.1819 O   0  0  0  0  0  0  0  0  0  0  0  0
   18.3861  -25.6390   -8.9211 O   0  0  0  0  0  0  0  0  0  0  0  0
  1  2  1  0
  2  3  1  0
  4  3  1  0
  5  1  1  0
  5  6  1  6
  5  4  1  0
  6 14  1  0
  7  6  2  0
  9 11  1  0
  9  8  1  0
 10  9  2  0
 12 11  1  0
 13 12  1  6
 14 13  1  0
 15 13  1  0
 16 15  2  0
 18 17  1  6
 18 20  1  0
 18 19  1  0
 19 15  1  0
 20 22  1  0
 21 20  2  0
M  END
$$$$
