PQA.pdb
     RDKit          3D

 22 22  0  0  1  0  0  0  0  0999 V2000
   25.1347  -12.6706  -17.6374 N   0  0  0  0  0  0  0  0  0  0  0  0
   26.5202  -12.9959  -17.4734 C   0  0  0  0  0  0  0  0  0  0  0  0
   26.8214  -12.7971  -16.0017 C   0  0  0  0  0  0  0  0  0  0  0  0
   25.9419  -11.5996  -15.7023 C   0  0  0  0  0  0  0  0  0  0  0  0
   24.6744  -12.0107  -16.4567 C   0  0  1  0  0  0  0  0  0  0  0  0
   23.8364  -10.8267  -16.7644 C   0  0  0  0  0  0  0  0  0  0  0  0
   23.8612  -10.3898  -17.9620 O   0  0  0  0  0  0  0  0  0  0  0  0
   18.1771  -10.1651  -15.4230 N   0  0  0  0  0  0  0  0  0  0  0  0
   18.3505   -8.9076  -16.0429 C   0  0  0  0  0  0  0  0  0  0  0  0
   17.3536   -8.2203  -16.3451 O   0  0  0  0  0  0  0  0  0  0  0  0
   19.7530   -8.4308  -16.3228 C   0  0  0  0  0  0  0  0  0  0  0  0
   20.7429   -9.4589  -15.8595 C   0  0  0  0  0  0  0  0  0  0  0  0
   22.1729   -9.1033  -16.1689 C   0  0  2  0  0  0  0  0  0  0  0  0
   23.0530  -10.2142  -15.7889 N   0  0  0  0  0  0  0  0  0  0  0  0
   22.5496   -7.8821  -15.4171 C   0  0  0  0  0  0  0  0  0  0  0  0
   22.9507   -7.9575  -14.2363 O   0  0  0  0  0  0  0  0  0  0  0  0
   23.0317   -4.1975  -16.0702 C   0  0  0  0  0  0  0  0  0  0  0  0
   22.9191   -5.4534  -15.2246 C   0  0  2  0  0  0  0  0  0  0  0  0
   22.4720   -6.5825  -16.0003 N   0  0  0  0  0  0  0  0  0  0  0  0
   21.9321   -5.1533  -14.1603 C   0  0  0  0  0  0  0  0  0  0  0  0
   22.2427   -4.3384  -13.2591 O   0  0  0  0  0  0  0  0  0  0  0  0
   20.6743   -5.7308  -14.1085 O   0  0  0  0  0  0  0  0  0  0  0  0
  1  2  1  0
  2  3  1  0
  4  3  1  0
  5  1  1  0
  5  6  1  6
  5  4  1  0
  6 14  1  0
  7  6  2  0
  9 11  1  0
  9  8  1  0
 10  9  2  0
 12 11  1  0
 13 12  1  1
 14 13  1  0
 15 13  1  0
 16 15  2  0
 18 17  1  6
 18 20  1  0
 18 19  1  0
 19 15  1  0
 20 22  1  0
 21 20  2  0
M  END
$$$$
