PQA.pdb
     RDKit          3D

 22 22  0  0  1  0  0  0  0  0999 V2000
   28.4095  -20.5944  -15.9704 N   0  0  0  0  0  0  0  0  0  0  0  0
   28.6022  -19.8337  -17.1690 C   0  0  0  0  0  0  0  0  0  0  0  0
   28.3385  -18.3902  -16.7907 C   0  0  0  0  0  0  0  0  0  0  0  0
   27.2193  -18.5715  -15.7851 C   0  0  0  0  0  0  0  0  0  0  0  0
   27.7641  -19.7680  -15.0000 C   0  0  1  0  0  0  0  0  0  0  0  0
   26.6702  -20.4782  -14.2944 C   0  0  0  0  0  0  0  0  0  0  0  0
   26.3252  -21.6178  -14.7505 O   0  0  0  0  0  0  0  0  0  0  0  0
   24.2901  -20.9933   -8.5806 N   0  0  0  0  0  0  0  0  0  0  0  0
   25.6587  -20.8133   -8.8808 C   0  0  0  0  0  0  0  0  0  0  0  0
   26.5207  -21.0198   -8.0021 O   0  0  0  0  0  0  0  0  0  0  0  0
   26.0383  -20.3717  -10.2713 C   0  0  0  0  0  0  0  0  0  0  0  0
   24.8032  -20.1954  -11.1050 C   0  0  0  0  0  0  0  0  0  0  0  0
   24.9600  -20.6704  -12.5252 C   0  0  2  0  0  0  0  0  0  0  0  0
   26.0429  -19.9270  -13.1795 N   0  0  0  0  0  0  0  0  0  0  0  0
   23.6886  -20.4579  -13.2579 C   0  0  0  0  0  0  0  0  0  0  0  0
   23.3590  -19.3175  -13.6474 O   0  0  0  0  0  0  0  0  0  0  0  0
   21.2139  -22.4061  -15.2031 C   0  0  0  0  0  0  0  0  0  0  0  0
   21.6004  -21.2479  -14.3008 C   0  0  2  0  0  0  0  0  0  0  0  0
   22.7956  -21.5320  -13.5477 N   0  0  0  0  0  0  0  0  0  0  0  0
   20.4613  -21.0414  -13.3751 C   0  0  0  0  0  0  0  0  0  0  0  0
   20.6244  -21.2729  -12.1534 O   0  0  0  0  0  0  0  0  0  0  0  0
   19.2157  -20.6025  -13.7924 O   0  0  0  0  0  0  0  0  0  0  0  0
  1  2  1  0
  2  3  1  0
  4  3  1  0
  5  1  1  0
  5  6  1  6
  5  4  1  0
  6 14  1  0
  7  6  2  0
  9 11  1  0
  9  8  1  0
 10  9  2  0
 12 11  1  0
 13 12  1  1
 14 13  1  0
 15 13  1  0
 16 15  2  0
 18 17  1  6
 18 20  1  0
 18 19  1  0
 19 15  1  0
 20 22  1  0
 21 20  2  0
M  END
$$$$
