PQA.pdb
     RDKit          3D

 22 22  0  0  1  0  0  0  0  0999 V2000
   14.9963  -20.2848    3.3726 N   0  0  0  0  0  0  0  0  0  0  0  0
   14.2083  -20.3823    2.1802 C   0  0  0  0  0  0  0  0  0  0  0  0
   15.0443  -21.1731    1.1942 C   0  0  0  0  0  0  0  0  0  0  0  0
   16.4298  -20.6686    1.5447 C   0  0  0  0  0  0  0  0  0  0  0  0
   16.3351  -20.6840    3.0730 C   0  0  1  0  0  0  0  0  0  0  0  0
   17.3408  -19.7745    3.6730 C   0  0  0  0  0  0  0  0  0  0  0  0
   18.5668  -20.0056    3.4099 O   0  0  0  0  0  0  0  0  0  0  0  0
   16.5145  -13.8687    4.8616 N   0  0  0  0  0  0  0  0  0  0  0  0
   17.2254  -14.2746    3.7103 C   0  0  0  0  0  0  0  0  0  0  0  0
   17.3751  -13.4802    2.7594 O   0  0  0  0  0  0  0  0  0  0  0  0
   17.7874  -15.6729    3.6675 C   0  0  0  0  0  0  0  0  0  0  0  0
   17.4886  -16.3819    4.9557 C   0  0  0  0  0  0  0  0  0  0  0  0
   17.9976  -17.7983    4.9979 C   0  0  2  0  0  0  0  0  0  0  0  0
   16.9663  -18.7107    4.4907 N   0  0  0  0  0  0  0  0  0  0  0  0
   18.3433  -18.1552    6.3949 C   0  0  0  0  0  0  0  0  0  0  0  0
   17.4701  -18.5832    7.1793 O   0  0  0  0  0  0  0  0  0  0  0  0
   21.4157  -18.7090    8.4810 C   0  0  0  0  0  0  0  0  0  0  0  0
   19.9367  -18.4550    8.2506 C   0  0  2  0  0  0  0  0  0  0  0  0
   19.6712  -18.0275    6.9003 N   0  0  0  0  0  0  0  0  0  0  0  0
   19.5430  -17.3882    9.2012 C   0  0  0  0  0  0  0  0  0  0  0  0
   19.3866  -16.2209    8.7703 O   0  0  0  0  0  0  0  0  0  0  0  0
   19.3370  -17.6150   10.5519 O   0  0  0  0  0  0  0  0  0  0  0  0
  1  2  1  0
  2  3  1  0
  4  3  1  0
  5  1  1  0
  5  6  1  1
  5  4  1  0
  6 14  1  0
  7  6  2  0
  9 11  1  0
  9  8  1  0
 10  9  2  0
 12 11  1  0
 13 12  1  1
 14 13  1  0
 15 13  1  0
 16 15  2  0
 18 17  1  6
 18 20  1  0
 18 19  1  0
 19 15  1  0
 20 22  1  0
 21 20  2  0
M  END
$$$$
