PQA.pdb
     RDKit          3D

 22 22  0  0  1  0  0  0  0  0999 V2000
   23.7723  -11.4264  -15.6123 N   0  0  0  0  0  0  0  0  0  0  0  0
   23.7004  -12.8554  -15.5402 C   0  0  0  0  0  0  0  0  0  0  0  0
   23.7191  -13.3443  -16.9745 C   0  0  0  0  0  0  0  0  0  0  0  0
   22.9191  -12.2470  -17.6475 C   0  0  0  0  0  0  0  0  0  0  0  0
   23.5267  -11.0209  -16.9601 C   0  0  1  0  0  0  0  0  0  0  0  0
   22.6061   -9.8613  -17.0398 C   0  0  0  0  0  0  0  0  0  0  0  0
   22.4151   -9.3461  -18.1904 O   0  0  0  0  0  0  0  0  0  0  0  0
   17.3428   -8.8940  -14.3818 N   0  0  0  0  0  0  0  0  0  0  0  0
   17.4944   -7.6227  -14.9787 C   0  0  0  0  0  0  0  0  0  0  0  0
   16.5247   -6.8385  -15.0269 O   0  0  0  0  0  0  0  0  0  0  0  0
   18.8407   -7.2500  -15.5456 C   0  0  0  0  0  0  0  0  0  0  0  0
   19.7728   -8.4226  -15.4584 C   0  0  0  0  0  0  0  0  0  0  0  0
   21.1391   -8.1522  -16.0304 C   0  0  2  0  0  0  0  0  0  0  0  0
   21.9740   -9.3526  -15.9074 N   0  0  0  0  0  0  0  0  0  0  0  0
   21.7650   -7.0258  -15.2969 C   0  0  0  0  0  0  0  0  0  0  0  0
   22.2987   -7.2078  -14.1821 O   0  0  0  0  0  0  0  0  0  0  0  0
   22.6879   -3.4230  -15.9034 C   0  0  0  0  0  0  0  0  0  0  0  0
   22.4582   -4.6719  -15.0713 C   0  0  2  0  0  0  0  0  0  0  0  0
   21.7860   -5.7004  -15.8241 N   0  0  0  0  0  0  0  0  0  0  0  0
   21.6169   -4.2597  -13.9227 C   0  0  0  0  0  0  0  0  0  0  0  0
   20.4341   -4.6717  -13.8601 O   0  0  0  0  0  0  0  0  0  0  0  0
   22.0727   -3.4365  -12.9063 O   0  0  0  0  0  0  0  0  0  0  0  0
  1  2  1  0
  2  3  1  0
  4  3  1  0
  5  1  1  0
  5  6  1  1
  5  4  1  0
  6 14  1  0
  7  6  2  0
  9 11  1  0
  9  8  1  0
 10  9  2  0
 12 11  1  0
 13 12  1  1
 14 13  1  0
 15 13  1  0
 16 15  2  0
 18 17  1  6
 18 20  1  0
 18 19  1  0
 19 15  1  0
 20 22  1  0
 21 20  2  0
M  END
$$$$
