PQA.pdb
     RDKit          3D

 22 22  0  0  1  0  0  0  0  0999 V2000
   24.6156  -11.1128  -15.9173 N   0  0  0  0  0  0  0  0  0  0  0  0
   24.7184  -12.5395  -15.8390 C   0  0  0  0  0  0  0  0  0  0  0  0
   24.3788  -13.0562  -17.2225 C   0  0  0  0  0  0  0  0  0  0  0  0
   23.3090  -12.0630  -17.6299 C   0  0  0  0  0  0  0  0  0  0  0  0
   23.9544  -10.7655  -17.1354 C   0  0  1  0  0  0  0  0  0  0  0  0
   22.9324   -9.7093  -16.9393 C   0  0  0  0  0  0  0  0  0  0  0  0
   22.3045   -9.3060  -17.9731 O   0  0  0  0  0  0  0  0  0  0  0  0
   18.5432   -9.3767  -12.8771 N   0  0  0  0  0  0  0  0  0  0  0  0
   18.3763   -9.8302  -14.2045 C   0  0  0  0  0  0  0  0  0  0  0  0
   17.3870  -10.5302  -14.5030 O   0  0  0  0  0  0  0  0  0  0  0  0
   19.4126   -9.4487  -15.2308 C   0  0  0  0  0  0  0  0  0  0  0  0
   20.5515   -8.7345  -14.5640 C   0  0  0  0  0  0  0  0  0  0  0  0
   21.5788   -8.2032  -15.5281 C   0  0  2  0  0  0  0  0  0  0  0  0
   22.6660   -9.1769  -15.6798 N   0  0  0  0  0  0  0  0  0  0  0  0
   22.1184   -6.9213  -15.0144 C   0  0  0  0  0  0  0  0  0  0  0  0
   22.9355   -6.9054  -14.0694 O   0  0  0  0  0  0  0  0  0  0  0  0
   22.1297   -3.2809  -15.9806 C   0  0  0  0  0  0  0  0  0  0  0  0
   22.3656   -4.4701  -15.0668 C   0  0  2  0  0  0  0  0  0  0  0  0
   21.7343   -5.6642  -15.5687 N   0  0  0  0  0  0  0  0  0  0  0  0
   21.7833   -4.1090  -13.7525 C   0  0  0  0  0  0  0  0  0  0  0  0
   20.6712   -4.5909  -13.4302 O   0  0  0  0  0  0  0  0  0  0  0  0
   22.4082   -3.2601  -12.8542 O   0  0  0  0  0  0  0  0  0  0  0  0
  1  2  1  0
  2  3  1  0
  4  3  1  0
  5  1  1  0
  5  6  1  1
  5  4  1  0
  6 14  1  0
  7  6  2  0
  9 11  1  0
  9  8  1  0
 10  9  2  0
 12 11  1  0
 13 12  1  1
 14 13  1  0
 15 13  1  0
 16 15  2  0
 18 17  1  6
 18 20  1  0
 18 19  1  0
 19 15  1  0
 20 22  1  0
 21 20  2  0
M  END
$$$$
