PQA.pdb
     RDKit          3D

 22 22  0  0  1  0  0  0  0  0999 V2000
   18.7458  -10.0367  -14.8623 N   0  0  0  0  0  0  0  0  0  0  0  0
   19.2376  -11.3629  -14.6348 C   0  0  0  0  0  0  0  0  0  0  0  0
   18.2473  -12.2930  -15.3060 C   0  0  0  0  0  0  0  0  0  0  0  0
   16.9525  -11.5519  -15.0393 C   0  0  0  0  0  0  0  0  0  0  0  0
   17.4030  -10.1203  -15.3431 C   0  0  1  0  0  0  0  0  0  0  0  0
   16.5086   -9.1356  -14.6881 C   0  0  0  0  0  0  0  0  0  0  0  0
   15.2839   -9.1337  -15.0427 O   0  0  0  0  0  0  0  0  0  0  0  0
   15.8109   -7.1516   -9.0000 N   0  0  0  0  0  0  0  0  0  0  0  0
   14.7885   -7.8834   -9.6442 C   0  0  0  0  0  0  0  0  0  0  0  0
   13.8657   -8.3870   -8.9716 O   0  0  0  0  0  0  0  0  0  0  0  0
   14.8466   -8.0339  -11.1431 C   0  0  0  0  0  0  0  0  0  0  0  0
   16.0502   -7.3173  -11.6811 C   0  0  0  0  0  0  0  0  0  0  0  0
   16.0779   -7.2268  -13.1838 C   0  0  2  0  0  0  0  0  0  0  0  0
   16.9824   -8.2477  -13.7249 N   0  0  0  0  0  0  0  0  0  0  0  0
   16.5423   -5.8775  -13.5866 C   0  0  0  0  0  0  0  0  0  0  0  0
   17.7423   -5.5523  -13.4642 O   0  0  0  0  0  0  0  0  0  0  0  0
   15.3133   -2.9696  -15.5940 C   0  0  0  0  0  0  0  0  0  0  0  0
   16.1943   -3.6379  -14.5538 C   0  0  2  0  0  0  0  0  0  0  0  0
   15.6515   -4.9021  -14.1251 N   0  0  0  0  0  0  0  0  0  0  0  0
   16.2635   -2.7056  -13.4036 C   0  0  0  0  0  0  0  0  0  0  0  0
   15.7514   -3.0516  -12.3123 O   0  0  0  0  0  0  0  0  0  0  0  0
   16.8691   -1.4619  -13.4716 O   0  0  0  0  0  0  0  0  0  0  0  0
  1  2  1  0
  2  3  1  0
  4  3  1  0
  5  1  1  0
  5  6  1  1
  5  4  1  0
  6 14  1  0
  7  6  2  0
  9 11  1  0
  9  8  1  0
 10  9  2  0
 12 11  1  0
 13 12  1  1
 14 13  1  0
 15 13  1  0
 16 15  2  0
 18 17  1  6
 18 20  1  0
 18 19  1  0
 19 15  1  0
 20 22  1  0
 21 20  2  0
M  END
$$$$
