YMP.pdb
     RDKit          3D

 28 29  0  0  1  0  0  0  0  0999 V2000
   17.2279  -13.5240  -16.1761 O   0  0  0  0  0  0  0  0  0  0  0  0
   17.9860  -14.6122  -15.7654 C   0  0  0  0  0  0  0  0  0  0  0  0
   17.4030  -15.8152  -15.4147 C   0  0  0  0  0  0  0  0  0  0  0  0
   18.1516  -16.8931  -15.0081 C   0  0  0  0  0  0  0  0  0  0  0  0
   19.5275  -16.8197  -14.9321 C   0  0  0  0  0  0  0  0  0  0  0  0
   20.3362  -17.9999  -14.4880 C   0  0  0  0  0  0  0  0  0  0  0  0
   21.0455  -18.5240  -15.6980 C   0  0  2  0  0  0  0  0  0  0  0  0
   20.1148  -19.2649  -16.5078 N   0  0  0  0  0  0  0  0  0  0  0  0
   22.2696  -19.2916  -15.4058 C   0  0  0  0  0  0  0  0  0  0  0  0
   22.2357  -20.4995  -15.1382 O   0  0  0  0  0  0  0  0  0  0  0  0
   20.1046  -15.6153  -15.2836 C   0  0  0  0  0  0  0  0  0  0  0  0
   19.3593  -14.5283  -15.6930 C   0  0  0  0  0  0  0  0  0  0  0  0
   28.0176  -17.2521  -17.0955 C   0  0  0  0  0  0  0  0  0  0  0  0
   28.6687  -18.0675  -15.6154 S   0  0  0  0  0  0  0  0  0  0  0  0
   27.3008  -18.9352  -14.7217 C   0  0  0  0  0  0  0  0  0  0  0  0
   26.0181  -18.5741  -15.3054 C   0  0  0  0  0  0  0  0  0  0  0  0
   24.7383  -19.1632  -14.8440 C   0  0  2  0  0  0  0  0  0  0  0  0
   23.5452  -18.6260  -15.4281 N   0  0  0  0  0  0  0  0  0  0  0  0
   24.6031  -19.5048  -13.4558 C   0  0  0  0  0  0  0  0  0  0  0  0
   23.7550  -18.8266  -12.7276 O   0  0  0  0  0  0  0  0  0  0  0  0
   25.2727  -20.4844  -12.7521 N   0  0  0  0  0  0  0  0  0  0  0  0
   26.2695  -21.4404  -13.1267 C   0  0  0  0  0  0  0  0  0  0  0  0
   25.5600  -22.7267  -12.6459 C   0  0  0  0  0  0  0  0  0  0  0  0
   24.9221  -22.2784  -11.3265 C   0  0  0  0  0  0  0  0  0  0  0  0
   25.0572  -20.7877  -11.3258 C   0  0  1  0  0  0  0  0  0  0  0  0
   26.2091  -20.3790  -10.4980 C   0  0  0  0  0  0  0  0  0  0  0  0
   27.3310  -20.0726  -11.0301 O   0  0  0  0  0  0  0  0  0  0  0  0
   26.1853  -20.2938   -9.1154 O   0  0  0  0  0  0  0  0  0  0  0  0
  2  1  1  0
  3  2  2  0
  4  3  1  0
  5 11  1  0
  5  4  2  0
  6  5  1  0
  7  6  1  0
  7  8  1  1
  9 18  1  0
  9  7  1  0
 10  9  2  0
 11 12  2  0
 12  2  1  0
 13 14  1  0
 14 15  1  0
 17 16  1  1
 16 15  1  0
 17 18  1  0
 19 17  1  0
 20 19  2  0
 21 22  1  0
 21 19  1  0
 23 22  1  0
 24 23  1  0
 24 25  1  0
 25 26  1  1
 25 21  1  0
 26 28  1  0
 27 26  2  0
M  END
$$$$
