YMP.pdb
     RDKit          3D

 28 29  0  0  1  0  0  0  0  0999 V2000
   15.7323  -24.0563  -14.3076 O   0  0  0  0  0  0  0  0  0  0  0  0
   16.9772  -23.4573  -14.4447 C   0  0  0  0  0  0  0  0  0  0  0  0
   18.0528  -23.8245  -13.6584 C   0  0  0  0  0  0  0  0  0  0  0  0
   19.2854  -23.2328  -13.7927 C   0  0  0  0  0  0  0  0  0  0  0  0
   19.5035  -22.2394  -14.7255 C   0  0  0  0  0  0  0  0  0  0  0  0
   20.8508  -21.5998  -14.8656 C   0  0  0  0  0  0  0  0  0  0  0  0
   21.0251  -20.6861  -13.6923 C   0  0  2  0  0  0  0  0  0  0  0  0
   20.0261  -19.6516  -13.7462 N   0  0  0  0  0  0  0  0  0  0  0  0
   22.3866  -20.1434  -13.5357 C   0  0  0  0  0  0  0  0  0  0  0  0
   22.7988  -19.2023  -14.2257 O   0  0  0  0  0  0  0  0  0  0  0  0
   18.4252  -21.8765  -15.5084 C   0  0  0  0  0  0  0  0  0  0  0  0
   17.1843  -22.4663  -15.3793 C   0  0  0  0  0  0  0  0  0  0  0  0
   27.2261  -19.3773   -8.6410 C   0  0  0  0  0  0  0  0  0  0  0  0
   26.0726  -20.7733   -8.6205 S   0  0  0  0  0  0  0  0  0  0  0  0
   24.7912  -20.5500   -9.9362 C   0  0  0  0  0  0  0  0  0  0  0  0
   25.3668  -20.8279  -11.2431 C   0  0  0  0  0  0  0  0  0  0  0  0
   24.6808  -20.4720  -12.5081 C   0  0  2  0  0  0  0  0  0  0  0  0
   23.2701  -20.7187  -12.5562 N   0  0  0  0  0  0  0  0  0  0  0  0
   25.3578  -20.7254  -13.7489 C   0  0  0  0  0  0  0  0  0  0  0  0
   24.7623  -21.4718  -14.6419 O   0  0  0  0  0  0  0  0  0  0  0  0
   26.6011  -20.2782  -14.1458 N   0  0  0  0  0  0  0  0  0  0  0  0
   27.6313  -19.5476  -13.4728 C   0  0  0  0  0  0  0  0  0  0  0  0
   27.7957  -18.3850  -14.4779 C   0  0  0  0  0  0  0  0  0  0  0  0
   27.6702  -19.0965  -15.8294 C   0  0  0  0  0  0  0  0  0  0  0  0
   27.1688  -20.4662  -15.4930 C   0  0  1  0  0  0  0  0  0  0  0  0
   28.2849  -21.4323  -15.4880 C   0  0  0  0  0  0  0  0  0  0  0  0
   28.7462  -21.9050  -14.3928 O   0  0  0  0  0  0  0  0  0  0  0  0
   28.9172  -21.9002  -16.6285 O   0  0  0  0  0  0  0  0  0  0  0  0
  2  1  1  0
  3  2  2  0
  4  3  1  0
  5 11  1  0
  5  4  2  0
  6  5  1  0
  7  6  1  0
  7  8  1  6
  9 18  1  0
  9  7  1  0
 10  9  2  0
 11 12  2  0
 12  2  1  0
 13 14  1  0
 14 15  1  0
 17 16  1  1
 16 15  1  0
 17 18  1  0
 19 17  1  0
 20 19  2  0
 21 22  1  0
 21 19  1  0
 23 22  1  0
 24 23  1  0
 24 25  1  0
 25 26  1  1
 25 21  1  0
 26 28  1  0
 27 26  2  0
M  END
$$$$
