YMP.pdb
     RDKit          3D

 28 29  0  0  1  0  0  0  0  0999 V2000
   24.8439  -12.2137  -19.6729 O   0  0  0  0  0  0  0  0  0  0  0  0
   24.8918  -13.5947  -19.5380 C   0  0  0  0  0  0  0  0  0  0  0  0
   24.2503  -14.2480  -18.5029 C   0  0  0  0  0  0  0  0  0  0  0  0
   24.2966  -15.6145  -18.3678 C   0  0  0  0  0  0  0  0  0  0  0  0
   24.9907  -16.3983  -19.2668 C   0  0  0  0  0  0  0  0  0  0  0  0
   25.0357  -17.8876  -19.1124 C   0  0  0  0  0  0  0  0  0  0  0  0
   26.3398  -18.2199  -18.4560 C   0  0  2  0  0  0  0  0  0  0  0  0
   27.2711  -18.6711  -19.4561 N   0  0  0  0  0  0  0  0  0  0  0  0
   26.2341  -19.1581  -17.3240 C   0  0  0  0  0  0  0  0  0  0  0  0
   25.9958  -20.3610  -17.4917 O   0  0  0  0  0  0  0  0  0  0  0  0
   25.6298  -15.7401  -20.2991 C   0  0  0  0  0  0  0  0  0  0  0  0
   25.5877  -14.3681  -20.4413 C   0  0  0  0  0  0  0  0  0  0  0  0
   26.7890  -21.0925   -9.8379 C   0  0  0  0  0  0  0  0  0  0  0  0
   27.4361  -20.5363  -11.4353 S   0  0  0  0  0  0  0  0  0  0  0  0
   26.2301  -19.3846  -12.2363 C   0  0  0  0  0  0  0  0  0  0  0  0
   26.7220  -18.9805  -13.5443 C   0  0  0  0  0  0  0  0  0  0  0  0
   26.0865  -19.4261  -14.8074 C   0  0  2  0  0  0  0  0  0  0  0  0
   26.4098  -18.6709  -15.9814 N   0  0  0  0  0  0  0  0  0  0  0  0
   24.7252  -19.8811  -14.7654 C   0  0  0  0  0  0  0  0  0  0  0  0
   23.8069  -19.1515  -15.3432 O   0  0  0  0  0  0  0  0  0  0  0  0
   24.2283  -21.0235  -14.1729 N   0  0  0  0  0  0  0  0  0  0  0  0
   24.8486  -22.0913  -13.4496 C   0  0  0  0  0  0  0  0  0  0  0  0
   24.3270  -23.2816  -14.2864 C   0  0  0  0  0  0  0  0  0  0  0  0
   22.8835  -22.8653  -14.5889 C   0  0  0  0  0  0  0  0  0  0  0  0
   22.8104  -21.4257  -14.1854 C   0  0  1  0  0  0  0  0  0  0  0  0
   22.1926  -21.2995  -12.8507 C   0  0  0  0  0  0  0  0  0  0  0  0
   22.9019  -21.0650  -11.8126 O   0  0  0  0  0  0  0  0  0  0  0  0
   20.8346  -21.4208  -12.6047 O   0  0  0  0  0  0  0  0  0  0  0  0
  2  1  1  0
  3  2  2  0
  4  3  1  0
  5 11  1  0
  5  4  2  0
  6  5  1  0
  7  6  1  0
  7  8  1  6
  9 18  1  0
  9  7  1  0
 10  9  2  0
 11 12  2  0
 12  2  1  0
 13 14  1  0
 14 15  1  0
 17 16  1  1
 16 15  1  0
 17 18  1  0
 19 17  1  0
 20 19  2  0
 21 22  1  0
 21 19  1  0
 23 22  1  0
 24 23  1  0
 24 25  1  0
 25 26  1  1
 25 21  1  0
 26 28  1  0
 27 26  2  0
M  END
$$$$
