YMP.pdb
     RDKit          3D

 28 29  0  0  1  0  0  0  0  0999 V2000
   12.9316  -14.4749  -17.6755 O   0  0  0  0  0  0  0  0  0  0  0  0
   14.0964  -13.8700  -17.2229 C   0  0  0  0  0  0  0  0  0  0  0  0
   15.0983  -14.5917  -16.6021 C   0  0  0  0  0  0  0  0  0  0  0  0
   16.2515  -13.9947  -16.1537 C   0  0  0  0  0  0  0  0  0  0  0  0
   16.4600  -12.6391  -16.3053 C   0  0  0  0  0  0  0  0  0  0  0  0
   17.7206  -11.9962  -15.8137 C   0  0  0  0  0  0  0  0  0  0  0  0
   18.7111  -12.0628  -16.9346 C   0  0  2  0  0  0  0  0  0  0  0  0
   19.0269  -13.4405  -17.2052 N   0  0  0  0  0  0  0  0  0  0  0  0
   19.9176  -11.2395  -16.7355 C   0  0  0  0  0  0  0  0  0  0  0  0
   21.0560  -11.7199  -16.8060 O   0  0  0  0  0  0  0  0  0  0  0  0
   15.4557  -11.9228  -16.9262 C   0  0  0  0  0  0  0  0  0  0  0  0
   14.2947  -12.5155  -17.3793 C   0  0  0  0  0  0  0  0  0  0  0  0
   25.4107   -7.3374  -19.1407 C   0  0  0  0  0  0  0  0  0  0  0  0
   23.9897   -8.4581  -19.0751 S   0  0  0  0  0  0  0  0  0  0  0  0
   23.1711   -8.3401  -17.4202 C   0  0  0  0  0  0  0  0  0  0  0  0
   21.9387   -9.1131  -17.4189 C   0  0  0  0  0  0  0  0  0  0  0  0
   20.8751   -8.9156  -16.4051 C   0  0  2  0  0  0  0  0  0  0  0  0
   19.7781   -9.8363  -16.4486 N   0  0  0  0  0  0  0  0  0  0  0  0
   20.4945   -7.5735  -16.0647 C   0  0  0  0  0  0  0  0  0  0  0  0
   19.5101   -7.0196  -16.7231 O   0  0  0  0  0  0  0  0  0  0  0  0
   21.0468   -6.7505  -15.1051 N   0  0  0  0  0  0  0  0  0  0  0  0
   22.2015   -6.8723  -14.2685 C   0  0  0  0  0  0  0  0  0  0  0  0
   21.5260   -6.6552  -12.8953 C   0  0  0  0  0  0  0  0  0  0  0  0
   20.5121   -5.5466  -13.1976 C   0  0  0  0  0  0  0  0  0  0  0  0
   20.4864   -5.4516  -14.6912 C   0  0  1  0  0  0  0  0  0  0  0  0
   21.3226   -4.3234  -15.1463 C   0  0  0  0  0  0  0  0  0  0  0  0
   22.5010   -4.5156  -15.6047 O   0  0  0  0  0  0  0  0  0  0  0  0
   20.9248   -2.9965  -15.1191 O   0  0  0  0  0  0  0  0  0  0  0  0
  2  1  1  0
  3  2  2  0
  4  3  1  0
  5 11  1  0
  5  4  2  0
  6  5  1  0
  7  6  1  0
  7  8  1  1
  9 18  1  0
  9  7  1  0
 10  9  2  0
 11 12  2  0
 12  2  1  0
 13 14  1  0
 14 15  1  0
 17 16  1  6
 16 15  1  0
 17 18  1  0
 19 17  1  0
 20 19  2  0
 21 22  1  0
 21 19  1  0
 23 22  1  0
 24 23  1  0
 24 25  1  0
 25 26  1  1
 25 21  1  0
 26 28  1  0
 27 26  2  0
M  END
$$$$
