YMP.pdb
     RDKit          3D

 28 29  0  0  1  0  0  0  0  0999 V2000
   21.2013  -15.7560  -18.2168 O   0  0  0  0  0  0  0  0  0  0  0  0
   21.7893  -16.7074  -17.3941 C   0  0  0  0  0  0  0  0  0  0  0  0
   22.3766  -16.3664  -16.1905 C   0  0  0  0  0  0  0  0  0  0  0  0
   22.9590  -17.3065  -15.3752 C   0  0  0  0  0  0  0  0  0  0  0  0
   22.9822  -18.6409  -15.7261 C   0  0  0  0  0  0  0  0  0  0  0  0
   23.6190  -19.6594  -14.8310 C   0  0  0  0  0  0  0  0  0  0  0  0
   24.9820  -19.1457  -14.4845 C   0  0  2  0  0  0  0  0  0  0  0  0
   25.7607  -19.0215  -15.6884 N   0  0  0  0  0  0  0  0  0  0  0  0
   25.6809  -19.9184  -13.4417 C   0  0  0  0  0  0  0  0  0  0  0  0
   26.0785  -21.0736  -13.6399 O   0  0  0  0  0  0  0  0  0  0  0  0
   22.3939  -18.9758  -16.9298 C   0  0  0  0  0  0  0  0  0  0  0  0
   21.8071  -18.0373  -17.7540 C   0  0  0  0  0  0  0  0  0  0  0  0
   29.4347  -18.9315   -7.9186 C   0  0  0  0  0  0  0  0  0  0  0  0
   27.7195  -18.8441   -7.3442 S   0  0  0  0  0  0  0  0  0  0  0  0
   26.6362  -19.8690   -8.4391 C   0  0  0  0  0  0  0  0  0  0  0  0
   26.6981  -19.3725   -9.8052 C   0  0  0  0  0  0  0  0  0  0  0  0
   26.0413  -20.0693  -10.9369 C   0  0  2  0  0  0  0  0  0  0  0  0
   25.9107  -19.3219  -12.1525 N   0  0  0  0  0  0  0  0  0  0  0  0
   24.9225  -20.9250  -10.6576 C   0  0  0  0  0  0  0  0  0  0  0  0
   23.7208  -20.4867  -10.9278 O   0  0  0  0  0  0  0  0  0  0  0  0
   24.9369  -22.1944  -10.1175 N   0  0  0  0  0  0  0  0  0  0  0  0
   25.9919  -23.0346   -9.6387 C   0  0  0  0  0  0  0  0  0  0  0  0
   25.7077  -24.2880  -10.4972 C   0  0  0  0  0  0  0  0  0  0  0  0
   24.1765  -24.3521  -10.4915 C   0  0  0  0  0  0  0  0  0  0  0  0
   23.7430  -23.0367   -9.9238 C   0  0  1  0  0  0  0  0  0  0  0  0
   23.4014  -23.1839   -8.4953 C   0  0  0  0  0  0  0  0  0  0  0  0
   24.2192  -22.8271   -7.5790 O   0  0  0  0  0  0  0  0  0  0  0  0
   22.2060  -23.7060   -8.0285 O   0  0  0  0  0  0  0  0  0  0  0  0
  2  1  1  0
  3  2  2  0
  4  3  1  0
  5 11  1  0
  5  4  2  0
  6  5  1  0
  7  6  1  0
  7  8  1  6
  9 18  1  0
  9  7  1  0
 10  9  2  0
 11 12  2  0
 12  2  1  0
 13 14  1  0
 14 15  1  0
 17 16  1  1
 16 15  1  0
 17 18  1  0
 19 17  1  0
 20 19  2  0
 21 22  1  0
 21 19  1  0
 23 22  1  0
 24 23  1  0
 24 25  1  0
 25 26  1  1
 25 21  1  0
 26 28  1  0
 27 26  2  0
M  END
$$$$
