YMP.pdb
     RDKit          3D

 28 29  0  0  1  0  0  0  0  0999 V2000
   16.7415  -24.6583  -15.2751 O   0  0  0  0  0  0  0  0  0  0  0  0
   17.9035  -23.8992  -15.2389 C   0  0  0  0  0  0  0  0  0  0  0  0
   18.0355  -22.7344  -15.9708 C   0  0  0  0  0  0  0  0  0  0  0  0
   19.1845  -21.9820  -15.9363 C   0  0  0  0  0  0  0  0  0  0  0  0
   20.2635  -22.3603  -15.1635 C   0  0  0  0  0  0  0  0  0  0  0  0
   21.5125  -21.5338  -15.1313 C   0  0  0  0  0  0  0  0  0  0  0  0
   21.5957  -20.9204  -13.7680 C   0  0  2  0  0  0  0  0  0  0  0  0
   20.5180  -19.9805  -13.6058 N   0  0  0  0  0  0  0  0  0  0  0  0
   22.9070  -20.3323  -13.4401 C   0  0  0  0  0  0  0  0  0  0  0  0
   23.2663  -19.2396  -13.8972 O   0  0  0  0  0  0  0  0  0  0  0  0
   20.1260  -23.5250  -14.4343 C   0  0  0  0  0  0  0  0  0  0  0  0
   18.9750  -24.2859  -14.4640 C   0  0  0  0  0  0  0  0  0  0  0  0
   30.0049  -20.8732  -10.3949 C   0  0  0  0  0  0  0  0  0  0  0  0
   28.2007  -20.8499  -10.2406 S   0  0  0  0  0  0  0  0  0  0  0  0
   27.4383  -21.8100  -11.6262 C   0  0  0  0  0  0  0  0  0  0  0  0
   25.9907  -21.6703  -11.5903 C   0  0  0  0  0  0  0  0  0  0  0  0
   25.2312  -20.9675  -12.6520 C   0  0  2  0  0  0  0  0  0  0  0  0
   23.8029  -21.0419  -12.5658 N   0  0  0  0  0  0  0  0  0  0  0  0
   25.7354  -21.0088  -13.9959 C   0  0  0  0  0  0  0  0  0  0  0  0
   25.0219  -21.6126  -14.9102 O   0  0  0  0  0  0  0  0  0  0  0  0
   26.9171  -20.4843  -14.4773 N   0  0  0  0  0  0  0  0  0  0  0  0
   28.0292  -19.8488  -13.8391 C   0  0  0  0  0  0  0  0  0  0  0  0
   28.0637  -18.5422  -14.6641 C   0  0  0  0  0  0  0  0  0  0  0  0
   27.7593  -19.0385  -16.0817 C   0  0  0  0  0  0  0  0  0  0  0  0
   27.3022  -20.4522  -15.8997 C   0  0  1  0  0  0  0  0  0  0  0  0
   28.4061  -21.3881  -16.1904 C   0  0  0  0  0  0  0  0  0  0  0  0
   28.9417  -22.0882  -15.2637 O   0  0  0  0  0  0  0  0  0  0  0  0
   28.9486  -21.5880  -17.4495 O   0  0  0  0  0  0  0  0  0  0  0  0
  2  1  1  0
  3  2  2  0
  4  3  1  0
  5 11  1  0
  5  4  2  0
  6  5  1  0
  7  6  1  0
  7  8  1  6
  9 18  1  0
  9  7  1  0
 10  9  2  0
 11 12  2  0
 12  2  1  0
 13 14  1  0
 14 15  1  0
 17 16  1  1
 16 15  1  0
 17 18  1  0
 19 17  1  0
 20 19  2  0
 21 22  1  0
 21 19  1  0
 23 22  1  0
 24 23  1  0
 24 25  1  0
 25 26  1  1
 25 21  1  0
 26 28  1  0
 27 26  2  0
M  END
$$$$
