YMP.pdb
     RDKit          3D

 28 29  0  0  1  0  0  0  0  0999 V2000
   20.0926  -28.1369  -14.2047 O   0  0  0  0  0  0  0  0  0  0  0  0
   20.4960  -26.8307  -14.4470 C   0  0  0  0  0  0  0  0  0  0  0  0
   19.6004  -25.8516  -14.8334 C   0  0  0  0  0  0  0  0  0  0  0  0
   19.9979  -24.5586  -15.0737 C   0  0  0  0  0  0  0  0  0  0  0  0
   21.3179  -24.1799  -14.9383 C   0  0  0  0  0  0  0  0  0  0  0  0
   21.7427  -22.7677  -15.2019 C   0  0  0  0  0  0  0  0  0  0  0  0
   21.6463  -22.0322  -13.9013 C   0  0  2  0  0  0  0  0  0  0  0  0
   20.3924  -21.3281  -13.8480 N   0  0  0  0  0  0  0  0  0  0  0  0
   22.7945  -21.1561  -13.6067 C   0  0  0  0  0  0  0  0  0  0  0  0
   22.8426  -19.9851  -14.0047 O   0  0  0  0  0  0  0  0  0  0  0  0
   22.2084  -25.1623  -14.5520 C   0  0  0  0  0  0  0  0  0  0  0  0
   21.8167  -26.4630  -14.3089 C   0  0  0  0  0  0  0  0  0  0  0  0
   25.7896  -20.3247   -8.1936 C   0  0  0  0  0  0  0  0  0  0  0  0
   27.2111  -20.7652   -9.2256 S   0  0  0  0  0  0  0  0  0  0  0  0
   26.8682  -20.3260  -10.9897 C   0  0  0  0  0  0  0  0  0  0  0  0
   26.0147  -21.3359  -11.5966 C   0  0  0  0  0  0  0  0  0  0  0  0
   25.1977  -21.0678  -12.8042 C   0  0  2  0  0  0  0  0  0  0  0  0
   23.8970  -21.6681  -12.8365 N   0  0  0  0  0  0  0  0  0  0  0  0
   25.8539  -21.0334  -14.0810 C   0  0  0  0  0  0  0  0  0  0  0  0
   25.4658  -21.8749  -15.0033 O   0  0  0  0  0  0  0  0  0  0  0  0
   26.8815  -20.2073  -14.4868 N   0  0  0  0  0  0  0  0  0  0  0  0
   27.7594  -19.3281  -13.7767 C   0  0  0  0  0  0  0  0  0  0  0  0
   27.4947  -18.0306  -14.5738 C   0  0  0  0  0  0  0  0  0  0  0  0
   27.3975  -18.5423  -16.0151 C   0  0  0  0  0  0  0  0  0  0  0  0
   27.3132  -20.0312  -15.8851 C   0  0  1  0  0  0  0  0  0  0  0  0
   28.6342  -20.6417  -16.1324 C   0  0  0  0  0  0  0  0  0  0  0  0
   29.3094  -21.1663  -15.1813 O   0  0  0  0  0  0  0  0  0  0  0  0
   29.2468  -20.7002  -17.3737 O   0  0  0  0  0  0  0  0  0  0  0  0
  2  1  1  0
  3  2  2  0
  4  3  1  0
  5 11  1  0
  5  4  2  0
  6  5  1  0
  7  6  1  0
  7  8  1  6
  9 18  1  0
  9  7  1  0
 10  9  2  0
 11 12  2  0
 12  2  1  0
 13 14  1  0
 14 15  1  0
 17 16  1  1
 16 15  1  0
 17 18  1  0
 19 17  1  0
 20 19  2  0
 21 22  1  0
 21 19  1  0
 23 22  1  0
 24 23  1  0
 24 25  1  0
 25 26  1  1
 25 21  1  0
 26 28  1  0
 27 26  2  0
M  END
$$$$
