YMP.pdb
     RDKit          3D

 28 29  0  0  1  0  0  0  0  0999 V2000
   17.7328  -24.2463  -12.1249 O   0  0  0  0  0  0  0  0  0  0  0  0
   18.8004  -23.3593  -12.1557 C   0  0  0  0  0  0  0  0  0  0  0  0
   20.0587  -23.7483  -12.5743 C   0  0  0  0  0  0  0  0  0  0  0  0
   21.1163  -22.8719  -12.6053 C   0  0  0  0  0  0  0  0  0  0  0  0
   20.9658  -21.5563  -12.2172 C   0  0  0  0  0  0  0  0  0  0  0  0
   22.1242  -20.6072  -12.2545 C   0  0  0  0  0  0  0  0  0  0  0  0
   23.1303  -21.1061  -11.2642 C   0  0  2  0  0  0  0  0  0  0  0  0
   22.6241  -20.9026   -9.9326 N   0  0  0  0  0  0  0  0  0  0  0  0
   24.4866  -20.5558  -11.4389 C   0  0  0  0  0  0  0  0  0  0  0  0
   24.7836  -19.4158  -11.0594 O   0  0  0  0  0  0  0  0  0  0  0  0
   19.7064  -21.1731  -11.7999 C   0  0  0  0  0  0  0  0  0  0  0  0
   18.6394  -22.0476  -11.7659 C   0  0  0  0  0  0  0  0  0  0  0  0
   29.7824  -22.3855   -9.7950 C   0  0  0  0  0  0  0  0  0  0  0  0
   30.5540  -21.3310  -11.0489 S   0  0  0  0  0  0  0  0  0  0  0  0
   29.2854  -20.7870  -12.2808 C   0  0  0  0  0  0  0  0  0  0  0  0
   27.9540  -21.1386  -11.8116 C   0  0  0  0  0  0  0  0  0  0  0  0
   26.7288  -20.8336  -12.5886 C   0  0  2  0  0  0  0  0  0  0  0  0
   25.5009  -21.3586  -12.0693 N   0  0  0  0  0  0  0  0  0  0  0  0
   26.8065  -20.8468  -14.0224 C   0  0  0  0  0  0  0  0  0  0  0  0
   26.0574  -21.6941  -14.6787 O   0  0  0  0  0  0  0  0  0  0  0  0
   27.5958  -20.0632  -14.8385 N   0  0  0  0  0  0  0  0  0  0  0  0
   28.6483  -19.1318  -14.5685 C   0  0  0  0  0  0  0  0  0  0  0  0
   28.0796  -17.9047  -15.3167 C   0  0  0  0  0  0  0  0  0  0  0  0
   27.4805  -18.5356  -16.5783 C   0  0  0  0  0  0  0  0  0  0  0  0
   27.4874  -20.0077  -16.3074 C   0  0  1  0  0  0  0  0  0  0  0  0
   28.6446  -20.6437  -16.9673 C   0  0  0  0  0  0  0  0  0  0  0  0
   29.5480  -21.2416  -16.2875 O   0  0  0  0  0  0  0  0  0  0  0  0
   28.8551  -20.6512  -18.3367 O   0  0  0  0  0  0  0  0  0  0  0  0
  2  1  1  0
  3  2  2  0
  4  3  1  0
  5 11  1  0
  5  4  2  0
  6  5  1  0
  7  6  1  0
  7  8  1  1
  9 18  1  0
  9  7  1  0
 10  9  2  0
 11 12  2  0
 12  2  1  0
 13 14  1  0
 14 15  1  0
 17 16  1  1
 16 15  1  0
 17 18  1  0
 19 17  1  0
 20 19  2  0
 21 22  1  0
 21 19  1  0
 23 22  1  0
 24 23  1  0
 24 25  1  0
 25 26  1  6
 25 21  1  0
 26 28  1  0
 27 26  2  0
M  END
$$$$
