YMP.pdb
     RDKit          3D

 28 29  0  0  1  0  0  0  0  0999 V2000
   16.3606  -24.8170  -13.4798 O   0  0  0  0  0  0  0  0  0  0  0  0
   17.5347  -24.1112  -13.7051 C   0  0  0  0  0  0  0  0  0  0  0  0
   18.6870  -24.3656  -12.9858 C   0  0  0  0  0  0  0  0  0  0  0  0
   19.8497  -23.6681  -13.2074 C   0  0  0  0  0  0  0  0  0  0  0  0
   19.9168  -22.6765  -14.1648 C   0  0  0  0  0  0  0  0  0  0  0  0
   21.1888  -21.9211  -14.4003 C   0  0  0  0  0  0  0  0  0  0  0  0
   21.3912  -21.0262  -13.2170 C   0  0  2  0  0  0  0  0  0  0  0  0
   20.3158  -20.0718  -13.1567 N   0  0  0  0  0  0  0  0  0  0  0  0
   22.7161  -20.3830  -13.1552 C   0  0  0  0  0  0  0  0  0  0  0  0
   22.9665  -19.3407  -13.7738 O   0  0  0  0  0  0  0  0  0  0  0  0
   18.7625  -22.4265  -14.8806 C   0  0  0  0  0  0  0  0  0  0  0  0
   17.5910  -23.1230  -14.6636 C   0  0  0  0  0  0  0  0  0  0  0  0
   28.6174  -20.5130   -9.2324 C   0  0  0  0  0  0  0  0  0  0  0  0
   26.9787  -21.1417   -8.7860 S   0  0  0  0  0  0  0  0  0  0  0  0
   25.7133  -20.4983   -9.9725 C   0  0  0  0  0  0  0  0  0  0  0  0
   26.0022  -20.9774  -11.3155 C   0  0  0  0  0  0  0  0  0  0  0  0
   25.1449  -20.6503  -12.4799 C   0  0  2  0  0  0  0  0  0  0  0  0
   23.7553  -20.9773  -12.3567 N   0  0  0  0  0  0  0  0  0  0  0  0
   25.6752  -20.8532  -13.7989 C   0  0  0  0  0  0  0  0  0  0  0  0
   25.0143  -21.6225  -14.6240 O   0  0  0  0  0  0  0  0  0  0  0  0
   26.8335  -20.3337  -14.3389 N   0  0  0  0  0  0  0  0  0  0  0  0
   27.9240  -19.5986  -13.7745 C   0  0  0  0  0  0  0  0  0  0  0  0
   27.9046  -18.3772  -14.7216 C   0  0  0  0  0  0  0  0  0  0  0  0
   27.6119  -19.0189  -16.0821 C   0  0  0  0  0  0  0  0  0  0  0  0
   27.2098  -20.4245  -15.7611 C   0  0  1  0  0  0  0  0  0  0  0  0
   28.3470  -21.3422  -15.9702 C   0  0  0  0  0  0  0  0  0  0  0  0
   28.9137  -21.9290  -14.9852 O   0  0  0  0  0  0  0  0  0  0  0  0
   28.8900  -21.6424  -17.2090 O   0  0  0  0  0  0  0  0  0  0  0  0
  2  1  1  0
  3  2  2  0
  4  3  1  0
  5 11  1  0
  5  4  2  0
  6  5  1  0
  7  6  1  0
  7  8  1  6
  9 18  1  0
  9  7  1  0
 10  9  2  0
 11 12  2  0
 12  2  1  0
 13 14  1  0
 14 15  1  0
 17 16  1  1
 16 15  1  0
 17 18  1  0
 19 17  1  0
 20 19  2  0
 21 22  1  0
 21 19  1  0
 23 22  1  0
 24 23  1  0
 24 25  1  0
 25 26  1  1
 25 21  1  0
 26 28  1  0
 27 26  2  0
M  END
$$$$
