VVC.pdb
     RDKit          3D

 21 20  0  0  1  0  0  0  0  0999 V2000
   16.9653  -11.0933  -13.9312 C   0  0  0  0  0  0  0  0  0  0  0  0
   16.4162  -11.0471  -15.3433 C   0  0  2  0  0  0  0  0  0  0  0  0
   15.1376  -11.8891  -15.3308 C   0  0  0  0  0  0  0  0  0  0  0  0
   17.3467  -11.7102  -16.3336 C   0  0  2  0  0  0  0  0  0  0  0  0
   17.4489  -13.1044  -15.9529 N   0  0  0  0  0  0  0  0  0  0  0  0
   18.6907  -11.0776  -16.3553 C   0  0  0  0  0  0  0  0  0  0  0  0
   19.6398  -11.6119  -15.7599 O   0  0  0  0  0  0  0  0  0  0  0  0
   20.8600  -10.1480  -19.3067 C   0  0  0  0  0  0  0  0  0  0  0  0
   20.5653   -8.9408  -18.4967 C   0  0  2  0  0  0  0  0  0  0  0  0
   21.7001   -7.9614  -18.6817 C   0  0  0  0  0  0  0  0  0  0  0  0
   20.2031   -9.1768  -17.0720 C   0  0  2  0  0  0  0  0  0  0  0  0
   18.9049   -9.8596  -17.0545 N   0  0  0  0  0  0  0  0  0  0  0  0
   20.1616   -7.9574  -16.2516 C   0  0  0  0  0  0  0  0  0  0  0  0
   19.2021   -7.1267  -16.4460 O   0  0  0  0  0  0  0  0  0  0  0  0
   21.0705   -7.6003  -15.2634 N   0  0  0  0  0  0  0  0  0  0  0  0
   20.9990   -6.3525  -14.4950 C   0  0  1  0  0  0  0  0  0  0  0  0
   22.0853   -6.4859  -13.4202 C   0  0  0  0  0  0  0  0  0  0  0  0
   22.1552   -5.0054  -12.3898 S   0  0  0  0  0  0  0  0  0  0  0  0
   21.2982   -5.1826  -15.3108 C   0  0  0  0  0  0  0  0  0  0  0  0
   20.5506   -4.0294  -15.1921 O   0  0  0  0  0  0  0  0  0  0  0  0
   22.2385   -5.2065  -16.1318 O   0  0  0  0  0  0  0  0  0  0  0  0
  2  1  1  1
  3  2  1  0
  4  2  1  0
  4  5  1  1
  6  4  1  0
  7  6  2  0
  9  8  1  1
  9 11  1  0
 10  9  1  0
 11 12  1  6
 12  6  1  0
 13 11  1  0
 13 15  1  0
 14 13  2  0
 16 15  1  0
 16 17  1  1
 16 19  1  0
 18 17  1  0
 19 21  2  0
 19 20  1  0
M  END
$$$$
