VVC.pdb
     RDKit          3D

 21 20  0  0  1  0  0  0  0  0999 V2000
   19.2117  -12.4040  -16.8787 C   0  0  0  0  0  0  0  0  0  0  0  0
   18.1654  -12.1391  -15.8143 C   0  0  2  0  0  0  0  0  0  0  0  0
   16.8749  -12.7946  -16.3133 C   0  0  0  0  0  0  0  0  0  0  0  0
   17.8615  -10.6646  -15.6750 C   0  0  2  0  0  0  0  0  0  0  0  0
   17.3467  -10.2142  -16.9522 N   0  0  0  0  0  0  0  0  0  0  0  0
   19.0601   -9.8756  -15.2905 C   0  0  0  0  0  0  0  0  0  0  0  0
   19.5782  -10.0350  -14.1738 O   0  0  0  0  0  0  0  0  0  0  0  0
   22.3115   -9.9126  -17.0283 C   0  0  0  0  0  0  0  0  0  0  0  0
   21.8395   -8.5078  -16.9635 C   0  0  2  0  0  0  0  0  0  0  0  0
   23.0500   -7.6044  -16.9620 C   0  0  0  0  0  0  0  0  0  0  0  0
   20.8551   -8.1933  -15.8918 C   0  0  2  0  0  0  0  0  0  0  0  0
   19.6251   -8.9341  -16.1919 N   0  0  0  0  0  0  0  0  0  0  0  0
   20.5743   -6.7586  -15.7347 C   0  0  0  0  0  0  0  0  0  0  0  0
   19.9345   -6.1586  -16.6724 O   0  0  0  0  0  0  0  0  0  0  0  0
   20.9341   -5.9642  -14.6533 N   0  0  0  0  0  0  0  0  0  0  0  0
   20.7291   -4.5126  -14.5973 C   0  0  1  0  0  0  0  0  0  0  0  0
   19.8907   -4.2788  -13.3343 C   0  0  0  0  0  0  0  0  0  0  0  0
   19.7541   -2.5161  -12.9704 S   0  0  0  0  0  0  0  0  0  0  0  0
   21.9825   -3.7818  -14.4609 C   0  0  0  0  0  0  0  0  0  0  0  0
   22.1744   -2.5817  -15.1135 O   0  0  0  0  0  0  0  0  0  0  0  0
   22.9041   -4.2320  -13.7492 O   0  0  0  0  0  0  0  0  0  0  0  0
  2  1  1  6
  3  2  1  0
  4  2  1  0
  4  5  1  6
  6  4  1  0
  7  6  2  0
  9  8  1  1
  9 11  1  0
 10  9  1  0
 11 12  1  6
 12  6  1  0
 13 11  1  0
 13 15  1  0
 14 13  2  0
 16 15  1  0
 16 17  1  1
 16 19  1  0
 18 17  1  0
 19 21  2  0
 19 20  1  0
M  END
$$$$
