VVC.pdb
     RDKit          3D

 21 20  0  0  1  0  0  0  0  0999 V2000
   26.2458  -19.2186  -17.4292 C   0  0  0  0  0  0  0  0  0  0  0  0
   27.2328  -18.7750  -16.3677 C   0  0  2  0  0  0  0  0  0  0  0  0
   28.4278  -18.1817  -17.1188 C   0  0  0  0  0  0  0  0  0  0  0  0
   27.7727  -19.9432  -15.5743 C   0  0  2  0  0  0  0  0  0  0  0  0
   28.3597  -20.8669  -16.5238 N   0  0  0  0  0  0  0  0  0  0  0  0
   26.7174  -20.6190  -14.7765 C   0  0  0  0  0  0  0  0  0  0  0  0
   26.1708  -21.6457  -15.2103 O   0  0  0  0  0  0  0  0  0  0  0  0
   27.0263  -21.1636  -10.8819 C   0  0  0  0  0  0  0  0  0  0  0  0
   25.7169  -20.5771  -11.2584 C   0  0  2  0  0  0  0  0  0  0  0  0
   24.6846  -21.0533  -10.2639 C   0  0  0  0  0  0  0  0  0  0  0  0
   25.3042  -20.7465  -12.6788 C   0  0  2  0  0  0  0  0  0  0  0  0
   26.3229  -20.1011  -13.5138 N   0  0  0  0  0  0  0  0  0  0  0  0
   23.9673  -20.2161  -12.9844 C   0  0  0  0  0  0  0  0  0  0  0  0
   23.7408  -18.9727  -12.7583 O   0  0  0  0  0  0  0  0  0  0  0  0
   22.8980  -20.9333  -13.5060 N   0  0  0  0  0  0  0  0  0  0  0  0
   21.5841  -20.3503  -13.7998 C   0  0  1  0  0  0  0  0  0  0  0  0
   21.2355  -20.8476  -15.2083 C   0  0  0  0  0  0  0  0  0  0  0  0
   22.4943  -20.3413  -16.3988 S   0  0  0  0  0  0  0  0  0  0  0  0
   20.5546  -20.8142  -12.8786 C   0  0  0  0  0  0  0  0  0  0  0  0
   19.4158  -20.0674  -12.6586 O   0  0  0  0  0  0  0  0  0  0  0  0
   20.6880  -21.8978  -12.2731 O   0  0  0  0  0  0  0  0  0  0  0  0
  2  1  1  6
  3  2  1  0
  4  2  1  0
  4  5  1  6
  6  4  1  0
  7  6  2  0
  9  8  1  6
  9 11  1  0
 10  9  1  0
 11 12  1  6
 12  6  1  0
 13 11  1  0
 13 15  1  0
 14 13  2  0
 16 15  1  0
 16 17  1  6
 16 19  1  0
 18 17  1  0
 19 21  2  0
 19 20  1  0
M  END
$$$$
