VVC.pdb
     RDKit          3D

 21 20  0  0  1  0  0  0  0  0999 V2000
   21.2322  -12.4096  -21.4429 C   0  0  0  0  0  0  0  0  0  0  0  0
   21.3870  -11.8871  -20.0284 C   0  0  2  0  0  0  0  0  0  0  0  0
   21.6932  -10.3925  -20.1577 C   0  0  0  0  0  0  0  0  0  0  0  0
   22.5769  -12.5009  -19.3261 C   0  0  2  0  0  0  0  0  0  0  0  0
   22.2979  -13.9145  -19.1739 N   0  0  0  0  0  0  0  0  0  0  0  0
   22.8343  -11.8768  -18.0028 C   0  0  0  0  0  0  0  0  0  0  0  0
   22.0297  -12.0381  -17.0715 O   0  0  0  0  0  0  0  0  0  0  0  0
   26.1497  -12.0874  -16.0237 C   0  0  0  0  0  0  0  0  0  0  0  0
   25.7331  -10.6756  -16.2072 C   0  0  2  0  0  0  0  0  0  0  0  0
   26.2464   -9.8770  -15.0325 C   0  0  0  0  0  0  0  0  0  0  0  0
   24.2918  -10.4482  -16.5032 C   0  0  2  0  0  0  0  0  0  0  0  0
   23.9988  -11.0918  -17.7884 N   0  0  0  0  0  0  0  0  0  0  0  0
   23.8987   -9.0316  -16.5281 C   0  0  0  0  0  0  0  0  0  0  0  0
   24.4236   -8.2711  -17.4195 O   0  0  0  0  0  0  0  0  0  0  0  0
   22.9970   -8.4137  -15.6708 N   0  0  0  0  0  0  0  0  0  0  0  0
   22.6614   -6.9864  -15.7229 C   0  0  1  0  0  0  0  0  0  0  0  0
   21.2444   -6.9332  -16.3079 C   0  0  0  0  0  0  0  0  0  0  0  0
   20.5881   -5.2527  -16.2510 S   0  0  0  0  0  0  0  0  0  0  0  0
   22.6378   -6.3751  -14.4003 C   0  0  0  0  0  0  0  0  0  0  0  0
   22.9349   -5.0381  -14.2353 O   0  0  0  0  0  0  0  0  0  0  0  0
   22.3473   -7.0540  -13.3937 O   0  0  0  0  0  0  0  0  0  0  0  0
  2  1  1  6
  3  2  1  0
  4  2  1  0
  4  5  1  1
  6  4  1  0
  7  6  2  0
  9  8  1  1
  9 11  1  0
 10  9  1  0
 11 12  1  6
 12  6  1  0
 13 11  1  0
 13 15  1  0
 14 13  2  0
 16 15  1  0
 16 17  1  1
 16 19  1  0
 18 17  1  0
 19 21  2  0
 19 20  1  0
M  END
$$$$
