VVC.pdb
     RDKit          3D

 21 20  0  0  1  0  0  0  0  0999 V2000
   24.0036  -11.1098  -20.7163 C   0  0  0  0  0  0  0  0  0  0  0  0
   25.1056  -11.7319  -19.8819 C   0  0  2  0  0  0  0  0  0  0  0  0
   26.0240  -12.4620  -20.8656 C   0  0  0  0  0  0  0  0  0  0  0  0
   24.5737  -12.7883  -18.9401 C   0  0  2  0  0  0  0  0  0  0  0  0
   24.0905  -13.8823  -19.7578 N   0  0  0  0  0  0  0  0  0  0  0  0
   23.4871  -12.2715  -18.0688 C   0  0  0  0  0  0  0  0  0  0  0  0
   22.3014  -12.3868  -18.4179 O   0  0  0  0  0  0  0  0  0  0  0  0
   22.8662  -13.1854  -14.4995 C   0  0  0  0  0  0  0  0  0  0  0  0
   22.9779  -11.7091  -14.5920 C   0  0  2  0  0  0  0  0  0  0  0  0
   22.1175  -11.1034  -13.5083 C   0  0  0  0  0  0  0  0  0  0  0  0
   22.7527  -11.1154  -15.9386 C   0  0  2  0  0  0  0  0  0  0  0  0
   23.7902  -11.6423  -16.8317 N   0  0  0  0  0  0  0  0  0  0  0  0
   22.7484   -9.6451  -15.9550 C   0  0  0  0  0  0  0  0  0  0  0  0
   23.8516   -9.0318  -15.7197 O   0  0  0  0  0  0  0  0  0  0  0  0
   21.6525   -8.8291  -16.2059 N   0  0  0  0  0  0  0  0  0  0  0  0
   21.7153   -7.3643  -16.2599 C   0  0  1  0  0  0  0  0  0  0  0  0
   20.8470   -6.9742  -17.4627 C   0  0  0  0  0  0  0  0  0  0  0  0
   21.5873   -7.5521  -19.0043 S   0  0  0  0  0  0  0  0  0  0  0  0
   21.1565   -6.7424  -15.0663 C   0  0  0  0  0  0  0  0  0  0  0  0
   21.5803   -5.4954  -14.6560 O   0  0  0  0  0  0  0  0  0  0  0  0
   20.2832   -7.3303  -14.3954 O   0  0  0  0  0  0  0  0  0  0  0  0
  2  1  1  6
  3  2  1  0
  4  2  1  0
  4  5  1  6
  6  4  1  0
  7  6  2  0
  9  8  1  6
  9 11  1  0
 10  9  1  0
 11 12  1  6
 12  6  1  0
 13 11  1  0
 13 15  1  0
 14 13  2  0
 16 15  1  0
 16 17  1  6
 16 19  1  0
 18 17  1  0
 19 21  2  0
 19 20  1  0
M  END
$$$$
