VVC.pdb
     RDKit          3D

 21 20  0  0  1  0  0  0  0  0999 V2000
   26.6858  -15.7392  -16.4756 C   0  0  0  0  0  0  0  0  0  0  0  0
   25.7738  -16.1097  -15.3229 C   0  0  2  0  0  0  0  0  0  0  0  0
   26.3249  -17.4168  -14.7469 C   0  0  0  0  0  0  0  0  0  0  0  0
   24.3686  -16.4153  -15.7897 C   0  0  2  0  0  0  0  0  0  0  0  0
   24.4612  -17.5209  -16.7214 N   0  0  0  0  0  0  0  0  0  0  0  0
   23.7217  -15.2443  -16.4356 C   0  0  0  0  0  0  0  0  0  0  0  0
   23.8837  -15.0341  -17.6482 O   0  0  0  0  0  0  0  0  0  0  0  0
   20.4908  -14.4418  -17.3478 C   0  0  0  0  0  0  0  0  0  0  0  0
   20.8806  -13.3551  -16.4165 C   0  0  2  0  0  0  0  0  0  0  0  0
   20.1135  -12.1110  -16.7975 C   0  0  0  0  0  0  0  0  0  0  0  0
   22.3420  -13.1292  -16.2439 C   0  0  2  0  0  0  0  0  0  0  0  0
   22.9137  -14.3555  -15.6771 N   0  0  0  0  0  0  0  0  0  0  0  0
   22.6768  -11.9647  -15.4109 C   0  0  0  0  0  0  0  0  0  0  0  0
   22.2489  -11.9404  -14.2006 O   0  0  0  0  0  0  0  0  0  0  0  0
   23.4262  -10.8624  -15.8023 N   0  0  0  0  0  0  0  0  0  0  0  0
   23.7803   -9.7524  -14.9107 C   0  0  1  0  0  0  0  0  0  0  0  0
   25.1473   -9.2652  -15.4074 C   0  0  0  0  0  0  0  0  0  0  0  0
   26.3836  -10.5736  -15.2735 S   0  0  0  0  0  0  0  0  0  0  0  0
   22.8354   -8.6467  -15.0017 C   0  0  0  0  0  0  0  0  0  0  0  0
   22.6415   -7.7943  -13.9346 O   0  0  0  0  0  0  0  0  0  0  0  0
   22.1854   -8.4536  -16.0500 O   0  0  0  0  0  0  0  0  0  0  0  0
  2  1  1  6
  3  2  1  0
  4  2  1  0
  4  5  1  6
  6  4  1  0
  7  6  2  0
  9  8  1  6
  9 11  1  0
 10  9  1  0
 11 12  1  1
 12  6  1  0
 13 11  1  0
 13 15  1  0
 14 13  2  0
 16 15  1  0
 16 17  1  6
 16 19  1  0
 18 17  1  0
 19 21  2  0
 19 20  1  0
M  END
$$$$
