VVC.pdb
     RDKit          3D

 21 20  0  0  1  0  0  0  0  0999 V2000
   17.9751  -10.2965  -20.1293 C   0  0  0  0  0  0  0  0  0  0  0  0
   18.0415   -9.8411  -18.6851 C   0  0  2  0  0  0  0  0  0  0  0  0
   18.6314   -8.4284  -18.7108 C   0  0  0  0  0  0  0  0  0  0  0  0
   18.9986  -10.6817  -17.8708 C   0  0  2  0  0  0  0  0  0  0  0  0
   18.4035  -11.9960  -17.7389 N   0  0  0  0  0  0  0  0  0  0  0  0
   19.2654  -10.0954  -16.5321 C   0  0  0  0  0  0  0  0  0  0  0  0
   18.3708  -10.0759  -15.6717 O   0  0  0  0  0  0  0  0  0  0  0  0
   22.2849   -9.0760  -12.9261 C   0  0  0  0  0  0  0  0  0  0  0  0
   21.8933   -9.5944  -14.2596 C   0  0  2  0  0  0  0  0  0  0  0  0
   23.1476   -9.7735  -15.0818 C   0  0  0  0  0  0  0  0  0  0  0  0
   20.8153   -8.8481  -14.9650 C   0  0  2  0  0  0  0  0  0  0  0  0
   20.5411   -9.5528  -16.2220 N   0  0  0  0  0  0  0  0  0  0  0  0
   21.1286   -7.4339  -15.2179 C   0  0  0  0  0  0  0  0  0  0  0  0
   21.9455   -7.1532  -16.1678 O   0  0  0  0  0  0  0  0  0  0  0  0
   20.6215   -6.3428  -14.5234 N   0  0  0  0  0  0  0  0  0  0  0  0
   21.0260   -4.9541  -14.7686 C   0  0  1  0  0  0  0  0  0  0  0  0
   19.7722   -4.2683  -15.3261 C   0  0  0  0  0  0  0  0  0  0  0  0
   20.0242   -2.4867  -15.4700 S   0  0  0  0  0  0  0  0  0  0  0  0
   21.4212   -4.2687  -13.5448 C   0  0  0  0  0  0  0  0  0  0  0  0
   22.3656   -3.2637  -13.5721 O   0  0  0  0  0  0  0  0  0  0  0  0
   20.9093   -4.5817  -12.4499 O   0  0  0  0  0  0  0  0  0  0  0  0
  2  1  1  6
  3  2  1  0
  4  2  1  0
  4  5  1  1
  6  4  1  0
  7  6  2  0
  9  8  1  1
  9 11  1  0
 10  9  1  0
 11 12  1  6
 12  6  1  0
 13 11  1  0
 13 15  1  0
 14 13  2  0
 16 15  1  0
 16 17  1  1
 16 19  1  0
 18 17  1  0
 19 21  2  0
 19 20  1  0
M  END
$$$$
