VVC.pdb
     RDKit          3D

 21 20  0  0  1  0  0  0  0  0999 V2000
   28.0667  -19.6585  -17.9639 C   0  0  0  0  0  0  0  0  0  0  0  0
   27.0398  -20.3044  -17.0552 C   0  0  2  0  0  0  0  0  0  0  0  0
   26.0635  -19.1936  -16.6586 C   0  0  0  0  0  0  0  0  0  0  0  0
   27.6572  -20.8010  -15.7675 C   0  0  2  0  0  0  0  0  0  0  0  0
   28.5628  -21.8765  -16.1174 N   0  0  0  0  0  0  0  0  0  0  0  0
   26.6360  -21.2761  -14.7989 C   0  0  0  0  0  0  0  0  0  0  0  0
   25.9837  -22.3051  -15.0368 O   0  0  0  0  0  0  0  0  0  0  0  0
   27.2105  -21.2483  -10.8471 C   0  0  0  0  0  0  0  0  0  0  0  0
   25.9309  -20.6201  -11.2574 C   0  0  2  0  0  0  0  0  0  0  0  0
   24.9326  -20.8132  -10.1406 C   0  0  0  0  0  0  0  0  0  0  0  0
   25.4111  -21.0017  -12.5993 C   0  0  2  0  0  0  0  0  0  0  0  0
   26.3949  -20.5621  -13.5945 N   0  0  0  0  0  0  0  0  0  0  0  0
   24.0802  -20.4574  -12.9063 C   0  0  0  0  0  0  0  0  0  0  0  0
   23.9737  -19.1951  -13.1158 O   0  0  0  0  0  0  0  0  0  0  0  0
   22.8975  -21.1805  -12.9980 N   0  0  0  0  0  0  0  0  0  0  0  0
   21.5888  -20.5806  -13.2804 C   0  0  1  0  0  0  0  0  0  0  0  0
   21.3538  -20.8271  -14.7760 C   0  0  0  0  0  0  0  0  0  0  0  0
   19.6829  -20.3387  -15.2533 S   0  0  0  0  0  0  0  0  0  0  0  0
   20.5140  -21.2207  -12.5328 C   0  0  0  0  0  0  0  0  0  0  0  0
   19.4568  -20.4816  -12.0440 O   0  0  0  0  0  0  0  0  0  0  0  0
   20.5339  -22.4512  -12.3230 O   0  0  0  0  0  0  0  0  0  0  0  0
  2  1  1  6
  3  2  1  0
  4  2  1  0
  4  5  1  6
  6  4  1  0
  7  6  2  0
  9  8  1  1
  9 11  1  0
 10  9  1  0
 11 12  1  6
 12  6  1  0
 13 11  1  0
 13 15  1  0
 14 13  2  0
 16 15  1  0
 16 17  1  6
 16 19  1  0
 18 17  1  0
 19 21  2  0
 19 20  1  0
M  END
$$$$
