VVC.pdb
     RDKit          3D

 21 20  0  0  1  0  0  0  0  0999 V2000
   16.3310  -11.5471  -17.0580 C   0  0  0  0  0  0  0  0  0  0  0  0
   17.7004  -12.1837  -17.1885 C   0  0  2  0  0  0  0  0  0  0  0  0
   17.5820  -13.5790  -16.5693 C   0  0  0  0  0  0  0  0  0  0  0  0
   18.7442  -11.4507  -16.3767 C   0  0  2  0  0  0  0  0  0  0  0  0
   18.4104  -11.6451  -14.9803 N   0  0  0  0  0  0  0  0  0  0  0  0
   18.7964  -10.0021  -16.7016 C   0  0  0  0  0  0  0  0  0  0  0  0
   19.1351   -9.6306  -17.8366 O   0  0  0  0  0  0  0  0  0  0  0  0
   16.1248   -7.3599  -16.8067 C   0  0  0  0  0  0  0  0  0  0  0  0
   17.1339   -7.0497  -15.7647 C   0  0  2  0  0  0  0  0  0  0  0  0
   17.1008   -5.5621  -15.5057 C   0  0  0  0  0  0  0  0  0  0  0  0
   18.5029   -7.5883  -15.9936 C   0  0  2  0  0  0  0  0  0  0  0  0
   18.4609   -9.0292  -15.7222 N   0  0  0  0  0  0  0  0  0  0  0  0
   19.5480   -6.9369  -15.1901 C   0  0  0  0  0  0  0  0  0  0  0  0
   19.5957   -7.1929  -13.9329 O   0  0  0  0  0  0  0  0  0  0  0  0
   20.5138   -6.0545  -15.6575 N   0  0  0  0  0  0  0  0  0  0  0  0
   21.5948   -5.5075  -14.8301 C   0  0  1  0  0  0  0  0  0  0  0  0
   22.8374   -5.5398  -15.7289 C   0  0  0  0  0  0  0  0  0  0  0  0
   24.2074   -4.6475  -14.9640 S   0  0  0  0  0  0  0  0  0  0  0  0
   21.3457   -4.1266  -14.4368 C   0  0  0  0  0  0  0  0  0  0  0  0
   21.8256   -3.6361  -13.2401 O   0  0  0  0  0  0  0  0  0  0  0  0
   20.6925   -3.3644  -15.1791 O   0  0  0  0  0  0  0  0  0  0  0  0
  2  1  1  1
  3  2  1  0
  4  2  1  0
  4  5  1  1
  6  4  1  0
  7  6  2  0
  9  8  1  6
  9 11  1  0
 10  9  1  0
 11 12  1  1
 12  6  1  0
 13 11  1  0
 13 15  1  0
 14 13  2  0
 16 15  1  0
 16 17  1  6
 16 19  1  0
 18 17  1  0
 19 21  2  0
 19 20  1  0
M  END
$$$$
