VVC.pdb
     RDKit          3D

 21 20  0  0  1  0  0  0  0  0999 V2000
   17.6249  -13.9020  -17.4789 C   0  0  0  0  0  0  0  0  0  0  0  0
   18.6727  -12.9585  -16.9225 C   0  0  2  0  0  0  0  0  0  0  0  0
   17.9706  -11.6128  -16.7222 C   0  0  0  0  0  0  0  0  0  0  0  0
   19.7890  -12.7073  -17.9108 C   0  0  2  0  0  0  0  0  0  0  0  0
   20.5129  -13.9535  -18.0602 N   0  0  0  0  0  0  0  0  0  0  0  0
   20.7041  -11.6252  -17.4649 C   0  0  0  0  0  0  0  0  0  0  0  0
   21.6127  -11.8724  -16.6561 O   0  0  0  0  0  0  0  0  0  0  0  0
   23.0126   -9.5974  -19.5006 C   0  0  0  0  0  0  0  0  0  0  0  0
   22.0790   -8.6796  -18.8031 C   0  0  2  0  0  0  0  0  0  0  0  0
   22.7765   -7.3533  -18.6141 C   0  0  0  0  0  0  0  0  0  0  0  0
   21.4432   -9.2050  -17.5637 C   0  0  2  0  0  0  0  0  0  0  0  0
   20.5511  -10.3012  -17.9564 N   0  0  0  0  0  0  0  0  0  0  0  0
   20.7138   -8.1926  -16.7858 C   0  0  0  0  0  0  0  0  0  0  0  0
   19.7014   -7.6210  -17.3308 O   0  0  0  0  0  0  0  0  0  0  0  0
   21.0088   -7.7799  -15.4925 N   0  0  0  0  0  0  0  0  0  0  0  0
   20.2779   -6.7256  -14.7808 C   0  0  1  0  0  0  0  0  0  0  0  0
   20.6295   -6.9285  -13.3016 C   0  0  0  0  0  0  0  0  0  0  0  0
   19.9721   -8.4959  -12.6937 S   0  0  0  0  0  0  0  0  0  0  0  0
   20.7066   -5.3906  -15.1780 C   0  0  0  0  0  0  0  0  0  0  0  0
   19.9328   -4.2857  -14.8891 O   0  0  0  0  0  0  0  0  0  0  0  0
   21.7837   -5.2263  -15.7874 O   0  0  0  0  0  0  0  0  0  0  0  0
  2  1  1  6
  3  2  1  0
  4  2  1  0
  4  5  1  1
  6  4  1  0
  7  6  2  0
  9  8  1  1
  9 11  1  0
 10  9  1  0
 11 12  1  6
 12  6  1  0
 13 11  1  0
 13 15  1  0
 14 13  2  0
 16 15  1  0
 16 17  1  1
 16 19  1  0
 18 17  1  0
 19 21  2  0
 19 20  1  0
M  END
$$$$
