VVC.pdb
     RDKit          3D

 21 20  0  0  1  0  0  0  0  0999 V2000
   19.6994  -24.9888  -14.2090 C   0  0  0  0  0  0  0  0  0  0  0  0
   20.9926  -25.3843  -13.5243 C   0  0  2  0  0  0  0  0  0  0  0  0
   22.1210  -24.9637  -14.4698 C   0  0  0  0  0  0  0  0  0  0  0  0
   21.1132  -26.8832  -13.3663 C   0  0  2  0  0  0  0  0  0  0  0  0
   21.0581  -27.4565  -14.6958 N   0  0  0  0  0  0  0  0  0  0  0  0
   20.0375  -27.4485  -12.5118 C   0  0  0  0  0  0  0  0  0  0  0  0
   18.9012  -27.6272  -12.9784 O   0  0  0  0  0  0  0  0  0  0  0  0
   20.9517  -29.9026   -9.2207 C   0  0  0  0  0  0  0  0  0  0  0  0
   19.6669  -29.7434   -9.9448 C   0  0  2  0  0  0  0  0  0  0  0  0
   19.6812  -30.6697  -11.1377 C   0  0  0  0  0  0  0  0  0  0  0  0
   19.2655  -28.3480  -10.2737 C   0  0  2  0  0  0  0  0  0  0  0  0
   20.2951  -27.7898  -11.1570 N   0  0  0  0  0  0  0  0  0  0  0  0
   19.0639  -27.4869   -9.0990 C   0  0  0  0  0  0  0  0  0  0  0  0
   19.9179  -26.5545   -8.8756 O   0  0  0  0  0  0  0  0  0  0  0  0
   18.0222  -27.5753   -8.1842 N   0  0  0  0  0  0  0  0  0  0  0  0
   17.8901  -26.7122   -7.0052 C   0  0  1  0  0  0  0  0  0  0  0  0
   17.6342  -25.3084   -7.5680 C   0  0  0  0  0  0  0  0  0  0  0  0
   17.2683  -24.1407   -6.2411 S   0  0  0  0  0  0  0  0  0  0  0  0
   16.7571  -27.0876   -6.1691 C   0  0  0  0  0  0  0  0  0  0  0  0
   16.7675  -26.8373   -4.8125 O   0  0  0  0  0  0  0  0  0  0  0  0
   15.7571  -27.6429   -6.6693 O   0  0  0  0  0  0  0  0  0  0  0  0
  2  1  1  6
  3  2  1  0
  4  2  1  0
  4  5  1  6
  6  4  1  0
  7  6  2  0
  9  8  1  6
  9 11  1  0
 10  9  1  0
 11 12  1  6
 12  6  1  0
 13 11  1  0
 13 15  1  0
 14 13  2  0
 16 15  1  0
 16 17  1  6
 16 19  1  0
 18 17  1  0
 19 21  2  0
 19 20  1  0
M  END
$$$$
