VVC.pdb
     RDKit          3D

 21 20  0  0  1  0  0  0  0  0999 V2000
   27.9599  -12.3040  -15.8952 C   0  0  0  0  0  0  0  0  0  0  0  0
   27.0516  -11.2961  -16.5711 C   0  0  2  0  0  0  0  0  0  0  0  0
   26.6609  -10.2836  -15.4912 C   0  0  0  0  0  0  0  0  0  0  0  0
   25.7610  -11.9260  -17.0437 C   0  0  2  0  0  0  0  0  0  0  0  0
   26.1098  -12.9003  -18.0577 N   0  0  0  0  0  0  0  0  0  0  0  0
   24.8115  -10.9233  -17.5914 C   0  0  0  0  0  0  0  0  0  0  0  0
   25.0802  -10.3214  -18.6433 O   0  0  0  0  0  0  0  0  0  0  0  0
   21.6240  -10.9478  -19.1850 C   0  0  0  0  0  0  0  0  0  0  0  0
   21.4594  -10.2219  -17.9020 C   0  0  2  0  0  0  0  0  0  0  0  0
   20.2834   -9.2840  -18.0395 C   0  0  0  0  0  0  0  0  0  0  0  0
   22.6816   -9.5745  -17.3508 C   0  0  2  0  0  0  0  0  0  0  0  0
   23.5906  -10.6427  -16.9214 N   0  0  0  0  0  0  0  0  0  0  0  0
   22.4211   -8.6372  -16.2483 C   0  0  0  0  0  0  0  0  0  0  0  0
   22.0104   -9.1147  -15.1294 O   0  0  0  0  0  0  0  0  0  0  0  0
   22.5774   -7.2574  -16.2882 N   0  0  0  0  0  0  0  0  0  0  0  0
   22.2728   -6.3643  -15.1649 C   0  0  1  0  0  0  0  0  0  0  0  0
   23.1941   -5.1535  -15.3597 C   0  0  0  0  0  0  0  0  0  0  0  0
   22.9059   -3.9139  -14.0796 S   0  0  0  0  0  0  0  0  0  0  0  0
   20.8912   -5.9009  -15.1855 C   0  0  0  0  0  0  0  0  0  0  0  0
   20.1854   -5.7334  -14.0123 O   0  0  0  0  0  0  0  0  0  0  0  0
   20.3241   -5.6477  -16.2685 O   0  0  0  0  0  0  0  0  0  0  0  0
  2  1  1  1
  3  2  1  0
  4  2  1  0
  4  5  1  6
  6  4  1  0
  7  6  2  0
  9  8  1  6
  9 11  1  0
 10  9  1  0
 11 12  1  1
 12  6  1  0
 13 11  1  0
 13 15  1  0
 14 13  2  0
 16 15  1  0
 16 17  1  6
 16 19  1  0
 18 17  1  0
 19 21  2  0
 19 20  1  0
M  END
$$$$
