FCY.pdb
     RDKit          3D

 30 31  0  0  1  0  0  0  0  0999 V2000
   23.7544  -12.1555  -17.6211 N   0  0  0  0  0  0  0  0  0  0  0  0
   23.4436  -10.7541  -17.8146 C   0  0  1  0  0  0  0  0  0  0  0  0
   22.9428  -10.4975  -19.2195 C   0  0  0  0  0  0  0  0  0  0  0  0
   24.0110  -10.9055  -20.1609 C   0  0  0  0  0  0  0  0  0  0  0  0
   24.9872  -10.0015  -20.4970 C   0  0  0  0  0  0  0  0  0  0  0  0
   26.0075  -10.3489  -21.3789 C   0  0  0  0  0  0  0  0  0  0  0  0
   26.0331  -11.6214  -21.9199 C   0  0  0  0  0  0  0  0  0  0  0  0
   25.0705  -12.5329  -21.5968 C   0  0  0  0  0  0  0  0  0  0  0  0
   24.0757  -12.1590  -20.7226 C   0  0  0  0  0  0  0  0  0  0  0  0
   22.5116  -10.2987  -16.7830 C   0  0  0  0  0  0  0  0  0  0  0  0
   21.9994  -11.1306  -15.9956 O   0  0  0  0  0  0  0  0  0  0  0  0
   22.1303   -8.9349  -16.6010 N   0  0  0  0  0  0  0  0  0  0  0  0
   21.2664   -8.4965  -15.5219 C   0  0  1  0  0  0  0  0  0  0  0  0
   21.9299   -8.8924  -14.2206 C   0  0  0  0  0  0  0  0  0  0  0  0
   20.7858   -8.3795  -12.8854 S   0  0  0  0  0  0  0  0  0  0  0  0
   20.9976   -7.0508  -15.6005 C   0  0  0  0  0  0  0  0  0  0  0  0
   21.9571   -6.2860  -15.8801 O   0  0  0  0  0  0  0  0  0  0  0  0
   18.2000   -0.1195  -19.8001 O   0  0  0  0  0  0  0  0  0  0  0  0
   18.5658   -1.3025  -19.1740 C   0  0  0  0  0  0  0  0  0  0  0  0
   19.1006   -1.3561  -17.9035 C   0  0  0  0  0  0  0  0  0  0  0  0
   19.4420   -2.5644  -17.3409 C   0  0  0  0  0  0  0  0  0  0  0  0
   19.2761   -3.7824  -17.9959 C   0  0  0  0  0  0  0  0  0  0  0  0
   19.6647   -5.0385  -17.3537 C   0  0  0  0  0  0  0  0  0  0  0  0
   19.3717   -5.1398  -15.8951 C   0  0  2  0  0  0  0  0  0  0  0  0
   19.7413   -6.4710  -15.3839 N   0  0  0  0  0  0  0  0  0  0  0  0
   17.9465   -4.8575  -15.5964 C   0  0  0  0  0  0  0  0  0  0  0  0
   17.0389   -5.7200  -15.6563 O   0  0  0  0  0  0  0  0  0  0  0  0
   18.7373   -3.7126  -19.2730 C   0  0  0  0  0  0  0  0  0  0  0  0
   18.3975   -2.5010  -19.8309 C   0  0  0  0  0  0  0  0  0  0  0  0
   17.5455   -3.5689  -15.2220 O   0  0  0  0  0  0  0  0  0  0  0  0
  2  3  1  0
  2  1  1  6
  3  4  1  0
  4  9  2  0
  5  6  2  0
  5  4  1  0
  6  7  1  0
  7  8  2  0
  9  8  1  0
 10 12  1  0
 10  2  1  0
 11 10  2  0
 13 14  1  1
 13 12  1  0
 14 15  1  0
 16 13  1  0
 16 17  2  0
 18 19  1  0
 19 29  2  0
 20 19  1  0
 20 21  2  0
 21 22  1  0
 22 28  2  0
 22 23  1  0
 24 23  1  6
 24 26  1  0
 24 25  1  0
 25 16  1  0
 26 30  1  0
 27 26  2  0
 29 28  1  0
M  END
$$$$
