FCY.pdb
     RDKit          3D

 30 31  0  0  1  0  0  0  0  0999 V2000
   28.7744  -12.4869  -17.0302 N   0  0  0  0  0  0  0  0  0  0  0  0
   28.0137  -11.2560  -17.0933 C   0  0  1  0  0  0  0  0  0  0  0  0
   28.1897  -10.5767  -18.4342 C   0  0  0  0  0  0  0  0  0  0  0  0
   29.5832  -10.0805  -18.5093 C   0  0  0  0  0  0  0  0  0  0  0  0
   29.9074   -8.9011  -17.8873 C   0  0  0  0  0  0  0  0  0  0  0  0
   31.2070   -8.4031  -17.9361 C   0  0  0  0  0  0  0  0  0  0  0  0
   32.1792   -9.1091  -18.6209 C   0  0  0  0  0  0  0  0  0  0  0  0
   31.8745  -10.2835  -19.2452 C   0  0  0  0  0  0  0  0  0  0  0  0
   30.5812  -10.7491  -19.1785 C   0  0  0  0  0  0  0  0  0  0  0  0
   26.6121  -11.5134  -16.7621 C   0  0  0  0  0  0  0  0  0  0  0  0
   26.1804  -12.6914  -16.7550 O   0  0  0  0  0  0  0  0  0  0  0  0
   25.6707  -10.4907  -16.4363 N   0  0  0  0  0  0  0  0  0  0  0  0
   24.2983  -10.7742  -16.0632 C   0  0  1  0  0  0  0  0  0  0  0  0
   24.2369  -10.8063  -14.5514 C   0  0  0  0  0  0  0  0  0  0  0  0
   24.8380   -9.1734  -13.9793 S   0  0  0  0  0  0  0  0  0  0  0  0
   23.3681   -9.7917  -16.6443 C   0  0  0  0  0  0  0  0  0  0  0  0
   23.7036   -8.5788  -16.6273 O   0  0  0  0  0  0  0  0  0  0  0  0
   16.6414   -6.1955  -21.3126 O   0  0  0  0  0  0  0  0  0  0  0  0
   17.5482   -7.0492  -20.7009 C   0  0  0  0  0  0  0  0  0  0  0  0
   18.8568   -7.1903  -21.1139 C   0  0  0  0  0  0  0  0  0  0  0  0
   19.7046   -8.0558  -20.4617 C   0  0  0  0  0  0  0  0  0  0  0  0
   19.3119   -8.8274  -19.3707 C   0  0  0  0  0  0  0  0  0  0  0  0
   20.2528   -9.7393  -18.7193 C   0  0  0  0  0  0  0  0  0  0  0  0
   21.2042   -9.1124  -17.7572 C   0  0  2  0  0  0  0  0  0  0  0  0
   22.1323  -10.1200  -17.2156 N   0  0  0  0  0  0  0  0  0  0  0  0
   20.4973   -8.4241  -16.6497 C   0  0  0  0  0  0  0  0  0  0  0  0
   20.0240   -9.0165  -15.6516 O   0  0  0  0  0  0  0  0  0  0  0  0
   17.9929   -8.6750  -18.9669 C   0  0  0  0  0  0  0  0  0  0  0  0
   17.1492   -7.8076  -19.6230 C   0  0  0  0  0  0  0  0  0  0  0  0
   20.3253   -7.0344  -16.6777 O   0  0  0  0  0  0  0  0  0  0  0  0
  2  3  1  0
  2  1  1  6
  3  4  1  0
  4  9  2  0
  5  6  2  0
  5  4  1  0
  6  7  1  0
  7  8  2  0
  9  8  1  0
 10 12  1  0
 10  2  1  0
 11 10  2  0
 13 14  1  1
 13 12  1  0
 14 15  1  0
 16 13  1  0
 16 17  2  0
 18 19  1  0
 19 29  2  0
 20 19  1  0
 20 21  2  0
 21 22  1  0
 22 28  2  0
 22 23  1  0
 24 23  1  6
 24 26  1  0
 24 25  1  0
 25 16  1  0
 26 30  1  0
 27 26  2  0
 29 28  1  0
M  END
$$$$
