FCY.pdb
     RDKit          3D

 30 31  0  0  1  0  0  0  0  0999 V2000
   19.9575  -15.3658  -19.0772 N   0  0  0  0  0  0  0  0  0  0  0  0
   20.2876  -15.5921  -17.6852 C   0  0  1  0  0  0  0  0  0  0  0  0
   19.3126  -14.8797  -16.7728 C   0  0  0  0  0  0  0  0  0  0  0  0
   19.4697  -13.4236  -16.9934 C   0  0  0  0  0  0  0  0  0  0  0  0
   18.5011  -12.7443  -17.6886 C   0  0  0  0  0  0  0  0  0  0  0  0
   18.6143  -11.3750  -17.9156 C   0  0  0  0  0  0  0  0  0  0  0  0
   19.7179  -10.6958  -17.4327 C   0  0  0  0  0  0  0  0  0  0  0  0
   20.6906  -11.3553  -16.7393 C   0  0  0  0  0  0  0  0  0  0  0  0
   20.5496  -12.7083  -16.5316 C   0  0  0  0  0  0  0  0  0  0  0  0
   20.3781  -17.0274  -17.4166 C   0  0  0  0  0  0  0  0  0  0  0  0
   19.5836  -17.8176  -17.9811 O   0  0  0  0  0  0  0  0  0  0  0  0
   21.3337  -17.6128  -16.5320 N   0  0  0  0  0  0  0  0  0  0  0  0
   21.3660  -19.0320  -16.2360 C   0  0  1  0  0  0  0  0  0  0  0  0
   22.7984  -19.4951  -16.3915 C   0  0  0  0  0  0  0  0  0  0  0  0
   23.8277  -18.2974  -15.4638 S   0  0  0  0  0  0  0  0  0  0  0  0
   20.8244  -19.3154  -14.8963 C   0  0  0  0  0  0  0  0  0  0  0  0
   21.1264  -18.5313  -13.9592 O   0  0  0  0  0  0  0  0  0  0  0  0
   13.7672  -18.9784  -16.1898 O   0  0  0  0  0  0  0  0  0  0  0  0
   14.8966  -19.1127  -15.3949 C   0  0  0  0  0  0  0  0  0  0  0  0
   15.0360  -20.0898  -14.4313 C   0  0  0  0  0  0  0  0  0  0  0  0
   16.1841  -20.1669  -13.6770 C   0  0  0  0  0  0  0  0  0  0  0  0
   17.2547  -19.2891  -13.8295 C   0  0  0  0  0  0  0  0  0  0  0  0
   18.4495  -19.4109  -12.9937 C   0  0  0  0  0  0  0  0  0  0  0  0
   19.3341  -20.5741  -13.2910 C   0  0  2  0  0  0  0  0  0  0  0  0
   19.9938  -20.4025  -14.5969 N   0  0  0  0  0  0  0  0  0  0  0  0
   18.5898  -21.8567  -13.2614 C   0  0  0  0  0  0  0  0  0  0  0  0
   18.0128  -22.3030  -12.2420 O   0  0  0  0  0  0  0  0  0  0  0  0
   17.0999  -18.3115  -14.8023 C   0  0  0  0  0  0  0  0  0  0  0  0
   15.9492  -18.2391  -15.5541 C   0  0  0  0  0  0  0  0  0  0  0  0
   18.4997  -22.6474  -14.4138 O   0  0  0  0  0  0  0  0  0  0  0  0
  2  3  1  0
  2  1  1  6
  3  4  1  0
  4  9  2  0
  5  6  2  0
  5  4  1  0
  6  7  1  0
  7  8  2  0
  9  8  1  0
 10 12  1  0
 10  2  1  0
 11 10  2  0
 13 14  1  1
 13 12  1  0
 14 15  1  0
 16 13  1  0
 16 17  2  0
 18 19  1  0
 19 29  2  0
 20 19  1  0
 20 21  2  0
 21 22  1  0
 22 28  2  0
 22 23  1  0
 24 23  1  6
 24 26  1  0
 24 25  1  0
 25 16  1  0
 26 30  1  0
 27 26  2  0
 29 28  1  0
M  END
$$$$
