FCY.pdb
     RDKit          3D

 30 31  0  0  1  0  0  0  0  0999 V2000
   25.2163  -32.9620   -9.9867 N   0  0  0  0  0  0  0  0  0  0  0  0
   25.0329  -32.5325   -8.6157 C   0  0  1  0  0  0  0  0  0  0  0  0
   23.5801  -32.2138   -8.3358 C   0  0  0  0  0  0  0  0  0  0  0  0
   23.2346  -30.9852   -9.0872 C   0  0  0  0  0  0  0  0  0  0  0  0
   22.3267  -31.0619  -10.1132 C   0  0  0  0  0  0  0  0  0  0  0  0
   21.9771  -29.9281  -10.8423 C   0  0  0  0  0  0  0  0  0  0  0  0
   22.5545  -28.7122  -10.5248 C   0  0  0  0  0  0  0  0  0  0  0  0
   23.4592  -28.6176   -9.5077 C   0  0  0  0  0  0  0  0  0  0  0  0
   23.7837  -29.7562   -8.8063 C   0  0  0  0  0  0  0  0  0  0  0  0
   25.5871  -33.5282   -7.6983 C   0  0  0  0  0  0  0  0  0  0  0  0
   25.3777  -34.7482   -7.9032 O   0  0  0  0  0  0  0  0  0  0  0  0
   26.3731  -33.2034   -6.5515 N   0  0  0  0  0  0  0  0  0  0  0  0
   26.8970  -34.2078   -5.6462 C   0  0  1  0  0  0  0  0  0  0  0  0
   27.7541  -33.4938   -4.6236 C   0  0  0  0  0  0  0  0  0  0  0  0
   26.6275  -32.3916   -3.6905 S   0  0  0  0  0  0  0  0  0  0  0  0
   25.8150  -34.9912   -5.0263 C   0  0  0  0  0  0  0  0  0  0  0  0
   24.6348  -34.7694   -5.4029 O   0  0  0  0  0  0  0  0  0  0  0  0
   20.1524  -40.9714   -2.3481 O   0  0  0  0  0  0  0  0  0  0  0  0
   21.2057  -40.2081   -2.8311 C   0  0  0  0  0  0  0  0  0  0  0  0
   22.5287  -40.5825   -2.7207 C   0  0  0  0  0  0  0  0  0  0  0  0
   23.5256  -39.7775   -3.2223 C   0  0  0  0  0  0  0  0  0  0  0  0
   23.2754  -38.5638   -3.8580 C   0  0  0  0  0  0  0  0  0  0  0  0
   24.3748  -37.7421   -4.3654 C   0  0  0  0  0  0  0  0  0  0  0  0
   24.9108  -36.7199   -3.4212 C   0  0  2  0  0  0  0  0  0  0  0  0
   26.0147  -35.9686   -4.0433 N   0  0  0  0  0  0  0  0  0  0  0  0
   25.3638  -37.3280   -2.1465 C   0  0  0  0  0  0  0  0  0  0  0  0
   26.4925  -37.8493   -1.9866 O   0  0  0  0  0  0  0  0  0  0  0  0
   21.9400  -38.2003   -3.9613 C   0  0  0  0  0  0  0  0  0  0  0  0
   20.9469  -39.0095   -3.4578 C   0  0  0  0  0  0  0  0  0  0  0  0
   24.5166  -37.3437   -1.0314 O   0  0  0  0  0  0  0  0  0  0  0  0
  2  3  1  0
  2  1  1  6
  3  4  1  0
  4  9  2  0
  5  6  2  0
  5  4  1  0
  6  7  1  0
  7  8  2  0
  9  8  1  0
 10 12  1  0
 10  2  1  0
 11 10  2  0
 13 14  1  1
 13 12  1  0
 14 15  1  0
 16 13  1  0
 16 17  2  0
 18 19  1  0
 19 29  2  0
 20 19  1  0
 20 21  2  0
 21 22  1  0
 22 28  2  0
 22 23  1  0
 24 23  1  6
 24 26  1  0
 24 25  1  0
 25 16  1  0
 26 30  1  0
 27 26  2  0
 29 28  1  0
M  END
$$$$
