FCY.pdb
     RDKit          3D

 30 31  0  0  1  0  0  0  0  0999 V2000
   27.9407  -20.4672  -16.4273 N   0  0  0  0  0  0  0  0  0  0  0  0
   27.2357  -19.6995  -15.4217 C   0  0  1  0  0  0  0  0  0  0  0  0
   26.3634  -18.6399  -16.0595 C   0  0  0  0  0  0  0  0  0  0  0  0
   27.2551  -17.5979  -16.6187 C   0  0  0  0  0  0  0  0  0  0  0  0
   27.5077  -17.5876  -17.9675 C   0  0  0  0  0  0  0  0  0  0  0  0
   28.3408  -16.6235  -18.5294 C   0  0  0  0  0  0  0  0  0  0  0  0
   28.9183  -15.6670  -17.7144 C   0  0  0  0  0  0  0  0  0  0  0  0
   28.6780  -15.6623  -16.3712 C   0  0  0  0  0  0  0  0  0  0  0  0
   27.8502  -16.6283  -15.8465 C   0  0  0  0  0  0  0  0  0  0  0  0
   26.4922  -20.5949  -14.5352 C   0  0  0  0  0  0  0  0  0  0  0  0
   26.0446  -21.6798  -14.9790 O   0  0  0  0  0  0  0  0  0  0  0  0
   26.2306  -20.3161  -13.1596 N   0  0  0  0  0  0  0  0  0  0  0  0
   25.4094  -21.1720  -12.3254 C   0  0  1  0  0  0  0  0  0  0  0  0
   26.0031  -21.1532  -10.9335 C   0  0  0  0  0  0  0  0  0  0  0  0
   24.9277  -20.0594   -9.9324 S   0  0  0  0  0  0  0  0  0  0  0  0
   23.9992  -20.7482  -12.3424 C   0  0  0  0  0  0  0  0  0  0  0  0
   23.7505  -19.5190  -12.2371 O   0  0  0  0  0  0  0  0  0  0  0  0
   19.2956  -23.7575   -6.8103 O   0  0  0  0  0  0  0  0  0  0  0  0
   19.7870  -22.9408   -7.8188 C   0  0  0  0  0  0  0  0  0  0  0  0
   20.1849  -21.6360   -7.6140 C   0  0  0  0  0  0  0  0  0  0  0  0
   20.6637  -20.8805   -8.6596 C   0  0  0  0  0  0  0  0  0  0  0  0
   20.7768  -21.3666   -9.9599 C   0  0  0  0  0  0  0  0  0  0  0  0
   21.2847  -20.5163  -11.0370 C   0  0  0  0  0  0  0  0  0  0  0  0
   21.5123  -21.1931  -12.3461 C   0  0  2  0  0  0  0  0  0  0  0  0
   22.9151  -21.6259  -12.4684 N   0  0  0  0  0  0  0  0  0  0  0  0
   21.1468  -20.3223  -13.4898 C   0  0  0  0  0  0  0  0  0  0  0  0
   21.9075  -19.4502  -13.9714 O   0  0  0  0  0  0  0  0  0  0  0  0
   20.3726  -22.6805  -10.1505 C   0  0  0  0  0  0  0  0  0  0  0  0
   19.8945  -23.4317   -9.1009 C   0  0  0  0  0  0  0  0  0  0  0  0
   19.8913  -20.4457  -14.0980 O   0  0  0  0  0  0  0  0  0  0  0  0
  2  3  1  0
  2  1  1  6
  3  4  1  0
  4  9  2  0
  5  6  2  0
  5  4  1  0
  6  7  1  0
  7  8  2  0
  9  8  1  0
 10 12  1  0
 10  2  1  0
 11 10  2  0
 13 14  1  1
 13 12  1  0
 14 15  1  0
 16 13  1  0
 16 17  2  0
 18 19  1  0
 19 29  2  0
 20 19  1  0
 20 21  2  0
 21 22  1  0
 22 28  2  0
 22 23  1  0
 24 23  1  1
 24 26  1  0
 24 25  1  0
 25 16  1  0
 26 30  1  0
 27 26  2  0
 29 28  1  0
M  END
$$$$
