FCY.pdb
     RDKit          3D

 30 31  0  0  1  0  0  0  0  0999 V2000
   22.1389  -17.2839  -24.7361 N   0  0  0  0  0  0  0  0  0  0  0  0
   21.5473  -18.0210  -23.6386 C   0  0  1  0  0  0  0  0  0  0  0  0
   20.3242  -17.3088  -23.1026 C   0  0  0  0  0  0  0  0  0  0  0  0
   20.7720  -16.0283  -22.5079 C   0  0  0  0  0  0  0  0  0  0  0  0
   20.6281  -14.8697  -23.2289 C   0  0  0  0  0  0  0  0  0  0  0  0
   21.0375  -13.6470  -22.7028 C   0  0  0  0  0  0  0  0  0  0  0  0
   21.5953  -13.6049  -21.4380 C   0  0  0  0  0  0  0  0  0  0  0  0
   21.7459  -14.7472  -20.7071 C   0  0  0  0  0  0  0  0  0  0  0  0
   21.3315  -15.9396  -21.2549 C   0  0  0  0  0  0  0  0  0  0  0  0
   21.2736  -19.3986  -24.0478 C   0  0  0  0  0  0  0  0  0  0  0  0
   21.1679  -19.6767  -25.2667 O   0  0  0  0  0  0  0  0  0  0  0  0
   21.1129  -20.4833  -23.1334 N   0  0  0  0  0  0  0  0  0  0  0  0
   20.8618  -21.8451  -23.5640 C   0  0  1  0  0  0  0  0  0  0  0  0
   22.1645  -22.6059  -23.4446 C   0  0  0  0  0  0  0  0  0  0  0  0
   21.7728  -24.3551  -23.8210 S   0  0  0  0  0  0  0  0  0  0  0  0
   19.7744  -22.4639  -22.7874 C   0  0  0  0  0  0  0  0  0  0  0  0
   19.9056  -22.5311  -21.5375 O   0  0  0  0  0  0  0  0  0  0  0  0
   16.2421  -17.9437  -19.6957 O   0  0  0  0  0  0  0  0  0  0  0  0
   16.2299  -19.1454  -20.3894 C   0  0  0  0  0  0  0  0  0  0  0  0
   15.5856  -20.2779  -19.9364 C   0  0  0  0  0  0  0  0  0  0  0  0
   15.6129  -21.4385  -20.6750 C   0  0  0  0  0  0  0  0  0  0  0  0
   16.2739  -21.5475  -21.8962 C   0  0  0  0  0  0  0  0  0  0  0  0
   16.2785  -22.8096  -22.6365 C   0  0  0  0  0  0  0  0  0  0  0  0
   17.5348  -23.6084  -22.5503 C   0  0  2  0  0  0  0  0  0  0  0  0
   18.6020  -22.9832  -23.3504 N   0  0  0  0  0  0  0  0  0  0  0  0
   17.3287  -25.0116  -22.9844 C   0  0  0  0  0  0  0  0  0  0  0  0
   17.9636  -25.5505  -23.9213 O   0  0  0  0  0  0  0  0  0  0  0  0
   16.9175  -20.4004  -22.3388 C   0  0  0  0  0  0  0  0  0  0  0  0
   16.8868  -19.2421  -21.5958 C   0  0  0  0  0  0  0  0  0  0  0  0
   16.3820  -25.8181  -22.3404 O   0  0  0  0  0  0  0  0  0  0  0  0
  2  3  1  0
  2  1  1  6
  3  4  1  0
  4  9  2  0
  5  6  2  0
  5  4  1  0
  6  7  1  0
  7  8  2  0
  9  8  1  0
 10 12  1  0
 10  2  1  0
 11 10  2  0
 13 14  1  1
 13 12  1  0
 14 15  1  0
 16 13  1  0
 16 17  2  0
 18 19  1  0
 19 29  2  0
 20 19  1  0
 20 21  2  0
 21 22  1  0
 22 28  2  0
 22 23  1  0
 24 23  1  6
 24 26  1  0
 24 25  1  0
 25 16  1  0
 26 30  1  0
 27 26  2  0
 29 28  1  0
M  END
$$$$
