FCY.pdb
     RDKit          3D

 30 31  0  0  1  0  0  0  0  0999 V2000
   26.8251  -27.5047  -19.3847 N   0  0  0  0  0  0  0  0  0  0  0  0
   28.2386  -27.3759  -19.0963 C   0  0  1  0  0  0  0  0  0  0  0  0
   28.4823  -27.2771  -17.6059 C   0  0  0  0  0  0  0  0  0  0  0  0
   27.5996  -26.2134  -17.0739 C   0  0  0  0  0  0  0  0  0  0  0  0
   27.8936  -24.9014  -17.3479 C   0  0  0  0  0  0  0  0  0  0  0  0
   27.0869  -23.8741  -16.8648 C   0  0  0  0  0  0  0  0  0  0  0  0
   25.9773  -24.1848  -16.1002 C   0  0  0  0  0  0  0  0  0  0  0  0
   25.6700  -25.4840  -15.8179 C   0  0  0  0  0  0  0  0  0  0  0  0
   26.4869  -26.4762  -16.3099 C   0  0  0  0  0  0  0  0  0  0  0  0
   28.9818  -28.4673  -19.7263 C   0  0  0  0  0  0  0  0  0  0  0  0
   28.6417  -28.8777  -20.8622 O   0  0  0  0  0  0  0  0  0  0  0  0
   30.1002  -29.1197  -19.1248 N   0  0  0  0  0  0  0  0  0  0  0  0
   31.1863  -29.6921  -19.8967 C   0  0  1  0  0  0  0  0  0  0  0  0
   31.8491  -28.5618  -20.6539 C   0  0  0  0  0  0  0  0  0  0  0  0
   33.2478  -29.3096  -21.5699 S   0  0  0  0  0  0  0  0  0  0  0  0
   32.1309  -30.4245  -19.0366 C   0  0  0  0  0  0  0  0  0  0  0  0
   33.1666  -29.8227  -18.6504 O   0  0  0  0  0  0  0  0  0  0  0  0
   25.9134  -32.9789  -15.9846 O   0  0  0  0  0  0  0  0  0  0  0  0
   27.2380  -32.5756  -16.0743 C   0  0  0  0  0  0  0  0  0  0  0  0
   27.6545  -31.4963  -16.8256 C   0  0  0  0  0  0  0  0  0  0  0  0
   28.9854  -31.1500  -16.8709 C   0  0  0  0  0  0  0  0  0  0  0  0
   29.9760  -31.8449  -16.1812 C   0  0  0  0  0  0  0  0  0  0  0  0
   31.3788  -31.4385  -16.2717 C   0  0  0  0  0  0  0  0  0  0  0  0
   32.2145  -32.2015  -17.2429 C   0  0  2  0  0  0  0  0  0  0  0  0
   31.9512  -31.7495  -18.6199 N   0  0  0  0  0  0  0  0  0  0  0  0
   31.9907  -33.6639  -17.1357 C   0  0  0  0  0  0  0  0  0  0  0  0
   32.3031  -34.3438  -16.1300 O   0  0  0  0  0  0  0  0  0  0  0  0
   29.5420  -32.9282  -15.4301 C   0  0  0  0  0  0  0  0  0  0  0  0
   28.2093  -33.2701  -15.3883 C   0  0  0  0  0  0  0  0  0  0  0  0
   31.4000  -34.3670  -18.1931 O   0  0  0  0  0  0  0  0  0  0  0  0
  2  3  1  0
  2  1  1  1
  3  4  1  0
  4  9  2  0
  5  6  2  0
  5  4  1  0
  6  7  1  0
  7  8  2  0
  9  8  1  0
 10 12  1  0
 10  2  1  0
 11 10  2  0
 13 14  1  1
 13 12  1  0
 14 15  1  0
 16 13  1  0
 16 17  2  0
 18 19  1  0
 19 29  2  0
 20 19  1  0
 20 21  2  0
 21 22  1  0
 22 28  2  0
 22 23  1  0
 24 23  1  1
 24 26  1  0
 24 25  1  0
 25 16  1  0
 26 30  1  0
 27 26  2  0
 29 28  1  0
M  END
$$$$
