FCY.pdb
     RDKit          3D

 30 31  0  0  1  0  0  0  0  0999 V2000
   26.6201  -18.1831  -20.3580 N   0  0  0  0  0  0  0  0  0  0  0  0
   25.4921  -17.3019  -20.5790 C   0  0  1  0  0  0  0  0  0  0  0  0
   24.8956  -17.5170  -21.9532 C   0  0  0  0  0  0  0  0  0  0  0  0
   25.6323  -16.6540  -22.9051 C   0  0  0  0  0  0  0  0  0  0  0  0
   26.4322  -17.2373  -23.8553 C   0  0  0  0  0  0  0  0  0  0  0  0
   27.1402  -16.4584  -24.7671 C   0  0  0  0  0  0  0  0  0  0  0  0
   27.0327  -15.0808  -24.7106 C   0  0  0  0  0  0  0  0  0  0  0  0
   26.2419  -14.4839  -23.7723 C   0  0  0  0  0  0  0  0  0  0  0  0
   25.5551  -15.2812  -22.8855 C   0  0  0  0  0  0  0  0  0  0  0  0
   24.5150  -17.4556  -19.5010 C   0  0  0  0  0  0  0  0  0  0  0  0
   24.9043  -17.4937  -18.3088 O   0  0  0  0  0  0  0  0  0  0  0  0
   23.1076  -17.5688  -19.7126 N   0  0  0  0  0  0  0  0  0  0  0  0
   22.1627  -17.7688  -18.6310 C   0  0  1  0  0  0  0  0  0  0  0  0
   22.3946  -16.6694  -17.6172 C   0  0  0  0  0  0  0  0  0  0  0  0
   21.1417  -16.9113  -16.3032 S   0  0  0  0  0  0  0  0  0  0  0  0
   20.7758  -17.7962  -19.1254 C   0  0  0  0  0  0  0  0  0  0  0  0
   20.3305  -16.7648  -19.6926 O   0  0  0  0  0  0  0  0  0  0  0  0
   12.9125  -20.8119  -22.0807 O   0  0  0  0  0  0  0  0  0  0  0  0
   14.1498  -20.6885  -21.4649 C   0  0  0  0  0  0  0  0  0  0  0  0
   14.3153  -20.6307  -20.0966 C   0  0  0  0  0  0  0  0  0  0  0  0
   15.5723  -20.5080  -19.5506 C   0  0  0  0  0  0  0  0  0  0  0  0
   16.7316  -20.4357  -20.3192 C   0  0  0  0  0  0  0  0  0  0  0  0
   18.0436  -20.2965  -19.6864 C   0  0  0  0  0  0  0  0  0  0  0  0
   18.5368  -18.8997  -19.5146 C   0  0  2  0  0  0  0  0  0  0  0  0
   19.9190  -18.8975  -19.0051 N   0  0  0  0  0  0  0  0  0  0  0  0
   17.6611  -18.1109  -18.6141 C   0  0  0  0  0  0  0  0  0  0  0  0
   17.7822  -18.0921  -17.3666 O   0  0  0  0  0  0  0  0  0  0  0  0
   16.5494  -20.4948  -21.6937 C   0  0  0  0  0  0  0  0  0  0  0  0
   15.2896  -20.6177  -22.2344 C   0  0  0  0  0  0  0  0  0  0  0  0
   16.6273  -17.3278  -19.1426 O   0  0  0  0  0  0  0  0  0  0  0  0
  2  3  1  0
  2  1  1  1
  3  4  1  0
  4  9  2  0
  5  6  2  0
  5  4  1  0
  6  7  1  0
  7  8  2  0
  9  8  1  0
 10 12  1  0
 10  2  1  0
 11 10  2  0
 13 14  1  1
 13 12  1  0
 14 15  1  0
 16 13  1  0
 16 17  2  0
 18 19  1  0
 19 29  2  0
 20 19  1  0
 20 21  2  0
 21 22  1  0
 22 28  2  0
 22 23  1  0
 24 23  1  1
 24 26  1  0
 24 25  1  0
 25 16  1  0
 26 30  1  0
 27 26  2  0
 29 28  1  0
M  END
$$$$
