FCY.pdb
     RDKit          3D

 30 31  0  0  1  0  0  0  0  0999 V2000
   23.9406  -30.7549   -9.5112 N   0  0  0  0  0  0  0  0  0  0  0  0
   23.8261  -31.9531   -8.7056 C   0  0  1  0  0  0  0  0  0  0  0  0
   24.3377  -33.1635   -9.4563 C   0  0  0  0  0  0  0  0  0  0  0  0
   23.3854  -33.4495  -10.5540 C   0  0  0  0  0  0  0  0  0  0  0  0
   23.5902  -32.8752  -11.7834 C   0  0  0  0  0  0  0  0  0  0  0  0
   22.7162  -33.1206  -12.8394 C   0  0  0  0  0  0  0  0  0  0  0  0
   21.6302  -33.9538  -12.6421 C   0  0  0  0  0  0  0  0  0  0  0  0
   21.4113  -34.5332  -11.4263 C   0  0  0  0  0  0  0  0  0  0  0  0
   22.2931  -34.2709  -10.4029 C   0  0  0  0  0  0  0  0  0  0  0  0
   24.4892  -31.7573   -7.4162 C   0  0  0  0  0  0  0  0  0  0  0  0
   24.8455  -30.6058   -7.0679 O   0  0  0  0  0  0  0  0  0  0  0  0
   24.7691  -32.8132   -6.4969 N   0  0  0  0  0  0  0  0  0  0  0  0
   25.3490  -32.5838   -5.1877 C   0  0  1  0  0  0  0  0  0  0  0  0
   24.3889  -31.7063   -4.4140 C   0  0  0  0  0  0  0  0  0  0  0  0
   22.7082  -32.3287   -4.7916 S   0  0  0  0  0  0  0  0  0  0  0  0
   25.6362  -33.8516   -4.4960 C   0  0  0  0  0  0  0  0  0  0  0  0
   25.0846  -34.8976   -4.9268 O   0  0  0  0  0  0  0  0  0  0  0  0
   28.1274  -41.4794   -1.5856 O   0  0  0  0  0  0  0  0  0  0  0  0
   27.8905  -40.2119   -2.0981 C   0  0  0  0  0  0  0  0  0  0  0  0
   26.6834  -39.8258   -2.6429 C   0  0  0  0  0  0  0  0  0  0  0  0
   26.5155  -38.5515   -3.1338 C   0  0  0  0  0  0  0  0  0  0  0  0
   27.5234  -37.5904   -3.1155 C   0  0  0  0  0  0  0  0  0  0  0  0
   27.2934  -36.2517   -3.6597 C   0  0  0  0  0  0  0  0  0  0  0  0
   26.7414  -35.2485   -2.7044 C   0  0  2  0  0  0  0  0  0  0  0  0
   26.4846  -33.9691   -3.3879 N   0  0  0  0  0  0  0  0  0  0  0  0
   27.6419  -35.0346   -1.5454 C   0  0  0  0  0  0  0  0  0  0  0  0
   28.4248  -34.0611   -1.4428 O   0  0  0  0  0  0  0  0  0  0  0  0
   28.7319  -37.9933   -2.5648 C   0  0  0  0  0  0  0  0  0  0  0  0
   28.8942  -39.2694   -2.0750 C   0  0  0  0  0  0  0  0  0  0  0  0
   27.6524  -35.9459   -0.4820 O   0  0  0  0  0  0  0  0  0  0  0  0
  2  3  1  0
  2  1  1  6
  3  4  1  0
  4  9  2  0
  5  6  2  0
  5  4  1  0
  6  7  1  0
  7  8  2  0
  9  8  1  0
 10 12  1  0
 10  2  1  0
 11 10  2  0
 13 14  1  1
 13 12  1  0
 14 15  1  0
 16 13  1  0
 16 17  2  0
 18 19  1  0
 19 29  2  0
 20 19  1  0
 20 21  2  0
 21 22  1  0
 22 28  2  0
 22 23  1  0
 24 23  1  6
 24 26  1  0
 24 25  1  0
 25 16  1  0
 26 30  1  0
 27 26  2  0
 29 28  1  0
M  END
$$$$
