FCY.pdb
     RDKit          3D

 30 31  0  0  1  0  0  0  0  0999 V2000
   23.5849  -18.3198  -17.1206 N   0  0  0  0  0  0  0  0  0  0  0  0
   23.5215  -18.7097  -15.7272 C   0  0  1  0  0  0  0  0  0  0  0  0
   24.2913  -17.7406  -14.8562 C   0  0  0  0  0  0  0  0  0  0  0  0
   25.7026  -17.7534  -15.3052 C   0  0  0  0  0  0  0  0  0  0  0  0
   26.4792  -18.8528  -15.0384 C   0  0  0  0  0  0  0  0  0  0  0  0
   27.8103  -18.9011  -15.4448 C   0  0  0  0  0  0  0  0  0  0  0  0
   28.3517  -17.8257  -16.1253 C   0  0  0  0  0  0  0  0  0  0  0  0
   27.5940  -16.7244  -16.3991 C   0  0  0  0  0  0  0  0  0  0  0  0
   26.2820  -16.7074  -15.9842 C   0  0  0  0  0  0  0  0  0  0  0  0
   22.1275  -18.8685  -15.3124 C   0  0  0  0  0  0  0  0  0  0  0  0
   21.2651  -18.0431  -15.6989 O   0  0  0  0  0  0  0  0  0  0  0  0
   21.6623  -19.9264  -14.4740 N   0  0  0  0  0  0  0  0  0  0  0  0
   20.2549  -20.1742  -14.2275 C   0  0  1  0  0  0  0  0  0  0  0  0
   19.6066  -20.4728  -15.5619 C   0  0  0  0  0  0  0  0  0  0  0  0
   17.8718  -20.9337  -15.1971 S   0  0  0  0  0  0  0  0  0  0  0  0
   20.0620  -21.2600  -13.2516 C   0  0  0  0  0  0  0  0  0  0  0  0
   20.5761  -22.3804  -13.5053 O   0  0  0  0  0  0  0  0  0  0  0  0
   17.5635  -25.7439   -5.9087 O   0  0  0  0  0  0  0  0  0  0  0  0
   17.8084  -24.7633   -6.8594 C   0  0  0  0  0  0  0  0  0  0  0  0
   16.8098  -24.1033   -7.5450 C   0  0  0  0  0  0  0  0  0  0  0  0
   17.1226  -23.1397   -8.4761 C   0  0  0  0  0  0  0  0  0  0  0  0
   18.4312  -22.7743   -8.7824 C   0  0  0  0  0  0  0  0  0  0  0  0
   18.7076  -21.7485   -9.7886 C   0  0  0  0  0  0  0  0  0  0  0  0
   19.0951  -22.2506  -11.1382 C   0  0  2  0  0  0  0  0  0  0  0  0
   19.3423  -21.1264  -12.0576 N   0  0  0  0  0  0  0  0  0  0  0  0
   18.0680  -23.1569  -11.7070 C   0  0  0  0  0  0  0  0  0  0  0  0
   17.0078  -22.7575  -12.2435 O   0  0  0  0  0  0  0  0  0  0  0  0
   19.4248  -23.4470   -8.0850 C   0  0  0  0  0  0  0  0  0  0  0  0
   19.1062  -24.4099   -7.1544 C   0  0  0  0  0  0  0  0  0  0  0  0
   18.2500  -24.5448  -11.6650 O   0  0  0  0  0  0  0  0  0  0  0  0
  2  3  1  0
  2  1  1  6
  3  4  1  0
  4  9  2  0
  5  6  2  0
  5  4  1  0
  6  7  1  0
  7  8  2  0
  9  8  1  0
 10 12  1  0
 10  2  1  0
 11 10  2  0
 13 14  1  6
 13 12  1  0
 14 15  1  0
 16 13  1  0
 16 17  2  0
 18 19  1  0
 19 29  2  0
 20 19  1  0
 20 21  2  0
 21 22  1  0
 22 28  2  0
 22 23  1  0
 24 23  1  1
 24 26  1  0
 24 25  1  0
 25 16  1  0
 26 30  1  0
 27 26  2  0
 29 28  1  0
M  END
$$$$
