FCY.pdb
     RDKit          3D

 30 31  0  0  1  0  0  0  0  0999 V2000
   16.4159    1.0383  -15.8781 N   0  0  0  0  0  0  0  0  0  0  0  0
   17.5515    0.1917  -15.5757 C   0  0  1  0  0  0  0  0  0  0  0  0
   18.3023    0.7019  -14.3647 C   0  0  0  0  0  0  0  0  0  0  0  0
   18.9224    1.9963  -14.7305 C   0  0  0  0  0  0  0  0  0  0  0  0
   20.1926    2.0062  -15.2495 C   0  0  0  0  0  0  0  0  0  0  0  0
   20.8082    3.2038  -15.6051 C   0  0  0  0  0  0  0  0  0  0  0  0
   20.1272    4.3948  -15.4311 C   0  0  0  0  0  0  0  0  0  0  0  0
   18.8635    4.4035  -14.9164 C   0  0  0  0  0  0  0  0  0  0  0  0
   18.2828    3.2036  -14.5749 C   0  0  0  0  0  0  0  0  0  0  0  0
   17.1191   -1.1990  -15.4365 C   0  0  0  0  0  0  0  0  0  0  0  0
   15.9393   -1.4526  -15.0927 O   0  0  0  0  0  0  0  0  0  0  0  0
   17.9673   -2.3233  -15.6704 N   0  0  0  0  0  0  0  0  0  0  0  0
   17.5024   -3.6935  -15.5740 C   0  0  1  0  0  0  0  0  0  0  0  0
   16.3658   -3.8570  -16.5596 C   0  0  0  0  0  0  0  0  0  0  0  0
   15.9009   -5.6282  -16.5165 S   0  0  0  0  0  0  0  0  0  0  0  0
   18.5957   -4.6513  -15.8105 C   0  0  0  0  0  0  0  0  0  0  0  0
   19.4743   -4.3471  -16.6587 O   0  0  0  0  0  0  0  0  0  0  0  0
   25.3565  -10.1432  -15.2247 O   0  0  0  0  0  0  0  0  0  0  0  0
   24.2945   -9.2625  -15.0769 C   0  0  0  0  0  0  0  0  0  0  0  0
   23.3179   -9.4046  -14.1131 C   0  0  0  0  0  0  0  0  0  0  0  0
   22.2907   -8.4938  -14.0214 C   0  0  0  0  0  0  0  0  0  0  0  0
   22.1690   -7.3966  -14.8707 C   0  0  0  0  0  0  0  0  0  0  0  0
   21.0505   -6.4630  -14.7344 C   0  0  0  0  0  0  0  0  0  0  0  0
   19.7963   -6.8439  -15.4456 C   0  0  2  0  0  0  0  0  0  0  0  0
   18.7212   -5.8807  -15.1516 N   0  0  0  0  0  0  0  0  0  0  0  0
   19.3584   -8.2175  -15.0972 C   0  0  0  0  0  0  0  0  0  0  0  0
   19.9029   -9.2553  -15.5420 O   0  0  0  0  0  0  0  0  0  0  0  0
   23.1584   -7.2669  -15.8351 C   0  0  0  0  0  0  0  0  0  0  0  0
   24.1838   -8.1811  -15.9222 C   0  0  0  0  0  0  0  0  0  0  0  0
   18.2801   -8.4149  -14.2257 O   0  0  0  0  0  0  0  0  0  0  0  0
  2  3  1  0
  2  1  1  1
  3  4  1  0
  4  9  2  0
  5  6  2  0
  5  4  1  0
  6  7  1  0
  7  8  2  0
  9  8  1  0
 10 12  1  0
 10  2  1  0
 11 10  2  0
 13 14  1  6
 13 12  1  0
 14 15  1  0
 16 13  1  0
 16 17  2  0
 18 19  1  0
 19 29  2  0
 20 19  1  0
 20 21  2  0
 21 22  1  0
 22 28  2  0
 22 23  1  0
 24 23  1  1
 24 26  1  0
 24 25  1  0
 25 16  1  0
 26 30  1  0
 27 26  2  0
 29 28  1  0
M  END
$$$$
