FCY.pdb
     RDKit          3D

 30 31  0  0  1  0  0  0  0  0999 V2000
   28.3459  -19.8960  -15.8529 N   0  0  0  0  0  0  0  0  0  0  0  0
   27.3843  -19.4196  -14.8803 C   0  0  1  0  0  0  0  0  0  0  0  0
   26.3851  -18.4796  -15.5195 C   0  0  0  0  0  0  0  0  0  0  0  0
   27.1390  -17.3390  -16.0892 C   0  0  0  0  0  0  0  0  0  0  0  0
   27.3152  -16.2087  -15.3314 C   0  0  0  0  0  0  0  0  0  0  0  0
   28.0183  -15.1163  -15.8332 C   0  0  0  0  0  0  0  0  0  0  0  0
   28.5435  -15.1760  -17.1111 C   0  0  0  0  0  0  0  0  0  0  0  0
   28.3779  -16.2921  -17.8785 C   0  0  0  0  0  0  0  0  0  0  0  0
   27.6782  -17.3547  -17.3540 C   0  0  0  0  0  0  0  0  0  0  0  0
   26.7521  -20.5513  -14.2021 C   0  0  0  0  0  0  0  0  0  0  0  0
   27.2755  -21.6895  -14.2709 O   0  0  0  0  0  0  0  0  0  0  0  0
   25.5460  -20.4523  -13.4445 N   0  0  0  0  0  0  0  0  0  0  0  0
   25.3932  -21.0405  -12.1279 C   0  0  1  0  0  0  0  0  0  0  0  0
   26.4984  -20.4886  -11.2537 C   0  0  0  0  0  0  0  0  0  0  0  0
   26.2795  -21.2563   -9.6052 S   0  0  0  0  0  0  0  0  0  0  0  0
   24.0537  -20.7808  -11.5740 C   0  0  0  0  0  0  0  0  0  0  0  0
   23.9325  -19.8539  -10.7313 O   0  0  0  0  0  0  0  0  0  0  0  0
   18.4326  -17.6305  -17.1534 O   0  0  0  0  0  0  0  0  0  0  0  0
   19.3834  -18.2976  -16.3942 C   0  0  0  0  0  0  0  0  0  0  0  0
   19.9543  -19.4950  -16.7723 C   0  0  0  0  0  0  0  0  0  0  0  0
   20.8928  -20.1040  -15.9714 C   0  0  0  0  0  0  0  0  0  0  0  0
   21.3194  -19.5692  -14.7581 C   0  0  0  0  0  0  0  0  0  0  0  0
   22.3147  -20.2638  -13.9408 C   0  0  0  0  0  0  0  0  0  0  0  0
   21.7979  -20.9162  -12.7034 C   0  0  2  0  0  0  0  0  0  0  0  0
   22.9040  -21.4996  -11.9248 N   0  0  0  0  0  0  0  0  0  0  0  0
   20.7858  -21.9567  -13.0082 C   0  0  0  0  0  0  0  0  0  0  0  0
   21.0597  -23.0611  -13.5339 O   0  0  0  0  0  0  0  0  0  0  0  0
   20.7361  -18.3646  -14.3909 C   0  0  0  0  0  0  0  0  0  0  0  0
   19.7978  -17.7598  -15.1961 C   0  0  0  0  0  0  0  0  0  0  0  0
   19.4353  -21.7369  -12.7094 O   0  0  0  0  0  0  0  0  0  0  0  0
  2  3  1  0
  2  1  1  6
  3  4  1  0
  4  9  2  0
  5  6  2  0
  5  4  1  0
  6  7  1  0
  7  8  2  0
  9  8  1  0
 10 12  1  0
 10  2  1  0
 11 10  2  0
 13 14  1  1
 13 12  1  0
 14 15  1  0
 16 13  1  0
 16 17  2  0
 18 19  1  0
 19 29  2  0
 20 19  1  0
 20 21  2  0
 21 22  1  0
 22 28  2  0
 22 23  1  0
 24 23  1  6
 24 26  1  0
 24 25  1  0
 25 16  1  0
 26 30  1  0
 27 26  2  0
 29 28  1  0
M  END
$$$$
