WWM.pdb
     RDKit          3D

 37 40  0  0  1  0  0  0  0  0999 V2000
   26.0530  -18.6596  -15.6441 N   0  0  0  0  0  0  0  0  0  0  0  0
   27.2860  -19.2023  -15.1419 C   0  0  1  0  0  0  0  0  0  0  0  0
   28.2229  -18.1851  -14.5545 C   0  0  0  0  0  0  0  0  0  0  0  0
   28.3509  -17.0464  -15.4813 C   0  0  0  0  0  0  0  0  0  0  0  0
   27.8335  -15.7811  -15.3240 C   0  0  0  0  0  0  0  0  0  0  0  0
   28.2013  -15.0273  -16.3694 N   0  0  0  0  0  0  0  0  0  0  0  0
   28.9431  -15.7845  -17.1930 C   0  0  0  0  0  0  0  0  0  0  0  0
   29.5355  -15.4653  -18.3897 C   0  0  0  0  0  0  0  0  0  0  0  0
   30.2435  -16.4382  -19.0555 C   0  0  0  0  0  0  0  0  0  0  0  0
   30.3582  -17.7046  -18.5379 C   0  0  0  0  0  0  0  0  0  0  0  0
   29.7694  -18.0402  -17.3373 C   0  0  0  0  0  0  0  0  0  0  0  0
   29.0542  -17.0512  -16.6661 C   0  0  0  0  0  0  0  0  0  0  0  0
   27.0183  -20.2614  -14.0975 C   0  0  0  0  0  0  0  0  0  0  0  0
   27.9834  -20.9041  -13.6402 O   0  0  0  0  0  0  0  0  0  0  0  0
   25.7147  -20.5423  -13.6258 N   0  0  0  0  0  0  0  0  0  0  0  0
   25.3875  -21.7638  -12.8552 C   0  0  1  0  0  0  0  0  0  0  0  0
   26.3471  -21.8232  -11.7494 C   0  0  0  0  0  0  0  0  0  0  0  0
   26.1411  -21.0277  -10.5516 C   0  0  0  0  0  0  0  0  0  0  0  0
   25.0486  -20.3233  -10.1060 C   0  0  0  0  0  0  0  0  0  0  0  0
   25.3859  -19.7655   -8.9367 N   0  0  0  0  0  0  0  0  0  0  0  0
   26.6462  -20.0718   -8.5962 C   0  0  0  0  0  0  0  0  0  0  0  0
   27.4718  -19.7840   -7.5161 C   0  0  0  0  0  0  0  0  0  0  0  0
   28.7583  -20.2596   -7.4107 C   0  0  0  0  0  0  0  0  0  0  0  0
   29.2556  -21.0590   -8.4222 C   0  0  0  0  0  0  0  0  0  0  0  0
   28.4416  -21.3471   -9.4956 C   0  0  0  0  0  0  0  0  0  0  0  0
   27.1356  -20.8611   -9.5960 C   0  0  0  0  0  0  0  0  0  0  0  0
   23.9684  -21.8854  -12.6037 C   0  0  0  0  0  0  0  0  0  0  0  0
   23.2688  -20.8207  -12.7542 O   0  0  0  0  0  0  0  0  0  0  0  0
   21.1550  -19.1432   -9.6611 C   0  0  0  0  0  0  0  0  0  0  0  0
   19.6383  -19.9665  -10.1821 S   0  0  0  0  0  0  0  0  0  0  0  0
   20.0128  -21.4979  -11.1427 C   0  0  0  0  0  0  0  0  0  0  0  0
   21.5007  -21.6509  -11.2833 C   0  0  0  0  0  0  0  0  0  0  0  0
   21.7954  -22.9350  -12.0471 C   0  0  2  0  0  0  0  0  0  0  0  0
   23.2666  -23.0318  -12.2221 N   0  0  0  0  0  0  0  0  0  0  0  0
   21.2107  -22.8674  -13.3884 C   0  0  0  0  0  0  0  0  0  0  0  0
   22.0163  -22.9008  -14.5457 O   0  0  0  0  0  0  0  0  0  0  0  0
   19.9827  -22.7745  -13.6171 O   0  0  0  0  0  0  0  0  0  0  0  0
  2  1  1  1
  3  2  1  0
  4  5  2  0
  4  3  1  0
  6  5  1  0
  7 12  2  0
  7  6  1  0
  8  7  1  0
  9 10  1  0
  9  8  2  0
 10 11  2  0
 11 12  1  0
 12  4  1  0
 13  2  1  0
 14 13  2  0
 15 13  1  0
 16 17  1  1
 16 15  1  0
 18 17  1  0
 19 18  2  0
 20 21  1  0
 20 19  1  0
 21 26  2  0
 22 23  2  0
 22 21  1  0
 23 24  1  0
 24 25  2  0
 26 25  1  0
 26 18  1  0
 27 16  1  0
 28 27  2  0
 30 31  1  0
 30 29  1  0
 33 32  1  1
 32 31  1  0
 33 34  1  0
 34 27  1  0
 35 36  1  0
 35 33  1  0
 37 35  2  0
M  END
$$$$
