WWM.pdb
     RDKit          3D

 37 40  0  0  1  0  0  0  0  0999 V2000
   27.5557  -20.0261  -15.3504 N   0  0  0  0  0  0  0  0  0  0  0  0
   26.9129  -21.3117  -15.3193 C   0  0  1  0  0  0  0  0  0  0  0  0
   27.7401  -22.4372  -15.8731 C   0  0  0  0  0  0  0  0  0  0  0  0
   28.1951  -22.0869  -17.2303 C   0  0  0  0  0  0  0  0  0  0  0  0
   29.4844  -22.1145  -17.7105 C   0  0  0  0  0  0  0  0  0  0  0  0
   29.4753  -21.7596  -19.0029 N   0  0  0  0  0  0  0  0  0  0  0  0
   28.2065  -21.5047  -19.3596 C   0  0  0  0  0  0  0  0  0  0  0  0
   27.6946  -21.1014  -20.5680 C   0  0  0  0  0  0  0  0  0  0  0  0
   26.3393  -20.8939  -20.6741 C   0  0  0  0  0  0  0  0  0  0  0  0
   25.5110  -21.0847  -19.5959 C   0  0  0  0  0  0  0  0  0  0  0  0
   26.0100  -21.4898  -18.3763 C   0  0  0  0  0  0  0  0  0  0  0  0
   27.3832  -21.6998  -18.2740 C   0  0  0  0  0  0  0  0  0  0  0  0
   26.5035  -21.6713  -13.9096 C   0  0  0  0  0  0  0  0  0  0  0  0
   26.3486  -22.8745  -13.6231 O   0  0  0  0  0  0  0  0  0  0  0  0
   26.2936  -20.6905  -12.9123 N   0  0  0  0  0  0  0  0  0  0  0  0
   25.3467  -20.8794  -11.7895 C   0  0  1  0  0  0  0  0  0  0  0  0
   25.9166  -20.1643  -10.6445 C   0  0  0  0  0  0  0  0  0  0  0  0
   27.1306  -20.6433  -10.0069 C   0  0  0  0  0  0  0  0  0  0  0  0
   28.1683  -21.4057  -10.4865 C   0  0  0  0  0  0  0  0  0  0  0  0
   29.0427  -21.5614   -9.4847 N   0  0  0  0  0  0  0  0  0  0  0  0
   28.6266  -20.9369   -8.3734 C   0  0  0  0  0  0  0  0  0  0  0  0
   29.1351  -20.7654   -7.0916 C   0  0  0  0  0  0  0  0  0  0  0  0
   28.4867  -20.0372   -6.1211 C   0  0  0  0  0  0  0  0  0  0  0  0
   27.2752  -19.4491   -6.4307 C   0  0  0  0  0  0  0  0  0  0  0  0
   26.7662  -19.6163   -7.6999 C   0  0  0  0  0  0  0  0  0  0  0  0
   27.4303  -20.3568   -8.6809 C   0  0  0  0  0  0  0  0  0  0  0  0
   23.9754  -20.6519  -12.1893 C   0  0  0  0  0  0  0  0  0  0  0  0
   23.7306  -19.5410  -12.7822 O   0  0  0  0  0  0  0  0  0  0  0  0
   16.8070  -22.9571  -14.4388 C   0  0  0  0  0  0  0  0  0  0  0  0
   18.4937  -23.3836  -13.9667 S   0  0  0  0  0  0  0  0  0  0  0  0
   19.4075  -21.8979  -13.3617 C   0  0  0  0  0  0  0  0  0  0  0  0
   20.8326  -22.2708  -13.0668 C   0  0  0  0  0  0  0  0  0  0  0  0
   21.5509  -21.0590  -12.4884 C   0  0  2  0  0  0  0  0  0  0  0  0
   22.8840  -21.5061  -12.0116 N   0  0  0  0  0  0  0  0  0  0  0  0
   20.8268  -20.5567  -11.3184 C   0  0  0  0  0  0  0  0  0  0  0  0
   19.7371  -19.6709  -11.4507 O   0  0  0  0  0  0  0  0  0  0  0  0
   21.1050  -20.8590  -10.1351 O   0  0  0  0  0  0  0  0  0  0  0  0
  2  1  1  1
  3  2  1  0
  4  5  2  0
  4  3  1  0
  6  5  1  0
  7 12  2  0
  7  6  1  0
  8  7  1  0
  9 10  1  0
  9  8  2  0
 10 11  2  0
 11 12  1  0
 12  4  1  0
 13  2  1  0
 14 13  2  0
 15 13  1  0
 16 17  1  1
 16 15  1  0
 18 17  1  0
 19 18  2  0
 20 21  1  0
 20 19  1  0
 21 26  2  0
 22 23  2  0
 22 21  1  0
 23 24  1  0
 24 25  2  0
 26 25  1  0
 26 18  1  0
 27 16  1  0
 28 27  2  0
 30 31  1  0
 30 29  1  0
 33 32  1  1
 32 31  1  0
 33 34  1  0
 34 27  1  0
 35 36  1  0
 35 33  1  0
 37 35  2  0
M  END
$$$$
