WWM.pdb
     RDKit          3D

 37 40  0  0  1  0  0  0  0  0999 V2000
   26.0531  -19.4038  -16.4206 N   0  0  0  0  0  0  0  0  0  0  0  0
   25.3247  -19.1780  -15.2019 C   0  0  1  0  0  0  0  0  0  0  0  0
   23.8360  -19.3411  -15.3246 C   0  0  0  0  0  0  0  0  0  0  0  0
   23.2866  -18.2281  -16.1191 C   0  0  0  0  0  0  0  0  0  0  0  0
   23.8880  -17.5800  -17.1736 C   0  0  0  0  0  0  0  0  0  0  0  0
   23.0480  -16.6503  -17.6494 N   0  0  0  0  0  0  0  0  0  0  0  0
   21.9214  -16.6896  -16.9206 C   0  0  0  0  0  0  0  0  0  0  0  0
   20.7815  -15.9307  -17.0182 C   0  0  0  0  0  0  0  0  0  0  0  0
   19.7567  -16.1625  -16.1309 C   0  0  0  0  0  0  0  0  0  0  0  0
   19.8669  -17.1321  -15.1652 C   0  0  0  0  0  0  0  0  0  0  0  0
   21.0050  -17.9024  -15.0548 C   0  0  0  0  0  0  0  0  0  0  0  0
   22.0398  -17.6647  -15.9563 C   0  0  0  0  0  0  0  0  0  0  0  0
   25.8152  -20.0971  -14.1071 C   0  0  0  0  0  0  0  0  0  0  0  0
   25.9036  -21.3168  -14.3486 O   0  0  0  0  0  0  0  0  0  0  0  0
   26.1756  -19.6180  -12.8260 N   0  0  0  0  0  0  0  0  0  0  0  0
   26.5112  -20.5184  -11.6992 C   0  0  1  0  0  0  0  0  0  0  0  0
   27.3930  -19.7566  -10.8109 C   0  0  0  0  0  0  0  0  0  0  0  0
   28.1633  -20.4319   -9.7812 C   0  0  0  0  0  0  0  0  0  0  0  0
   28.9972  -21.5226   -9.8392 C   0  0  0  0  0  0  0  0  0  0  0  0
   29.4599  -21.7350   -8.6010 N   0  0  0  0  0  0  0  0  0  0  0  0
   28.9689  -20.8352   -7.7364 C   0  0  0  0  0  0  0  0  0  0  0  0
   29.1251  -20.5884   -6.3779 C   0  0  0  0  0  0  0  0  0  0  0  0
   28.4959  -19.5512   -5.7291 C   0  0  0  0  0  0  0  0  0  0  0  0
   27.6705  -18.7159   -6.4573 C   0  0  0  0  0  0  0  0  0  0  0  0
   27.5117  -18.9562   -7.8045 C   0  0  0  0  0  0  0  0  0  0  0  0
   28.1543  -20.0112   -8.4572 C   0  0  0  0  0  0  0  0  0  0  0  0
   25.3441  -21.1924  -11.1743 C   0  0  0  0  0  0  0  0  0  0  0  0
   25.5511  -22.0512  -10.2441 O   0  0  0  0  0  0  0  0  0  0  0  0
   21.0472  -22.5950   -5.7694 C   0  0  0  0  0  0  0  0  0  0  0  0
   21.9727  -21.4693   -6.8305 S   0  0  0  0  0  0  0  0  0  0  0  0
   21.9814  -22.0641   -8.5782 C   0  0  0  0  0  0  0  0  0  0  0  0
   23.0299  -21.3208   -9.3561 C   0  0  0  0  0  0  0  0  0  0  0  0
   22.9572  -21.7477  -10.8161 C   0  0  2  0  0  0  0  0  0  0  0  0
   24.0125  -21.0119  -11.5574 N   0  0  0  0  0  0  0  0  0  0  0  0
   21.6725  -21.3460  -11.3938 C   0  0  0  0  0  0  0  0  0  0  0  0
   20.5517  -22.2019  -11.3643 O   0  0  0  0  0  0  0  0  0  0  0  0
   21.4646  -20.2427  -11.9491 O   0  0  0  0  0  0  0  0  0  0  0  0
  2  1  1  6
  3  2  1  0
  4  5  2  0
  4  3  1  0
  6  5  1  0
  7 12  2  0
  7  6  1  0
  8  7  1  0
  9 10  1  0
  9  8  2  0
 10 11  2  0
 11 12  1  0
 12  4  1  0
 13  2  1  0
 14 13  2  0
 15 13  1  0
 16 17  1  1
 16 15  1  0
 18 17  1  0
 19 18  2  0
 20 21  1  0
 20 19  1  0
 21 26  2  0
 22 23  2  0
 22 21  1  0
 23 24  1  0
 24 25  2  0
 26 25  1  0
 26 18  1  0
 27 16  1  0
 28 27  2  0
 30 31  1  0
 30 29  1  0
 33 32  1  1
 32 31  1  0
 33 34  1  0
 34 27  1  0
 35 36  1  0
 35 33  1  0
 37 35  2  0
M  END
$$$$
