WWM.pdb
     RDKit          3D

 37 40  0  0  1  0  0  0  0  0999 V2000
   24.1328  -19.8916   -8.7759 N   0  0  0  0  0  0  0  0  0  0  0  0
   25.4738  -19.9136   -9.2939 C   0  0  1  0  0  0  0  0  0  0  0  0
   26.3136  -21.0596   -8.8048 C   0  0  0  0  0  0  0  0  0  0  0  0
   26.5581  -20.9040   -7.3598 C   0  0  0  0  0  0  0  0  0  0  0  0
   25.7567  -21.3348   -6.3275 C   0  0  0  0  0  0  0  0  0  0  0  0
   26.3469  -21.0325   -5.1628 N   0  0  0  0  0  0  0  0  0  0  0  0
   27.5096  -20.4163   -5.4285 C   0  0  0  0  0  0  0  0  0  0  0  0
   28.4566  -19.9132   -4.5713 C   0  0  0  0  0  0  0  0  0  0  0  0
   29.5719  -19.3084   -5.1019 C   0  0  0  0  0  0  0  0  0  0  0  0
   29.7390  -19.2073   -6.4609 C   0  0  0  0  0  0  0  0  0  0  0  0
   28.7971  -19.7079   -7.3343 C   0  0  0  0  0  0  0  0  0  0  0  0
   27.6697  -20.3205   -6.7922 C   0  0  0  0  0  0  0  0  0  0  0  0
   25.4633  -19.9425  -10.8049 C   0  0  0  0  0  0  0  0  0  0  0  0
   24.5042  -20.4895  -11.3834 O   0  0  0  0  0  0  0  0  0  0  0  0
   26.5014  -19.3705  -11.5769 N   0  0  0  0  0  0  0  0  0  0  0  0
   26.3875  -19.1538  -13.0373 C   0  0  1  0  0  0  0  0  0  0  0  0
   27.2244  -17.9920  -13.3485 C   0  0  0  0  0  0  0  0  0  0  0  0
   27.2962  -17.4779  -14.7050 C   0  0  0  0  0  0  0  0  0  0  0  0
   26.6523  -16.4273  -15.3134 C   0  0  0  0  0  0  0  0  0  0  0  0
   27.0794  -16.3803  -16.5812 N   0  0  0  0  0  0  0  0  0  0  0  0
   27.9720  -17.3495  -16.8309 C   0  0  0  0  0  0  0  0  0  0  0  0
   28.7206  -17.7375  -17.9354 C   0  0  0  0  0  0  0  0  0  0  0  0
   29.6031  -18.7924  -17.9075 C   0  0  0  0  0  0  0  0  0  0  0  0
   29.7542  -19.5005  -16.7305 C   0  0  0  0  0  0  0  0  0  0  0  0
   29.0142  -19.1204  -15.6325 C   0  0  0  0  0  0  0  0  0  0  0  0
   28.1200  -18.0476  -15.6678 C   0  0  0  0  0  0  0  0  0  0  0  0
   26.5321  -20.3844  -13.7835 C   0  0  0  0  0  0  0  0  0  0  0  0
   27.1617  -21.3363  -13.1978 O   0  0  0  0  0  0  0  0  0  0  0  0
   22.3282  -24.9055  -14.3113 C   0  0  0  0  0  0  0  0  0  0  0  0
   24.0655  -25.3204  -14.0679 S   0  0  0  0  0  0  0  0  0  0  0  0
   25.1489  -24.3014  -15.1617 C   0  0  0  0  0  0  0  0  0  0  0  0
   25.2448  -22.9059  -14.6138 C   0  0  0  0  0  0  0  0  0  0  0  0
   26.1015  -22.0650  -15.5509 C   0  0  2  0  0  0  0  0  0  0  0  0
   26.0586  -20.6614  -15.0686 N   0  0  0  0  0  0  0  0  0  0  0  0
   25.5261  -22.0699  -16.8979 C   0  0  0  0  0  0  0  0  0  0  0  0
   25.9822  -22.9623  -17.8905 O   0  0  0  0  0  0  0  0  0  0  0  0
   24.6091  -21.3043  -17.2746 O   0  0  0  0  0  0  0  0  0  0  0  0
  2  1  1  1
  3  2  1  0
  4  5  2  0
  4  3  1  0
  6  5  1  0
  7 12  2  0
  7  6  1  0
  8  7  1  0
  9 10  1  0
  9  8  2  0
 10 11  2  0
 11 12  1  0
 12  4  1  0
 13  2  1  0
 14 13  2  0
 15 13  1  0
 16 17  1  6
 16 15  1  0
 18 17  1  0
 19 18  2  0
 20 21  1  0
 20 19  1  0
 21 26  2  0
 22 23  2  0
 22 21  1  0
 23 24  1  0
 24 25  2  0
 26 25  1  0
 26 18  1  0
 27 16  1  0
 28 27  2  0
 30 31  1  0
 30 29  1  0
 33 32  1  1
 32 31  1  0
 33 34  1  0
 34 27  1  0
 35 36  1  0
 35 33  1  0
 37 35  2  0
M  END
$$$$
