WWM.pdb
     RDKit          3D

 37 40  0  0  1  0  0  0  0  0999 V2000
   24.4794  -21.2190  -14.8189 N   0  0  0  0  0  0  0  0  0  0  0  0
   23.3212  -22.0668  -14.7361 C   0  0  1  0  0  0  0  0  0  0  0  0
   23.6179  -23.4968  -14.3829 C   0  0  0  0  0  0  0  0  0  0  0  0
   24.5196  -24.0731  -15.3961 C   0  0  0  0  0  0  0  0  0  0  0  0
   25.8292  -24.4589  -15.2238 C   0  0  0  0  0  0  0  0  0  0  0  0
   26.2887  -24.9665  -16.3760 N   0  0  0  0  0  0  0  0  0  0  0  0
   25.3001  -24.9128  -17.2826 C   0  0  0  0  0  0  0  0  0  0  0  0
   25.2890  -25.3032  -18.5987 C   0  0  0  0  0  0  0  0  0  0  0  0
   24.1365  -25.1292  -19.3286 C   0  0  0  0  0  0  0  0  0  0  0  0
   23.0173  -24.5765  -18.7569 C   0  0  0  0  0  0  0  0  0  0  0  0
   23.0130  -24.1801  -17.4365 C   0  0  0  0  0  0  0  0  0  0  0  0
   24.1822  -24.3592  -16.7010 C   0  0  0  0  0  0  0  0  0  0  0  0
   22.3315  -21.5241  -13.7311 C   0  0  0  0  0  0  0  0  0  0  0  0
   22.7553  -21.1510  -12.6198 O   0  0  0  0  0  0  0  0  0  0  0  0
   20.9487  -21.4264  -14.0122 N   0  0  0  0  0  0  0  0  0  0  0  0
   19.9643  -20.9244  -13.0263 C   0  0  1  0  0  0  0  0  0  0  0  0
   19.3238  -19.7582  -13.6400 C   0  0  0  0  0  0  0  0  0  0  0  0
   19.9032  -18.4349  -13.4888 C   0  0  0  0  0  0  0  0  0  0  0  0
   19.9518  -17.5822  -12.4122 C   0  0  0  0  0  0  0  0  0  0  0  0
   20.6073  -16.4832  -12.8054 N   0  0  0  0  0  0  0  0  0  0  0  0
   20.9900  -16.5765  -14.0872 C   0  0  0  0  0  0  0  0  0  0  0  0
   21.6913  -15.7610  -14.9670 C   0  0  0  0  0  0  0  0  0  0  0  0
   21.9683  -16.1247  -16.2645 C   0  0  0  0  0  0  0  0  0  0  0  0
   21.5308  -17.3549  -16.7169 C   0  0  0  0  0  0  0  0  0  0  0  0
   20.8347  -18.1673  -15.8490 C   0  0  0  0  0  0  0  0  0  0  0  0
   20.5572  -17.7917  -14.5323 C   0  0  0  0  0  0  0  0  0  0  0  0
   19.1649  -21.9904  -12.4636 C   0  0  0  0  0  0  0  0  0  0  0  0
   18.8355  -22.9390  -13.2618 O   0  0  0  0  0  0  0  0  0  0  0  0
   16.7957  -26.8856   -6.8405 C   0  0  0  0  0  0  0  0  0  0  0  0
   17.7891  -25.4607   -7.3229 S   0  0  0  0  0  0  0  0  0  0  0  0
   17.3355  -24.8803   -9.0158 C   0  0  0  0  0  0  0  0  0  0  0  0
   18.1551  -23.6717   -9.3683 C   0  0  0  0  0  0  0  0  0  0  0  0
   17.8415  -23.2629  -10.8014 C   0  0  2  0  0  0  0  0  0  0  0  0
   18.7142  -22.1123  -11.1467 N   0  0  0  0  0  0  0  0  0  0  0  0
   16.4579  -22.7918  -10.8981 C   0  0  0  0  0  0  0  0  0  0  0  0
   15.4586  -23.5651  -11.5250 O   0  0  0  0  0  0  0  0  0  0  0  0
   16.0549  -21.6944  -10.4487 O   0  0  0  0  0  0  0  0  0  0  0  0
  2  1  1  1
  3  2  1  0
  4  5  2  0
  4  3  1  0
  6  5  1  0
  7 12  2  0
  7  6  1  0
  8  7  1  0
  9 10  1  0
  9  8  2  0
 10 11  2  0
 11 12  1  0
 12  4  1  0
 13  2  1  0
 14 13  2  0
 15 13  1  0
 16 17  1  6
 16 15  1  0
 18 17  1  0
 19 18  2  0
 20 21  1  0
 20 19  1  0
 21 26  2  0
 22 23  2  0
 22 21  1  0
 23 24  1  0
 24 25  2  0
 26 25  1  0
 26 18  1  0
 27 16  1  0
 28 27  2  0
 30 31  1  0
 30 29  1  0
 33 32  1  1
 32 31  1  0
 33 34  1  0
 34 27  1  0
 35 36  1  0
 35 33  1  0
 37 35  2  0
M  END
$$$$
