WWM.pdb
     RDKit          3D

 37 40  0  0  1  0  0  0  0  0999 V2000
   25.4390  -18.9906  -17.0218 N   0  0  0  0  0  0  0  0  0  0  0  0
   24.3990  -18.7695  -16.0540 C   0  0  1  0  0  0  0  0  0  0  0  0
   23.0041  -18.8467  -16.6074 C   0  0  0  0  0  0  0  0  0  0  0  0
   22.7931  -17.7389  -17.5560 C   0  0  0  0  0  0  0  0  0  0  0  0
   23.0489  -17.7388  -18.9081 C   0  0  0  0  0  0  0  0  0  0  0  0
   22.6888  -16.5533  -19.4193 N   0  0  0  0  0  0  0  0  0  0  0  0
   22.2082  -15.7943  -18.4218 C   0  0  0  0  0  0  0  0  0  0  0  0
   21.7271  -14.5087  -18.4456 C   0  0  0  0  0  0  0  0  0  0  0  0
   21.2980  -13.9430  -17.2679 C   0  0  0  0  0  0  0  0  0  0  0  0
   21.3481  -14.6458  -16.0895 C   0  0  0  0  0  0  0  0  0  0  0  0
   21.8283  -15.9376  -16.0497 C   0  0  0  0  0  0  0  0  0  0  0  0
   22.2607  -16.5066  -17.2452 C   0  0  0  0  0  0  0  0  0  0  0  0
   24.5127  -19.7530  -14.9121 C   0  0  0  0  0  0  0  0  0  0  0  0
   24.6785  -20.9592  -15.1793 O   0  0  0  0  0  0  0  0  0  0  0  0
   24.4386  -19.3485  -13.5588 N   0  0  0  0  0  0  0  0  0  0  0  0
   24.6025  -20.2931  -12.4301 C   0  0  1  0  0  0  0  0  0  0  0  0
   25.4107  -19.5981  -11.4247 C   0  0  0  0  0  0  0  0  0  0  0  0
   26.4630  -20.3007  -10.7114 C   0  0  0  0  0  0  0  0  0  0  0  0
   27.1640  -21.4416  -11.0199 C   0  0  0  0  0  0  0  0  0  0  0  0
   28.0278  -21.6594  -10.0205 N   0  0  0  0  0  0  0  0  0  0  0  0
   27.9254  -20.7154   -9.0736 C   0  0  0  0  0  0  0  0  0  0  0  0
   28.5698  -20.4539   -7.8706 C   0  0  0  0  0  0  0  0  0  0  0  0
   28.2682  -19.3683   -7.0813 C   0  0  0  0  0  0  0  0  0  0  0  0
   27.2806  -18.4971   -7.4998 C   0  0  0  0  0  0  0  0  0  0  0  0
   26.6382  -18.7518   -8.6916 C   0  0  0  0  0  0  0  0  0  0  0  0
   26.9499  -19.8561   -9.4885 C   0  0  0  0  0  0  0  0  0  0  0  0
   23.3539  -20.9233  -12.0615 C   0  0  0  0  0  0  0  0  0  0  0  0
   22.3391  -20.1488  -11.9356 O   0  0  0  0  0  0  0  0  0  0  0  0
   18.9363  -23.7418   -6.7948 C   0  0  0  0  0  0  0  0  0  0  0  0
   20.5375  -23.2540   -7.4640 S   0  0  0  0  0  0  0  0  0  0  0  0
   20.4771  -23.1356   -9.3054 C   0  0  0  0  0  0  0  0  0  0  0  0
   21.8184  -22.7017   -9.8247 C   0  0  0  0  0  0  0  0  0  0  0  0
   21.7811  -22.6979  -11.3471 C   0  0  2  0  0  0  0  0  0  0  0  0
   23.1210  -22.2819  -11.8331 N   0  0  0  0  0  0  0  0  0  0  0  0
   20.8253  -21.6956  -11.8239 C   0  0  0  0  0  0  0  0  0  0  0  0
   19.7566  -22.0436  -12.6762 O   0  0  0  0  0  0  0  0  0  0  0  0
   20.8736  -20.4797  -11.5273 O   0  0  0  0  0  0  0  0  0  0  0  0
  2  1  1  6
  3  2  1  0
  4  5  2  0
  4  3  1  0
  6  5  1  0
  7 12  2  0
  7  6  1  0
  8  7  1  0
  9 10  1  0
  9  8  2  0
 10 11  2  0
 11 12  1  0
 12  4  1  0
 13  2  1  0
 14 13  2  0
 15 13  1  0
 16 17  1  1
 16 15  1  0
 18 17  1  0
 19 18  2  0
 20 21  1  0
 20 19  1  0
 21 26  2  0
 22 23  2  0
 22 21  1  0
 23 24  1  0
 24 25  2  0
 26 25  1  0
 26 18  1  0
 27 16  1  0
 28 27  2  0
 30 31  1  0
 30 29  1  0
 33 32  1  1
 32 31  1  0
 33 34  1  0
 34 27  1  0
 35 36  1  0
 35 33  1  0
 37 35  2  0
M  END
$$$$
