WWM.pdb
     RDKit          3D

 37 40  0  0  1  0  0  0  0  0999 V2000
   26.0923  -18.7095  -10.3081 N   0  0  0  0  0  0  0  0  0  0  0  0
   26.1218  -20.0838  -10.7295 C   0  0  1  0  0  0  0  0  0  0  0  0
   26.1056  -21.0820   -9.6065 C   0  0  0  0  0  0  0  0  0  0  0  0
   26.8318  -20.5278   -8.4501 C   0  0  0  0  0  0  0  0  0  0  0  0
   26.2922  -19.9160   -7.3420 C   0  0  0  0  0  0  0  0  0  0  0  0
   27.2826  -19.5846   -6.5020 N   0  0  0  0  0  0  0  0  0  0  0  0
   28.4454  -19.9713   -7.0502 C   0  0  0  0  0  0  0  0  0  0  0  0
   29.7282  -19.8435   -6.5780 C   0  0  0  0  0  0  0  0  0  0  0  0
   30.7646  -20.3186   -7.3470 C   0  0  0  0  0  0  0  0  0  0  0  0
   30.5260  -20.9092   -8.5633 C   0  0  0  0  0  0  0  0  0  0  0  0
   29.2435  -21.0449   -9.0507 C   0  0  0  0  0  0  0  0  0  0  0  0
   28.1971  -20.5633   -8.2677 C   0  0  0  0  0  0  0  0  0  0  0  0
   24.9627  -20.3859  -11.6511 C   0  0  0  0  0  0  0  0  0  0  0  0
   23.8293  -20.5335  -11.1537 O   0  0  0  0  0  0  0  0  0  0  0  0
   25.1240  -20.5040  -13.0514 N   0  0  0  0  0  0  0  0  0  0  0  0
   23.9844  -20.4579  -13.9958 C   0  0  1  0  0  0  0  0  0  0  0  0
   24.3620  -19.5154  -15.0523 C   0  0  0  0  0  0  0  0  0  0  0  0
   23.3995  -19.1204  -16.0658 C   0  0  0  0  0  0  0  0  0  0  0  0
   22.1937  -18.4687  -15.9682 C   0  0  0  0  0  0  0  0  0  0  0  0
   21.7052  -18.3495  -17.2090 N   0  0  0  0  0  0  0  0  0  0  0  0
   22.5340  -18.8916  -18.1131 C   0  0  0  0  0  0  0  0  0  0  0  0
   22.5296  -19.0268  -19.4961 C   0  0  0  0  0  0  0  0  0  0  0  0
   23.5517  -19.6302  -20.1917 C   0  0  0  0  0  0  0  0  0  0  0  0
   24.6322  -20.1256  -19.4872 C   0  0  0  0  0  0  0  0  0  0  0  0
   24.6416  -19.9946  -18.1158 C   0  0  0  0  0  0  0  0  0  0  0  0
   23.6004  -19.3802  -17.4158 C   0  0  0  0  0  0  0  0  0  0  0  0
   23.4992  -21.7791  -14.3290 C   0  0  0  0  0  0  0  0  0  0  0  0
   24.3758  -22.7145  -14.3734 O   0  0  0  0  0  0  0  0  0  0  0  0
   19.9204  -25.7392  -11.5472 C   0  0  0  0  0  0  0  0  0  0  0  0
   19.4884  -26.3377  -13.1919 S   0  0  0  0  0  0  0  0  0  0  0  0
   20.5262  -25.5263  -14.4853 C   0  0  0  0  0  0  0  0  0  0  0  0
   20.8895  -24.1384  -14.0396 C   0  0  0  0  0  0  0  0  0  0  0  0
   21.9200  -23.5641  -15.0025 C   0  0  2  0  0  0  0  0  0  0  0  0
   22.1824  -22.1587  -14.6016 N   0  0  0  0  0  0  0  0  0  0  0  0
   21.3717  -23.5241  -16.3602 C   0  0  0  0  0  0  0  0  0  0  0  0
   20.3932  -22.5785  -16.7319 O   0  0  0  0  0  0  0  0  0  0  0  0
   21.7117  -24.3033  -17.2800 O   0  0  0  0  0  0  0  0  0  0  0  0
  2  1  1  1
  3  2  1  0
  4  5  2  0
  4  3  1  0
  6  5  1  0
  7 12  2  0
  7  6  1  0
  8  7  1  0
  9 10  1  0
  9  8  2  0
 10 11  2  0
 11 12  1  0
 12  4  1  0
 13  2  1  0
 14 13  2  0
 15 13  1  0
 16 17  1  6
 16 15  1  0
 18 17  1  0
 19 18  2  0
 20 21  1  0
 20 19  1  0
 21 26  2  0
 22 23  2  0
 22 21  1  0
 23 24  1  0
 24 25  2  0
 26 25  1  0
 26 18  1  0
 27 16  1  0
 28 27  2  0
 30 31  1  0
 30 29  1  0
 33 32  1  1
 32 31  1  0
 33 34  1  0
 34 27  1  0
 35 36  1  0
 35 33  1  0
 37 35  2  0
M  END
$$$$
