WWM.pdb
     RDKit          3D

 37 40  0  0  1  0  0  0  0  0999 V2000
   25.2699  -16.4723  -16.9880 N   0  0  0  0  0  0  0  0  0  0  0  0
   25.9406  -17.5166  -16.2624 C   0  0  1  0  0  0  0  0  0  0  0  0
   27.4106  -17.2868  -16.0528 C   0  0  0  0  0  0  0  0  0  0  0  0
   28.1166  -17.4384  -17.3375 C   0  0  0  0  0  0  0  0  0  0  0  0
   28.7064  -16.4464  -18.0868 C   0  0  0  0  0  0  0  0  0  0  0  0
   29.2736  -16.9972  -19.1691 N   0  0  0  0  0  0  0  0  0  0  0  0
   29.0582  -18.3216  -19.1281 C   0  0  0  0  0  0  0  0  0  0  0  0
   29.4339  -19.3035  -20.0111 C   0  0  0  0  0  0  0  0  0  0  0  0
   29.0748  -20.6038  -19.7436 C   0  0  0  0  0  0  0  0  0  0  0  0
   28.3550  -20.9183  -18.6177 C   0  0  0  0  0  0  0  0  0  0  0  0
   27.9708  -19.9435  -17.7216 C   0  0  0  0  0  0  0  0  0  0  0  0
   28.3377  -18.6282  -17.9962 C   0  0  0  0  0  0  0  0  0  0  0  0
   25.2953  -17.7298  -14.9125 C   0  0  0  0  0  0  0  0  0  0  0  0
   25.1533  -16.7474  -14.1585 O   0  0  0  0  0  0  0  0  0  0  0  0
   24.8496  -19.0015  -14.4825 N   0  0  0  0  0  0  0  0  0  0  0  0
   24.2724  -19.2360  -13.1391 C   0  0  1  0  0  0  0  0  0  0  0  0
   22.8515  -19.5281  -13.3460 C   0  0  0  0  0  0  0  0  0  0  0  0
   21.9827  -19.7995  -12.2140 C   0  0  0  0  0  0  0  0  0  0  0  0
   21.5193  -18.9849  -11.2090 C   0  0  0  0  0  0  0  0  0  0  0  0
   20.7446  -19.7349  -10.4155 N   0  0  0  0  0  0  0  0  0  0  0  0
   20.6790  -21.0005  -10.8537 C   0  0  0  0  0  0  0  0  0  0  0  0
   20.0274  -22.1544  -10.4355 C   0  0  0  0  0  0  0  0  0  0  0  0
   20.1239  -23.3522  -11.1054 C   0  0  0  0  0  0  0  0  0  0  0  0
   20.9030  -23.4146  -12.2449 C   0  0  0  0  0  0  0  0  0  0  0  0
   21.5516  -22.2736  -12.6637 C   0  0  0  0  0  0  0  0  0  0  0  0
   21.4488  -21.0603  -11.9788 C   0  0  0  0  0  0  0  0  0  0  0  0
   25.0945  -20.1169  -12.3392 C   0  0  0  0  0  0  0  0  0  0  0  0
   25.4908  -21.1979  -12.9050 O   0  0  0  0  0  0  0  0  0  0  0  0
   26.9450  -18.3873   -5.6018 C   0  0  0  0  0  0  0  0  0  0  0  0
   27.7972  -18.9681   -7.0804 S   0  0  0  0  0  0  0  0  0  0  0  0
   26.6233  -19.8003   -8.2371 C   0  0  0  0  0  0  0  0  0  0  0  0
   27.3604  -20.2393   -9.4703 C   0  0  0  0  0  0  0  0  0  0  0  0
   26.3876  -20.9531  -10.3995 C   0  0  2  0  0  0  0  0  0  0  0  0
   25.5154  -19.9246  -11.0208 N   0  0  0  0  0  0  0  0  0  0  0  0
   25.5152  -21.8411   -9.6276 C   0  0  0  0  0  0  0  0  0  0  0  0
   25.9663  -23.0931   -9.1602 O   0  0  0  0  0  0  0  0  0  0  0  0
   24.3288  -21.5751   -9.3266 O   0  0  0  0  0  0  0  0  0  0  0  0
  2  1  1  1
  3  2  1  0
  4  5  2  0
  4  3  1  0
  6  5  1  0
  7 12  2  0
  7  6  1  0
  8  7  1  0
  9 10  1  0
  9  8  2  0
 10 11  2  0
 11 12  1  0
 12  4  1  0
 13  2  1  0
 14 13  2  0
 15 13  1  0
 16 17  1  6
 16 15  1  0
 18 17  1  0
 19 18  2  0
 20 21  1  0
 20 19  1  0
 21 26  2  0
 22 23  2  0
 22 21  1  0
 23 24  1  0
 24 25  2  0
 26 25  1  0
 26 18  1  0
 27 16  1  0
 28 27  2  0
 30 31  1  0
 30 29  1  0
 33 32  1  1
 32 31  1  0
 33 34  1  0
 34 27  1  0
 35 36  1  0
 35 33  1  0
 37 35  2  0
M  END
$$$$
