WWM.pdb
     RDKit          3D

 37 40  0  0  1  0  0  0  0  0999 V2000
   17.1091  -21.5628  -12.1074 N   0  0  0  0  0  0  0  0  0  0  0  0
   18.2720  -22.0683  -11.4298 C   0  0  1  0  0  0  0  0  0  0  0  0
   18.9600  -21.0709  -10.5412 C   0  0  0  0  0  0  0  0  0  0  0  0
   19.4325  -19.9364  -11.3545 C   0  0  0  0  0  0  0  0  0  0  0  0
   19.0819  -18.6124  -11.2221 C   0  0  0  0  0  0  0  0  0  0  0  0
   19.7549  -17.8909  -12.1292 N   0  0  0  0  0  0  0  0  0  0  0  0
   20.5288  -18.7263  -12.8400 C   0  0  0  0  0  0  0  0  0  0  0  0
   21.3871  -18.4636  -13.8789 C   0  0  0  0  0  0  0  0  0  0  0  0
   22.0658  -19.5119  -14.4549 C   0  0  0  0  0  0  0  0  0  0  0  0
   21.8916  -20.7968  -14.0037 C   0  0  0  0  0  0  0  0  0  0  0  0
   21.0336  -21.0762  -12.9613 C   0  0  0  0  0  0  0  0  0  0  0  0
   20.3492  -20.0112  -12.3804 C   0  0  0  0  0  0  0  0  0  0  0  0
   17.9227  -23.2826  -10.6006 C   0  0  0  0  0  0  0  0  0  0  0  0
   16.8452  -23.2858   -9.9739 O   0  0  0  0  0  0  0  0  0  0  0  0
   18.7751  -24.4082  -10.5161 N   0  0  0  0  0  0  0  0  0  0  0  0
   18.4136  -25.6323   -9.7653 C   0  0  1  0  0  0  0  0  0  0  0  0
   19.1499  -26.7332  -10.3921 C   0  0  0  0  0  0  0  0  0  0  0  0
   19.1010  -28.0695   -9.8249 C   0  0  0  0  0  0  0  0  0  0  0  0
   18.2377  -28.6417   -8.9217 C   0  0  0  0  0  0  0  0  0  0  0  0
   18.6371  -29.9060   -8.7369 N   0  0  0  0  0  0  0  0  0  0  0  0
   19.7197  -30.1880   -9.4763 C   0  0  0  0  0  0  0  0  0  0  0  0
   20.5100  -31.3136   -9.6751 C   0  0  0  0  0  0  0  0  0  0  0  0
   21.5847  -31.3305  -10.5337 C   0  0  0  0  0  0  0  0  0  0  0  0
   21.8957  -30.1787  -11.2307 C   0  0  0  0  0  0  0  0  0  0  0  0
   21.1158  -29.0597  -11.0371 C   0  0  0  0  0  0  0  0  0  0  0  0
   20.0253  -29.0497  -10.1639 C   0  0  0  0  0  0  0  0  0  0  0  0
   18.4713  -25.4307   -8.3343 C   0  0  0  0  0  0  0  0  0  0  0  0
   19.5153  -24.8372   -7.8833 O   0  0  0  0  0  0  0  0  0  0  0  0
   14.4160  -23.2640   -3.0586 C   0  0  0  0  0  0  0  0  0  0  0  0
   15.0496  -24.9464   -2.9247 S   0  0  0  0  0  0  0  0  0  0  0  0
   16.6727  -25.1130   -3.7886 C   0  0  0  0  0  0  0  0  0  0  0  0
   16.4401  -25.4634   -5.2307 C   0  0  0  0  0  0  0  0  0  0  0  0
   17.7785  -25.4808   -5.9571 C   0  0  2  0  0  0  0  0  0  0  0  0
   17.5170  -25.8009   -7.3832 N   0  0  0  0  0  0  0  0  0  0  0  0
   18.6235  -26.5539   -5.4279 C   0  0  0  0  0  0  0  0  0  0  0  0
   19.6170  -26.2996   -4.4595 O   0  0  0  0  0  0  0  0  0  0  0  0
   18.5414  -27.7531   -5.7801 O   0  0  0  0  0  0  0  0  0  0  0  0
  2  1  1  1
  3  2  1  0
  4  5  2  0
  4  3  1  0
  6  5  1  0
  7 12  2  0
  7  6  1  0
  8  7  1  0
  9 10  1  0
  9  8  2  0
 10 11  2  0
 11 12  1  0
 12  4  1  0
 13  2  1  0
 14 13  2  0
 15 13  1  0
 16 17  1  1
 16 15  1  0
 18 17  1  0
 19 18  2  0
 20 21  1  0
 20 19  1  0
 21 26  2  0
 22 23  2  0
 22 21  1  0
 23 24  1  0
 24 25  2  0
 26 25  1  0
 26 18  1  0
 27 16  1  0
 28 27  2  0
 30 31  1  0
 30 29  1  0
 33 32  1  1
 32 31  1  0
 33 34  1  0
 34 27  1  0
 35 36  1  0
 35 33  1  0
 37 35  2  0
M  END
$$$$
