WWM.pdb
     RDKit          3D

 37 40  0  0  1  0  0  0  0  0999 V2000
   28.5806  -20.0273  -15.1884 N   0  0  0  0  0  0  0  0  0  0  0  0
   27.5910  -19.3530  -14.3928 C   0  0  1  0  0  0  0  0  0  0  0  0
   26.3365  -18.9871  -15.1344 C   0  0  0  0  0  0  0  0  0  0  0  0
   26.6597  -18.0082  -16.1875 C   0  0  0  0  0  0  0  0  0  0  0  0
   26.5249  -18.1714  -17.5472 C   0  0  0  0  0  0  0  0  0  0  0  0
   26.8924  -17.0376  -18.1603 N   0  0  0  0  0  0  0  0  0  0  0  0
   27.2603  -16.1522  -17.2207 C   0  0  0  0  0  0  0  0  0  0  0  0
   27.7188  -14.8650  -17.3539 C   0  0  0  0  0  0  0  0  0  0  0  0
   28.0445  -14.1600  -16.2189 C   0  0  0  0  0  0  0  0  0  0  0  0
   27.9156  -14.7281  -14.9756 C   0  0  0  0  0  0  0  0  0  0  0  0
   27.4562  -16.0193  -14.8258 C   0  0  0  0  0  0  0  0  0  0  0  0
   27.1265  -16.7289  -15.9782 C   0  0  0  0  0  0  0  0  0  0  0  0
   27.2079  -20.1893  -13.1937 C   0  0  0  0  0  0  0  0  0  0  0  0
   27.0922  -21.4218  -13.3396 O   0  0  0  0  0  0  0  0  0  0  0  0
   26.9794  -19.6195  -11.9193 N   0  0  0  0  0  0  0  0  0  0  0  0
   26.3799  -20.3787  -10.7981 C   0  0  1  0  0  0  0  0  0  0  0  0
   26.9833  -19.8493   -9.5723 C   0  0  0  0  0  0  0  0  0  0  0  0
   26.5370  -20.3151   -8.2709 C   0  0  0  0  0  0  0  0  0  0  0  0
   25.4557  -21.0783   -7.9012 C   0  0  0  0  0  0  0  0  0  0  0  0
   25.5068  -21.2214   -6.5711 N   0  0  0  0  0  0  0  0  0  0  0  0
   26.5699  -20.5887   -6.0535 C   0  0  0  0  0  0  0  0  0  0  0  0
   27.0963  -20.4308   -4.7772 C   0  0  0  0  0  0  0  0  0  0  0  0
   28.2486  -19.7228   -4.5259 C   0  0  0  0  0  0  0  0  0  0  0  0
   28.9150  -19.1407   -5.5873 C   0  0  0  0  0  0  0  0  0  0  0  0
   28.3973  -19.2937   -6.8548 C   0  0  0  0  0  0  0  0  0  0  0  0
   27.2267  -20.0146   -7.1029 C   0  0  0  0  0  0  0  0  0  0  0  0
   24.9430  -20.4888  -10.9214 C   0  0  0  0  0  0  0  0  0  0  0  0
   24.3185  -19.4286  -11.2837 O   0  0  0  0  0  0  0  0  0  0  0  0
   23.6245  -25.4140  -15.1036 C   0  0  0  0  0  0  0  0  0  0  0  0
   22.8774  -25.0780  -13.4978 S   0  0  0  0  0  0  0  0  0  0  0  0
   23.1940  -23.3369  -12.9718 C   0  0  0  0  0  0  0  0  0  0  0  0
   22.4639  -23.0596  -11.6884 C   0  0  0  0  0  0  0  0  0  0  0  0
   22.7720  -21.6366  -11.2422 C   0  0  2  0  0  0  0  0  0  0  0  0
   24.1537  -21.6201  -10.6989 N   0  0  0  0  0  0  0  0  0  0  0  0
   21.8795  -21.2489  -10.1473 C   0  0  0  0  0  0  0  0  0  0  0  0
   20.5350  -20.8939  -10.3835 O   0  0  0  0  0  0  0  0  0  0  0  0
   22.2226  -21.1983   -8.9438 O   0  0  0  0  0  0  0  0  0  0  0  0
  2  1  1  6
  3  2  1  0
  4  5  2  0
  4  3  1  0
  6  5  1  0
  7 12  2  0
  7  6  1  0
  8  7  1  0
  9 10  1  0
  9  8  2  0
 10 11  2  0
 11 12  1  0
 12  4  1  0
 13  2  1  0
 14 13  2  0
 15 13  1  0
 16 17  1  1
 16 15  1  0
 18 17  1  0
 19 18  2  0
 20 21  1  0
 20 19  1  0
 21 26  2  0
 22 23  2  0
 22 21  1  0
 23 24  1  0
 24 25  2  0
 26 25  1  0
 26 18  1  0
 27 16  1  0
 28 27  2  0
 30 31  1  0
 30 29  1  0
 33 32  1  1
 32 31  1  0
 33 34  1  0
 34 27  1  0
 35 36  1  0
 35 33  1  0
 37 35  2  0
M  END
$$$$
