WWM.pdb
     RDKit          3D

 37 40  0  0  1  0  0  0  0  0999 V2000
   27.6010  -17.5723  -14.2369 N   0  0  0  0  0  0  0  0  0  0  0  0
   26.4693  -18.3733  -13.8566 C   0  0  1  0  0  0  0  0  0  0  0  0
   25.3738  -18.4341  -14.8833 C   0  0  0  0  0  0  0  0  0  0  0  0
   24.6042  -17.1777  -14.8511 C   0  0  0  0  0  0  0  0  0  0  0  0
   25.0383  -15.9245  -15.2180 C   0  0  0  0  0  0  0  0  0  0  0  0
   24.0282  -15.0550  -15.0759 N   0  0  0  0  0  0  0  0  0  0  0  0
   22.9566  -15.7260  -14.6250 C   0  0  0  0  0  0  0  0  0  0  0  0
   21.6971  -15.2728  -14.3197 C   0  0  0  0  0  0  0  0  0  0  0  0
   20.7662  -16.1733  -13.8574 C   0  0  0  0  0  0  0  0  0  0  0  0
   21.0854  -17.4996  -13.7024 C   0  0  0  0  0  0  0  0  0  0  0  0
   22.3456  -17.9697  -14.0051 C   0  0  0  0  0  0  0  0  0  0  0  0
   23.2848  -17.0542  -14.4740 C   0  0  0  0  0  0  0  0  0  0  0  0
   26.8979  -19.7863  -13.5343 C   0  0  0  0  0  0  0  0  0  0  0  0
   27.7721  -20.3201  -14.2445 O   0  0  0  0  0  0  0  0  0  0  0  0
   26.3415  -20.5156  -12.4575 N   0  0  0  0  0  0  0  0  0  0  0  0
   26.6460  -21.9444  -12.2155 C   0  0  1  0  0  0  0  0  0  0  0  0
   26.5099  -22.1564  -10.7721 C   0  0  0  0  0  0  0  0  0  0  0  0
   26.5431  -21.0300   -9.8556 C   0  0  0  0  0  0  0  0  0  0  0  0
   25.5913  -20.0923   -9.5343 C   0  0  0  0  0  0  0  0  0  0  0  0
   26.1344  -19.2696   -8.6285 N   0  0  0  0  0  0  0  0  0  0  0  0
   27.3953  -19.6248   -8.3418 C   0  0  0  0  0  0  0  0  0  0  0  0
   28.3828  -19.1471   -7.4888 C   0  0  0  0  0  0  0  0  0  0  0  0
   29.6219  -19.7339   -7.3765 C   0  0  0  0  0  0  0  0  0  0  0  0
   29.9010  -20.8480   -8.1449 C   0  0  0  0  0  0  0  0  0  0  0  0
   28.9257  -21.3256   -8.9926 C   0  0  0  0  0  0  0  0  0  0  0  0
   27.6691  -20.7249   -9.1013 C   0  0  0  0  0  0  0  0  0  0  0  0
   25.9674  -22.8123  -13.1527 C   0  0  0  0  0  0  0  0  0  0  0  0
   26.0543  -24.0725  -12.9293 O   0  0  0  0  0  0  0  0  0  0  0  0
   21.1163  -26.5239  -13.5147 C   0  0  0  0  0  0  0  0  0  0  0  0
   20.9234  -25.2646  -14.7901 S   0  0  0  0  0  0  0  0  0  0  0  0
   22.5593  -24.7827  -15.4972 C   0  0  0  0  0  0  0  0  0  0  0  0
   23.2493  -23.8305  -14.5624 C   0  0  0  0  0  0  0  0  0  0  0  0
   24.6294  -23.5056  -15.1181 C   0  0  2  0  0  0  0  0  0  0  0  0
   25.2197  -22.4377  -14.2720 N   0  0  0  0  0  0  0  0  0  0  0  0
   24.5101  -22.9590  -16.4718 C   0  0  0  0  0  0  0  0  0  0  0  0
   24.1323  -23.7692  -17.5628 O   0  0  0  0  0  0  0  0  0  0  0  0
   24.7287  -21.7621  -16.7694 O   0  0  0  0  0  0  0  0  0  0  0  0
  2  1  1  6
  3  2  1  0
  4  5  2  0
  4  3  1  0
  6  5  1  0
  7 12  2  0
  7  6  1  0
  8  7  1  0
  9 10  1  0
  9  8  2  0
 10 11  2  0
 11 12  1  0
 12  4  1  0
 13  2  1  0
 14 13  2  0
 15 13  1  0
 16 17  1  1
 16 15  1  0
 18 17  1  0
 19 18  2  0
 20 21  1  0
 20 19  1  0
 21 26  2  0
 22 23  2  0
 22 21  1  0
 23 24  1  0
 24 25  2  0
 26 25  1  0
 26 18  1  0
 27 16  1  0
 28 27  2  0
 30 31  1  0
 30 29  1  0
 33 32  1  1
 32 31  1  0
 33 34  1  0
 34 27  1  0
 35 36  1  0
 35 33  1  0
 37 35  2  0
M  END
$$$$
