WWM.pdb
     RDKit          3D

 37 40  0  0  1  0  0  0  0  0999 V2000
   16.8153  -18.6153    2.4756 N   0  0  0  0  0  0  0  0  0  0  0  0
   16.9971  -19.0719    3.8267 C   0  0  1  0  0  0  0  0  0  0  0  0
   17.4865  -20.4874    3.9472 C   0  0  0  0  0  0  0  0  0  0  0  0
   16.5163  -21.3954    3.3099 C   0  0  0  0  0  0  0  0  0  0  0  0
   15.5471  -21.0673    2.3898 C   0  0  0  0  0  0  0  0  0  0  0  0
   14.8950  -22.1811    2.0283 N   0  0  0  0  0  0  0  0  0  0  0  0
   15.4267  -23.2154    2.6987 C   0  0  0  0  0  0  0  0  0  0  0  0
   15.0937  -24.5471    2.6732 C   0  0  0  0  0  0  0  0  0  0  0  0
   15.7941  -25.4176    3.4750 C   0  0  0  0  0  0  0  0  0  0  0  0
   16.8066  -24.9686    4.2862 C   0  0  0  0  0  0  0  0  0  0  0  0
   17.1529  -23.6346    4.3224 C   0  0  0  0  0  0  0  0  0  0  0  0
   16.4414  -22.7569    3.5079 C   0  0  0  0  0  0  0  0  0  0  0  0
   17.9563  -18.1721    4.5712 C   0  0  0  0  0  0  0  0  0  0  0  0
   19.0832  -17.9665    4.0796 O   0  0  0  0  0  0  0  0  0  0  0  0
   17.6157  -17.5594    5.7997 N   0  0  0  0  0  0  0  0  0  0  0  0
   18.5118  -16.6082    6.4963 C   0  0  1  0  0  0  0  0  0  0  0  0
   17.6994  -15.4295    6.8088 C   0  0  0  0  0  0  0  0  0  0  0  0
   17.7883  -14.2347    5.9878 C   0  0  0  0  0  0  0  0  0  0  0  0
   16.9614  -13.7436    5.0062 C   0  0  0  0  0  0  0  0  0  0  0  0
   17.5033  -12.6016    4.5652 N   0  0  0  0  0  0  0  0  0  0  0  0
   18.6445  -12.3224    5.2115 C   0  0  0  0  0  0  0  0  0  0  0  0
   19.5744  -11.2908    5.1662 C   0  0  0  0  0  0  0  0  0  0  0  0
   20.6809  -11.2450    5.9823 C   0  0  0  0  0  0  0  0  0  0  0  0
   20.8802  -12.2689    6.8885 C   0  0  0  0  0  0  0  0  0  0  0  0
   19.9616  -13.2944    6.9375 C   0  0  0  0  0  0  0  0  0  0  0  0
   18.8397  -13.3343    6.1059 C   0  0  0  0  0  0  0  0  0  0  0  0
   19.2967  -17.2534    7.5256 C   0  0  0  0  0  0  0  0  0  0  0  0
   18.8117  -18.3329    8.0207 O   0  0  0  0  0  0  0  0  0  0  0  0
   25.9496  -18.9249   11.4006 C   0  0  0  0  0  0  0  0  0  0  0  0
   25.1347  -18.0318   10.0635 S   0  0  0  0  0  0  0  0  0  0  0  0
   23.2984  -18.1602   10.2045 C   0  0  0  0  0  0  0  0  0  0  0  0
   22.6554  -17.4558    9.0438 C   0  0  0  0  0  0  0  0  0  0  0  0
   21.1466  -17.6460    9.1248 C   0  0  2  0  0  0  0  0  0  0  0  0
   20.5288  -16.8418    8.0403 N   0  0  0  0  0  0  0  0  0  0  0  0
   20.6402  -17.1127   10.3915 C   0  0  0  0  0  0  0  0  0  0  0  0
   20.5341  -17.9223   11.5417 O   0  0  0  0  0  0  0  0  0  0  0  0
   20.2666  -15.9288   10.5578 O   0  0  0  0  0  0  0  0  0  0  0  0
  2  1  1  6
  3  2  1  0
  4  5  2  0
  4  3  1  0
  6  5  1  0
  7 12  2  0
  7  6  1  0
  8  7  1  0
  9 10  1  0
  9  8  2  0
 10 11  2  0
 11 12  1  0
 12  4  1  0
 13  2  1  0
 14 13  2  0
 15 13  1  0
 16 17  1  1
 16 15  1  0
 18 17  1  0
 19 18  2  0
 20 21  1  0
 20 19  1  0
 21 26  2  0
 22 23  2  0
 22 21  1  0
 23 24  1  0
 24 25  2  0
 26 25  1  0
 26 18  1  0
 27 16  1  0
 28 27  2  0
 30 31  1  0
 30 29  1  0
 33 32  1  1
 32 31  1  0
 33 34  1  0
 34 27  1  0
 35 36  1  0
 35 33  1  0
 37 35  2  0
M  END
$$$$
