WWM.pdb
     RDKit          3D

 37 40  0  0  1  0  0  0  0  0999 V2000
   23.1501  -20.8454  -14.6128 N   0  0  0  0  0  0  0  0  0  0  0  0
   24.4393  -20.9507  -13.9852 C   0  0  1  0  0  0  0  0  0  0  0  0
   24.5402  -22.0275  -12.9421 C   0  0  0  0  0  0  0  0  0  0  0  0
   24.1334  -21.4811  -11.6353 C   0  0  0  0  0  0  0  0  0  0  0  0
   22.8744  -21.4974  -11.0801 C   0  0  0  0  0  0  0  0  0  0  0  0
   22.9267  -20.9324   -9.8658 N   0  0  0  0  0  0  0  0  0  0  0  0
   24.1934  -20.5541   -9.6327 C   0  0  0  0  0  0  0  0  0  0  0  0
   24.7394  -19.9284   -8.5394 C   0  0  0  0  0  0  0  0  0  0  0  0
   26.0827  -19.6338   -8.5506 C   0  0  0  0  0  0  0  0  0  0  0  0
   26.8657  -19.9566   -9.6312 C   0  0  0  0  0  0  0  0  0  0  0  0
   26.3319  -20.5853  -10.7360 C   0  0  0  0  0  0  0  0  0  0  0  0
   24.9713  -20.8826  -10.7197 C   0  0  0  0  0  0  0  0  0  0  0  0
   25.5190  -21.1849  -15.0165 C   0  0  0  0  0  0  0  0  0  0  0  0
   25.1937  -21.2332  -16.2188 O   0  0  0  0  0  0  0  0  0  0  0  0
   26.8782  -21.3486  -14.6608 N   0  0  0  0  0  0  0  0  0  0  0  0
   27.9785  -21.2830  -15.6497 C   0  0  1  0  0  0  0  0  0  0  0  0
   29.1719  -20.8609  -14.9116 C   0  0  0  0  0  0  0  0  0  0  0  0
   29.0465  -20.2039  -13.6222 C   0  0  0  0  0  0  0  0  0  0  0  0
   28.3001  -19.1214  -13.2232 C   0  0  0  0  0  0  0  0  0  0  0  0
   28.5476  -18.9263  -11.9221 N   0  0  0  0  0  0  0  0  0  0  0  0
   29.4196  -19.8296  -11.4512 C   0  0  0  0  0  0  0  0  0  0  0  0
   29.9933  -20.0916  -10.2130 C   0  0  0  0  0  0  0  0  0  0  0  0
   30.8719  -21.1286  -10.0003 C   0  0  0  0  0  0  0  0  0  0  0  0
   31.2015  -21.9480  -11.0630 C   0  0  0  0  0  0  0  0  0  0  0  0
   30.6360  -21.6925  -12.2929 C   0  0  0  0  0  0  0  0  0  0  0  0
   29.7440  -20.6378  -12.5018 C   0  0  0  0  0  0  0  0  0  0  0  0
   28.0164  -22.4518  -16.5008 C   0  0  0  0  0  0  0  0  0  0  0  0
   28.9591  -22.4948  -17.3697 O   0  0  0  0  0  0  0  0  0  0  0  0
   26.3949  -29.9620  -18.2964 C   0  0  0  0  0  0  0  0  0  0  0  0
   26.1730  -28.5739  -17.1678 S   0  0  0  0  0  0  0  0  0  0  0  0
   26.9525  -27.0419  -17.8415 C   0  0  0  0  0  0  0  0  0  0  0  0
   26.8022  -25.9242  -16.8491 C   0  0  0  0  0  0  0  0  0  0  0  0
   27.3806  -24.6496  -17.4491 C   0  0  2  0  0  0  0  0  0  0  0  0
   27.1484  -23.5467  -16.4826 N   0  0  0  0  0  0  0  0  0  0  0  0
   26.6601  -24.2996  -18.6754 C   0  0  0  0  0  0  0  0  0  0  0  0
   25.5013  -23.4959  -18.6451 O   0  0  0  0  0  0  0  0  0  0  0  0
   26.9984  -24.6738  -19.8219 O   0  0  0  0  0  0  0  0  0  0  0  0
  2  1  1  6
  3  2  1  0
  4  5  2  0
  4  3  1  0
  6  5  1  0
  7 12  2  0
  7  6  1  0
  8  7  1  0
  9 10  1  0
  9  8  2  0
 10 11  2  0
 11 12  1  0
 12  4  1  0
 13  2  1  0
 14 13  2  0
 15 13  1  0
 16 17  1  1
 16 15  1  0
 18 17  1  0
 19 18  2  0
 20 21  1  0
 20 19  1  0
 21 26  2  0
 22 23  2  0
 22 21  1  0
 23 24  1  0
 24 25  2  0
 26 25  1  0
 26 18  1  0
 27 16  1  0
 28 27  2  0
 30 31  1  0
 30 29  1  0
 33 32  1  1
 32 31  1  0
 33 34  1  0
 34 27  1  0
 35 36  1  0
 35 33  1  0
 37 35  2  0
M  END
$$$$
