WWM.pdb
     RDKit          3D

 37 40  0  0  1  0  0  0  0  0999 V2000
   26.1011  -21.8661  -12.1864 N   0  0  0  0  0  0  0  0  0  0  0  0
   25.5638  -20.8857  -11.2825 C   0  0  1  0  0  0  0  0  0  0  0  0
   26.4294  -19.6727  -11.0901 C   0  0  0  0  0  0  0  0  0  0  0  0
   27.6551  -20.0570  -10.3676 C   0  0  0  0  0  0  0  0  0  0  0  0
   28.8612  -20.4330  -10.9130 C   0  0  0  0  0  0  0  0  0  0  0  0
   29.7324  -20.6691   -9.9223 N   0  0  0  0  0  0  0  0  0  0  0  0
   29.1082  -20.4526   -8.7536 C   0  0  0  0  0  0  0  0  0  0  0  0
   29.5775  -20.5699   -7.4688 C   0  0  0  0  0  0  0  0  0  0  0  0
   28.7222  -20.2978   -6.4268 C   0  0  0  0  0  0  0  0  0  0  0  0
   27.4245  -19.9165   -6.6619 C   0  0  0  0  0  0  0  0  0  0  0  0
   26.9389  -19.7939   -7.9464 C   0  0  0  0  0  0  0  0  0  0  0  0
   27.8091  -20.0695   -8.9985 C   0  0  0  0  0  0  0  0  0  0  0  0
   24.1981  -20.4277  -11.7400 C   0  0  0  0  0  0  0  0  0  0  0  0
   24.0294  -19.2190  -11.9935 O   0  0  0  0  0  0  0  0  0  0  0  0
   23.1136  -21.3234  -11.8892 N   0  0  0  0  0  0  0  0  0  0  0  0
   21.7158  -20.8669  -12.0642 C   0  0  1  0  0  0  0  0  0  0  0  0
   21.7081  -20.0076  -13.2511 C   0  0  0  0  0  0  0  0  0  0  0  0
   22.6586  -20.2288  -14.3269 C   0  0  0  0  0  0  0  0  0  0  0  0
   23.5506  -21.2488  -14.5553 C   0  0  0  0  0  0  0  0  0  0  0  0
   24.1909  -20.9681  -15.6970 N   0  0  0  0  0  0  0  0  0  0  0  0
   23.7601  -19.8138  -16.2261 C   0  0  0  0  0  0  0  0  0  0  0  0
   24.0587  -19.0830  -17.3697 C   0  0  0  0  0  0  0  0  0  0  0  0
   23.4303  -17.9012  -17.6873 C   0  0  0  0  0  0  0  0  0  0  0  0
   22.4586  -17.4156  -16.8332 C   0  0  0  0  0  0  0  0  0  0  0  0
   22.1589  -18.1358  -15.6977 C   0  0  0  0  0  0  0  0  0  0  0  0
   22.8008  -19.3357  -15.3816 C   0  0  0  0  0  0  0  0  0  0  0  0
   20.7683  -21.9523  -11.9369 C   0  0  0  0  0  0  0  0  0  0  0  0
   21.1507  -23.0974  -12.3706 O   0  0  0  0  0  0  0  0  0  0  0  0
   18.2553  -26.3082   -6.7454 C   0  0  0  0  0  0  0  0  0  0  0  0
   18.0321  -24.6509   -7.4186 S   0  0  0  0  0  0  0  0  0  0  0  0
   18.6445  -24.5548   -9.1576 C   0  0  0  0  0  0  0  0  0  0  0  0
   18.2738  -23.2239   -9.7475 C   0  0  0  0  0  0  0  0  0  0  0  0
   18.7471  -23.1755  -11.1941 C   0  0  2  0  0  0  0  0  0  0  0  0
   19.4843  -21.9014  -11.3883 N   0  0  0  0  0  0  0  0  0  0  0  0
   17.5955  -23.1432  -12.0988 C   0  0  0  0  0  0  0  0  0  0  0  0
   17.1544  -24.3018  -12.7715 O   0  0  0  0  0  0  0  0  0  0  0  0
   16.9246  -22.1152  -12.3477 O   0  0  0  0  0  0  0  0  0  0  0  0
  2  1  1  6
  3  2  1  0
  4  5  2  0
  4  3  1  0
  6  5  1  0
  7 12  2  0
  7  6  1  0
  8  7  1  0
  9 10  1  0
  9  8  2  0
 10 11  2  0
 11 12  1  0
 12  4  1  0
 13  2  1  0
 14 13  2  0
 15 13  1  0
 16 17  1  6
 16 15  1  0
 18 17  1  0
 19 18  2  0
 20 21  1  0
 20 19  1  0
 21 26  2  0
 22 23  2  0
 22 21  1  0
 23 24  1  0
 24 25  2  0
 26 25  1  0
 26 18  1  0
 27 16  1  0
 28 27  2  0
 30 31  1  0
 30 29  1  0
 33 32  1  1
 32 31  1  0
 33 34  1  0
 34 27  1  0
 35 36  1  0
 35 33  1  0
 37 35  2  0
M  END
$$$$
