YKE.pdb
     RDKit          3D

 31 31  0  0  1  0  0  0  0  0999 V2000
   22.2668  -18.7227  -14.5958 O   0  0  0  0  0  0  0  0  0  0  0  0
   21.4157  -17.6227  -14.6655 C   0  0  0  0  0  0  0  0  0  0  0  0
   20.0629  -17.8265  -14.4910 C   0  0  0  0  0  0  0  0  0  0  0  0
   19.1810  -16.7542  -14.5534 C   0  0  0  0  0  0  0  0  0  0  0  0
   19.6227  -15.4702  -14.7883 C   0  0  0  0  0  0  0  0  0  0  0  0
   18.6597  -14.3461  -14.8498 C   0  0  0  0  0  0  0  0  0  0  0  0
   18.3387  -14.1113  -16.3074 C   0  0  2  0  0  0  0  0  0  0  0  0
   18.7514  -15.2917  -17.0316 N   0  0  0  0  0  0  0  0  0  0  0  0
   19.0179  -12.9350  -16.8605 C   0  0  0  0  0  0  0  0  0  0  0  0
   19.9348  -12.9673  -17.7163 O   0  0  0  0  0  0  0  0  0  0  0  0
   20.9737  -15.2703  -14.9620 C   0  0  0  0  0  0  0  0  0  0  0  0
   21.8601  -16.3521  -14.8987 C   0  0  0  0  0  0  0  0  0  0  0  0
   18.6152  -11.6372  -16.3981 N   0  0  0  0  0  0  0  0  0  0  0  0
   19.0602  -10.4604  -17.0638 C   0  0  1  0  0  0  0  0  0  0  0  0
   18.7093  -10.3060  -18.4961 C   0  0  0  0  0  0  0  0  0  0  0  0
   19.1710   -9.1077  -19.2188 C   0  0  0  0  0  0  0  0  0  0  0  0
   18.6635   -9.0645  -20.6226 C   0  0  0  0  0  0  0  0  0  0  0  0
   19.2056   -7.7935  -21.2853 C   0  0  0  0  0  0  0  0  0  0  0  0
   18.5023   -7.6665  -22.5516 N   0  0  0  0  0  0  0  0  0  0  0  0
   18.6004   -9.2220  -16.3136 C   0  0  0  0  0  0  0  0  0  0  0  0
   17.4678   -9.1873  -15.7757 O   0  0  0  0  0  0  0  0  0  0  0  0
   19.4176   -8.0687  -16.1898 N   0  0  0  0  0  0  0  0  0  0  0  0
   19.0868   -6.9025  -15.4315 C   0  0  1  0  0  0  0  0  0  0  0  0
   20.2730   -6.0069  -15.1698 C   0  0  0  0  0  0  0  0  0  0  0  0
   21.2999   -6.6305  -14.2862 C   0  0  0  0  0  0  0  0  0  0  0  0
   22.4711   -5.7458  -14.1990 C   0  0  0  0  0  0  0  0  0  0  0  0
   22.4795   -4.7882  -13.4082 O   0  0  0  0  0  0  0  0  0  0  0  0
   18.0024   -6.0998  -16.0557 C   0  0  0  0  0  0  0  0  0  0  0  0
   17.9591   -6.0779  -17.3188 O   0  0  0  0  0  0  0  0  0  0  0  0
   23.5653   -5.9793  -14.9980 O   0  0  0  0  0  0  0  0  0  0  0  0
   17.0679   -5.3976  -15.3493 O   0  0  0  0  0  0  0  0  0  0  0  0
  2  1  1  0
  3  2  2  0
  4  3  1  0
  5  4  2  0
  5 11  1  0
  6  5  1  0
  7  6  1  0
  7  8  1  6
  9  7  1  0
  9 10  2  0
 11 12  2  0
 12  2  1  0
 13  9  1  0
 14 13  1  0
 14 15  1  6
 16 15  1  0
 17 16  1  0
 18 17  1  0
 19 18  1  0
 20 14  1  0
 20 21  2  0
 22 20  1  0
 23 22  1  0
 23 28  1  0
 23 24  1  6
 25 26  1  0
 25 24  1  0
 26 27  2  0
 28 29  2  0
 28 31  1  0
 30 26  1  0
M  END
$$$$
