YKE.pdb
     RDKit          3D

 31 31  0  0  1  0  0  0  0  0999 V2000
   29.4498  -19.6951   -6.0827 O   0  0  0  0  0  0  0  0  0  0  0  0
   28.4764  -20.0363   -7.0183 C   0  0  0  0  0  0  0  0  0  0  0  0
   27.2089  -19.5138   -6.8683 C   0  0  0  0  0  0  0  0  0  0  0  0
   26.2100  -19.8305   -7.7811 C   0  0  0  0  0  0  0  0  0  0  0  0
   26.4493  -20.6652   -8.8511 C   0  0  0  0  0  0  0  0  0  0  0  0
   25.3653  -20.9858   -9.8085 C   0  0  0  0  0  0  0  0  0  0  0  0
   26.0017  -21.1384  -11.1703 C   0  0  2  0  0  0  0  0  0  0  0  0
   26.8625  -19.9951  -11.3705 N   0  0  0  0  0  0  0  0  0  0  0  0
   25.0189  -21.2077  -12.2566 C   0  0  0  0  0  0  0  0  0  0  0  0
   24.2291  -20.2863  -12.5748 O   0  0  0  0  0  0  0  0  0  0  0  0
   27.7157  -21.1851   -8.9979 C   0  0  0  0  0  0  0  0  0  0  0  0
   28.7203  -20.8645   -8.0770 C   0  0  0  0  0  0  0  0  0  0  0  0
   24.9405  -22.4166  -13.0266 N   0  0  0  0  0  0  0  0  0  0  0  0
   23.9046  -22.5991  -13.9855 C   0  0  1  0  0  0  0  0  0  0  0  0
   24.0407  -23.7265  -14.9389 C   0  0  0  0  0  0  0  0  0  0  0  0
   24.9249  -23.5702  -16.1074 C   0  0  0  0  0  0  0  0  0  0  0  0
   26.3281  -23.9882  -15.8136 C   0  0  0  0  0  0  0  0  0  0  0  0
   27.1872  -23.6657  -17.0409 C   0  0  0  0  0  0  0  0  0  0  0  0
   28.5573  -23.9804  -16.6692 N   0  0  0  0  0  0  0  0  0  0  0  0
   22.5562  -22.7063  -13.2940 C   0  0  0  0  0  0  0  0  0  0  0  0
   22.4618  -22.5432  -12.0539 O   0  0  0  0  0  0  0  0  0  0  0  0
   21.3633  -22.9908  -14.0078 N   0  0  0  0  0  0  0  0  0  0  0  0
   20.1687  -22.2065  -13.9611 C   0  0  1  0  0  0  0  0  0  0  0  0
   20.3927  -20.7592  -14.3257 C   0  0  0  0  0  0  0  0  0  0  0  0
   19.1628  -19.9238  -14.2084 C   0  0  0  0  0  0  0  0  0  0  0  0
   19.3513  -18.6703  -14.9536 C   0  0  0  0  0  0  0  0  0  0  0  0
   19.8811  -17.6877  -14.4093 O   0  0  0  0  0  0  0  0  0  0  0  0
   19.0849  -22.7588  -14.8155 C   0  0  0  0  0  0  0  0  0  0  0  0
   19.3914  -23.0696  -16.0018 O   0  0  0  0  0  0  0  0  0  0  0  0
   18.9387  -18.5842  -16.2621 O   0  0  0  0  0  0  0  0  0  0  0  0
   17.7992  -22.9448  -14.3940 O   0  0  0  0  0  0  0  0  0  0  0  0
  2  1  1  0
  3  2  2  0
  4  3  1  0
  5  4  2  0
  5 11  1  0
  6  5  1  0
  7  6  1  0
  7  8  1  6
  9  7  1  0
  9 10  2  0
 11 12  2  0
 12  2  1  0
 13  9  1  0
 14 13  1  0
 14 15  1  1
 16 15  1  0
 17 16  1  0
 18 17  1  0
 19 18  1  0
 20 14  1  0
 20 21  2  0
 22 20  1  0
 23 22  1  0
 23 28  1  0
 23 24  1  6
 25 26  1  0
 25 24  1  0
 26 27  2  0
 28 29  2  0
 28 31  1  0
 30 26  1  0
M  END
$$$$
