YKE.pdb
     RDKit          3D

 31 31  0  0  1  0  0  0  0  0999 V2000
   23.7519  -31.1438   -7.9670 O   0  0  0  0  0  0  0  0  0  0  0  0
   22.9801  -30.5079   -8.9362 C   0  0  0  0  0  0  0  0  0  0  0  0
   21.7442  -31.0372   -9.2435 C   0  0  0  0  0  0  0  0  0  0  0  0
   20.9442  -30.4317  -10.2051 C   0  0  0  0  0  0  0  0  0  0  0  0
   21.3534  -29.2984  -10.8739 C   0  0  0  0  0  0  0  0  0  0  0  0
   20.4798  -28.6742  -11.8945 C   0  0  0  0  0  0  0  0  0  0  0  0
   20.0652  -27.3223  -11.3622 C   0  0  2  0  0  0  0  0  0  0  0  0
   19.1362  -27.5555  -10.2802 N   0  0  0  0  0  0  0  0  0  0  0  0
   19.4307  -26.4771  -12.3789 C   0  0  0  0  0  0  0  0  0  0  0  0
   18.2258  -26.5433  -12.7226 O   0  0  0  0  0  0  0  0  0  0  0  0
   22.5877  -28.7726  -10.5647 C   0  0  0  0  0  0  0  0  0  0  0  0
   23.3918  -29.3845   -9.5956 C   0  0  0  0  0  0  0  0  0  0  0  0
   20.2358  -25.4917  -13.0431 N   0  0  0  0  0  0  0  0  0  0  0  0
   19.7333  -24.7874  -14.1733 C   0  0  1  0  0  0  0  0  0  0  0  0
   20.4038  -23.5187  -14.5469 C   0  0  0  0  0  0  0  0  0  0  0  0
   20.2012  -22.3287  -13.7017 C   0  0  0  0  0  0  0  0  0  0  0  0
   21.0521  -21.1793  -14.1316 C   0  0  0  0  0  0  0  0  0  0  0  0
   20.8276  -20.0269  -13.1467 C   0  0  0  0  0  0  0  0  0  0  0  0
   21.6221  -18.9133  -13.6397 N   0  0  0  0  0  0  0  0  0  0  0  0
   19.6977  -25.6960  -15.3903 C   0  0  0  0  0  0  0  0  0  0  0  0
   20.3014  -26.7955  -15.3819 O   0  0  0  0  0  0  0  0  0  0  0  0
   18.9920  -25.3476  -16.5709 N   0  0  0  0  0  0  0  0  0  0  0  0
   18.4794  -26.2774  -17.5285 C   0  0  1  0  0  0  0  0  0  0  0  0
   17.4727  -27.2384  -16.9448 C   0  0  0  0  0  0  0  0  0  0  0  0
   16.9937  -28.2576  -17.9225 C   0  0  0  0  0  0  0  0  0  0  0  0
   16.2050  -29.2782  -17.2168 C   0  0  0  0  0  0  0  0  0  0  0  0
   16.0603  -30.4111  -17.7048 O   0  0  0  0  0  0  0  0  0  0  0  0
   17.8804  -25.6098  -18.7140 C   0  0  0  0  0  0  0  0  0  0  0  0
   17.3447  -24.4803  -18.5269 O   0  0  0  0  0  0  0  0  0  0  0  0
   15.6231  -28.9776  -16.0080 O   0  0  0  0  0  0  0  0  0  0  0  0
   17.8785  -26.1428  -19.9715 O   0  0  0  0  0  0  0  0  0  0  0  0
  2  1  1  0
  3  2  2  0
  4  3  1  0
  5  4  2  0
  5 11  1  0
  6  5  1  0
  7  6  1  0
  7  8  1  1
  9  7  1  0
  9 10  2  0
 11 12  2  0
 12  2  1  0
 13  9  1  0
 14 13  1  0
 14 15  1  6
 16 15  1  0
 17 16  1  0
 18 17  1  0
 19 18  1  0
 20 14  1  0
 20 21  2  0
 22 20  1  0
 23 22  1  0
 23 28  1  0
 23 24  1  1
 25 26  1  0
 25 24  1  0
 26 27  2  0
 28 29  2  0
 28 31  1  0
 30 26  1  0
M  END
$$$$
