YKE.pdb
     RDKit          3D

 31 31  0  0  1  0  0  0  0  0999 V2000
   29.1456  -21.1619  -15.3472 O   0  0  0  0  0  0  0  0  0  0  0  0
   28.1796  -21.2474  -14.3478 C   0  0  0  0  0  0  0  0  0  0  0  0
   28.5908  -21.2139  -13.0318 C   0  0  0  0  0  0  0  0  0  0  0  0
   27.6573  -21.2966  -12.0057 C   0  0  0  0  0  0  0  0  0  0  0  0
   26.3089  -21.4132  -12.2654 C   0  0  0  0  0  0  0  0  0  0  0  0
   25.3361  -21.4997  -11.1516 C   0  0  0  0  0  0  0  0  0  0  0  0
   24.6131  -20.1747  -11.0851 C   0  0  2  0  0  0  0  0  0  0  0  0
   24.2295  -19.9656   -9.7077 N   0  0  0  0  0  0  0  0  0  0  0  0
   23.4207  -20.1302  -11.9377 C   0  0  0  0  0  0  0  0  0  0  0  0
   22.2528  -20.3880  -11.5587 O   0  0  0  0  0  0  0  0  0  0  0  0
   25.9019  -21.4464  -13.5802 C   0  0  0  0  0  0  0  0  0  0  0  0
   26.8443  -21.3629  -14.6121 C   0  0  0  0  0  0  0  0  0  0  0  0
   23.5837  -19.7652  -13.3163 N   0  0  0  0  0  0  0  0  0  0  0  0
   22.4490  -19.5272  -14.1420 C   0  0  1  0  0  0  0  0  0  0  0  0
   22.6574  -18.7578  -15.3923 C   0  0  0  0  0  0  0  0  0  0  0  0
   21.4976  -18.4688  -16.2542 C   0  0  0  0  0  0  0  0  0  0  0  0
   21.8411  -17.5371  -17.3695 C   0  0  0  0  0  0  0  0  0  0  0  0
   20.5554  -17.2284  -18.1443 C   0  0  0  0  0  0  0  0  0  0  0  0
   20.3806  -15.7864  -18.0788 N   0  0  0  0  0  0  0  0  0  0  0  0
   21.7603  -20.8370  -14.4854 C   0  0  0  0  0  0  0  0  0  0  0  0
   22.4326  -21.8400  -14.8248 O   0  0  0  0  0  0  0  0  0  0  0  0
   20.3496  -20.9820  -14.4383 N   0  0  0  0  0  0  0  0  0  0  0  0
   19.6482  -22.2275  -14.4714 C   0  0  1  0  0  0  0  0  0  0  0  0
   18.6536  -22.3802  -13.3466 C   0  0  0  0  0  0  0  0  0  0  0  0
   17.9782  -23.7098  -13.3322 C   0  0  0  0  0  0  0  0  0  0  0  0
   17.0275  -23.7623  -12.2118 C   0  0  0  0  0  0  0  0  0  0  0  0
   15.8090  -23.6316  -12.4132 O   0  0  0  0  0  0  0  0  0  0  0  0
   18.9555  -22.4627  -15.7654 C   0  0  0  0  0  0  0  0  0  0  0  0
   18.2555  -21.5144  -16.2223 O   0  0  0  0  0  0  0  0  0  0  0  0
   17.4895  -23.9575  -10.9317 O   0  0  0  0  0  0  0  0  0  0  0  0
   19.0339  -23.6279  -16.4736 O   0  0  0  0  0  0  0  0  0  0  0  0
  2  1  1  0
  3  2  2  0
  4  3  1  0
  5  4  2  0
  5 11  1  0
  6  5  1  0
  7  6  1  0
  7  8  1  1
  9  7  1  0
  9 10  2  0
 11 12  2  0
 12  2  1  0
 13  9  1  0
 14 13  1  0
 14 15  1  6
 16 15  1  0
 17 16  1  0
 18 17  1  0
 19 18  1  0
 20 14  1  0
 20 21  2  0
 22 20  1  0
 23 22  1  0
 23 28  1  0
 23 24  1  1
 25 26  1  0
 25 24  1  0
 26 27  2  0
 28 29  2  0
 28 31  1  0
 30 26  1  0
M  END
$$$$
