YKE.pdb
     RDKit          3D

 31 31  0  0  1  0  0  0  0  0999 V2000
   30.4745   -7.9270  -18.6040 O   0  0  0  0  0  0  0  0  0  0  0  0
   29.1626   -7.6566  -18.2227 C   0  0  0  0  0  0  0  0  0  0  0  0
   28.3660   -8.7073  -17.8182 C   0  0  0  0  0  0  0  0  0  0  0  0
   27.0514   -8.4784  -17.4301 C   0  0  0  0  0  0  0  0  0  0  0  0
   26.5079   -7.2121  -17.4365 C   0  0  0  0  0  0  0  0  0  0  0  0
   25.1031   -6.9976  -17.0178 C   0  0  0  0  0  0  0  0  0  0  0  0
   24.2256   -7.3627  -18.1923 C   0  0  2  0  0  0  0  0  0  0  0  0
   24.3136   -6.2796  -19.1448 N   0  0  0  0  0  0  0  0  0  0  0  0
   22.8235   -7.5711  -17.8159 C   0  0  0  0  0  0  0  0  0  0  0  0
   21.9322   -6.6884  -17.8362 O   0  0  0  0  0  0  0  0  0  0  0  0
   27.3058   -6.1655  -17.8408 C   0  0  0  0  0  0  0  0  0  0  0  0
   28.6298   -6.3987  -18.2313 C   0  0  0  0  0  0  0  0  0  0  0  0
   22.4217   -8.8812  -17.3883 N   0  0  0  0  0  0  0  0  0  0  0  0
   21.0630   -9.1519  -17.0620 C   0  0  1  0  0  0  0  0  0  0  0  0
   20.6258  -10.5688  -17.0582 C   0  0  0  0  0  0  0  0  0  0  0  0
   19.2213  -10.8814  -16.7404 C   0  0  0  0  0  0  0  0  0  0  0  0
   18.9453  -12.3483  -16.7850 C   0  0  0  0  0  0  0  0  0  0  0  0
   17.4586  -12.5620  -16.4803 C   0  0  0  0  0  0  0  0  0  0  0  0
   17.2698  -14.0000  -16.3773 N   0  0  0  0  0  0  0  0  0  0  0  0
   20.7059   -8.5286  -15.7234 C   0  0  0  0  0  0  0  0  0  0  0  0
   21.4740   -8.6500  -14.7393 O   0  0  0  0  0  0  0  0  0  0  0  0
   19.5077   -7.7936  -15.5297 N   0  0  0  0  0  0  0  0  0  0  0  0
   19.0843   -7.2209  -14.2900 C   0  0  1  0  0  0  0  0  0  0  0  0
   18.8516   -5.7319  -14.3714 C   0  0  0  0  0  0  0  0  0  0  0  0
   17.7034   -5.3608  -15.2479 C   0  0  0  0  0  0  0  0  0  0  0  0
   17.5468   -3.8989  -15.2545 C   0  0  0  0  0  0  0  0  0  0  0  0
   18.2985   -3.1820  -14.5737 O   0  0  0  0  0  0  0  0  0  0  0  0
   17.8652   -7.8721  -13.7427 C   0  0  0  0  0  0  0  0  0  0  0  0
   17.2602   -8.6847  -14.4987 O   0  0  0  0  0  0  0  0  0  0  0  0
   16.5617   -3.3202  -16.0192 O   0  0  0  0  0  0  0  0  0  0  0  0
   17.3736   -7.6430  -12.4892 O   0  0  0  0  0  0  0  0  0  0  0  0
  2  1  1  0
  3  2  2  0
  4  3  1  0
  5  4  2  0
  5 11  1  0
  6  5  1  0
  7  6  1  0
  7  8  1  6
  9  7  1  0
  9 10  2  0
 11 12  2  0
 12  2  1  0
 13  9  1  0
 14 13  1  0
 14 15  1  1
 16 15  1  0
 17 16  1  0
 18 17  1  0
 19 18  1  0
 20 14  1  0
 20 21  2  0
 22 20  1  0
 23 22  1  0
 23 28  1  0
 23 24  1  6
 25 26  1  0
 25 24  1  0
 26 27  2  0
 28 29  2  0
 28 31  1  0
 30 26  1  0
M  END
$$$$
