YKE.pdb
     RDKit          3D

 31 31  0  0  1  0  0  0  0  0999 V2000
   14.1545  -22.8168  -16.9601 O   0  0  0  0  0  0  0  0  0  0  0  0
   14.9450  -21.6718  -17.0184 C   0  0  0  0  0  0  0  0  0  0  0  0
   14.8035  -20.7243  -16.0262 C   0  0  0  0  0  0  0  0  0  0  0  0
   15.5741  -19.5681  -16.0490 C   0  0  0  0  0  0  0  0  0  0  0  0
   16.4922  -19.3332  -17.0495 C   0  0  0  0  0  0  0  0  0  0  0  0
   17.3001  -18.0915  -17.0486 C   0  0  0  0  0  0  0  0  0  0  0  0
   18.7446  -18.4978  -16.8720 C   0  0  2  0  0  0  0  0  0  0  0  0
   18.8736  -19.0519  -15.5437 N   0  0  0  0  0  0  0  0  0  0  0  0
   19.6773  -17.3768  -17.0276 C   0  0  0  0  0  0  0  0  0  0  0  0
   19.9688  -16.5508  -16.1294 O   0  0  0  0  0  0  0  0  0  0  0  0
   16.6310  -20.2811  -18.0384 C   0  0  0  0  0  0  0  0  0  0  0  0
   15.8534  -21.4450  -18.0132 C   0  0  0  0  0  0  0  0  0  0  0  0
   20.3158  -17.1950  -18.3003 N   0  0  0  0  0  0  0  0  0  0  0  0
   21.2580  -16.1461  -18.4952 C   0  0  1  0  0  0  0  0  0  0  0  0
   22.5336  -16.4843  -19.1711 C   0  0  0  0  0  0  0  0  0  0  0  0
   22.7069  -16.1244  -20.5896 C   0  0  0  0  0  0  0  0  0  0  0  0
   24.0769  -15.6042  -20.8769 C   0  0  0  0  0  0  0  0  0  0  0  0
   24.1576  -15.2773  -22.3719 C   0  0  0  0  0  0  0  0  0  0  0  0
   25.5098  -14.7979  -22.6084 N   0  0  0  0  0  0  0  0  0  0  0  0
   20.6115  -14.9835  -19.2287 C   0  0  0  0  0  0  0  0  0  0  0  0
   19.8827  -15.1878  -20.2289 O   0  0  0  0  0  0  0  0  0  0  0  0
   20.7999  -13.6371  -18.8223 N   0  0  0  0  0  0  0  0  0  0  0  0
   20.2241  -12.4955  -19.4622 C   0  0  1  0  0  0  0  0  0  0  0  0
   19.2810  -11.7260  -18.5700 C   0  0  0  0  0  0  0  0  0  0  0  0
   19.9616  -11.0743  -17.4140 C   0  0  0  0  0  0  0  0  0  0  0  0
   18.9673  -10.3543  -16.6047 C   0  0  0  0  0  0  0  0  0  0  0  0
   18.7486   -9.1479  -16.8026 O   0  0  0  0  0  0  0  0  0  0  0  0
   21.2475  -11.5630  -20.0034 C   0  0  0  0  0  0  0  0  0  0  0  0
   22.4524  -11.7932  -19.6978 O   0  0  0  0  0  0  0  0  0  0  0  0
   18.2742  -11.0202  -15.6218 O   0  0  0  0  0  0  0  0  0  0  0  0
   20.9600  -10.4906  -20.7987 O   0  0  0  0  0  0  0  0  0  0  0  0
  2  1  1  0
  3  2  2  0
  4  3  1  0
  5  4  2  0
  5 11  1  0
  6  5  1  0
  7  6  1  0
  7  8  1  1
  9  7  1  0
  9 10  2  0
 11 12  2  0
 12  2  1  0
 13  9  1  0
 14 13  1  0
 14 15  1  6
 16 15  1  0
 17 16  1  0
 18 17  1  0
 19 18  1  0
 20 14  1  0
 20 21  2  0
 22 20  1  0
 23 22  1  0
 23 28  1  0
 23 24  1  1
 25 26  1  0
 25 24  1  0
 26 27  2  0
 28 29  2  0
 28 31  1  0
 30 26  1  0
M  END
$$$$
