YKE.pdb
     RDKit          3D

 31 31  0  0  1  0  0  0  0  0999 V2000
   21.7431  -11.7639  -19.9399 O   0  0  0  0  0  0  0  0  0  0  0  0
   21.5185  -13.0262  -19.3962 C   0  0  0  0  0  0  0  0  0  0  0  0
   21.5251  -14.1162  -20.2411 C   0  0  0  0  0  0  0  0  0  0  0  0
   21.3050  -15.3924  -19.7370 C   0  0  0  0  0  0  0  0  0  0  0  0
   21.0761  -15.6080  -18.3953 C   0  0  0  0  0  0  0  0  0  0  0  0
   20.8442  -16.9795  -17.8857 C   0  0  0  0  0  0  0  0  0  0  0  0
   22.1987  -17.5883  -17.6072 C   0  0  2  0  0  0  0  0  0  0  0  0
   22.8227  -17.8457  -18.8849 N   0  0  0  0  0  0  0  0  0  0  0  0
   22.1184  -18.8363  -16.8411 C   0  0  0  0  0  0  0  0  0  0  0  0
   21.6881  -19.9283  -17.2841 O   0  0  0  0  0  0  0  0  0  0  0  0
   21.0703  -14.5177  -17.5547 C   0  0  0  0  0  0  0  0  0  0  0  0
   21.2922  -13.2331  -18.0649 C   0  0  0  0  0  0  0  0  0  0  0  0
   22.5625  -18.8261  -15.4761 N   0  0  0  0  0  0  0  0  0  0  0  0
   22.4724  -19.9998  -14.6760 C   0  0  1  0  0  0  0  0  0  0  0  0
   23.3786  -20.1067  -13.5073 C   0  0  0  0  0  0  0  0  0  0  0  0
   23.4757  -21.3929  -12.7947 C   0  0  0  0  0  0  0  0  0  0  0  0
   24.0349  -22.4757  -13.6577 C   0  0  0  0  0  0  0  0  0  0  0  0
   24.1197  -23.7558  -12.8194 C   0  0  0  0  0  0  0  0  0  0  0  0
   24.7399  -24.7570  -13.6722 N   0  0  0  0  0  0  0  0  0  0  0  0
   21.0436  -20.2108  -14.2051 C   0  0  0  0  0  0  0  0  0  0  0  0
   20.4608  -19.3324  -13.5253 O   0  0  0  0  0  0  0  0  0  0  0  0
   20.3165  -21.3911  -14.5079 N   0  0  0  0  0  0  0  0  0  0  0  0
   19.0135  -21.7060  -14.0106 C   0  0  1  0  0  0  0  0  0  0  0  0
   18.0118  -21.9881  -15.1036 C   0  0  0  0  0  0  0  0  0  0  0  0
   16.6669  -22.3736  -14.5867 C   0  0  0  0  0  0  0  0  0  0  0  0
   15.7573  -22.6060  -15.7183 C   0  0  0  0  0  0  0  0  0  0  0  0
   16.1687  -22.5126  -16.8864 O   0  0  0  0  0  0  0  0  0  0  0  0
   19.0226  -22.8458  -13.0564 C   0  0  0  0  0  0  0  0  0  0  0  0
   17.9569  -23.0636  -12.4123 O   0  0  0  0  0  0  0  0  0  0  0  0
   14.4420  -22.9292  -15.4829 O   0  0  0  0  0  0  0  0  0  0  0  0
   20.1018  -23.6552  -12.8428 O   0  0  0  0  0  0  0  0  0  0  0  0
  2  1  1  0
  3  2  2  0
  4  3  1  0
  5  4  2  0
  5 11  1  0
  6  5  1  0
  7  6  1  0
  7  8  1  6
  9  7  1  0
  9 10  2  0
 11 12  2  0
 12  2  1  0
 13  9  1  0
 14 13  1  0
 14 15  1  1
 16 15  1  0
 17 16  1  0
 18 17  1  0
 19 18  1  0
 20 14  1  0
 20 21  2  0
 22 20  1  0
 23 22  1  0
 23 28  1  0
 23 24  1  6
 25 26  1  0
 25 24  1  0
 26 27  2  0
 28 29  2  0
 28 31  1  0
 30 26  1  0
M  END
$$$$
