YKE.pdb
     RDKit          3D

 31 31  0  0  1  0  0  0  0  0999 V2000
   19.3960  -21.1935  -19.0551 O   0  0  0  0  0  0  0  0  0  0  0  0
   20.3377  -20.1981  -18.8066 C   0  0  0  0  0  0  0  0  0  0  0  0
   21.3094  -19.9609  -19.7562 C   0  0  0  0  0  0  0  0  0  0  0  0
   22.2669  -18.9760  -19.5453 C   0  0  0  0  0  0  0  0  0  0  0  0
   22.2771  -18.2146  -18.3967 C   0  0  0  0  0  0  0  0  0  0  0  0
   23.3102  -17.1716  -18.1985 C   0  0  0  0  0  0  0  0  0  0  0  0
   24.6164  -17.8813  -17.9282 C   0  0  2  0  0  0  0  0  0  0  0  0
   24.4844  -18.5489  -16.6535 N   0  0  0  0  0  0  0  0  0  0  0  0
   25.7648  -16.9701  -17.8872 C   0  0  0  0  0  0  0  0  0  0  0  0
   25.9536  -16.0860  -17.0173 O   0  0  0  0  0  0  0  0  0  0  0  0
   21.3057  -18.4540  -17.4509 C   0  0  0  0  0  0  0  0  0  0  0  0
   20.3423  -19.4467  -17.6657 C   0  0  0  0  0  0  0  0  0  0  0  0
   26.7605  -17.0844  -18.9148 N   0  0  0  0  0  0  0  0  0  0  0  0
   27.9219  -16.2617  -18.8932 C   0  0  1  0  0  0  0  0  0  0  0  0
   29.2081  -16.8767  -19.3006 C   0  0  0  0  0  0  0  0  0  0  0  0
   30.4240  -16.0443  -19.3158 C   0  0  0  0  0  0  0  0  0  0  0  0
   31.6375  -16.8244  -19.7017 C   0  0  0  0  0  0  0  0  0  0  0  0
   32.8408  -15.8758  -19.6755 C   0  0  0  0  0  0  0  0  0  0  0  0
   33.9983  -16.6814  -20.0295 N   0  0  0  0  0  0  0  0  0  0  0  0
   27.6978  -15.0080  -19.7214 C   0  0  0  0  0  0  0  0  0  0  0  0
   27.3903  -15.0928  -20.9346 O   0  0  0  0  0  0  0  0  0  0  0  0
   27.8240  -13.7071  -19.1693 N   0  0  0  0  0  0  0  0  0  0  0  0
   27.5612  -12.4872  -19.8671 C   0  0  1  0  0  0  0  0  0  0  0  0
   27.5224  -11.2803  -18.9617 C   0  0  0  0  0  0  0  0  0  0  0  0
   28.8053  -11.0431  -18.2390 C   0  0  0  0  0  0  0  0  0  0  0  0
   28.7133   -9.7867  -17.4808 C   0  0  0  0  0  0  0  0  0  0  0  0
   27.6518   -9.1425  -17.4559 O   0  0  0  0  0  0  0  0  0  0  0  0
   28.5275  -12.2354  -20.9683 C   0  0  0  0  0  0  0  0  0  0  0  0
   28.1350  -11.5011  -21.9195 O   0  0  0  0  0  0  0  0  0  0  0  0
   29.8094   -9.3208  -16.7941 O   0  0  0  0  0  0  0  0  0  0  0  0
   29.7936  -12.7460  -21.0058 O   0  0  0  0  0  0  0  0  0  0  0  0
  2  1  1  0
  3  2  2  0
  4  3  1  0
  5  4  2  0
  5 11  1  0
  6  5  1  0
  7  6  1  0
  7  8  1  1
  9  7  1  0
  9 10  2  0
 11 12  2  0
 12  2  1  0
 13  9  1  0
 14 13  1  0
 14 15  1  6
 16 15  1  0
 17 16  1  0
 18 17  1  0
 19 18  1  0
 20 14  1  0
 20 21  2  0
 22 20  1  0
 23 22  1  0
 23 28  1  0
 23 24  1  1
 25 26  1  0
 25 24  1  0
 26 27  2  0
 28 29  2  0
 28 31  1  0
 30 26  1  0
M  END
$$$$
