YKE.pdb
     RDKit          3D

 31 31  0  0  1  0  0  0  0  0999 V2000
   24.0599  -21.3297   -8.4340 O   0  0  0  0  0  0  0  0  0  0  0  0
   24.9862  -20.9390   -9.3977 C   0  0  0  0  0  0  0  0  0  0  0  0
   24.5998  -20.9463  -10.7216 C   0  0  0  0  0  0  0  0  0  0  0  0
   25.4952  -20.5631  -11.7130 C   0  0  0  0  0  0  0  0  0  0  0  0
   26.7805  -20.1688  -11.4104 C   0  0  0  0  0  0  0  0  0  0  0  0
   27.7138  -19.7657  -12.4879 C   0  0  0  0  0  0  0  0  0  0  0  0
   27.5489  -20.7567  -13.6164 C   0  0  2  0  0  0  0  0  0  0  0  0
   28.8526  -20.9507  -14.2088 N   0  0  0  0  0  0  0  0  0  0  0  0
   26.6068  -20.3018  -14.6442 C   0  0  0  0  0  0  0  0  0  0  0  0
   26.9044  -19.5824  -15.6281 O   0  0  0  0  0  0  0  0  0  0  0  0
   27.1629  -20.1627  -10.0878 C   0  0  0  0  0  0  0  0  0  0  0  0
   26.2591  -20.5491   -9.0910 C   0  0  0  0  0  0  0  0  0  0  0  0
   25.2326  -20.7012  -14.5316 N   0  0  0  0  0  0  0  0  0  0  0  0
   24.3512  -20.5862  -15.6433 C   0  0  1  0  0  0  0  0  0  0  0  0
   24.3658  -21.6764  -16.6481 C   0  0  0  0  0  0  0  0  0  0  0  0
   24.8565  -23.0076  -16.2498 C   0  0  0  0  0  0  0  0  0  0  0  0
   24.7252  -24.0100  -17.3489 C   0  0  0  0  0  0  0  0  0  0  0  0
   25.2099  -25.3636  -16.8185 C   0  0  0  0  0  0  0  0  0  0  0  0
   25.1770  -26.2763  -17.9499 N   0  0  0  0  0  0  0  0  0  0  0  0
   22.9231  -20.3817  -15.1674 C   0  0  0  0  0  0  0  0  0  0  0  0
   22.4248  -21.1422  -14.3033 O   0  0  0  0  0  0  0  0  0  0  0  0
   22.1028  -19.3389  -15.6705 N   0  0  0  0  0  0  0  0  0  0  0  0
   20.8126  -18.9887  -15.1635 C   0  0  1  0  0  0  0  0  0  0  0  0
   20.2810  -17.6957  -15.7319 C   0  0  0  0  0  0  0  0  0  0  0  0
   20.2108  -17.6904  -17.2217 C   0  0  0  0  0  0  0  0  0  0  0  0
   19.6294  -16.4195  -17.6785 C   0  0  0  0  0  0  0  0  0  0  0  0
   18.5619  -16.4075  -18.3131 O   0  0  0  0  0  0  0  0  0  0  0  0
   19.8033  -20.0601  -15.3715 C   0  0  0  0  0  0  0  0  0  0  0  0
   18.6967  -19.9297  -14.7746 O   0  0  0  0  0  0  0  0  0  0  0  0
   20.2708  -15.2355  -17.4016 O   0  0  0  0  0  0  0  0  0  0  0  0
   20.0049  -21.1577  -16.1589 O   0  0  0  0  0  0  0  0  0  0  0  0
  2  1  1  0
  3  2  2  0
  4  3  1  0
  5  4  2  0
  5 11  1  0
  6  5  1  0
  7  6  1  0
  7  8  1  6
  9  7  1  0
  9 10  2  0
 11 12  2  0
 12  2  1  0
 13  9  1  0
 14 13  1  0
 14 15  1  1
 16 15  1  0
 17 16  1  0
 18 17  1  0
 19 18  1  0
 20 14  1  0
 20 21  2  0
 22 20  1  0
 23 22  1  0
 23 28  1  0
 23 24  1  6
 25 26  1  0
 25 24  1  0
 26 27  2  0
 28 29  2  0
 28 31  1  0
 30 26  1  0
M  END
$$$$
