YKE.pdb
     RDKit          3D

 31 31  0  0  1  0  0  0  0  0999 V2000
   10.1300   -8.3658   -6.6401 O   0  0  0  0  0  0  0  0  0  0  0  0
   11.1971   -8.4898   -7.5263 C   0  0  0  0  0  0  0  0  0  0  0  0
   11.7490   -9.7389   -7.7195 C   0  0  0  0  0  0  0  0  0  0  0  0
   12.8150   -9.9039   -8.5957 C   0  0  0  0  0  0  0  0  0  0  0  0
   13.3485   -8.8400   -9.2905 C   0  0  0  0  0  0  0  0  0  0  0  0
   14.4853   -9.0452  -10.2179 C   0  0  0  0  0  0  0  0  0  0  0  0
   13.9131   -9.5487  -11.5225 C   0  0  2  0  0  0  0  0  0  0  0  0
   13.7131  -10.9727  -11.3803 N   0  0  0  0  0  0  0  0  0  0  0  0
   14.7894   -9.2894  -12.6695 C   0  0  0  0  0  0  0  0  0  0  0  0
   15.6613  -10.0797  -13.1046 O   0  0  0  0  0  0  0  0  0  0  0  0
   12.7952   -7.5945   -9.0952 C   0  0  0  0  0  0  0  0  0  0  0  0
   11.7213   -7.4309   -8.2121 C   0  0  0  0  0  0  0  0  0  0  0  0
   14.6530   -8.0385  -13.3604 N   0  0  0  0  0  0  0  0  0  0  0  0
   15.4256   -7.7655  -14.5242 C   0  0  1  0  0  0  0  0  0  0  0  0
   14.7140   -7.2414  -15.7147 C   0  0  0  0  0  0  0  0  0  0  0  0
   15.4570   -7.0812  -16.9772 C   0  0  0  0  0  0  0  0  0  0  0  0
   14.5887   -6.5793  -18.0836 C   0  0  0  0  0  0  0  0  0  0  0  0
   15.4256   -6.5459  -19.3671 C   0  0  0  0  0  0  0  0  0  0  0  0
   14.5028   -6.2219  -20.4430 N   0  0  0  0  0  0  0  0  0  0  0  0
   16.5724   -6.8269  -14.1900 C   0  0  0  0  0  0  0  0  0  0  0  0
   16.4566   -5.9824  -13.2699 O   0  0  0  0  0  0  0  0  0  0  0  0
   17.8051   -6.8629  -14.8918 N   0  0  0  0  0  0  0  0  0  0  0  0
   18.9223   -6.0074  -14.6382 C   0  0  1  0  0  0  0  0  0  0  0  0
   20.1563   -6.7558  -14.1966 C   0  0  0  0  0  0  0  0  0  0  0  0
   20.0068   -7.4056  -12.8626 C   0  0  0  0  0  0  0  0  0  0  0  0
   21.2521   -8.1079  -12.5194 C   0  0  0  0  0  0  0  0  0  0  0  0
   22.1914   -8.1571  -13.3304 O   0  0  0  0  0  0  0  0  0  0  0  0
   19.2666   -5.1511  -15.8035 C   0  0  0  0  0  0  0  0  0  0  0  0
   18.6867   -5.4094  -16.8967 O   0  0  0  0  0  0  0  0  0  0  0  0
   21.3789   -8.7148  -11.2923 O   0  0  0  0  0  0  0  0  0  0  0  0
   20.1600   -4.1191  -15.7562 O   0  0  0  0  0  0  0  0  0  0  0  0
  2  1  1  0
  3  2  2  0
  4  3  1  0
  5  4  2  0
  5 11  1  0
  6  5  1  0
  7  6  1  0
  7  8  1  1
  9  7  1  0
  9 10  2  0
 11 12  2  0
 12  2  1  0
 13  9  1  0
 14 13  1  0
 14 15  1  6
 16 15  1  0
 17 16  1  0
 18 17  1  0
 19 18  1  0
 20 14  1  0
 20 21  2  0
 22 20  1  0
 23 22  1  0
 23 28  1  0
 23 24  1  6
 25 26  1  0
 25 24  1  0
 26 27  2  0
 28 29  2  0
 28 31  1  0
 30 26  1  0
M  END
$$$$
