YKE.pdb
     RDKit          3D

 31 31  0  0  1  0  0  0  0  0999 V2000
   18.9639  -10.7894  -30.6915 O   0  0  0  0  0  0  0  0  0  0  0  0
   18.6193  -10.8652  -29.3443 C   0  0  0  0  0  0  0  0  0  0  0  0
   19.6183  -11.0981  -28.4225 C   0  0  0  0  0  0  0  0  0  0  0  0
   19.3148  -11.1805  -27.0689 C   0  0  0  0  0  0  0  0  0  0  0  0
   18.0238  -11.0345  -26.6093 C   0  0  0  0  0  0  0  0  0  0  0  0
   17.7293  -11.1275  -25.1604 C   0  0  0  0  0  0  0  0  0  0  0  0
   17.6345  -12.5956  -24.8165 C   0  0  2  0  0  0  0  0  0  0  0  0
   16.4594  -13.1147  -25.4783 N   0  0  0  0  0  0  0  0  0  0  0  0
   17.5323  -12.8399  -23.3741 C   0  0  0  0  0  0  0  0  0  0  0  0
   16.4742  -12.7693  -22.7036 O   0  0  0  0  0  0  0  0  0  0  0  0
   17.0290  -10.8021  -27.5322 C   0  0  0  0  0  0  0  0  0  0  0  0
   17.3373  -10.7195  -28.8952 C   0  0  0  0  0  0  0  0  0  0  0  0
   18.7260  -13.1881  -22.6571 N   0  0  0  0  0  0  0  0  0  0  0  0
   18.6899  -13.4031  -21.2505 C   0  0  1  0  0  0  0  0  0  0  0  0
   19.2749  -14.6630  -20.7321 C   0  0  0  0  0  0  0  0  0  0  0  0
   19.2518  -14.9163  -19.2805 C   0  0  0  0  0  0  0  0  0  0  0  0
   19.8876  -16.2198  -18.9247 C   0  0  0  0  0  0  0  0  0  0  0  0
   19.7448  -16.4213  -17.4122 C   0  0  0  0  0  0  0  0  0  0  0  0
   20.2967  -17.7357  -17.1257 N   0  0  0  0  0  0  0  0  0  0  0  0
   19.3271  -12.2335  -20.5198 C   0  0  0  0  0  0  0  0  0  0  0  0
   20.4704  -11.8291  -20.8403 O   0  0  0  0  0  0  0  0  0  0  0  0
   18.6688  -11.5576  -19.4601 N   0  0  0  0  0  0  0  0  0  0  0  0
   19.1663  -10.3977  -18.7882 C   0  0  1  0  0  0  0  0  0  0  0  0
   18.5971   -9.1081  -19.3273 C   0  0  0  0  0  0  0  0  0  0  0  0
   17.1680   -8.8938  -18.9584 C   0  0  0  0  0  0  0  0  0  0  0  0
   16.6957   -7.6321  -19.5474 C   0  0  0  0  0  0  0  0  0  0  0  0
   16.5030   -6.6360  -18.8311 O   0  0  0  0  0  0  0  0  0  0  0  0
   18.9474  -10.4466  -17.3187 C   0  0  0  0  0  0  0  0  0  0  0  0
   18.3004  -11.4344  -16.8675 O   0  0  0  0  0  0  0  0  0  0  0  0
   16.4656   -7.5531  -20.9005 O   0  0  0  0  0  0  0  0  0  0  0  0
   19.4000   -9.4981  -16.4465 O   0  0  0  0  0  0  0  0  0  0  0  0
  2  1  1  0
  3  2  2  0
  4  3  1  0
  5  4  2  0
  5 11  1  0
  6  5  1  0
  7  6  1  0
  7  8  1  6
  9  7  1  0
  9 10  2  0
 11 12  2  0
 12  2  1  0
 13  9  1  0
 14 13  1  0
 14 15  1  6
 16 15  1  0
 17 16  1  0
 18 17  1  0
 19 18  1  0
 20 14  1  0
 20 21  2  0
 22 20  1  0
 23 22  1  0
 23 28  1  0
 23 24  1  6
 25 26  1  0
 25 24  1  0
 26 27  2  0
 28 29  2  0
 28 31  1  0
 30 26  1  0
M  END
$$$$
