YKE.pdb
     RDKit          3D

 31 31  0  0  1  0  0  0  0  0999 V2000
   35.1439   -7.7945  -14.7729 O   0  0  0  0  0  0  0  0  0  0  0  0
   33.9441   -7.9641  -15.4591 C   0  0  0  0  0  0  0  0  0  0  0  0
   33.1862   -6.8475  -15.7436 C   0  0  0  0  0  0  0  0  0  0  0  0
   31.9828   -6.9753  -16.4268 C   0  0  0  0  0  0  0  0  0  0  0  0
   31.5134   -8.2044  -16.8368 C   0  0  0  0  0  0  0  0  0  0  0  0
   30.2268   -8.3108  -17.5632 C   0  0  0  0  0  0  0  0  0  0  0  0
   30.5062   -9.0231  -18.8660 C   0  0  2  0  0  0  0  0  0  0  0  0
   31.3197   -8.1401  -19.6701 N   0  0  0  0  0  0  0  0  0  0  0  0
   29.2858   -9.3700  -19.6016 C   0  0  0  0  0  0  0  0  0  0  0  0
   28.8284   -8.7336  -20.5813 O   0  0  0  0  0  0  0  0  0  0  0  0
   32.2725   -9.3170  -16.5512 C   0  0  0  0  0  0  0  0  0  0  0  0
   33.4844   -9.1856  -15.8628 C   0  0  0  0  0  0  0  0  0  0  0  0
   28.5438  -10.5248  -19.1817 N   0  0  0  0  0  0  0  0  0  0  0  0
   27.3349  -10.8880  -19.8395 C   0  0  1  0  0  0  0  0  0  0  0  0
   26.9050  -12.3045  -19.7553 C   0  0  0  0  0  0  0  0  0  0  0  0
   25.6591  -12.7134  -20.4279 C   0  0  0  0  0  0  0  0  0  0  0  0
   25.3650  -14.1650  -20.2378 C   0  0  0  0  0  0  0  0  0  0  0  0
   24.1596  -14.5246  -21.1132 C   0  0  0  0  0  0  0  0  0  0  0  0
   23.7972  -15.8881  -20.7615 N   0  0  0  0  0  0  0  0  0  0  0  0
   26.1917  -10.0035  -19.3721 C   0  0  0  0  0  0  0  0  0  0  0  0
   26.0054   -9.7970  -18.1490 O   0  0  0  0  0  0  0  0  0  0  0  0
   25.2986   -9.3818  -20.2827 N   0  0  0  0  0  0  0  0  0  0  0  0
   24.1708   -8.5837  -19.9148 C   0  0  1  0  0  0  0  0  0  0  0  0
   24.1100   -7.2660  -20.6480 C   0  0  0  0  0  0  0  0  0  0  0  0
   25.0184   -6.2302  -20.0768 C   0  0  0  0  0  0  0  0  0  0  0  0
   24.6921   -4.9201  -20.6592 C   0  0  0  0  0  0  0  0  0  0  0  0
   23.8139   -4.8198  -21.5315 O   0  0  0  0  0  0  0  0  0  0  0  0
   22.8790   -9.2972  -20.0936 C   0  0  0  0  0  0  0  0  0  0  0  0
   22.7149   -9.9235  -21.1794 O   0  0  0  0  0  0  0  0  0  0  0  0
   25.3633   -3.7974  -20.2357 O   0  0  0  0  0  0  0  0  0  0  0  0
   21.8786   -9.3115  -19.1639 O   0  0  0  0  0  0  0  0  0  0  0  0
  2  1  1  0
  3  2  2  0
  4  3  1  0
  5  4  2  0
  5 11  1  0
  6  5  1  0
  7  6  1  0
  7  8  1  6
  9  7  1  0
  9 10  2  0
 11 12  2  0
 12  2  1  0
 13  9  1  0
 14 13  1  0
 14 15  1  1
 16 15  1  0
 17 16  1  0
 18 17  1  0
 19 18  1  0
 20 14  1  0
 20 21  2  0
 22 20  1  0
 23 22  1  0
 23 28  1  0
 23 24  1  6
 25 26  1  0
 25 24  1  0
 26 27  2  0
 28 29  2  0
 28 31  1  0
 30 26  1  0
M  END
$$$$
