YKE.pdb
     RDKit          3D

 31 31  0  0  1  0  0  0  0  0999 V2000
   14.9434  -24.6482  -10.1448 O   0  0  0  0  0  0  0  0  0  0  0  0
   15.8655  -23.8485  -10.8153 C   0  0  0  0  0  0  0  0  0  0  0  0
   15.8388  -22.4876  -10.5935 C   0  0  0  0  0  0  0  0  0  0  0  0
   16.7426  -21.6558  -11.2437 C   0  0  0  0  0  0  0  0  0  0  0  0
   17.6819  -22.1562  -12.1192 C   0  0  0  0  0  0  0  0  0  0  0  0
   18.6328  -21.2458  -12.7985 C   0  0  0  0  0  0  0  0  0  0  0  0
   20.0113  -21.5601  -12.2657 C   0  0  2  0  0  0  0  0  0  0  0  0
   20.0482  -21.1206  -10.8896 N   0  0  0  0  0  0  0  0  0  0  0  0
   21.0808  -20.8983  -13.0200 C   0  0  0  0  0  0  0  0  0  0  0  0
   21.1871  -19.6591  -13.1847 O   0  0  0  0  0  0  0  0  0  0  0  0
   17.7057  -23.5152  -12.3382 C   0  0  0  0  0  0  0  0  0  0  0  0
   16.7943  -24.3510  -11.6820 C   0  0  0  0  0  0  0  0  0  0  0  0
   22.0937  -21.7167  -13.6239 N   0  0  0  0  0  0  0  0  0  0  0  0
   23.1264  -21.1305  -14.4087 C   0  0  1  0  0  0  0  0  0  0  0  0
   24.3157  -21.9622  -14.7124 C   0  0  0  0  0  0  0  0  0  0  0  0
   25.4350  -21.3613  -15.4592 C   0  0  0  0  0  0  0  0  0  0  0  0
   26.5996  -22.2888  -15.5742 C   0  0  0  0  0  0  0  0  0  0  0  0
   27.7276  -21.5480  -16.3004 C   0  0  0  0  0  0  0  0  0  0  0  0
   28.7230  -21.2349  -15.2879 N   0  0  0  0  0  0  0  0  0  0  0  0
   22.5606  -20.5952  -15.7131 C   0  0  0  0  0  0  0  0  0  0  0  0
   21.7475  -21.2771  -16.3818 O   0  0  0  0  0  0  0  0  0  0  0  0
   22.9205  -19.3216  -16.2246 N   0  0  0  0  0  0  0  0  0  0  0  0
   22.3567  -18.7125  -17.3888 C   0  0  1  0  0  0  0  0  0  0  0  0
   22.0447  -17.2477  -17.2019 C   0  0  0  0  0  0  0  0  0  0  0  0
   21.3769  -16.6308  -18.3841 C   0  0  0  0  0  0  0  0  0  0  0  0
   21.1417  -15.2033  -18.1221 C   0  0  0  0  0  0  0  0  0  0  0  0
   21.0456  -14.3979  -19.0626 O   0  0  0  0  0  0  0  0  0  0  0  0
   23.2117  -18.8754  -18.5939 C   0  0  0  0  0  0  0  0  0  0  0  0
   24.4287  -19.1572  -18.4002 O   0  0  0  0  0  0  0  0  0  0  0  0
   21.0269  -14.7557  -16.8273 O   0  0  0  0  0  0  0  0  0  0  0  0
   22.7600  -18.7391  -19.8756 O   0  0  0  0  0  0  0  0  0  0  0  0
  2  1  1  0
  3  2  2  0
  4  3  1  0
  5  4  2  0
  5 11  1  0
  6  5  1  0
  7  6  1  0
  7  8  1  1
  9  7  1  0
  9 10  2  0
 11 12  2  0
 12  2  1  0
 13  9  1  0
 14 13  1  0
 14 15  1  6
 16 15  1  0
 17 16  1  0
 18 17  1  0
 19 18  1  0
 20 14  1  0
 20 21  2  0
 22 20  1  0
 23 22  1  0
 23 28  1  0
 23 24  1  1
 25 26  1  0
 25 24  1  0
 26 27  2  0
 28 29  2  0
 28 31  1  0
 30 26  1  0
M  END
$$$$
