YKE.pdb
     RDKit          3D

 31 31  0  0  1  0  0  0  0  0999 V2000
   30.7764  -21.9842   -9.3201 O   0  0  0  0  0  0  0  0  0  0  0  0
   29.6520  -21.4327   -9.9291 C   0  0  0  0  0  0  0  0  0  0  0  0
   28.5521  -21.1512   -9.1461 C   0  0  0  0  0  0  0  0  0  0  0  0
   27.4109  -20.6003   -9.7165 C   0  0  0  0  0  0  0  0  0  0  0  0
   27.3414  -20.3210  -11.0642 C   0  0  0  0  0  0  0  0  0  0  0  0
   26.1116  -19.7340  -11.6453 C   0  0  0  0  0  0  0  0  0  0  0  0
   25.1887  -20.8795  -11.9900 C   0  0  2  0  0  0  0  0  0  0  0  0
   25.8638  -21.6900  -12.9777 N   0  0  0  0  0  0  0  0  0  0  0  0
   23.8971  -20.4334  -12.5224 C   0  0  0  0  0  0  0  0  0  0  0  0
   23.0325  -19.7939  -11.8762 O   0  0  0  0  0  0  0  0  0  0  0  0
   28.4412  -20.6032  -11.8429 C   0  0  0  0  0  0  0  0  0  0  0  0
   29.5896  -21.1582  -11.2659 C   0  0  0  0  0  0  0  0  0  0  0  0
   23.5805  -20.7439  -13.8876 N   0  0  0  0  0  0  0  0  0  0  0  0
   22.3397  -20.3372  -14.4542 C   0  0  1  0  0  0  0  0  0  0  0  0
   22.3530  -19.8314  -15.8479 C   0  0  0  0  0  0  0  0  0  0  0  0
   21.5686  -18.6284  -16.1781 C   0  0  0  0  0  0  0  0  0  0  0  0
   21.7892  -18.1789  -17.5849 C   0  0  0  0  0  0  0  0  0  0  0  0
   20.9581  -16.9121  -17.8153 C   0  0  0  0  0  0  0  0  0  0  0  0
   21.2916  -16.4475  -19.1521 N   0  0  0  0  0  0  0  0  0  0  0  0
   21.3190  -21.4578  -14.3526 C   0  0  0  0  0  0  0  0  0  0  0  0
   21.6868  -22.6570  -14.3626 O   0  0  0  0  0  0  0  0  0  0  0  0
   19.9275  -21.2026  -14.2438 N   0  0  0  0  0  0  0  0  0  0  0  0
   18.9390  -22.1692  -13.8794 C   0  0  1  0  0  0  0  0  0  0  0  0
   19.0611  -22.6347  -12.4490 C   0  0  0  0  0  0  0  0  0  0  0  0
   18.0788  -23.6973  -12.0880 C   0  0  0  0  0  0  0  0  0  0  0  0
   18.3175  -24.1331  -10.7042 C   0  0  0  0  0  0  0  0  0  0  0  0
   19.1749  -23.5685  -10.0052 O   0  0  0  0  0  0  0  0  0  0  0  0
   17.5519  -21.6897  -14.1156 C   0  0  0  0  0  0  0  0  0  0  0  0
   17.3726  -20.4385  -14.1343 O   0  0  0  0  0  0  0  0  0  0  0  0
   17.5871  -25.1728  -10.1792 O   0  0  0  0  0  0  0  0  0  0  0  0
   16.4808  -22.5145  -14.3099 O   0  0  0  0  0  0  0  0  0  0  0  0
  2  1  1  0
  3  2  2  0
  4  3  1  0
  5  4  2  0
  5 11  1  0
  6  5  1  0
  7  6  1  0
  7  8  1  6
  9  7  1  0
  9 10  2  0
 11 12  2  0
 12  2  1  0
 13  9  1  0
 14 13  1  0
 14 15  1  6
 16 15  1  0
 17 16  1  0
 18 17  1  0
 19 18  1  0
 20 14  1  0
 20 21  2  0
 22 20  1  0
 23 22  1  0
 23 28  1  0
 23 24  1  1
 25 26  1  0
 25 24  1  0
 26 27  2  0
 28 29  2  0
 28 31  1  0
 30 26  1  0
M  END
$$$$
