AET.pdb
     RDKit          3D

 22 21  0  0  1  0  0  0  0  0999 V2000
    7.4613  -17.6623   18.9582 C   0  0  0  0  0  0  0  0  0  0  0  0
    8.8755  -17.9446   18.4947 C   0  0  2  0  0  0  0  0  0  0  0  0
    8.9206  -19.1390   17.6843 N   0  0  0  0  0  0  0  0  0  0  0  0
    9.6907  -18.1304   19.7544 C   0  0  0  0  0  0  0  0  0  0  0  0
    9.1280  -18.6374   20.7485 O   0  0  0  0  0  0  0  0  0  0  0  0
   11.0431  -17.7433   19.8056 N   0  0  0  0  0  0  0  0  0  0  0  0
   11.9336  -17.7609   20.9083 C   0  0  1  0  0  0  0  0  0  0  0  0
   13.4102  -17.5424   20.5719 C   0  0  0  0  0  0  0  0  0  0  0  0
   13.8393  -18.5611   19.5467 C   0  0  0  0  0  0  0  0  0  0  0  0
   15.2146  -18.2594   19.0602 C   0  0  0  0  0  0  0  0  0  0  0  0
   15.5282  -17.0982   18.6970 O   0  0  0  0  0  0  0  0  0  0  0  0
   11.5562  -16.9617   22.0586 C   0  0  0  0  0  0  0  0  0  0  0  0
   11.7911  -15.7150   22.0648 O   0  0  0  0  0  0  0  0  0  0  0  0
   16.1394  -19.2644   19.0125 O   0  0  0  0  0  0  0  0  0  0  0  0
    8.6046  -15.6555   25.4501 C   0  0  0  0  0  0  0  0  0  0  0  0
    9.0321  -16.4638   24.2415 C   0  0  1  0  0  0  0  0  0  0  0  0
    8.6511  -15.7807   23.0735 O   0  0  0  0  0  0  0  0  0  0  0  0
   10.5302  -16.5930   24.2771 C   0  0  2  0  0  0  0  0  0  0  0  0
   10.9249  -17.5076   23.2010 N   0  0  0  0  0  0  0  0  0  0  0  0
   10.9883  -17.1320   25.5974 C   0  0  0  0  0  0  0  0  0  0  0  0
   10.9903  -16.3395   26.7324 O   0  0  0  0  0  0  0  0  0  0  0  0
   11.3829  -18.3203   25.7067 O   0  0  0  0  0  0  0  0  0  0  0  0
  2  4  1  0
  2  1  1  1
  3  2  1  0
  4  6  1  0
  5  4  2  0
  6  7  1  0
  7 12  1  0
  8  9  1  0
  7  8  1  6
 10 14  1  0
 10  9  1  0
 11 10  2  0
 12 13  2  0
 12 19  1  0
 16 15  1  1
 17 16  1  0
 18 16  1  0
 18 20  1  0
 18 19  1  6
 20 21  1  0
 22 20  2  0
M  END
$$$$
