AET.pdb
     RDKit          3D

 22 21  0  0  1  0  0  0  0  0999 V2000
    7.7390  -12.3020   19.9677 C   0  0  0  0  0  0  0  0  0  0  0  0
    7.9554  -13.7761   19.6946 C   0  0  2  0  0  0  0  0  0  0  0  0
    6.8846  -14.3104   18.8863 N   0  0  0  0  0  0  0  0  0  0  0  0
    7.9782  -14.4456   21.0500 C   0  0  0  0  0  0  0  0  0  0  0  0
    6.8892  -14.6158   21.6391 O   0  0  0  0  0  0  0  0  0  0  0  0
    9.1902  -14.8642   21.6308 N   0  0  0  0  0  0  0  0  0  0  0  0
    9.4018  -15.5544   22.8507 C   0  0  1  0  0  0  0  0  0  0  0  0
   10.6046  -16.4998   22.8777 C   0  0  0  0  0  0  0  0  0  0  0  0
   10.1980  -17.8331   22.3034 C   0  0  0  0  0  0  0  0  0  0  0  0
   11.3653  -18.7577   22.2624 C   0  0  0  0  0  0  0  0  0  0  0  0
   11.7201  -19.3916   23.2876 O   0  0  0  0  0  0  0  0  0  0  0  0
    9.3617  -14.7568   24.0616 C   0  0  0  0  0  0  0  0  0  0  0  0
   10.2140  -13.8337   24.2374 O   0  0  0  0  0  0  0  0  0  0  0  0
   12.0520  -18.9118   21.0910 O   0  0  0  0  0  0  0  0  0  0  0  0
    6.8701  -12.4298   25.3294 C   0  0  0  0  0  0  0  0  0  0  0  0
    7.0620  -13.4739   26.4110 C   0  0  1  0  0  0  0  0  0  0  0  0
    6.0982  -14.4846   26.2505 O   0  0  0  0  0  0  0  0  0  0  0  0
    8.4354  -14.0643   26.2464 C   0  0  2  0  0  0  0  0  0  0  0  0
    8.4018  -14.9549   25.0820 N   0  0  0  0  0  0  0  0  0  0  0  0
    8.8346  -14.8360   27.4665 C   0  0  0  0  0  0  0  0  0  0  0  0
    9.0587  -16.2008   27.4089 O   0  0  0  0  0  0  0  0  0  0  0  0
    8.9763  -14.2611   28.5752 O   0  0  0  0  0  0  0  0  0  0  0  0
  2  4  1  0
  2  1  1  1
  3  2  1  0
  4  6  1  0
  5  4  2  0
  6  7  1  0
  7 12  1  0
  8  9  1  0
  7  8  1  6
 10 14  1  0
 10  9  1  0
 11 10  2  0
 12 13  2  0
 12 19  1  0
 16 15  1  6
 17 16  1  0
 18 16  1  0
 18 20  1  0
 18 19  1  6
 20 21  1  0
 22 20  2  0
M  END
$$$$
