AET.pdb
     RDKit          3D

 22 21  0  0  1  0  0  0  0  0999 V2000
    6.9592  -13.1716   19.3053 C   0  0  0  0  0  0  0  0  0  0  0  0
    8.4153  -13.3898   19.6612 C   0  0  2  0  0  0  0  0  0  0  0  0
    9.0621  -14.2311   18.6818 N   0  0  0  0  0  0  0  0  0  0  0  0
    8.4102  -14.0636   21.0147 C   0  0  0  0  0  0  0  0  0  0  0  0
    7.8479  -13.4736   21.9622 O   0  0  0  0  0  0  0  0  0  0  0  0
    9.0210  -15.3180   21.2017 N   0  0  0  0  0  0  0  0  0  0  0  0
    9.0865  -16.1109   22.3748 C   0  0  1  0  0  0  0  0  0  0  0  0
    9.8952  -17.4044   22.2566 C   0  0  0  0  0  0  0  0  0  0  0  0
    9.8252  -18.1520   23.5640 C   0  0  0  0  0  0  0  0  0  0  0  0
   10.5684  -19.4394   23.4656 C   0  0  0  0  0  0  0  0  0  0  0  0
   11.3161  -19.8235   24.3994 O   0  0  0  0  0  0  0  0  0  0  0  0
    9.4199  -15.4200   23.6059 C   0  0  0  0  0  0  0  0  0  0  0  0
   10.5519  -14.8604   23.7285 O   0  0  0  0  0  0  0  0  0  0  0  0
   10.4284  -20.2048   22.3422 O   0  0  0  0  0  0  0  0  0  0  0  0
    8.1423  -12.6722   27.2825 C   0  0  0  0  0  0  0  0  0  0  0  0
    7.7139  -13.6562   26.2125 C   0  0  1  0  0  0  0  0  0  0  0  0
    7.2668  -12.9442   25.0859 O   0  0  0  0  0  0  0  0  0  0  0  0
    8.9130  -14.4825   25.8363 C   0  0  2  0  0  0  0  0  0  0  0  0
    8.5318  -15.3324   24.7038 N   0  0  0  0  0  0  0  0  0  0  0  0
    9.3563  -15.3342   26.9859 C   0  0  0  0  0  0  0  0  0  0  0  0
   10.0357  -14.7881   28.0613 O   0  0  0  0  0  0  0  0  0  0  0  0
    9.1212  -16.5688   27.0019 O   0  0  0  0  0  0  0  0  0  0  0  0
  2  4  1  0
  2  1  1  6
  3  2  1  0
  4  6  1  0
  5  4  2  0
  6  7  1  0
  7 12  1  0
  8  9  1  0
  7  8  1  6
 10 14  1  0
 10  9  1  0
 11 10  2  0
 12 13  2  0
 12 19  1  0
 16 15  1  1
 17 16  1  0
 18 16  1  0
 18 20  1  0
 18 19  1  6
 20 21  1  0
 22 20  2  0
M  END
$$$$
