AET.pdb
     RDKit          3D

 22 21  0  0  1  0  0  0  0  0999 V2000
    7.6708  -12.5486   19.8332 C   0  0  0  0  0  0  0  0  0  0  0  0
    8.0207  -13.9950   19.5504 C   0  0  2  0  0  0  0  0  0  0  0  0
    7.0992  -14.5687   18.5979 N   0  0  0  0  0  0  0  0  0  0  0  0
    7.9188  -14.7091   20.8792 C   0  0  0  0  0  0  0  0  0  0  0  0
    6.7824  -14.8693   21.3741 O   0  0  0  0  0  0  0  0  0  0  0  0
    9.0700  -15.1791   21.5390 N   0  0  0  0  0  0  0  0  0  0  0  0
    9.1832  -15.7645   22.8250 C   0  0  1  0  0  0  0  0  0  0  0  0
   10.3294  -16.7628   23.0006 C   0  0  0  0  0  0  0  0  0  0  0  0
   10.0427  -17.9938   22.1786 C   0  0  0  0  0  0  0  0  0  0  0  0
   11.1732  -18.9588   22.2784 C   0  0  0  0  0  0  0  0  0  0  0  0
   11.1131  -19.9413   23.0593 O   0  0  0  0  0  0  0  0  0  0  0  0
    9.1276  -14.8586   23.9564 C   0  0  0  0  0  0  0  0  0  0  0  0
    9.9614  -13.9063   24.0435 O   0  0  0  0  0  0  0  0  0  0  0  0
   12.2844  -18.7647   21.5071 O   0  0  0  0  0  0  0  0  0  0  0  0
    6.6748  -12.2497   27.0379 C   0  0  0  0  0  0  0  0  0  0  0  0
    6.7032  -13.4382   26.0978 C   0  0  1  0  0  0  0  0  0  0  0  0
    6.2773  -13.0262   24.8231 O   0  0  0  0  0  0  0  0  0  0  0  0
    8.1224  -13.9291   26.0147 C   0  0  2  0  0  0  0  0  0  0  0  0
    8.1721  -14.9796   24.9928 N   0  0  0  0  0  0  0  0  0  0  0  0
    8.5754  -14.4784   27.3325 C   0  0  0  0  0  0  0  0  0  0  0  0
    8.8109  -13.6453   28.4125 O   0  0  0  0  0  0  0  0  0  0  0  0
    8.7528  -15.7127   27.4897 O   0  0  0  0  0  0  0  0  0  0  0  0
  2  4  1  0
  2  1  1  1
  3  2  1  0
  4  6  1  0
  5  4  2  0
  6  7  1  0
  7 12  1  0
  8  9  1  0
  7  8  1  6
 10 14  1  0
 10  9  1  0
 11 10  2  0
 12 13  2  0
 12 19  1  0
 16 15  1  1
 17 16  1  0
 18 16  1  0
 18 20  1  0
 18 19  1  6
 20 21  1  0
 22 20  2  0
M  END
$$$$
