AET.pdb
     RDKit          3D

 22 21  0  0  1  0  0  0  0  0999 V2000
    7.8629  -12.2881   19.8064 C   0  0  0  0  0  0  0  0  0  0  0  0
    8.3238  -13.5827   19.1692 C   0  0  2  0  0  0  0  0  0  0  0  0
    7.4741  -13.9376   18.0568 N   0  0  0  0  0  0  0  0  0  0  0  0
    8.2349  -14.6295   20.2564 C   0  0  0  0  0  0  0  0  0  0  0  0
    7.1299  -15.1793   20.4531 O   0  0  0  0  0  0  0  0  0  0  0  0
    9.3633  -14.9742   21.0241 N   0  0  0  0  0  0  0  0  0  0  0  0
    9.4748  -15.9307   22.0642 C   0  0  1  0  0  0  0  0  0  0  0  0
   10.6126  -16.9428   21.9152 C   0  0  0  0  0  0  0  0  0  0  0  0
   10.4393  -17.6938   20.6194 C   0  0  0  0  0  0  0  0  0  0  0  0
   11.5459  -18.6742   20.4364 C   0  0  0  0  0  0  0  0  0  0  0  0
   11.4552  -19.8398   20.8966 O   0  0  0  0  0  0  0  0  0  0  0  0
    9.4302  -15.4204   23.4213 C   0  0  0  0  0  0  0  0  0  0  0  0
   10.3341  -14.6280   23.8272 O   0  0  0  0  0  0  0  0  0  0  0  0
   12.6689  -18.2918   19.7581 O   0  0  0  0  0  0  0  0  0  0  0  0
    6.9258  -13.3933   25.2928 C   0  0  0  0  0  0  0  0  0  0  0  0
    7.1345  -14.6836   26.0599 C   0  0  1  0  0  0  0  0  0  0  0  0
    6.1490  -15.6101   25.6774 O   0  0  0  0  0  0  0  0  0  0  0  0
    8.4917  -15.2222   25.6996 C   0  0  2  0  0  0  0  0  0  0  0  0
    8.4102  -15.7642   24.3395 N   0  0  0  0  0  0  0  0  0  0  0  0
    8.9089  -16.2995   26.6530 C   0  0  0  0  0  0  0  0  0  0  0  0
    9.1527  -16.0201   27.9867 O   0  0  0  0  0  0  0  0  0  0  0  0
    9.0478  -17.4865   26.2638 O   0  0  0  0  0  0  0  0  0  0  0  0
  2  4  1  0
  2  1  1  1
  3  2  1  0
  4  6  1  0
  5  4  2  0
  6  7  1  0
  7 12  1  0
  8  9  1  0
  7  8  1  6
 10 14  1  0
 10  9  1  0
 11 10  2  0
 12 13  2  0
 12 19  1  0
 16 15  1  6
 17 16  1  0
 18 16  1  0
 18 20  1  0
 18 19  1  6
 20 21  1  0
 22 20  2  0
M  END
$$$$
