AET.pdb
     RDKit          3D

 22 21  0  0  1  0  0  0  0  0999 V2000
    7.9416  -12.4416   19.7814 C   0  0  0  0  0  0  0  0  0  0  0  0
    8.0248  -13.9344   19.5381 C   0  0  2  0  0  0  0  0  0  0  0  0
    6.8977  -14.3905   18.7590 N   0  0  0  0  0  0  0  0  0  0  0  0
    8.0133  -14.5745   20.9077 C   0  0  0  0  0  0  0  0  0  0  0  0
    6.9358  -14.5874   21.5409 O   0  0  0  0  0  0  0  0  0  0  0  0
    9.1818  -15.1390   21.4533 N   0  0  0  0  0  0  0  0  0  0  0  0
    9.3540  -15.8078   22.6912 C   0  0  1  0  0  0  0  0  0  0  0  0
   10.5567  -16.7500   22.7742 C   0  0  0  0  0  0  0  0  0  0  0  0
   10.4018  -17.8406   21.7449 C   0  0  0  0  0  0  0  0  0  0  0  0
   11.5869  -18.7431   21.7635 C   0  0  0  0  0  0  0  0  0  0  0  0
   11.6223  -19.7427   22.5239 O   0  0  0  0  0  0  0  0  0  0  0  0
    9.2725  -14.9897   23.8863 C   0  0  0  0  0  0  0  0  0  0  0  0
   10.0900  -14.0341   24.0535 O   0  0  0  0  0  0  0  0  0  0  0  0
   12.6431  -18.4724   20.9397 O   0  0  0  0  0  0  0  0  0  0  0  0
    6.7094  -12.6627   27.1090 C   0  0  0  0  0  0  0  0  0  0  0  0
    6.7879  -13.7590   26.0656 C   0  0  1  0  0  0  0  0  0  0  0  0
    6.3958  -13.2374   24.8205 O   0  0  0  0  0  0  0  0  0  0  0  0
    8.2171  -14.2203   25.9851 C   0  0  2  0  0  0  0  0  0  0  0  0
    8.3087  -15.2024   24.9000 N   0  0  0  0  0  0  0  0  0  0  0  0
    8.6499  -14.8453   27.2756 C   0  0  0  0  0  0  0  0  0  0  0  0
    8.8917  -14.0736   28.3991 O   0  0  0  0  0  0  0  0  0  0  0  0
    8.8042  -16.0891   27.3697 O   0  0  0  0  0  0  0  0  0  0  0  0
  2  4  1  0
  2  1  1  1
  3  2  1  0
  4  6  1  0
  5  4  2  0
  6  7  1  0
  7 12  1  0
  8  9  1  0
  7  8  1  6
 10 14  1  0
 10  9  1  0
 11 10  2  0
 12 13  2  0
 12 19  1  0
 16 15  1  1
 17 16  1  0
 18 16  1  0
 18 20  1  0
 18 19  1  6
 20 21  1  0
 22 20  2  0
M  END
$$$$
