AET.pdb
     RDKit          3D

 22 21  0  0  1  0  0  0  0  0999 V2000
    8.0362  -12.4217   19.4598 C   0  0  0  0  0  0  0  0  0  0  0  0
    7.9686  -13.9297   19.3341 C   0  0  2  0  0  0  0  0  0  0  0  0
    6.8070  -14.3294   18.5748 N   0  0  0  0  0  0  0  0  0  0  0  0
    7.8810  -14.4557   20.7488 C   0  0  0  0  0  0  0  0  0  0  0  0
    6.7609  -14.4661   21.3032 O   0  0  0  0  0  0  0  0  0  0  0  0
    9.0273  -14.9198   21.4213 N   0  0  0  0  0  0  0  0  0  0  0  0
    9.1200  -15.5812   22.6716 C   0  0  1  0  0  0  0  0  0  0  0  0
   10.2570  -16.5969   22.8018 C   0  0  0  0  0  0  0  0  0  0  0  0
   10.1464  -17.2942   24.1339 C   0  0  0  0  0  0  0  0  0  0  0  0
   11.2698  -18.2565   24.3102 C   0  0  0  0  0  0  0  0  0  0  0  0
   12.3918  -17.8672   24.7202 O   0  0  0  0  0  0  0  0  0  0  0  0
    9.0563  -14.7434   23.8540 C   0  0  0  0  0  0  0  0  0  0  0  0
    9.8742  -13.7834   23.9917 O   0  0  0  0  0  0  0  0  0  0  0  0
   11.0675  -19.5766   24.0202 O   0  0  0  0  0  0  0  0  0  0  0  0
    6.6113  -12.3746   27.1373 C   0  0  0  0  0  0  0  0  0  0  0  0
    6.6540  -13.4322   26.0526 C   0  0  1  0  0  0  0  0  0  0  0  0
    6.3107  -12.8438   24.8231 O   0  0  0  0  0  0  0  0  0  0  0  0
    8.0598  -13.9613   25.9768 C   0  0  2  0  0  0  0  0  0  0  0  0
    8.1097  -14.9410   24.8869 N   0  0  0  0  0  0  0  0  0  0  0  0
    8.4553  -14.6130   27.2661 C   0  0  0  0  0  0  0  0  0  0  0  0
    8.8011  -15.9525   27.3146 O   0  0  0  0  0  0  0  0  0  0  0  0
    8.4830  -13.9572   28.3380 O   0  0  0  0  0  0  0  0  0  0  0  0
  2  4  1  0
  2  1  1  1
  3  2  1  0
  4  6  1  0
  5  4  2  0
  6  7  1  0
  7 12  1  0
  8  9  1  0
  7  8  1  6
 10 14  1  0
 10  9  1  0
 11 10  2  0
 12 13  2  0
 12 19  1  0
 16 15  1  1
 17 16  1  0
 18 16  1  0
 18 20  1  0
 18 19  1  6
 20 21  1  0
 22 20  2  0
M  END
$$$$
