AET.pdb
     RDKit          3D

 22 21  0  0  1  0  0  0  0  0999 V2000
    7.2016  -13.0338   18.8100 C   0  0  0  0  0  0  0  0  0  0  0  0
    8.4542  -13.1335   19.6559 C   0  0  2  0  0  0  0  0  0  0  0  0
    9.4392  -13.9741   19.0165 N   0  0  0  0  0  0  0  0  0  0  0  0
    8.0152  -13.7402   20.9693 C   0  0  0  0  0  0  0  0  0  0  0  0
    7.1097  -13.1632   21.6090 O   0  0  0  0  0  0  0  0  0  0  0  0
    8.6091  -14.9197   21.4567 N   0  0  0  0  0  0  0  0  0  0  0  0
    8.3321  -15.6279   22.6530 C   0  0  1  0  0  0  0  0  0  0  0  0
    8.7686  -17.0943   22.6717 C   0  0  0  0  0  0  0  0  0  0  0  0
    8.2865  -17.7693   21.4127 C   0  0  0  0  0  0  0  0  0  0  0  0
    8.8197  -19.1581   21.3323 C   0  0  0  0  0  0  0  0  0  0  0  0
    9.6171  -19.5922   22.2008 O   0  0  0  0  0  0  0  0  0  0  0  0
    8.7065  -14.9759   23.8934 C   0  0  0  0  0  0  0  0  0  0  0  0
    9.8876  -14.5378   24.0442 O   0  0  0  0  0  0  0  0  0  0  0  0
    8.4306  -19.9619   20.2979 O   0  0  0  0  0  0  0  0  0  0  0  0
    7.0232  -12.0037   25.6387 C   0  0  0  0  0  0  0  0  0  0  0  0
    7.1345  -13.1696   26.6006 C   0  0  1  0  0  0  0  0  0  0  0  0
    5.9377  -13.9063   26.5704 O   0  0  0  0  0  0  0  0  0  0  0  0
    8.2692  -14.0429   26.1404 C   0  0  2  0  0  0  0  0  0  0  0  0
    7.8066  -14.7959   24.9702 N   0  0  0  0  0  0  0  0  0  0  0  0
    8.6868  -14.9901   27.2230 C   0  0  0  0  0  0  0  0  0  0  0  0
    9.1919  -14.5255   28.4252 O   0  0  0  0  0  0  0  0  0  0  0  0
    8.5881  -16.2332   27.0655 O   0  0  0  0  0  0  0  0  0  0  0  0
  2  4  1  0
  2  1  1  6
  3  2  1  0
  4  6  1  0
  5  4  2  0
  6  7  1  0
  7 12  1  0
  8  9  1  0
  7  8  1  6
 10 14  1  0
 10  9  1  0
 11 10  2  0
 12 13  2  0
 12 19  1  0
 16 15  1  6
 17 16  1  0
 18 16  1  0
 18 20  1  0
 18 19  1  6
 20 21  1  0
 22 20  2  0
M  END
$$$$
