AET.pdb
     RDKit          3D

 22 21  0  0  1  0  0  0  0  0999 V2000
    6.8946  -14.4416   20.5071 C   0  0  0  0  0  0  0  0  0  0  0  0
    8.3018  -14.0910   20.9447 C   0  0  2  0  0  0  0  0  0  0  0  0
    9.2720  -14.5855   19.9962 N   0  0  0  0  0  0  0  0  0  0  0  0
    8.4911  -14.7565   22.2890 C   0  0  0  0  0  0  0  0  0  0  0  0
    7.6049  -14.5933   23.1550 O   0  0  0  0  0  0  0  0  0  0  0  0
    9.6319  -15.5365   22.5568 N   0  0  0  0  0  0  0  0  0  0  0  0
    9.9852  -16.2184   23.7482 C   0  0  1  0  0  0  0  0  0  0  0  0
   11.0409  -17.3155   23.5962 C   0  0  0  0  0  0  0  0  0  0  0  0
   10.7232  -18.1411   22.3754 C   0  0  0  0  0  0  0  0  0  0  0  0
   11.8224  -19.1093   22.1038 C   0  0  0  0  0  0  0  0  0  0  0  0
   12.0082  -20.0988   22.8555 O   0  0  0  0  0  0  0  0  0  0  0  0
   10.2804  -15.3930   24.9039 C   0  0  0  0  0  0  0  0  0  0  0  0
   11.2653  -14.5939   24.8732 O   0  0  0  0  0  0  0  0  0  0  0  0
   12.6327  -18.9104   21.0216 O   0  0  0  0  0  0  0  0  0  0  0  0
    8.7592  -12.5472   26.3043 C   0  0  0  0  0  0  0  0  0  0  0  0
    8.7373  -13.5821   27.4113 C   0  0  1  0  0  0  0  0  0  0  0  0
    7.5280  -14.2961   27.3492 O   0  0  0  0  0  0  0  0  0  0  0  0
    9.8858  -14.5265   27.1852 C   0  0  2  0  0  0  0  0  0  0  0  0
    9.5126  -15.4294   26.0917 N   0  0  0  0  0  0  0  0  0  0  0  0
   10.1775  -15.3183   28.4226 C   0  0  0  0  0  0  0  0  0  0  0  0
   10.5830  -14.6970   29.5912 O   0  0  0  0  0  0  0  0  0  0  0  0
   10.0604  -16.5697   28.4298 O   0  0  0  0  0  0  0  0  0  0  0  0
  2  4  1  0
  2  1  1  6
  3  2  1  0
  4  6  1  0
  5  4  2  0
  6  7  1  0
  7 12  1  0
  8  9  1  0
  7  8  1  6
 10 14  1  0
 10  9  1  0
 11 10  2  0
 12 13  2  0
 12 19  1  0
 16 15  1  6
 17 16  1  0
 18 16  1  0
 18 20  1  0
 18 19  1  6
 20 21  1  0
 22 20  2  0
M  END
$$$$
