AET.pdb
     RDKit          3D

 22 21  0  0  1  0  0  0  0  0999 V2000
    6.9491  -12.9282   19.1071 C   0  0  0  0  0  0  0  0  0  0  0  0
    8.3214  -13.0267   19.7408 C   0  0  2  0  0  0  0  0  0  0  0  0
    9.2088  -13.8187   18.9217 N   0  0  0  0  0  0  0  0  0  0  0  0
    8.1073  -13.6912   21.0818 C   0  0  0  0  0  0  0  0  0  0  0  0
    7.2764  -13.1813   21.8638 O   0  0  0  0  0  0  0  0  0  0  0  0
    8.8230  -14.8497   21.4387 N   0  0  0  0  0  0  0  0  0  0  0  0
    8.7427  -15.6150   22.6291 C   0  0  1  0  0  0  0  0  0  0  0  0
    9.4767  -16.9574   22.6052 C   0  0  0  0  0  0  0  0  0  0  0  0
    9.1973  -17.6962   23.8893 C   0  0  0  0  0  0  0  0  0  0  0  0
    9.9378  -18.9885   23.9157 C   0  0  0  0  0  0  0  0  0  0  0  0
   10.0341  -19.6531   24.9776 O   0  0  0  0  0  0  0  0  0  0  0  0
    9.0160  -14.9144   23.8694 C   0  0  0  0  0  0  0  0  0  0  0  0
   10.1360  -14.3427   24.0373 O   0  0  0  0  0  0  0  0  0  0  0  0
   10.5157  -19.4484   22.7658 O   0  0  0  0  0  0  0  0  0  0  0  0
    6.8923  -12.1595   25.5060 C   0  0  0  0  0  0  0  0  0  0  0  0
    7.1551  -13.2728   26.5002 C   0  0  1  0  0  0  0  0  0  0  0  0
    6.0781  -14.1758   26.4744 O   0  0  0  0  0  0  0  0  0  0  0  0
    8.4117  -13.9835   26.0782 C   0  0  2  0  0  0  0  0  0  0  0  0
    8.0806  -14.8301   24.9277 N   0  0  0  0  0  0  0  0  0  0  0  0
    8.9483  -14.8269   27.1937 C   0  0  0  0  0  0  0  0  0  0  0  0
    9.3692  -14.2574   28.3831 O   0  0  0  0  0  0  0  0  0  0  0  0
    9.0292  -16.0756   27.0762 O   0  0  0  0  0  0  0  0  0  0  0  0
  2  4  1  0
  2  1  1  6
  3  2  1  0
  4  6  1  0
  5  4  2  0
  6  7  1  0
  7 12  1  0
  8  9  1  0
  7  8  1  6
 10 14  1  0
 10  9  1  0
 11 10  2  0
 12 13  2  0
 12 19  1  0
 16 15  1  6
 17 16  1  0
 18 16  1  0
 18 20  1  0
 18 19  1  6
 20 21  1  0
 22 20  2  0
M  END
$$$$
