AET.pdb
     RDKit          3D

 22 21  0  0  1  0  0  0  0  0999 V2000
    7.1189  -12.9867   18.8690 C   0  0  0  0  0  0  0  0  0  0  0  0
    8.4492  -13.2477   19.5449 C   0  0  2  0  0  0  0  0  0  0  0  0
    9.2508  -14.1603   18.7639 N   0  0  0  0  0  0  0  0  0  0  0  0
    8.1146  -13.8557   20.8881 C   0  0  0  0  0  0  0  0  0  0  0  0
    7.4231  -13.1821   21.6817 O   0  0  0  0  0  0  0  0  0  0  0  0
    8.5690  -15.1424   21.2341 N   0  0  0  0  0  0  0  0  0  0  0  0
    8.4289  -15.8362   22.4622 C   0  0  1  0  0  0  0  0  0  0  0  0
    9.1597  -17.1774   22.5532 C   0  0  0  0  0  0  0  0  0  0  0  0
    8.8959  -17.7931   23.9039 C   0  0  0  0  0  0  0  0  0  0  0  0
    9.6485  -19.0707   24.0472 C   0  0  0  0  0  0  0  0  0  0  0  0
   10.3891  -19.4882   23.1221 O   0  0  0  0  0  0  0  0  0  0  0  0
    8.6436  -15.0635   23.6709 C   0  0  0  0  0  0  0  0  0  0  0  0
    9.7544  -14.4798   23.8574 O   0  0  0  0  0  0  0  0  0  0  0  0
    9.5256  -19.7899   25.2027 O   0  0  0  0  0  0  0  0  0  0  0  0
    6.7829  -12.1202   26.9724 C   0  0  0  0  0  0  0  0  0  0  0  0
    6.5440  -13.2732   26.0183 C   0  0  1  0  0  0  0  0  0  0  0  0
    5.9831  -12.7769   24.8287 O   0  0  0  0  0  0  0  0  0  0  0  0
    7.8739  -13.9071   25.7157 C   0  0  2  0  0  0  0  0  0  0  0  0
    7.6595  -14.9201   24.6773 N   0  0  0  0  0  0  0  0  0  0  0  0
    8.4511  -14.5474   26.9406 C   0  0  0  0  0  0  0  0  0  0  0  0
    8.6776  -15.9119   26.9960 O   0  0  0  0  0  0  0  0  0  0  0  0
    8.7448  -13.8591   27.9503 O   0  0  0  0  0  0  0  0  0  0  0  0
  2  4  1  0
  2  1  1  6
  3  2  1  0
  4  6  1  0
  5  4  2  0
  6  7  1  0
  7 12  1  0
  8  9  1  0
  7  8  1  6
 10 14  1  0
 10  9  1  0
 11 10  2  0
 12 13  2  0
 12 19  1  0
 16 15  1  1
 17 16  1  0
 18 16  1  0
 18 20  1  0
 18 19  1  6
 20 21  1  0
 22 20  2  0
M  END
$$$$
