AET.pdb
     RDKit          3D

 22 21  0  0  1  0  0  0  0  0999 V2000
    8.0343  -12.2571   19.6224 C   0  0  0  0  0  0  0  0  0  0  0  0
    8.0830  -13.7488   19.3637 C   0  0  2  0  0  0  0  0  0  0  0  0
    7.0228  -14.1489   18.4686 N   0  0  0  0  0  0  0  0  0  0  0  0
    7.9093  -14.4053   20.7145 C   0  0  0  0  0  0  0  0  0  0  0  0
    6.7914  -14.3238   21.2676 O   0  0  0  0  0  0  0  0  0  0  0  0
    8.9752  -15.0877   21.3307 N   0  0  0  0  0  0  0  0  0  0  0  0
    8.9998  -15.7604   22.5782 C   0  0  1  0  0  0  0  0  0  0  0  0
   10.0526  -16.8620   22.7168 C   0  0  0  0  0  0  0  0  0  0  0  0
    9.7931  -17.9266   21.6813 C   0  0  0  0  0  0  0  0  0  0  0  0
   10.8558  -18.9693   21.7321 C   0  0  0  0  0  0  0  0  0  0  0  0
   10.8057  -19.8982   22.5767 O   0  0  0  0  0  0  0  0  0  0  0  0
    8.9858  -14.9260   23.7646 C   0  0  0  0  0  0  0  0  0  0  0  0
    9.8676  -14.0261   23.9132 O   0  0  0  0  0  0  0  0  0  0  0  0
   11.8934  -18.9064   20.8450 O   0  0  0  0  0  0  0  0  0  0  0  0
    6.5922  -12.4919   27.0801 C   0  0  0  0  0  0  0  0  0  0  0  0
    6.5934  -13.5897   26.0352 C   0  0  1  0  0  0  0  0  0  0  0  0
    6.1311  -13.0643   24.8161 O   0  0  0  0  0  0  0  0  0  0  0  0
    8.0095  -14.0675   25.8671 C   0  0  2  0  0  0  0  0  0  0  0  0
    8.0200  -15.0620   24.7895 N   0  0  0  0  0  0  0  0  0  0  0  0
    8.5190  -14.6835   27.1338 C   0  0  0  0  0  0  0  0  0  0  0  0
    8.8938  -13.8992   28.2111 O   0  0  0  0  0  0  0  0  0  0  0  0
    8.6186  -15.9311   27.2493 O   0  0  0  0  0  0  0  0  0  0  0  0
  2  4  1  0
  2  1  1  1
  3  2  1  0
  4  6  1  0
  5  4  2  0
  6  7  1  0
  7 12  1  0
  8  9  1  0
  7  8  1  6
 10 14  1  0
 10  9  1  0
 11 10  2  0
 12 13  2  0
 12 19  1  0
 16 15  1  1
 17 16  1  0
 18 16  1  0
 18 20  1  0
 18 19  1  6
 20 21  1  0
 22 20  2  0
M  END
$$$$
