AET.pdb
     RDKit          3D

 22 21  0  0  1  0  0  0  0  0999 V2000
    7.8569  -12.2974   19.5209 C   0  0  0  0  0  0  0  0  0  0  0  0
    8.0584  -13.7785   19.2760 C   0  0  2  0  0  0  0  0  0  0  0  0
    7.0631  -14.2871   18.3616 N   0  0  0  0  0  0  0  0  0  0  0  0
    7.9202  -14.4405   20.6282 C   0  0  0  0  0  0  0  0  0  0  0  0
    6.7682  -14.6329   21.0728 O   0  0  0  0  0  0  0  0  0  0  0  0
    9.0558  -14.8282   21.3642 N   0  0  0  0  0  0  0  0  0  0  0  0
    9.1229  -15.5100   22.6052 C   0  0  1  0  0  0  0  0  0  0  0  0
   10.2401  -16.5477   22.7321 C   0  0  0  0  0  0  0  0  0  0  0  0
   10.0749  -17.2953   24.0309 C   0  0  0  0  0  0  0  0  0  0  0  0
   11.1047  -18.3653   24.1480 C   0  0  0  0  0  0  0  0  0  0  0  0
   11.1560  -19.1001   25.1659 O   0  0  0  0  0  0  0  0  0  0  0  0
    9.0609  -14.6892   23.7995 C   0  0  0  0  0  0  0  0  0  0  0  0
    9.8650  -13.7179   23.9398 O   0  0  0  0  0  0  0  0  0  0  0  0
   11.9998  -18.5422   23.1306 O   0  0  0  0  0  0  0  0  0  0  0  0
    6.6127  -12.4652   27.2054 C   0  0  0  0  0  0  0  0  0  0  0  0
    6.6757  -13.4334   26.0411 C   0  0  1  0  0  0  0  0  0  0  0  0
    6.3529  -12.7492   24.8564 O   0  0  0  0  0  0  0  0  0  0  0  0
    8.0834  -13.9547   25.9480 C   0  0  2  0  0  0  0  0  0  0  0  0
    8.1311  -14.9158   24.8415 N   0  0  0  0  0  0  0  0  0  0  0  0
    8.4896  -14.6261   27.2238 C   0  0  0  0  0  0  0  0  0  0  0  0
    8.8701  -13.8882   28.3314 O   0  0  0  0  0  0  0  0  0  0  0  0
    8.4946  -15.8793   27.3196 O   0  0  0  0  0  0  0  0  0  0  0  0
  2  4  1  0
  2  1  1  1
  3  2  1  0
  4  6  1  0
  5  4  2  0
  6  7  1  0
  7 12  1  0
  8  9  1  0
  7  8  1  6
 10 14  1  0
 10  9  1  0
 11 10  2  0
 12 13  2  0
 12 19  1  0
 16 15  1  1
 17 16  1  0
 18 16  1  0
 18 20  1  0
 18 19  1  6
 20 21  1  0
 22 20  2  0
M  END
$$$$
