GGF.pdb
     RDKit          3D

 20 20  0  0  1  0  0  0  0  0999 V2000
   27.5466  -19.7179  -17.8489 N   0  0  0  0  0  0  0  0  0  0  0  0
   27.1185  -18.4389  -17.4194 C   0  0  0  0  0  0  0  0  0  0  0  0
   27.0936  -18.4205  -15.9230 C   0  0  0  0  0  0  0  0  0  0  0  0
   26.2893  -17.6932  -15.2814 O   0  0  0  0  0  0  0  0  0  0  0  0
   27.9854  -19.2309  -15.1664 N   0  0  0  0  0  0  0  0  0  0  0  0
   28.0394  -19.1785  -13.7280 C   0  0  0  0  0  0  0  0  0  0  0  0
   27.0168  -20.1325  -13.1817 C   0  0  0  0  0  0  0  0  0  0  0  0
   26.3734  -20.9171  -13.9443 O   0  0  0  0  0  0  0  0  0  0  0  0
   26.7163  -20.2091  -11.7994 N   0  0  0  0  0  0  0  0  0  0  0  0
   25.8887  -21.2396  -11.2349 C   0  0  1  0  0  0  0  0  0  0  0  0
   26.5320  -21.9477  -10.0712 C   0  0  0  0  0  0  0  0  0  0  0  0
   27.0551  -21.0263   -9.0518 C   0  0  0  0  0  0  0  0  0  0  0  0
   26.2229  -20.1417   -8.3997 C   0  0  0  0  0  0  0  0  0  0  0  0
   26.7076  -19.2633   -7.4315 C   0  0  0  0  0  0  0  0  0  0  0  0
   28.0385  -19.2503   -7.0933 C   0  0  0  0  0  0  0  0  0  0  0  0
   28.8782  -20.1309   -7.7397 C   0  0  0  0  0  0  0  0  0  0  0  0
   28.3893  -20.9981   -8.6982 C   0  0  0  0  0  0  0  0  0  0  0  0
   24.5857  -20.6383  -10.8620 C   0  0  0  0  0  0  0  0  0  0  0  0
   24.4044  -19.3925  -10.8030 O   0  0  0  0  0  0  0  0  0  0  0  0
   23.4786  -21.4304  -10.5531 O   0  0  0  0  0  0  0  0  0  0  0  0
  2  1  1  0
  3  2  1  0
  4  3  2  0
  5  3  1  0
  6  5  1  0
  7  8  2  0
  7  6  1  0
  9  7  1  0
 10  9  1  0
 10 11  1  1
 11 12  1  0
 12 17  2  0
 12 13  1  0
 13 14  2  0
 14 15  1  0
 16 15  2  0
 17 16  1  0
 18 10  1  0
 19 18  2  0
 20 18  1  0
M  END
$$$$
