GGF.pdb
     RDKit          3D

 20 20  0  0  1  0  0  0  0  0999 V2000
   14.3491  -10.8721  -17.8317 N   0  0  0  0  0  0  0  0  0  0  0  0
   14.8815   -9.5750  -17.6377 C   0  0  0  0  0  0  0  0  0  0  0  0
   16.1993   -9.6985  -16.9388 C   0  0  0  0  0  0  0  0  0  0  0  0
   17.1798   -8.9655  -17.2365 O   0  0  0  0  0  0  0  0  0  0  0  0
   16.3921  -10.6567  -15.9048 N   0  0  0  0  0  0  0  0  0  0  0  0
   17.6689  -10.8551  -15.2687 C   0  0  0  0  0  0  0  0  0  0  0  0
   17.8670   -9.7642  -14.2562 C   0  0  0  0  0  0  0  0  0  0  0  0
   16.8877   -9.2757  -13.6133 O   0  0  0  0  0  0  0  0  0  0  0  0
   19.1445   -9.2253  -13.9651 N   0  0  0  0  0  0  0  0  0  0  0  0
   19.3419   -8.1250  -13.0620 C   0  0  1  0  0  0  0  0  0  0  0  0
   20.5711   -8.2735  -12.2037 C   0  0  0  0  0  0  0  0  0  0  0  0
   20.7423   -7.1724  -11.2445 C   0  0  0  0  0  0  0  0  0  0  0  0
   21.4937   -6.0618  -11.5646 C   0  0  0  0  0  0  0  0  0  0  0  0
   21.6631   -5.0117  -10.6632 C   0  0  0  0  0  0  0  0  0  0  0  0
   21.0833   -5.0492   -9.4190 C   0  0  0  0  0  0  0  0  0  0  0  0
   20.3304   -6.1551   -9.0899 C   0  0  0  0  0  0  0  0  0  0  0  0
   20.1677   -7.1916   -9.9894 C   0  0  0  0  0  0  0  0  0  0  0  0
   19.3710   -6.8719  -13.8540 C   0  0  0  0  0  0  0  0  0  0  0  0
   19.8650   -6.8114  -15.0119 O   0  0  0  0  0  0  0  0  0  0  0  0
   18.8465   -5.6796  -13.3523 O   0  0  0  0  0  0  0  0  0  0  0  0
  2  1  1  0
  3  2  1  0
  4  3  2  0
  5  3  1  0
  6  5  1  0
  7  8  2  0
  7  6  1  0
  9  7  1  0
 10  9  1  0
 10 11  1  6
 11 12  1  0
 12 17  2  0
 12 13  1  0
 13 14  2  0
 14 15  1  0
 16 15  2  0
 17 16  1  0
 18 10  1  0
 19 18  2  0
 20 18  1  0
M  END
$$$$
