GGF.pdb
     RDKit          3D

 20 20  0  0  1  0  0  0  0  0999 V2000
   27.5600  -19.2421  -15.4654 N   0  0  0  0  0  0  0  0  0  0  0  0
   27.2445  -18.5199  -14.2896 C   0  0  0  0  0  0  0  0  0  0  0  0
   26.9676  -19.4956  -13.1889 C   0  0  0  0  0  0  0  0  0  0  0  0
   25.8929  -20.1511  -13.1377 O   0  0  0  0  0  0  0  0  0  0  0  0
   27.9171  -19.7187  -12.1529 N   0  0  0  0  0  0  0  0  0  0  0  0
   28.3358  -21.0412  -11.7654 C   0  0  0  0  0  0  0  0  0  0  0  0
   27.7635  -21.3398  -10.4098 C   0  0  0  0  0  0  0  0  0  0  0  0
   27.9406  -22.4668   -9.8532 O   0  0  0  0  0  0  0  0  0  0  0  0
   27.0023  -20.3906   -9.6843 N   0  0  0  0  0  0  0  0  0  0  0  0
   26.1589  -20.7465   -8.5764 C   0  0  1  0  0  0  0  0  0  0  0  0
   26.1552  -19.7162   -7.4772 C   0  0  0  0  0  0  0  0  0  0  0  0
   27.3001  -19.8425   -6.5632 C   0  0  0  0  0  0  0  0  0  0  0  0
   28.1977  -18.8088   -6.4019 C   0  0  0  0  0  0  0  0  0  0  0  0
   29.2869  -18.9172   -5.5382 C   0  0  0  0  0  0  0  0  0  0  0  0
   29.5027  -20.0646   -4.8152 C   0  0  0  0  0  0  0  0  0  0  0  0
   28.6109  -21.1033   -4.9698 C   0  0  0  0  0  0  0  0  0  0  0  0
   27.5340  -20.9874   -5.8281 C   0  0  0  0  0  0  0  0  0  0  0  0
   24.7938  -21.0045   -9.0942 C   0  0  0  0  0  0  0  0  0  0  0  0
   24.4318  -20.6669  -10.2533 O   0  0  0  0  0  0  0  0  0  0  0  0
   23.8269  -21.6426   -8.3156 O   0  0  0  0  0  0  0  0  0  0  0  0
  2  1  1  0
  3  2  1  0
  4  3  2  0
  5  3  1  0
  6  5  1  0
  7  8  2  0
  7  6  1  0
  9  7  1  0
 10  9  1  0
 10 11  1  1
 11 12  1  0
 12 17  2  0
 12 13  1  0
 13 14  2  0
 14 15  1  0
 16 15  2  0
 17 16  1  0
 18 10  1  0
 19 18  2  0
 20 18  1  0
M  END
$$$$
