GGF.pdb
     RDKit          3D

 20 20  0  0  1  0  0  0  0  0999 V2000
   24.6069  -23.4733  -16.8671 N   0  0  0  0  0  0  0  0  0  0  0  0
   24.5632  -22.1386  -16.3979 C   0  0  0  0  0  0  0  0  0  0  0  0
   23.7723  -22.1040  -15.1276 C   0  0  0  0  0  0  0  0  0  0  0  0
   23.6654  -23.1157  -14.3845 O   0  0  0  0  0  0  0  0  0  0  0  0
   23.1079  -20.9165  -14.7116 N   0  0  0  0  0  0  0  0  0  0  0  0
   22.5520  -20.7689  -13.3912 C   0  0  0  0  0  0  0  0  0  0  0  0
   23.6366  -20.2837  -12.4733 C   0  0  0  0  0  0  0  0  0  0  0  0
   23.6611  -19.0846  -12.0578 O   0  0  0  0  0  0  0  0  0  0  0  0
   24.6817  -21.1283  -12.0245 N   0  0  0  0  0  0  0  0  0  0  0  0
   25.7637  -20.6637  -11.2007 C   0  0  1  0  0  0  0  0  0  0  0  0
   25.8408  -21.3648   -9.8695 C   0  0  0  0  0  0  0  0  0  0  0  0
   26.8550  -20.7914   -8.9726 C   0  0  0  0  0  0  0  0  0  0  0  0
   26.5227  -19.8187   -8.0540 C   0  0  0  0  0  0  0  0  0  0  0  0
   27.4758  -19.2678   -7.1985 C   0  0  0  0  0  0  0  0  0  0  0  0
   28.7855  -19.6786   -7.2429 C   0  0  0  0  0  0  0  0  0  0  0  0
   29.1273  -20.6504   -8.1578 C   0  0  0  0  0  0  0  0  0  0  0  0
   28.1761  -21.1911   -9.0021 C   0  0  0  0  0  0  0  0  0  0  0  0
   27.0248  -20.7988  -11.9685 C   0  0  0  0  0  0  0  0  0  0  0  0
   27.3167  -21.8386  -12.6180 O   0  0  0  0  0  0  0  0  0  0  0  0
   27.9660  -19.7688  -12.0123 O   0  0  0  0  0  0  0  0  0  0  0  0
  2  1  1  0
  3  2  1  0
  4  3  2  0
  5  3  1  0
  6  5  1  0
  7  8  2  0
  7  6  1  0
  9  7  1  0
 10  9  1  0
 10 11  1  1
 11 12  1  0
 12 17  2  0
 12 13  1  0
 13 14  2  0
 14 15  1  0
 16 15  2  0
 17 16  1  0
 18 10  1  0
 19 18  2  0
 20 18  1  0
M  END
$$$$
