GGF.pdb
     RDKit          3D

 20 20  0  0  1  0  0  0  0  0999 V2000
   20.8531  -18.8513  -16.5873 N   0  0  0  0  0  0  0  0  0  0  0  0
   22.0729  -19.4347  -16.1688 C   0  0  0  0  0  0  0  0  0  0  0  0
   21.8568  -20.0962  -14.8437 C   0  0  0  0  0  0  0  0  0  0  0  0
   20.7938  -19.9350  -14.1869 O   0  0  0  0  0  0  0  0  0  0  0  0
   22.8533  -20.9375  -14.2747 N   0  0  0  0  0  0  0  0  0  0  0  0
   22.8261  -21.3338  -12.8903 C   0  0  0  0  0  0  0  0  0  0  0  0
   23.9966  -20.7012  -12.1946 C   0  0  0  0  0  0  0  0  0  0  0  0
   24.2860  -19.4780  -12.3710 O   0  0  0  0  0  0  0  0  0  0  0  0
   24.8343  -21.4267  -11.3120 N   0  0  0  0  0  0  0  0  0  0  0  0
   25.9154  -20.8207  -10.5845 C   0  0  1  0  0  0  0  0  0  0  0  0
   26.0501  -21.3409   -9.1771 C   0  0  0  0  0  0  0  0  0  0  0  0
   27.1018  -20.6597   -8.4077 C   0  0  0  0  0  0  0  0  0  0  0  0
   26.8136  -19.5568   -7.6326 C   0  0  0  0  0  0  0  0  0  0  0  0
   27.8026  -18.9029   -6.8989 C   0  0  0  0  0  0  0  0  0  0  0  0
   29.1046  -19.3387   -6.9244 C   0  0  0  0  0  0  0  0  0  0  0  0
   29.4024  -20.4404   -7.6962 C   0  0  0  0  0  0  0  0  0  0  0  0
   28.4159  -21.0826   -8.4204 C   0  0  0  0  0  0  0  0  0  0  0  0
   27.1633  -21.0080  -11.3630 C   0  0  0  0  0  0  0  0  0  0  0  0
   27.4858  -22.1141  -11.8737 O   0  0  0  0  0  0  0  0  0  0  0  0
   28.0566  -19.9563  -11.5732 O   0  0  0  0  0  0  0  0  0  0  0  0
  2  1  1  0
  3  2  1  0
  4  3  2  0
  5  3  1  0
  6  5  1  0
  7  8  2  0
  7  6  1  0
  9  7  1  0
 10  9  1  0
 10 11  1  1
 11 12  1  0
 12 17  2  0
 12 13  1  0
 13 14  2  0
 14 15  1  0
 16 15  2  0
 17 16  1  0
 18 10  1  0
 19 18  2  0
 20 18  1  0
M  END
$$$$
