GGF.pdb
     RDKit          3D

 20 20  0  0  1  0  0  0  0  0999 V2000
   27.1204  -19.3682  -18.1886 N   0  0  0  0  0  0  0  0  0  0  0  0
   28.2097  -18.6709  -17.6136 C   0  0  0  0  0  0  0  0  0  0  0  0
   28.2423  -18.9616  -16.1457 C   0  0  0  0  0  0  0  0  0  0  0  0
   29.0239  -19.8200  -15.6563 O   0  0  0  0  0  0  0  0  0  0  0  0
   27.3840  -18.2723  -15.2441 N   0  0  0  0  0  0  0  0  0  0  0  0
   27.5138  -18.3931  -13.8148 C   0  0  0  0  0  0  0  0  0  0  0  0
   26.5670  -19.4584  -13.3426 C   0  0  0  0  0  0  0  0  0  0  0  0
   25.6968  -19.9585  -14.1196 O   0  0  0  0  0  0  0  0  0  0  0  0
   26.5920  -19.9593  -12.0177 N   0  0  0  0  0  0  0  0  0  0  0  0
   25.8184  -21.0947  -11.5961 C   0  0  1  0  0  0  0  0  0  0  0  0
   26.4754  -21.8861  -10.4954 C   0  0  0  0  0  0  0  0  0  0  0  0
   26.8256  -21.0675   -9.3253 C   0  0  0  0  0  0  0  0  0  0  0  0
   25.8474  -20.5113   -8.5290 C   0  0  0  0  0  0  0  0  0  0  0  0
   26.1676  -19.7334   -7.4171 C   0  0  0  0  0  0  0  0  0  0  0  0
   27.4762  -19.4940   -7.0764 C   0  0  0  0  0  0  0  0  0  0  0  0
   28.4610  -20.0457   -7.8664 C   0  0  0  0  0  0  0  0  0  0  0  0
   28.1348  -20.8156   -8.9667 C   0  0  0  0  0  0  0  0  0  0  0  0
   24.4698  -20.6197  -11.2037 C   0  0  0  0  0  0  0  0  0  0  0  0
   24.2290  -19.4149  -10.9229 O   0  0  0  0  0  0  0  0  0  0  0  0
   23.3836  -21.4927  -11.1239 O   0  0  0  0  0  0  0  0  0  0  0  0
  2  1  1  0
  3  2  1  0
  4  3  2  0
  5  3  1  0
  6  5  1  0
  7  8  2  0
  7  6  1  0
  9  7  1  0
 10  9  1  0
 10 11  1  1
 11 12  1  0
 12 17  2  0
 12 13  1  0
 13 14  2  0
 14 15  1  0
 16 15  2  0
 17 16  1  0
 18 10  1  0
 19 18  2  0
 20 18  1  0
M  END
$$$$
