GGF.pdb
     RDKit          3D

 20 20  0  0  1  0  0  0  0  0999 V2000
   28.7523  -16.7811  -16.3138 N   0  0  0  0  0  0  0  0  0  0  0  0
   28.7315  -17.9681  -15.5431 C   0  0  0  0  0  0  0  0  0  0  0  0
   27.3275  -18.4849  -15.4988 C   0  0  0  0  0  0  0  0  0  0  0  0
   26.9787  -19.5144  -16.1359 O   0  0  0  0  0  0  0  0  0  0  0  0
   26.3290  -17.8256  -14.7287 N   0  0  0  0  0  0  0  0  0  0  0  0
   24.9519  -18.2472  -14.7326 C   0  0  0  0  0  0  0  0  0  0  0  0
   24.8600  -19.5681  -14.0248 C   0  0  0  0  0  0  0  0  0  0  0  0
   24.4077  -20.5996  -14.6101 O   0  0  0  0  0  0  0  0  0  0  0  0
   25.2687  -19.7349  -12.6787 N   0  0  0  0  0  0  0  0  0  0  0  0
   25.1905  -20.9926  -11.9877 C   0  0  1  0  0  0  0  0  0  0  0  0
   26.4368  -21.3208  -11.2076 C   0  0  0  0  0  0  0  0  0  0  0  0
   26.4712  -20.6881   -9.8808 C   0  0  0  0  0  0  0  0  0  0  0  0
   26.7391  -19.3430   -9.7420 C   0  0  0  0  0  0  0  0  0  0  0  0
   26.7743  -18.7323   -8.4891 C   0  0  0  0  0  0  0  0  0  0  0  0
   26.5419  -19.4551   -7.3448 C   0  0  0  0  0  0  0  0  0  0  0  0
   26.2734  -20.8002   -7.4735 C   0  0  0  0  0  0  0  0  0  0  0  0
   26.2404  -21.3976   -8.7193 C   0  0  0  0  0  0  0  0  0  0  0  0
   23.9873  -20.9740  -11.1215 C   0  0  0  0  0  0  0  0  0  0  0  0
   23.5421  -22.0079  -10.5549 O   0  0  0  0  0  0  0  0  0  0  0  0
   23.2764  -19.7961  -10.8858 O   0  0  0  0  0  0  0  0  0  0  0  0
  2  1  1  0
  3  2  1  0
  4  3  2  0
  5  3  1  0
  6  5  1  0
  7  8  2  0
  7  6  1  0
  9  7  1  0
 10  9  1  0
 10 11  1  1
 11 12  1  0
 12 17  2  0
 12 13  1  0
 13 14  2  0
 14 15  1  0
 16 15  2  0
 17 16  1  0
 18 10  1  0
 19 18  2  0
 20 18  1  0
M  END
$$$$
