GGF.pdb
     RDKit          3D

 20 20  0  0  1  0  0  0  0  0999 V2000
   26.9941  -21.3012  -15.8612 N   0  0  0  0  0  0  0  0  0  0  0  0
   27.2299  -19.9233  -15.6396 C   0  0  0  0  0  0  0  0  0  0  0  0
   27.3723  -19.6931  -14.1675 C   0  0  0  0  0  0  0  0  0  0  0  0
   28.3652  -20.1223  -13.5215 O   0  0  0  0  0  0  0  0  0  0  0  0
   26.3823  -18.9751  -13.4401 N   0  0  0  0  0  0  0  0  0  0  0  0
   26.5556  -18.6141  -12.0566 C   0  0  0  0  0  0  0  0  0  0  0  0
   26.3276  -19.8377  -11.2168 C   0  0  0  0  0  0  0  0  0  0  0  0
   25.9832  -20.9416  -11.7401 O   0  0  0  0  0  0  0  0  0  0  0  0
   26.4827  -19.8282   -9.8087 N   0  0  0  0  0  0  0  0  0  0  0  0
   26.3938  -21.0157   -9.0041 C   0  0  1  0  0  0  0  0  0  0  0  0
   27.6458  -21.2930   -8.2134 C   0  0  0  0  0  0  0  0  0  0  0  0
   27.7730  -20.4471   -7.0175 C   0  0  0  0  0  0  0  0  0  0  0  0
   27.6587  -20.9831   -5.7527 C   0  0  0  0  0  0  0  0  0  0  0  0
   27.7775  -20.1908   -4.6116 C   0  0  0  0  0  0  0  0  0  0  0  0
   28.0138  -18.8416   -4.7107 C   0  0  0  0  0  0  0  0  0  0  0  0
   28.1295  -18.2967   -5.9708 C   0  0  0  0  0  0  0  0  0  0  0  0
   28.0104  -19.0894   -7.0965 C   0  0  0  0  0  0  0  0  0  0  0  0
   25.2038  -20.8964   -8.1278 C   0  0  0  0  0  0  0  0  0  0  0  0
   24.8142  -21.8330   -7.3800 O   0  0  0  0  0  0  0  0  0  0  0  0
   24.4439  -19.7263   -8.0849 O   0  0  0  0  0  0  0  0  0  0  0  0
  2  1  1  0
  3  2  1  0
  4  3  2  0
  5  3  1  0
  6  5  1  0
  7  8  2  0
  7  6  1  0
  9  7  1  0
 10  9  1  0
 10 11  1  1
 11 12  1  0
 12 17  2  0
 12 13  1  0
 13 14  2  0
 14 15  1  0
 16 15  2  0
 17 16  1  0
 18 10  1  0
 19 18  2  0
 20 18  1  0
M  END
$$$$
