GGF.pdb
     RDKit          3D

 20 20  0  0  1  0  0  0  0  0999 V2000
   12.8733   -5.0301  -16.6521 N   0  0  0  0  0  0  0  0  0  0  0  0
   14.0330   -5.8415  -16.6697 C   0  0  0  0  0  0  0  0  0  0  0  0
   15.1239   -5.1326  -15.9295 C   0  0  0  0  0  0  0  0  0  0  0  0
   14.9236   -4.5934  -14.8085 O   0  0  0  0  0  0  0  0  0  0  0  0
   16.4366   -5.0424  -16.4710 N   0  0  0  0  0  0  0  0  0  0  0  0
   17.5310   -4.4568  -15.7405 C   0  0  0  0  0  0  0  0  0  0  0  0
   18.4259   -5.5634  -15.2622 C   0  0  0  0  0  0  0  0  0  0  0  0
   19.5583   -5.3181  -14.7441 O   0  0  0  0  0  0  0  0  0  0  0  0
   18.0600   -6.9284  -15.3616 N   0  0  0  0  0  0  0  0  0  0  0  0
   18.8478   -7.9921  -14.8018 C   0  0  1  0  0  0  0  0  0  0  0  0
   18.2187   -8.6216  -13.5863 C   0  0  0  0  0  0  0  0  0  0  0  0
   16.8608   -9.1276  -13.8353 C   0  0  0  0  0  0  0  0  0  0  0  0
   16.6572  -10.3787  -14.3772 C   0  0  0  0  0  0  0  0  0  0  0  0
   15.3743  -10.8690  -14.6177 C   0  0  0  0  0  0  0  0  0  0  0  0
   14.2643  -10.1170  -14.3208 C   0  0  0  0  0  0  0  0  0  0  0  0
   14.4577   -8.8652  -13.7789 C   0  0  0  0  0  0  0  0  0  0  0  0
   15.7328   -8.3870  -13.5437 C   0  0  0  0  0  0  0  0  0  0  0  0
   19.1071   -8.9900  -15.8673 C   0  0  0  0  0  0  0  0  0  0  0  0
   19.8890   -9.9656  -15.7086 O   0  0  0  0  0  0  0  0  0  0  0  0
   18.4913   -8.8997  -17.1167 O   0  0  0  0  0  0  0  0  0  0  0  0
  2  1  1  0
  3  2  1  0
  4  3  2  0
  5  3  1  0
  6  5  1  0
  7  8  2  0
  7  6  1  0
  9  7  1  0
 10  9  1  0
 10 11  1  1
 11 12  1  0
 12 17  2  0
 12 13  1  0
 13 14  2  0
 14 15  1  0
 16 15  2  0
 17 16  1  0
 18 10  1  0
 19 18  2  0
 20 18  1  0
M  END
$$$$
