GGF.pdb
     RDKit          3D

 20 20  0  0  1  0  0  0  0  0999 V2000
   21.9761  -14.4299  -17.5709 N   0  0  0  0  0  0  0  0  0  0  0  0
   21.0981  -13.7747  -18.4673 C   0  0  0  0  0  0  0  0  0  0  0  0
   21.3582  -12.3022  -18.4009 C   0  0  0  0  0  0  0  0  0  0  0  0
   22.4746  -11.8409  -18.0427 O   0  0  0  0  0  0  0  0  0  0  0  0
   20.3446  -11.3641  -18.7431 N   0  0  0  0  0  0  0  0  0  0  0  0
   20.5847   -9.9440  -18.7580 C   0  0  0  0  0  0  0  0  0  0  0  0
   20.5621   -9.4460  -17.3418 C   0  0  0  0  0  0  0  0  0  0  0  0
   19.4846   -9.4128  -16.6718 O   0  0  0  0  0  0  0  0  0  0  0  0
   21.7298   -8.9902  -16.6816 N   0  0  0  0  0  0  0  0  0  0  0  0
   21.7260   -8.5136  -15.3258 C   0  0  1  0  0  0  0  0  0  0  0  0
   22.4010   -9.4553  -14.3628 C   0  0  0  0  0  0  0  0  0  0  0  0
   23.7024   -9.9404  -14.8457 C   0  0  0  0  0  0  0  0  0  0  0  0
   23.9679  -11.2900  -14.9376 C   0  0  0  0  0  0  0  0  0  0  0  0
   25.1981  -11.7615  -15.3940 C   0  0  0  0  0  0  0  0  0  0  0  0
   26.1921  -10.8916  -15.7693 C   0  0  0  0  0  0  0  0  0  0  0  0
   25.9361   -9.5407  -15.6808 C   0  0  0  0  0  0  0  0  0  0  0  0
   24.7139   -9.0819  -15.2274 C   0  0  0  0  0  0  0  0  0  0  0  0
   22.3448   -7.1664  -15.3040 C   0  0  0  0  0  0  0  0  0  0  0  0
   22.3628   -6.4437  -14.2717 O   0  0  0  0  0  0  0  0  0  0  0  0
   22.9468   -6.6218  -16.4396 O   0  0  0  0  0  0  0  0  0  0  0  0
  2  1  1  0
  3  2  1  0
  4  3  2  0
  5  3  1  0
  6  5  1  0
  7  8  2  0
  7  6  1  0
  9  7  1  0
 10  9  1  0
 10 11  1  1
 11 12  1  0
 12 17  2  0
 12 13  1  0
 13 14  2  0
 14 15  1  0
 16 15  2  0
 17 16  1  0
 18 10  1  0
 19 18  2  0
 20 18  1  0
M  END
$$$$
