GGF.pdb
     RDKit          3D

 20 20  0  0  1  0  0  0  0  0999 V2000
   28.5753  -17.1225  -17.5561 N   0  0  0  0  0  0  0  0  0  0  0  0
   27.6423  -18.1318  -17.8939 C   0  0  0  0  0  0  0  0  0  0  0  0
   26.5884  -18.1835  -16.8323 C   0  0  0  0  0  0  0  0  0  0  0  0
   25.5101  -17.5402  -16.9357 O   0  0  0  0  0  0  0  0  0  0  0  0
   26.7696  -18.9679  -15.6591 N   0  0  0  0  0  0  0  0  0  0  0  0
   27.0486  -20.3798  -15.7137 C   0  0  0  0  0  0  0  0  0  0  0  0
   26.3296  -21.0480  -14.5776 C   0  0  0  0  0  0  0  0  0  0  0  0
   26.3640  -22.3077  -14.4255 O   0  0  0  0  0  0  0  0  0  0  0  0
   25.5808  -20.3175  -13.6223 N   0  0  0  0  0  0  0  0  0  0  0  0
   25.0908  -20.8982  -12.4024 C   0  0  1  0  0  0  0  0  0  0  0  0
   25.8054  -20.3947  -11.1754 C   0  0  0  0  0  0  0  0  0  0  0  0
   27.2594  -20.6074  -11.2258 C   0  0  0  0  0  0  0  0  0  0  0  0
   27.8355  -21.7177  -10.6464 C   0  0  0  0  0  0  0  0  0  0  0  0
   29.2129  -21.9298  -10.6878 C   0  0  0  0  0  0  0  0  0  0  0  0
   30.0464  -21.0340  -11.3111 C   0  0  0  0  0  0  0  0  0  0  0  0
   29.4799  -19.9211  -11.8931 C   0  0  0  0  0  0  0  0  0  0  0  0
   28.1136  -19.7186  -11.8474 C   0  0  0  0  0  0  0  0  0  0  0  0
   23.6297  -20.6583  -12.3264 C   0  0  0  0  0  0  0  0  0  0  0  0
   22.8985  -21.1908  -11.4488 O   0  0  0  0  0  0  0  0  0  0  0  0
   22.9800  -19.8199  -13.2339 O   0  0  0  0  0  0  0  0  0  0  0  0
  2  1  1  0
  3  2  1  0
  4  3  2  0
  5  3  1  0
  6  5  1  0
  7  8  2  0
  7  6  1  0
  9  7  1  0
 10  9  1  0
 10 11  1  1
 11 12  1  0
 12 17  2  0
 12 13  1  0
 13 14  2  0
 14 15  1  0
 16 15  2  0
 17 16  1  0
 18 10  1  0
 19 18  2  0
 20 18  1  0
M  END
$$$$
