GGF.pdb
     RDKit          3D

 20 20  0  0  1  0  0  0  0  0999 V2000
   24.1527  -18.8066  -15.2849 N   0  0  0  0  0  0  0  0  0  0  0  0
   24.1563  -18.9146  -13.8736 C   0  0  0  0  0  0  0  0  0  0  0  0
   24.9142  -20.1471  -13.4903 C   0  0  0  0  0  0  0  0  0  0  0  0
   24.5103  -21.2988  -13.8031 O   0  0  0  0  0  0  0  0  0  0  0  0
   26.1279  -20.0599  -12.7527 N   0  0  0  0  0  0  0  0  0  0  0  0
   27.0019  -21.1907  -12.5740 C   0  0  0  0  0  0  0  0  0  0  0  0
   27.2679  -21.3550  -11.1055 C   0  0  0  0  0  0  0  0  0  0  0  0
   27.9940  -22.3000  -10.6688 O   0  0  0  0  0  0  0  0  0  0  0  0
   26.7289  -20.4738  -10.1360 N   0  0  0  0  0  0  0  0  0  0  0  0
   26.9985  -20.5985   -8.7299 C   0  0  1  0  0  0  0  0  0  0  0  0
   27.8753  -19.4974   -8.1928 C   0  0  0  0  0  0  0  0  0  0  0  0
   28.1750  -19.6443   -6.7609 C   0  0  0  0  0  0  0  0  0  0  0  0
   29.1766  -20.4865   -6.3275 C   0  0  0  0  0  0  0  0  0  0  0  0
   29.4697  -20.6338   -4.9723 C   0  0  0  0  0  0  0  0  0  0  0  0
   28.7659  -19.9403   -4.0186 C   0  0  0  0  0  0  0  0  0  0  0  0
   27.7629  -19.0961   -4.4421 C   0  0  0  0  0  0  0  0  0  0  0  0
   27.4790  -18.9560   -5.7874 C   0  0  0  0  0  0  0  0  0  0  0  0
   25.7033  -20.6712   -8.0120 C   0  0  0  0  0  0  0  0  0  0  0  0
   24.6626  -20.0947   -8.4280 O   0  0  0  0  0  0  0  0  0  0  0  0
   25.5675  -21.3908   -6.8236 O   0  0  0  0  0  0  0  0  0  0  0  0
  2  1  1  0
  3  2  1  0
  4  3  2  0
  5  3  1  0
  6  5  1  0
  7  8  2  0
  7  6  1  0
  9  7  1  0
 10  9  1  0
 10 11  1  1
 11 12  1  0
 12 17  2  0
 12 13  1  0
 13 14  2  0
 14 15  1  0
 16 15  2  0
 17 16  1  0
 18 10  1  0
 19 18  2  0
 20 18  1  0
M  END
$$$$
