GGF.pdb
     RDKit          3D

 20 20  0  0  1  0  0  0  0  0999 V2000
   27.3188  -16.8611  -14.1251 N   0  0  0  0  0  0  0  0  0  0  0  0
   26.5359  -18.0256  -14.3111 C   0  0  0  0  0  0  0  0  0  0  0  0
   27.3197  -19.2094  -13.8373 C   0  0  0  0  0  0  0  0  0  0  0  0
   28.2149  -19.7402  -14.5475 O   0  0  0  0  0  0  0  0  0  0  0  0
   27.0788  -19.7816  -12.5570 N   0  0  0  0  0  0  0  0  0  0  0  0
   27.7386  -20.9833  -12.1154 C   0  0  0  0  0  0  0  0  0  0  0  0
   27.3805  -21.2175  -10.6762 C   0  0  0  0  0  0  0  0  0  0  0  0
   27.7090  -22.2895  -10.0812 O   0  0  0  0  0  0  0  0  0  0  0  0
   26.6637  -20.2652   -9.9106 N   0  0  0  0  0  0  0  0  0  0  0  0
   26.0043  -20.5908   -8.6758 C   0  0  1  0  0  0  0  0  0  0  0  0
   26.1029  -19.4983   -7.6432 C   0  0  0  0  0  0  0  0  0  0  0  0
   27.2381  -19.6721   -6.7250 C   0  0  0  0  0  0  0  0  0  0  0  0
   27.5016  -20.8944   -6.1445 C   0  0  0  0  0  0  0  0  0  0  0  0
   28.5751  -21.0709   -5.2724 C   0  0  0  0  0  0  0  0  0  0  0  0
   29.4105  -20.0265   -4.9610 C   0  0  0  0  0  0  0  0  0  0  0  0
   29.1552  -18.8010   -5.5364 C   0  0  0  0  0  0  0  0  0  0  0  0
   28.0890  -18.6347   -6.3997 C   0  0  0  0  0  0  0  0  0  0  0  0
   24.5949  -20.9378   -8.9780 C   0  0  0  0  0  0  0  0  0  0  0  0
   24.0438  -20.6479  -10.0737 O   0  0  0  0  0  0  0  0  0  0  0  0
   23.7953  -21.6118   -8.0534 O   0  0  0  0  0  0  0  0  0  0  0  0
  2  1  1  0
  3  2  1  0
  4  3  2  0
  5  3  1  0
  6  5  1  0
  7  8  2  0
  7  6  1  0
  9  7  1  0
 10  9  1  0
 10 11  1  1
 11 12  1  0
 12 17  2  0
 12 13  1  0
 13 14  2  0
 14 15  1  0
 16 15  2  0
 17 16  1  0
 18 10  1  0
 19 18  2  0
 20 18  1  0
M  END
$$$$
