GGF.pdb
     RDKit          3D

 20 20  0  0  1  0  0  0  0  0999 V2000
   22.2503  -25.7959  -15.7077 N   0  0  0  0  0  0  0  0  0  0  0  0
   21.2859  -26.8059  -15.9384 C   0  0  0  0  0  0  0  0  0  0  0  0
   21.9811  -28.1308  -15.9784 C   0  0  0  0  0  0  0  0  0  0  0  0
   22.9375  -28.3549  -16.7673 O   0  0  0  0  0  0  0  0  0  0  0  0
   21.5824  -29.1925  -15.1191 N   0  0  0  0  0  0  0  0  0  0  0  0
   22.2249  -30.4814  -15.1405 C   0  0  0  0  0  0  0  0  0  0  0  0
   21.5413  -31.3668  -14.1389 C   0  0  0  0  0  0  0  0  0  0  0  0
   21.9517  -32.5466  -13.9136 O   0  0  0  0  0  0  0  0  0  0  0  0
   20.4124  -30.9392  -13.3975 N   0  0  0  0  0  0  0  0  0  0  0  0
   19.8212  -31.7254  -12.3498 C   0  0  1  0  0  0  0  0  0  0  0  0
   19.8213  -31.0308  -11.0130 C   0  0  0  0  0  0  0  0  0  0  0  0
   21.1729  -30.7276  -10.5197 C   0  0  0  0  0  0  0  0  0  0  0  0
   21.9782  -31.7183   -9.9997 C   0  0  0  0  0  0  0  0  0  0  0  0
   23.2613  -31.4427   -9.5290 C   0  0  0  0  0  0  0  0  0  0  0  0
   23.7684  -30.1671   -9.5680 C   0  0  0  0  0  0  0  0  0  0  0  0
   22.9709  -29.1702  -10.0860 C   0  0  0  0  0  0  0  0  0  0  0  0
   21.7002  -29.4522  -10.5504 C   0  0  0  0  0  0  0  0  0  0  0  0
   18.4525  -32.1091  -12.7713 C   0  0  0  0  0  0  0  0  0  0  0  0
   17.9697  -31.7841  -13.8892 O   0  0  0  0  0  0  0  0  0  0  0  0
   17.6172  -32.8592  -11.9418 O   0  0  0  0  0  0  0  0  0  0  0  0
  2  1  1  0
  3  2  1  0
  4  3  2  0
  5  3  1  0
  6  5  1  0
  7  8  2  0
  7  6  1  0
  9  7  1  0
 10  9  1  0
 10 11  1  1
 11 12  1  0
 12 17  2  0
 12 13  1  0
 13 14  2  0
 14 15  1  0
 16 15  2  0
 17 16  1  0
 18 10  1  0
 19 18  2  0
 20 18  1  0
M  END
$$$$
