FKE.pdb
     RDKit          3D

 30 30  0  0  1  0  0  0  0  0999 V2000
    8.0930  -13.6235   23.9723 N   0  0  0  0  0  0  0  0  0  0  0  0
    8.2517  -14.8487   24.7295 C   0  0  1  0  0  0  0  0  0  0  0  0
    7.1340  -14.9193   25.7482 C   0  0  0  0  0  0  0  0  0  0  0  0
    7.0377  -13.5624   26.3804 C   0  0  0  0  0  0  0  0  0  0  0  0
    7.8797  -13.1422   27.3703 C   0  0  0  0  0  0  0  0  0  0  0  0
    7.7907  -11.8860   27.9547 C   0  0  0  0  0  0  0  0  0  0  0  0
    6.8206  -11.0297   27.5241 C   0  0  0  0  0  0  0  0  0  0  0  0
    5.9444  -11.4239   26.5168 C   0  0  0  0  0  0  0  0  0  0  0  0
    6.0501  -12.6948   25.9399 C   0  0  0  0  0  0  0  0  0  0  0  0
    8.2789  -15.9984   23.8176 C   0  0  0  0  0  0  0  0  0  0  0  0
    8.2802  -17.1592   24.2830 O   0  0  0  0  0  0  0  0  0  0  0  0
    8.3042  -15.8464   22.3982 N   0  0  0  0  0  0  0  0  0  0  0  0
    8.4433  -16.9328   21.4797 C   0  0  1  0  0  0  0  0  0  0  0  0
    7.8547  -16.6213   20.1197 C   0  0  0  0  0  0  0  0  0  0  0  0
    7.8548  -17.8297   19.2212 C   0  0  0  0  0  0  0  0  0  0  0  0
    7.2794  -17.5474   17.8691 C   0  0  0  0  0  0  0  0  0  0  0  0
    7.2741  -18.7526   16.9668 C   0  0  0  0  0  0  0  0  0  0  0  0
    8.5782  -19.2947   16.7359 N   0  0  0  0  0  0  0  0  0  0  0  0
    9.8868  -17.2818   21.2499 C   0  0  0  0  0  0  0  0  0  0  0  0
   10.5938  -16.5061   20.5508 O   0  0  0  0  0  0  0  0  0  0  0  0
   10.4372  -18.4628   21.8111 N   0  0  0  0  0  0  0  0  0  0  0  0
   11.8823  -18.6189   21.8748 C   0  0  1  0  0  0  0  0  0  0  0  0
   12.5193  -17.4160   22.4966 C   0  0  0  0  0  0  0  0  0  0  0  0
   13.9624  -17.5497   22.8312 C   0  0  0  0  0  0  0  0  0  0  0  0
   14.5203  -16.3229   23.3975 C   0  0  0  0  0  0  0  0  0  0  0  0
   15.7212  -16.2726   23.8074 O   0  0  0  0  0  0  0  0  0  0  0  0
   12.2612  -19.9078   22.4903 C   0  0  0  0  0  0  0  0  0  0  0  0
   11.8906  -20.3030   23.7555 O   0  0  0  0  0  0  0  0  0  0  0  0
   13.7650  -15.1607   23.5123 O   0  0  0  0  0  0  0  0  0  0  0  0
   12.9741  -20.7176   21.8295 O   0  0  0  0  0  0  0  0  0  0  0  0
  2  1  1  6
  2 10  1  0
  3  2  1  0
  3  4  1  0
  4  5  2  0
  4  9  1  0
  5  6  1  0
  6  7  2  0
  8  7  1  0
  9  8  2  0
 10 11  2  0
 12 10  1  0
 12 13  1  0
 13 14  1  6
 15 14  1  0
 16 15  1  0
 17 16  1  0
 18 17  1  0
 19 13  1  0
 19 20  2  0
 21 19  1  0
 22 21  1  0
 22 27  1  0
 22 23  1  1
 24 23  1  0
 25 24  1  0
 25 26  2  0
 27 30  2  0
 27 28  1  0
 29 25  1  0
M  END
$$$$
