FKE.pdb
     RDKit          3D

 30 30  0  0  1  0  0  0  0  0999 V2000
    8.0371  -16.2820   21.6008 N   0  0  0  0  0  0  0  0  0  0  0  0
    8.8150  -15.5448   22.5760 C   0  0  1  0  0  0  0  0  0  0  0  0
    8.1151  -14.2278   22.8364 C   0  0  0  0  0  0  0  0  0  0  0  0
    7.7728  -13.6467   21.4966 C   0  0  0  0  0  0  0  0  0  0  0  0
    6.5851  -13.8838   20.8651 C   0  0  0  0  0  0  0  0  0  0  0  0
    6.2684  -13.3451   19.6253 C   0  0  0  0  0  0  0  0  0  0  0  0
    7.1809  -12.5424   19.0066 C   0  0  0  0  0  0  0  0  0  0  0  0
    8.4022  -12.2786   19.6205 C   0  0  0  0  0  0  0  0  0  0  0  0
    8.7031  -12.8312   20.8708 C   0  0  0  0  0  0  0  0  0  0  0  0
    8.9947  -16.3554   23.7863 C   0  0  0  0  0  0  0  0  0  0  0  0
    9.7258  -15.9364   24.7104 O   0  0  0  0  0  0  0  0  0  0  0  0
    8.3601  -17.6229   23.9572 N   0  0  0  0  0  0  0  0  0  0  0  0
    8.5296  -18.4536   25.1080 C   0  0  1  0  0  0  0  0  0  0  0  0
    7.4902  -19.5519   25.1885 C   0  0  0  0  0  0  0  0  0  0  0  0
    7.7425  -20.4754   26.3509 C   0  0  0  0  0  0  0  0  0  0  0  0
    6.7032  -21.5442   26.4792 C   0  0  0  0  0  0  0  0  0  0  0  0
    6.9124  -22.4297   27.6787 C   0  0  0  0  0  0  0  0  0  0  0  0
    5.9433  -23.4771   27.7869 N   0  0  0  0  0  0  0  0  0  0  0  0
    9.8696  -19.1339   25.1070 C   0  0  0  0  0  0  0  0  0  0  0  0
   10.0492  -20.1174   24.3382 O   0  0  0  0  0  0  0  0  0  0  0  0
   10.9080  -18.6739   25.9570 N   0  0  0  0  0  0  0  0  0  0  0  0
   12.1700  -19.3967   26.0012 C   0  0  1  0  0  0  0  0  0  0  0  0
   13.1203  -18.8688   24.9729 C   0  0  0  0  0  0  0  0  0  0  0  0
   13.2250  -17.3873   24.8904 C   0  0  0  0  0  0  0  0  0  0  0  0
   14.2744  -16.9520   23.9705 C   0  0  0  0  0  0  0  0  0  0  0  0
   15.0190  -17.7910   23.3752 O   0  0  0  0  0  0  0  0  0  0  0  0
   12.7131  -19.4547   27.3742 C   0  0  0  0  0  0  0  0  0  0  0  0
   12.1166  -18.8746   28.4706 O   0  0  0  0  0  0  0  0  0  0  0  0
   14.5036  -15.6059   23.7065 O   0  0  0  0  0  0  0  0  0  0  0  0
   13.7979  -20.0725   27.5797 O   0  0  0  0  0  0  0  0  0  0  0  0
  2  1  1  6
  2 10  1  0
  3  2  1  0
  3  4  1  0
  4  5  2  0
  4  9  1  0
  5  6  1  0
  6  7  2  0
  8  7  1  0
  9  8  2  0
 10 11  2  0
 12 10  1  0
 12 13  1  0
 13 14  1  6
 15 14  1  0
 16 15  1  0
 17 16  1  0
 18 17  1  0
 19 13  1  0
 19 20  2  0
 21 19  1  0
 22 21  1  0
 22 27  1  0
 22 23  1  6
 24 23  1  0
 25 24  1  0
 25 26  2  0
 27 30  2  0
 27 28  1  0
 29 25  1  0
M  END
$$$$
