FKE.pdb
     RDKit          3D

 30 30  0  0  1  0  0  0  0  0999 V2000
    5.8853  -17.3294   25.2412 N   0  0  0  0  0  0  0  0  0  0  0  0
    6.6350  -16.1067   25.0350 C   0  0  1  0  0  0  0  0  0  0  0  0
    7.1567  -15.6435   26.3787 C   0  0  0  0  0  0  0  0  0  0  0  0
    6.8668  -14.1748   26.4732 C   0  0  0  0  0  0  0  0  0  0  0  0
    7.7661  -13.2146   26.1060 C   0  0  0  0  0  0  0  0  0  0  0  0
    7.4971  -11.8553   26.1930 C   0  0  0  0  0  0  0  0  0  0  0  0
    6.2817  -11.4563   26.6655 C   0  0  0  0  0  0  0  0  0  0  0  0
    5.3401  -12.4071   27.0492 C   0  0  0  0  0  0  0  0  0  0  0  0
    5.6301  -13.7732   26.9541 C   0  0  0  0  0  0  0  0  0  0  0  0
    7.6967  -16.3333   24.0473 C   0  0  0  0  0  0  0  0  0  0  0  0
    8.3245  -17.4150   24.0489 O   0  0  0  0  0  0  0  0  0  0  0  0
    8.0496  -15.3560   23.0682 N   0  0  0  0  0  0  0  0  0  0  0  0
    9.0949  -15.5266   22.1082 C   0  0  1  0  0  0  0  0  0  0  0  0
    9.1959  -14.3605   21.1474 C   0  0  0  0  0  0  0  0  0  0  0  0
    8.2203  -14.4901   20.0076 C   0  0  0  0  0  0  0  0  0  0  0  0
    8.4118  -13.4412   18.9578 C   0  0  0  0  0  0  0  0  0  0  0  0
    7.4027  -13.5301   17.8440 C   0  0  0  0  0  0  0  0  0  0  0  0
    7.5855  -12.5352   16.8318 N   0  0  0  0  0  0  0  0  0  0  0  0
   10.4385  -15.6519   22.7695 C   0  0  0  0  0  0  0  0  0  0  0  0
   10.8316  -14.7210   23.5240 O   0  0  0  0  0  0  0  0  0  0  0  0
   11.2444  -16.7976   22.5448 N   0  0  0  0  0  0  0  0  0  0  0  0
   12.5458  -16.8949   23.1881 C   0  0  1  0  0  0  0  0  0  0  0  0
   12.7342  -18.2460   23.8031 C   0  0  0  0  0  0  0  0  0  0  0  0
   11.7932  -18.5925   24.9017 C   0  0  0  0  0  0  0  0  0  0  0  0
   12.0599  -19.9127   25.4699 C   0  0  0  0  0  0  0  0  0  0  0  0
   11.3615  -20.3724   26.4257 O   0  0  0  0  0  0  0  0  0  0  0  0
   13.6318  -16.4710   22.2802 C   0  0  0  0  0  0  0  0  0  0  0  0
   14.9102  -16.1652   22.6881 O   0  0  0  0  0  0  0  0  0  0  0  0
   13.0853  -20.7214   24.9916 O   0  0  0  0  0  0  0  0  0  0  0  0
   13.3939  -16.3749   21.0413 O   0  0  0  0  0  0  0  0  0  0  0  0
  2  1  1  1
  2 10  1  0
  3  2  1  0
  3  4  1  0
  4  5  2  0
  4  9  1  0
  5  6  1  0
  6  7  2  0
  8  7  1  0
  9  8  2  0
 10 11  2  0
 12 10  1  0
 12 13  1  0
 13 14  1  6
 15 14  1  0
 16 15  1  0
 17 16  1  0
 18 17  1  0
 19 13  1  0
 19 20  2  0
 21 19  1  0
 22 21  1  0
 22 27  1  0
 22 23  1  6
 24 23  1  0
 25 24  1  0
 25 26  2  0
 27 30  2  0
 27 28  1  0
 29 25  1  0
M  END
$$$$
