FKE.pdb
     RDKit          3D

 30 30  0  0  1  0  0  0  0  0999 V2000
    7.7853  -17.7515   26.6086 N   0  0  0  0  0  0  0  0  0  0  0  0
    8.3168  -16.5713   25.9572 C   0  0  1  0  0  0  0  0  0  0  0  0
    9.7239  -16.3461   26.4688 C   0  0  0  0  0  0  0  0  0  0  0  0
    9.6304  -15.3156   27.5548 C   0  0  0  0  0  0  0  0  0  0  0  0
   10.2600  -15.4465   28.7597 C   0  0  0  0  0  0  0  0  0  0  0  0
   10.1738  -14.4921   29.7644 C   0  0  0  0  0  0  0  0  0  0  0  0
    9.4284  -13.3719   29.5424 C   0  0  0  0  0  0  0  0  0  0  0  0
    8.7726  -13.2045   28.3260 C   0  0  0  0  0  0  0  0  0  0  0  0
    8.8715  -14.1782   27.3253 C   0  0  0  0  0  0  0  0  0  0  0  0
    8.2483  -16.7326   24.5000 C   0  0  0  0  0  0  0  0  0  0  0  0
    8.4410  -17.8585   23.9910 O   0  0  0  0  0  0  0  0  0  0  0  0
    7.9662  -15.6412   23.6238 N   0  0  0  0  0  0  0  0  0  0  0  0
    8.4324  -15.5571   22.2751 C   0  0  1  0  0  0  0  0  0  0  0  0
    8.1278  -14.2171   21.6388 C   0  0  0  0  0  0  0  0  0  0  0  0
    8.6649  -14.1308   20.2346 C   0  0  0  0  0  0  0  0  0  0  0  0
    7.7872  -13.3291   19.3259 C   0  0  0  0  0  0  0  0  0  0  0  0
    8.3198  -13.2376   17.9207 C   0  0  0  0  0  0  0  0  0  0  0  0
    7.4622  -12.5112   17.0348 N   0  0  0  0  0  0  0  0  0  0  0  0
    9.9217  -15.7399   22.1921 C   0  0  0  0  0  0  0  0  0  0  0  0
   10.6589  -15.0642   22.9605 O   0  0  0  0  0  0  0  0  0  0  0  0
   10.4811  -16.6562   21.2647 N   0  0  0  0  0  0  0  0  0  0  0  0
   11.9238  -16.8394   21.2209 C   0  0  1  0  0  0  0  0  0  0  0  0
   12.2977  -18.2173   21.6691 C   0  0  0  0  0  0  0  0  0  0  0  0
   12.3927  -18.4144   23.1404 C   0  0  0  0  0  0  0  0  0  0  0  0
   12.7043  -19.7967   23.4996 C   0  0  0  0  0  0  0  0  0  0  0  0
   11.8346  -20.7165   23.3980 O   0  0  0  0  0  0  0  0  0  0  0  0
   12.4807  -16.4420   19.9112 C   0  0  0  0  0  0  0  0  0  0  0  0
   11.7211  -16.0940   18.8175 O   0  0  0  0  0  0  0  0  0  0  0  0
   13.9614  -20.1656   23.9665 O   0  0  0  0  0  0  0  0  0  0  0  0
   13.7367  -16.4132   19.7613 O   0  0  0  0  0  0  0  0  0  0  0  0
  2  1  1  1
  2 10  1  0
  3  2  1  0
  3  4  1  0
  4  5  2  0
  4  9  1  0
  5  6  1  0
  6  7  2  0
  8  7  1  0
  9  8  2  0
 10 11  2  0
 12 10  1  0
 12 13  1  0
 13 14  1  1
 15 14  1  0
 16 15  1  0
 17 16  1  0
 18 17  1  0
 19 13  1  0
 19 20  2  0
 21 19  1  0
 22 21  1  0
 22 27  1  0
 22 23  1  6
 24 23  1  0
 25 24  1  0
 25 26  2  0
 27 30  2  0
 27 28  1  0
 29 25  1  0
M  END
$$$$
