FKE.pdb
     RDKit          3D

 30 30  0  0  1  0  0  0  0  0999 V2000
    6.1020  -18.3000   25.6290 N   0  0  0  0  0  0  0  0  0  0  0  0
    6.3500  -16.8761   25.5253 C   0  0  1  0  0  0  0  0  0  0  0  0
    6.8085  -16.3794   26.8800 C   0  0  0  0  0  0  0  0  0  0  0  0
    6.8569  -14.8824   26.7990 C   0  0  0  0  0  0  0  0  0  0  0  0
    8.0244  -14.1810   26.6960 C   0  0  0  0  0  0  0  0  0  0  0  0
    8.0687  -12.7954   26.6204 C   0  0  0  0  0  0  0  0  0  0  0  0
    6.8965  -12.0993   26.6496 C   0  0  0  0  0  0  0  0  0  0  0  0
    5.6871  -12.7807   26.7538 C   0  0  0  0  0  0  0  0  0  0  0  0
    5.6630  -14.1782   26.8291 C   0  0  0  0  0  0  0  0  0  0  0  0
    7.3185  -16.6154   24.4537 C   0  0  0  0  0  0  0  0  0  0  0  0
    8.2988  -17.3777   24.3049 O   0  0  0  0  0  0  0  0  0  0  0  0
    7.1876  -15.5108   23.5587 N   0  0  0  0  0  0  0  0  0  0  0  0
    8.0158  -15.3085   22.4113 C   0  0  1  0  0  0  0  0  0  0  0  0
    7.6025  -14.0954   21.6045 C   0  0  0  0  0  0  0  0  0  0  0  0
    8.3911  -13.9795   20.3269 C   0  0  0  0  0  0  0  0  0  0  0  0
    7.6826  -13.1815   19.2781 C   0  0  0  0  0  0  0  0  0  0  0  0
    8.4092  -13.1629   17.9596 C   0  0  0  0  0  0  0  0  0  0  0  0
    7.6593  -12.5488   16.9067 N   0  0  0  0  0  0  0  0  0  0  0  0
    9.4526  -15.0952   22.7965 C   0  0  0  0  0  0  0  0  0  0  0  0
    9.7078  -14.4740   23.8640 O   0  0  0  0  0  0  0  0  0  0  0  0
   10.4968  -15.5852   21.9707 N   0  0  0  0  0  0  0  0  0  0  0  0
   11.8640  -15.5829   22.4684 C   0  0  1  0  0  0  0  0  0  0  0  0
   11.9306  -16.1778   23.8398 C   0  0  0  0  0  0  0  0  0  0  0  0
   11.7431  -17.6515   23.9143 C   0  0  0  0  0  0  0  0  0  0  0  0
   11.8914  -18.1653   25.2748 C   0  0  0  0  0  0  0  0  0  0  0  0
   12.2745  -17.4147   26.2249 O   0  0  0  0  0  0  0  0  0  0  0  0
   12.7977  -16.1776   21.4895 C   0  0  0  0  0  0  0  0  0  0  0  0
   14.1690  -16.1004   21.5783 O   0  0  0  0  0  0  0  0  0  0  0  0
   11.6208  -19.4928   25.5891 O   0  0  0  0  0  0  0  0  0  0  0  0
   12.3283  -16.8032   20.4952 O   0  0  0  0  0  0  0  0  0  0  0  0
  2  1  1  1
  2 10  1  0
  3  2  1  0
  3  4  1  0
  4  5  2  0
  4  9  1  0
  5  6  1  0
  6  7  2  0
  8  7  1  0
  9  8  2  0
 10 11  2  0
 12 10  1  0
 12 13  1  0
 13 14  1  1
 15 14  1  0
 16 15  1  0
 17 16  1  0
 18 17  1  0
 19 13  1  0
 19 20  2  0
 21 19  1  0
 22 21  1  0
 22 27  1  0
 22 23  1  1
 24 23  1  0
 25 24  1  0
 25 26  2  0
 27 30  2  0
 27 28  1  0
 29 25  1  0
M  END
$$$$
