FKE.pdb
     RDKit          3D

 30 30  0  0  1  0  0  0  0  0999 V2000
    7.2926  -17.7129   26.2365 N   0  0  0  0  0  0  0  0  0  0  0  0
    6.4570  -17.1882   25.1753 C   0  0  1  0  0  0  0  0  0  0  0  0
    5.7044  -15.9920   25.7181 C   0  0  0  0  0  0  0  0  0  0  0  0
    6.7351  -15.0041   26.1785 C   0  0  0  0  0  0  0  0  0  0  0  0
    6.8299  -13.7388   25.6728 C   0  0  0  0  0  0  0  0  0  0  0  0
    7.7836  -12.8245   26.0997 C   0  0  0  0  0  0  0  0  0  0  0  0
    8.6671  -13.2022   27.0673 C   0  0  0  0  0  0  0  0  0  0  0  0
    8.6004  -14.4841   27.6060 C   0  0  0  0  0  0  0  0  0  0  0  0
    7.6316  -15.3918   27.1623 C   0  0  0  0  0  0  0  0  0  0  0  0
    7.2805  -16.8720   24.0023 C   0  0  0  0  0  0  0  0  0  0  0  0
    8.2236  -17.6293   23.6844 O   0  0  0  0  0  0  0  0  0  0  0  0
    7.0476  -15.7178   23.1949 N   0  0  0  0  0  0  0  0  0  0  0  0
    7.8226  -15.3777   22.0429 C   0  0  1  0  0  0  0  0  0  0  0  0
    7.3312  -14.1158   21.3653 C   0  0  0  0  0  0  0  0  0  0  0  0
    8.1068  -13.8182   20.1093 C   0  0  0  0  0  0  0  0  0  0  0  0
    7.5712  -12.6373   19.3627 C   0  0  0  0  0  0  0  0  0  0  0  0
    8.2906  -12.3841   18.0646 C   0  0  0  0  0  0  0  0  0  0  0  0
    8.5613  -13.5779   17.3233 N   0  0  0  0  0  0  0  0  0  0  0  0
    9.2635  -15.1386   22.3963 C   0  0  0  0  0  0  0  0  0  0  0  0
    9.5320  -14.3588   23.3504 O   0  0  0  0  0  0  0  0  0  0  0  0
   10.2969  -15.7805   21.6665 N   0  0  0  0  0  0  0  0  0  0  0  0
   11.6674  -15.7050   22.1492 C   0  0  1  0  0  0  0  0  0  0  0  0
   11.7492  -16.1263   23.5827 C   0  0  0  0  0  0  0  0  0  0  0  0
   11.5663  -17.5799   23.8401 C   0  0  0  0  0  0  0  0  0  0  0  0
   11.8267  -17.9374   25.2334 C   0  0  0  0  0  0  0  0  0  0  0  0
   12.2891  -17.0882   26.0566 O   0  0  0  0  0  0  0  0  0  0  0  0
   12.6001  -16.4072   21.2434 C   0  0  0  0  0  0  0  0  0  0  0  0
   12.2139  -17.1190   20.1305 O   0  0  0  0  0  0  0  0  0  0  0  0
   11.5809  -19.2175   25.7184 O   0  0  0  0  0  0  0  0  0  0  0  0
   13.8408  -16.3661   21.4875 O   0  0  0  0  0  0  0  0  0  0  0  0
  2  1  1  1
  2 10  1  0
  3  2  1  0
  3  4  1  0
  4  5  2  0
  4  9  1  0
  5  6  1  0
  6  7  2  0
  8  7  1  0
  9  8  2  0
 10 11  2  0
 12 10  1  0
 12 13  1  0
 13 14  1  1
 15 14  1  0
 16 15  1  0
 17 16  1  0
 18 17  1  0
 19 13  1  0
 19 20  2  0
 21 19  1  0
 22 21  1  0
 22 27  1  0
 22 23  1  1
 24 23  1  0
 25 24  1  0
 25 26  2  0
 27 30  2  0
 27 28  1  0
 29 25  1  0
M  END
$$$$
