FKE.pdb
     RDKit          3D

 30 30  0  0  1  0  0  0  0  0999 V2000
    6.0979  -17.1256   25.9089 N   0  0  0  0  0  0  0  0  0  0  0  0
    6.5594  -15.9046   25.2795 C   0  0  1  0  0  0  0  0  0  0  0  0
    7.4416  -15.1715   26.2675 C   0  0  0  0  0  0  0  0  0  0  0  0
    6.8915  -13.7814   26.3913 C   0  0  0  0  0  0  0  0  0  0  0  0
    5.7887  -13.4824   27.1395 C   0  0  0  0  0  0  0  0  0  0  0  0
    5.2803  -12.1956   27.2544 C   0  0  0  0  0  0  0  0  0  0  0  0
    5.9071  -11.1814   26.5923 C   0  0  0  0  0  0  0  0  0  0  0  0
    7.0340  -11.4489   25.8202 C   0  0  0  0  0  0  0  0  0  0  0  0
    7.5315  -12.7531   25.7167 C   0  0  0  0  0  0  0  0  0  0  0  0
    7.2393  -16.2203   24.0178 C   0  0  0  0  0  0  0  0  0  0  0  0
    8.0114  -17.2024   23.9582 O   0  0  0  0  0  0  0  0  0  0  0  0
    7.0543  -15.4417   22.8354 N   0  0  0  0  0  0  0  0  0  0  0  0
    7.8924  -15.5292   21.6807 C   0  0  1  0  0  0  0  0  0  0  0  0
    7.5912  -14.4495   20.6625 C   0  0  0  0  0  0  0  0  0  0  0  0
    8.5014  -14.5407   19.4663 C   0  0  0  0  0  0  0  0  0  0  0  0
    8.1634  -13.5439   18.4027 C   0  0  0  0  0  0  0  0  0  0  0  0
    9.0125  -13.6879   17.1678 C   0  0  0  0  0  0  0  0  0  0  0  0
    8.8575  -12.6068   16.2431 N   0  0  0  0  0  0  0  0  0  0  0  0
    9.3447  -15.3845   22.0388 C   0  0  0  0  0  0  0  0  0  0  0  0
    9.7686  -14.2548   22.4056 O   0  0  0  0  0  0  0  0  0  0  0  0
   10.2166  -16.5010   21.9633 N   0  0  0  0  0  0  0  0  0  0  0  0
   11.6250  -16.3326   22.2873 C   0  0  1  0  0  0  0  0  0  0  0  0
   11.9628  -17.0328   23.5659 C   0  0  0  0  0  0  0  0  0  0  0  0
   11.4133  -18.4070   23.7145 C   0  0  0  0  0  0  0  0  0  0  0  0
   11.8398  -19.0477   24.9573 C   0  0  0  0  0  0  0  0  0  0  0  0
   11.0216  -19.6988   25.6779 O   0  0  0  0  0  0  0  0  0  0  0  0
   12.4901  -16.6839   21.1419 C   0  0  0  0  0  0  0  0  0  0  0  0
   12.0309  -17.1999   19.9515 O   0  0  0  0  0  0  0  0  0  0  0  0
   13.1545  -18.9738   25.4047 O   0  0  0  0  0  0  0  0  0  0  0  0
   13.7391  -16.5080   21.2393 O   0  0  0  0  0  0  0  0  0  0  0  0
  2  1  1  1
  2 10  1  0
  3  2  1  0
  3  4  1  0
  4  5  2  0
  4  9  1  0
  5  6  1  0
  6  7  2  0
  8  7  1  0
  9  8  2  0
 10 11  2  0
 12 10  1  0
 12 13  1  0
 13 14  1  6
 15 14  1  0
 16 15  1  0
 17 16  1  0
 18 17  1  0
 19 13  1  0
 19 20  2  0
 21 19  1  0
 22 21  1  0
 22 27  1  0
 22 23  1  1
 24 23  1  0
 25 24  1  0
 25 26  2  0
 27 30  2  0
 27 28  1  0
 29 25  1  0
M  END
$$$$
