FKE.pdb
     RDKit          3D

 30 30  0  0  1  0  0  0  0  0999 V2000
    7.5935  -17.5642   26.4863 N   0  0  0  0  0  0  0  0  0  0  0  0
    6.7335  -16.7750   25.6276 C   0  0  1  0  0  0  0  0  0  0  0  0
    6.3583  -15.5114   26.3724 C   0  0  0  0  0  0  0  0  0  0  0  0
    7.6222  -14.9704   26.9723 C   0  0  0  0  0  0  0  0  0  0  0  0
    7.9466  -13.6438   26.9509 C   0  0  0  0  0  0  0  0  0  0  0  0
    9.1162  -13.1434   27.5070 C   0  0  0  0  0  0  0  0  0  0  0  0
    9.9830  -14.0116   28.1024 C   0  0  0  0  0  0  0  0  0  0  0  0
    9.6853  -15.3709   28.1431 C   0  0  0  0  0  0  0  0  0  0  0  0
    8.5008  -15.8563   27.5768 C   0  0  0  0  0  0  0  0  0  0  0  0
    7.4068  -16.5166   24.3494 C   0  0  0  0  0  0  0  0  0  0  0  0
    8.1046  -17.4117   23.8240 O   0  0  0  0  0  0  0  0  0  0  0  0
    7.2978  -15.2666   23.6683 N   0  0  0  0  0  0  0  0  0  0  0  0
    7.9355  -14.9763   22.4223 C   0  0  1  0  0  0  0  0  0  0  0  0
    7.6197  -13.5830   21.9201 C   0  0  0  0  0  0  0  0  0  0  0  0
    8.3282  -13.2820   20.6258 C   0  0  0  0  0  0  0  0  0  0  0  0
    7.7837  -14.0626   19.4712 C   0  0  0  0  0  0  0  0  0  0  0  0
    8.4624  -13.7381   18.1671 C   0  0  0  0  0  0  0  0  0  0  0  0
    7.9075  -14.4377   17.0488 N   0  0  0  0  0  0  0  0  0  0  0  0
    9.4317  -15.0605   22.5336 C   0  0  0  0  0  0  0  0  0  0  0  0
   10.0314  -14.2372   23.2772 O   0  0  0  0  0  0  0  0  0  0  0  0
   10.1499  -16.0494   21.8130 N   0  0  0  0  0  0  0  0  0  0  0  0
   11.5460  -16.2990   22.1376 C   0  0  1  0  0  0  0  0  0  0  0  0
   11.7684  -17.7459   22.4476 C   0  0  0  0  0  0  0  0  0  0  0  0
   13.1754  -18.1370   22.7307 C   0  0  0  0  0  0  0  0  0  0  0  0
   13.3100  -19.5620   23.0277 C   0  0  0  0  0  0  0  0  0  0  0  0
   13.2406  -19.9966   24.2189 O   0  0  0  0  0  0  0  0  0  0  0  0
   12.4491  -15.7401   21.1101 C   0  0  0  0  0  0  0  0  0  0  0  0
   12.1202  -15.5980   19.7813 O   0  0  0  0  0  0  0  0  0  0  0  0
   13.5188  -20.5019   22.0241 O   0  0  0  0  0  0  0  0  0  0  0  0
   13.6070  -15.3611   21.4511 O   0  0  0  0  0  0  0  0  0  0  0  0
  2  1  1  1
  2 10  1  0
  3  2  1  0
  3  4  1  0
  4  5  2  0
  4  9  1  0
  5  6  1  0
  6  7  2  0
  8  7  1  0
  9  8  2  0
 10 11  2  0
 12 10  1  0
 12 13  1  0
 13 14  1  1
 15 14  1  0
 16 15  1  0
 17 16  1  0
 18 17  1  0
 19 13  1  0
 19 20  2  0
 21 19  1  0
 22 21  1  0
 22 27  1  0
 22 23  1  6
 24 23  1  0
 25 24  1  0
 25 26  2  0
 27 30  2  0
 27 28  1  0
 29 25  1  0
M  END
$$$$
