FKE.pdb
     RDKit          3D

 30 30  0  0  1  0  0  0  0  0999 V2000
    8.0416  -16.4000   21.2811 N   0  0  0  0  0  0  0  0  0  0  0  0
    8.1798  -15.6680   22.5240 C   0  0  1  0  0  0  0  0  0  0  0  0
    7.0997  -14.6080   22.5673 C   0  0  0  0  0  0  0  0  0  0  0  0
    7.2553  -13.7799   21.3263 C   0  0  0  0  0  0  0  0  0  0  0  0
    8.0692  -12.6850   21.2606 C   0  0  0  0  0  0  0  0  0  0  0  0
    8.2135  -11.9192   20.1116 C   0  0  0  0  0  0  0  0  0  0  0  0
    7.5134  -12.2724   18.9960 C   0  0  0  0  0  0  0  0  0  0  0  0
    6.6741  -13.3826   19.0259 C   0  0  0  0  0  0  0  0  0  0  0  0
    6.5418  -14.1422   20.1942 C   0  0  0  0  0  0  0  0  0  0  0  0
    8.1261  -16.5975   23.6586 C   0  0  0  0  0  0  0  0  0  0  0  0
    8.2658  -16.1632   24.8231 O   0  0  0  0  0  0  0  0  0  0  0  0
    7.9177  -17.9995   23.4876 N   0  0  0  0  0  0  0  0  0  0  0  0
    8.0050  -18.9562   24.5461 C   0  0  1  0  0  0  0  0  0  0  0  0
    7.1071  -20.1545   24.3202 C   0  0  0  0  0  0  0  0  0  0  0  0
    7.1747  -21.1271   25.4679 C   0  0  0  0  0  0  0  0  0  0  0  0
    6.2448  -22.2873   25.3006 C   0  0  0  0  0  0  0  0  0  0  0  0
    6.2194  -23.2004   26.4975 C   0  0  0  0  0  0  0  0  0  0  0  0
    5.3326  -24.3130   26.3440 N   0  0  0  0  0  0  0  0  0  0  0  0
    9.4013  -19.4915   24.6944 C   0  0  0  0  0  0  0  0  0  0  0  0
    9.9305  -20.0835   23.7147 O   0  0  0  0  0  0  0  0  0  0  0  0
   10.1049  -19.3310   25.9158 N   0  0  0  0  0  0  0  0  0  0  0  0
   11.5599  -19.3410   25.9105 C   0  0  1  0  0  0  0  0  0  0  0  0
   12.0943  -18.3029   24.9745 C   0  0  0  0  0  0  0  0  0  0  0  0
   13.5740  -18.1520   24.9542 C   0  0  0  0  0  0  0  0  0  0  0  0
   14.0170  -17.1172   24.0215 C   0  0  0  0  0  0  0  0  0  0  0  0
   14.2461  -17.3837   22.8012 O   0  0  0  0  0  0  0  0  0  0  0  0
   12.1069  -19.2786   27.2818 C   0  0  0  0  0  0  0  0  0  0  0  0
   11.5975  -18.4871   28.2859 O   0  0  0  0  0  0  0  0  0  0  0  0
   14.2065  -15.8002   24.4263 O   0  0  0  0  0  0  0  0  0  0  0  0
   13.1107  -19.9907   27.5753 O   0  0  0  0  0  0  0  0  0  0  0  0
  2  1  1  6
  2 10  1  0
  3  2  1  0
  3  4  1  0
  4  5  2  0
  4  9  1  0
  5  6  1  0
  6  7  2  0
  8  7  1  0
  9  8  2  0
 10 11  2  0
 12 10  1  0
 12 13  1  0
 13 14  1  6
 15 14  1  0
 16 15  1  0
 17 16  1  0
 18 17  1  0
 19 13  1  0
 19 20  2  0
 21 19  1  0
 22 21  1  0
 22 27  1  0
 22 23  1  6
 24 23  1  0
 25 24  1  0
 25 26  2  0
 27 30  2  0
 27 28  1  0
 29 25  1  0
M  END
$$$$
