FKE.pdb
     RDKit          3D

 30 30  0  0  1  0  0  0  0  0999 V2000
    6.7880  -16.9184   25.9824 N   0  0  0  0  0  0  0  0  0  0  0  0
    7.0700  -15.7360   25.1937 C   0  0  1  0  0  0  0  0  0  0  0  0
    8.1605  -14.9535   25.8941 C   0  0  0  0  0  0  0  0  0  0  0  0
    7.5206  -13.7110   26.4389 C   0  0  0  0  0  0  0  0  0  0  0  0
    6.5726  -13.0028   25.7567 C   0  0  0  0  0  0  0  0  0  0  0  0
    5.9800  -11.8533   26.2617 C   0  0  0  0  0  0  0  0  0  0  0  0
    6.3580  -11.4077   27.4938 C   0  0  0  0  0  0  0  0  0  0  0  0
    7.3215  -12.1041   28.2181 C   0  0  0  0  0  0  0  0  0  0  0  0
    7.9076  -13.2611   27.6919 C   0  0  0  0  0  0  0  0  0  0  0  0
    7.4233  -16.1236   23.8229 C   0  0  0  0  0  0  0  0  0  0  0  0
    7.5901  -17.3312   23.5434 O   0  0  0  0  0  0  0  0  0  0  0  0
    7.5875  -15.1656   22.7771 N   0  0  0  0  0  0  0  0  0  0  0  0
    7.8235  -15.5072   21.4092 C   0  0  1  0  0  0  0  0  0  0  0  0
    7.7536  -14.3050   20.4911 C   0  0  0  0  0  0  0  0  0  0  0  0
    7.9960  -14.6850   19.0542 C   0  0  0  0  0  0  0  0  0  0  0  0
    7.9699  -13.5082   18.1305 C   0  0  0  0  0  0  0  0  0  0  0  0
    8.0866  -13.8941   16.6799 C   0  0  0  0  0  0  0  0  0  0  0  0
    7.9323  -12.7887   15.7842 N   0  0  0  0  0  0  0  0  0  0  0  0
    9.1856  -16.1119   21.2170 C   0  0  0  0  0  0  0  0  0  0  0  0
    9.4051  -16.7934   20.1788 O   0  0  0  0  0  0  0  0  0  0  0  0
   10.2006  -15.9166   22.1888 N   0  0  0  0  0  0  0  0  0  0  0  0
   11.3998  -16.7395   22.1468 C   0  0  1  0  0  0  0  0  0  0  0  0
   12.4979  -16.0401   21.4092 C   0  0  0  0  0  0  0  0  0  0  0  0
   12.0622  -15.0936   20.3476 C   0  0  0  0  0  0  0  0  0  0  0  0
   13.1870  -14.5465   19.5912 C   0  0  0  0  0  0  0  0  0  0  0  0
   13.5301  -15.0380   18.4716 O   0  0  0  0  0  0  0  0  0  0  0  0
   11.7699  -17.2264   23.4920 C   0  0  0  0  0  0  0  0  0  0  0  0
   11.1116  -16.8825   24.6507 O   0  0  0  0  0  0  0  0  0  0  0  0
   13.9289  -13.4678   20.0608 O   0  0  0  0  0  0  0  0  0  0  0  0
   12.7544  -18.0120   23.6111 O   0  0  0  0  0  0  0  0  0  0  0  0
  2  1  1  1
  2 10  1  0
  3  2  1  0
  3  4  1  0
  4  5  2  0
  4  9  1  0
  5  6  1  0
  6  7  2  0
  8  7  1  0
  9  8  2  0
 10 11  2  0
 12 10  1  0
 12 13  1  0
 13 14  1  6
 15 14  1  0
 16 15  1  0
 17 16  1  0
 18 17  1  0
 19 13  1  0
 19 20  2  0
 21 19  1  0
 22 21  1  0
 22 27  1  0
 22 23  1  1
 24 23  1  0
 25 24  1  0
 25 26  2  0
 27 30  2  0
 27 28  1  0
 29 25  1  0
M  END
$$$$
