FKE.pdb
     RDKit          3D

 30 30  0  0  1  0  0  0  0  0999 V2000
    6.3456  -16.0064   25.7069 N   0  0  0  0  0  0  0  0  0  0  0  0
    6.8978  -15.0163   24.8044 C   0  0  1  0  0  0  0  0  0  0  0  0
    8.0984  -14.3854   25.4772 C   0  0  0  0  0  0  0  0  0  0  0  0
    7.5710  -13.3319   26.4056 C   0  0  0  0  0  0  0  0  0  0  0  0
    6.6771  -12.3762   26.0142 C   0  0  0  0  0  0  0  0  0  0  0  0
    6.1886  -11.4017   26.8741 C   0  0  0  0  0  0  0  0  0  0  0  0
    6.6175  -11.3947   28.1686 C   0  0  0  0  0  0  0  0  0  0  0  0
    7.5283  -12.3537   28.6031 C   0  0  0  0  0  0  0  0  0  0  0  0
    8.0094  -13.3281   27.7209 C   0  0  0  0  0  0  0  0  0  0  0  0
    7.2167  -15.6400   23.5147 C   0  0  0  0  0  0  0  0  0  0  0  0
    7.2561  -16.8866   23.4216 O   0  0  0  0  0  0  0  0  0  0  0  0
    7.4886  -14.8723   22.3421 N   0  0  0  0  0  0  0  0  0  0  0  0
    7.8314  -15.4402   21.0758 C   0  0  1  0  0  0  0  0  0  0  0  0
    7.8732  -14.4073   19.9693 C   0  0  0  0  0  0  0  0  0  0  0  0
    8.1640  -15.0339   18.6312 C   0  0  0  0  0  0  0  0  0  0  0  0
    8.1172  -14.0482   17.5065 C   0  0  0  0  0  0  0  0  0  0  0  0
    8.2757  -14.6891   16.1533 C   0  0  0  0  0  0  0  0  0  0  0  0
    8.1522  -13.7636   15.0689 N   0  0  0  0  0  0  0  0  0  0  0  0
    9.1880  -16.0859   21.1080 C   0  0  0  0  0  0  0  0  0  0  0  0
    9.5316  -16.8223   20.1436 O   0  0  0  0  0  0  0  0  0  0  0  0
   10.0603  -15.8675   22.2053 N   0  0  0  0  0  0  0  0  0  0  0  0
   11.3814  -16.4770   22.2019 C   0  0  1  0  0  0  0  0  0  0  0  0
   12.4431  -15.4440   22.4139 C   0  0  0  0  0  0  0  0  0  0  0  0
   13.8192  -15.9667   22.6277 C   0  0  0  0  0  0  0  0  0  0  0  0
   14.8319  -15.1738   21.9330 C   0  0  0  0  0  0  0  0  0  0  0  0
   14.5575  -14.0326   21.4482 O   0  0  0  0  0  0  0  0  0  0  0  0
   11.4478  -17.6310   23.1224 C   0  0  0  0  0  0  0  0  0  0  0  0
   12.1331  -18.7954   22.8600 O   0  0  0  0  0  0  0  0  0  0  0  0
   16.1356  -15.6308   21.7726 O   0  0  0  0  0  0  0  0  0  0  0  0
   10.8414  -17.5677   24.2310 O   0  0  0  0  0  0  0  0  0  0  0  0
  2  1  1  1
  2 10  1  0
  3  2  1  0
  3  4  1  0
  4  5  2  0
  4  9  1  0
  5  6  1  0
  6  7  2  0
  8  7  1  0
  9  8  2  0
 10 11  2  0
 12 10  1  0
 12 13  1  0
 13 14  1  6
 15 14  1  0
 16 15  1  0
 17 16  1  0
 18 17  1  0
 19 13  1  0
 19 20  2  0
 21 19  1  0
 22 21  1  0
 22 27  1  0
 22 23  1  1
 24 23  1  0
 25 24  1  0
 25 26  2  0
 27 30  2  0
 27 28  1  0
 29 25  1  0
M  END
$$$$
