PQW.pdb
     RDKit          3D

 31 33  0  0  1  0  0  0  0  0999 V2000
   27.7052  -20.4053  -15.9335 N   0  0  0  0  0  0  0  0  0  0  0  0
   28.1762  -19.7734  -17.1858 C   0  0  0  0  0  0  0  0  0  0  0  0
   27.9537  -18.3212  -16.8174 C   0  0  0  0  0  0  0  0  0  0  0  0
   28.5961  -18.2578  -15.4543 C   0  0  0  0  0  0  0  0  0  0  0  0
   28.2890  -19.6228  -14.8879 C   0  0  1  0  0  0  0  0  0  0  0  0
   27.4593  -19.4613  -13.6816 C   0  0  0  0  0  0  0  0  0  0  0  0
   27.8670  -18.7218  -12.7184 O   0  0  0  0  0  0  0  0  0  0  0  0
   21.3045  -20.2282  -13.1310 N   0  0  0  0  0  0  0  0  0  0  0  0
   21.8924  -19.0803  -13.7291 C   0  0  0  0  0  0  0  0  0  0  0  0
   21.1772  -18.3190  -14.3828 O   0  0  0  0  0  0  0  0  0  0  0  0
   23.3365  -18.8565  -13.5349 C   0  0  0  0  0  0  0  0  0  0  0  0
   23.9067  -19.8589  -12.6114 C   0  0  0  0  0  0  0  0  0  0  0  0
   25.3614  -19.7399  -12.2997 C   0  0  2  0  0  0  0  0  0  0  0  0
   26.1944  -20.0684  -13.4624 N   0  0  0  0  0  0  0  0  0  0  0  0
   25.6905  -20.7534  -11.2518 C   0  0  0  0  0  0  0  0  0  0  0  0
   25.7369  -21.9620  -11.5809 O   0  0  0  0  0  0  0  0  0  0  0  0
   25.9525  -20.4417   -9.9159 N   0  0  0  0  0  0  0  0  0  0  0  0
   26.1686  -21.4615   -8.8624 C   0  0  1  0  0  0  0  0  0  0  0  0
   27.5458  -21.2957   -8.3440 C   0  0  0  0  0  0  0  0  0  0  0  0
   27.7645  -20.2283   -7.3570 C   0  0  0  0  0  0  0  0  0  0  0  0
   27.2551  -18.9258   -7.4585 C   0  0  0  0  0  0  0  0  0  0  0  0
   27.6644  -18.1949   -6.4114 N   0  0  0  0  0  0  0  0  0  0  0  0
   28.4157  -18.9926   -5.6500 C   0  0  0  0  0  0  0  0  0  0  0  0
   29.0716  -18.7494   -4.4472 C   0  0  0  0  0  0  0  0  0  0  0  0
   29.7812  -19.7461   -3.8320 C   0  0  0  0  0  0  0  0  0  0  0  0
   29.8801  -21.0121   -4.3597 C   0  0  0  0  0  0  0  0  0  0  0  0
   29.2333  -21.2466   -5.5442 C   0  0  0  0  0  0  0  0  0  0  0  0
   28.5140  -20.2540   -6.1787 C   0  0  0  0  0  0  0  0  0  0  0  0
   25.0570  -21.3184   -7.9163 C   0  0  0  0  0  0  0  0  0  0  0  0
   25.0110  -22.0009   -6.8284 O   0  0  0  0  0  0  0  0  0  0  0  0
   23.9710  -20.4644   -8.0703 O   0  0  0  0  0  0  0  0  0  0  0  0
  1  5  1  0
  2  1  1  0
  2  3  1  0
  3  4  1  0
  5  4  1  0
  6  7  2  0
  5  6  1  1
  8  9  1  0
  9 11  1  0
 10  9  2  0
 11 12  1  0
 13 12  1  6
 13 14  1  0
 14  6  1  0
 15 17  1  0
 15 13  1  0
 16 15  2  0
 18 17  1  0
 18 29  1  0
 18 19  1  1
 20 28  1  0
 20 19  1  0
 21 20  2  0
 22 21  1  0
 22 23  1  0
 23 28  2  0
 24 23  1  0
 24 25  2  0
 25 26  1  0
 27 26  2  0
 28 27  1  0
 29 31  1  0
 30 29  2  0
M  END
$$$$
