PQW.pdb
     RDKit          3D

 31 33  0  0  1  0  0  0  0  0999 V2000
   28.0218  -23.0104  -17.1364 N   0  0  0  0  0  0  0  0  0  0  0  0
   28.7155  -22.9837  -18.4430 C   0  0  0  0  0  0  0  0  0  0  0  0
   29.3840  -21.6292  -18.3294 C   0  0  0  0  0  0  0  0  0  0  0  0
   30.0046  -21.7175  -16.9576 C   0  0  0  0  0  0  0  0  0  0  0  0
   28.9939  -22.5415  -16.1975 C   0  0  1  0  0  0  0  0  0  0  0  0
   28.4609  -21.7340  -15.0869 C   0  0  0  0  0  0  0  0  0  0  0  0
   29.2523  -21.2811  -14.1872 O   0  0  0  0  0  0  0  0  0  0  0  0
   23.6419  -18.0880  -15.7558 N   0  0  0  0  0  0  0  0  0  0  0  0
   23.9265  -17.7235  -14.4114 C   0  0  0  0  0  0  0  0  0  0  0  0
   23.2800  -16.8110  -13.8938 O   0  0  0  0  0  0  0  0  0  0  0  0
   24.9861  -18.4608  -13.6997 C   0  0  0  0  0  0  0  0  0  0  0  0
   25.6264  -19.4534  -14.5873 C   0  0  0  0  0  0  0  0  0  0  0  0
   26.6811  -20.3190  -13.9828 C   0  0  2  0  0  0  0  0  0  0  0  0
   27.0965  -21.3882  -14.8984 N   0  0  0  0  0  0  0  0  0  0  0  0
   26.0894  -20.9984  -12.7903 C   0  0  0  0  0  0  0  0  0  0  0  0
   25.1628  -21.8233  -12.9692 O   0  0  0  0  0  0  0  0  0  0  0  0
   26.5034  -20.7736  -11.4756 N   0  0  0  0  0  0  0  0  0  0  0  0
   25.9220  -21.4677  -10.3022 C   0  0  1  0  0  0  0  0  0  0  0  0
   26.9947  -21.6364   -9.2954 C   0  0  0  0  0  0  0  0  0  0  0  0
   27.1800  -20.5460   -8.3269 C   0  0  0  0  0  0  0  0  0  0  0  0
   26.5341  -19.3027   -8.3861 C   0  0  0  0  0  0  0  0  0  0  0  0
   26.9475  -18.5272   -7.3731 N   0  0  0  0  0  0  0  0  0  0  0  0
   27.8334  -19.2394   -6.6744 C   0  0  0  0  0  0  0  0  0  0  0  0
   28.5533  -18.9231   -5.5264 C   0  0  0  0  0  0  0  0  0  0  0  0
   29.4067  -19.8384   -4.9703 C   0  0  0  0  0  0  0  0  0  0  0  0
   29.5926  -21.0911   -5.5062 C   0  0  0  0  0  0  0  0  0  0  0  0
   28.8823  -21.3979   -6.6367 C   0  0  0  0  0  0  0  0  0  0  0  0
   28.0181  -20.4877   -7.2111 C   0  0  0  0  0  0  0  0  0  0  0  0
   24.7332  -20.6997   -9.9167 C   0  0  0  0  0  0  0  0  0  0  0  0
   24.5025  -19.5329  -10.4034 O   0  0  0  0  0  0  0  0  0  0  0  0
   23.7546  -21.1213   -9.0241 O   0  0  0  0  0  0  0  0  0  0  0  0
  1  5  1  0
  2  1  1  0
  2  3  1  0
  3  4  1  0
  5  4  1  0
  6  7  2  0
  5  6  1  1
  8  9  1  0
  9 11  1  0
 10  9  2  0
 11 12  1  0
 13 12  1  6
 13 14  1  0
 14  6  1  0
 15 17  1  0
 15 13  1  0
 16 15  2  0
 18 17  1  0
 18 29  1  0
 18 19  1  1
 20 28  1  0
 20 19  1  0
 21 20  2  0
 22 21  1  0
 22 23  1  0
 23 28  2  0
 24 23  1  0
 24 25  2  0
 25 26  1  0
 27 26  2  0
 28 27  1  0
 29 31  1  0
 30 29  2  0
M  END
$$$$
