PQW.pdb
     RDKit          3D

 31 33  0  0  1  0  0  0  0  0999 V2000
   26.4920  -21.1388  -16.6439 N   0  0  0  0  0  0  0  0  0  0  0  0
   26.1617  -21.3686  -18.0678 C   0  0  0  0  0  0  0  0  0  0  0  0
   24.8399  -20.6312  -18.1271 C   0  0  0  0  0  0  0  0  0  0  0  0
   25.1973  -19.3253  -17.4625 C   0  0  0  0  0  0  0  0  0  0  0  0
   26.2004  -19.7564  -16.4202 C   0  0  1  0  0  0  0  0  0  0  0  0
   25.6686  -19.4312  -15.0856 C   0  0  0  0  0  0  0  0  0  0  0  0
   25.3323  -18.2272  -14.8063 O   0  0  0  0  0  0  0  0  0  0  0  0
   21.2882  -22.1460  -12.8885 N   0  0  0  0  0  0  0  0  0  0  0  0
   21.1874  -20.8458  -13.4549 C   0  0  0  0  0  0  0  0  0  0  0  0
   20.1360  -20.5188  -14.0080 O   0  0  0  0  0  0  0  0  0  0  0  0
   22.3524  -19.9487  -13.3500 C   0  0  0  0  0  0  0  0  0  0  0  0
   23.4699  -20.6139  -12.6490 C   0  0  0  0  0  0  0  0  0  0  0  0
   24.8160  -19.9811  -12.7706 C   0  0  2  0  0  0  0  0  0  0  0  0
   25.4808  -20.3557  -14.0242 N   0  0  0  0  0  0  0  0  0  0  0  0
   25.6743  -20.5131  -11.6688 C   0  0  0  0  0  0  0  0  0  0  0  0
   26.8724  -20.7830  -11.9197 O   0  0  0  0  0  0  0  0  0  0  0  0
   25.2269  -20.7326  -10.3642 N   0  0  0  0  0  0  0  0  0  0  0  0
   26.1035  -21.1978   -9.2634 C   0  0  1  0  0  0  0  0  0  0  0  0
   27.2363  -20.2506   -9.1522 C   0  0  0  0  0  0  0  0  0  0  0  0
   28.2411  -20.5290   -8.1158 C   0  0  0  0  0  0  0  0  0  0  0  0
   29.1528  -21.5940   -8.1485 C   0  0  0  0  0  0  0  0  0  0  0  0
   29.9064  -21.5812   -7.0394 N   0  0  0  0  0  0  0  0  0  0  0  0
   29.5020  -20.5425   -6.3061 C   0  0  0  0  0  0  0  0  0  0  0  0
   29.9512  -20.0646   -5.0789 C   0  0  0  0  0  0  0  0  0  0  0  0
   29.3829  -18.9513   -4.5196 C   0  0  0  0  0  0  0  0  0  0  0  0
   28.3605  -18.2623   -5.1288 C   0  0  0  0  0  0  0  0  0  0  0  0
   27.9212  -18.7368   -6.3365 C   0  0  0  0  0  0  0  0  0  0  0  0
   28.4818  -19.8577   -6.9149 C   0  0  0  0  0  0  0  0  0  0  0  0
   25.2371  -21.3725   -8.0927 C   0  0  0  0  0  0  0  0  0  0  0  0
   24.0737  -20.8298   -8.0333 O   0  0  0  0  0  0  0  0  0  0  0  0
   25.5509  -22.1147   -6.9601 O   0  0  0  0  0  0  0  0  0  0  0  0
  1  5  1  0
  2  1  1  0
  2  3  1  0
  3  4  1  0
  5  4  1  0
  6  7  2  0
  5  6  1  1
  8  9  1  0
  9 11  1  0
 10  9  2  0
 11 12  1  0
 13 12  1  6
 13 14  1  0
 14  6  1  0
 15 17  1  0
 15 13  1  0
 16 15  2  0
 18 17  1  0
 18 29  1  0
 18 19  1  1
 20 28  1  0
 20 19  1  0
 21 20  2  0
 22 21  1  0
 22 23  1  0
 23 28  2  0
 24 23  1  0
 24 25  2  0
 25 26  1  0
 27 26  2  0
 28 27  1  0
 29 31  1  0
 30 29  2  0
M  END
$$$$
