PQW.pdb
     RDKit          3D

 31 33  0  0  1  0  0  0  0  0999 V2000
   28.7737  -19.6397  -16.3930 N   0  0  0  0  0  0  0  0  0  0  0  0
   28.9822  -18.8301  -17.6139 C   0  0  0  0  0  0  0  0  0  0  0  0
   28.1893  -17.6005  -17.2218 C   0  0  0  0  0  0  0  0  0  0  0  0
   28.7209  -17.3327  -15.8360 C   0  0  0  0  0  0  0  0  0  0  0  0
   28.9717  -18.7254  -15.3108 C   0  0  1  0  0  0  0  0  0  0  0  0
   28.1186  -18.9494  -14.1310 C   0  0  0  0  0  0  0  0  0  0  0  0
   28.2126  -18.1731  -13.1164 O   0  0  0  0  0  0  0  0  0  0  0  0
   23.2934  -22.4069  -12.6304 N   0  0  0  0  0  0  0  0  0  0  0  0
   24.0313  -22.7394  -13.7992 C   0  0  0  0  0  0  0  0  0  0  0  0
   23.9319  -23.8777  -14.2606 O   0  0  0  0  0  0  0  0  0  0  0  0
   24.8824  -21.6991  -14.4046 C   0  0  0  0  0  0  0  0  0  0  0  0
   24.7701  -20.4268  -13.6620 C   0  0  0  0  0  0  0  0  0  0  0  0
   26.0240  -19.8798  -13.0655 C   0  0  2  0  0  0  0  0  0  0  0  0
   27.1570  -19.9850  -13.9923 N   0  0  0  0  0  0  0  0  0  0  0  0
   26.3745  -20.7224  -11.8819 C   0  0  0  0  0  0  0  0  0  0  0  0
   27.1389  -21.7016  -12.0488 O   0  0  0  0  0  0  0  0  0  0  0  0
   25.9025  -20.4901  -10.5881 N   0  0  0  0  0  0  0  0  0  0  0  0
   26.2043  -21.3700   -9.4342 C   0  0  1  0  0  0  0  0  0  0  0  0
   27.5610  -21.0318   -8.9465 C   0  0  0  0  0  0  0  0  0  0  0  0
   27.6490  -20.1469   -7.7757 C   0  0  0  0  0  0  0  0  0  0  0  0
   26.8848  -18.9862   -7.5887 C   0  0  0  0  0  0  0  0  0  0  0  0
   27.2309  -18.3951   -6.4358 N   0  0  0  0  0  0  0  0  0  0  0  0
   28.1887  -19.1443   -5.8866 C   0  0  0  0  0  0  0  0  0  0  0  0
   28.8857  -18.9982   -4.6913 C   0  0  0  0  0  0  0  0  0  0  0  0
   29.8296  -19.9198   -4.3232 C   0  0  0  0  0  0  0  0  0  0  0  0
   30.1310  -21.0141   -5.0995 C   0  0  0  0  0  0  0  0  0  0  0  0
   29.4427  -21.1535   -6.2756 C   0  0  0  0  0  0  0  0  0  0  0  0
   28.4885  -20.2343   -6.6628 C   0  0  0  0  0  0  0  0  0  0  0  0
   25.0827  -21.2239   -8.5004 C   0  0  0  0  0  0  0  0  0  0  0  0
   24.1496  -20.3638   -8.7033 O   0  0  0  0  0  0  0  0  0  0  0  0
   24.8974  -21.9654   -7.3394 O   0  0  0  0  0  0  0  0  0  0  0  0
  1  5  1  0
  2  1  1  0
  2  3  1  0
  3  4  1  0
  5  4  1  0
  6  7  2  0
  5  6  1  1
  8  9  1  0
  9 11  1  0
 10  9  2  0
 11 12  1  0
 13 12  1  6
 13 14  1  0
 14  6  1  0
 15 17  1  0
 15 13  1  0
 16 15  2  0
 18 17  1  0
 18 29  1  0
 18 19  1  1
 20 28  1  0
 20 19  1  0
 21 20  2  0
 22 21  1  0
 22 23  1  0
 23 28  2  0
 24 23  1  0
 24 25  2  0
 25 26  1  0
 27 26  2  0
 28 27  1  0
 29 31  1  0
 30 29  2  0
M  END
$$$$
