PQW.pdb
     RDKit          3D

 31 33  0  0  1  0  0  0  0  0999 V2000
   28.4566  -20.3894  -16.0143 N   0  0  0  0  0  0  0  0  0  0  0  0
   28.8921  -19.9215  -17.3487 C   0  0  0  0  0  0  0  0  0  0  0  0
   28.2071  -18.5706  -17.3620 C   0  0  0  0  0  0  0  0  0  0  0  0
   28.6076  -18.0204  -16.0160 C   0  0  0  0  0  0  0  0  0  0  0  0
   28.6361  -19.2598  -15.1551 C   0  0  1  0  0  0  0  0  0  0  0  0
   27.6363  -19.1170  -14.0828 C   0  0  0  0  0  0  0  0  0  0  0  0
   27.6619  -18.0911  -13.3162 O   0  0  0  0  0  0  0  0  0  0  0  0
   21.8875  -21.1203  -14.3332 N   0  0  0  0  0  0  0  0  0  0  0  0
   21.7955  -20.4805  -13.0669 C   0  0  0  0  0  0  0  0  0  0  0  0
   20.6883  -20.3662  -12.5383 O   0  0  0  0  0  0  0  0  0  0  0  0
   23.0369  -19.9843  -12.4459 C   0  0  0  0  0  0  0  0  0  0  0  0
   24.1963  -20.2030  -13.3352 C   0  0  0  0  0  0  0  0  0  0  0  0
   25.5249  -19.7376  -12.8397 C   0  0  2  0  0  0  0  0  0  0  0  0
   26.5972  -20.0410  -13.7946 N   0  0  0  0  0  0  0  0  0  0  0  0
   25.8450  -20.5035  -11.5968 C   0  0  0  0  0  0  0  0  0  0  0  0
   26.5016  -21.5662  -11.7003 O   0  0  0  0  0  0  0  0  0  0  0  0
   25.4576  -20.1111  -10.3137 N   0  0  0  0  0  0  0  0  0  0  0  0
   25.8708  -20.8194   -9.0791 C   0  0  1  0  0  0  0  0  0  0  0  0
   27.0895  -20.1571   -8.5606 C   0  0  0  0  0  0  0  0  0  0  0  0
   27.5828  -20.5984   -7.2478 C   0  0  0  0  0  0  0  0  0  0  0  0
   27.6357  -21.9321   -6.8180 C   0  0  0  0  0  0  0  0  0  0  0  0
   28.1058  -21.9869   -5.5633 N   0  0  0  0  0  0  0  0  0  0  0  0
   28.3530  -20.7314   -5.1852 C   0  0  0  0  0  0  0  0  0  0  0  0
   28.8614  -20.2228   -3.9941 C   0  0  0  0  0  0  0  0  0  0  0  0
   29.0468  -18.8747   -3.8402 C   0  0  0  0  0  0  0  0  0  0  0  0
   28.7465  -17.9728   -4.8340 C   0  0  0  0  0  0  0  0  0  0  0  0
   28.2457  -18.4781   -6.0046 C   0  0  0  0  0  0  0  0  0  0  0  0
   28.0518  -19.8337   -6.1771 C   0  0  0  0  0  0  0  0  0  0  0  0
   24.6887  -20.8587   -8.2116 C   0  0  0  0  0  0  0  0  0  0  0  0
   24.6487  -21.6065   -7.1673 O   0  0  0  0  0  0  0  0  0  0  0  0
   23.5242  -20.1236   -8.4005 O   0  0  0  0  0  0  0  0  0  0  0  0
  1  5  1  0
  2  1  1  0
  2  3  1  0
  3  4  1  0
  5  4  1  0
  6  7  2  0
  5  6  1  1
  8  9  1  0
  9 11  1  0
 10  9  2  0
 11 12  1  0
 13 12  1  6
 13 14  1  0
 14  6  1  0
 15 17  1  0
 15 13  1  0
 16 15  2  0
 18 17  1  0
 18 29  1  0
 18 19  1  1
 20 28  1  0
 20 19  1  0
 21 20  2  0
 22 21  1  0
 22 23  1  0
 23 28  2  0
 24 23  1  0
 24 25  2  0
 25 26  1  0
 27 26  2  0
 28 27  1  0
 29 31  1  0
 30 29  2  0
M  END
$$$$
