PQW.pdb
     RDKit          3D

 31 33  0  0  1  0  0  0  0  0999 V2000
   25.6132  -20.4317  -16.6777 N   0  0  0  0  0  0  0  0  0  0  0  0
   25.4702  -20.0269  -18.0937 C   0  0  0  0  0  0  0  0  0  0  0  0
   24.6821  -18.7485  -17.8968 C   0  0  0  0  0  0  0  0  0  0  0  0
   25.4866  -18.0655  -16.8193 C   0  0  0  0  0  0  0  0  0  0  0  0
   25.9694  -19.2298  -15.9888 C   0  0  1  0  0  0  0  0  0  0  0  0
   25.4266  -19.0989  -14.6257 C   0  0  0  0  0  0  0  0  0  0  0  0
   25.6938  -18.0588  -13.9274 O   0  0  0  0  0  0  0  0  0  0  0  0
   20.2279  -21.5033  -12.4214 N   0  0  0  0  0  0  0  0  0  0  0  0
   20.6455  -20.8468  -11.2315 C   0  0  0  0  0  0  0  0  0  0  0  0
   19.8772  -20.8173  -10.2685 O   0  0  0  0  0  0  0  0  0  0  0  0
   21.9851  -20.2321  -11.2091 C   0  0  0  0  0  0  0  0  0  0  0  0
   22.6740  -20.4198  -12.5025 C   0  0  0  0  0  0  0  0  0  0  0  0
   24.0261  -19.8040  -12.6433 C   0  0  2  0  0  0  0  0  0  0  0  0
   24.5990  -20.0497  -13.9719 N   0  0  0  0  0  0  0  0  0  0  0  0
   24.9387  -20.4720  -11.6662 C   0  0  0  0  0  0  0  0  0  0  0  0
   26.0149  -20.9575  -12.0868 O   0  0  0  0  0  0  0  0  0  0  0  0
   24.6701  -20.5936  -10.3010 N   0  0  0  0  0  0  0  0  0  0  0  0
   25.6751  -21.0296   -9.3027 C   0  0  1  0  0  0  0  0  0  0  0  0
   26.8397  -20.1204   -9.4022 C   0  0  0  0  0  0  0  0  0  0  0  0
   27.9948  -20.4173   -8.5425 C   0  0  0  0  0  0  0  0  0  0  0  0
   28.9863  -21.3660   -8.8311 C   0  0  0  0  0  0  0  0  0  0  0  0
   29.8768  -21.4118   -7.8296 N   0  0  0  0  0  0  0  0  0  0  0  0
   29.4817  -20.5224   -6.9168 C   0  0  0  0  0  0  0  0  0  0  0  0
   30.0456  -20.1567   -5.6984 C   0  0  0  0  0  0  0  0  0  0  0  0
   29.4588  -19.1895   -4.9266 C   0  0  0  0  0  0  0  0  0  0  0  0
   28.3064  -18.5431   -5.3076 C   0  0  0  0  0  0  0  0  0  0  0  0
   27.7546  -18.9068   -6.5076 C   0  0  0  0  0  0  0  0  0  0  0  0
   28.3318  -19.8799   -7.2981 C   0  0  0  0  0  0  0  0  0  0  0  0
   24.9723  -21.1071   -8.0176 C   0  0  0  0  0  0  0  0  0  0  0  0
   25.5524  -21.5570   -6.9628 O   0  0  0  0  0  0  0  0  0  0  0  0
   23.6571  -20.7177   -7.7922 O   0  0  0  0  0  0  0  0  0  0  0  0
  1  5  1  0
  2  1  1  0
  2  3  1  0
  3  4  1  0
  5  4  1  0
  6  7  2  0
  5  6  1  1
  8  9  1  0
  9 11  1  0
 10  9  2  0
 11 12  1  0
 13 12  1  6
 13 14  1  0
 14  6  1  0
 15 17  1  0
 15 13  1  0
 16 15  2  0
 18 17  1  0
 18 29  1  0
 18 19  1  1
 20 28  1  0
 20 19  1  0
 21 20  2  0
 22 21  1  0
 22 23  1  0
 23 28  2  0
 24 23  1  0
 24 25  2  0
 25 26  1  0
 27 26  2  0
 28 27  1  0
 29 31  1  0
 30 29  2  0
M  END
$$$$
