PQW.pdb
     RDKit          3D

 31 33  0  0  1  0  0  0  0  0999 V2000
   27.9621  -22.8253  -17.9832 N   0  0  0  0  0  0  0  0  0  0  0  0
   28.7582  -22.9823  -19.2205 C   0  0  0  0  0  0  0  0  0  0  0  0
   29.7682  -21.8762  -18.9951 C   0  0  0  0  0  0  0  0  0  0  0  0
   30.2026  -22.1538  -17.5777 C   0  0  0  0  0  0  0  0  0  0  0  0
   28.9315  -22.6641  -16.9436 C   0  0  1  0  0  0  0  0  0  0  0  0
   28.5436  -21.7511  -15.8547 C   0  0  0  0  0  0  0  0  0  0  0  0
   29.3451  -21.5434  -14.8774 O   0  0  0  0  0  0  0  0  0  0  0  0
   24.4873  -17.1115  -16.1746 N   0  0  0  0  0  0  0  0  0  0  0  0
   24.8862  -16.9229  -14.8230 C   0  0  0  0  0  0  0  0  0  0  0  0
   24.4668  -15.9386  -14.2118 O   0  0  0  0  0  0  0  0  0  0  0  0
   25.7856  -17.9212  -14.2170 C   0  0  0  0  0  0  0  0  0  0  0  0
   26.1664  -18.9555  -15.2010 C   0  0  0  0  0  0  0  0  0  0  0  0
   27.0575  -20.0512  -14.7188 C   0  0  2  0  0  0  0  0  0  0  0  0
   27.3156  -21.0431  -15.7692 N   0  0  0  0  0  0  0  0  0  0  0  0
   26.3414  -20.7779  -13.6266 C   0  0  0  0  0  0  0  0  0  0  0  0
   25.3740  -21.5145  -13.9311 O   0  0  0  0  0  0  0  0  0  0  0  0
   26.6807  -20.6906  -12.2747 N   0  0  0  0  0  0  0  0  0  0  0  0
   26.0480  -21.5116  -11.2152 C   0  0  1  0  0  0  0  0  0  0  0  0
   27.0204  -21.6531  -10.1074 C   0  0  0  0  0  0  0  0  0  0  0  0
   26.9690  -20.6435   -9.0399 C   0  0  0  0  0  0  0  0  0  0  0  0
   25.9346  -19.7129   -8.8656 C   0  0  0  0  0  0  0  0  0  0  0  0
   26.2096  -18.9182   -7.8210 N   0  0  0  0  0  0  0  0  0  0  0  0
   27.3838  -19.3161   -7.3279 C   0  0  0  0  0  0  0  0  0  0  0  0
   28.1213  -18.8492   -6.2443 C   0  0  0  0  0  0  0  0  0  0  0  0
   29.3130  -19.4372   -5.9132 C   0  0  0  0  0  0  0  0  0  0  0  0
   29.8315  -20.4971   -6.6194 C   0  0  0  0  0  0  0  0  0  0  0  0
   29.1023  -20.9529   -7.6857 C   0  0  0  0  0  0  0  0  0  0  0  0
   27.8996  -20.3722   -8.0343 C   0  0  0  0  0  0  0  0  0  0  0  0
   24.7578  -20.8797  -10.9198 C   0  0  0  0  0  0  0  0  0  0  0  0
   24.5242  -19.6552  -11.2325 O   0  0  0  0  0  0  0  0  0  0  0  0
   23.6790  -21.4991  -10.2995 O   0  0  0  0  0  0  0  0  0  0  0  0
  1  5  1  0
  2  1  1  0
  2  3  1  0
  3  4  1  0
  5  4  1  0
  6  7  2  0
  5  6  1  1
  8  9  1  0
  9 11  1  0
 10  9  2  0
 11 12  1  0
 13 12  1  6
 13 14  1  0
 14  6  1  0
 15 17  1  0
 15 13  1  0
 16 15  2  0
 18 17  1  0
 18 29  1  0
 18 19  1  1
 20 28  1  0
 20 19  1  0
 21 20  2  0
 22 21  1  0
 22 23  1  0
 23 28  2  0
 24 23  1  0
 24 25  2  0
 25 26  1  0
 27 26  2  0
 28 27  1  0
 29 31  1  0
 30 29  2  0
M  END
$$$$
