PQW.pdb
     RDKit          3D

 31 33  0  0  1  0  0  0  0  0999 V2000
   26.0191  -19.5176  -21.7787 N   0  0  0  0  0  0  0  0  0  0  0  0
   26.7265  -19.9017  -23.0203 C   0  0  0  0  0  0  0  0  0  0  0  0
   27.2886  -21.2345  -22.5709 C   0  0  0  0  0  0  0  0  0  0  0  0
   26.0688  -21.8835  -21.9662 C   0  0  0  0  0  0  0  0  0  0  0  0
   25.3420  -20.7067  -21.3619 C   0  0  1  0  0  0  0  0  0  0  0  0
   25.2491  -20.9026  -19.9049 C   0  0  0  0  0  0  0  0  0  0  0  0
   24.5320  -21.8524  -19.4310 O   0  0  0  0  0  0  0  0  0  0  0  0
   28.2928  -21.8847  -15.5863 N   0  0  0  0  0  0  0  0  0  0  0  0
   27.5545  -21.0777  -14.6779 C   0  0  0  0  0  0  0  0  0  0  0  0
   27.5926  -21.3488  -13.4765 O   0  0  0  0  0  0  0  0  0  0  0  0
   26.7771  -19.9498  -15.2224 C   0  0  0  0  0  0  0  0  0  0  0  0
   26.8943  -19.8891  -16.6940 C   0  0  0  0  0  0  0  0  0  0  0  0
   25.7110  -20.3378  -17.4850 C   0  0  2  0  0  0  0  0  0  0  0  0
   25.9013  -20.1115  -18.9224 N   0  0  0  0  0  0  0  0  0  0  0  0
   24.5436  -19.4961  -17.0818 C   0  0  0  0  0  0  0  0  0  0  0  0
   24.5709  -18.2701  -17.3412 O   0  0  0  0  0  0  0  0  0  0  0  0
   23.4120  -19.9885  -16.4280 N   0  0  0  0  0  0  0  0  0  0  0  0
   22.2361  -19.1551  -16.0828 C   0  0  1  0  0  0  0  0  0  0  0  0
   21.1463  -19.4920  -17.0271 C   0  0  0  0  0  0  0  0  0  0  0  0
   20.4671  -20.7811  -16.8315 C   0  0  0  0  0  0  0  0  0  0  0  0
   19.5960  -21.0758  -15.7729 C   0  0  0  0  0  0  0  0  0  0  0  0
   19.1742  -22.3450  -15.8713 N   0  0  0  0  0  0  0  0  0  0  0  0
   19.7494  -22.8629  -16.9582 C   0  0  0  0  0  0  0  0  0  0  0  0
   19.6463  -24.1284  -17.5272 C   0  0  0  0  0  0  0  0  0  0  0  0
   20.3304  -24.4293  -18.6748 C   0  0  0  0  0  0  0  0  0  0  0  0
   21.1377  -23.5156  -19.3108 C   0  0  0  0  0  0  0  0  0  0  0  0
   21.2365  -22.2712  -18.7467 C   0  0  0  0  0  0  0  0  0  0  0  0
   20.5547  -21.9505  -17.5902 C   0  0  0  0  0  0  0  0  0  0  0  0
   21.9919  -19.3602  -14.6511 C   0  0  0  0  0  0  0  0  0  0  0  0
   22.6304  -20.2538  -13.9838 O   0  0  0  0  0  0  0  0  0  0  0  0
   21.0867  -18.6445  -13.8762 O   0  0  0  0  0  0  0  0  0  0  0  0
  1  5  1  0
  2  1  1  0
  2  3  1  0
  3  4  1  0
  5  4  1  0
  6  7  2  0
  5  6  1  1
  8  9  1  0
  9 11  1  0
 10  9  2  0
 11 12  1  0
 13 12  1  1
 13 14  1  0
 14  6  1  0
 15 17  1  0
 15 13  1  0
 16 15  2  0
 18 17  1  0
 18 29  1  0
 18 19  1  6
 20 28  1  0
 20 19  1  0
 21 20  2  0
 22 21  1  0
 22 23  1  0
 23 28  2  0
 24 23  1  0
 24 25  2  0
 25 26  1  0
 27 26  2  0
 28 27  1  0
 29 31  1  0
 30 29  2  0
M  END
$$$$
