PQW.pdb
     RDKit          3D

 31 33  0  0  1  0  0  0  0  0999 V2000
   42.4238  -26.1354    4.1262 N   0  0  0  0  0  0  0  0  0  0  0  0
   43.5794  -26.2952    3.2161 C   0  0  0  0  0  0  0  0  0  0  0  0
   42.8337  -26.6396    1.9435 C   0  0  0  0  0  0  0  0  0  0  0  0
   41.7796  -25.5612    1.9147 C   0  0  0  0  0  0  0  0  0  0  0  0
   41.4756  -25.3667    3.3803 C   0  0  1  0  0  0  0  0  0  0  0  0
   40.0616  -25.7024    3.6211 C   0  0  0  0  0  0  0  0  0  0  0  0
   39.1385  -25.0709    2.9968 O   0  0  0  0  0  0  0  0  0  0  0  0
   37.7810  -30.7281    6.5509 N   0  0  0  0  0  0  0  0  0  0  0  0
   36.5496  -30.0617    6.3040 C   0  0  0  0  0  0  0  0  0  0  0  0
   35.4996  -30.6076    6.6472 O   0  0  0  0  0  0  0  0  0  0  0  0
   36.5915  -28.7427    5.6472 C   0  0  0  0  0  0  0  0  0  0  0  0
   37.9787  -28.3673    5.3040 C   0  0  0  0  0  0  0  0  0  0  0  0
   38.1720  -27.0648    4.6016 C   0  0  2  0  0  0  0  0  0  0  0  0
   39.5908  -26.6995    4.5158 N   0  0  0  0  0  0  0  0  0  0  0  0
   37.5166  -26.0002    5.4207 C   0  0  0  0  0  0  0  0  0  0  0  0
   38.0306  -25.6889    6.5206 O   0  0  0  0  0  0  0  0  0  0  0  0
   36.3572  -25.3214    5.0393 N   0  0  0  0  0  0  0  0  0  0  0  0
   35.7363  -24.2421    5.8431 C   0  0  1  0  0  0  0  0  0  0  0  0
   35.6387  -23.0366    4.9885 C   0  0  0  0  0  0  0  0  0  0  0  0
   34.8275  -21.9209    5.4969 C   0  0  0  0  0  0  0  0  0  0  0  0
   34.9940  -21.3143    6.7501 C   0  0  0  0  0  0  0  0  0  0  0  0
   34.0746  -20.3521    6.9150 N   0  0  0  0  0  0  0  0  0  0  0  0
   33.3321  -20.3294    5.8067 C   0  0  0  0  0  0  0  0  0  0  0  0
   32.2589  -19.5203    5.4464 C   0  0  0  0  0  0  0  0  0  0  0  0
   31.6551  -19.6738    4.2268 C   0  0  0  0  0  0  0  0  0  0  0  0
   32.0695  -20.6154    3.3143 C   0  0  0  0  0  0  0  0  0  0  0  0
   33.1259  -21.4100    3.6736 C   0  0  0  0  0  0  0  0  0  0  0  0
   33.7462  -21.2698    4.8986 C   0  0  0  0  0  0  0  0  0  0  0  0
   34.4941  -24.7984    6.3900 C   0  0  0  0  0  0  0  0  0  0  0  0
   33.8794  -25.7650    5.8075 O   0  0  0  0  0  0  0  0  0  0  0  0
   33.8620  -24.3722    7.5523 O   0  0  0  0  0  0  0  0  0  0  0  0
  1  5  1  0
  2  1  1  0
  2  3  1  0
  3  4  1  0
  5  4  1  0
  6  7  2  0
  5  6  1  6
  8  9  1  0
  9 11  1  0
 10  9  2  0
 11 12  1  0
 13 12  1  1
 13 14  1  0
 14  6  1  0
 15 17  1  0
 15 13  1  0
 16 15  2  0
 18 17  1  0
 18 29  1  0
 18 19  1  6
 20 28  1  0
 20 19  1  0
 21 20  2  0
 22 21  1  0
 22 23  1  0
 23 28  2  0
 24 23  1  0
 24 25  2  0
 25 26  1  0
 27 26  2  0
 28 27  1  0
 29 31  1  0
 30 29  2  0
M  END
$$$$
