PQW.pdb
     RDKit          3D

 31 33  0  0  1  0  0  0  0  0999 V2000
   27.6816  -19.8587  -16.2169 N   0  0  0  0  0  0  0  0  0  0  0  0
   28.1789  -19.1773  -17.4325 C   0  0  0  0  0  0  0  0  0  0  0  0
   28.0673  -17.7417  -16.9626 C   0  0  0  0  0  0  0  0  0  0  0  0
   28.7323  -17.8181  -15.6110 C   0  0  0  0  0  0  0  0  0  0  0  0
   28.3355  -19.1935  -15.1324 C   0  0  1  0  0  0  0  0  0  0  0  0
   27.5371  -19.0568  -13.9021 C   0  0  0  0  0  0  0  0  0  0  0  0
   27.9660  -18.3306  -12.9380 O   0  0  0  0  0  0  0  0  0  0  0  0
   21.2477  -18.8554  -12.7697 N   0  0  0  0  0  0  0  0  0  0  0  0
   22.0428  -18.8682  -13.9483 C   0  0  0  0  0  0  0  0  0  0  0  0
   21.4894  -19.0361  -15.0363 O   0  0  0  0  0  0  0  0  0  0  0  0
   23.4978  -18.6775  -13.8084 C   0  0  0  0  0  0  0  0  0  0  0  0
   24.0340  -19.4970  -12.7021 C   0  0  0  0  0  0  0  0  0  0  0  0
   25.5015  -19.4085  -12.4457 C   0  0  2  0  0  0  0  0  0  0  0  0
   26.2819  -19.6751  -13.6596 N   0  0  0  0  0  0  0  0  0  0  0  0
   25.8631  -20.4845  -11.4734 C   0  0  0  0  0  0  0  0  0  0  0  0
   26.1021  -21.6337  -11.9132 O   0  0  0  0  0  0  0  0  0  0  0  0
   25.9534  -20.2942  -10.0928 N   0  0  0  0  0  0  0  0  0  0  0  0
   26.2505  -21.3830   -9.1321 C   0  0  1  0  0  0  0  0  0  0  0  0
   27.5909  -21.1288   -8.5563 C   0  0  0  0  0  0  0  0  0  0  0  0
   27.7054  -20.0261   -7.5907 C   0  0  0  0  0  0  0  0  0  0  0  0
   27.1117  -18.7646   -7.7402 C   0  0  0  0  0  0  0  0  0  0  0  0
   27.4375  -17.9829   -6.7004 N   0  0  0  0  0  0  0  0  0  0  0  0
   28.2174  -18.7089   -5.8973 C   0  0  0  0  0  0  0  0  0  0  0  0
   28.8175  -18.3930   -4.6823 C   0  0  0  0  0  0  0  0  0  0  0  0
   29.5741  -19.3237   -4.0213 C   0  0  0  0  0  0  0  0  0  0  0  0
   29.7756  -20.5918   -4.5136 C   0  0  0  0  0  0  0  0  0  0  0  0
   29.1833  -20.8980   -5.7103 C   0  0  0  0  0  0  0  0  0  0  0  0
   28.4180  -19.9725   -6.3906 C   0  0  0  0  0  0  0  0  0  0  0  0
   25.1088  -21.4444   -8.2132 C   0  0  0  0  0  0  0  0  0  0  0  0
   25.0062  -22.3756   -7.3335 O   0  0  0  0  0  0  0  0  0  0  0  0
   24.0508  -20.5435   -8.1793 O   0  0  0  0  0  0  0  0  0  0  0  0
  1  5  1  0
  2  1  1  0
  2  3  1  0
  3  4  1  0
  5  4  1  0
  6  7  2  0
  5  6  1  1
  8  9  1  0
  9 11  1  0
 10  9  2  0
 11 12  1  0
 13 12  1  6
 13 14  1  0
 14  6  1  0
 15 17  1  0
 15 13  1  0
 16 15  2  0
 18 17  1  0
 18 29  1  0
 18 19  1  1
 20 28  1  0
 20 19  1  0
 21 20  2  0
 22 21  1  0
 22 23  1  0
 23 28  2  0
 24 23  1  0
 24 25  2  0
 25 26  1  0
 27 26  2  0
 28 27  1  0
 29 31  1  0
 30 29  2  0
M  END
$$$$
