PQW.pdb
     RDKit          3D

 31 33  0  0  1  0  0  0  0  0999 V2000
   29.5498  -22.4488  -18.3956 N   0  0  0  0  0  0  0  0  0  0  0  0
   29.4793  -23.7292  -19.1338 C   0  0  0  0  0  0  0  0  0  0  0  0
   28.8447  -24.5881  -18.0595 C   0  0  0  0  0  0  0  0  0  0  0  0
   27.6976  -23.7139  -17.6182 C   0  0  0  0  0  0  0  0  0  0  0  0
   28.2768  -22.3267  -17.7546 C   0  0  1  0  0  0  0  0  0  0  0  0
   28.2968  -21.6874  -16.4277 C   0  0  0  0  0  0  0  0  0  0  0  0
   29.2376  -21.9571  -15.6012 O   0  0  0  0  0  0  0  0  0  0  0  0
   27.1001  -17.8141  -17.2775 N   0  0  0  0  0  0  0  0  0  0  0  0
   28.2622  -17.4050  -16.5681 C   0  0  0  0  0  0  0  0  0  0  0  0
   29.1138  -16.7374  -17.1577 O   0  0  0  0  0  0  0  0  0  0  0  0
   28.3901  -17.8013  -15.1540 C   0  0  0  0  0  0  0  0  0  0  0  0
   27.2433  -18.6320  -14.7325 C   0  0  0  0  0  0  0  0  0  0  0  0
   27.4737  -20.1035  -14.6382 C   0  0  2  0  0  0  0  0  0  0  0  0
   27.3370  -20.7593  -15.9440 N   0  0  0  0  0  0  0  0  0  0  0  0
   26.4040  -20.6805  -13.7684 C   0  0  0  0  0  0  0  0  0  0  0  0
   25.3054  -20.9830  -14.2906 O   0  0  0  0  0  0  0  0  0  0  0  0
   26.5470  -20.9077  -12.3978 N   0  0  0  0  0  0  0  0  0  0  0  0
   25.5758  -21.6811  -11.5885 C   0  0  1  0  0  0  0  0  0  0  0  0
   26.2560  -22.1045  -10.3431 C   0  0  0  0  0  0  0  0  0  0  0  0
   26.4835  -21.0721   -9.3215 C   0  0  0  0  0  0  0  0  0  0  0  0
   25.4925  -20.2280   -8.8001 C   0  0  0  0  0  0  0  0  0  0  0  0
   26.0366  -19.3824   -7.9128 N   0  0  0  0  0  0  0  0  0  0  0  0
   27.3395  -19.6644   -7.8550 C   0  0  0  0  0  0  0  0  0  0  0  0
   28.3589  -19.1049   -7.0909 C   0  0  0  0  0  0  0  0  0  0  0  0
   29.6396  -19.5794   -7.1915 C   0  0  0  0  0  0  0  0  0  0  0  0
   29.9773  -20.6117   -8.0349 C   0  0  0  0  0  0  0  0  0  0  0  0
   28.9706  -21.1590   -8.7855 C   0  0  0  0  0  0  0  0  0  0  0  0
   27.6743  -20.6932   -8.6976 C   0  0  0  0  0  0  0  0  0  0  0  0
   24.3800  -20.8406  -11.4659 C   0  0  0  0  0  0  0  0  0  0  0  0
   24.4388  -19.5658  -11.6173 O   0  0  0  0  0  0  0  0  0  0  0  0
   23.0969  -21.2981  -11.1891 O   0  0  0  0  0  0  0  0  0  0  0  0
  1  5  1  0
  2  1  1  0
  2  3  1  0
  3  4  1  0
  5  4  1  0
  6  7  2  0
  5  6  1  1
  8  9  1  0
  9 11  1  0
 10  9  2  0
 11 12  1  0
 13 12  1  6
 13 14  1  0
 14  6  1  0
 15 17  1  0
 15 13  1  0
 16 15  2  0
 18 17  1  0
 18 29  1  0
 18 19  1  1
 20 28  1  0
 20 19  1  0
 21 20  2  0
 22 21  1  0
 22 23  1  0
 23 28  2  0
 24 23  1  0
 24 25  2  0
 25 26  1  0
 27 26  2  0
 28 27  1  0
 29 31  1  0
 30 29  2  0
M  END
$$$$
