KTF.pdb
     RDKit          3D

 28 28  0  0  1  0  0  0  0  0999 V2000
   21.7948  -17.1441  -15.9589 N   0  0  0  0  0  0  0  0  0  0  0  0
   21.2319  -15.9620  -16.5132 C   0  0  1  0  0  0  0  0  0  0  0  0
   19.7762  -15.9938  -16.6956 C   0  0  0  0  0  0  0  0  0  0  0  0
   19.1276  -17.0478  -17.4529 C   0  0  0  0  0  0  0  0  0  0  0  0
   19.2719  -18.4800  -17.3381 C   0  0  0  0  0  0  0  0  0  0  0  0
   18.5247  -19.4610  -18.1518 C   0  0  0  0  0  0  0  0  0  0  0  0
   17.3146  -19.8067  -17.3086 N   0  0  0  0  0  0  0  0  0  0  0  0
   21.6564  -14.8091  -15.6266 C   0  0  0  0  0  0  0  0  0  0  0  0
   21.4841  -14.9393  -14.3983 O   0  0  0  0  0  0  0  0  0  0  0  0
   24.7131  -13.7034  -14.6795 C   0  0  0  0  0  0  0  0  0  0  0  0
   24.1563  -12.4698  -15.3321 C   0  0  1  0  0  0  0  0  0  0  0  0
   24.5864  -12.3744  -16.6630 O   0  0  0  0  0  0  0  0  0  0  0  0
   22.6231  -12.5082  -15.2787 C   0  0  2  0  0  0  0  0  0  0  0  0
   22.2246  -13.6221  -16.1160 N   0  0  0  0  0  0  0  0  0  0  0  0
   22.1103  -11.2172  -15.8498 C   0  0  0  0  0  0  0  0  0  0  0  0
   21.7753  -11.1065  -17.0623 O   0  0  0  0  0  0  0  0  0  0  0  0
   21.9729  -10.0500  -15.0600 N   0  0  0  0  0  0  0  0  0  0  0  0
   21.4540   -8.7867  -15.5808 C   0  0  1  0  0  0  0  0  0  0  0  0
   19.9894   -9.1034  -15.9026 C   0  0  0  0  0  0  0  0  0  0  0  0
   19.2137   -7.9713  -16.3560 C   0  0  0  0  0  0  0  0  0  0  0  0
   19.5020   -7.3392  -17.5393 C   0  0  0  0  0  0  0  0  0  0  0  0
   18.7463   -6.2438  -17.9717 C   0  0  0  0  0  0  0  0  0  0  0  0
   17.6967   -5.7803  -17.2143 C   0  0  0  0  0  0  0  0  0  0  0  0
   17.4049   -6.4112  -16.0278 C   0  0  0  0  0  0  0  0  0  0  0  0
   18.1595   -7.4919  -15.6129 C   0  0  0  0  0  0  0  0  0  0  0  0
   21.5477   -7.7011  -14.6127 C   0  0  0  0  0  0  0  0  0  0  0  0
   21.4911   -7.9361  -13.3871 O   0  0  0  0  0  0  0  0  0  0  0  0
   21.7006   -6.3976  -15.0314 O   0  0  0  0  0  0  0  0  0  0  0  0
  2  1  1  1
  2  3  1  0
  4  3  1  0
  5  6  1  0
  5  4  1  0
  7  6  1  0
  8  9  2  0
  8  2  1  0
 11 10  1  6
 11 13  1  0
 12 11  1  0
 13 14  1  6
 14  8  1  0
 15 16  2  0
 15 13  1  0
 17 15  1  0
 18 19  1  1
 18 17  1  0
 20 19  1  0
 20 21  2  0
 22 21  1  0
 23 22  2  0
 24 25  2  0
 24 23  1  0
 25 20  1  0
 26 18  1  0
 27 26  2  0
 28 26  1  0
M  END
$$$$
