KTF.pdb
     RDKit          3D

 28 28  0  0  1  0  0  0  0  0999 V2000
   26.7309  -22.2057  -10.7076 N   0  0  0  0  0  0  0  0  0  0  0  0
   25.7447  -21.1836  -10.7741 C   0  0  1  0  0  0  0  0  0  0  0  0
   25.7625  -20.2298   -9.6591 C   0  0  0  0  0  0  0  0  0  0  0  0
   24.8820  -20.3803   -8.5157 C   0  0  0  0  0  0  0  0  0  0  0  0
   23.8447  -21.3570   -8.2807 C   0  0  0  0  0  0  0  0  0  0  0  0
   22.9341  -21.3424   -7.1173 C   0  0  0  0  0  0  0  0  0  0  0  0
   22.0311  -22.5400   -7.3302 N   0  0  0  0  0  0  0  0  0  0  0  0
   25.9180  -20.4844  -12.1070 C   0  0  0  0  0  0  0  0  0  0  0  0
   27.0328  -19.9792  -12.3466 O   0  0  0  0  0  0  0  0  0  0  0  0
   25.4902  -21.9359  -15.4301 C   0  0  0  0  0  0  0  0  0  0  0  0
   24.5636  -20.7536  -15.3961 C   0  0  1  0  0  0  0  0  0  0  0  0
   23.2571  -21.1549  -15.0842 O   0  0  0  0  0  0  0  0  0  0  0  0
   25.0622  -19.7401  -14.3571 C   0  0  2  0  0  0  0  0  0  0  0  0
   24.8992  -20.3812  -13.0675 N   0  0  0  0  0  0  0  0  0  0  0  0
   24.1892  -18.5213  -14.4475 C   0  0  0  0  0  0  0  0  0  0  0  0
   23.1477  -18.3889  -13.7459 O   0  0  0  0  0  0  0  0  0  0  0  0
   24.4853  -17.4502  -15.3252 N   0  0  0  0  0  0  0  0  0  0  0  0
   23.6987  -16.2195  -15.3813 C   0  0  1  0  0  0  0  0  0  0  0  0
   24.7551  -15.1120  -15.3020 C   0  0  0  0  0  0  0  0  0  0  0  0
   25.7648  -15.1674  -16.3346 C   0  0  0  0  0  0  0  0  0  0  0  0
   26.9015  -15.9200  -16.1787 C   0  0  0  0  0  0  0  0  0  0  0  0
   27.8746  -15.9688  -17.1830 C   0  0  0  0  0  0  0  0  0  0  0  0
   27.7070  -15.2598  -18.3489 C   0  0  0  0  0  0  0  0  0  0  0  0
   26.5691  -14.5044  -18.5087 C   0  0  0  0  0  0  0  0  0  0  0  0
   25.6163  -14.4654  -17.5086 C   0  0  0  0  0  0  0  0  0  0  0  0
   22.9223  -16.1066  -16.6097 C   0  0  0  0  0  0  0  0  0  0  0  0
   22.1343  -15.1519  -16.7777 O   0  0  0  0  0  0  0  0  0  0  0  0
   23.0435  -17.0495  -17.6066 O   0  0  0  0  0  0  0  0  0  0  0  0
  2  1  1  1
  2  3  1  0
  4  3  1  0
  5  6  1  0
  5  4  1  0
  7  6  1  0
  8  9  2  0
  8  2  1  0
 11 10  1  1
 11 13  1  0
 12 11  1  0
 13 14  1  1
 14  8  1  0
 15 16  2  0
 15 13  1  0
 17 15  1  0
 18 19  1  6
 18 17  1  0
 20 19  1  0
 20 21  2  0
 22 21  1  0
 23 22  2  0
 24 25  2  0
 24 23  1  0
 25 20  1  0
 26 18  1  0
 27 26  2  0
 28 26  1  0
M  END
$$$$
