KTF.pdb
     RDKit          3D

 28 28  0  0  1  0  0  0  0  0999 V2000
   22.7082  -19.8607  -15.0141 N   0  0  0  0  0  0  0  0  0  0  0  0
   22.4470  -19.3085  -13.7302 C   0  0  1  0  0  0  0  0  0  0  0  0
   21.0293  -19.0778  -13.4300 C   0  0  0  0  0  0  0  0  0  0  0  0
   19.9764  -19.6260  -14.2645 C   0  0  0  0  0  0  0  0  0  0  0  0
   18.6990  -19.0547  -14.6208 C   0  0  0  0  0  0  0  0  0  0  0  0
   17.5023  -19.0834  -13.7548 C   0  0  0  0  0  0  0  0  0  0  0  0
   16.4093  -18.4640  -14.6014 N   0  0  0  0  0  0  0  0  0  0  0  0
   23.0887  -20.2283  -12.7115 C   0  0  0  0  0  0  0  0  0  0  0  0
   22.3513  -21.0633  -12.1510 O   0  0  0  0  0  0  0  0  0  0  0  0
   25.2071  -22.7997  -13.3532 C   0  0  0  0  0  0  0  0  0  0  0  0
   26.0316  -21.9659  -12.4138 C   0  0  1  0  0  0  0  0  0  0  0  0
   26.8850  -21.1116  -13.1261 O   0  0  0  0  0  0  0  0  0  0  0  0
   25.1045  -21.1440  -11.5083 C   0  0  2  0  0  0  0  0  0  0  0  0
   24.4513  -20.1841  -12.3758 N   0  0  0  0  0  0  0  0  0  0  0  0
   25.9591  -20.4354  -10.4967 C   0  0  0  0  0  0  0  0  0  0  0  0
   25.7302  -19.2455  -10.1411 O   0  0  0  0  0  0  0  0  0  0  0  0
   27.0707  -21.0624   -9.8833 N   0  0  0  0  0  0  0  0  0  0  0  0
   27.9284  -20.3949   -8.9058 C   0  0  1  0  0  0  0  0  0  0  0  0
   27.0131  -20.2078   -7.6908 C   0  0  0  0  0  0  0  0  0  0  0  0
   27.6786  -19.7189   -6.5047 C   0  0  0  0  0  0  0  0  0  0  0  0
   27.8360  -18.3744   -6.2802 C   0  0  0  0  0  0  0  0  0  0  0  0
   28.4814  -17.9085   -5.1293 C   0  0  0  0  0  0  0  0  0  0  0  0
   28.9709  -18.7949   -4.1993 C   0  0  0  0  0  0  0  0  0  0  0  0
   28.8150  -20.1430   -4.4210 C   0  0  0  0  0  0  0  0  0  0  0  0
   28.1756  -20.5891   -5.5619 C   0  0  0  0  0  0  0  0  0  0  0  0
   29.0993  -21.1883   -8.5539 C   0  0  0  0  0  0  0  0  0  0  0  0
   30.2319  -20.6632   -8.5071 O   0  0  0  0  0  0  0  0  0  0  0  0
   28.9783  -22.5301   -8.2665 O   0  0  0  0  0  0  0  0  0  0  0  0
  2  1  1  6
  2  3  1  0
  4  3  1  0
  5  6  1  0
  5  4  1  0
  7  6  1  0
  8  9  2  0
  8  2  1  0
 11 10  1  6
 11 13  1  0
 12 11  1  0
 13 14  1  6
 14  8  1  0
 15 16  2  0
 15 13  1  0
 17 15  1  0
 18 19  1  1
 18 17  1  0
 20 19  1  0
 20 21  2  0
 22 21  1  0
 23 22  2  0
 24 25  2  0
 24 23  1  0
 25 20  1  0
 26 18  1  0
 27 26  2  0
 28 26  1  0
M  END
$$$$
