KTF.pdb
     RDKit          3D

 28 28  0  0  1  0  0  0  0  0999 V2000
   22.0214  -18.9997  -16.0264 N   0  0  0  0  0  0  0  0  0  0  0  0
   21.0738  -17.9749  -16.2978 C   0  0  1  0  0  0  0  0  0  0  0  0
   19.7350  -18.2042  -15.7425 C   0  0  0  0  0  0  0  0  0  0  0  0
   19.0378  -19.4623  -15.9337 C   0  0  0  0  0  0  0  0  0  0  0  0
   19.0285  -20.6403  -15.0987 C   0  0  0  0  0  0  0  0  0  0  0  0
   18.0934  -20.8589  -13.9759 C   0  0  0  0  0  0  0  0  0  0  0  0
   18.4325  -22.2450  -13.4671 N   0  0  0  0  0  0  0  0  0  0  0  0
   21.6688  -16.6749  -15.7964 C   0  0  0  0  0  0  0  0  0  0  0  0
   22.7324  -16.7453  -15.1491 O   0  0  0  0  0  0  0  0  0  0  0  0
   23.9472  -15.1694  -15.7056 C   0  0  0  0  0  0  0  0  0  0  0  0
   23.0584  -14.1047  -16.2835 C   0  0  1  0  0  0  0  0  0  0  0  0
   22.9185  -14.2719  -17.6684 O   0  0  0  0  0  0  0  0  0  0  0  0
   21.6819  -14.1622  -15.6074 C   0  0  2  0  0  0  0  0  0  0  0  0
   21.0877  -15.4170  -16.0231 N   0  0  0  0  0  0  0  0  0  0  0  0
   20.8699  -13.0064  -16.1180 C   0  0  0  0  0  0  0  0  0  0  0  0
   20.4335  -12.9647  -17.3023 O   0  0  0  0  0  0  0  0  0  0  0  0
   20.5470  -11.8971  -15.2993 N   0  0  0  0  0  0  0  0  0  0  0  0
   19.8467  -10.7133  -15.7939 C   0  0  1  0  0  0  0  0  0  0  0  0
   18.5265  -10.7234  -15.0155 C   0  0  0  0  0  0  0  0  0  0  0  0
   17.5364  -11.6474  -15.5204 C   0  0  0  0  0  0  0  0  0  0  0  0
   16.7183  -11.3105  -16.5692 C   0  0  0  0  0  0  0  0  0  0  0  0
   15.7621  -12.2105  -17.0527 C   0  0  0  0  0  0  0  0  0  0  0  0
   15.6258  -13.4538  -16.4820 C   0  0  0  0  0  0  0  0  0  0  0  0
   16.4440  -13.7948  -15.4307 C   0  0  0  0  0  0  0  0  0  0  0  0
   17.3840  -12.8962  -14.9634 C   0  0  0  0  0  0  0  0  0  0  0  0
   20.5845   -9.4812  -15.5446 C   0  0  0  0  0  0  0  0  0  0  0  0
   21.6668   -9.5038  -14.9209 O   0  0  0  0  0  0  0  0  0  0  0  0
   20.1025   -8.2708  -15.9921 O   0  0  0  0  0  0  0  0  0  0  0  0
  2  1  1  1
  2  3  1  0
  4  3  1  0
  5  6  1  0
  5  4  1  0
  7  6  1  0
  8  9  2  0
  8  2  1  0
 11 10  1  1
 11 13  1  0
 12 11  1  0
 13 14  1  6
 14  8  1  0
 15 16  2  0
 15 13  1  0
 17 15  1  0
 18 19  1  1
 18 17  1  0
 20 19  1  0
 20 21  2  0
 22 21  1  0
 23 22  2  0
 24 25  2  0
 24 23  1  0
 25 20  1  0
 26 18  1  0
 27 26  2  0
 28 26  1  0
M  END
$$$$
