KTF.pdb
     RDKit          3D

 28 28  0  0  1  0  0  0  0  0999 V2000
   27.9180  -26.2315  -18.4503 N   0  0  0  0  0  0  0  0  0  0  0  0
   26.8840  -25.9849  -17.5061 C   0  0  1  0  0  0  0  0  0  0  0  0
   26.7393  -27.0063  -16.4625 C   0  0  0  0  0  0  0  0  0  0  0  0
   26.1507  -28.3024  -16.7436 C   0  0  0  0  0  0  0  0  0  0  0  0
   26.3049  -29.1459  -17.9055 C   0  0  0  0  0  0  0  0  0  0  0  0
   25.6133  -30.4376  -18.0955 C   0  0  0  0  0  0  0  0  0  0  0  0
   26.0191  -30.8816  -19.4859 N   0  0  0  0  0  0  0  0  0  0  0  0
   27.1416  -24.6152  -16.9120 C   0  0  0  0  0  0  0  0  0  0  0  0
   28.3307  -24.2585  -16.7928 O   0  0  0  0  0  0  0  0  0  0  0  0
   26.2036  -21.3147  -18.1218 C   0  0  0  0  0  0  0  0  0  0  0  0
   25.5572  -21.4471  -16.7719 C   0  0  1  0  0  0  0  0  0  0  0  0
   24.2307  -21.8835  -16.8967 O   0  0  0  0  0  0  0  0  0  0  0  0
   26.3561  -22.4384  -15.9151 C   0  0  2  0  0  0  0  0  0  0  0  0
   26.1211  -23.7449  -16.4968 N   0  0  0  0  0  0  0  0  0  0  0  0
   25.8086  -22.3839  -14.5175 C   0  0  0  0  0  0  0  0  0  0  0  0
   24.8555  -23.1218  -14.1414 O   0  0  0  0  0  0  0  0  0  0  0  0
   26.3312  -21.5012  -13.5413 N   0  0  0  0  0  0  0  0  0  0  0  0
   25.7552  -21.3512  -12.2064 C   0  0  1  0  0  0  0  0  0  0  0  0
   26.9261  -20.8332  -11.3641 C   0  0  0  0  0  0  0  0  0  0  0  0
   26.5750  -20.4496  -10.0156 C   0  0  0  0  0  0  0  0  0  0  0  0
   26.1708  -19.1717   -9.7216 C   0  0  0  0  0  0  0  0  0  0  0  0
   25.8323  -18.8079   -8.4135 C   0  0  0  0  0  0  0  0  0  0  0  0
   25.8994  -19.7297   -7.3957 C   0  0  0  0  0  0  0  0  0  0  0  0
   26.3042  -21.0113   -7.6866 C   0  0  0  0  0  0  0  0  0  0  0  0
   26.6354  -21.3568   -8.9828 C   0  0  0  0  0  0  0  0  0  0  0  0
   24.6423  -20.4103  -12.1791 C   0  0  0  0  0  0  0  0  0  0  0  0
   24.6300  -19.4187  -12.9390 O   0  0  0  0  0  0  0  0  0  0  0  0
   23.5851  -20.5974  -11.3161 O   0  0  0  0  0  0  0  0  0  0  0  0
  2  1  1  6
  2  3  1  0
  4  3  1  0
  5  6  1  0
  5  4  1  0
  7  6  1  0
  8  9  2  0
  8  2  1  0
 11 10  1  6
 11 13  1  0
 12 11  1  0
 13 14  1  6
 14  8  1  0
 15 16  2  0
 15 13  1  0
 17 15  1  0
 18 19  1  1
 18 17  1  0
 20 19  1  0
 20 21  2  0
 22 21  1  0
 23 22  2  0
 24 25  2  0
 24 23  1  0
 25 20  1  0
 26 18  1  0
 27 26  2  0
 28 26  1  0
M  END
$$$$
