KTF.pdb
     RDKit          3D

 28 28  0  0  1  0  0  0  0  0999 V2000
   21.9526  -19.9651  -13.7581 N   0  0  0  0  0  0  0  0  0  0  0  0
   23.0547  -20.8615  -13.8174 C   0  0  1  0  0  0  0  0  0  0  0  0
   22.7048  -22.2580  -14.1010 C   0  0  0  0  0  0  0  0  0  0  0  0
   21.6949  -22.6044  -15.0836 C   0  0  0  0  0  0  0  0  0  0  0  0
   20.4113  -23.2379  -14.8936 C   0  0  0  0  0  0  0  0  0  0  0  0
   19.5065  -23.6342  -15.9923 C   0  0  0  0  0  0  0  0  0  0  0  0
   18.2297  -24.0573  -15.2952 N   0  0  0  0  0  0  0  0  0  0  0  0
   24.0215  -20.3104  -14.8456 C   0  0  0  0  0  0  0  0  0  0  0  0
   23.5374  -19.8738  -15.9088 O   0  0  0  0  0  0  0  0  0  0  0  0
   26.7213  -17.7606  -14.1735 C   0  0  0  0  0  0  0  0  0  0  0  0
   27.3836  -18.9425  -14.8232 C   0  0  1  0  0  0  0  0  0  0  0  0
   27.9744  -19.7726  -13.8602 O   0  0  0  0  0  0  0  0  0  0  0  0
   26.3454  -19.7334  -15.6303 C   0  0  2  0  0  0  0  0  0  0  0  0
   25.4125  -20.2696  -14.6594 N   0  0  0  0  0  0  0  0  0  0  0  0
   27.0630  -20.8489  -16.3350 C   0  0  0  0  0  0  0  0  0  0  0  0
   26.8169  -22.0635  -16.0923 O   0  0  0  0  0  0  0  0  0  0  0  0
   28.0568  -20.6015  -17.3129 N   0  0  0  0  0  0  0  0  0  0  0  0
   28.6483  -21.6532  -18.1380 C   0  0  1  0  0  0  0  0  0  0  0  0
   27.4661  -22.1715  -18.9642 C   0  0  0  0  0  0  0  0  0  0  0  0
   27.8208  -23.1236  -19.9921 C   0  0  0  0  0  0  0  0  0  0  0  0
   27.8880  -22.7540  -21.3118 C   0  0  0  0  0  0  0  0  0  0  0  0
   28.2323  -23.6815  -22.3014 C   0  0  0  0  0  0  0  0  0  0  0  0
   28.5105  -24.9854  -21.9660 C   0  0  0  0  0  0  0  0  0  0  0  0
   28.4441  -25.3595  -20.6445 C   0  0  0  0  0  0  0  0  0  0  0  0
   28.1028  -24.4331  -19.6776 C   0  0  0  0  0  0  0  0  0  0  0  0
   29.7072  -21.1545  -19.0067 C   0  0  0  0  0  0  0  0  0  0  0  0
   30.7326  -21.8371  -19.2147 O   0  0  0  0  0  0  0  0  0  0  0  0
   29.5963  -19.9228  -19.6136 O   0  0  0  0  0  0  0  0  0  0  0  0
  2  1  1  6
  2  3  1  0
  4  3  1  0
  5  6  1  0
  5  4  1  0
  7  6  1  0
  8  9  2  0
  8  2  1  0
 11 10  1  1
 11 13  1  0
 12 11  1  0
 13 14  1  1
 14  8  1  0
 15 16  2  0
 15 13  1  0
 17 15  1  0
 18 19  1  6
 18 17  1  0
 20 19  1  0
 20 21  2  0
 22 21  1  0
 23 22  2  0
 24 25  2  0
 24 23  1  0
 25 20  1  0
 26 18  1  0
 27 26  2  0
 28 26  1  0
M  END
$$$$
