KTF.pdb
     RDKit          3D

 28 28  0  0  1  0  0  0  0  0999 V2000
   20.9742  -14.1806  -17.9961 N   0  0  0  0  0  0  0  0  0  0  0  0
   20.4718  -12.8514  -18.0457 C   0  0  1  0  0  0  0  0  0  0  0  0
   19.0098  -12.7420  -18.1072 C   0  0  0  0  0  0  0  0  0  0  0  0
   18.2156  -13.6250  -18.9408 C   0  0  0  0  0  0  0  0  0  0  0  0
   17.6491  -14.9159  -18.6280 C   0  0  0  0  0  0  0  0  0  0  0  0
   16.7208  -15.6544  -19.5087 C   0  0  0  0  0  0  0  0  0  0  0  0
   16.5221  -16.9864  -18.8149 N   0  0  0  0  0  0  0  0  0  0  0  0
   21.0344  -12.1181  -16.8451 C   0  0  0  0  0  0  0  0  0  0  0  0
   21.2510  -12.7885  -15.8160 O   0  0  0  0  0  0  0  0  0  0  0  0
   23.1963  -12.0751  -15.1686 C   0  0  0  0  0  0  0  0  0  0  0  0
   23.2952  -10.6167  -15.5162 C   0  0  1  0  0  0  0  0  0  0  0  0
   24.0499  -10.4341  -16.6835 O   0  0  0  0  0  0  0  0  0  0  0  0
   21.8869  -10.0377  -15.7074 C   0  0  2  0  0  0  0  0  0  0  0  0
   21.3180  -10.7431  -16.8384 N   0  0  0  0  0  0  0  0  0  0  0  0
   22.0292   -8.5761  -16.0224 C   0  0  0  0  0  0  0  0  0  0  0  0
   22.0742   -8.1472  -17.2093 O   0  0  0  0  0  0  0  0  0  0  0  0
   22.1205   -7.5951  -15.0053 N   0  0  0  0  0  0  0  0  0  0  0  0
   22.2343   -6.1641  -15.2803 C   0  0  1  0  0  0  0  0  0  0  0  0
   20.8907   -5.8131  -15.9286 C   0  0  0  0  0  0  0  0  0  0  0  0
   20.7371   -4.4198  -16.2805 C   0  0  0  0  0  0  0  0  0  0  0  0
   21.4683   -3.8576  -17.2965 C   0  0  0  0  0  0  0  0  0  0  0  0
   21.3140   -2.5078  -17.6315 C   0  0  0  0  0  0  0  0  0  0  0  0
   20.4223   -1.7183  -16.9447 C   0  0  0  0  0  0  0  0  0  0  0  0
   19.6878   -2.2782  -15.9260 C   0  0  0  0  0  0  0  0  0  0  0  0
   19.8503   -3.6125  -15.6057 C   0  0  0  0  0  0  0  0  0  0  0  0
   22.4468   -5.3768  -14.0722 C   0  0  0  0  0  0  0  0  0  0  0  0
   21.9921   -5.7625  -12.9743 O   0  0  0  0  0  0  0  0  0  0  0  0
   23.1525   -4.1946  -14.1190 O   0  0  0  0  0  0  0  0  0  0  0  0
  2  1  1  1
  2  3  1  0
  4  3  1  0
  5  6  1  0
  5  4  1  0
  7  6  1  0
  8  9  2  0
  8  2  1  0
 11 10  1  6
 11 13  1  0
 12 11  1  0
 13 14  1  6
 14  8  1  0
 15 16  2  0
 15 13  1  0
 17 15  1  0
 18 19  1  1
 18 17  1  0
 20 19  1  0
 20 21  2  0
 22 21  1  0
 23 22  2  0
 24 25  2  0
 24 23  1  0
 25 20  1  0
 26 18  1  0
 27 26  2  0
 28 26  1  0
M  END
$$$$
