KTF.pdb
     RDKit          3D

 28 28  0  0  1  0  0  0  0  0999 V2000
   27.9534  -22.8629  -18.2579 N   0  0  0  0  0  0  0  0  0  0  0  0
   27.6193  -23.5521  -17.0599 C   0  0  1  0  0  0  0  0  0  0  0  0
   28.3692  -24.7917  -16.8269 C   0  0  0  0  0  0  0  0  0  0  0  0
   28.3458  -25.8852  -17.7803 C   0  0  0  0  0  0  0  0  0  0  0  0
   27.3627  -26.9287  -17.9533 C   0  0  0  0  0  0  0  0  0  0  0  0
   27.6742  -28.3728  -17.9712 C   0  0  0  0  0  0  0  0  0  0  0  0
   27.8865  -28.7308  -16.5145 N   0  0  0  0  0  0  0  0  0  0  0  0
   27.7967  -22.5717  -15.9185 C   0  0  0  0  0  0  0  0  0  0  0  0
   28.7300  -21.7497  -16.0111 O   0  0  0  0  0  0  0  0  0  0  0  0
   27.4240  -19.8838  -15.7118 C   0  0  0  0  0  0  0  0  0  0  0  0
   26.4130  -20.2350  -14.6573 C   0  0  1  0  0  0  0  0  0  0  0  0
   25.1714  -20.5299  -15.2378 O   0  0  0  0  0  0  0  0  0  0  0  0
   26.9121  -21.4398  -13.8483 C   0  0  2  0  0  0  0  0  0  0  0  0
   26.9731  -22.5468  -14.7818 N   0  0  0  0  0  0  0  0  0  0  0  0
   25.9035  -21.7207  -12.7715 C   0  0  0  0  0  0  0  0  0  0  0  0
   24.9074  -22.4723  -12.9653 O   0  0  0  0  0  0  0  0  0  0  0  0
   26.0128  -21.1585  -11.4765 N   0  0  0  0  0  0  0  0  0  0  0  0
   25.0421  -21.4045  -10.4117 C   0  0  1  0  0  0  0  0  0  0  0  0
   25.9067  -21.8735   -9.2364 C   0  0  0  0  0  0  0  0  0  0  0  0
   26.6454  -20.8223   -8.5745 C   0  0  0  0  0  0  0  0  0  0  0  0
   28.0084  -20.8915   -8.4320 C   0  0  0  0  0  0  0  0  0  0  0  0
   28.7168  -19.8696   -7.7901 C   0  0  0  0  0  0  0  0  0  0  0  0
   28.0555  -18.7735   -7.2891 C   0  0  0  0  0  0  0  0  0  0  0  0
   26.6895  -18.7006   -7.4301 C   0  0  0  0  0  0  0  0  0  0  0  0
   26.0026  -19.7170   -8.0662 C   0  0  0  0  0  0  0  0  0  0  0  0
   24.2879  -20.2095  -10.0544 C   0  0  0  0  0  0  0  0  0  0  0  0
   24.6392  -19.0870  -10.4755 O   0  0  0  0  0  0  0  0  0  0  0  0
   23.1751  -20.2962   -9.2471 O   0  0  0  0  0  0  0  0  0  0  0  0
  2  1  1  6
  2  3  1  0
  4  3  1  0
  5  6  1  0
  5  4  1  0
  7  6  1  0
  8  9  2  0
  8  2  1  0
 11 10  1  6
 11 13  1  0
 12 11  1  0
 13 14  1  6
 14  8  1  0
 15 16  2  0
 15 13  1  0
 17 15  1  0
 18 19  1  1
 18 17  1  0
 20 19  1  0
 20 21  2  0
 22 21  1  0
 23 22  2  0
 24 25  2  0
 24 23  1  0
 25 20  1  0
 26 18  1  0
 27 26  2  0
 28 26  1  0
M  END
$$$$
