KTF.pdb
     RDKit          3D

 28 28  0  0  1  0  0  0  0  0999 V2000
   27.5832  -19.7507  -18.0094 N   0  0  0  0  0  0  0  0  0  0  0  0
   27.1237  -20.5115  -16.8996 C   0  0  1  0  0  0  0  0  0  0  0  0
   28.0706  -20.6160  -15.7835 C   0  0  0  0  0  0  0  0  0  0  0  0
   28.8644  -21.8116  -15.5693 C   0  0  0  0  0  0  0  0  0  0  0  0
   29.3901  -22.7472  -16.5354 C   0  0  0  0  0  0  0  0  0  0  0  0
   30.0569  -24.0188  -16.1870 C   0  0  0  0  0  0  0  0  0  0  0  0
   30.3624  -24.6630  -17.5237 N   0  0  0  0  0  0  0  0  0  0  0  0
   25.8081  -19.9036  -16.4578 C   0  0  0  0  0  0  0  0  0  0  0  0
   25.6982  -18.6635  -16.5316 O   0  0  0  0  0  0  0  0  0  0  0  0
   21.0944  -20.0135  -16.3361 C   0  0  0  0  0  0  0  0  0  0  0  0
   22.5050  -20.3074  -16.7619 C   0  0  1  0  0  0  0  0  0  0  0  0
   22.8822  -19.4856  -17.8333 O   0  0  0  0  0  0  0  0  0  0  0  0
   23.4550  -20.0910  -15.5762 C   0  0  2  0  0  0  0  0  0  0  0  0
   24.7265  -20.6591  -15.9777 N   0  0  0  0  0  0  0  0  0  0  0  0
   22.8985  -20.8387  -14.3984 C   0  0  0  0  0  0  0  0  0  0  0  0
   22.9822  -22.0949  -14.3013 O   0  0  0  0  0  0  0  0  0  0  0  0
   22.2485  -20.1764  -13.3289 N   0  0  0  0  0  0  0  0  0  0  0  0
   21.7319  -20.8718  -12.1516 C   0  0  1  0  0  0  0  0  0  0  0  0
   22.1398  -19.9625  -10.9873 C   0  0  0  0  0  0  0  0  0  0  0  0
   23.4877  -20.1662  -10.5074 C   0  0  0  0  0  0  0  0  0  0  0  0
   24.5613  -19.5833  -11.1324 C   0  0  0  0  0  0  0  0  0  0  0  0
   25.8635  -19.7850  -10.6617 C   0  0  0  0  0  0  0  0  0  0  0  0
   26.0902  -20.5746   -9.5593 C   0  0  0  0  0  0  0  0  0  0  0  0
   25.0167  -21.1604   -8.9304 C   0  0  0  0  0  0  0  0  0  0  0  0
   23.7360  -20.9526   -9.4060 C   0  0  0  0  0  0  0  0  0  0  0  0
   20.2849  -21.0425  -12.1920 C   0  0  0  0  0  0  0  0  0  0  0  0
   19.7242  -21.8878  -11.4628 O   0  0  0  0  0  0  0  0  0  0  0  0
   19.5102  -20.2754  -13.0341 O   0  0  0  0  0  0  0  0  0  0  0  0
  2  1  1  6
  2  3  1  0
  4  3  1  0
  5  6  1  0
  5  4  1  0
  7  6  1  0
  8  9  2  0
  8  2  1  0
 11 10  1  1
 11 13  1  0
 12 11  1  0
 13 14  1  6
 14  8  1  0
 15 16  2  0
 15 13  1  0
 17 15  1  0
 18 19  1  1
 18 17  1  0
 20 19  1  0
 20 21  2  0
 22 21  1  0
 23 22  2  0
 24 25  2  0
 24 23  1  0
 25 20  1  0
 26 18  1  0
 27 26  2  0
 28 26  1  0
M  END
$$$$
