KTF.pdb
     RDKit          3D

 28 28  0  0  1  0  0  0  0  0999 V2000
   23.4132  -22.9753  -16.2980 N   0  0  0  0  0  0  0  0  0  0  0  0
   22.3567  -22.1314  -15.8585 C   0  0  1  0  0  0  0  0  0  0  0  0
   21.9709  -21.0764  -16.8027 C   0  0  0  0  0  0  0  0  0  0  0  0
   22.7895  -20.7514  -17.9558 C   0  0  0  0  0  0  0  0  0  0  0  0
   22.5856  -21.0828  -19.3464 C   0  0  0  0  0  0  0  0  0  0  0  0
   21.2971  -20.9446  -20.0561 C   0  0  0  0  0  0  0  0  0  0  0  0
   21.5484  -21.5603  -21.4172 N   0  0  0  0  0  0  0  0  0  0  0  0
   21.1842  -23.0279  -15.5167 C   0  0  0  0  0  0  0  0  0  0  0  0
   20.2766  -23.1305  -16.3659 O   0  0  0  0  0  0  0  0  0  0  0  0
   20.5618  -25.4910  -16.3640 C   0  0  0  0  0  0  0  0  0  0  0  0
   20.4356  -25.9430  -14.9367 C   0  0  1  0  0  0  0  0  0  0  0  0
   21.6329  -26.5197  -14.4903 O   0  0  0  0  0  0  0  0  0  0  0  0
   20.0682  -24.7459  -14.0495 C   0  0  2  0  0  0  0  0  0  0  0  0
   21.0747  -23.7359  -14.3092 N   0  0  0  0  0  0  0  0  0  0  0  0
   20.1381  -25.1955  -12.6181 C   0  0  0  0  0  0  0  0  0  0  0  0
   20.9227  -24.6616  -11.7850 O   0  0  0  0  0  0  0  0  0  0  0  0
   19.3267  -26.2441  -12.1211 N   0  0  0  0  0  0  0  0  0  0  0  0
   18.9103  -26.3413  -10.7233 C   0  0  1  0  0  0  0  0  0  0  0  0
   18.6840  -24.8825  -10.3118 C   0  0  0  0  0  0  0  0  0  0  0  0
   18.1932  -24.7057   -8.9640 C   0  0  0  0  0  0  0  0  0  0  0  0
   16.8887  -24.3557   -8.7218 C   0  0  0  0  0  0  0  0  0  0  0  0
   16.4208  -24.1866   -7.4140 C   0  0  0  0  0  0  0  0  0  0  0  0
   17.2647  -24.3694   -6.3442 C   0  0  0  0  0  0  0  0  0  0  0  0
   18.5727  -24.7202   -6.5830 C   0  0  0  0  0  0  0  0  0  0  0  0
   19.0214  -24.8838   -7.8797 C   0  0  0  0  0  0  0  0  0  0  0  0
   17.6905  -27.1213  -10.5552 C   0  0  0  0  0  0  0  0  0  0  0  0
   16.9494  -27.3601  -11.5322 O   0  0  0  0  0  0  0  0  0  0  0  0
   17.3333  -27.6088   -9.3174 O   0  0  0  0  0  0  0  0  0  0  0  0
  2  1  1  6
  2  3  1  0
  4  3  1  0
  5  6  1  0
  5  4  1  0
  7  6  1  0
  8  9  2  0
  8  2  1  0
 11 10  1  6
 11 13  1  0
 12 11  1  0
 13 14  1  1
 14  8  1  0
 15 16  2  0
 15 13  1  0
 17 15  1  0
 18 19  1  6
 18 17  1  0
 20 19  1  0
 20 21  2  0
 22 21  1  0
 23 22  2  0
 24 25  2  0
 24 23  1  0
 25 20  1  0
 26 18  1  0
 27 26  2  0
 28 26  1  0
M  END
$$$$
