KTF.pdb
     RDKit          3D

 28 28  0  0  1  0  0  0  0  0999 V2000
   22.9515  -21.5373  -15.2407 N   0  0  0  0  0  0  0  0  0  0  0  0
   22.8319  -21.0141  -13.9241 C   0  0  1  0  0  0  0  0  0  0  0  0
   21.5549  -21.2946  -13.2579 C   0  0  0  0  0  0  0  0  0  0  0  0
   20.3660  -20.5091  -13.5314 C   0  0  0  0  0  0  0  0  0  0  0  0
   20.2551  -19.1603  -14.0350 C   0  0  0  0  0  0  0  0  0  0  0  0
   19.0650  -18.6240  -14.7270 C   0  0  0  0  0  0  0  0  0  0  0  0
   18.3655  -19.8494  -15.2785 N   0  0  0  0  0  0  0  0  0  0  0  0
   24.0044  -21.5464  -13.1258 C   0  0  0  0  0  0  0  0  0  0  0  0
   24.1420  -22.7846  -13.0689 O   0  0  0  0  0  0  0  0  0  0  0  0
   27.6071  -20.9173  -13.5513 C   0  0  0  0  0  0  0  0  0  0  0  0
   27.2758  -20.4754  -12.1540 C   0  0  1  0  0  0  0  0  0  0  0  0
   27.0533  -19.0920  -12.1098 O   0  0  0  0  0  0  0  0  0  0  0  0
   26.0292  -21.2224  -11.6612 C   0  0  2  0  0  0  0  0  0  0  0  0
   24.9267  -20.7240  -12.4591 N   0  0  0  0  0  0  0  0  0  0  0  0
   25.8254  -20.8732  -10.2147 C   0  0  0  0  0  0  0  0  0  0  0  0
   24.9158  -20.0827   -9.8373 O   0  0  0  0  0  0  0  0  0  0  0  0
   26.6422  -21.4118   -9.1910 N   0  0  0  0  0  0  0  0  0  0  0  0
   26.7616  -20.8129   -7.8630 C   0  0  1  0  0  0  0  0  0  0  0  0
   28.0875  -21.3703   -7.3336 C   0  0  0  0  0  0  0  0  0  0  0  0
   28.4954  -20.8400   -6.0525 C   0  0  0  0  0  0  0  0  0  0  0  0
   29.5085  -19.9199   -5.9531 C   0  0  0  0  0  0  0  0  0  0  0  0
   29.8977  -19.4109   -4.7092 C   0  0  0  0  0  0  0  0  0  0  0  0
   29.2682  -19.8264   -3.5598 C   0  0  0  0  0  0  0  0  0  0  0  0
   28.2525  -20.7484   -3.6554 C   0  0  0  0  0  0  0  0  0  0  0  0
   27.8783  -21.2427   -4.8904 C   0  0  0  0  0  0  0  0  0  0  0  0
   26.7933  -19.3564   -7.9062 C   0  0  0  0  0  0  0  0  0  0  0  0
   27.3658  -18.7609   -8.8435 O   0  0  0  0  0  0  0  0  0  0  0  0
   26.1931  -18.6108   -6.9155 O   0  0  0  0  0  0  0  0  0  0  0  0
  2  1  1  6
  2  3  1  0
  4  3  1  0
  5  6  1  0
  5  4  1  0
  7  6  1  0
  8  9  2  0
  8  2  1  0
 11 10  1  6
 11 13  1  0
 12 11  1  0
 13 14  1  6
 14  8  1  0
 15 16  2  0
 15 13  1  0
 17 15  1  0
 18 19  1  6
 18 17  1  0
 20 19  1  0
 20 21  2  0
 22 21  1  0
 23 22  2  0
 24 25  2  0
 24 23  1  0
 25 20  1  0
 26 18  1  0
 27 26  2  0
 28 26  1  0
M  END
$$$$
