TEA.pdb
     RDKit          3D

 22 21  0  0  1  0  0  0  0  0999 V2000
   12.0815   -7.2143  -12.0751 C   0  0  0  0  0  0  0  0  0  0  0  0
   11.9683   -7.6889  -10.6334 C   0  0  1  0  0  0  0  0  0  0  0  0
   10.6408   -7.6113  -10.2768 O   0  0  0  0  0  0  0  0  0  0  0  0
   12.5145   -9.0963  -10.5922 C   0  0  2  0  0  0  0  0  0  0  0  0
   12.3636   -9.6072   -9.2623 N   0  0  0  0  0  0  0  0  0  0  0  0
   13.9212   -9.1850  -11.0160 C   0  0  0  0  0  0  0  0  0  0  0  0
   14.8534   -8.8614  -10.2016 O   0  0  0  0  0  0  0  0  0  0  0  0
   14.3431   -9.6136  -12.2943 N   0  0  0  0  0  0  0  0  0  0  0  0
   15.7607   -9.6179  -12.7154 C   0  0  1  0  0  0  0  0  0  0  0  0
   15.8853  -10.8703  -13.5461 C   0  0  0  0  0  0  0  0  0  0  0  0
   17.2288  -11.0923  -14.1681 C   0  0  0  0  0  0  0  0  0  0  0  0
   17.1572  -12.3488  -14.9824 C   0  0  0  0  0  0  0  0  0  0  0  0
   16.8897  -13.4313  -14.4477 O   0  0  0  0  0  0  0  0  0  0  0  0
   16.0459   -8.4266  -13.5252 C   0  0  0  0  0  0  0  0  0  0  0  0
   15.1090   -7.9348  -14.2608 O   0  0  0  0  0  0  0  0  0  0  0  0
   17.3904  -12.3288  -16.3624 O   0  0  0  0  0  0  0  0  0  0  0  0
   16.5428   -5.3948  -13.9125 C   0  0  0  0  0  0  0  0  0  0  0  0
   17.4168   -6.5192  -14.4307 C   0  0  2  0  0  0  0  0  0  0  0  0
   17.2659   -7.7149  -13.6010 N   0  0  0  0  0  0  0  0  0  0  0  0
   18.8294   -6.1074  -14.4365 C   0  0  0  0  0  0  0  0  0  0  0  0
   19.6210   -6.7282  -13.6651 O   0  0  0  0  0  0  0  0  0  0  0  0
   19.3377   -5.1024  -15.2186 O   0  0  0  0  0  0  0  0  0  0  0  0
  2  4  1  0
  2  1  1  6
  2  3  1  0
  4  5  1  1
  6  4  1  0
  6  7  2  0
  8  6  1  0
  9  8  1  0
  9 10  1  6
 11 10  1  0
 12 16  1  0
 12 11  1  0
 13 12  2  0
 14  9  1  0
 15 14  2  0
 18 17  1  1
 18 19  1  0
 18 20  1  0
 19 14  1  0
 20 22  1  0
 21 20  2  0
M  END
$$$$
