TEA.pdb
     RDKit          3D

 22 21  0  0  1  0  0  0  0  0999 V2000
   26.8483  -10.5912  -15.1225 C   0  0  0  0  0  0  0  0  0  0  0  0
   26.7501  -11.6296  -16.2309 C   0  0  1  0  0  0  0  0  0  0  0  0
   27.7351  -12.5653  -16.0078 O   0  0  0  0  0  0  0  0  0  0  0  0
   25.3558  -12.2065  -16.1675 C   0  0  2  0  0  0  0  0  0  0  0  0
   25.2883  -13.3383  -17.0431 N   0  0  0  0  0  0  0  0  0  0  0  0
   24.3087  -11.2314  -16.5128 C   0  0  0  0  0  0  0  0  0  0  0  0
   24.1827  -10.8336  -17.7223 O   0  0  0  0  0  0  0  0  0  0  0  0
   23.3978  -10.6780  -15.5857 N   0  0  0  0  0  0  0  0  0  0  0  0
   22.3601   -9.6949  -15.9644 C   0  0  1  0  0  0  0  0  0  0  0  0
   21.0976  -10.2521  -15.3563 C   0  0  0  0  0  0  0  0  0  0  0  0
   19.8707  -10.1250  -16.2046 C   0  0  0  0  0  0  0  0  0  0  0  0
   18.7075  -10.6406  -15.4121 C   0  0  0  0  0  0  0  0  0  0  0  0
   18.0632   -9.8850  -14.6751 O   0  0  0  0  0  0  0  0  0  0  0  0
   22.6794   -8.3827  -15.3878 C   0  0  0  0  0  0  0  0  0  0  0  0
   22.9968   -8.3111  -14.1408 O   0  0  0  0  0  0  0  0  0  0  0  0
   18.3227  -11.9844  -15.4859 O   0  0  0  0  0  0  0  0  0  0  0  0
   23.1203   -4.7423  -16.3607 C   0  0  0  0  0  0  0  0  0  0  0  0
   23.1119   -5.9026  -15.3860 C   0  0  2  0  0  0  0  0  0  0  0  0
   22.6906   -7.1347  -16.0534 N   0  0  0  0  0  0  0  0  0  0  0  0
   22.2010   -5.6219  -14.2650 C   0  0  0  0  0  0  0  0  0  0  0  0
   22.6360   -4.8837  -13.3309 O   0  0  0  0  0  0  0  0  0  0  0  0
   20.9214   -6.1055  -14.1700 O   0  0  0  0  0  0  0  0  0  0  0  0
  2  4  1  0
  2  1  1  1
  2  3  1  0
  4  5  1  6
  6  4  1  0
  6  7  2  0
  8  6  1  0
  9  8  1  0
  9 10  1  1
 11 10  1  0
 12 16  1  0
 12 11  1  0
 13 12  2  0
 14  9  1  0
 15 14  2  0
 18 17  1  6
 18 19  1  0
 18 20  1  0
 19 14  1  0
 20 22  1  0
 21 20  2  0
M  END
$$$$
