TEA.pdb
     RDKit          3D

 22 21  0  0  1  0  0  0  0  0999 V2000
   17.1620  -10.2699  -14.2370 C   0  0  0  0  0  0  0  0  0  0  0  0
   18.1502  -11.3223  -14.7188 C   0  0  1  0  0  0  0  0  0  0  0  0
   17.5770  -12.5554  -14.5036 O   0  0  0  0  0  0  0  0  0  0  0  0
   18.4170  -11.0362  -16.1776 C   0  0  2  0  0  0  0  0  0  0  0  0
   19.2445  -12.0800  -16.7049 N   0  0  0  0  0  0  0  0  0  0  0  0
   19.0437   -9.7242  -16.4059 C   0  0  0  0  0  0  0  0  0  0  0  0
   20.3165   -9.6338  -16.4988 O   0  0  0  0  0  0  0  0  0  0  0  0
   18.3303   -8.5118  -16.5358 N   0  0  0  0  0  0  0  0  0  0  0  0
   18.9921   -7.2057  -16.7432 C   0  0  1  0  0  0  0  0  0  0  0  0
   17.8710   -6.3012  -17.1893 C   0  0  0  0  0  0  0  0  0  0  0  0
   18.2653   -4.8829  -17.4615 C   0  0  0  0  0  0  0  0  0  0  0  0
   17.0298   -4.1275  -17.8482 C   0  0  0  0  0  0  0  0  0  0  0  0
   15.9238   -4.6807  -17.8359 O   0  0  0  0  0  0  0  0  0  0  0  0
   19.5709   -6.7316  -15.4797 C   0  0  0  0  0  0  0  0  0  0  0  0
   18.8751   -6.8323  -14.3996 O   0  0  0  0  0  0  0  0  0  0  0  0
   17.0961   -2.7829  -18.2314 O   0  0  0  0  0  0  0  0  0  0  0  0
   22.7891   -6.4043  -13.8073 C   0  0  0  0  0  0  0  0  0  0  0  0
   21.3770   -5.8732  -13.9505 C   0  0  2  0  0  0  0  0  0  0  0  0
   20.8501   -6.1603  -15.2849 N   0  0  0  0  0  0  0  0  0  0  0  0
   21.3518   -4.4200  -13.7208 C   0  0  0  0  0  0  0  0  0  0  0  0
   21.1034   -3.6764  -14.7169 O   0  0  0  0  0  0  0  0  0  0  0  0
   21.5780   -3.8261  -12.5058 O   0  0  0  0  0  0  0  0  0  0  0  0
  2  4  1  0
  2  1  1  6
  2  3  1  0
  4  5  1  1
  6  4  1  0
  6  7  2  0
  8  6  1  0
  9  8  1  0
  9 10  1  1
 11 10  1  0
 12 16  1  0
 12 11  1  0
 13 12  2  0
 14  9  1  0
 15 14  2  0
 18 17  1  6
 18 19  1  0
 18 20  1  0
 19 14  1  0
 20 22  1  0
 21 20  2  0
M  END
$$$$
