TEA.pdb
     RDKit          3D

 22 21  0  0  1  0  0  0  0  0999 V2000
   16.3966   -9.9406  -15.1268 C   0  0  0  0  0  0  0  0  0  0  0  0
   17.0767  -11.2623  -14.7996 C   0  0  1  0  0  0  0  0  0  0  0  0
   16.1053  -12.2379  -14.8037 O   0  0  0  0  0  0  0  0  0  0  0  0
   18.1413  -11.4779  -15.8490 C   0  0  2  0  0  0  0  0  0  0  0  0
   18.7028  -12.7837  -15.6700 N   0  0  0  0  0  0  0  0  0  0  0  0
   19.2019  -10.4579  -15.8169 C   0  0  0  0  0  0  0  0  0  0  0  0
   20.2383  -10.6395  -15.0891 O   0  0  0  0  0  0  0  0  0  0  0  0
   19.1693   -9.2508  -16.5500 N   0  0  0  0  0  0  0  0  0  0  0  0
   20.3282   -8.3376  -16.6505 C   0  0  1  0  0  0  0  0  0  0  0  0
   20.1886   -7.7290  -18.0232 C   0  0  0  0  0  0  0  0  0  0  0  0
   21.2300   -6.7145  -18.3802 C   0  0  0  0  0  0  0  0  0  0  0  0
   20.9626   -6.2536  -19.7812 C   0  0  0  0  0  0  0  0  0  0  0  0
   20.0413   -6.7479  -20.4417 O   0  0  0  0  0  0  0  0  0  0  0  0
   20.2417   -7.3030  -15.6120 C   0  0  0  0  0  0  0  0  0  0  0  0
   19.0911   -6.7921  -15.3364 O   0  0  0  0  0  0  0  0  0  0  0  0
   21.7453   -5.2564  -20.3748 O   0  0  0  0  0  0  0  0  0  0  0  0
   22.1326   -5.8403  -12.7314 C   0  0  0  0  0  0  0  0  0  0  0  0
   21.0835   -5.7470  -13.8210 C   0  0  2  0  0  0  0  0  0  0  0  0
   21.3017   -6.7765  -14.8375 N   0  0  0  0  0  0  0  0  0  0  0  0
   21.1236   -4.4207  -14.4569 C   0  0  0  0  0  0  0  0  0  0  0  0
   21.5714   -4.3550  -15.6410 O   0  0  0  0  0  0  0  0  0  0  0  0
   20.7094   -3.2616  -13.8526 O   0  0  0  0  0  0  0  0  0  0  0  0
  2  4  1  0
  2  1  1  6
  2  3  1  0
  4  5  1  1
  6  4  1  0
  6  7  2  0
  8  6  1  0
  9  8  1  0
  9 10  1  6
 11 10  1  0
 12 16  1  0
 12 11  1  0
 13 12  2  0
 14  9  1  0
 15 14  2  0
 18 17  1  1
 18 19  1  0
 18 20  1  0
 19 14  1  0
 20 22  1  0
 21 20  2  0
M  END
$$$$
