TEA.pdb
     RDKit          3D

 22 21  0  0  1  0  0  0  0  0999 V2000
   15.7547   -5.7109   -8.5274 C   0  0  0  0  0  0  0  0  0  0  0  0
   14.9218   -6.7936   -7.8563 C   0  0  1  0  0  0  0  0  0  0  0  0
   13.8518   -6.1744   -7.2503 O   0  0  0  0  0  0  0  0  0  0  0  0
   14.5130   -7.7646   -8.9384 C   0  0  2  0  0  0  0  0  0  0  0  0
   13.7484   -8.8192   -8.3422 N   0  0  0  0  0  0  0  0  0  0  0  0
   15.6560   -8.3202   -9.6808 C   0  0  0  0  0  0  0  0  0  0  0  0
   16.3721   -9.2397   -9.1528 O   0  0  0  0  0  0  0  0  0  0  0  0
   16.0422   -7.9074  -10.9754 N   0  0  0  0  0  0  0  0  0  0  0  0
   17.1682   -8.5190  -11.7137 C   0  0  1  0  0  0  0  0  0  0  0  0
   16.5238   -9.0703  -12.9605 C   0  0  0  0  0  0  0  0  0  0  0  0
   17.4728   -9.6189  -13.9802 C   0  0  0  0  0  0  0  0  0  0  0  0
   16.6614  -10.2183  -15.0889 C   0  0  0  0  0  0  0  0  0  0  0  0
   16.6292   -9.6858  -16.2046 O   0  0  0  0  0  0  0  0  0  0  0  0
   18.1612   -7.4917  -12.0527 C   0  0  0  0  0  0  0  0  0  0  0  0
   17.7518   -6.3171  -12.3897 O   0  0  0  0  0  0  0  0  0  0  0  0
   15.9230  -11.3907  -14.8905 O   0  0  0  0  0  0  0  0  0  0  0  0
   21.9009   -6.8795  -12.1224 C   0  0  0  0  0  0  0  0  0  0  0  0
   20.4567   -6.5215  -12.4096 C   0  0  2  0  0  0  0  0  0  0  0  0
   19.5691   -7.6281  -12.0510 N   0  0  0  0  0  0  0  0  0  0  0  0
   20.2830   -6.2024  -13.8355 C   0  0  0  0  0  0  0  0  0  0  0  0
   19.9295   -7.1454  -14.6052 O   0  0  0  0  0  0  0  0  0  0  0  0
   20.4779   -4.9581  -14.3777 O   0  0  0  0  0  0  0  0  0  0  0  0
  2  4  1  0
  2  1  1  6
  2  3  1  0
  4  5  1  1
  6  4  1  0
  6  7  2  0
  8  6  1  0
  9  8  1  0
  9 10  1  6
 11 10  1  0
 12 16  1  0
 12 11  1  0
 13 12  2  0
 14  9  1  0
 15 14  2  0
 18 17  1  6
 18 19  1  0
 18 20  1  0
 19 14  1  0
 20 22  1  0
 21 20  2  0
M  END
$$$$
