TEA.pdb
     RDKit          3D

 22 21  0  0  1  0  0  0  0  0999 V2000
   16.0232   -5.7554   -8.8052 C   0  0  0  0  0  0  0  0  0  0  0  0
   15.2323   -6.9837   -8.3785 C   0  0  1  0  0  0  0  0  0  0  0  0
   14.3096   -6.5752   -7.4419 O   0  0  0  0  0  0  0  0  0  0  0  0
   14.6011   -7.5529   -9.6270 C   0  0  2  0  0  0  0  0  0  0  0  0
   13.8358   -8.7091   -9.2668 N   0  0  0  0  0  0  0  0  0  0  0  0
   15.5830   -7.8954  -10.6686 C   0  0  0  0  0  0  0  0  0  0  0  0
   15.9523   -9.1109  -10.8207 O   0  0  0  0  0  0  0  0  0  0  0  0
   16.1732   -6.9591  -11.5465 N   0  0  0  0  0  0  0  0  0  0  0  0
   17.1113   -7.3441  -12.6229 C   0  0  1  0  0  0  0  0  0  0  0  0
   16.5092   -6.7299  -13.8615 C   0  0  0  0  0  0  0  0  0  0  0  0
   17.3215   -6.8839  -15.1096 C   0  0  0  0  0  0  0  0  0  0  0  0
   17.2430   -8.3187  -15.5361 C   0  0  0  0  0  0  0  0  0  0  0  0
   16.2516   -9.0044  -15.2599 O   0  0  0  0  0  0  0  0  0  0  0  0
   18.4396   -6.7782  -12.3553 C   0  0  0  0  0  0  0  0  0  0  0  0
   18.5226   -5.5905  -11.8619 O   0  0  0  0  0  0  0  0  0  0  0  0
   18.2851   -8.9162  -16.2546 O   0  0  0  0  0  0  0  0  0  0  0  0
   22.1282   -7.6519  -12.4800 C   0  0  0  0  0  0  0  0  0  0  0  0
   20.9554   -6.7101  -12.2952 C   0  0  2  0  0  0  0  0  0  0  0  0
   19.6932   -7.3964  -12.5720 N   0  0  0  0  0  0  0  0  0  0  0  0
   21.0845   -5.5508  -13.1922 C   0  0  0  0  0  0  0  0  0  0  0  0
   20.4286   -5.5766  -14.2765 O   0  0  0  0  0  0  0  0  0  0  0  0
   21.8638   -4.4537  -12.9290 O   0  0  0  0  0  0  0  0  0  0  0  0
  2  4  1  0
  2  1  1  6
  2  3  1  0
  4  5  1  1
  6  4  1  0
  6  7  2  0
  8  6  1  0
  9  8  1  0
  9 10  1  6
 11 10  1  0
 12 16  1  0
 12 11  1  0
 13 12  2  0
 14  9  1  0
 15 14  2  0
 18 17  1  6
 18 19  1  0
 18 20  1  0
 19 14  1  0
 20 22  1  0
 21 20  2  0
M  END
$$$$
