TEA.pdb
     RDKit          3D

 22 21  0  0  1  0  0  0  0  0999 V2000
   16.2134   -9.4386  -17.2025 C   0  0  0  0  0  0  0  0  0  0  0  0
   16.4499  -10.5328  -16.1713 C   0  0  1  0  0  0  0  0  0  0  0  0
   16.3789  -11.7407  -16.8281 O   0  0  0  0  0  0  0  0  0  0  0  0
   17.8036  -10.2684  -15.5559 C   0  0  2  0  0  0  0  0  0  0  0  0
   18.1361  -11.3631  -14.6937 N   0  0  0  0  0  0  0  0  0  0  0  0
   17.8654   -8.9984  -14.8146 C   0  0  0  0  0  0  0  0  0  0  0  0
   17.2239   -8.8709  -13.7150 O   0  0  0  0  0  0  0  0  0  0  0  0
   18.6014   -7.8670  -15.2316 N   0  0  0  0  0  0  0  0  0  0  0  0
   18.7085   -6.6329  -14.4239 C   0  0  1  0  0  0  0  0  0  0  0  0
   20.1860   -6.3314  -14.4220 C   0  0  0  0  0  0  0  0  0  0  0  0
   20.5751   -5.0509  -13.7511 C   0  0  0  0  0  0  0  0  0  0  0  0
   22.0712   -4.9597  -13.7652 C   0  0  0  0  0  0  0  0  0  0  0  0
   22.7277   -5.2223  -12.7507 O   0  0  0  0  0  0  0  0  0  0  0  0
   17.9573   -5.5472  -15.0667 C   0  0  0  0  0  0  0  0  0  0  0  0
   18.1221   -5.3376  -16.3276 O   0  0  0  0  0  0  0  0  0  0  0  0
   22.7600   -4.5766  -14.9220 O   0  0  0  0  0  0  0  0  0  0  0  0
   15.1042   -3.1597  -14.5575 C   0  0  0  0  0  0  0  0  0  0  0  0
   16.4276   -3.5513  -15.1834 C   0  0  2  0  0  0  0  0  0  0  0  0
   17.0322   -4.6681  -14.4568 N   0  0  0  0  0  0  0  0  0  0  0  0
   17.3546   -2.4085  -15.1758 C   0  0  0  0  0  0  0  0  0  0  0  0
   18.2504   -2.3903  -14.2791 O   0  0  0  0  0  0  0  0  0  0  0  0
   17.3094   -1.3715  -16.0717 O   0  0  0  0  0  0  0  0  0  0  0  0
  2  4  1  0
  2  1  1  6
  2  3  1  0
  4  5  1  1
  6  4  1  0
  6  7  2  0
  8  6  1  0
  9  8  1  0
  9 10  1  6
 11 10  1  0
 12 16  1  0
 12 11  1  0
 13 12  2  0
 14  9  1  0
 15 14  2  0
 18 17  1  1
 18 19  1  0
 18 20  1  0
 19 14  1  0
 20 22  1  0
 21 20  2  0
M  END
$$$$
