TEA.pdb
     RDKit          3D

 22 21  0  0  1  0  0  0  0  0999 V2000
   14.7267   -7.3924  -18.5175 C   0  0  0  0  0  0  0  0  0  0  0  0
   14.4016   -8.6153  -17.6717 C   0  0  1  0  0  0  0  0  0  0  0  0
   13.7554   -9.5190  -18.4848 O   0  0  0  0  0  0  0  0  0  0  0  0
   15.7127   -9.1333  -17.1298 C   0  0  2  0  0  0  0  0  0  0  0  0
   15.4691  -10.3676  -16.4445 N   0  0  0  0  0  0  0  0  0  0  0  0
   16.3885   -8.1787  -16.2364 C   0  0  0  0  0  0  0  0  0  0  0  0
   15.8273   -7.8225  -15.1432 O   0  0  0  0  0  0  0  0  0  0  0  0
   17.6518   -7.6019  -16.4952 N   0  0  0  0  0  0  0  0  0  0  0  0
   18.2621   -6.5743  -15.6242 C   0  0  1  0  0  0  0  0  0  0  0  0
   19.6220   -7.1394  -15.2995 C   0  0  0  0  0  0  0  0  0  0  0  0
   20.5167   -6.2354  -14.5100 C   0  0  0  0  0  0  0  0  0  0  0  0
   21.8013   -6.9652  -14.2570 C   0  0  0  0  0  0  0  0  0  0  0  0
   22.3081   -6.9756  -13.1290 O   0  0  0  0  0  0  0  0  0  0  0  0
   18.3870   -5.3076  -16.3563 C   0  0  0  0  0  0  0  0  0  0  0  0
   18.9007   -5.3195  -17.5382 O   0  0  0  0  0  0  0  0  0  0  0  0
   22.4570   -7.6504  -15.2866 O   0  0  0  0  0  0  0  0  0  0  0  0
   17.1582   -1.7564  -16.3305 C   0  0  0  0  0  0  0  0  0  0  0  0
   18.1287   -2.8368  -16.7636 C   0  0  2  0  0  0  0  0  0  0  0  0
   17.9939   -4.0220  -15.9164 N   0  0  0  0  0  0  0  0  0  0  0  0
   19.5121   -2.3411  -16.6885 C   0  0  0  0  0  0  0  0  0  0  0  0
   20.1305   -2.5020  -15.5938 O   0  0  0  0  0  0  0  0  0  0  0  0
   20.1677   -1.7216  -17.7213 O   0  0  0  0  0  0  0  0  0  0  0  0
  2  4  1  0
  2  1  1  6
  2  3  1  0
  4  5  1  1
  6  4  1  0
  6  7  2  0
  8  6  1  0
  9  8  1  0
  9 10  1  6
 11 10  1  0
 12 16  1  0
 12 11  1  0
 13 12  2  0
 14  9  1  0
 15 14  2  0
 18 17  1  1
 18 19  1  0
 18 20  1  0
 19 14  1  0
 20 22  1  0
 21 20  2  0
M  END
$$$$
