TEA.pdb
     RDKit          3D

 22 21  0  0  1  0  0  0  0  0999 V2000
   20.9995  -15.4895  -16.2612 C   0  0  0  0  0  0  0  0  0  0  0  0
   22.2548  -16.3240  -16.4714 C   0  0  1  0  0  0  0  0  0  0  0  0
   21.8548  -17.6240  -16.6844 O   0  0  0  0  0  0  0  0  0  0  0  0
   22.9855  -15.7253  -17.6498 C   0  0  2  0  0  0  0  0  0  0  0  0
   24.1307  -16.5364  -17.9384 N   0  0  0  0  0  0  0  0  0  0  0  0
   23.3925  -14.3280  -17.4307 C   0  0  0  0  0  0  0  0  0  0  0  0
   24.3452  -14.0618  -16.6193 O   0  0  0  0  0  0  0  0  0  0  0  0
   22.7965  -13.2153  -18.0651 N   0  0  0  0  0  0  0  0  0  0  0  0
   23.2123  -11.8205  -17.8036 C   0  0  1  0  0  0  0  0  0  0  0  0
   22.6590  -11.0539  -18.9784 C   0  0  0  0  0  0  0  0  0  0  0  0
   22.8170   -9.5672  -18.9018 C   0  0  0  0  0  0  0  0  0  0  0  0
   22.1753   -8.9726  -20.1189 C   0  0  0  0  0  0  0  0  0  0  0  0
   22.8631   -8.4324  -20.9932 O   0  0  0  0  0  0  0  0  0  0  0  0
   22.6164  -11.3477  -16.5475 C   0  0  0  0  0  0  0  0  0  0  0  0
   21.3806  -11.6198  -16.3034 O   0  0  0  0  0  0  0  0  0  0  0  0
   20.7873   -9.0135  -20.2961 O   0  0  0  0  0  0  0  0  0  0  0  0
   23.5483  -10.3041  -13.1110 C   0  0  0  0  0  0  0  0  0  0  0  0
   22.5737  -10.2738  -14.2710 C   0  0  2  0  0  0  0  0  0  0  0  0
   23.2518  -10.6062  -15.5242 N   0  0  0  0  0  0  0  0  0  0  0  0
   21.9611   -8.9411  -14.3893 C   0  0  0  0  0  0  0  0  0  0  0  0
   22.3103   -8.2242  -15.3746 O   0  0  0  0  0  0  0  0  0  0  0  0
   21.0434   -8.4319  -13.5068 O   0  0  0  0  0  0  0  0  0  0  0  0
  2  4  1  0
  2  1  1  6
  2  3  1  0
  4  5  1  1
  6  4  1  0
  6  7  2  0
  8  6  1  0
  9  8  1  0
  9 10  1  6
 11 10  1  0
 12 16  1  0
 12 11  1  0
 13 12  2  0
 14  9  1  0
 15 14  2  0
 18 17  1  1
 18 19  1  0
 18 20  1  0
 19 14  1  0
 20 22  1  0
 21 20  2  0
M  END
$$$$
