TEA.pdb
     RDKit          3D

 22 21  0  0  1  0  0  0  0  0999 V2000
   24.2023  -11.7222  -14.9945 C   0  0  0  0  0  0  0  0  0  0  0  0
   24.2388  -12.3667  -16.3728 C   0  0  1  0  0  0  0  0  0  0  0  0
   24.7311  -13.6431  -16.2181 O   0  0  0  0  0  0  0  0  0  0  0  0
   22.8271  -12.3340  -16.9084 C   0  0  2  0  0  0  0  0  0  0  0  0
   22.7840  -13.0795  -18.1310 N   0  0  0  0  0  0  0  0  0  0  0  0
   22.3208  -10.9691  -17.1253 C   0  0  0  0  0  0  0  0  0  0  0  0
   22.7386  -10.2859  -18.1231 O   0  0  0  0  0  0  0  0  0  0  0  0
   21.3772  -10.3273  -16.2927 N   0  0  0  0  0  0  0  0  0  0  0  0
   20.8611   -8.9672  -16.5589 C   0  0  1  0  0  0  0  0  0  0  0  0
   19.4128   -9.0449  -16.1463 C   0  0  0  0  0  0  0  0  0  0  0  0
   18.6452   -7.7654  -16.2679 C   0  0  0  0  0  0  0  0  0  0  0  0
   17.2458   -8.0212  -15.7957 C   0  0  0  0  0  0  0  0  0  0  0  0
   16.9300   -9.1221  -15.3291 O   0  0  0  0  0  0  0  0  0  0  0  0
   21.5838   -7.9880  -15.7372 C   0  0  0  0  0  0  0  0  0  0  0  0
   21.9091   -8.3060  -14.5315 O   0  0  0  0  0  0  0  0  0  0  0  0
   16.2653   -7.0251  -15.8704 O   0  0  0  0  0  0  0  0  0  0  0  0
   23.2392   -4.5847  -15.9575 C   0  0  0  0  0  0  0  0  0  0  0  0
   22.7863   -5.8350  -15.2308 C   0  0  2  0  0  0  0  0  0  0  0  0
   21.9923   -6.6878  -16.1158 N   0  0  0  0  0  0  0  0  0  0  0  0
   21.9824   -5.4778  -14.0513 C   0  0  0  0  0  0  0  0  0  0  0  0
   22.6054   -5.1058  -13.0119 O   0  0  0  0  0  0  0  0  0  0  0  0
   20.6125   -5.5217  -14.0081 O   0  0  0  0  0  0  0  0  0  0  0  0
  2  4  1  0
  2  1  1  1
  2  3  1  0
  4  5  1  6
  6  4  1  0
  6  7  2  0
  8  6  1  0
  9  8  1  0
  9 10  1  1
 11 10  1  0
 12 16  1  0
 12 11  1  0
 13 12  2  0
 14  9  1  0
 15 14  2  0
 18 17  1  6
 18 19  1  0
 18 20  1  0
 19 14  1  0
 20 22  1  0
 21 20  2  0
M  END
$$$$
