TEA.pdb
     RDKit          3D

 22 21  0  0  1  0  0  0  0  0999 V2000
   18.9572  -13.0993  -16.9751 C   0  0  0  0  0  0  0  0  0  0  0  0
   17.7312  -12.3810  -16.4296 C   0  0  1  0  0  0  0  0  0  0  0  0
   16.8838  -13.3397  -15.9214 O   0  0  0  0  0  0  0  0  0  0  0  0
   18.2234  -11.4076  -15.3851 C   0  0  2  0  0  0  0  0  0  0  0  0
   17.1271  -11.0590  -14.5313 N   0  0  0  0  0  0  0  0  0  0  0  0
   18.8267  -10.1949  -15.9611 C   0  0  0  0  0  0  0  0  0  0  0  0
   19.8613  -10.2912  -16.7076 O   0  0  0  0  0  0  0  0  0  0  0  0
   18.3404   -8.8854  -15.7505 N   0  0  0  0  0  0  0  0  0  0  0  0
   19.0313   -7.6787  -16.2539 C   0  0  1  0  0  0  0  0  0  0  0  0
   17.9159   -6.6847  -16.4587 C   0  0  0  0  0  0  0  0  0  0  0  0
   17.1423   -6.8467  -17.7301 C   0  0  0  0  0  0  0  0  0  0  0  0
   16.0959   -5.7743  -17.7723 C   0  0  0  0  0  0  0  0  0  0  0  0
   14.9000   -6.0657  -17.8910 O   0  0  0  0  0  0  0  0  0  0  0  0
   19.9837   -7.1911  -15.2482 C   0  0  0  0  0  0  0  0  0  0  0  0
   19.6334   -7.1893  -14.0081 O   0  0  0  0  0  0  0  0  0  0  0  0
   16.4443   -4.4218  -17.6788 O   0  0  0  0  0  0  0  0  0  0  0  0
   23.6108   -6.3788  -14.7468 C   0  0  0  0  0  0  0  0  0  0  0  0
   22.1469   -6.2395  -14.3805 C   0  0  2  0  0  0  0  0  0  0  0  0
   21.2942   -6.7084  -15.4731 N   0  0  0  0  0  0  0  0  0  0  0  0
   21.8259   -4.8346  -14.0829 C   0  0  0  0  0  0  0  0  0  0  0  0
   21.1326   -4.2018  -14.9348 O   0  0  0  0  0  0  0  0  0  0  0  0
   22.2270   -4.1740  -12.9502 O   0  0  0  0  0  0  0  0  0  0  0  0
  2  4  1  0
  2  1  1  1
  2  3  1  0
  4  5  1  1
  6  4  1  0
  6  7  2  0
  8  6  1  0
  9  8  1  0
  9 10  1  1
 11 10  1  0
 12 16  1  0
 12 11  1  0
 13 12  2  0
 14  9  1  0
 15 14  2  0
 18 17  1  6
 18 19  1  0
 18 20  1  0
 19 14  1  0
 20 22  1  0
 21 20  2  0
M  END
$$$$
