TEA.pdb
     RDKit          3D

 22 21  0  0  1  0  0  0  0  0999 V2000
   24.4547  -11.5299  -15.0050 C   0  0  0  0  0  0  0  0  0  0  0  0
   24.1730  -12.3507  -16.2554 C   0  0  1  0  0  0  0  0  0  0  0  0
   24.6142  -13.6325  -16.0152 O   0  0  0  0  0  0  0  0  0  0  0  0
   22.6858  -12.2700  -16.5056 C   0  0  2  0  0  0  0  0  0  0  0  0
   22.3504  -13.1728  -17.5662 N   0  0  0  0  0  0  0  0  0  0  0  0
   22.2251  -10.9100  -16.8287 C   0  0  0  0  0  0  0  0  0  0  0  0
   22.4504  -10.4200  -17.9889 O   0  0  0  0  0  0  0  0  0  0  0  0
   21.5293  -10.0698  -15.9312 N   0  0  0  0  0  0  0  0  0  0  0  0
   21.0977   -8.6992  -16.2806 C   0  0  1  0  0  0  0  0  0  0  0  0
   19.6319   -8.6825  -15.9270 C   0  0  0  0  0  0  0  0  0  0  0  0
   18.9343   -7.3784  -16.1591 C   0  0  0  0  0  0  0  0  0  0  0  0
   17.4834   -7.5680  -15.8340 C   0  0  0  0  0  0  0  0  0  0  0  0
   16.6662   -6.6658  -16.0519 O   0  0  0  0  0  0  0  0  0  0  0  0
   21.8381   -7.7205  -15.4741 C   0  0  0  0  0  0  0  0  0  0  0  0
   22.0970   -7.9971  -14.2424 O   0  0  0  0  0  0  0  0  0  0  0  0
   17.0188   -8.7656  -15.2780 O   0  0  0  0  0  0  0  0  0  0  0  0
   23.6786   -4.4220  -15.7486 C   0  0  0  0  0  0  0  0  0  0  0  0
   23.0415   -5.5645  -14.9835 C   0  0  2  0  0  0  0  0  0  0  0  0
   22.3304   -6.4626  -15.8937 N   0  0  0  0  0  0  0  0  0  0  0  0
   22.0994   -5.0449  -13.9797 C   0  0  0  0  0  0  0  0  0  0  0  0
   20.8794   -4.9608  -14.3134 O   0  0  0  0  0  0  0  0  0  0  0  0
   22.4571   -4.6499  -12.7162 O   0  0  0  0  0  0  0  0  0  0  0  0
  2  4  1  0
  2  1  1  1
  2  3  1  0
  4  5  1  6
  6  4  1  0
  6  7  2  0
  8  6  1  0
  9  8  1  0
  9 10  1  1
 11 10  1  0
 12 16  1  0
 12 11  1  0
 13 12  2  0
 14  9  1  0
 15 14  2  0
 18 17  1  6
 18 19  1  0
 18 20  1  0
 19 14  1  0
 20 22  1  0
 21 20  2  0
M  END
$$$$
