TEA.pdb
     RDKit          3D

 22 21  0  0  1  0  0  0  0  0999 V2000
   18.7400  -10.7469  -14.3803 C   0  0  0  0  0  0  0  0  0  0  0  0
   18.5997  -11.3440  -15.7732 C   0  0  1  0  0  0  0  0  0  0  0  0
   18.0415  -12.5945  -15.6314 O   0  0  0  0  0  0  0  0  0  0  0  0
   17.7379  -10.3944  -16.5712 C   0  0  2  0  0  0  0  0  0  0  0  0
   17.4075  -11.0151  -17.8194 N   0  0  0  0  0  0  0  0  0  0  0  0
   18.3761   -9.0888  -16.8041 C   0  0  0  0  0  0  0  0  0  0  0  0
   19.1821   -8.9400  -17.7865 O   0  0  0  0  0  0  0  0  0  0  0  0
   18.1648   -7.9442  -16.0035 N   0  0  0  0  0  0  0  0  0  0  0  0
   18.8727   -6.6647  -16.2243 C   0  0  1  0  0  0  0  0  0  0  0  0
   17.7897   -5.6251  -16.0814 C   0  0  0  0  0  0  0  0  0  0  0  0
   16.9507   -5.4059  -17.3017 C   0  0  0  0  0  0  0  0  0  0  0  0
   15.9604   -4.3243  -16.9915 C   0  0  0  0  0  0  0  0  0  0  0  0
   15.4367   -3.6702  -17.9010 O   0  0  0  0  0  0  0  0  0  0  0  0
   19.9074   -6.4816  -15.1985 C   0  0  0  0  0  0  0  0  0  0  0  0
   19.6183   -6.7399  -13.9695 O   0  0  0  0  0  0  0  0  0  0  0  0
   15.6049   -4.0284  -15.6704 O   0  0  0  0  0  0  0  0  0  0  0  0
   23.6218   -5.9607  -14.8304 C   0  0  0  0  0  0  0  0  0  0  0  0
   22.2040   -5.9836  -14.2957 C   0  0  2  0  0  0  0  0  0  0  0  0
   21.2389   -6.0459  -15.3936 N   0  0  0  0  0  0  0  0  0  0  0  0
   21.9430   -4.7820  -13.4875 C   0  0  0  0  0  0  0  0  0  0  0  0
   21.2691   -3.8527  -14.0251 O   0  0  0  0  0  0  0  0  0  0  0  0
   22.3799   -4.6077  -12.1995 O   0  0  0  0  0  0  0  0  0  0  0  0
  2  4  1  0
  2  1  1  1
  2  3  1  0
  4  5  1  6
  6  4  1  0
  6  7  2  0
  8  6  1  0
  9  8  1  0
  9 10  1  1
 11 10  1  0
 12 16  1  0
 12 11  1  0
 13 12  2  0
 14  9  1  0
 15 14  2  0
 18 17  1  6
 18 19  1  0
 18 20  1  0
 19 14  1  0
 20 22  1  0
 21 20  2  0
M  END
$$$$
