TEA.pdb
     RDKit          3D

 22 21  0  0  1  0  0  0  0  0999 V2000
   26.2019  -19.4370  -17.5362 C   0  0  0  0  0  0  0  0  0  0  0  0
   26.9497  -20.7586  -17.4331 C   0  0  1  0  0  0  0  0  0  0  0  0
   28.2691  -20.5107  -17.7383 O   0  0  0  0  0  0  0  0  0  0  0  0
   26.7495  -21.2656  -16.0246 C   0  0  2  0  0  0  0  0  0  0  0  0
   27.5313  -22.4533  -15.8502 N   0  0  0  0  0  0  0  0  0  0  0  0
   25.3390  -21.5310  -15.6989 C   0  0  0  0  0  0  0  0  0  0  0  0
   24.7512  -22.5518  -16.1983 O   0  0  0  0  0  0  0  0  0  0  0  0
   24.5513  -20.7226  -14.8494 N   0  0  0  0  0  0  0  0  0  0  0  0
   23.1547  -21.0517  -14.4913 C   0  0  1  0  0  0  0  0  0  0  0  0
   23.0071  -20.5163  -13.0893 C   0  0  0  0  0  0  0  0  0  0  0  0
   21.6494  -20.6847  -12.4816 C   0  0  0  0  0  0  0  0  0  0  0  0
   21.7216  -20.2222  -11.0576 C   0  0  0  0  0  0  0  0  0  0  0  0
   22.7783  -19.7792  -10.5922 O   0  0  0  0  0  0  0  0  0  0  0  0
   22.2297  -20.3721  -15.4072 C   0  0  0  0  0  0  0  0  0  0  0  0
   22.4839  -19.1597  -15.7626 O   0  0  0  0  0  0  0  0  0  0  0  0
   20.6000  -20.2797  -10.2222 O   0  0  0  0  0  0  0  0  0  0  0  0
   19.6695  -21.0047  -18.0015 C   0  0  0  0  0  0  0  0  0  0  0  0
   20.2158  -20.1226  -16.8969 C   0  0  2  0  0  0  0  0  0  0  0  0
   21.0489  -20.9003  -15.9794 N   0  0  0  0  0  0  0  0  0  0  0  0
   19.1130  -19.5034  -16.1449 C   0  0  0  0  0  0  0  0  0  0  0  0
   18.7708  -20.0515  -15.0543 O   0  0  0  0  0  0  0  0  0  0  0  0
   18.4389  -18.3793  -16.5478 O   0  0  0  0  0  0  0  0  0  0  0  0
  2  4  1  0
  2  1  1  1
  2  3  1  0
  4  5  1  6
  6  4  1  0
  6  7  2  0
  8  6  1  0
  9  8  1  0
  9 10  1  1
 11 10  1  0
 12 16  1  0
 12 11  1  0
 13 12  2  0
 14  9  1  0
 15 14  2  0
 18 17  1  6
 18 19  1  0
 18 20  1  0
 19 14  1  0
 20 22  1  0
 21 20  2  0
M  END
$$$$
