TEA.pdb
     RDKit          3D

 22 21  0  0  1  0  0  0  0  0999 V2000
   16.0530   -6.7136  -17.5056 C   0  0  0  0  0  0  0  0  0  0  0  0
   16.3080   -8.1604  -17.1080 C   0  0  1  0  0  0  0  0  0  0  0  0
   15.5982   -8.9580  -17.9772 O   0  0  0  0  0  0  0  0  0  0  0  0
   17.8005   -8.3783  -17.1839 C   0  0  2  0  0  0  0  0  0  0  0  0
   18.0719   -9.7682  -16.9675 N   0  0  0  0  0  0  0  0  0  0  0  0
   18.5560   -7.5559  -16.2251 C   0  0  0  0  0  0  0  0  0  0  0  0
   18.2631   -7.5980  -14.9804 O   0  0  0  0  0  0  0  0  0  0  0  0
   19.6167   -6.6922  -16.5781 N   0  0  0  0  0  0  0  0  0  0  0  0
   20.2748   -5.7874  -15.6111 C   0  0  1  0  0  0  0  0  0  0  0  0
   21.7384   -6.1279  -15.7384 C   0  0  0  0  0  0  0  0  0  0  0  0
   22.6587   -5.3197  -14.8777 C   0  0  0  0  0  0  0  0  0  0  0  0
   24.0511   -5.8363  -15.0806 C   0  0  0  0  0  0  0  0  0  0  0  0
   24.2848   -7.0500  -15.0391 O   0  0  0  0  0  0  0  0  0  0  0  0
   20.0318   -4.3892  -15.9884 C   0  0  0  0  0  0  0  0  0  0  0  0
   20.2600   -4.0233  -17.2028 O   0  0  0  0  0  0  0  0  0  0  0  0
   25.1175   -4.9621  -15.3212 O   0  0  0  0  0  0  0  0  0  0  0  0
   18.2310   -1.2982  -14.9368 C   0  0  0  0  0  0  0  0  0  0  0  0
   19.3821   -1.9810  -15.6478 C   0  0  2  0  0  0  0  0  0  0  0  0
   19.5531   -3.3491  -15.1579 N   0  0  0  0  0  0  0  0  0  0  0  0
   20.6301   -1.2305  -15.4375 C   0  0  0  0  0  0  0  0  0  0  0  0
   21.4275   -1.6615  -14.5514 O   0  0  0  0  0  0  0  0  0  0  0  0
   20.9806   -0.1035  -16.1356 O   0  0  0  0  0  0  0  0  0  0  0  0
  2  4  1  0
  2  1  1  6
  2  3  1  0
  4  5  1  1
  6  4  1  0
  6  7  2  0
  8  6  1  0
  9  8  1  0
  9 10  1  6
 11 10  1  0
 12 16  1  0
 12 11  1  0
 13 12  2  0
 14  9  1  0
 15 14  2  0
 18 17  1  1
 18 19  1  0
 18 20  1  0
 19 14  1  0
 20 22  1  0
 21 20  2  0
M  END
$$$$
