TEA.pdb
     RDKit          3D

 22 21  0  0  1  0  0  0  0  0999 V2000
   14.1500   -6.0339  -10.8039 C   0  0  0  0  0  0  0  0  0  0  0  0
   14.3021   -7.0786   -9.7077 C   0  0  1  0  0  0  0  0  0  0  0  0
   13.0390   -7.5128   -9.3737 O   0  0  0  0  0  0  0  0  0  0  0  0
   15.1798   -8.1737  -10.2659 C   0  0  2  0  0  0  0  0  0  0  0  0
   15.2532   -9.2352   -9.3066 N   0  0  0  0  0  0  0  0  0  0  0  0
   16.5316   -7.7103  -10.6181 C   0  0  0  0  0  0  0  0  0  0  0  0
   17.4251   -7.6028   -9.7087 O   0  0  0  0  0  0  0  0  0  0  0  0
   16.9394   -7.3615  -11.9249 N   0  0  0  0  0  0  0  0  0  0  0  0
   18.3069   -6.8991  -12.2457 C   0  0  1  0  0  0  0  0  0  0  0  0
   18.6916   -7.7216  -13.4498 C   0  0  0  0  0  0  0  0  0  0  0  0
   19.2347   -9.0830  -13.1455 C   0  0  0  0  0  0  0  0  0  0  0  0
   19.4576   -9.7914  -14.4475 C   0  0  0  0  0  0  0  0  0  0  0  0
   19.1868   -9.2382  -15.5198 O   0  0  0  0  0  0  0  0  0  0  0  0
   18.2867   -5.4690  -12.5782 C   0  0  0  0  0  0  0  0  0  0  0  0
   17.5243   -5.0628  -13.5345 O   0  0  0  0  0  0  0  0  0  0  0  0
   19.9757  -11.0913  -14.4825 O   0  0  0  0  0  0  0  0  0  0  0  0
   18.7244   -2.1556  -11.1046 C   0  0  0  0  0  0  0  0  0  0  0  0
   18.8625   -3.0305  -12.3343 C   0  0  2  0  0  0  0  0  0  0  0  0
   19.0220   -4.4343  -11.9541 N   0  0  0  0  0  0  0  0  0  0  0  0
   20.0238   -2.6090  -13.1336 C   0  0  0  0  0  0  0  0  0  0  0  0
   21.0118   -3.4012  -13.1893 O   0  0  0  0  0  0  0  0  0  0  0  0
   20.1017   -1.4225  -13.8164 O   0  0  0  0  0  0  0  0  0  0  0  0
  2  4  1  0
  2  1  1  6
  2  3  1  0
  4  5  1  1
  6  4  1  0
  6  7  2  0
  8  6  1  0
  9  8  1  0
  9 10  1  6
 11 10  1  0
 12 16  1  0
 12 11  1  0
 13 12  2  0
 14  9  1  0
 15 14  2  0
 18 17  1  1
 18 19  1  0
 18 20  1  0
 19 14  1  0
 20 22  1  0
 21 20  2  0
M  END
$$$$
