CVY.pdb
     RDKit          3D

 26 26  0  0  1  0  0  0  0  0999 V2000
    6.3348  -18.8029   19.4436 N   0  0  0  0  0  0  0  0  0  0  0  0
    6.3361  -18.1724   20.7494 C   0  0  1  0  0  0  0  0  0  0  0  0
    6.4192  -19.2207   21.8382 C   0  0  0  0  0  0  0  0  0  0  0  0
    4.7267  -19.7471   22.2993 S   0  0  0  0  0  0  0  0  0  0  0  0
    7.4479  -17.2144   20.8030 C   0  0  0  0  0  0  0  0  0  0  0  0
    8.6666  -17.6009   20.7552 O   0  0  0  0  0  0  0  0  0  0  0  0
    7.3553  -13.6142   19.2809 C   0  0  0  0  0  0  0  0  0  0  0  0
    7.8963  -13.5145   20.6926 C   0  0  1  0  0  0  0  0  0  0  0  0
    6.7340  -13.0974   21.5763 C   0  0  0  0  0  0  0  0  0  0  0  0
    8.3970  -14.9053   21.0807 C   0  0  2  0  0  0  0  0  0  0  0  0
    7.2820  -15.8050   20.9101 N   0  0  0  0  0  0  0  0  0  0  0  0
    8.8920  -14.8293   22.4534 C   0  0  0  0  0  0  0  0  0  0  0  0
    8.2402  -14.1503   23.2835 O   0  0  0  0  0  0  0  0  0  0  0  0
   10.9129  -15.0576   30.5983 O   0  0  0  0  0  0  0  0  0  0  0  0
   10.5313  -15.1871   29.2797 C   0  0  0  0  0  0  0  0  0  0  0  0
   10.3965  -16.4546   28.7287 C   0  0  0  0  0  0  0  0  0  0  0  0
   10.0167  -16.5612   27.4182 C   0  0  0  0  0  0  0  0  0  0  0  0
    9.7670  -15.4662   26.6373 C   0  0  0  0  0  0  0  0  0  0  0  0
    9.3659  -15.5919   25.2001 C   0  0  0  0  0  0  0  0  0  0  0  0
   10.5196  -15.2594   24.2857 C   0  0  2  0  0  0  0  0  0  0  0  0
   10.0678  -15.4805   22.8981 N   0  0  0  0  0  0  0  0  0  0  0  0
   11.7308  -16.0272   24.5460 C   0  0  0  0  0  0  0  0  0  0  0  0
   12.1219  -17.0586   23.7327 O   0  0  0  0  0  0  0  0  0  0  0  0
    9.9022  -14.2096   27.1881 C   0  0  0  0  0  0  0  0  0  0  0  0
   10.2821  -14.0717   28.5016 C   0  0  0  0  0  0  0  0  0  0  0  0
   12.4559  -15.7529   25.5450 O   0  0  0  0  0  0  0  0  0  0  0  0
  2  1  1  6
  2  3  1  0
  3  4  1  0
  5  2  1  0
  6  5  2  0
  8  7  1  6
  8  9  1  0
  8 10  1  0
 10 12  1  0
 10 11  1  1
 11  5  1  0
 12 21  1  0
 13 12  2  0
 15 16  2  0
 15 14  1  0
 17 16  1  0
 18 17  2  0
 20 19  1  1
 19 18  1  0
 20 22  1  0
 21 20  1  0
 22 26  2  0
 22 23  1  0
 24 18  1  0
 24 25  2  0
 25 15  1  0
M  END
$$$$
