CVY.pdb
     RDKit          3D

 26 26  0  0  1  0  0  0  0  0999 V2000
   10.5822  -17.6261   17.5823 N   0  0  0  0  0  0  0  0  0  0  0  0
    9.5102  -17.7531   18.5505 C   0  0  1  0  0  0  0  0  0  0  0  0
    9.6099  -19.0797   19.2727 C   0  0  0  0  0  0  0  0  0  0  0  0
    8.0967  -19.3380   20.2717 S   0  0  0  0  0  0  0  0  0  0  0  0
    9.5711  -16.6066   19.4661 C   0  0  0  0  0  0  0  0  0  0  0  0
   10.6875  -16.1504   19.8931 O   0  0  0  0  0  0  0  0  0  0  0  0
    7.3536  -12.7772   21.5971 C   0  0  0  0  0  0  0  0  0  0  0  0
    7.3132  -13.9062   20.5875 C   0  0  1  0  0  0  0  0  0  0  0  0
    7.4094  -13.2660   19.2138 C   0  0  0  0  0  0  0  0  0  0  0  0
    8.5291  -14.7922   20.8560 C   0  0  2  0  0  0  0  0  0  0  0  0
    8.4279  -15.9125   19.9526 N   0  0  0  0  0  0  0  0  0  0  0  0
    8.4998  -15.1657   22.2684 C   0  0  0  0  0  0  0  0  0  0  0  0
    7.6838  -16.0464   22.6335 O   0  0  0  0  0  0  0  0  0  0  0  0
   10.5672  -16.2807   30.7379 O   0  0  0  0  0  0  0  0  0  0  0  0
   10.5017  -15.8114   29.4432 C   0  0  0  0  0  0  0  0  0  0  0  0
   11.0219  -16.5803   28.4105 C   0  0  0  0  0  0  0  0  0  0  0  0
   10.9466  -16.0963   27.1326 C   0  0  0  0  0  0  0  0  0  0  0  0
   10.3789  -14.8864   26.8406 C   0  0  0  0  0  0  0  0  0  0  0  0
   10.3138  -14.3582   25.4409 C   0  0  0  0  0  0  0  0  0  0  0  0
    9.2791  -15.1001   24.6306 C   0  0  2  0  0  0  0  0  0  0  0  0
    9.3428  -14.5874   23.2480 N   0  0  0  0  0  0  0  0  0  0  0  0
    7.9201  -14.9849   25.1448 C   0  0  0  0  0  0  0  0  0  0  0  0
    7.3573  -15.9604   25.9256 O   0  0  0  0  0  0  0  0  0  0  0  0
    9.8639  -14.1261   27.8687 C   0  0  0  0  0  0  0  0  0  0  0  0
    9.9251  -14.5865   29.1621 C   0  0  0  0  0  0  0  0  0  0  0  0
    7.2217  -13.9659   24.8747 O   0  0  0  0  0  0  0  0  0  0  0  0
  2  1  1  6
  2  3  1  0
  3  4  1  0
  5  2  1  0
  6  5  2  0
  8  7  1  1
  8  9  1  0
  8 10  1  0
 10 12  1  0
 10 11  1  6
 11  5  1  0
 12 21  1  0
 13 12  2  0
 15 16  2  0
 15 14  1  0
 17 16  1  0
 18 17  2  0
 20 19  1  1
 19 18  1  0
 20 22  1  0
 21 20  1  0
 22 26  2  0
 22 23  1  0
 24 18  1  0
 24 25  2  0
 25 15  1  0
M  END
$$$$
