CVY.pdb
     RDKit          3D

 26 26  0  0  1  0  0  0  0  0999 V2000
    5.5438  -13.6310   26.9572 N   0  0  0  0  0  0  0  0  0  0  0  0
    6.2740  -12.9520   25.9043 C   0  0  1  0  0  0  0  0  0  0  0  0
    7.2155  -11.9253   26.4967 C   0  0  0  0  0  0  0  0  0  0  0  0
    6.2684  -10.4202   26.9351 S   0  0  0  0  0  0  0  0  0  0  0  0
    6.9740  -13.9602   25.0980 C   0  0  0  0  0  0  0  0  0  0  0  0
    7.6236  -14.9186   25.6425 O   0  0  0  0  0  0  0  0  0  0  0  0
    8.1534  -13.3615   21.1531 C   0  0  0  0  0  0  0  0  0  0  0  0
    7.4426  -14.6679   21.4428 C   0  0  1  0  0  0  0  0  0  0  0  0
    8.0846  -15.7195   20.5552 C   0  0  0  0  0  0  0  0  0  0  0  0
    7.6789  -14.9899   22.9180 C   0  0  2  0  0  0  0  0  0  0  0  0
    6.9970  -13.9684   23.6751 N   0  0  0  0  0  0  0  0  0  0  0  0
    9.1233  -15.0241   23.1365 C   0  0  0  0  0  0  0  0  0  0  0  0
    9.7615  -13.9463   23.0615 O   0  0  0  0  0  0  0  0  0  0  0  0
    9.4872  -14.7448   29.6449 O   0  0  0  0  0  0  0  0  0  0  0  0
    9.9942  -15.2927   28.4857 C   0  0  0  0  0  0  0  0  0  0  0  0
    9.7734  -16.6359   28.2112 C   0  0  0  0  0  0  0  0  0  0  0  0
   10.2852  -17.1601   27.0552 C   0  0  0  0  0  0  0  0  0  0  0  0
   11.0032  -16.4084   26.1659 C   0  0  0  0  0  0  0  0  0  0  0  0
   11.5718  -16.9938   24.9104 C   0  0  0  0  0  0  0  0  0  0  0  0
   11.2850  -16.1079   23.7227 C   0  0  2  0  0  0  0  0  0  0  0  0
    9.8422  -16.2084   23.4285 N   0  0  0  0  0  0  0  0  0  0  0  0
   12.0621  -16.4313   22.5327 C   0  0  0  0  0  0  0  0  0  0  0  0
   13.3910  -16.1136   22.4285 O   0  0  0  0  0  0  0  0  0  0  0  0
   11.2204  -15.0754   26.4423 C   0  0  0  0  0  0  0  0  0  0  0  0
   10.7184  -14.5214   27.5955 C   0  0  0  0  0  0  0  0  0  0  0  0
   11.5155  -17.0202   21.5562 O   0  0  0  0  0  0  0  0  0  0  0  0
  2  1  1  1
  2  3  1  0
  3  4  1  0
  5  2  1  0
  6  5  2  0
  8  7  1  6
  8  9  1  0
  8 10  1  0
 10 12  1  0
 10 11  1  1
 11  5  1  0
 12 21  1  0
 13 12  2  0
 15 16  2  0
 15 14  1  0
 17 16  1  0
 18 17  2  0
 20 19  1  1
 19 18  1  0
 20 22  1  0
 21 20  1  0
 22 26  2  0
 22 23  1  0
 24 18  1  0
 24 25  2  0
 25 15  1  0
M  END
$$$$
