CVY.pdb
     RDKit          3D

 26 26  0  0  1  0  0  0  0  0999 V2000
    5.7490  -19.2625   20.7360 N   0  0  0  0  0  0  0  0  0  0  0  0
    5.3500  -17.9533   21.2153 C   0  0  1  0  0  0  0  0  0  0  0  0
    4.7905  -18.0561   22.6180 C   0  0  0  0  0  0  0  0  0  0  0  0
    5.9508  -19.0148   23.6616 S   0  0  0  0  0  0  0  0  0  0  0  0
    6.5088  -17.0548   21.1347 C   0  0  0  0  0  0  0  0  0  0  0  0
    7.7017  -17.5083   21.0445 O   0  0  0  0  0  0  0  0  0  0  0  0
    8.3091  -12.4581   20.9609 C   0  0  0  0  0  0  0  0  0  0  0  0
    7.1008  -13.3686   20.8798 C   0  0  1  0  0  0  0  0  0  0  0  0
    6.5776  -13.2727   19.4575 C   0  0  0  0  0  0  0  0  0  0  0  0
    7.5859  -14.7860   21.1817 C   0  0  2  0  0  0  0  0  0  0  0  0
    6.4195  -15.6345   21.1488 N   0  0  0  0  0  0  0  0  0  0  0  0
    8.2596  -14.7553   22.4780 C   0  0  0  0  0  0  0  0  0  0  0  0
    7.6983  -14.1536   23.4254 O   0  0  0  0  0  0  0  0  0  0  0  0
   11.3130  -14.9170   30.2566 O   0  0  0  0  0  0  0  0  0  0  0  0
   10.7826  -15.0891   28.9956 C   0  0  0  0  0  0  0  0  0  0  0  0
   10.6993  -16.3667   28.4578 C   0  0  0  0  0  0  0  0  0  0  0  0
   10.1696  -16.5158   27.2048 C   0  0  0  0  0  0  0  0  0  0  0  0
    9.7218  -15.4534   26.4685 C   0  0  0  0  0  0  0  0  0  0  0  0
    9.1568  -15.6242   25.0923 C   0  0  0  0  0  0  0  0  0  0  0  0
   10.1468  -15.1816   24.0426 C   0  0  2  0  0  0  0  0  0  0  0  0
    9.5122  -15.3681   22.7232 N   0  0  0  0  0  0  0  0  0  0  0  0
   11.4226  -15.8850   24.0881 C   0  0  0  0  0  0  0  0  0  0  0  0
   12.4895  -15.4023   24.8000 O   0  0  0  0  0  0  0  0  0  0  0  0
    9.8065  -14.1866   27.0060 C   0  0  0  0  0  0  0  0  0  0  0  0
   10.3338  -14.0064   28.2621 C   0  0  0  0  0  0  0  0  0  0  0  0
   11.5729  -16.9721   23.4598 O   0  0  0  0  0  0  0  0  0  0  0  0
  2  1  1  1
  2  3  1  0
  3  4  1  0
  5  2  1  0
  6  5  2  0
  8  7  1  6
  8  9  1  0
  8 10  1  0
 10 12  1  0
 10 11  1  1
 11  5  1  0
 12 21  1  0
 13 12  2  0
 15 16  2  0
 15 14  1  0
 17 16  1  0
 18 17  2  0
 20 19  1  1
 19 18  1  0
 20 22  1  0
 21 20  1  0
 22 26  2  0
 22 23  1  0
 24 18  1  0
 24 25  2  0
 25 15  1  0
M  END
$$$$
