CVY.pdb
     RDKit          3D

 26 26  0  0  1  0  0  0  0  0999 V2000
    9.2828  -18.3032   17.9834 N   0  0  0  0  0  0  0  0  0  0  0  0
    8.4343  -18.1928   19.1541 C   0  0  1  0  0  0  0  0  0  0  0  0
    8.4334  -19.4948   19.9261 C   0  0  0  0  0  0  0  0  0  0  0  0
    7.3226  -20.6894   19.0933 S   0  0  0  0  0  0  0  0  0  0  0  0
    8.9003  -17.0584   19.9619 C   0  0  0  0  0  0  0  0  0  0  0  0
   10.1196  -16.9607   20.3369 O   0  0  0  0  0  0  0  0  0  0  0  0
    8.0447  -12.6890   22.0579 C   0  0  0  0  0  0  0  0  0  0  0  0
    7.4882  -13.8445   21.2512 C   0  0  1  0  0  0  0  0  0  0  0  0
    7.3131  -13.3395   19.8299 C   0  0  0  0  0  0  0  0  0  0  0  0
    8.5245  -14.9668   21.3011 C   0  0  2  0  0  0  0  0  0  0  0  0
    8.0653  -15.9897   20.3930 N   0  0  0  0  0  0  0  0  0  0  0  0
    8.6282  -15.4105   22.6895 C   0  0  0  0  0  0  0  0  0  0  0  0
    7.7509  -16.1916   23.1309 O   0  0  0  0  0  0  0  0  0  0  0  0
    6.2215  -10.6243   27.0407 O   0  0  0  0  0  0  0  0  0  0  0  0
    6.7113  -11.8471   26.6335 C   0  0  0  0  0  0  0  0  0  0  0  0
    5.8240  -12.8596   26.2930 C   0  0  0  0  0  0  0  0  0  0  0  0
    6.3307  -14.0657   25.8912 C   0  0  0  0  0  0  0  0  0  0  0  0
    7.6753  -14.3056   25.8144 C   0  0  0  0  0  0  0  0  0  0  0  0
    8.2209  -15.6331   25.3875 C   0  0  0  0  0  0  0  0  0  0  0  0
    9.6605  -15.5110   24.9512 C   0  0  2  0  0  0  0  0  0  0  0  0
    9.6656  -15.0066   23.5642 N   0  0  0  0  0  0  0  0  0  0  0  0
   10.4191  -16.7528   25.0348 C   0  0  0  0  0  0  0  0  0  0  0  0
   10.1538  -17.8188   24.2155 O   0  0  0  0  0  0  0  0  0  0  0  0
    8.5528  -13.2978   26.1536 C   0  0  0  0  0  0  0  0  0  0  0  0
    8.0729  -12.0761   26.5605 C   0  0  0  0  0  0  0  0  0  0  0  0
   11.3518  -16.8732   25.8802 O   0  0  0  0  0  0  0  0  0  0  0  0
  2  1  1  6
  2  3  1  0
  3  4  1  0
  5  2  1  0
  6  5  2  0
  8  7  1  1
  8  9  1  0
  8 10  1  0
 10 12  1  0
 10 11  1  6
 11  5  1  0
 12 21  1  0
 13 12  2  0
 15 16  2  0
 15 14  1  0
 17 16  1  0
 18 17  2  0
 20 19  1  6
 19 18  1  0
 20 22  1  0
 21 20  1  0
 22 26  2  0
 22 23  1  0
 24 18  1  0
 24 25  2  0
 25 15  1  0
M  END
$$$$
