CVY.pdb
     RDKit          3D

 26 26  0  0  1  0  0  0  0  0999 V2000
    6.0225  -19.1845   20.1332 N   0  0  0  0  0  0  0  0  0  0  0  0
    5.9106  -18.3276   21.2975 C   0  0  1  0  0  0  0  0  0  0  0  0
    5.9981  -19.1505   22.5650 C   0  0  0  0  0  0  0  0  0  0  0  0
    5.8862  -18.0379   24.0156 S   0  0  0  0  0  0  0  0  0  0  0  0
    6.9549  -17.2979   21.2204 C   0  0  0  0  0  0  0  0  0  0  0  0
    8.1594  -17.5897   20.9028 O   0  0  0  0  0  0  0  0  0  0  0  0
    8.3256  -12.5940   21.1325 C   0  0  0  0  0  0  0  0  0  0  0  0
    7.1975  -13.6054   21.1462 C   0  0  1  0  0  0  0  0  0  0  0  0
    6.6313  -13.6457   19.7378 C   0  0  0  0  0  0  0  0  0  0  0  0
    7.8092  -14.9550   21.5205 C   0  0  2  0  0  0  0  0  0  0  0  0
    6.7345  -15.9168   21.4836 N   0  0  0  0  0  0  0  0  0  0  0  0
    8.4287  -14.8092   22.8359 C   0  0  0  0  0  0  0  0  0  0  0  0
    7.9444  -13.9679   23.6310 O   0  0  0  0  0  0  0  0  0  0  0  0
    6.1098  -11.0088   27.0185 O   0  0  0  0  0  0  0  0  0  0  0  0
    6.7876  -12.1575   26.6690 C   0  0  0  0  0  0  0  0  0  0  0  0
    8.1635  -12.1105   26.4873 C   0  0  0  0  0  0  0  0  0  0  0  0
    8.8173  -13.2617   26.1407 C   0  0  0  0  0  0  0  0  0  0  0  0
    8.1635  -14.4509   25.9681 C   0  0  0  0  0  0  0  0  0  0  0  0
    8.8850  -15.7027   25.5747 C   0  0  0  0  0  0  0  0  0  0  0  0
   10.0334  -15.3954   24.6449 C   0  0  2  0  0  0  0  0  0  0  0  0
    9.5466  -15.5664   23.2621 N   0  0  0  0  0  0  0  0  0  0  0  0
   11.2175  -16.2167   24.8636 C   0  0  0  0  0  0  0  0  0  0  0  0
   11.6723  -17.0965   23.9166 O   0  0  0  0  0  0  0  0  0  0  0  0
    6.7975  -14.4932   26.1492 C   0  0  0  0  0  0  0  0  0  0  0  0
    6.1143  -13.3529   26.4977 C   0  0  0  0  0  0  0  0  0  0  0  0
   11.8582  -16.1329   25.9506 O   0  0  0  0  0  0  0  0  0  0  0  0
  2  1  1  6
  2  3  1  0
  3  4  1  0
  5  2  1  0
  6  5  2  0
  8  7  1  6
  8  9  1  0
  8 10  1  0
 10 12  1  0
 10 11  1  1
 11  5  1  0
 12 21  1  0
 13 12  2  0
 15 16  2  0
 15 14  1  0
 17 16  1  0
 18 17  2  0
 20 19  1  1
 19 18  1  0
 20 22  1  0
 21 20  1  0
 22 26  2  0
 22 23  1  0
 24 18  1  0
 24 25  2  0
 25 15  1  0
M  END
$$$$
