CVY.pdb
     RDKit          3D

 26 26  0  0  1  0  0  0  0  0999 V2000
    6.1653  -18.9874   20.0675 N   0  0  0  0  0  0  0  0  0  0  0  0
    6.1158  -18.1455   21.2471 C   0  0  1  0  0  0  0  0  0  0  0  0
    6.2690  -18.9847   22.4975 C   0  0  0  0  0  0  0  0  0  0  0  0
    4.6442  -19.1286   23.3304 S   0  0  0  0  0  0  0  0  0  0  0  0
    7.1558  -17.1155   21.1282 C   0  0  0  0  0  0  0  0  0  0  0  0
    8.3776  -17.4217   20.9037 O   0  0  0  0  0  0  0  0  0  0  0  0
    8.4544  -12.3581   21.0809 C   0  0  0  0  0  0  0  0  0  0  0  0
    7.3492  -13.3910   20.9961 C   0  0  1  0  0  0  0  0  0  0  0  0
    6.8257  -13.3532   19.5712 C   0  0  0  0  0  0  0  0  0  0  0  0
    7.9795  -14.7490   21.3033 C   0  0  2  0  0  0  0  0  0  0  0  0
    6.9124  -15.7185   21.2477 N   0  0  0  0  0  0  0  0  0  0  0  0
    8.6232  -14.6511   22.6115 C   0  0  0  0  0  0  0  0  0  0  0  0
    8.4200  -13.6206   23.2983 O   0  0  0  0  0  0  0  0  0  0  0  0
    6.1103  -11.1340   27.0543 O   0  0  0  0  0  0  0  0  0  0  0  0
    6.7542  -12.2862   26.6556 C   0  0  0  0  0  0  0  0  0  0  0  0
    6.0117  -13.4332   26.4080 C   0  0  0  0  0  0  0  0  0  0  0  0
    6.6700  -14.5661   26.0131 C   0  0  0  0  0  0  0  0  0  0  0  0
    8.0283  -14.6057   25.8550 C   0  0  0  0  0  0  0  0  0  0  0  0
    8.7419  -15.8538   25.4365 C   0  0  0  0  0  0  0  0  0  0  0  0
    9.9170  -15.5319   24.5457 C   0  0  2  0  0  0  0  0  0  0  0  0
    9.4642  -15.6565   23.1465 N   0  0  0  0  0  0  0  0  0  0  0  0
   11.0865  -16.3724   24.7700 C   0  0  0  0  0  0  0  0  0  0  0  0
   11.9492  -16.1483   25.8109 O   0  0  0  0  0  0  0  0  0  0  0  0
    8.7618  -13.4648   26.1021 C   0  0  0  0  0  0  0  0  0  0  0  0
    8.1278  -12.3122   26.4998 C   0  0  0  0  0  0  0  0  0  0  0  0
   11.3328  -17.3403   23.9944 O   0  0  0  0  0  0  0  0  0  0  0  0
  2  1  1  6
  2  3  1  0
  3  4  1  0
  5  2  1  0
  6  5  2  0
  8  7  1  6
  8  9  1  0
  8 10  1  0
 10 12  1  0
 10 11  1  1
 11  5  1  0
 12 21  1  0
 13 12  2  0
 15 16  2  0
 15 14  1  0
 17 16  1  0
 18 17  2  0
 20 19  1  1
 19 18  1  0
 20 22  1  0
 21 20  1  0
 22 26  2  0
 22 23  1  0
 24 18  1  0
 24 25  2  0
 25 15  1  0
M  END
$$$$
