CVY.pdb
     RDKit          3D

 26 26  0  0  1  0  0  0  0  0999 V2000
    5.5372  -18.8828   19.3784 N   0  0  0  0  0  0  0  0  0  0  0  0
    5.1085  -17.7436   20.1664 C   0  0  1  0  0  0  0  0  0  0  0  0
    4.2868  -18.2045   21.3512 C   0  0  0  0  0  0  0  0  0  0  0  0
    2.6028  -18.6462   20.7823 S   0  0  0  0  0  0  0  0  0  0  0  0
    6.2974  -16.9805   20.5674 C   0  0  0  0  0  0  0  0  0  0  0  0
    7.4052  -17.5611   20.8366 O   0  0  0  0  0  0  0  0  0  0  0  0
    8.4641  -12.6123   21.3561 C   0  0  0  0  0  0  0  0  0  0  0  0
    7.2334  -13.3691   20.8998 C   0  0  1  0  0  0  0  0  0  0  0  0
    7.0746  -13.0887   19.4159 C   0  0  0  0  0  0  0  0  0  0  0  0
    7.5039  -14.8536   21.1422 C   0  0  2  0  0  0  0  0  0  0  0  0
    6.3313  -15.5632   20.6916 N   0  0  0  0  0  0  0  0  0  0  0  0
    7.7887  -15.0238   22.5653 C   0  0  0  0  0  0  0  0  0  0  0  0
    6.8892  -14.7325   23.3904 O   0  0  0  0  0  0  0  0  0  0  0  0
    8.6123  -19.5683   29.6621 O   0  0  0  0  0  0  0  0  0  0  0  0
    8.4705  -18.9369   28.4446 C   0  0  0  0  0  0  0  0  0  0  0  0
    9.3254  -17.8943   28.1120 C   0  0  0  0  0  0  0  0  0  0  0  0
    9.1679  -17.2810   26.8988 C   0  0  0  0  0  0  0  0  0  0  0  0
    8.2013  -17.6590   26.0076 C   0  0  0  0  0  0  0  0  0  0  0  0
    8.0269  -16.9728   24.6882 C   0  0  0  0  0  0  0  0  0  0  0  0
    9.1018  -15.9355   24.4721 C   0  0  2  0  0  0  0  0  0  0  0  0
    9.0253  -15.4998   23.0640 N   0  0  0  0  0  0  0  0  0  0  0  0
   10.4496  -16.3963   24.7808 C   0  0  0  0  0  0  0  0  0  0  0  0
   11.3507  -16.7076   23.7963 O   0  0  0  0  0  0  0  0  0  0  0  0
    7.3545  -18.6944   26.3418 C   0  0  0  0  0  0  0  0  0  0  0  0
    7.4890  -19.3291   27.5533 C   0  0  0  0  0  0  0  0  0  0  0  0
   10.8197  -16.5213   25.9835 O   0  0  0  0  0  0  0  0  0  0  0  0
  2  1  1  1
  2  3  1  0
  3  4  1  0
  5  2  1  0
  6  5  2  0
  8  7  1  6
  8  9  1  0
  8 10  1  0
 10 12  1  0
 10 11  1  1
 11  5  1  0
 12 21  1  0
 13 12  2  0
 15 16  2  0
 15 14  1  0
 17 16  1  0
 18 17  2  0
 20 19  1  6
 19 18  1  0
 20 22  1  0
 21 20  1  0
 22 26  2  0
 22 23  1  0
 24 18  1  0
 24 25  2  0
 25 15  1  0
M  END
$$$$
