CVY.pdb
     RDKit          3D

 26 26  0  0  1  0  0  0  0  0999 V2000
    8.3370  -18.2826   17.0059 N   0  0  0  0  0  0  0  0  0  0  0  0
    7.5637  -17.7921   18.1302 C   0  0  1  0  0  0  0  0  0  0  0  0
    7.2546  -18.9230   19.0878 C   0  0  0  0  0  0  0  0  0  0  0  0
    7.1383  -20.4923   18.1506 S   0  0  0  0  0  0  0  0  0  0  0  0
    8.3108  -16.7008   18.7687 C   0  0  0  0  0  0  0  0  0  0  0  0
    9.5836  -16.6151   18.6710 O   0  0  0  0  0  0  0  0  0  0  0  0
    8.2952  -12.3945   21.1682 C   0  0  0  0  0  0  0  0  0  0  0  0
    7.4954  -13.5057   20.5192 C   0  0  1  0  0  0  0  0  0  0  0  0
    6.8740  -12.9194   19.2639 C   0  0  0  0  0  0  0  0  0  0  0  0
    8.4802  -14.6191   20.1642 C   0  0  2  0  0  0  0  0  0  0  0  0
    7.7090  -15.6638   19.5353 N   0  0  0  0  0  0  0  0  0  0  0  0
    9.1422  -15.0334   21.3993 C   0  0  0  0  0  0  0  0  0  0  0  0
    8.4329  -15.2377   22.4141 O   0  0  0  0  0  0  0  0  0  0  0  0
   12.2841  -20.8372   26.5997 O   0  0  0  0  0  0  0  0  0  0  0  0
   11.8267  -19.9917   25.6113 C   0  0  0  0  0  0  0  0  0  0  0  0
   11.1170  -18.8509   25.9624 C   0  0  0  0  0  0  0  0  0  0  0  0
   10.6719  -18.0249   24.9661 C   0  0  0  0  0  0  0  0  0  0  0  0
   10.9019  -18.2846   23.6429 C   0  0  0  0  0  0  0  0  0  0  0  0
   10.3987  -17.3827   22.5586 C   0  0  0  0  0  0  0  0  0  0  0  0
   11.0617  -16.0287   22.6304 C   0  0  2  0  0  0  0  0  0  0  0  0
   10.5415  -15.2168   21.5131 N   0  0  0  0  0  0  0  0  0  0  0  0
   12.5178  -16.0715   22.5823 C   0  0  0  0  0  0  0  0  0  0  0  0
   13.2067  -15.9365   21.4054 O   0  0  0  0  0  0  0  0  0  0  0  0
   11.6067  -19.4183   23.2986 C   0  0  0  0  0  0  0  0  0  0  0  0
   12.0661  -20.2663   24.2775 C   0  0  0  0  0  0  0  0  0  0  0  0
   13.1851  -16.2383   23.6435 O   0  0  0  0  0  0  0  0  0  0  0  0
  2  1  1  6
  2  3  1  0
  3  4  1  0
  5  2  1  0
  6  5  2  0
  8  7  1  6
  8  9  1  0
  8 10  1  0
 10 12  1  0
 10 11  1  1
 11  5  1  0
 12 21  1  0
 13 12  2  0
 15 16  2  0
 15 14  1  0
 17 16  1  0
 18 17  2  0
 20 19  1  6
 19 18  1  0
 20 22  1  0
 21 20  1  0
 22 26  2  0
 22 23  1  0
 24 18  1  0
 24 25  2  0
 25 15  1  0
M  END
$$$$
