CVY.pdb
     RDKit          3D

 26 26  0  0  1  0  0  0  0  0999 V2000
    5.1613  -13.7839   26.6132 N   0  0  0  0  0  0  0  0  0  0  0  0
    6.3210  -13.2032   25.9648 C   0  0  1  0  0  0  0  0  0  0  0  0
    7.2918  -12.6761   26.9997 C   0  0  0  0  0  0  0  0  0  0  0  0
    6.7981  -10.9793   27.4811 S   0  0  0  0  0  0  0  0  0  0  0  0
    6.9238  -14.2185   25.0917 C   0  0  0  0  0  0  0  0  0  0  0  0
    7.0764  -15.4283   25.4792 O   0  0  0  0  0  0  0  0  0  0  0  0
    8.5313  -15.5540   20.6417 C   0  0  0  0  0  0  0  0  0  0  0  0
    8.0986  -14.4159   21.5435 C   0  0  1  0  0  0  0  0  0  0  0  0
    6.7223  -13.9834   21.0695 C   0  0  0  0  0  0  0  0  0  0  0  0
    8.0293  -14.9716   22.9656 C   0  0  2  0  0  0  0  0  0  0  0  0
    7.3829  -13.9626   23.7692 N   0  0  0  0  0  0  0  0  0  0  0  0
    9.3945  -15.2790   23.3863 C   0  0  0  0  0  0  0  0  0  0  0  0
   10.2158  -14.3344   23.4759 O   0  0  0  0  0  0  0  0  0  0  0  0
   10.2473  -14.2759   29.7296 O   0  0  0  0  0  0  0  0  0  0  0  0
   10.5159  -15.0868   28.6474 C   0  0  0  0  0  0  0  0  0  0  0  0
   11.8106  -15.1561   28.1501 C   0  0  0  0  0  0  0  0  0  0  0  0
   12.0561  -15.9670   27.0754 C   0  0  0  0  0  0  0  0  0  0  0  0
   11.0733  -16.7076   26.4779 C   0  0  0  0  0  0  0  0  0  0  0  0
   11.3480  -17.5813   25.2933 C   0  0  0  0  0  0  0  0  0  0  0  0
   11.2692  -16.7918   24.0093 C   0  0  2  0  0  0  0  0  0  0  0  0
    9.8411  -16.5857   23.6987 N   0  0  0  0  0  0  0  0  0  0  0  0
   11.9418  -17.4187   22.8785 C   0  0  0  0  0  0  0  0  0  0  0  0
   13.3075  -17.4306   22.7654 O   0  0  0  0  0  0  0  0  0  0  0  0
    9.7892  -16.6358   26.9745 C   0  0  0  0  0  0  0  0  0  0  0  0
    9.5129  -15.8300   28.0529 C   0  0  0  0  0  0  0  0  0  0  0  0
   11.2669  -17.9721   21.9634 O   0  0  0  0  0  0  0  0  0  0  0  0
  2  1  1  1
  2  3  1  0
  3  4  1  0
  5  2  1  0
  6  5  2  0
  8  7  1  6
  8  9  1  0
  8 10  1  0
 10 12  1  0
 10 11  1  1
 11  5  1  0
 12 21  1  0
 13 12  2  0
 15 16  2  0
 15 14  1  0
 17 16  1  0
 18 17  2  0
 20 19  1  1
 19 18  1  0
 20 22  1  0
 21 20  1  0
 22 26  2  0
 22 23  1  0
 24 18  1  0
 24 25  2  0
 25 15  1  0
M  END
$$$$
