CVY.pdb
     RDKit          3D

 26 26  0  0  1  0  0  0  0  0999 V2000
    8.6419  -18.5062   17.8437 N   0  0  0  0  0  0  0  0  0  0  0  0
    7.8636  -18.1153   19.0030 C   0  0  1  0  0  0  0  0  0  0  0  0
    7.8311  -19.2392   20.0164 C   0  0  0  0  0  0  0  0  0  0  0  0
    9.5395  -19.6073   20.5642 S   0  0  0  0  0  0  0  0  0  0  0  0
    8.4338  -16.8779   19.5512 C   0  0  0  0  0  0  0  0  0  0  0  0
    9.6332  -16.5197   19.2866 O   0  0  0  0  0  0  0  0  0  0  0  0
    7.9399  -12.4506   21.4814 C   0  0  0  0  0  0  0  0  0  0  0  0
    7.2790  -13.7153   20.9721 C   0  0  1  0  0  0  0  0  0  0  0  0
    6.8146  -13.4243   19.5559 C   0  0  0  0  0  0  0  0  0  0  0  0
    8.3443  -14.8111   20.9760 C   0  0  2  0  0  0  0  0  0  0  0  0
    7.7282  -15.9840   20.4047 N   0  0  0  0  0  0  0  0  0  0  0  0
    8.7897  -14.9889   22.3563 C   0  0  0  0  0  0  0  0  0  0  0  0
    8.0997  -15.7120   23.1150 O   0  0  0  0  0  0  0  0  0  0  0  0
   10.6433  -15.7436   30.4916 O   0  0  0  0  0  0  0  0  0  0  0  0
   10.2826  -15.4972   29.1839 C   0  0  0  0  0  0  0  0  0  0  0  0
    9.8172  -16.5411   28.3951 C   0  0  0  0  0  0  0  0  0  0  0  0
    9.4643  -16.2753   27.0999 C   0  0  0  0  0  0  0  0  0  0  0  0
    9.5545  -15.0219   26.5593 C   0  0  0  0  0  0  0  0  0  0  0  0
    9.1798  -14.7430   25.1366 C   0  0  0  0  0  0  0  0  0  0  0  0
   10.3960  -14.7638   24.2431 C   0  0  2  0  0  0  0  0  0  0  0  0
    9.9585  -14.3890   22.8843 N   0  0  0  0  0  0  0  0  0  0  0  0
   11.0926  -16.0436   24.2094 C   0  0  0  0  0  0  0  0  0  0  0  0
   10.4463  -17.2106   23.8958 O   0  0  0  0  0  0  0  0  0  0  0  0
   10.0173  -13.9884   27.3457 C   0  0  0  0  0  0  0  0  0  0  0  0
   10.3789  -14.2253   28.6501 C   0  0  0  0  0  0  0  0  0  0  0  0
   12.3276  -16.1033   24.4746 O   0  0  0  0  0  0  0  0  0  0  0  0
  2  1  1  6
  2  3  1  0
  3  4  1  0
  5  2  1  0
  6  5  2  0
  8  7  1  6
  8  9  1  0
  8 10  1  0
 10 12  1  0
 10 11  1  1
 11  5  1  0
 12 21  1  0
 13 12  2  0
 15 16  2  0
 15 14  1  0
 17 16  1  0
 18 17  2  0
 20 19  1  1
 19 18  1  0
 20 22  1  0
 21 20  1  0
 22 26  2  0
 22 23  1  0
 24 18  1  0
 24 25  2  0
 25 15  1  0
M  END
$$$$
