ILL.pdb
     RDKit          3D

 25 24  0  0  1  0  0  0  0  0999 V2000
    6.9473  -20.8010   18.1230 C   0  0  0  0  0  0  0  0  0  0  0  0
    7.0546  -20.1834   19.4842 C   0  0  0  0  0  0  0  0  0  0  0  0
    7.9170  -18.9295   19.4874 C   0  0  2  0  0  0  0  0  0  0  0  0
    9.2120  -19.2583   18.8221 C   0  0  0  0  0  0  0  0  0  0  0  0
    8.0328  -18.4614   20.8964 C   0  0  2  0  0  0  0  0  0  0  0  0
    6.6946  -18.2430   21.4120 N   0  0  0  0  0  0  0  0  0  0  0  0
    8.8653  -17.2693   21.0865 C   0  0  0  0  0  0  0  0  0  0  0  0
   10.1063  -17.2308   20.9184 O   0  0  0  0  0  0  0  0  0  0  0  0
    9.4106  -13.5323   19.1790 C   0  0  0  0  0  0  0  0  0  0  0  0
    8.0456  -13.6334   19.8710 C   0  0  2  0  0  0  0  0  0  0  0  0
    7.1569  -12.5113   19.4564 C   0  0  0  0  0  0  0  0  0  0  0  0
    8.3186  -13.6958   21.3295 C   0  0  0  0  0  0  0  0  0  0  0  0
    9.0728  -14.8827   21.8032 C   0  0  2  0  0  0  0  0  0  0  0  0
    8.2444  -16.0592   21.4897 N   0  0  0  0  0  0  0  0  0  0  0  0
    9.2967  -14.8004   23.2733 C   0  0  0  0  0  0  0  0  0  0  0  0
   10.3167  -14.1839   23.6540 O   0  0  0  0  0  0  0  0  0  0  0  0
    7.7025  -12.1346   26.5461 C   0  0  0  0  0  0  0  0  0  0  0  0
    6.9401  -13.2376   25.9282 C   0  0  2  0  0  0  0  0  0  0  0  0
    5.4704  -13.1093   26.3956 C   0  0  0  0  0  0  0  0  0  0  0  0
    7.3323  -14.6304   26.1773 C   0  0  0  0  0  0  0  0  0  0  0  0
    8.5855  -15.1935   25.6592 C   0  0  2  0  0  0  0  0  0  0  0  0
    8.4096  -15.3847   24.2033 N   0  0  0  0  0  0  0  0  0  0  0  0
    9.0517  -16.4834   26.1730 C   0  0  0  0  0  0  0  0  0  0  0  0
    9.2862  -17.6303   25.4116 O   0  0  0  0  0  0  0  0  0  0  0  0
    9.2771  -16.6443   27.4106 O   0  0  0  0  0  0  0  0  0  0  0  0
  2  1  1  0
  3  5  1  0
  3  2  1  0
  3  4  1  1
  5  6  1  6
  7  5  1  0
  7  8  2  0
 10  9  1  6
 11 10  1  0
 12 10  1  0
 13 12  1  1
 13 14  1  0
 14  7  1  0
 15 13  1  0
 16 15  2  0
 18 17  1  1
 18 20  1  0
 19 18  1  0
 21 20  1  1
 21 22  1  0
 21 23  1  0
 22 15  1  0
 23 24  1  0
 25 23  2  0
M  END
$$$$
