ILL.pdb
     RDKit          3D

 25 24  0  0  1  0  0  0  0  0999 V2000
    6.5148  -21.1678   26.1079 C   0  0  0  0  0  0  0  0  0  0  0  0
    6.3475  -20.6238   24.7216 C   0  0  0  0  0  0  0  0  0  0  0  0
    7.2264  -19.4085   24.4639 C   0  0  2  0  0  0  0  0  0  0  0  0
    6.8947  -18.3736   25.4871 C   0  0  0  0  0  0  0  0  0  0  0  0
    7.0171  -18.9879   23.0507 C   0  0  2  0  0  0  0  0  0  0  0  0
    7.0803  -20.1704   22.2127 N   0  0  0  0  0  0  0  0  0  0  0  0
    7.9417  -17.9572   22.5678 C   0  0  0  0  0  0  0  0  0  0  0  0
    9.1289  -18.1662   22.2267 O   0  0  0  0  0  0  0  0  0  0  0  0
    8.6089  -14.4338   19.4807 C   0  0  0  0  0  0  0  0  0  0  0  0
    7.2823  -14.3766   20.2482 C   0  0  2  0  0  0  0  0  0  0  0  0
    6.4705  -13.2038   19.8165 C   0  0  0  0  0  0  0  0  0  0  0  0
    7.6322  -14.3854   21.6914 C   0  0  0  0  0  0  0  0  0  0  0  0
    8.4366  -15.5400   22.1621 C   0  0  2  0  0  0  0  0  0  0  0  0
    7.4826  -16.6185   22.4708 N   0  0  0  0  0  0  0  0  0  0  0  0
    9.1987  -15.1741   23.3883 C   0  0  0  0  0  0  0  0  0  0  0  0
   10.2320  -14.4877   23.2253 O   0  0  0  0  0  0  0  0  0  0  0  0
    8.5904  -11.7091   26.9383 C   0  0  0  0  0  0  0  0  0  0  0  0
    7.7188  -12.4508   26.0056 C   0  0  2  0  0  0  0  0  0  0  0  0
    6.2588  -12.0240   26.2906 C   0  0  0  0  0  0  0  0  0  0  0  0
    7.7268  -13.9190   26.0043 C   0  0  0  0  0  0  0  0  0  0  0  0
    8.9650  -14.6932   25.8514 C   0  0  2  0  0  0  0  0  0  0  0  0
    8.7869  -15.5752   24.6778 N   0  0  0  0  0  0  0  0  0  0  0  0
    9.3946  -15.5706   26.9426 C   0  0  0  0  0  0  0  0  0  0  0  0
    9.5428  -16.9571   26.8668 O   0  0  0  0  0  0  0  0  0  0  0  0
    9.6674  -15.0956   28.0864 O   0  0  0  0  0  0  0  0  0  0  0  0
  2  1  1  0
  3  5  1  0
  3  2  1  0
  3  4  1  1
  5  6  1  6
  7  5  1  0
  7  8  2  0
 10  9  1  6
 11 10  1  0
 12 10  1  0
 13 12  1  1
 13 14  1  0
 14  7  1  0
 15 13  1  0
 16 15  2  0
 18 17  1  1
 18 20  1  0
 19 18  1  0
 21 20  1  1
 21 22  1  0
 21 23  1  0
 22 15  1  0
 23 24  1  0
 25 23  2  0
M  END
$$$$
