ILL.pdb
     RDKit          3D

 25 24  0  0  1  0  0  0  0  0999 V2000
    6.1217  -20.5281   27.6941 C   0  0  0  0  0  0  0  0  0  0  0  0
    6.1350  -20.4899   26.1960 C   0  0  0  0  0  0  0  0  0  0  0  0
    6.9066  -19.2966   25.6516 C   0  0  2  0  0  0  0  0  0  0  0  0
    6.4261  -18.0739   26.3602 C   0  0  0  0  0  0  0  0  0  0  0  0
    6.7312  -19.2784   24.1728 C   0  0  2  0  0  0  0  0  0  0  0  0
    6.9183  -20.6293   23.6785 N   0  0  0  0  0  0  0  0  0  0  0  0
    7.5990  -18.3372   23.4578 C   0  0  0  0  0  0  0  0  0  0  0  0
    8.8149  -18.5253   23.2215 O   0  0  0  0  0  0  0  0  0  0  0  0
    6.6409  -12.9817   20.6589 C   0  0  0  0  0  0  0  0  0  0  0  0
    7.7459  -13.9346   21.1314 C   0  0  2  0  0  0  0  0  0  0  0  0
    8.6591  -14.2859   20.0072 C   0  0  0  0  0  0  0  0  0  0  0  0
    7.0604  -15.0957   21.7536 C   0  0  0  0  0  0  0  0  0  0  0  0
    7.9323  -16.0721   22.4523 C   0  0  2  0  0  0  0  0  0  0  0  0
    7.0455  -17.1180   22.9893 N   0  0  0  0  0  0  0  0  0  0  0  0
    8.6626  -15.4081   23.5677 C   0  0  0  0  0  0  0  0  0  0  0  0
    9.7280  -14.8220   23.2731 O   0  0  0  0  0  0  0  0  0  0  0  0
    7.0737  -11.6702   25.9987 C   0  0  0  0  0  0  0  0  0  0  0  0
    6.6484  -13.0645   26.2337 C   0  0  2  0  0  0  0  0  0  0  0  0
    5.4846  -13.0327   27.2532 C   0  0  0  0  0  0  0  0  0  0  0  0
    7.6123  -14.0505   26.7382 C   0  0  0  0  0  0  0  0  0  0  0  0
    8.7405  -14.5255   25.9273 C   0  0  2  0  0  0  0  0  0  0  0  0
    8.1874  -15.4308   24.8970 N   0  0  0  0  0  0  0  0  0  0  0  0
    9.8163  -15.2777   26.5768 C   0  0  0  0  0  0  0  0  0  0  0  0
   10.8230  -14.7367   27.3794 O   0  0  0  0  0  0  0  0  0  0  0  0
    9.9043  -16.5349   26.4355 O   0  0  0  0  0  0  0  0  0  0  0  0
  2  1  1  0
  3  5  1  0
  3  2  1  0
  3  4  1  1
  5  6  1  6
  7  5  1  0
  7  8  2  0
 10  9  1  6
 11 10  1  0
 12 10  1  0
 13 12  1  1
 13 14  1  0
 14  7  1  0
 15 13  1  0
 16 15  2  0
 18 17  1  1
 18 20  1  0
 19 18  1  0
 21 20  1  1
 21 22  1  0
 21 23  1  0
 22 15  1  0
 23 24  1  0
 25 23  2  0
M  END
$$$$
