ILL.pdb
     RDKit          3D

 25 24  0  0  1  0  0  0  0  0999 V2000
   13.0534  -20.2954   22.1566 C   0  0  0  0  0  0  0  0  0  0  0  0
   12.8001  -19.0170   21.4167 C   0  0  0  0  0  0  0  0  0  0  0  0
   11.5921  -19.1078   20.4957 C   0  0  2  0  0  0  0  0  0  0  0  0
   11.8161  -20.2413   19.5508 C   0  0  0  0  0  0  0  0  0  0  0  0
   11.4104  -17.7769   19.8524 C   0  0  2  0  0  0  0  0  0  0  0  0
   12.6079  -17.4750   19.0915 N   0  0  0  0  0  0  0  0  0  0  0  0
   11.0887  -16.6825   20.7737 C   0  0  0  0  0  0  0  0  0  0  0  0
   11.9277  -15.8908   21.2626 O   0  0  0  0  0  0  0  0  0  0  0  0
    8.5218  -13.0099   20.7293 C   0  0  0  0  0  0  0  0  0  0  0  0
    7.6845  -14.2913   20.6341 C   0  0  2  0  0  0  0  0  0  0  0  0
    6.2441  -13.9691   20.4286 C   0  0  0  0  0  0  0  0  0  0  0  0
    7.9712  -15.0719   21.8645 C   0  0  0  0  0  0  0  0  0  0  0  0
    9.3950  -15.4132   22.1053 C   0  0  2  0  0  0  0  0  0  0  0  0
    9.7366  -16.4847   21.1546 N   0  0  0  0  0  0  0  0  0  0  0  0
    9.5818  -15.8984   23.5010 C   0  0  0  0  0  0  0  0  0  0  0  0
    9.5559  -17.1371   23.6748 O   0  0  0  0  0  0  0  0  0  0  0  0
    9.9708  -15.3728   29.1288 C   0  0  0  0  0  0  0  0  0  0  0  0
   10.6862  -14.4674   28.2078 C   0  0  2  0  0  0  0  0  0  0  0  0
   10.6214  -13.0427   28.8086 C   0  0  0  0  0  0  0  0  0  0  0  0
   10.2496  -14.3466   26.8112 C   0  0  0  0  0  0  0  0  0  0  0  0
   10.0752  -15.5181   25.9432 C   0  0  2  0  0  0  0  0  0  0  0  0
    9.7794  -15.0150   24.5844 N   0  0  0  0  0  0  0  0  0  0  0  0
    9.0118  -16.4777   26.2488 C   0  0  0  0  0  0  0  0  0  0  0  0
    9.1736  -17.6904   26.9220 O   0  0  0  0  0  0  0  0  0  0  0  0
    7.8150  -16.2525   25.8948 O   0  0  0  0  0  0  0  0  0  0  0  0
  2  1  1  0
  3  5  1  0
  3  2  1  0
  3  4  1  6
  5  6  1  1
  7  5  1  0
  7  8  2  0
 10  9  1  1
 11 10  1  0
 12 10  1  0
 13 12  1  1
 13 14  1  0
 14  7  1  0
 15 13  1  0
 16 15  2  0
 18 17  1  1
 18 20  1  0
 19 18  1  0
 21 20  1  1
 21 22  1  0
 21 23  1  0
 22 15  1  0
 23 24  1  0
 25 23  2  0
M  END
$$$$
