ILL.pdb
     RDKit          3D

 25 24  0  0  1  0  0  0  0  0999 V2000
    7.6492  -21.4728   18.7851 C   0  0  0  0  0  0  0  0  0  0  0  0
    7.8040  -20.7759   20.1028 C   0  0  0  0  0  0  0  0  0  0  0  0
    8.5522  -19.4566   19.9784 C   0  0  2  0  0  0  0  0  0  0  0  0
    9.8704  -19.7324   19.3347 C   0  0  0  0  0  0  0  0  0  0  0  0
    8.6281  -18.8477   21.3353 C   0  0  2  0  0  0  0  0  0  0  0  0
    7.2882  -18.8096   21.8896 N   0  0  0  0  0  0  0  0  0  0  0  0
    9.2503  -17.5207   21.3848 C   0  0  0  0  0  0  0  0  0  0  0  0
   10.4189  -17.2657   21.0118 O   0  0  0  0  0  0  0  0  0  0  0  0
    8.8920  -13.5715   19.4310 C   0  0  0  0  0  0  0  0  0  0  0  0
    7.6443  -14.0398   20.1901 C   0  0  2  0  0  0  0  0  0  0  0  0
    6.4873  -13.1424   19.9125 C   0  0  0  0  0  0  0  0  0  0  0  0
    8.0306  -14.1213   21.6217 C   0  0  0  0  0  0  0  0  0  0  0  0
    9.1034  -15.0907   21.9553 C   0  0  2  0  0  0  0  0  0  0  0  0
    8.4952  -16.4300   21.8872 N   0  0  0  0  0  0  0  0  0  0  0  0
    9.6184  -14.8395   23.3300 C   0  0  0  0  0  0  0  0  0  0  0  0
   10.5313  -13.9914   23.4431 O   0  0  0  0  0  0  0  0  0  0  0  0
    7.0162  -13.5291   24.9500 C   0  0  0  0  0  0  0  0  0  0  0  0
    7.6067  -13.8730   26.2588 C   0  0  2  0  0  0  0  0  0  0  0  0
    7.2823  -12.7178   27.2361 C   0  0  0  0  0  0  0  0  0  0  0  0
    9.0503  -14.1158   26.3715 C   0  0  0  0  0  0  0  0  0  0  0  0
    9.6879  -15.3110   25.8050 C   0  0  2  0  0  0  0  0  0  0  0  0
    9.1107  -15.5179   24.4592 N   0  0  0  0  0  0  0  0  0  0  0  0
    9.5403  -16.5924   26.4987 C   0  0  0  0  0  0  0  0  0  0  0  0
    9.0706  -17.7793   25.9325 O   0  0  0  0  0  0  0  0  0  0  0  0
    9.8428  -16.7033   27.7253 O   0  0  0  0  0  0  0  0  0  0  0  0
  2  1  1  0
  3  5  1  0
  3  2  1  0
  3  4  1  1
  5  6  1  6
  7  5  1  0
  7  8  2  0
 10  9  1  6
 11 10  1  0
 12 10  1  0
 13 12  1  1
 13 14  1  0
 14  7  1  0
 15 13  1  0
 16 15  2  0
 18 17  1  6
 18 20  1  0
 19 18  1  0
 21 20  1  1
 21 22  1  0
 21 23  1  0
 22 15  1  0
 23 24  1  0
 25 23  2  0
M  END
$$$$
