ILL.pdb
     RDKit          3D

 25 24  0  0  1  0  0  0  0  0999 V2000
    5.7875  -11.9348   27.6136 C   0  0  0  0  0  0  0  0  0  0  0  0
    5.4334  -13.0752   26.7081 C   0  0  0  0  0  0  0  0  0  0  0  0
    6.6621  -13.7519   26.1177 C   0  0  2  0  0  0  0  0  0  0  0  0
    7.5359  -12.6928   25.5324 C   0  0  0  0  0  0  0  0  0  0  0  0
    6.1923  -14.7856   25.1541 C   0  0  2  0  0  0  0  0  0  0  0  0
    5.3963  -15.7550   25.8828 N   0  0  0  0  0  0  0  0  0  0  0  0
    7.2545  -15.4506   24.3926 C   0  0  0  0  0  0  0  0  0  0  0  0
    7.5910  -16.6492   24.5338 O   0  0  0  0  0  0  0  0  0  0  0  0
    7.4184  -14.5932   20.0485 C   0  0  0  0  0  0  0  0  0  0  0  0
    8.2163  -13.6308   20.9369 C   0  0  2  0  0  0  0  0  0  0  0  0
    8.6366  -12.4252   20.1683 C   0  0  0  0  0  0  0  0  0  0  0  0
    9.3382  -14.4193   21.5072 C   0  0  0  0  0  0  0  0  0  0  0  0
    8.9846  -15.3713   22.5890 C   0  0  2  0  0  0  0  0  0  0  0  0
    7.9677  -14.7044   23.4196 N   0  0  0  0  0  0  0  0  0  0  0  0
   10.1840  -15.6850   23.4145 C   0  0  0  0  0  0  0  0  0  0  0  0
   11.1591  -16.1956   22.8197 O   0  0  0  0  0  0  0  0  0  0  0  0
    9.9662  -13.0558   27.6906 C   0  0  0  0  0  0  0  0  0  0  0  0
   10.3120  -14.4816   27.5256 C   0  0  2  0  0  0  0  0  0  0  0  0
   10.5254  -15.0773   28.9379 C   0  0  0  0  0  0  0  0  0  0  0  0
   11.4878  -14.8646   26.7341 C   0  0  0  0  0  0  0  0  0  0  0  0
   11.4020  -15.8141   25.6173 C   0  0  2  0  0  0  0  0  0  0  0  0
   10.2320  -15.4243   24.8012 N   0  0  0  0  0  0  0  0  0  0  0  0
   11.2239  -17.2387   25.9070 C   0  0  0  0  0  0  0  0  0  0  0  0
   10.1771  -18.0416   25.4489 O   0  0  0  0  0  0  0  0  0  0  0  0
   12.0545  -17.8599   26.6368 O   0  0  0  0  0  0  0  0  0  0  0  0
  2  1  1  0
  3  5  1  0
  3  2  1  0
  3  4  1  6
  5  6  1  1
  7  5  1  0
  7  8  2  0
 10  9  1  6
 11 10  1  0
 12 10  1  0
 13 12  1  6
 13 14  1  0
 14  7  1  0
 15 13  1  0
 16 15  2  0
 18 17  1  1
 18 20  1  0
 19 18  1  0
 21 20  1  1
 21 22  1  0
 21 23  1  0
 22 15  1  0
 23 24  1  0
 25 23  2  0
M  END
$$$$
