ILL.pdb
     RDKit          3D

 25 24  0  0  1  0  0  0  0  0999 V2000
    7.8305  -19.8585   25.8622 C   0  0  0  0  0  0  0  0  0  0  0  0
    7.8226  -19.5553   24.3946 C   0  0  0  0  0  0  0  0  0  0  0  0
    6.5585  -18.8293   23.9577 C   0  0  2  0  0  0  0  0  0  0  0  0
    5.3967  -19.7310   24.2126 C   0  0  0  0  0  0  0  0  0  0  0  0
    6.7384  -18.4186   22.5375 C   0  0  2  0  0  0  0  0  0  0  0  0
    6.8854  -19.6179   21.7349 N   0  0  0  0  0  0  0  0  0  0  0  0
    7.8485  -17.4912   22.2968 C   0  0  0  0  0  0  0  0  0  0  0  0
    8.9798  -17.8260   21.8752 O   0  0  0  0  0  0  0  0  0  0  0  0
    8.3660  -14.2811   19.5196 C   0  0  0  0  0  0  0  0  0  0  0  0
    7.3696  -13.9481   20.6370 C   0  0  2  0  0  0  0  0  0  0  0  0
    6.6153  -12.7024   20.3204 C   0  0  0  0  0  0  0  0  0  0  0  0
    8.1556  -13.8887   21.8956 C   0  0  0  0  0  0  0  0  0  0  0  0
    8.7633  -15.1647   22.3477 C   0  0  2  0  0  0  0  0  0  0  0  0
    7.6526  -16.1096   22.5522 N   0  0  0  0  0  0  0  0  0  0  0  0
    9.4969  -14.9632   23.6281 C   0  0  0  0  0  0  0  0  0  0  0  0
    9.6110  -13.7847   24.0323 O   0  0  0  0  0  0  0  0  0  0  0  0
    8.7636  -14.0705   28.6732 C   0  0  0  0  0  0  0  0  0  0  0  0
    9.8711  -14.5326   27.8130 C   0  0  2  0  0  0  0  0  0  0  0  0
   10.8243  -13.3333   27.5935 C   0  0  0  0  0  0  0  0  0  0  0  0
    9.5861  -15.0823   26.4818 C   0  0  0  0  0  0  0  0  0  0  0  0
   10.5830  -15.8484   25.7232 C   0  0  2  0  0  0  0  0  0  0  0  0
   10.0421  -16.0402   24.3603 N   0  0  0  0  0  0  0  0  0  0  0  0
   10.9590  -17.1847   26.1901 C   0  0  0  0  0  0  0  0  0  0  0  0
   12.1386  -17.5145   26.8609 O   0  0  0  0  0  0  0  0  0  0  0  0
   10.1939  -18.1774   25.9965 O   0  0  0  0  0  0  0  0  0  0  0  0
  2  1  1  0
  3  5  1  0
  3  2  1  0
  3  4  1  6
  5  6  1  6
  7  5  1  0
  7  8  2  0
 10  9  1  6
 11 10  1  0
 12 10  1  0
 13 12  1  1
 13 14  1  0
 14  7  1  0
 15 13  1  0
 16 15  2  0
 18 17  1  6
 18 20  1  0
 19 18  1  0
 21 20  1  1
 21 22  1  0
 21 23  1  0
 22 15  1  0
 23 24  1  0
 25 23  2  0
M  END
$$$$
