ILL.pdb
     RDKit          3D

 25 24  0  0  1  0  0  0  0  0999 V2000
    6.6221  -20.4895   27.8652 C   0  0  0  0  0  0  0  0  0  0  0  0
    6.4563  -20.3981   26.3786 C   0  0  0  0  0  0  0  0  0  0  0  0
    7.2384  -19.2398   25.7765 C   0  0  2  0  0  0  0  0  0  0  0  0
    6.8452  -17.9932   26.4970 C   0  0  0  0  0  0  0  0  0  0  0  0
    6.9782  -19.2295   24.3102 C   0  0  2  0  0  0  0  0  0  0  0  0
    7.1815  -20.5741   23.8052 N   0  0  0  0  0  0  0  0  0  0  0  0
    7.7718  -18.2608   23.5472 C   0  0  0  0  0  0  0  0  0  0  0  0
    8.9639  -18.4297   23.2005 O   0  0  0  0  0  0  0  0  0  0  0  0
    6.5174  -13.1059   20.5397 C   0  0  0  0  0  0  0  0  0  0  0  0
    7.6698  -13.9915   21.0294 C   0  0  2  0  0  0  0  0  0  0  0  0
    8.5038  -14.4566   19.8853 C   0  0  0  0  0  0  0  0  0  0  0  0
    7.0513  -15.0830   21.8241 C   0  0  0  0  0  0  0  0  0  0  0  0
    7.9892  -15.9821   22.5410 C   0  0  2  0  0  0  0  0  0  0  0  0
    7.1690  -17.0360   23.1616 N   0  0  0  0  0  0  0  0  0  0  0  0
    8.7245  -15.2287   23.5945 C   0  0  0  0  0  0  0  0  0  0  0  0
    9.7692  -14.6387   23.2396 O   0  0  0  0  0  0  0  0  0  0  0  0
    7.7321  -11.3189   25.3870 C   0  0  0  0  0  0  0  0  0  0  0  0
    7.1269  -12.5648   25.8980 C   0  0  2  0  0  0  0  0  0  0  0  0
    5.9818  -12.1677   26.8604 C   0  0  0  0  0  0  0  0  0  0  0  0
    7.9537  -13.5397   26.6203 C   0  0  0  0  0  0  0  0  0  0  0  0
    8.9732  -14.3520   25.9445 C   0  0  2  0  0  0  0  0  0  0  0  0
    8.2762  -15.1745   24.9322 N   0  0  0  0  0  0  0  0  0  0  0  0
    9.7723  -15.2918   26.7340 C   0  0  0  0  0  0  0  0  0  0  0  0
    9.7973  -16.6788   26.5744 O   0  0  0  0  0  0  0  0  0  0  0  0
   10.5268  -14.8771   27.6653 O   0  0  0  0  0  0  0  0  0  0  0  0
  2  1  1  0
  3  5  1  0
  3  2  1  0
  3  4  1  1
  5  6  1  6
  7  5  1  0
  7  8  2  0
 10  9  1  6
 11 10  1  0
 12 10  1  0
 13 12  1  1
 13 14  1  0
 14  7  1  0
 15 13  1  0
 16 15  2  0
 18 17  1  1
 18 20  1  0
 19 18  1  0
 21 20  1  1
 21 22  1  0
 21 23  1  0
 22 15  1  0
 23 24  1  0
 25 23  2  0
M  END
$$$$
