IPD.pdb
     RDKit          3D

 24 24  0  0  1  0  0  0  0  0999 V2000
    7.2157  -12.0216   27.6107 C   0  0  0  0  0  0  0  0  0  0  0  0
    6.3317  -13.0374   26.8716 C   0  0  0  0  0  0  0  0  0  0  0  0
    7.2401  -13.8411   26.0041 C   0  0  2  0  0  0  0  0  0  0  0  0
    8.0570  -12.9505   25.1339 C   0  0  0  0  0  0  0  0  0  0  0  0
    6.5413  -14.9613   25.2677 C   0  0  2  0  0  0  0  0  0  0  0  0
    5.8515  -15.7858   26.2064 N   0  0  0  0  0  0  0  0  0  0  0  0
    7.3999  -15.6857   24.3210 C   0  0  0  0  0  0  0  0  0  0  0  0
    8.0878  -16.6327   24.7896 O   0  0  0  0  0  0  0  0  0  0  0  0
    7.5050  -15.3916   22.9232 N   0  0  0  0  0  0  0  0  0  0  0  0
    6.5649  -14.5207   22.2517 C   0  0  0  0  0  0  0  0  0  0  0  0
    6.9020  -14.5872   20.7818 C   0  0  0  0  0  0  0  0  0  0  0  0
    8.3626  -14.8961   20.8248 C   0  0  0  0  0  0  0  0  0  0  0  0
    8.4552  -15.8556   21.9885 C   0  0  1  0  0  0  0  0  0  0  0  0
    9.8693  -15.7981   22.4480 C   0  0  0  0  0  0  0  0  0  0  0  0
   10.2612  -15.1201   23.4287 O   0  0  0  0  0  0  0  0  0  0  0  0
   10.8421  -16.5470   21.7479 N   0  0  0  0  0  0  0  0  0  0  0  0
   12.1475  -16.8684   22.2617 C   0  0  1  0  0  0  0  0  0  0  0  0
   12.1209  -17.5599   23.5911 C   0  0  0  0  0  0  0  0  0  0  0  0
   13.4598  -17.8413   24.1345 C   0  0  0  0  0  0  0  0  0  0  0  0
   14.5433  -17.6438   23.5447 O   0  0  0  0  0  0  0  0  0  0  0  0
   12.8848  -17.7357   21.3057 C   0  0  0  0  0  0  0  0  0  0  0  0
   14.0129  -17.3120   20.6202 O   0  0  0  0  0  0  0  0  0  0  0  0
   13.5287  -18.3740   25.4176 O   0  0  0  0  0  0  0  0  0  0  0  0
   12.4896  -18.9095   21.0905 O   0  0  0  0  0  0  0  0  0  0  0  0
  2  1  1  0
  3  2  1  0
  3  4  1  6
  5  7  1  0
  5  3  1  0
  5  6  1  1
  7  8  2  0
  9 13  1  0
  9  7  1  0
 10  9  1  0
 11 10  1  0
 11 12  1  0
 12 13  1  0
 14 15  2  0
 13 14  1  1
 16 14  1  0
 17 16  1  0
 17 21  1  0
 17 18  1  1
 19 20  2  0
 19 18  1  0
 21 22  1  0
 23 19  1  0
 24 21  2  0
M  END
$$$$
