IPD.pdb
     RDKit          3D

 24 24  0  0  1  0  0  0  0  0999 V2000
    8.2219  -12.2208   27.1821 C   0  0  0  0  0  0  0  0  0  0  0  0
    7.7483  -13.6670   26.9737 C   0  0  0  0  0  0  0  0  0  0  0  0
    6.7237  -13.6280   25.8909 C   0  0  2  0  0  0  0  0  0  0  0  0
    5.5760  -12.7654   26.2864 C   0  0  0  0  0  0  0  0  0  0  0  0
    6.3285  -14.9950   25.3804 C   0  0  2  0  0  0  0  0  0  0  0  0
    5.8916  -15.8000   26.4748 N   0  0  0  0  0  0  0  0  0  0  0  0
    7.3309  -15.6246   24.5102 C   0  0  0  0  0  0  0  0  0  0  0  0
    7.9886  -16.5809   25.0023 O   0  0  0  0  0  0  0  0  0  0  0  0
    7.6055  -15.2295   23.1611 N   0  0  0  0  0  0  0  0  0  0  0  0
    6.7983  -14.2458   22.4725 C   0  0  0  0  0  0  0  0  0  0  0  0
    7.2892  -14.2197   21.0452 C   0  0  0  0  0  0  0  0  0  0  0  0
    8.7152  -14.6311   21.2131 C   0  0  0  0  0  0  0  0  0  0  0  0
    8.6224  -15.6830   22.2939 C   0  0  1  0  0  0  0  0  0  0  0  0
    9.9787  -15.7594   22.9009 C   0  0  0  0  0  0  0  0  0  0  0  0
   10.2260  -15.4908   24.1017 O   0  0  0  0  0  0  0  0  0  0  0  0
   11.0650  -16.1570   22.0890 N   0  0  0  0  0  0  0  0  0  0  0  0
   12.3951  -16.4120   22.5760 C   0  0  1  0  0  0  0  0  0  0  0  0
   12.4447  -17.3730   23.7250 C   0  0  0  0  0  0  0  0  0  0  0  0
   13.8013  -17.5864   24.2553 C   0  0  0  0  0  0  0  0  0  0  0  0
   14.8482  -17.0689   23.8114 O   0  0  0  0  0  0  0  0  0  0  0  0
   13.2542  -16.9493   21.4884 C   0  0  0  0  0  0  0  0  0  0  0  0
   13.0165  -18.1691   20.8738 O   0  0  0  0  0  0  0  0  0  0  0  0
   13.9333  -18.4385   25.3467 O   0  0  0  0  0  0  0  0  0  0  0  0
   14.2467  -16.2892   21.0889 O   0  0  0  0  0  0  0  0  0  0  0  0
  2  1  1  0
  3  2  1  0
  3  4  1  1
  5  7  1  0
  5  3  1  0
  5  6  1  1
  7  8  2  0
  9 13  1  0
  9  7  1  0
 10  9  1  0
 11 10  1  0
 11 12  1  0
 12 13  1  0
 14 15  2  0
 13 14  1  1
 16 14  1  0
 17 16  1  0
 17 21  1  0
 17 18  1  1
 19 20  2  0
 19 18  1  0
 21 22  1  0
 23 19  1  0
 24 21  2  0
M  END
$$$$
