IPD.pdb
     RDKit          3D

 24 24  0  0  1  0  0  0  0  0999 V2000
    6.8703  -11.8217   27.5279 C   0  0  0  0  0  0  0  0  0  0  0  0
    6.1084  -12.9696   26.8490 C   0  0  0  0  0  0  0  0  0  0  0  0
    7.0986  -13.6978   26.0047 C   0  0  2  0  0  0  0  0  0  0  0  0
    7.8059  -12.7542   25.0952 C   0  0  0  0  0  0  0  0  0  0  0  0
    6.5283  -14.9170   25.3163 C   0  0  2  0  0  0  0  0  0  0  0  0
    5.9300  -15.7725   26.2893 N   0  0  0  0  0  0  0  0  0  0  0  0
    7.4636  -15.5817   24.3988 C   0  0  0  0  0  0  0  0  0  0  0  0
    8.2347  -16.4434   24.9012 O   0  0  0  0  0  0  0  0  0  0  0  0
    7.5555  -15.3193   22.9938 N   0  0  0  0  0  0  0  0  0  0  0  0
    6.5822  -14.5016   22.3029 C   0  0  0  0  0  0  0  0  0  0  0  0
    6.9193  -14.5925   20.8342 C   0  0  0  0  0  0  0  0  0  0  0  0
    8.3906  -14.8452   20.8814 C   0  0  0  0  0  0  0  0  0  0  0  0
    8.5210  -15.7707   22.0687 C   0  0  1  0  0  0  0  0  0  0  0  0
    9.9326  -15.6485   22.5231 C   0  0  0  0  0  0  0  0  0  0  0  0
   10.3348  -14.7831   23.3382 O   0  0  0  0  0  0  0  0  0  0  0  0
   10.8908  -16.5546   22.0149 N   0  0  0  0  0  0  0  0  0  0  0  0
   12.2207  -16.7138   22.5416 C   0  0  1  0  0  0  0  0  0  0  0  0
   12.2555  -17.1209   23.9836 C   0  0  0  0  0  0  0  0  0  0  0  0
   13.6096  -17.4201   24.4777 C   0  0  0  0  0  0  0  0  0  0  0  0
   14.6390  -16.7556   24.2337 O   0  0  0  0  0  0  0  0  0  0  0  0
   12.9735  -17.7282   21.7581 C   0  0  0  0  0  0  0  0  0  0  0  0
   12.4301  -18.9483   21.3866 O   0  0  0  0  0  0  0  0  0  0  0  0
   13.7601  -18.5405   25.2881 O   0  0  0  0  0  0  0  0  0  0  0  0
   14.1569  -17.4953   21.4036 O   0  0  0  0  0  0  0  0  0  0  0  0
  2  1  1  0
  3  2  1  0
  3  4  1  6
  5  7  1  0
  5  3  1  0
  5  6  1  1
  7  8  2  0
  9 13  1  0
  9  7  1  0
 10  9  1  0
 11 10  1  0
 11 12  1  0
 12 13  1  0
 14 15  2  0
 13 14  1  1
 16 14  1  0
 17 16  1  0
 17 21  1  0
 17 18  1  1
 19 20  2  0
 19 18  1  0
 21 22  1  0
 23 19  1  0
 24 21  2  0
M  END
$$$$
