IPD.pdb
     RDKit          3D

 24 24  0  0  1  0  0  0  0  0999 V2000
    6.8642  -11.6142   27.4609 C   0  0  0  0  0  0  0  0  0  0  0  0
    6.0378  -12.6356   26.6652 C   0  0  0  0  0  0  0  0  0  0  0  0
    7.0118  -13.5636   26.0221 C   0  0  2  0  0  0  0  0  0  0  0  0
    8.0332  -12.8002   25.2529 C   0  0  0  0  0  0  0  0  0  0  0  0
    6.3594  -14.6861   25.2476 C   0  0  2  0  0  0  0  0  0  0  0  0
    5.4526  -15.3839   26.1006 N   0  0  0  0  0  0  0  0  0  0  0  0
    7.3048  -15.5412   24.5172 C   0  0  0  0  0  0  0  0  0  0  0  0
    7.8784  -16.4474   25.1800 O   0  0  0  0  0  0  0  0  0  0  0  0
    7.6127  -15.4149   23.1241 N   0  0  0  0  0  0  0  0  0  0  0  0
    6.8243  -14.5860   22.2384 C   0  0  0  0  0  0  0  0  0  0  0  0
    7.3495  -14.8362   20.8455 C   0  0  0  0  0  0  0  0  0  0  0  0
    8.7703  -15.2030   21.1243 C   0  0  0  0  0  0  0  0  0  0  0  0
    8.6494  -16.0253   22.3862 C   0  0  1  0  0  0  0  0  0  0  0  0
    9.9905  -15.9784   23.0290 C   0  0  0  0  0  0  0  0  0  0  0  0
   10.4511  -14.9707   23.6187 O   0  0  0  0  0  0  0  0  0  0  0  0
   10.8074  -17.1306   22.9813 N   0  0  0  0  0  0  0  0  0  0  0  0
   12.1471  -17.2013   23.5025 C   0  0  1  0  0  0  0  0  0  0  0  0
   12.5018  -18.5381   24.0797 C   0  0  0  0  0  0  0  0  0  0  0  0
   11.7368  -18.8777   25.2908 C   0  0  0  0  0  0  0  0  0  0  0  0
   11.4339  -18.0860   26.2086 O   0  0  0  0  0  0  0  0  0  0  0  0
   13.1369  -16.8803   22.4410 C   0  0  0  0  0  0  0  0  0  0  0  0
   14.3017  -16.1700   22.6872 O   0  0  0  0  0  0  0  0  0  0  0  0
   11.3121  -20.1950   25.4290 O   0  0  0  0  0  0  0  0  0  0  0  0
   12.9337  -17.2573   21.2591 O   0  0  0  0  0  0  0  0  0  0  0  0
  2  1  1  0
  3  2  1  0
  3  4  1  6
  5  7  1  0
  5  3  1  0
  5  6  1  1
  7  8  2  0
  9 13  1  0
  9  7  1  0
 10  9  1  0
 11 10  1  0
 11 12  1  0
 12 13  1  0
 14 15  2  0
 13 14  1  1
 16 14  1  0
 17 16  1  0
 17 21  1  0
 17 18  1  6
 19 20  2  0
 19 18  1  0
 21 22  1  0
 23 19  1  0
 24 21  2  0
M  END
$$$$
