IPD.pdb
     RDKit          3D

 24 24  0  0  1  0  0  0  0  0999 V2000
    6.7811  -11.8481   27.7975 C   0  0  0  0  0  0  0  0  0  0  0  0
    6.0517  -12.9610   27.0302 C   0  0  0  0  0  0  0  0  0  0  0  0
    7.0891  -13.6841   26.2399 C   0  0  2  0  0  0  0  0  0  0  0  0
    7.8858  -12.7279   25.4222 C   0  0  0  0  0  0  0  0  0  0  0  0
    6.5483  -14.8651   25.4662 C   0  0  2  0  0  0  0  0  0  0  0  0
    5.7983  -15.7024   26.3454 N   0  0  0  0  0  0  0  0  0  0  0  0
    7.5541  -15.5632   24.6543 C   0  0  0  0  0  0  0  0  0  0  0  0
    8.2671  -16.4179   25.2464 O   0  0  0  0  0  0  0  0  0  0  0  0
    7.7744  -15.3402   23.2567 N   0  0  0  0  0  0  0  0  0  0  0  0
    6.9187  -14.4733   22.4761 C   0  0  0  0  0  0  0  0  0  0  0  0
    7.3627  -14.6211   21.0409 C   0  0  0  0  0  0  0  0  0  0  0  0
    8.8042  -14.9738   21.2099 C   0  0  0  0  0  0  0  0  0  0  0  0
    8.7752  -15.8785   22.4198 C   0  0  1  0  0  0  0  0  0  0  0  0
   10.1518  -15.8439   22.9834 C   0  0  0  0  0  0  0  0  0  0  0  0
   10.6702  -14.8278   23.5069 O   0  0  0  0  0  0  0  0  0  0  0  0
   10.9361  -17.0185   22.9337 N   0  0  0  0  0  0  0  0  0  0  0  0
   12.2971  -17.1090   23.3928 C   0  0  1  0  0  0  0  0  0  0  0  0
   12.6669  -18.4598   23.9264 C   0  0  0  0  0  0  0  0  0  0  0  0
   11.9157  -18.8411   25.1338 C   0  0  0  0  0  0  0  0  0  0  0  0
   11.6056  -18.0768   26.0721 O   0  0  0  0  0  0  0  0  0  0  0  0
   13.2409  -16.7732   22.2945 C   0  0  0  0  0  0  0  0  0  0  0  0
   14.4889  -16.2128   22.5190 O   0  0  0  0  0  0  0  0  0  0  0  0
   11.5141  -20.1683   25.2430 O   0  0  0  0  0  0  0  0  0  0  0  0
   12.9186  -16.9967   21.1002 O   0  0  0  0  0  0  0  0  0  0  0  0
  2  1  1  0
  3  2  1  0
  3  4  1  6
  5  7  1  0
  5  3  1  0
  5  6  1  1
  7  8  2  0
  9 13  1  0
  9  7  1  0
 10  9  1  0
 11 10  1  0
 11 12  1  0
 12 13  1  0
 14 15  2  0
 13 14  1  1
 16 14  1  0
 17 16  1  0
 17 21  1  0
 17 18  1  6
 19 20  2  0
 19 18  1  0
 21 22  1  0
 23 19  1  0
 24 21  2  0
M  END
$$$$
