IPD.pdb
     RDKit          3D

 24 24  0  0  1  0  0  0  0  0999 V2000
    6.5385  -11.7661   27.5389 C   0  0  0  0  0  0  0  0  0  0  0  0
    5.8451  -12.9400   26.8314 C   0  0  0  0  0  0  0  0  0  0  0  0
    6.8877  -13.6173   26.0080 C   0  0  2  0  0  0  0  0  0  0  0  0
    7.5363  -12.6473   25.0827 C   0  0  0  0  0  0  0  0  0  0  0  0
    6.4053  -14.8861   25.3425 C   0  0  2  0  0  0  0  0  0  0  0  0
    5.7925  -15.7280   26.3183 N   0  0  0  0  0  0  0  0  0  0  0  0
    7.4142  -15.5450   24.5021 C   0  0  0  0  0  0  0  0  0  0  0  0
    8.2174  -16.3227   25.0848 O   0  0  0  0  0  0  0  0  0  0  0  0
    7.5432  -15.3648   23.0870 N   0  0  0  0  0  0  0  0  0  0  0  0
    6.5950  -14.5805   22.3260 C   0  0  0  0  0  0  0  0  0  0  0  0
    6.9674  -14.7586   20.8740 C   0  0  0  0  0  0  0  0  0  0  0  0
    8.4347  -15.0198   20.9726 C   0  0  0  0  0  0  0  0  0  0  0  0
    8.5271  -15.8763   22.2140 C   0  0  1  0  0  0  0  0  0  0  0  0
    9.9281  -15.7393   22.6961 C   0  0  0  0  0  0  0  0  0  0  0  0
   10.2602  -15.0742   23.7073 O   0  0  0  0  0  0  0  0  0  0  0  0
   10.9589  -16.3918   21.9827 N   0  0  0  0  0  0  0  0  0  0  0  0
   12.3164  -16.5160   22.4445 C   0  0  1  0  0  0  0  0  0  0  0  0
   12.4464  -17.2309   23.7553 C   0  0  0  0  0  0  0  0  0  0  0  0
   13.8391  -17.3796   24.2086 C   0  0  0  0  0  0  0  0  0  0  0  0
   14.8548  -17.0205   23.5760 O   0  0  0  0  0  0  0  0  0  0  0  0
   13.1439  -17.2371   21.4421 C   0  0  0  0  0  0  0  0  0  0  0  0
   14.2207  -16.6525   20.7935 O   0  0  0  0  0  0  0  0  0  0  0  0
   14.0464  -17.9716   25.4501 O   0  0  0  0  0  0  0  0  0  0  0  0
   12.8777  -18.4307   21.1508 O   0  0  0  0  0  0  0  0  0  0  0  0
  2  1  1  0
  3  2  1  0
  3  4  1  6
  5  7  1  0
  5  3  1  0
  5  6  1  1
  7  8  2  0
  9 13  1  0
  9  7  1  0
 10  9  1  0
 11 10  1  0
 11 12  1  0
 12 13  1  0
 14 15  2  0
 13 14  1  1
 16 14  1  0
 17 16  1  0
 17 21  1  0
 17 18  1  1
 19 20  2  0
 19 18  1  0
 21 22  1  0
 23 19  1  0
 24 21  2  0
M  END
$$$$
