IPD.pdb
     RDKit          3D

 24 24  0  0  1  0  0  0  0  0999 V2000
    6.5734  -11.7114   27.3075 C   0  0  0  0  0  0  0  0  0  0  0  0
    5.8841  -12.9615   26.7406 C   0  0  0  0  0  0  0  0  0  0  0  0
    6.8928  -13.6552   25.8892 C   0  0  2  0  0  0  0  0  0  0  0  0
    7.5010  -12.7045   24.9176 C   0  0  0  0  0  0  0  0  0  0  0  0
    6.3852  -14.9381   25.2709 C   0  0  2  0  0  0  0  0  0  0  0  0
    5.8414  -15.7724   26.2931 N   0  0  0  0  0  0  0  0  0  0  0  0
    7.3490  -15.5985   24.3802 C   0  0  0  0  0  0  0  0  0  0  0  0
    8.1781  -16.3793   24.9210 O   0  0  0  0  0  0  0  0  0  0  0  0
    7.4077  -15.4164   22.9608 N   0  0  0  0  0  0  0  0  0  0  0  0
    6.3832  -14.6933   22.2392 C   0  0  0  0  0  0  0  0  0  0  0  0
    6.7045  -14.8545   20.7730 C   0  0  0  0  0  0  0  0  0  0  0  0
    8.1876  -15.0271   20.8103 C   0  0  0  0  0  0  0  0  0  0  0  0
    8.3830  -15.8717   22.0480 C   0  0  1  0  0  0  0  0  0  0  0  0
    9.7923  -15.6493   22.4705 C   0  0  0  0  0  0  0  0  0  0  0  0
   10.1534  -14.7418   23.2587 O   0  0  0  0  0  0  0  0  0  0  0  0
   10.7969  -16.5034   21.9622 N   0  0  0  0  0  0  0  0  0  0  0  0
   12.1793  -16.4619   22.3603 C   0  0  1  0  0  0  0  0  0  0  0  0
   12.3953  -16.7087   23.8227 C   0  0  0  0  0  0  0  0  0  0  0  0
   13.8125  -16.6844   24.2203 C   0  0  0  0  0  0  0  0  0  0  0  0
   14.7814  -16.4868   23.4568 O   0  0  0  0  0  0  0  0  0  0  0  0
   12.9705  -17.4659   21.6017 C   0  0  0  0  0  0  0  0  0  0  0  0
   14.0124  -17.1202   20.7551 O   0  0  0  0  0  0  0  0  0  0  0  0
   14.1023  -16.8999   25.5635 O   0  0  0  0  0  0  0  0  0  0  0  0
   12.7043  -18.6894   21.7141 O   0  0  0  0  0  0  0  0  0  0  0  0
  2  1  1  0
  3  2  1  0
  3  4  1  6
  5  7  1  0
  5  3  1  0
  5  6  1  1
  7  8  2  0
  9 13  1  0
  9  7  1  0
 10  9  1  0
 11 10  1  0
 11 12  1  0
 12 13  1  0
 14 15  2  0
 13 14  1  1
 16 14  1  0
 17 16  1  0
 17 21  1  0
 17 18  1  1
 19 20  2  0
 19 18  1  0
 21 22  1  0
 23 19  1  0
 24 21  2  0
M  END
$$$$
