IPD.pdb
     RDKit          3D

 24 24  0  0  1  0  0  0  0  0999 V2000
    8.2741  -12.1091   26.9220 C   0  0  0  0  0  0  0  0  0  0  0  0
    7.7469  -13.5472   26.8068 C   0  0  0  0  0  0  0  0  0  0  0  0
    6.6683  -13.5245   25.7774 C   0  0  2  0  0  0  0  0  0  0  0  0
    5.5546  -12.6331   26.2051 C   0  0  0  0  0  0  0  0  0  0  0  0
    6.2284  -14.8998   25.3295 C   0  0  2  0  0  0  0  0  0  0  0  0
    5.8132  -15.6565   26.4660 N   0  0  0  0  0  0  0  0  0  0  0  0
    7.1875  -15.5805   24.4491 C   0  0  0  0  0  0  0  0  0  0  0  0
    7.8513  -16.5248   24.9562 O   0  0  0  0  0  0  0  0  0  0  0  0
    7.4142  -15.2473   23.0748 N   0  0  0  0  0  0  0  0  0  0  0  0
    6.5135  -14.3884   22.3371 C   0  0  0  0  0  0  0  0  0  0  0  0
    6.9896  -14.4065   20.9047 C   0  0  0  0  0  0  0  0  0  0  0  0
    8.4491  -14.6717   21.0792 C   0  0  0  0  0  0  0  0  0  0  0  0
    8.4630  -15.6577   22.2242 C   0  0  1  0  0  0  0  0  0  0  0  0
    9.8248  -15.5689   22.8172 C   0  0  0  0  0  0  0  0  0  0  0  0
   10.1139  -14.8529   23.8065 O   0  0  0  0  0  0  0  0  0  0  0  0
   10.8670  -16.3313   22.2427 N   0  0  0  0  0  0  0  0  0  0  0  0
   12.1460  -16.5592   22.8620 C   0  0  1  0  0  0  0  0  0  0  0  0
   12.0639  -17.2860   24.1700 C   0  0  0  0  0  0  0  0  0  0  0  0
   13.3791  -17.6162   24.7431 C   0  0  0  0  0  0  0  0  0  0  0  0
   14.4246  -16.9466   24.6043 O   0  0  0  0  0  0  0  0  0  0  0  0
   13.0319  -17.3376   21.9570 C   0  0  0  0  0  0  0  0  0  0  0  0
   14.4146  -17.2446   21.9934 O   0  0  0  0  0  0  0  0  0  0  0  0
   13.4697  -18.7751   25.5070 O   0  0  0  0  0  0  0  0  0  0  0  0
   12.5316  -18.1223   21.1118 O   0  0  0  0  0  0  0  0  0  0  0  0
  2  1  1  0
  3  2  1  0
  3  4  1  1
  5  7  1  0
  5  3  1  0
  5  6  1  1
  7  8  2  0
  9 13  1  0
  9  7  1  0
 10  9  1  0
 11 10  1  0
 11 12  1  0
 12 13  1  0
 14 15  2  0
 13 14  1  1
 16 14  1  0
 17 16  1  0
 17 21  1  0
 17 18  1  1
 19 20  2  0
 19 18  1  0
 21 22  1  0
 23 19  1  0
 24 21  2  0
M  END
$$$$
