IPD.pdb
     RDKit          3D

 24 24  0  0  1  0  0  0  0  0999 V2000
    6.7218  -11.7425   27.4535 C   0  0  0  0  0  0  0  0  0  0  0  0
    5.9932  -12.9370   26.8197 C   0  0  0  0  0  0  0  0  0  0  0  0
    7.0080  -13.6779   26.0166 C   0  0  2  0  0  0  0  0  0  0  0  0
    7.7353  -12.7500   25.1068 C   0  0  0  0  0  0  0  0  0  0  0  0
    6.4607  -14.9133   25.3386 C   0  0  2  0  0  0  0  0  0  0  0  0
    5.8048  -15.7320   26.3063 N   0  0  0  0  0  0  0  0  0  0  0  0
    7.4343  -15.6153   24.4915 C   0  0  0  0  0  0  0  0  0  0  0  0
    8.1395  -16.4984   25.0504 O   0  0  0  0  0  0  0  0  0  0  0  0
    7.6319  -15.3663   23.0949 N   0  0  0  0  0  0  0  0  0  0  0  0
    6.8456  -14.3894   22.3732 C   0  0  0  0  0  0  0  0  0  0  0  0
    7.2262  -14.5305   20.9193 C   0  0  0  0  0  0  0  0  0  0  0  0
    8.6284  -15.0339   21.0259 C   0  0  0  0  0  0  0  0  0  0  0  0
    8.5448  -15.9735   22.2064 C   0  0  1  0  0  0  0  0  0  0  0  0
    9.9350  -16.0992   22.7219 C   0  0  0  0  0  0  0  0  0  0  0  0
   10.5043  -15.2285   23.4240 O   0  0  0  0  0  0  0  0  0  0  0  0
   10.6722  -17.2640   22.4107 N   0  0  0  0  0  0  0  0  0  0  0  0
   12.0684  -17.4479   22.7080 C   0  0  1  0  0  0  0  0  0  0  0  0
   12.9125  -16.2443   22.4164 C   0  0  0  0  0  0  0  0  0  0  0  0
   14.3310  -16.4215   22.7682 C   0  0  0  0  0  0  0  0  0  0  0  0
   14.8826  -17.5059   23.0522 O   0  0  0  0  0  0  0  0  0  0  0  0
   12.2538  -17.8051   24.1390 C   0  0  0  0  0  0  0  0  0  0  0  0
   11.9434  -16.9405   25.1774 O   0  0  0  0  0  0  0  0  0  0  0  0
   15.1308  -15.2837   22.7872 O   0  0  0  0  0  0  0  0  0  0  0  0
   12.7105  -18.9343   24.4496 O   0  0  0  0  0  0  0  0  0  0  0  0
  2  1  1  0
  3  2  1  0
  3  4  1  6
  5  7  1  0
  5  3  1  0
  5  6  1  1
  7  8  2  0
  9 13  1  0
  9  7  1  0
 10  9  1  0
 11 10  1  0
 11 12  1  0
 12 13  1  0
 14 15  2  0
 13 14  1  1
 16 14  1  0
 17 16  1  0
 17 21  1  0
 17 18  1  1
 19 20  2  0
 19 18  1  0
 21 22  1  0
 23 19  1  0
 24 21  2  0
M  END
$$$$
