IPD.pdb
     RDKit          3D

 24 24  0  0  1  0  0  0  0  0999 V2000
    6.8122  -18.6016   14.6127 C   0  0  0  0  0  0  0  0  0  0  0  0
    6.7789  -19.0437   16.0833 C   0  0  0  0  0  0  0  0  0  0  0  0
    7.5179  -18.0052   16.8574 C   0  0  2  0  0  0  0  0  0  0  0  0
    8.8235  -17.6993   16.2097 C   0  0  0  0  0  0  0  0  0  0  0  0
    7.6110  -18.3032   18.3366 C   0  0  2  0  0  0  0  0  0  0  0  0
    6.2961  -18.3975   18.8833 N   0  0  0  0  0  0  0  0  0  0  0  0
    8.5251  -17.4186   19.0716 C   0  0  0  0  0  0  0  0  0  0  0  0
    9.7349  -17.4325   18.7170 O   0  0  0  0  0  0  0  0  0  0  0  0
    8.1384  -16.5553   20.1470 N   0  0  0  0  0  0  0  0  0  0  0  0
    6.7512  -16.3533   20.5050 C   0  0  0  0  0  0  0  0  0  0  0  0
    6.7390  -15.2705   21.5568 C   0  0  0  0  0  0  0  0  0  0  0  0
    8.0800  -15.4535   22.1884 C   0  0  0  0  0  0  0  0  0  0  0  0
    8.9540  -15.7816   21.0002 C   0  0  1  0  0  0  0  0  0  0  0  0
   10.1380  -16.4929   21.5536 C   0  0  0  0  0  0  0  0  0  0  0  0
   10.8352  -17.3075   20.9013 O   0  0  0  0  0  0  0  0  0  0  0  0
   10.5130  -16.2471   22.8939 N   0  0  0  0  0  0  0  0  0  0  0  0
   11.7612  -16.6602   23.4791 C   0  0  1  0  0  0  0  0  0  0  0  0
   12.9630  -16.0132   22.8601 C   0  0  0  0  0  0  0  0  0  0  0  0
   14.2359  -16.4312   23.4701 C   0  0  0  0  0  0  0  0  0  0  0  0
   14.9721  -15.7178   24.1842 O   0  0  0  0  0  0  0  0  0  0  0  0
   11.7773  -16.3639   24.9357 C   0  0  0  0  0  0  0  0  0  0  0  0
   11.1829  -15.2366   25.4816 O   0  0  0  0  0  0  0  0  0  0  0  0
   14.6595  -17.7347   23.2330 O   0  0  0  0  0  0  0  0  0  0  0  0
   12.3480  -17.1534   25.7302 O   0  0  0  0  0  0  0  0  0  0  0  0
  2  1  1  0
  3  2  1  0
  3  4  1  6
  5  7  1  0
  5  3  1  0
  5  6  1  1
  7  8  2  0
  9 13  1  0
  9  7  1  0
 10  9  1  0
 11 10  1  0
 11 12  1  0
 12 13  1  0
 14 15  2  0
 13 14  1  1
 16 14  1  0
 17 16  1  0
 17 21  1  0
 17 18  1  6
 19 20  2  0
 19 18  1  0
 21 22  1  0
 23 19  1  0
 24 21  2  0
M  END
$$$$
