IPD.pdb
     RDKit          3D

 24 24  0  0  1  0  0  0  0  0999 V2000
    6.2225  -11.5873   26.5170 C   0  0  0  0  0  0  0  0  0  0  0  0
    6.3588  -12.9671   27.1781 C   0  0  0  0  0  0  0  0  0  0  0  0
    7.2298  -13.7835   26.2846 C   0  0  2  0  0  0  0  0  0  0  0  0
    8.1086  -12.9049   25.4641 C   0  0  0  0  0  0  0  0  0  0  0  0
    6.4763  -14.8266   25.4911 C   0  0  2  0  0  0  0  0  0  0  0  0
    5.7019  -15.6294   26.3814 N   0  0  0  0  0  0  0  0  0  0  0  0
    7.3099  -15.5799   24.5445 C   0  0  0  0  0  0  0  0  0  0  0  0
    7.9789  -16.5386   25.0165 O   0  0  0  0  0  0  0  0  0  0  0  0
    7.4109  -15.3011   23.1432 N   0  0  0  0  0  0  0  0  0  0  0  0
    6.4893  -14.4103   22.4720 C   0  0  0  0  0  0  0  0  0  0  0  0
    6.8114  -14.4990   20.9999 C   0  0  0  0  0  0  0  0  0  0  0  0
    8.2633  -14.8481   21.0331 C   0  0  0  0  0  0  0  0  0  0  0  0
    8.3395  -15.7995   22.2046 C   0  0  1  0  0  0  0  0  0  0  0  0
    9.7586  -15.7773   22.6514 C   0  0  0  0  0  0  0  0  0  0  0  0
   10.1659  -15.1564   23.6633 O   0  0  0  0  0  0  0  0  0  0  0  0
   10.7184  -16.4939   21.9014 N   0  0  0  0  0  0  0  0  0  0  0  0
   12.0405  -16.8181   22.3685 C   0  0  1  0  0  0  0  0  0  0  0  0
   12.0549  -17.6292   23.6286 C   0  0  0  0  0  0  0  0  0  0  0  0
   13.4101  -17.9472   24.1080 C   0  0  0  0  0  0  0  0  0  0  0  0
   14.4767  -17.6630   23.5228 O   0  0  0  0  0  0  0  0  0  0  0  0
   12.7911  -17.5693   21.3282 C   0  0  0  0  0  0  0  0  0  0  0  0
   13.9465  -17.0841   20.7353 O   0  0  0  0  0  0  0  0  0  0  0  0
   13.5164  -18.6236   25.3187 O   0  0  0  0  0  0  0  0  0  0  0  0
   12.3823  -18.6966   20.9509 O   0  0  0  0  0  0  0  0  0  0  0  0
  2  1  1  0
  3  2  1  0
  3  4  1  6
  5  7  1  0
  5  3  1  0
  5  6  1  1
  7  8  2  0
  9 13  1  0
  9  7  1  0
 10  9  1  0
 11 10  1  0
 11 12  1  0
 12 13  1  0
 14 15  2  0
 13 14  1  1
 16 14  1  0
 17 16  1  0
 17 21  1  0
 17 18  1  1
 19 20  2  0
 19 18  1  0
 21 22  1  0
 23 19  1  0
 24 21  2  0
M  END
$$$$
