IPD.pdb
     RDKit          3D

 24 24  0  0  1  0  0  0  0  0999 V2000
    6.8362  -11.6841   27.3719 C   0  0  0  0  0  0  0  0  0  0  0  0
    6.1354  -12.9182   26.7843 C   0  0  0  0  0  0  0  0  0  0  0  0
    7.1465  -13.6234   25.9454 C   0  0  2  0  0  0  0  0  0  0  0  0
    7.7713  -12.6817   24.9755 C   0  0  0  0  0  0  0  0  0  0  0  0
    6.6348  -14.9049   25.3278 C   0  0  2  0  0  0  0  0  0  0  0  0
    6.0930  -15.7391   26.3512 N   0  0  0  0  0  0  0  0  0  0  0  0
    7.5945  -15.5662   24.4334 C   0  0  0  0  0  0  0  0  0  0  0  0
    8.4137  -16.3611   24.9687 O   0  0  0  0  0  0  0  0  0  0  0  0
    7.6594  -15.3705   23.0160 N   0  0  0  0  0  0  0  0  0  0  0  0
    6.6416  -14.6345   22.2979 C   0  0  0  0  0  0  0  0  0  0  0  0
    6.9675  -14.7830   20.8314 C   0  0  0  0  0  0  0  0  0  0  0  0
    8.4495  -14.9642   20.8724 C   0  0  0  0  0  0  0  0  0  0  0  0
    8.6356  -15.8221   22.1023 C   0  0  1  0  0  0  0  0  0  0  0  0
   10.0445  -15.6118   22.5323 C   0  0  0  0  0  0  0  0  0  0  0  0
   10.4016  -14.7433   23.3650 O   0  0  0  0  0  0  0  0  0  0  0  0
   11.0535  -16.4317   21.9783 N   0  0  0  0  0  0  0  0  0  0  0  0
   12.4477  -16.3552   22.3270 C   0  0  1  0  0  0  0  0  0  0  0  0
   12.7186  -16.5640   23.7862 C   0  0  0  0  0  0  0  0  0  0  0  0
   14.1465  -16.4872   24.1362 C   0  0  0  0  0  0  0  0  0  0  0  0
   15.0773  -16.2143   23.3489 O   0  0  0  0  0  0  0  0  0  0  0  0
   13.2317  -17.3617   21.5641 C   0  0  0  0  0  0  0  0  0  0  0  0
   12.9976  -18.7251   21.6548 O   0  0  0  0  0  0  0  0  0  0  0  0
   14.4938  -16.7401   25.4591 O   0  0  0  0  0  0  0  0  0  0  0  0
   14.1534  -16.9876   20.7955 O   0  0  0  0  0  0  0  0  0  0  0  0
  2  1  1  0
  3  2  1  0
  3  4  1  6
  5  7  1  0
  5  3  1  0
  5  6  1  1
  7  8  2  0
  9 13  1  0
  9  7  1  0
 10  9  1  0
 11 10  1  0
 11 12  1  0
 12 13  1  0
 14 15  2  0
 13 14  1  1
 16 14  1  0
 17 16  1  0
 17 21  1  0
 17 18  1  1
 19 20  2  0
 19 18  1  0
 21 22  1  0
 23 19  1  0
 24 21  2  0
M  END
$$$$
