IPD.pdb
     RDKit          3D

 24 24  0  0  1  0  0  0  0  0999 V2000
    8.2975  -12.0862   27.1470 C   0  0  0  0  0  0  0  0  0  0  0  0
    7.7784  -13.5271   27.0303 C   0  0  0  0  0  0  0  0  0  0  0  0
    6.7349  -13.5192   25.9651 C   0  0  2  0  0  0  0  0  0  0  0  0
    5.5921  -12.6488   26.3576 C   0  0  0  0  0  0  0  0  0  0  0  0
    6.3343  -14.9002   25.4982 C   0  0  2  0  0  0  0  0  0  0  0  0
    5.8906  -15.6670   26.6171 N   0  0  0  0  0  0  0  0  0  0  0  0
    7.3358  -15.5625   24.6517 C   0  0  0  0  0  0  0  0  0  0  0  0
    7.9929  -16.5006   25.1788 O   0  0  0  0  0  0  0  0  0  0  0  0
    7.6104  -15.2181   23.2888 N   0  0  0  0  0  0  0  0  0  0  0  0
    6.7572  -14.3215   22.5395 C   0  0  0  0  0  0  0  0  0  0  0  0
    7.2717  -14.3353   21.1203 C   0  0  0  0  0  0  0  0  0  0  0  0
    8.7169  -14.6485   21.3303 C   0  0  0  0  0  0  0  0  0  0  0  0
    8.6688  -15.6497   22.4611 C   0  0  1  0  0  0  0  0  0  0  0  0
   10.0160  -15.6117   23.0918 C   0  0  0  0  0  0  0  0  0  0  0  0
   10.2412  -15.1532   24.2382 O   0  0  0  0  0  0  0  0  0  0  0  0
   11.1192  -16.1191   22.3688 N   0  0  0  0  0  0  0  0  0  0  0  0
   12.3861  -16.4688   22.9554 C   0  0  1  0  0  0  0  0  0  0  0  0
   12.2856  -17.4902   24.0475 C   0  0  0  0  0  0  0  0  0  0  0  0
   13.5885  -17.8746   24.6150 C   0  0  0  0  0  0  0  0  0  0  0  0
   14.2508  -18.8867   24.3023 O   0  0  0  0  0  0  0  0  0  0  0  0
   13.3137  -16.9923   21.9186 C   0  0  0  0  0  0  0  0  0  0  0  0
   12.9647  -18.0042   21.0375 O   0  0  0  0  0  0  0  0  0  0  0  0
   14.1333  -17.0398   25.5851 O   0  0  0  0  0  0  0  0  0  0  0  0
   14.4717  -16.5145   21.8140 O   0  0  0  0  0  0  0  0  0  0  0  0
  2  1  1  0
  3  2  1  0
  3  4  1  1
  5  7  1  0
  5  3  1  0
  5  6  1  1
  7  8  2  0
  9 13  1  0
  9  7  1  0
 10  9  1  0
 11 10  1  0
 11 12  1  0
 12 13  1  0
 14 15  2  0
 13 14  1  1
 16 14  1  0
 17 16  1  0
 17 21  1  0
 17 18  1  1
 19 20  2  0
 19 18  1  0
 21 22  1  0
 23 19  1  0
 24 21  2  0
M  END
$$$$
