IPD.pdb
     RDKit          3D

 24 24  0  0  1  0  0  0  0  0999 V2000
    6.9887  -12.0384   27.5797 C   0  0  0  0  0  0  0  0  0  0  0  0
    6.1713  -13.1003   26.8290 C   0  0  0  0  0  0  0  0  0  0  0  0
    7.1296  -13.8369   25.9556 C   0  0  2  0  0  0  0  0  0  0  0  0
    7.8496  -12.8938   25.0557 C   0  0  0  0  0  0  0  0  0  0  0  0
    6.5170  -15.0256   25.2505 C   0  0  2  0  0  0  0  0  0  0  0  0
    5.9222  -15.8925   26.2156 N   0  0  0  0  0  0  0  0  0  0  0  0
    7.4162  -15.6868   24.2952 C   0  0  0  0  0  0  0  0  0  0  0  0
    8.1832  -16.5735   24.7588 O   0  0  0  0  0  0  0  0  0  0  0  0
    7.4777  -15.3949   22.8943 N   0  0  0  0  0  0  0  0  0  0  0  0
    6.5262  -14.5128   22.2541 C   0  0  0  0  0  0  0  0  0  0  0  0
    6.8126  -14.5844   20.7736 C   0  0  0  0  0  0  0  0  0  0  0  0
    8.2699  -14.9114   20.7676 C   0  0  0  0  0  0  0  0  0  0  0  0
    8.3899  -15.8712   21.9285 C   0  0  1  0  0  0  0  0  0  0  0  0
    9.8193  -15.8309   22.3399 C   0  0  0  0  0  0  0  0  0  0  0  0
   10.2645  -15.1015   23.2591 O   0  0  0  0  0  0  0  0  0  0  0  0
   10.7443  -16.6586   21.6641 N   0  0  0  0  0  0  0  0  0  0  0  0
   12.0888  -16.9115   22.1111 C   0  0  1  0  0  0  0  0  0  0  0  0
   12.1660  -17.5549   23.4625 C   0  0  0  0  0  0  0  0  0  0  0  0
   13.1979  -16.9699   24.3344 C   0  0  0  0  0  0  0  0  0  0  0  0
   13.9731  -16.0402   24.0254 O   0  0  0  0  0  0  0  0  0  0  0  0
   12.8041  -17.7843   21.1436 C   0  0  0  0  0  0  0  0  0  0  0  0
   12.3312  -19.0299   20.7604 O   0  0  0  0  0  0  0  0  0  0  0  0
   13.3239  -17.4961   25.6158 O   0  0  0  0  0  0  0  0  0  0  0  0
   13.8879  -17.4007   20.6351 O   0  0  0  0  0  0  0  0  0  0  0  0
  2  1  1  0
  3  2  1  0
  3  4  1  6
  5  7  1  0
  5  3  1  0
  5  6  1  1
  7  8  2  0
  9 13  1  0
  9  7  1  0
 10  9  1  0
 11 10  1  0
 11 12  1  0
 12 13  1  0
 14 15  2  0
 13 14  1  1
 16 14  1  0
 17 16  1  0
 17 21  1  0
 17 18  1  1
 19 20  2  0
 19 18  1  0
 21 22  1  0
 23 19  1  0
 24 21  2  0
M  END
$$$$
