NVW.pdb
     RDKit          3D

 30 31  0  0  1  0  0  0  0  0999 V2000
   29.7311  -19.2519  -16.7623 N   0  0  0  0  0  0  0  0  0  0  0  0
   28.4354  -18.8609  -17.1261 C   0  0  0  0  0  0  0  0  0  0  0  0
   28.2546  -18.0059  -18.0081 O   0  0  0  0  0  0  0  0  0  0  0  0
   27.2537  -19.4555  -16.4694 C   0  0  0  0  0  0  0  0  0  0  0  0
   27.7662  -20.4867  -15.4834 C   0  0  2  0  0  0  0  0  0  0  0  0
   28.4012  -21.5942  -16.1430 N   0  0  0  0  0  0  0  0  0  0  0  0
   26.6991  -20.9692  -14.5833 C   0  0  0  0  0  0  0  0  0  0  0  0
   25.9716  -21.9677  -14.8700 O   0  0  0  0  0  0  0  0  0  0  0  0
   24.3529  -20.9562  -10.1677 C   0  0  0  0  0  0  0  0  0  0  0  0
   25.5237  -20.4984  -11.0099 C   0  0  1  0  0  0  0  0  0  0  0  0
   26.8502  -20.8692  -10.3944 C   0  0  0  0  0  0  0  0  0  0  0  0
   25.4073  -20.8707  -12.4428 C   0  0  2  0  0  0  0  0  0  0  0  0
   26.3865  -20.3817  -13.3377 N   0  0  0  0  0  0  0  0  0  0  0  0
   24.0612  -20.4071  -12.9158 C   0  0  0  0  0  0  0  0  0  0  0  0
   23.7598  -19.1781  -12.9015 O   0  0  0  0  0  0  0  0  0  0  0  0
   23.1202  -21.3513  -13.3826 N   0  0  0  0  0  0  0  0  0  0  0  0
   21.8169  -20.8974  -13.8662 C   0  0  1  0  0  0  0  0  0  0  0  0
   21.6847  -21.1496  -15.3321 C   0  0  0  0  0  0  0  0  0  0  0  0
   20.4208  -20.6407  -15.8684 C   0  0  0  0  0  0  0  0  0  0  0  0
   20.1395  -19.3098  -16.1698 C   0  0  0  0  0  0  0  0  0  0  0  0
   18.8765  -19.2001  -16.6013 N   0  0  0  0  0  0  0  0  0  0  0  0
   18.2947  -20.4056  -16.6036 C   0  0  0  0  0  0  0  0  0  0  0  0
   17.0298  -20.8112  -16.9753 C   0  0  0  0  0  0  0  0  0  0  0  0
   16.6448  -22.1295  -16.9179 C   0  0  0  0  0  0  0  0  0  0  0  0
   17.6009  -23.0231  -16.4658 C   0  0  0  0  0  0  0  0  0  0  0  0
   18.8684  -22.6381  -16.0895 C   0  0  0  0  0  0  0  0  0  0  0  0
   19.2336  -21.3081  -16.1543 C   0  0  0  0  0  0  0  0  0  0  0  0
   20.7241  -21.3900  -13.0399 C   0  0  0  0  0  0  0  0  0  0  0  0
   20.5973  -22.5472  -12.5919 O   0  0  0  0  0  0  0  0  0  0  0  0
   19.6945  -20.4928  -12.6970 O   0  0  0  0  0  0  0  0  0  0  0  0
  2  4  1  0
  2  1  1  0
  3  2  2  0
  5  4  1  0
  5  6  1  6
  7  5  1  0
  8  7  2  0
 10  9  1  1
 11 10  1  0
 12 10  1  0
 12 13  1  6
 13  7  1  0
 14 12  1  0
 15 14  2  0
 16 14  1  0
 17 16  1  0
 17 18  1  6
 19 18  1  0
 20 19  2  0
 21 22  1  0
 21 20  1  0
 22 27  2  0
 23 22  1  0
 23 24  2  0
 24 25  1  0
 25 26  2  0
 27 19  1  0
 27 26  1  0
 28 17  1  0
 28 30  1  0
 29 28  2  0
M  END
$$$$
