NVW.pdb
     RDKit          3D

 30 31  0  0  1  0  0  0  0  0999 V2000
   27.9070  -22.9272  -20.3347 N   0  0  0  0  0  0  0  0  0  0  0  0
   27.9000  -23.3456  -18.9972 C   0  0  0  0  0  0  0  0  0  0  0  0
   27.5515  -24.4983  -18.6946 O   0  0  0  0  0  0  0  0  0  0  0  0
   28.3062  -22.4261  -17.9151 C   0  0  0  0  0  0  0  0  0  0  0  0
   27.3889  -22.6935  -16.7382 C   0  0  2  0  0  0  0  0  0  0  0  0
   26.0030  -22.5601  -17.0937 N   0  0  0  0  0  0  0  0  0  0  0  0
   27.7071  -21.8309  -15.5821 C   0  0  0  0  0  0  0  0  0  0  0  0
   28.8906  -21.6887  -15.1490 O   0  0  0  0  0  0  0  0  0  0  0  0
   26.9039  -17.8797  -12.8134 C   0  0  0  0  0  0  0  0  0  0  0  0
   26.6575  -18.7508  -14.0259 C   0  0  1  0  0  0  0  0  0  0  0  0
   27.2065  -18.1386  -15.2906 C   0  0  0  0  0  0  0  0  0  0  0  0
   27.0534  -20.1686  -13.8301 C   0  0  2  0  0  0  0  0  0  0  0  0
   26.7473  -21.0915  -14.8565 N   0  0  0  0  0  0  0  0  0  0  0  0
   26.4065  -20.6409  -12.5616 C   0  0  0  0  0  0  0  0  0  0  0  0
   25.1688  -20.9022  -12.5264 O   0  0  0  0  0  0  0  0  0  0  0  0
   27.1862  -20.7963  -11.3942 N   0  0  0  0  0  0  0  0  0  0  0  0
   26.5415  -21.1734  -10.1370 C   0  0  1  0  0  0  0  0  0  0  0  0
   27.5650  -21.4558   -9.0869 C   0  0  0  0  0  0  0  0  0  0  0  0
   27.4778  -20.5194   -7.9646 C   0  0  0  0  0  0  0  0  0  0  0  0
   26.6152  -19.4288   -7.8772 C   0  0  0  0  0  0  0  0  0  0  0  0
   26.8341  -18.7683   -6.7330 N   0  0  0  0  0  0  0  0  0  0  0  0
   27.8106  -19.3716   -6.0442 C   0  0  0  0  0  0  0  0  0  0  0  0
   28.3757  -19.0887   -4.8181 C   0  0  0  0  0  0  0  0  0  0  0  0
   29.3697  -19.8708   -4.2800 C   0  0  0  0  0  0  0  0  0  0  0  0
   29.7683  -20.9567   -5.0410 C   0  0  0  0  0  0  0  0  0  0  0  0
   29.2172  -21.2555   -6.2672 C   0  0  0  0  0  0  0  0  0  0  0  0
   28.2203  -20.4556   -6.7892 C   0  0  0  0  0  0  0  0  0  0  0  0
   25.4901  -20.2398   -9.7589 C   0  0  0  0  0  0  0  0  0  0  0  0
   24.4154  -20.5237   -9.1930 O   0  0  0  0  0  0  0  0  0  0  0  0
   25.6788  -18.8749  -10.0485 O   0  0  0  0  0  0  0  0  0  0  0  0
  2  4  1  0
  2  1  1  0
  3  2  2  0
  5  4  1  0
  5  6  1  6
  7  5  1  0
  8  7  2  0
 10  9  1  1
 11 10  1  0
 12 10  1  0
 12 13  1  6
 13  7  1  0
 14 12  1  0
 15 14  2  0
 16 14  1  0
 17 16  1  0
 17 18  1  1
 19 18  1  0
 20 19  2  0
 21 22  1  0
 21 20  1  0
 22 27  2  0
 23 22  1  0
 23 24  2  0
 24 25  1  0
 25 26  2  0
 27 19  1  0
 27 26  1  0
 28 17  1  0
 28 30  1  0
 29 28  2  0
M  END
$$$$
