NVW.pdb
     RDKit          3D

 30 31  0  0  1  0  0  0  0  0999 V2000
   25.9154  -22.8461  -19.0264 N   0  0  0  0  0  0  0  0  0  0  0  0
   25.6965  -23.7051  -17.9409 C   0  0  0  0  0  0  0  0  0  0  0  0
   24.8696  -24.6282  -18.0189 O   0  0  0  0  0  0  0  0  0  0  0  0
   26.4431  -23.5335  -16.6783 C   0  0  0  0  0  0  0  0  0  0  0  0
   27.3221  -22.3098  -16.8455 C   0  0  2  0  0  0  0  0  0  0  0  0
   28.4600  -22.5737  -17.6824 N   0  0  0  0  0  0  0  0  0  0  0  0
   27.7579  -21.7603  -15.5455 C   0  0  0  0  0  0  0  0  0  0  0  0
   28.9324  -21.9303  -15.0982 O   0  0  0  0  0  0  0  0  0  0  0  0
   28.6724  -18.4514  -14.2519 C   0  0  0  0  0  0  0  0  0  0  0  0
   27.5254  -18.9597  -13.4059 C   0  0  1  0  0  0  0  0  0  0  0  0
   26.2509  -18.1901  -13.6490 C   0  0  0  0  0  0  0  0  0  0  0  0
   27.3513  -20.4334  -13.4637 C   0  0  2  0  0  0  0  0  0  0  0  0
   26.9300  -21.0050  -14.6862 N   0  0  0  0  0  0  0  0  0  0  0  0
   26.3605  -20.8072  -12.4010 C   0  0  0  0  0  0  0  0  0  0  0  0
   25.1388  -20.9723  -12.6866 O   0  0  0  0  0  0  0  0  0  0  0  0
   26.7950  -20.9772  -11.0679 N   0  0  0  0  0  0  0  0  0  0  0  0
   25.8211  -21.2891  -10.0225 C   0  0  1  0  0  0  0  0  0  0  0  0
   26.5145  -21.7090   -8.7683 C   0  0  0  0  0  0  0  0  0  0  0  0
   26.9488  -20.5629   -7.9671 C   0  0  0  0  0  0  0  0  0  0  0  0
   26.5735  -19.2366   -8.1699 C   0  0  0  0  0  0  0  0  0  0  0  0
   27.1900  -18.4498   -7.2787 N   0  0  0  0  0  0  0  0  0  0  0  0
   27.9662  -19.1939   -6.4816 C   0  0  0  0  0  0  0  0  0  0  0  0
   28.7732  -18.8566   -5.4149 C   0  0  0  0  0  0  0  0  0  0  0  0
   29.4769  -19.8038   -4.7100 C   0  0  0  0  0  0  0  0  0  0  0  0
   29.3272  -21.1133   -5.1342 C   0  0  0  0  0  0  0  0  0  0  0  0
   28.5273  -21.4702   -6.1969 C   0  0  0  0  0  0  0  0  0  0  0  0
   27.8299  -20.5021   -6.8915 C   0  0  0  0  0  0  0  0  0  0  0  0
   24.8244  -20.2386   -9.8713 C   0  0  0  0  0  0  0  0  0  0  0  0
   24.9890  -19.0230  -10.0969 O   0  0  0  0  0  0  0  0  0  0  0  0
   23.5384  -20.6026   -9.4282 O   0  0  0  0  0  0  0  0  0  0  0  0
  2  4  1  0
  2  1  1  0
  3  2  2  0
  5  4  1  0
  5  6  1  6
  7  5  1  0
  8  7  2  0
 10  9  1  6
 11 10  1  0
 12 10  1  0
 12 13  1  6
 13  7  1  0
 14 12  1  0
 15 14  2  0
 16 14  1  0
 17 16  1  0
 17 18  1  1
 19 18  1  0
 20 19  2  0
 21 22  1  0
 21 20  1  0
 22 27  2  0
 23 22  1  0
 23 24  2  0
 24 25  1  0
 25 26  2  0
 27 19  1  0
 27 26  1  0
 28 17  1  0
 28 30  1  0
 29 28  2  0
M  END
$$$$
