NVW.pdb
     RDKit          3D

 30 31  0  0  1  0  0  0  0  0999 V2000
   29.3310  -26.7253  -17.4320 N   0  0  0  0  0  0  0  0  0  0  0  0
   29.1448  -25.3662  -17.7189 C   0  0  0  0  0  0  0  0  0  0  0  0
   28.6157  -25.0090  -18.7839 O   0  0  0  0  0  0  0  0  0  0  0  0
   29.5735  -24.3258  -16.7622 C   0  0  0  0  0  0  0  0  0  0  0  0
   28.8884  -23.0371  -17.1721 C   0  0  2  0  0  0  0  0  0  0  0  0
   29.5837  -22.3729  -18.2399 N   0  0  0  0  0  0  0  0  0  0  0  0
   28.7075  -22.1193  -16.0289 C   0  0  0  0  0  0  0  0  0  0  0  0
   29.5809  -21.9919  -15.1182 O   0  0  0  0  0  0  0  0  0  0  0  0
   26.7657  -18.0752  -13.9987 C   0  0  0  0  0  0  0  0  0  0  0  0
   27.1703  -18.9464  -15.1679 C   0  0  1  0  0  0  0  0  0  0  0  0
   28.2779  -18.3287  -15.9847 C   0  0  0  0  0  0  0  0  0  0  0  0
   27.4232  -20.3616  -14.7955 C   0  0  2  0  0  0  0  0  0  0  0  0
   27.5686  -21.3066  -15.8370 N   0  0  0  0  0  0  0  0  0  0  0  0
   26.2908  -20.8000  -13.9145 C   0  0  0  0  0  0  0  0  0  0  0  0
   25.1450  -21.0279  -14.4010 O   0  0  0  0  0  0  0  0  0  0  0  0
   26.5049  -20.9606  -12.5277 N   0  0  0  0  0  0  0  0  0  0  0  0
   25.4185  -21.4472  -11.6782 C   0  0  1  0  0  0  0  0  0  0  0  0
   25.9640  -22.0818  -10.4414 C   0  0  0  0  0  0  0  0  0  0  0  0
   26.3937  -21.0891   -9.4546 C   0  0  0  0  0  0  0  0  0  0  0  0
   25.6487  -19.9944   -9.0210 C   0  0  0  0  0  0  0  0  0  0  0  0
   26.3651  -19.2764   -8.1465 N   0  0  0  0  0  0  0  0  0  0  0  0
   27.5645  -19.8447   -7.9724 C   0  0  0  0  0  0  0  0  0  0  0  0
   28.6336  -19.5000   -7.1717 C   0  0  0  0  0  0  0  0  0  0  0  0
   29.7817  -20.2546   -7.1305 C   0  0  0  0  0  0  0  0  0  0  0  0
   29.8002  -21.3785   -7.9389 C   0  0  0  0  0  0  0  0  0  0  0  0
   28.7439  -21.7391   -8.7456 C   0  0  0  0  0  0  0  0  0  0  0  0
   27.6003  -20.9659   -8.7722 C   0  0  0  0  0  0  0  0  0  0  0  0
   24.3921  -20.4361  -11.4688 C   0  0  0  0  0  0  0  0  0  0  0  0
   24.5611  -19.2003  -11.4553 O   0  0  0  0  0  0  0  0  0  0  0  0
   23.0684  -20.8676  -11.2582 O   0  0  0  0  0  0  0  0  0  0  0  0
  2  4  1  0
  2  1  1  0
  3  2  2  0
  5  4  1  0
  5  6  1  6
  7  5  1  0
  8  7  2  0
 10  9  1  1
 11 10  1  0
 12 10  1  0
 12 13  1  6
 13  7  1  0
 14 12  1  0
 15 14  2  0
 16 14  1  0
 17 16  1  0
 17 18  1  1
 19 18  1  0
 20 19  2  0
 21 22  1  0
 21 20  1  0
 22 27  2  0
 23 22  1  0
 23 24  2  0
 24 25  1  0
 25 26  2  0
 27 19  1  0
 27 26  1  0
 28 17  1  0
 28 30  1  0
 29 28  2  0
M  END
$$$$
