NVW.pdb
     RDKit          3D

 30 31  0  0  1  0  0  0  0  0999 V2000
   29.3848  -24.0623  -19.5170 N   0  0  0  0  0  0  0  0  0  0  0  0
   30.4132  -24.1584  -18.5698 C   0  0  0  0  0  0  0  0  0  0  0  0
   31.2956  -25.0254  -18.6768 O   0  0  0  0  0  0  0  0  0  0  0  0
   30.4726  -23.2316  -17.4214 C   0  0  0  0  0  0  0  0  0  0  0  0
   29.2116  -22.3914  -17.4639 C   0  0  2  0  0  0  0  0  0  0  0  0
   29.2433  -21.4250  -18.5269 N   0  0  0  0  0  0  0  0  0  0  0  0
   28.9475  -21.7248  -16.1725 C   0  0  0  0  0  0  0  0  0  0  0  0
   29.7792  -21.7494  -15.2154 O   0  0  0  0  0  0  0  0  0  0  0  0
   26.8927  -17.9575  -13.7846 C   0  0  0  0  0  0  0  0  0  0  0  0
   27.3606  -18.7139  -15.0088 C   0  0  1  0  0  0  0  0  0  0  0  0
   28.5036  -18.0200  -15.7072 C   0  0  0  0  0  0  0  0  0  0  0  0
   27.6038  -20.1574  -14.7590 C   0  0  2  0  0  0  0  0  0  0  0  0
   27.7679  -21.0065  -15.8775 N   0  0  0  0  0  0  0  0  0  0  0  0
   26.4536  -20.6684  -13.9425 C   0  0  0  0  0  0  0  0  0  0  0  0
   25.3547  -20.9702  -14.4928 O   0  0  0  0  0  0  0  0  0  0  0  0
   26.5980  -20.8150  -12.5452 N   0  0  0  0  0  0  0  0  0  0  0  0
   25.5489  -21.4809  -11.7741 C   0  0  1  0  0  0  0  0  0  0  0  0
   26.1105  -22.0646  -10.5196 C   0  0  0  0  0  0  0  0  0  0  0  0
   26.2770  -21.0587   -9.4686 C   0  0  0  0  0  0  0  0  0  0  0  0
   25.3112  -20.1437   -9.0549 C   0  0  0  0  0  0  0  0  0  0  0  0
   25.8180  -19.3489   -8.1036 N   0  0  0  0  0  0  0  0  0  0  0  0
   27.0883  -19.6927   -7.8587 C   0  0  0  0  0  0  0  0  0  0  0  0
   28.0160  -19.1952   -6.9673 C   0  0  0  0  0  0  0  0  0  0  0  0
   29.2802  -19.7250   -6.8652 C   0  0  0  0  0  0  0  0  0  0  0  0
   29.5653  -20.7852   -7.7089 C   0  0  0  0  0  0  0  0  0  0  0  0
   28.6535  -21.2956   -8.6059 C   0  0  0  0  0  0  0  0  0  0  0  0
   27.3893  -20.7474   -8.6923 C   0  0  0  0  0  0  0  0  0  0  0  0
   24.3732  -20.6383  -11.6072 C   0  0  0  0  0  0  0  0  0  0  0  0
   24.3466  -19.3915  -11.6259 O   0  0  0  0  0  0  0  0  0  0  0  0
   23.1299  -21.2667  -11.4029 O   0  0  0  0  0  0  0  0  0  0  0  0
  2  4  1  0
  2  1  1  0
  3  2  2  0
  5  4  1  0
  5  6  1  6
  7  5  1  0
  8  7  2  0
 10  9  1  1
 11 10  1  0
 12 10  1  0
 12 13  1  6
 13  7  1  0
 14 12  1  0
 15 14  2  0
 16 14  1  0
 17 16  1  0
 17 18  1  1
 19 18  1  0
 20 19  2  0
 21 22  1  0
 21 20  1  0
 22 27  2  0
 23 22  1  0
 23 24  2  0
 24 25  1  0
 25 26  2  0
 27 19  1  0
 27 26  1  0
 28 17  1  0
 28 30  1  0
 29 28  2  0
M  END
$$$$
