NVW.pdb
     RDKit          3D

 30 31  0  0  1  0  0  0  0  0999 V2000
   28.5224  -19.6122  -18.0970 N   0  0  0  0  0  0  0  0  0  0  0  0
   27.1400  -19.4061  -17.9938 C   0  0  0  0  0  0  0  0  0  0  0  0
   26.5599  -18.6057  -18.7451 O   0  0  0  0  0  0  0  0  0  0  0  0
   26.3397  -20.1352  -16.9892 C   0  0  0  0  0  0  0  0  0  0  0  0
   27.3056  -20.9763  -16.1782 C   0  0  2  0  0  0  0  0  0  0  0  0
   27.8147  -22.0893  -16.9310 N   0  0  0  0  0  0  0  0  0  0  0  0
   26.7032  -21.4451  -14.9136 C   0  0  0  0  0  0  0  0  0  0  0  0
   26.1603  -22.5861  -14.8043 O   0  0  0  0  0  0  0  0  0  0  0  0
   26.0406  -21.2799  -10.0093 C   0  0  0  0  0  0  0  0  0  0  0  0
   26.7754  -20.7982  -11.2412 C   0  0  1  0  0  0  0  0  0  0  0  0
   28.2302  -21.1968  -11.2315 C   0  0  0  0  0  0  0  0  0  0  0  0
   26.0786  -21.1190  -12.5128 C   0  0  2  0  0  0  0  0  0  0  0  0
   26.6712  -20.6879  -13.7219 N   0  0  0  0  0  0  0  0  0  0  0  0
   24.7006  -20.5320  -12.4264 C   0  0  0  0  0  0  0  0  0  0  0  0
   24.5378  -19.2873  -12.2666 O   0  0  0  0  0  0  0  0  0  0  0  0
   23.5729  -21.3767  -12.5248 N   0  0  0  0  0  0  0  0  0  0  0  0
   22.3181  -20.8507  -13.0609 C   0  0  1  0  0  0  0  0  0  0  0  0
   22.5128  -20.3477  -14.4534 C   0  0  0  0  0  0  0  0  0  0  0  0
   21.2886  -19.7650  -15.0064 C   0  0  0  0  0  0  0  0  0  0  0  0
   20.7333  -18.5392  -14.6454 C   0  0  0  0  0  0  0  0  0  0  0  0
   19.5939  -18.3414  -15.3208 N   0  0  0  0  0  0  0  0  0  0  0  0
   19.3592  -19.3859  -16.1244 C   0  0  0  0  0  0  0  0  0  0  0  0
   18.3411  -19.6424  -17.0191 C   0  0  0  0  0  0  0  0  0  0  0  0
   18.3104  -20.7913  -17.7729 C   0  0  0  0  0  0  0  0  0  0  0  0
   19.3604  -21.6732  -17.5804 C   0  0  0  0  0  0  0  0  0  0  0  0
   20.3854  -21.4359  -16.6919 C   0  0  0  0  0  0  0  0  0  0  0  0
   20.3958  -20.2753  -15.9441 C   0  0  0  0  0  0  0  0  0  0  0  0
   21.2111  -21.7776  -12.8735 C   0  0  0  0  0  0  0  0  0  0  0  0
   21.2737  -23.0229  -12.9070 O   0  0  0  0  0  0  0  0  0  0  0  0
   19.9318  -21.2429  -12.6286 O   0  0  0  0  0  0  0  0  0  0  0  0
  2  4  1  0
  2  1  1  0
  3  2  2  0
  5  4  1  0
  5  6  1  6
  7  5  1  0
  8  7  2  0
 10  9  1  1
 11 10  1  0
 12 10  1  0
 12 13  1  6
 13  7  1  0
 14 12  1  0
 15 14  2  0
 16 14  1  0
 17 16  1  0
 17 18  1  6
 19 18  1  0
 20 19  2  0
 21 22  1  0
 21 20  1  0
 22 27  2  0
 23 22  1  0
 23 24  2  0
 24 25  1  0
 25 26  2  0
 27 19  1  0
 27 26  1  0
 28 17  1  0
 28 30  1  0
 29 28  2  0
M  END
$$$$
