NVW.pdb
     RDKit          3D

 30 31  0  0  1  0  0  0  0  0999 V2000
   26.6176  -23.3277  -18.7821 N   0  0  0  0  0  0  0  0  0  0  0  0
   26.5498  -24.1955  -17.6837 C   0  0  0  0  0  0  0  0  0  0  0  0
   25.9198  -25.2630  -17.7563 O   0  0  0  0  0  0  0  0  0  0  0  0
   27.2252  -23.8617  -16.4134 C   0  0  0  0  0  0  0  0  0  0  0  0
   27.7673  -22.4532  -16.5562 C   0  0  2  0  0  0  0  0  0  0  0  0
   28.9304  -22.4060  -17.3987 N   0  0  0  0  0  0  0  0  0  0  0  0
   28.0582  -21.8372  -15.2455 C   0  0  0  0  0  0  0  0  0  0  0  0
   29.2061  -21.8961  -14.7095 O   0  0  0  0  0  0  0  0  0  0  0  0
   28.6059  -18.4313  -14.0863 C   0  0  0  0  0  0  0  0  0  0  0  0
   27.4553  -18.9843  -13.2739 C   0  0  1  0  0  0  0  0  0  0  0  0
   26.1417  -18.3311  -13.6252 C   0  0  0  0  0  0  0  0  0  0  0  0
   27.3972  -20.4681  -13.2583 C   0  0  2  0  0  0  0  0  0  0  0  0
   27.1088  -21.1341  -14.4716 N   0  0  0  0  0  0  0  0  0  0  0  0
   26.3637  -20.8631  -12.2452 C   0  0  0  0  0  0  0  0  0  0  0  0
   25.1701  -21.0939  -12.5965 O   0  0  0  0  0  0  0  0  0  0  0  0
   26.7259  -20.9793  -10.8849 N   0  0  0  0  0  0  0  0  0  0  0  0
   25.7229  -21.3821   -9.8998 C   0  0  1  0  0  0  0  0  0  0  0  0
   26.3691  -21.6887   -8.5889 C   0  0  0  0  0  0  0  0  0  0  0  0
   26.6804  -20.4760   -7.8295 C   0  0  0  0  0  0  0  0  0  0  0  0
   26.2514  -19.1871   -8.1389 C   0  0  0  0  0  0  0  0  0  0  0  0
   26.7564  -18.3169   -7.2550 N   0  0  0  0  0  0  0  0  0  0  0  0
   27.5090  -18.9689   -6.3605 C   0  0  0  0  0  0  0  0  0  0  0  0
   28.2143  -18.5259   -5.2609 C   0  0  0  0  0  0  0  0  0  0  0  0
   28.9124  -19.3897   -4.4511 C   0  0  0  0  0  0  0  0  0  0  0  0
   28.8649  -20.7276   -4.8047 C   0  0  0  0  0  0  0  0  0  0  0  0
   28.1673  -21.1895   -5.8986 C   0  0  0  0  0  0  0  0  0  0  0  0
   27.4736  -20.3039   -6.6991 C   0  0  0  0  0  0  0  0  0  0  0  0
   24.6015  -20.4549   -9.8493 C   0  0  0  0  0  0  0  0  0  0  0  0
   24.6231  -19.2482  -10.1642 O   0  0  0  0  0  0  0  0  0  0  0  0
   23.3573  -20.9416   -9.4048 O   0  0  0  0  0  0  0  0  0  0  0  0
  2  4  1  0
  2  1  1  0
  3  2  2  0
  5  4  1  0
  5  6  1  6
  7  5  1  0
  8  7  2  0
 10  9  1  6
 11 10  1  0
 12 10  1  0
 12 13  1  6
 13  7  1  0
 14 12  1  0
 15 14  2  0
 16 14  1  0
 17 16  1  0
 17 18  1  1
 19 18  1  0
 20 19  2  0
 21 22  1  0
 21 20  1  0
 22 27  2  0
 23 22  1  0
 23 24  2  0
 24 25  1  0
 25 26  2  0
 27 19  1  0
 27 26  1  0
 28 17  1  0
 28 30  1  0
 29 28  2  0
M  END
$$$$
