NVW.pdb
     RDKit          3D

 30 31  0  0  1  0  0  0  0  0999 V2000
   22.5738  -23.6584  -17.3490 N   0  0  0  0  0  0  0  0  0  0  0  0
   22.1868  -23.8088  -16.0105 C   0  0  0  0  0  0  0  0  0  0  0  0
   20.9889  -23.9268  -15.7056 O   0  0  0  0  0  0  0  0  0  0  0  0
   23.1935  -23.8303  -14.9301 C   0  0  0  0  0  0  0  0  0  0  0  0
   24.5477  -23.6307  -15.5816 C   0  0  2  0  0  0  0  0  0  0  0  0
   25.0228  -24.8294  -16.2158 N   0  0  0  0  0  0  0  0  0  0  0  0
   25.5523  -23.1240  -14.6247 C   0  0  0  0  0  0  0  0  0  0  0  0
   26.1870  -23.8915  -13.8395 O   0  0  0  0  0  0  0  0  0  0  0  0
   26.5028  -18.8186  -14.0054 C   0  0  0  0  0  0  0  0  0  0  0  0
   27.4850  -19.9582  -13.8437 C   0  0  1  0  0  0  0  0  0  0  0  0
   28.6070  -19.6156  -12.8953 C   0  0  0  0  0  0  0  0  0  0  0  0
   26.8389  -21.2638  -13.5548 C   0  0  2  0  0  0  0  0  0  0  0  0
   25.9024  -21.7625  -14.4892 N   0  0  0  0  0  0  0  0  0  0  0  0
   26.1581  -21.1394  -12.2238 C   0  0  0  0  0  0  0  0  0  0  0  0
   24.9447  -20.7878  -12.1495 O   0  0  0  0  0  0  0  0  0  0  0  0
   26.8779  -21.4178  -11.0409 N   0  0  0  0  0  0  0  0  0  0  0  0
   26.2250  -21.2622   -9.7417 C   0  0  1  0  0  0  0  0  0  0  0  0
   27.1754  -21.5830   -8.6354 C   0  0  0  0  0  0  0  0  0  0  0  0
   27.3392  -20.4635   -7.7059 C   0  0  0  0  0  0  0  0  0  0  0  0
   26.6617  -19.2476   -7.7658 C   0  0  0  0  0  0  0  0  0  0  0  0
   27.0877  -18.4425   -6.7841 N   0  0  0  0  0  0  0  0  0  0  0  0
   28.0261  -19.0684   -6.0633 C   0  0  0  0  0  0  0  0  0  0  0  0
   28.7446  -18.6725   -4.9543 C   0  0  0  0  0  0  0  0  0  0  0  0
   29.6588  -19.5013   -4.3488 C   0  0  0  0  0  0  0  0  0  0  0  0
   29.8144  -20.7540   -4.9177 C   0  0  0  0  0  0  0  0  0  0  0  0
   29.1075  -21.1676   -6.0248 C   0  0  0  0  0  0  0  0  0  0  0  0
   28.1946  -20.3183   -6.6177 C   0  0  0  0  0  0  0  0  0  0  0  0
   25.5299  -19.9880   -9.6271 C   0  0  0  0  0  0  0  0  0  0  0  0
   25.9547  -18.8761   -9.9998 O   0  0  0  0  0  0  0  0  0  0  0  0
   24.2494  -19.9807   -9.0415 O   0  0  0  0  0  0  0  0  0  0  0  0
  2  4  1  0
  2  1  1  0
  3  2  2  0
  5  4  1  0
  5  6  1  1
  7  5  1  0
  8  7  2  0
 10  9  1  1
 11 10  1  0
 12 10  1  0
 12 13  1  6
 13  7  1  0
 14 12  1  0
 15 14  2  0
 16 14  1  0
 17 16  1  0
 17 18  1  1
 19 18  1  0
 20 19  2  0
 21 22  1  0
 21 20  1  0
 22 27  2  0
 23 22  1  0
 23 24  2  0
 24 25  1  0
 25 26  2  0
 27 19  1  0
 27 26  1  0
 28 17  1  0
 28 30  1  0
 29 28  2  0
M  END
$$$$
