NVW.pdb
     RDKit          3D

 30 31  0  0  1  0  0  0  0  0999 V2000
   28.0578  -36.6849  -17.5596 N   0  0  0  0  0  0  0  0  0  0  0  0
   26.6900  -36.8731  -17.3187 C   0  0  0  0  0  0  0  0  0  0  0  0
   26.1514  -37.9695  -17.5415 O   0  0  0  0  0  0  0  0  0  0  0  0
   25.8560  -35.7727  -16.7946 C   0  0  0  0  0  0  0  0  0  0  0  0
   24.4374  -36.2983  -16.6986 C   0  0  2  0  0  0  0  0  0  0  0  0
   23.6218  -35.8521  -17.7943 N   0  0  0  0  0  0  0  0  0  0  0  0
   23.8036  -35.9472  -15.4113 C   0  0  0  0  0  0  0  0  0  0  0  0
   22.8948  -35.0672  -15.3219 O   0  0  0  0  0  0  0  0  0  0  0  0
   22.2939  -36.9404  -10.8721 C   0  0  0  0  0  0  0  0  0  0  0  0
   22.6759  -37.2673  -12.2992 C   0  0  1  0  0  0  0  0  0  0  0  0
   21.4853  -37.6766  -13.1303 C   0  0  0  0  0  0  0  0  0  0  0  0
   23.5216  -36.2290  -12.9413 C   0  0  2  0  0  0  0  0  0  0  0  0
   24.1367  -36.5430  -14.1749 N   0  0  0  0  0  0  0  0  0  0  0  0
   24.5937  -35.8577  -11.9597 C   0  0  0  0  0  0  0  0  0  0  0  0
   25.4842  -36.6938  -11.6291 O   0  0  0  0  0  0  0  0  0  0  0  0
   24.6103  -34.5616  -11.3986 N   0  0  0  0  0  0  0  0  0  0  0  0
   25.6978  -34.1745  -10.5008 C   0  0  1  0  0  0  0  0  0  0  0  0
   26.0904  -32.7529  -10.7354 C   0  0  0  0  0  0  0  0  0  0  0  0
   25.0624  -31.8140  -10.2819 C   0  0  0  0  0  0  0  0  0  0  0  0
   24.9215  -31.3218   -8.9861 C   0  0  0  0  0  0  0  0  0  0  0  0
   23.8519  -30.5188   -8.9201 N   0  0  0  0  0  0  0  0  0  0  0  0
   23.2659  -30.4491  -10.1216 C   0  0  0  0  0  0  0  0  0  0  0  0
   22.1624  -29.7489  -10.5630 C   0  0  0  0  0  0  0  0  0  0  0  0
   21.7428  -29.8059  -11.8706 C   0  0  0  0  0  0  0  0  0  0  0  0
   22.4926  -30.6064  -12.7157 C   0  0  0  0  0  0  0  0  0  0  0  0
   23.5966  -31.3137  -12.2943 C   0  0  0  0  0  0  0  0  0  0  0  0
   23.9999  -31.2425  -10.9758 C   0  0  0  0  0  0  0  0  0  0  0  0
   25.4196  -34.5325   -9.1172 C   0  0  0  0  0  0  0  0  0  0  0  0
   24.2932  -34.6643   -8.5981 O   0  0  0  0  0  0  0  0  0  0  0  0
   26.5117  -34.7582   -8.2576 O   0  0  0  0  0  0  0  0  0  0  0  0
  2  4  1  0
  2  1  1  0
  3  2  2  0
  5  4  1  0
  5  6  1  6
  7  5  1  0
  8  7  2  0
 10  9  1  1
 11 10  1  0
 12 10  1  0
 12 13  1  6
 13  7  1  0
 14 12  1  0
 15 14  2  0
 16 14  1  0
 17 16  1  0
 17 18  1  1
 19 18  1  0
 20 19  2  0
 21 22  1  0
 21 20  1  0
 22 27  2  0
 23 22  1  0
 23 24  2  0
 24 25  1  0
 25 26  2  0
 27 19  1  0
 27 26  1  0
 28 17  1  0
 28 30  1  0
 29 28  2  0
M  END
$$$$
