NVW.pdb
     RDKit          3D

 30 31  0  0  1  0  0  0  0  0999 V2000
   17.3545   -9.4365  -18.1461 N   0  0  0  0  0  0  0  0  0  0  0  0
   16.4618   -9.8159  -17.1346 C   0  0  0  0  0  0  0  0  0  0  0  0
   15.2630  -10.0164  -17.3885 O   0  0  0  0  0  0  0  0  0  0  0  0
   16.9246   -9.9863  -15.7425 C   0  0  0  0  0  0  0  0  0  0  0  0
   18.4148   -9.7085  -15.7333 C   0  0  2  0  0  0  0  0  0  0  0  0
   19.1766  -10.8380  -16.1901 N   0  0  0  0  0  0  0  0  0  0  0  0
   18.8882   -9.2747  -14.4031 C   0  0  0  0  0  0  0  0  0  0  0  0
   19.0711  -10.0913  -13.4501 O   0  0  0  0  0  0  0  0  0  0  0  0
   21.0310   -6.0957  -11.2852 C   0  0  0  0  0  0  0  0  0  0  0  0
   20.7262   -6.5508  -12.6958 C   0  0  1  0  0  0  0  0  0  0  0  0
   21.9617   -7.0152  -13.4261 C   0  0  0  0  0  0  0  0  0  0  0  0
   19.5906   -7.5040  -12.7809 C   0  0  2  0  0  0  0  0  0  0  0  0
   19.1803   -7.9355  -14.0632 N   0  0  0  0  0  0  0  0  0  0  0  0
   18.4177   -6.8619  -12.1006 C   0  0  0  0  0  0  0  0  0  0  0  0
   18.0093   -5.7191  -12.4594 O   0  0  0  0  0  0  0  0  0  0  0  0
   17.7616   -7.5394  -11.0492 N   0  0  0  0  0  0  0  0  0  0  0  0
   16.6092   -6.9200  -10.3958 C   0  0  1  0  0  0  0  0  0  0  0  0
   15.5319   -7.9283  -10.1665 C   0  0  0  0  0  0  0  0  0  0  0  0
   14.3172   -7.3234   -9.6165 C   0  0  0  0  0  0  0  0  0  0  0  0
   13.7222   -6.1431  -10.0568 C   0  0  0  0  0  0  0  0  0  0  0  0
   12.6513   -5.8662   -9.3019 N   0  0  0  0  0  0  0  0  0  0  0  0
   12.5000   -6.8146   -8.3695 C   0  0  0  0  0  0  0  0  0  0  0  0
   11.5512   -6.9856   -7.3828 C   0  0  0  0  0  0  0  0  0  0  0  0
   11.5743   -8.0665   -6.5341 C   0  0  0  0  0  0  0  0  0  0  0  0
   12.6046   -8.9708   -6.7288 C   0  0  0  0  0  0  0  0  0  0  0  0
   13.5615   -8.8176   -7.7073 C   0  0  0  0  0  0  0  0  0  0  0  0
   13.5196   -7.7236   -8.5484 C   0  0  0  0  0  0  0  0  0  0  0  0
   16.9960   -6.1340   -9.2328 C   0  0  0  0  0  0  0  0  0  0  0  0
   17.7599   -6.4951   -8.3152 O   0  0  0  0  0  0  0  0  0  0  0  0
   16.4708   -4.8338   -9.1059 O   0  0  0  0  0  0  0  0  0  0  0  0
  2  4  1  0
  2  1  1  0
  3  2  2  0
  5  4  1  0
  5  6  1  1
  7  5  1  0
  8  7  2  0
 10  9  1  1
 11 10  1  0
 12 10  1  0
 12 13  1  6
 13  7  1  0
 14 12  1  0
 15 14  2  0
 16 14  1  0
 17 16  1  0
 17 18  1  1
 19 18  1  0
 20 19  2  0
 21 22  1  0
 21 20  1  0
 22 27  2  0
 23 22  1  0
 23 24  2  0
 24 25  1  0
 25 26  2  0
 27 19  1  0
 27 26  1  0
 28 17  1  0
 28 30  1  0
 29 28  2  0
M  END
$$$$
