NVW.pdb
     RDKit          3D

 30 31  0  0  1  0  0  0  0  0999 V2000
   29.0169  -23.6876  -17.8100 N   0  0  0  0  0  0  0  0  0  0  0  0
   29.6347  -23.4480  -16.5750 C   0  0  0  0  0  0  0  0  0  0  0  0
   30.6064  -24.1287  -16.2089 O   0  0  0  0  0  0  0  0  0  0  0  0
   29.1452  -22.3808  -15.6790 C   0  0  0  0  0  0  0  0  0  0  0  0
   27.9603  -21.7325  -16.3674 C   0  0  2  0  0  0  0  0  0  0  0  0
   28.3597  -20.9477  -17.5030 N   0  0  0  0  0  0  0  0  0  0  0  0
   27.1589  -20.9142  -15.4348 C   0  0  0  0  0  0  0  0  0  0  0  0
   27.3125  -19.6595  -15.3313 O   0  0  0  0  0  0  0  0  0  0  0  0
   23.0375  -19.8238  -13.1078 C   0  0  0  0  0  0  0  0  0  0  0  0
   23.8742  -20.5740  -14.1211 C   0  0  1  0  0  0  0  0  0  0  0  0
   23.6229  -20.1020  -15.5317 C   0  0  0  0  0  0  0  0  0  0  0  0
   25.3142  -20.6478  -13.7656 C   0  0  2  0  0  0  0  0  0  0  0  0
   26.1603  -21.4333  -14.5816 N   0  0  0  0  0  0  0  0  0  0  0  0
   25.4003  -21.1648  -12.3599 C   0  0  0  0  0  0  0  0  0  0  0  0
   25.0139  -22.3364  -12.0780 O   0  0  0  0  0  0  0  0  0  0  0  0
   25.9182  -20.3362  -11.3400 N   0  0  0  0  0  0  0  0  0  0  0  0
   25.8578  -20.7774   -9.9471 C   0  0  1  0  0  0  0  0  0  0  0  0
   26.9435  -20.1369   -9.1466 C   0  0  0  0  0  0  0  0  0  0  0  0
   26.7980  -20.3947   -7.7126 C   0  0  0  0  0  0  0  0  0  0  0  0
   25.7915  -21.1526   -7.1180 C   0  0  0  0  0  0  0  0  0  0  0  0
   25.9434  -21.1436   -5.7875 N   0  0  0  0  0  0  0  0  0  0  0  0
   27.0140  -20.4095   -5.4611 C   0  0  0  0  0  0  0  0  0  0  0  0
   27.5867  -20.1176   -4.2406 C   0  0  0  0  0  0  0  0  0  0  0  0
   28.7208  -19.3479   -4.1372 C   0  0  0  0  0  0  0  0  0  0  0  0
   29.2523  -18.8848   -5.3289 C   0  0  0  0  0  0  0  0  0  0  0  0
   28.6953  -19.1644   -6.5570 C   0  0  0  0  0  0  0  0  0  0  0  0
   27.5551  -19.9390   -6.6375 C   0  0  0  0  0  0  0  0  0  0  0  0
   24.5155  -20.6645   -9.3945 C   0  0  0  0  0  0  0  0  0  0  0  0
   23.7292  -19.7084   -9.5476 O   0  0  0  0  0  0  0  0  0  0  0  0
   24.0313  -21.7251   -8.6051 O   0  0  0  0  0  0  0  0  0  0  0  0
  2  4  1  0
  2  1  1  0
  3  2  2  0
  5  4  1  0
  5  6  1  6
  7  5  1  0
  8  7  2  0
 10  9  1  1
 11 10  1  0
 12 10  1  0
 12 13  1  6
 13  7  1  0
 14 12  1  0
 15 14  2  0
 16 14  1  0
 17 16  1  0
 17 18  1  1
 19 18  1  0
 20 19  2  0
 21 22  1  0
 21 20  1  0
 22 27  2  0
 23 22  1  0
 23 24  2  0
 24 25  1  0
 25 26  2  0
 27 19  1  0
 27 26  1  0
 28 17  1  0
 28 30  1  0
 29 28  2  0
M  END
$$$$
