NVW.pdb
     RDKit          3D

 30 31  0  0  1  0  0  0  0  0999 V2000
   31.4293  -24.5673  -16.0975 N   0  0  0  0  0  0  0  0  0  0  0  0
   30.0905  -24.1539  -16.0675 C   0  0  0  0  0  0  0  0  0  0  0  0
   29.1998  -24.8493  -16.5821 O   0  0  0  0  0  0  0  0  0  0  0  0
   29.7063  -22.8814  -15.4237 C   0  0  0  0  0  0  0  0  0  0  0  0
   28.5105  -22.3430  -16.1841 C   0  0  2  0  0  0  0  0  0  0  0  0
   28.8863  -21.7822  -17.4526 N   0  0  0  0  0  0  0  0  0  0  0  0
   27.7505  -21.3550  -15.3916 C   0  0  0  0  0  0  0  0  0  0  0  0
   27.9969  -20.1120  -15.4429 O   0  0  0  0  0  0  0  0  0  0  0  0
   23.7887  -19.5536  -13.2808 C   0  0  0  0  0  0  0  0  0  0  0  0
   24.5595  -20.4444  -14.2305 C   0  0  1  0  0  0  0  0  0  0  0  0
   24.4850  -19.9590  -15.6569 C   0  0  0  0  0  0  0  0  0  0  0  0
   25.9406  -20.7451  -13.7752 C   0  0  2  0  0  0  0  0  0  0  0  0
   26.6938  -21.6855  -14.5149 N   0  0  0  0  0  0  0  0  0  0  0  0
   25.8478  -21.2246  -12.3567 C   0  0  0  0  0  0  0  0  0  0  0  0
   25.3788  -22.3697  -12.0916 O   0  0  0  0  0  0  0  0  0  0  0  0
   26.2887  -20.3904  -11.3058 N   0  0  0  0  0  0  0  0  0  0  0  0
   26.1775  -20.8485   -9.9215 C   0  0  1  0  0  0  0  0  0  0  0  0
   27.3806  -20.4412   -9.1361 C   0  0  0  0  0  0  0  0  0  0  0  0
   27.1616  -20.5526   -7.6927 C   0  0  0  0  0  0  0  0  0  0  0  0
   26.1501  -21.2851   -7.0751 C   0  0  0  0  0  0  0  0  0  0  0  0
   26.2242  -21.1300   -5.7470 N   0  0  0  0  0  0  0  0  0  0  0  0
   27.2474  -20.3217   -5.4442 C   0  0  0  0  0  0  0  0  0  0  0  0
   27.7376  -19.8795   -4.2330 C   0  0  0  0  0  0  0  0  0  0  0  0
   28.8357  -19.0567   -4.1520 C   0  0  0  0  0  0  0  0  0  0  0  0
   29.4184  -18.6997   -5.3563 C   0  0  0  0  0  0  0  0  0  0  0  0
   28.9437  -19.1298   -6.5754 C   0  0  0  0  0  0  0  0  0  0  0  0
   27.8385  -19.9553   -6.6335 C   0  0  0  0  0  0  0  0  0  0  0  0
   24.8920  -20.5029   -9.3317 C   0  0  0  0  0  0  0  0  0  0  0  0
   24.2593  -19.4418   -9.5033 O   0  0  0  0  0  0  0  0  0  0  0  0
   24.2791  -21.4411   -8.4792 O   0  0  0  0  0  0  0  0  0  0  0  0
  2  4  1  0
  2  1  1  0
  3  2  2  0
  5  4  1  0
  5  6  1  6
  7  5  1  0
  8  7  2  0
 10  9  1  1
 11 10  1  0
 12 10  1  0
 12 13  1  6
 13  7  1  0
 14 12  1  0
 15 14  2  0
 16 14  1  0
 17 16  1  0
 17 18  1  1
 19 18  1  0
 20 19  2  0
 21 22  1  0
 21 20  1  0
 22 27  2  0
 23 22  1  0
 23 24  2  0
 24 25  1  0
 25 26  2  0
 27 19  1  0
 27 26  1  0
 28 17  1  0
 28 30  1  0
 29 28  2  0
M  END
$$$$
