FMQ.pdb
     RDKit          3D

 29 29  0  0  1  0  0  0  0  0999 V2000
   25.4319  -20.4822  -18.5484 N   0  0  0  0  0  0  0  0  0  0  0  0
   24.7631  -19.5385  -17.6569 C   0  0  1  0  0  0  0  0  0  0  0  0
   23.5470  -19.0318  -18.4109 C   0  0  0  0  0  0  0  0  0  0  0  0
   24.0458  -17.9584  -19.3197 C   0  0  0  0  0  0  0  0  0  0  0  0
   24.1678  -16.6550  -18.8782 C   0  0  0  0  0  0  0  0  0  0  0  0
   24.6304  -15.6509  -19.7157 C   0  0  0  0  0  0  0  0  0  0  0  0
   24.9873  -15.9122  -21.0220 C   0  0  0  0  0  0  0  0  0  0  0  0
   24.8659  -17.2101  -21.4618 C   0  0  0  0  0  0  0  0  0  0  0  0
   24.4072  -18.2110  -20.6349 C   0  0  0  0  0  0  0  0  0  0  0  0
   24.4199  -20.1938  -16.3857 C   0  0  0  0  0  0  0  0  0  0  0  0
   24.2423  -21.4331  -16.3503 O   0  0  0  0  0  0  0  0  0  0  0  0
   24.8046  -21.8480   -9.3460 C   0  0  0  0  0  0  0  0  0  0  0  0
   25.1229  -21.3122  -11.0302 S   0  0  0  0  0  0  0  0  0  0  0  0
   24.3115  -19.7583  -11.4405 C   0  0  0  0  0  0  0  0  0  0  0  0
   24.5476  -19.3097  -12.8362 C   0  0  0  0  0  0  0  0  0  0  0  0
   23.9606  -20.1647  -13.9198 C   0  0  2  0  0  0  0  0  0  0  0  0
   24.2822  -19.4685  -15.1916 N   0  0  0  0  0  0  0  0  0  0  0  0
   22.4891  -20.2844  -13.8864 C   0  0  0  0  0  0  0  0  0  0  0  0
   21.7453  -19.2903  -14.2138 O   0  0  0  0  0  0  0  0  0  0  0  0
   18.7997  -25.3335  -13.7269 N   0  0  0  0  0  0  0  0  0  0  0  0
   17.8176  -24.3202  -13.6489 C   0  0  0  0  0  0  0  0  0  0  0  0
   16.5992  -24.5820  -13.5729 O   0  0  0  0  0  0  0  0  0  0  0  0
   18.2668  -22.8937  -13.6587 C   0  0  0  0  0  0  0  0  0  0  0  0
   19.7708  -22.8443  -13.7246 C   0  0  0  0  0  0  0  0  0  0  0  0
   20.2838  -21.4645  -13.4999 C   0  0  2  0  0  0  0  0  0  0  0  0
   21.7596  -21.4374  -13.5157 N   0  0  0  0  0  0  0  0  0  0  0  0
   19.8628  -20.8247  -12.2445 C   0  0  0  0  0  0  0  0  0  0  0  0
   20.6368  -20.7964  -11.2263 O   0  0  0  0  0  0  0  0  0  0  0  0
   18.6379  -20.2127  -12.0466 O   0  0  0  0  0  0  0  0  0  0  0  0
  2  1  1  6
  3  4  1  0
  3  2  1  0
  4  5  2  0
  5  6  1  0
  7  6  2  0
  8  7  1  0
  9  8  2  0
  9  4  1  0
 10  2  1  0
 10 11  2  0
 12 13  1  0
 13 14  1  0
 16 15  1  1
 15 14  1  0
 16 17  1  0
 17 10  1  0
 18 16  1  0
 19 18  2  0
 20 21  1  0
 21 22  2  0
 23 21  1  0
 23 24  1  0
 25 24  1  1
 25 27  1  0
 25 26  1  0
 26 18  1  0
 27 29  1  0
 28 27  2  0
M  END
$$$$
