FMQ.pdb
     RDKit          3D

 29 29  0  0  1  0  0  0  0  0999 V2000
   28.5344  -19.9606  -15.9535 N   0  0  0  0  0  0  0  0  0  0  0  0
   27.6519  -19.2575  -15.0265 C   0  0  1  0  0  0  0  0  0  0  0  0
   26.7036  -18.4379  -15.8828 C   0  0  0  0  0  0  0  0  0  0  0  0
   27.3996  -17.1436  -16.1418 C   0  0  0  0  0  0  0  0  0  0  0  0
   27.9908  -16.8881  -17.3640 C   0  0  0  0  0  0  0  0  0  0  0  0
   28.6399  -15.6882  -17.6138 C   0  0  0  0  0  0  0  0  0  0  0  0
   28.7215  -14.7019  -16.6533 C   0  0  0  0  0  0  0  0  0  0  0  0
   28.1327  -14.9560  -15.4361 C   0  0  0  0  0  0  0  0  0  0  0  0
   27.4871  -16.1454  -15.1825 C   0  0  0  0  0  0  0  0  0  0  0  0
   26.9569  -20.2183  -14.1564 C   0  0  0  0  0  0  0  0  0  0  0  0
   26.7168  -21.3754  -14.5709 O   0  0  0  0  0  0  0  0  0  0  0  0
   26.4767  -19.0126   -7.7044 C   0  0  0  0  0  0  0  0  0  0  0  0
   26.1454  -20.7723   -7.8406 S   0  0  0  0  0  0  0  0  0  0  0  0
   25.6155  -21.2640   -9.4895 C   0  0  0  0  0  0  0  0  0  0  0  0
   26.2777  -20.5070  -10.5820 C   0  0  0  0  0  0  0  0  0  0  0  0
   25.9024  -20.8918  -11.9823 C   0  0  2  0  0  0  0  0  0  0  0  0
   26.5466  -19.8793  -12.8573 N   0  0  0  0  0  0  0  0  0  0  0  0
   24.4574  -20.8202  -12.2787 C   0  0  0  0  0  0  0  0  0  0  0  0
   23.8956  -19.6915  -12.5216 O   0  0  0  0  0  0  0  0  0  0  0  0
   20.9144  -25.2352  -14.7905 N   0  0  0  0  0  0  0  0  0  0  0  0
   19.9532  -24.2023  -14.7114 C   0  0  0  0  0  0  0  0  0  0  0  0
   18.8119  -24.3192  -15.2040 O   0  0  0  0  0  0  0  0  0  0  0  0
   20.3290  -22.9345  -14.0124 C   0  0  0  0  0  0  0  0  0  0  0  0
   21.7309  -23.0573  -13.4754 C   0  0  0  0  0  0  0  0  0  0  0  0
   22.1885  -21.7886  -12.8439 C   0  0  2  0  0  0  0  0  0  0  0  0
   23.5670  -21.9171  -12.3320 N   0  0  0  0  0  0  0  0  0  0  0  0
   21.3665  -21.3004  -11.7265 C   0  0  0  0  0  0  0  0  0  0  0  0
   21.6760  -21.5665  -10.5141 O   0  0  0  0  0  0  0  0  0  0  0  0
   20.2234  -20.5340  -11.8680 O   0  0  0  0  0  0  0  0  0  0  0  0
  2  1  1  6
  3  4  1  0
  3  2  1  0
  4  5  2  0
  5  6  1  0
  7  6  2  0
  8  7  1  0
  9  8  2  0
  9  4  1  0
 10  2  1  0
 10 11  2  0
 12 13  1  0
 13 14  1  0
 16 15  1  1
 15 14  1  0
 16 17  1  0
 17 10  1  0
 18 16  1  0
 19 18  2  0
 20 21  1  0
 21 22  2  0
 23 21  1  0
 23 24  1  0
 25 24  1  1
 25 27  1  0
 25 26  1  0
 26 18  1  0
 27 29  1  0
 28 27  2  0
M  END
$$$$
