FMQ.pdb
     RDKit          3D

 29 29  0  0  1  0  0  0  0  0999 V2000
   17.8215  -18.2953    1.9223 N   0  0  0  0  0  0  0  0  0  0  0  0
   18.2362  -17.3568    2.9614 C   0  0  1  0  0  0  0  0  0  0  0  0
   17.0472  -16.4465    3.2099 C   0  0  0  0  0  0  0  0  0  0  0  0
   17.6065  -15.0700    3.3486 C   0  0  0  0  0  0  0  0  0  0  0  0
   18.2400  -14.4514    2.2881 C   0  0  0  0  0  0  0  0  0  0  0  0
   18.7630  -13.1724    2.4077 C   0  0  0  0  0  0  0  0  0  0  0  0
   18.6719  -12.4665    3.5890 C   0  0  0  0  0  0  0  0  0  0  0  0
   18.0410  -13.0823    4.6452 C   0  0  0  0  0  0  0  0  0  0  0  0
   17.5201  -14.3518    4.5322 C   0  0  0  0  0  0  0  0  0  0  0  0
   18.6642  -18.0856    4.1651 C   0  0  0  0  0  0  0  0  0  0  0  0
   18.8207  -19.3274    4.1204 O   0  0  0  0  0  0  0  0  0  0  0  0
   23.8711  -17.9501    9.5336 C   0  0  0  0  0  0  0  0  0  0  0  0
   22.9465  -17.4335    8.0833 S   0  0  0  0  0  0  0  0  0  0  0  0
   21.1744  -17.3220    8.3803 C   0  0  0  0  0  0  0  0  0  0  0  0
   20.3877  -16.9497    7.1771 C   0  0  0  0  0  0  0  0  0  0  0  0
   19.7296  -18.0756    6.4361 C   0  0  2  0  0  0  0  0  0  0  0  0
   18.9076  -17.4287    5.3818 N   0  0  0  0  0  0  0  0  0  0  0  0
   18.7908  -18.8826    7.2412 C   0  0  0  0  0  0  0  0  0  0  0  0
   17.6322  -18.4227    7.5492 O   0  0  0  0  0  0  0  0  0  0  0  0
   16.5851  -25.5185    9.7216 N   0  0  0  0  0  0  0  0  0  0  0  0
   17.4352  -24.6205    9.0374 C   0  0  0  0  0  0  0  0  0  0  0  0
   18.4127  -25.0128    8.3672 O   0  0  0  0  0  0  0  0  0  0  0  0
   17.1423  -23.1566    9.1283 C   0  0  0  0  0  0  0  0  0  0  0  0
   18.1694  -22.3917    8.3352 C   0  0  0  0  0  0  0  0  0  0  0  0
   18.0304  -20.9222    8.5323 C   0  0  2  0  0  0  0  0  0  0  0  0
   19.0330  -20.1830    7.7404 N   0  0  0  0  0  0  0  0  0  0  0  0
   18.1561  -20.4507    9.9196 C   0  0  0  0  0  0  0  0  0  0  0  0
   19.2259  -19.8807   10.3284 O   0  0  0  0  0  0  0  0  0  0  0  0
   17.1698  -20.5696   10.8824 O   0  0  0  0  0  0  0  0  0  0  0  0
  2  1  1  6
  3  4  1  0
  3  2  1  0
  4  5  2  0
  5  6  1  0
  7  6  2  0
  8  7  1  0
  9  8  2  0
  9  4  1  0
 10  2  1  0
 10 11  2  0
 12 13  1  0
 13 14  1  0
 16 15  1  1
 15 14  1  0
 16 17  1  0
 17 10  1  0
 18 16  1  0
 19 18  2  0
 20 21  1  0
 21 22  2  0
 23 21  1  0
 23 24  1  0
 25 24  1  1
 25 27  1  0
 25 26  1  0
 26 18  1  0
 27 29  1  0
 28 27  2  0
M  END
$$$$
