FMQ.pdb
     RDKit          3D

 29 29  0  0  1  0  0  0  0  0999 V2000
   27.8379  -35.6802   -8.1092 N   0  0  0  0  0  0  0  0  0  0  0  0
   27.7704  -34.9761   -6.8316 C   0  0  1  0  0  0  0  0  0  0  0  0
   26.2953  -34.7711   -6.5376 C   0  0  0  0  0  0  0  0  0  0  0  0
   25.8409  -33.6867   -7.4565 C   0  0  0  0  0  0  0  0  0  0  0  0
   25.0157  -33.9649   -8.5290 C   0  0  0  0  0  0  0  0  0  0  0  0
   24.5884  -32.9635   -9.3882 C   0  0  0  0  0  0  0  0  0  0  0  0
   24.9694  -31.6505   -9.2073 C   0  0  0  0  0  0  0  0  0  0  0  0
   25.7911  -31.3731   -8.1393 C   0  0  0  0  0  0  0  0  0  0  0  0
   26.2183  -32.3632   -7.2831 C   0  0  0  0  0  0  0  0  0  0  0  0
   28.4634  -35.7465   -5.7878 C   0  0  0  0  0  0  0  0  0  0  0  0
   28.2223  -36.9676   -5.6495 O   0  0  0  0  0  0  0  0  0  0  0  0
   35.1442  -36.4007   -6.0140 C   0  0  0  0  0  0  0  0  0  0  0  0
   34.0755  -35.5249   -4.8668 S   0  0  0  0  0  0  0  0  0  0  0  0
   32.3552  -36.0460   -4.9685 C   0  0  0  0  0  0  0  0  0  0  0  0
   31.5016  -35.5098   -3.8782 C   0  0  0  0  0  0  0  0  0  0  0  0
   30.0694  -35.9555   -3.8722 C   0  0  2  0  0  0  0  0  0  0  0  0
   29.4004  -35.1526   -4.9274 N   0  0  0  0  0  0  0  0  0  0  0  0
   29.3364  -35.6700   -2.6224 C   0  0  0  0  0  0  0  0  0  0  0  0
   28.7118  -34.5584   -2.4709 O   0  0  0  0  0  0  0  0  0  0  0  0
   26.0565  -38.0557    3.4864 N   0  0  0  0  0  0  0  0  0  0  0  0
   26.6906  -38.1951    2.2311 C   0  0  0  0  0  0  0  0  0  0  0  0
   27.1673  -39.2828    1.8461 O   0  0  0  0  0  0  0  0  0  0  0  0
   26.7861  -36.9929    1.3465 C   0  0  0  0  0  0  0  0  0  0  0  0
   27.6002  -37.3344    0.1261 C   0  0  0  0  0  0  0  0  0  0  0  0
   28.4378  -36.1841   -0.3130 C   0  0  2  0  0  0  0  0  0  0  0  0
   29.2341  -36.5318   -1.5063 N   0  0  0  0  0  0  0  0  0  0  0  0
   29.3814  -35.6642    0.6880 C   0  0  0  0  0  0  0  0  0  0  0  0
   30.6050  -36.0377    0.6981 O   0  0  0  0  0  0  0  0  0  0  0  0
   29.0548  -34.7549    1.6782 O   0  0  0  0  0  0  0  0  0  0  0  0
  2  1  1  6
  3  4  1  0
  3  2  1  0
  4  5  2  0
  5  6  1  0
  7  6  2  0
  8  7  1  0
  9  8  2  0
  9  4  1  0
 10  2  1  0
 10 11  2  0
 12 13  1  0
 13 14  1  0
 16 15  1  1
 15 14  1  0
 16 17  1  0
 17 10  1  0
 18 16  1  0
 19 18  2  0
 20 21  1  0
 21 22  2  0
 23 21  1  0
 23 24  1  0
 25 24  1  1
 25 27  1  0
 25 26  1  0
 26 18  1  0
 27 29  1  0
 28 27  2  0
M  END
$$$$
