FMQ.pdb
     RDKit          3D

 29 29  0  0  1  0  0  0  0  0999 V2000
   28.7585  -20.6260  -15.6174 N   0  0  0  0  0  0  0  0  0  0  0  0
   27.9075  -19.7611  -14.8048 C   0  0  1  0  0  0  0  0  0  0  0  0
   27.0033  -19.0229  -15.7752 C   0  0  0  0  0  0  0  0  0  0  0  0
   27.6616  -17.7081  -16.0300 C   0  0  0  0  0  0  0  0  0  0  0  0
   27.5884  -16.6866  -15.1028 C   0  0  0  0  0  0  0  0  0  0  0  0
   28.1970  -15.4614  -15.3310 C   0  0  0  0  0  0  0  0  0  0  0  0
   28.8995  -15.2130  -16.4915 C   0  0  0  0  0  0  0  0  0  0  0  0
   28.9725  -16.2302  -17.4150 C   0  0  0  0  0  0  0  0  0  0  0  0
   28.3703  -17.4485  -17.1938 C   0  0  0  0  0  0  0  0  0  0  0  0
   27.1633  -20.5592  -13.8187 C   0  0  0  0  0  0  0  0  0  0  0  0
   26.8250  -21.7334  -14.0933 O   0  0  0  0  0  0  0  0  0  0  0  0
   28.0078  -19.9698   -7.3168 C   0  0  0  0  0  0  0  0  0  0  0  0
   26.2302  -20.1643   -7.4820 S   0  0  0  0  0  0  0  0  0  0  0  0
   25.7443  -20.8929   -9.0550 C   0  0  0  0  0  0  0  0  0  0  0  0
   26.3994  -20.2682  -10.2321 C   0  0  0  0  0  0  0  0  0  0  0  0
   26.1163  -20.8968  -11.5643 C   0  0  2  0  0  0  0  0  0  0  0  0
   26.8131  -20.0439  -12.5606 N   0  0  0  0  0  0  0  0  0  0  0  0
   24.6934  -20.8982  -11.9593 C   0  0  0  0  0  0  0  0  0  0  0  0
   24.1035  -19.8037  -12.2801 O   0  0  0  0  0  0  0  0  0  0  0  0
   23.4577  -25.3840  -14.1738 N   0  0  0  0  0  0  0  0  0  0  0  0
   22.8018  -24.5625  -15.1182 C   0  0  0  0  0  0  0  0  0  0  0  0
   22.8867  -24.7664  -16.3470 O   0  0  0  0  0  0  0  0  0  0  0  0
   21.9834  -23.4161  -14.6151 C   0  0  0  0  0  0  0  0  0  0  0  0
   22.0959  -23.3428  -13.1149 C   0  0  0  0  0  0  0  0  0  0  0  0
   22.5208  -21.9890  -12.6630 C   0  0  2  0  0  0  0  0  0  0  0  0
   23.8546  -22.0340  -12.0324 N   0  0  0  0  0  0  0  0  0  0  0  0
   21.6228  -21.3258  -11.7058 C   0  0  0  0  0  0  0  0  0  0  0  0
   21.8571  -21.3599  -10.4486 O   0  0  0  0  0  0  0  0  0  0  0  0
   20.4817  -20.6254  -12.0543 O   0  0  0  0  0  0  0  0  0  0  0  0
  2  1  1  6
  3  4  1  0
  3  2  1  0
  4  5  2  0
  5  6  1  0
  7  6  2  0
  8  7  1  0
  9  8  2  0
  9  4  1  0
 10  2  1  0
 10 11  2  0
 12 13  1  0
 13 14  1  0
 16 15  1  1
 15 14  1  0
 16 17  1  0
 17 10  1  0
 18 16  1  0
 19 18  2  0
 20 21  1  0
 21 22  2  0
 23 21  1  0
 23 24  1  0
 25 24  1  1
 25 27  1  0
 25 26  1  0
 26 18  1  0
 27 29  1  0
 28 27  2  0
M  END
$$$$
