FMQ.pdb
     RDKit          3D

 29 29  0  0  1  0  0  0  0  0999 V2000
   24.0224  -11.9808  -21.6063 N   0  0  0  0  0  0  0  0  0  0  0  0
   23.7216  -10.6472  -21.0928 C   0  0  1  0  0  0  0  0  0  0  0  0
   22.5128  -10.1565  -21.8689 C   0  0  0  0  0  0  0  0  0  0  0  0
   23.0345   -9.6828  -23.1843 C   0  0  0  0  0  0  0  0  0  0  0  0
   23.4674   -8.3812  -23.3487 C   0  0  0  0  0  0  0  0  0  0  0  0
   23.9538   -7.9321  -24.5674 C   0  0  0  0  0  0  0  0  0  0  0  0
   24.0252   -8.7656  -25.6639 C   0  0  0  0  0  0  0  0  0  0  0  0
   23.5942  -10.0619  -25.5004 C   0  0  0  0  0  0  0  0  0  0  0  0
   23.1104  -10.5132  -24.2928 C   0  0  0  0  0  0  0  0  0  0  0  0
   23.4906  -10.7000  -19.6412 C   0  0  0  0  0  0  0  0  0  0  0  0
   22.8249  -11.6396  -19.1489 O   0  0  0  0  0  0  0  0  0  0  0  0
   28.5846   -9.9747  -16.8255 C   0  0  0  0  0  0  0  0  0  0  0  0
   27.3930  -10.6186  -15.6463 S   0  0  0  0  0  0  0  0  0  0  0  0
   25.7626  -10.8801  -16.3637 C   0  0  0  0  0  0  0  0  0  0  0  0
   25.0171   -9.6239  -16.6304 C   0  0  0  0  0  0  0  0  0  0  0  0
   23.6935   -9.7679  -17.3212 C   0  0  2  0  0  0  0  0  0  0  0  0
   23.9978   -9.7193  -18.7741 N   0  0  0  0  0  0  0  0  0  0  0  0
   22.7409   -8.6674  -17.0716 C   0  0  0  0  0  0  0  0  0  0  0  0
   22.9919   -7.4791  -17.4883 O   0  0  0  0  0  0  0  0  0  0  0  0
   16.6627   -8.8253  -15.6879 N   0  0  0  0  0  0  0  0  0  0  0  0
   16.8613   -7.4262  -15.7089 C   0  0  0  0  0  0  0  0  0  0  0  0
   15.9167   -6.6202  -15.5799 O   0  0  0  0  0  0  0  0  0  0  0  0
   18.2528   -6.9093  -15.8922 C   0  0  0  0  0  0  0  0  0  0  0  0
   19.1798   -8.0616  -16.1782 C   0  0  0  0  0  0  0  0  0  0  0  0
   20.6035   -7.6255  -16.2049 C   0  0  2  0  0  0  0  0  0  0  0  0
   21.5084   -8.7773  -16.3877 N   0  0  0  0  0  0  0  0  0  0  0  0
   21.0717   -6.9053  -15.0114 C   0  0  0  0  0  0  0  0  0  0  0  0
   21.5632   -7.5343  -14.0116 O   0  0  0  0  0  0  0  0  0  0  0  0
   21.0312   -5.5311  -14.8564 O   0  0  0  0  0  0  0  0  0  0  0  0
  2  1  1  6
  3  4  1  0
  3  2  1  0
  4  5  2  0
  5  6  1  0
  7  6  2  0
  8  7  1  0
  9  8  2  0
  9  4  1  0
 10  2  1  0
 10 11  2  0
 12 13  1  0
 13 14  1  0
 16 15  1  1
 15 14  1  0
 16 17  1  0
 17 10  1  0
 18 16  1  0
 19 18  2  0
 20 21  1  0
 21 22  2  0
 23 21  1  0
 23 24  1  0
 25 24  1  1
 25 27  1  0
 25 26  1  0
 26 18  1  0
 27 29  1  0
 28 27  2  0
M  END
$$$$
