FMQ.pdb
     RDKit          3D

 29 29  0  0  1  0  0  0  0  0999 V2000
   23.1108  -16.0336  -15.7888 N   0  0  0  0  0  0  0  0  0  0  0  0
   24.0666  -16.7491  -16.6297 C   0  0  1  0  0  0  0  0  0  0  0  0
   24.6343  -15.7233  -17.5939 C   0  0  0  0  0  0  0  0  0  0  0  0
   23.5731  -15.4905  -18.6168 C   0  0  0  0  0  0  0  0  0  0  0  0
   22.9465  -14.2638  -18.7228 C   0  0  0  0  0  0  0  0  0  0  0  0
   21.9592  -14.0384  -19.6703 C   0  0  0  0  0  0  0  0  0  0  0  0
   21.5629  -15.0286  -20.5447 C   0  0  0  0  0  0  0  0  0  0  0  0
   22.1867  -16.2503  -20.4394 C   0  0  0  0  0  0  0  0  0  0  0  0
   23.1675  -16.4797  -19.5007 C   0  0  0  0  0  0  0  0  0  0  0  0
   25.0972  -17.3897  -15.7986 C   0  0  0  0  0  0  0  0  0  0  0  0
   25.8819  -16.6846  -15.1236 O   0  0  0  0  0  0  0  0  0  0  0  0
   26.4803  -17.3854  -10.2022 C   0  0  0  0  0  0  0  0  0  0  0  0
   27.1734  -18.7083  -11.1995 S   0  0  0  0  0  0  0  0  0  0  0  0
   25.9295  -19.6062  -12.1417 C   0  0  0  0  0  0  0  0  0  0  0  0
   25.4908  -18.9050  -13.3750 C   0  0  0  0  0  0  0  0  0  0  0  0
   26.0572  -19.4126  -14.6678 C   0  0  2  0  0  0  0  0  0  0  0  0
   25.2349  -18.7853  -15.7338 N   0  0  0  0  0  0  0  0  0  0  0  0
   25.9339  -20.8705  -14.8687 C   0  0  0  0  0  0  0  0  0  0  0  0
   24.8053  -21.4596  -14.7022 O   0  0  0  0  0  0  0  0  0  0  0  0
   25.6587  -22.9563  -11.7384 N   0  0  0  0  0  0  0  0  0  0  0  0
   24.5618  -23.2750  -12.5706 C   0  0  0  0  0  0  0  0  0  0  0  0
   23.3813  -23.1906  -12.1731 O   0  0  0  0  0  0  0  0  0  0  0  0
   24.8392  -23.7262  -13.9693 C   0  0  0  0  0  0  0  0  0  0  0  0
   26.3274  -23.8420  -14.1706 C   0  0  0  0  0  0  0  0  0  0  0  0
   26.7605  -23.1935  -15.4393 C   0  0  2  0  0  0  0  0  0  0  0  0
   26.9771  -21.7458  -15.2487 N   0  0  0  0  0  0  0  0  0  0  0  0
   25.8380  -23.3369  -16.5755 C   0  0  0  0  0  0  0  0  0  0  0  0
   24.9497  -22.4495  -16.8204 O   0  0  0  0  0  0  0  0  0  0  0  0
   25.8388  -24.4016  -17.4589 O   0  0  0  0  0  0  0  0  0  0  0  0
  2  1  1  1
  3  4  1  0
  3  2  1  0
  4  5  2  0
  5  6  1  0
  7  6  2  0
  8  7  1  0
  9  8  2  0
  9  4  1  0
 10  2  1  0
 10 11  2  0
 12 13  1  0
 13 14  1  0
 16 15  1  1
 15 14  1  0
 16 17  1  0
 17 10  1  0
 18 16  1  0
 19 18  2  0
 20 21  1  0
 21 22  2  0
 23 21  1  0
 23 24  1  0
 25 24  1  1
 25 27  1  0
 25 26  1  0
 26 18  1  0
 27 29  1  0
 28 27  2  0
M  END
$$$$
