FMQ.pdb
     RDKit          3D

 29 29  0  0  1  0  0  0  0  0999 V2000
   28.1564  -18.3024  -15.2981 N   0  0  0  0  0  0  0  0  0  0  0  0
   26.7069  -18.4372  -15.4140 C   0  0  1  0  0  0  0  0  0  0  0  0
   26.3784  -18.2368  -16.8824 C   0  0  0  0  0  0  0  0  0  0  0  0
   26.6434  -16.7965  -17.1691 C   0  0  0  0  0  0  0  0  0  0  0  0
   25.9068  -15.8033  -16.5530 C   0  0  0  0  0  0  0  0  0  0  0  0
   26.1460  -14.4622  -16.8134 C   0  0  0  0  0  0  0  0  0  0  0  0
   27.1278  -14.0657  -17.6970 C   0  0  0  0  0  0  0  0  0  0  0  0
   27.8615  -15.0546  -18.3106 C   0  0  0  0  0  0  0  0  0  0  0  0
   27.6284  -16.3876  -18.0560 C   0  0  0  0  0  0  0  0  0  0  0  0
   26.2741  -19.7459  -14.9010 C   0  0  0  0  0  0  0  0  0  0  0  0
   27.1117  -20.6643  -14.7475 O   0  0  0  0  0  0  0  0  0  0  0  0
   26.4358  -19.7288   -9.6525 C   0  0  0  0  0  0  0  0  0  0  0  0
   25.8895  -21.4363   -9.7574 S   0  0  0  0  0  0  0  0  0  0  0  0
   24.9673  -21.7898  -11.2627 C   0  0  0  0  0  0  0  0  0  0  0  0
   25.2816  -20.8721  -12.3870 C   0  0  0  0  0  0  0  0  0  0  0  0
   24.5841  -21.1462  -13.6863 C   0  0  2  0  0  0  0  0  0  0  0  0
   24.9344  -20.0066  -14.5719 N   0  0  0  0  0  0  0  0  0  0  0  0
   23.1094  -21.1577  -13.6079 C   0  0  0  0  0  0  0  0  0  0  0  0
   22.4719  -20.1425  -13.1479 O   0  0  0  0  0  0  0  0  0  0  0  0
   18.6164  -24.8632  -12.2641 N   0  0  0  0  0  0  0  0  0  0  0  0
   19.7254  -25.4748  -12.8912 C   0  0  0  0  0  0  0  0  0  0  0  0
   19.6396  -26.5862  -13.4536 O   0  0  0  0  0  0  0  0  0  0  0  0
   21.0370  -24.7562  -12.8727 C   0  0  0  0  0  0  0  0  0  0  0  0
   20.8274  -23.3472  -12.3833 C   0  0  0  0  0  0  0  0  0  0  0  0
   20.8876  -22.3647  -13.5008 C   0  0  2  0  0  0  0  0  0  0  0  0
   22.2665  -22.2201  -14.0072 N   0  0  0  0  0  0  0  0  0  0  0  0
   20.4091  -21.0105  -13.1850 C   0  0  0  0  0  0  0  0  0  0  0  0
   20.3697  -20.5893  -11.9776 O   0  0  0  0  0  0  0  0  0  0  0  0
   19.9727  -20.0924  -14.1235 O   0  0  0  0  0  0  0  0  0  0  0  0
  2  1  1  6
  3  4  1  0
  3  2  1  0
  4  5  2  0
  5  6  1  0
  7  6  2  0
  8  7  1  0
  9  8  2  0
  9  4  1  0
 10  2  1  0
 10 11  2  0
 12 13  1  0
 13 14  1  0
 16 15  1  1
 15 14  1  0
 16 17  1  0
 17 10  1  0
 18 16  1  0
 19 18  2  0
 20 21  1  0
 21 22  2  0
 23 21  1  0
 23 24  1  0
 25 24  1  1
 25 27  1  0
 25 26  1  0
 26 18  1  0
 27 29  1  0
 28 27  2  0
M  END
$$$$
