FMQ.pdb
     RDKit          3D

 29 29  0  0  1  0  0  0  0  0999 V2000
   27.6709  -20.7533  -15.1079 N   0  0  0  0  0  0  0  0  0  0  0  0
   26.8147  -21.2946  -14.0560 C   0  0  1  0  0  0  0  0  0  0  0  0
   26.7660  -20.2409  -12.9644 C   0  0  0  0  0  0  0  0  0  0  0  0
   27.9972  -20.4416  -12.1455 C   0  0  0  0  0  0  0  0  0  0  0  0
   27.9830  -21.2586  -11.0316 C   0  0  0  0  0  0  0  0  0  0  0  0
   29.1224  -21.4510  -10.2644 C   0  0  0  0  0  0  0  0  0  0  0  0
   30.3149  -20.8352  -10.5819 C   0  0  0  0  0  0  0  0  0  0  0  0
   30.3293  -20.0216  -11.6912 C   0  0  0  0  0  0  0  0  0  0  0  0
   29.2012  -19.8269  -12.4564 C   0  0  0  0  0  0  0  0  0  0  0  0
   25.4875  -21.6234  -14.5978 C   0  0  0  0  0  0  0  0  0  0  0  0
   24.8926  -20.8025  -15.3331 O   0  0  0  0  0  0  0  0  0  0  0  0
   23.3279  -27.7766  -14.4475 C   0  0  0  0  0  0  0  0  0  0  0  0
   22.1254  -26.9943  -15.5278 S   0  0  0  0  0  0  0  0  0  0  0  0
   22.1256  -25.1986  -15.3989 C   0  0  0  0  0  0  0  0  0  0  0  0
   23.4051  -24.6341  -14.8996 C   0  0  0  0  0  0  0  0  0  0  0  0
   23.5059  -23.1379  -14.8665 C   0  0  2  0  0  0  0  0  0  0  0  0
   24.8536  -22.8439  -14.3159 N   0  0  0  0  0  0  0  0  0  0  0  0
   22.5468  -22.4718  -13.9626 C   0  0  0  0  0  0  0  0  0  0  0  0
   22.7217  -22.4976  -12.6908 O   0  0  0  0  0  0  0  0  0  0  0  0
   22.1119  -17.9130  -14.7218 N   0  0  0  0  0  0  0  0  0  0  0  0
   20.7120  -17.7624  -14.6006 C   0  0  0  0  0  0  0  0  0  0  0  0
   20.0846  -16.8757  -15.2162 O   0  0  0  0  0  0  0  0  0  0  0  0
   19.9718  -18.7022  -13.7029 C   0  0  0  0  0  0  0  0  0  0  0  0
   20.9368  -19.7028  -13.1230 C   0  0  0  0  0  0  0  0  0  0  0  0
   20.4986  -21.1017  -13.3854 C   0  0  2  0  0  0  0  0  0  0  0  0
   21.3891  -21.7635  -14.3589 N   0  0  0  0  0  0  0  0  0  0  0  0
   19.1275  -21.2551  -13.8944 C   0  0  0  0  0  0  0  0  0  0  0  0
   18.1161  -21.0590  -13.1359 O   0  0  0  0  0  0  0  0  0  0  0  0
   18.8062  -21.6108  -15.1923 O   0  0  0  0  0  0  0  0  0  0  0  0
  2  1  1  6
  3  4  1  0
  3  2  1  0
  4  5  2  0
  5  6  1  0
  7  6  2  0
  8  7  1  0
  9  8  2  0
  9  4  1  0
 10  2  1  0
 10 11  2  0
 12 13  1  0
 13 14  1  0
 16 15  1  1
 15 14  1  0
 16 17  1  0
 17 10  1  0
 18 16  1  0
 19 18  2  0
 20 21  1  0
 21 22  2  0
 23 21  1  0
 23 24  1  0
 25 24  1  6
 25 27  1  0
 25 26  1  0
 26 18  1  0
 27 29  1  0
 28 27  2  0
M  END
$$$$
