FMQ.pdb
     RDKit          3D

 29 29  0  0  1  0  0  0  0  0999 V2000
   28.2701  -19.2701  -15.9577 N   0  0  0  0  0  0  0  0  0  0  0  0
   27.3096  -18.7372  -14.9954 C   0  0  1  0  0  0  0  0  0  0  0  0
   26.3976  -17.8083  -15.7764 C   0  0  0  0  0  0  0  0  0  0  0  0
   27.1678  -16.5450  -15.9704 C   0  0  0  0  0  0  0  0  0  0  0  0
   27.9085  -16.3347  -17.1174 C   0  0  0  0  0  0  0  0  0  0  0  0
   28.6275  -15.1638  -17.3063 C   0  0  0  0  0  0  0  0  0  0  0  0
   28.6324  -14.1626  -16.3579 C   0  0  0  0  0  0  0  0  0  0  0  0
   27.8948  -14.3718  -15.2155 C   0  0  0  0  0  0  0  0  0  0  0  0
   27.1791  -15.5322  -15.0226 C   0  0  0  0  0  0  0  0  0  0  0  0
   26.5853  -19.8349  -14.3369 C   0  0  0  0  0  0  0  0  0  0  0  0
   26.3132  -20.8760  -14.9776 O   0  0  0  0  0  0  0  0  0  0  0  0
   26.1917  -20.1226   -7.9232 C   0  0  0  0  0  0  0  0  0  0  0  0
   24.9560  -21.3699   -8.3010 S   0  0  0  0  0  0  0  0  0  0  0  0
   24.7269  -21.6219  -10.0688 C   0  0  0  0  0  0  0  0  0  0  0  0
   25.5090  -20.6841  -10.9138 C   0  0  0  0  0  0  0  0  0  0  0  0
   25.3384  -20.8231  -12.3975 C   0  0  2  0  0  0  0  0  0  0  0  0
   26.1816  -19.7562  -12.9946 N   0  0  0  0  0  0  0  0  0  0  0  0
   23.9680  -20.5771  -12.8898 C   0  0  0  0  0  0  0  0  0  0  0  0
   23.2904  -19.5740  -12.4616 O   0  0  0  0  0  0  0  0  0  0  0  0
   20.4450  -22.1534  -10.4172 N   0  0  0  0  0  0  0  0  0  0  0  0
   19.6386  -22.8529  -11.3434 C   0  0  0  0  0  0  0  0  0  0  0  0
   18.4352  -23.0998  -11.1212 O   0  0  0  0  0  0  0  0  0  0  0  0
   20.2604  -23.3056  -12.6262 C   0  0  0  0  0  0  0  0  0  0  0  0
   21.6866  -22.8250  -12.6867 C   0  0  0  0  0  0  0  0  0  0  0  0
   21.8514  -21.7220  -13.6735 C   0  0  2  0  0  0  0  0  0  0  0  0
   23.2740  -21.3641  -13.8373 N   0  0  0  0  0  0  0  0  0  0  0  0
   21.1352  -20.4760  -13.3620 C   0  0  0  0  0  0  0  0  0  0  0  0
   21.5268  -19.7086  -12.4162 O   0  0  0  0  0  0  0  0  0  0  0  0
   20.0128  -20.0256  -14.0338 O   0  0  0  0  0  0  0  0  0  0  0  0
  2  1  1  6
  3  4  1  0
  3  2  1  0
  4  5  2  0
  5  6  1  0
  7  6  2  0
  8  7  1  0
  9  8  2  0
  9  4  1  0
 10  2  1  0
 10 11  2  0
 12 13  1  0
 13 14  1  0
 16 15  1  1
 15 14  1  0
 16 17  1  0
 17 10  1  0
 18 16  1  0
 19 18  2  0
 20 21  1  0
 21 22  2  0
 23 21  1  0
 23 24  1  0
 25 24  1  1
 25 27  1  0
 25 26  1  0
 26 18  1  0
 27 29  1  0
 28 27  2  0
M  END
$$$$
