FMQ.pdb
     RDKit          3D

 29 29  0  0  1  0  0  0  0  0999 V2000
   13.7519   -8.9076   -8.7557 N   0  0  0  0  0  0  0  0  0  0  0  0
   15.0475   -8.7605   -9.4133 C   0  0  1  0  0  0  0  0  0  0  0  0
   14.9958   -9.6352  -10.6528 C   0  0  0  0  0  0  0  0  0  0  0  0
   14.9504  -11.0429  -10.1597 C   0  0  0  0  0  0  0  0  0  0  0  0
   16.1136  -11.7480   -9.9183 C   0  0  0  0  0  0  0  0  0  0  0  0
   16.0811  -13.0567   -9.4600 C   0  0  0  0  0  0  0  0  0  0  0  0
   14.8874  -13.7069   -9.2268 C   0  0  0  0  0  0  0  0  0  0  0  0
   13.7289  -13.0049   -9.4671 C   0  0  0  0  0  0  0  0  0  0  0  0
   13.7552  -11.7056   -9.9221 C   0  0  0  0  0  0  0  0  0  0  0  0
   15.3065   -7.3452   -9.7183 C   0  0  0  0  0  0  0  0  0  0  0  0
   14.3782   -6.5087   -9.6352 O   0  0  0  0  0  0  0  0  0  0  0  0
   16.8393   -0.6698   -7.6636 C   0  0  0  0  0  0  0  0  0  0  0  0
   16.3663   -2.4022   -7.6663 S   0  0  0  0  0  0  0  0  0  0  0  0
   16.8583   -3.2645   -9.1682 C   0  0  0  0  0  0  0  0  0  0  0  0
   16.5073   -4.7074   -9.1726 C   0  0  0  0  0  0  0  0  0  0  0  0
   16.7976   -5.4603  -10.4370 C   0  0  2  0  0  0  0  0  0  0  0  0
   16.5774   -6.8911  -10.1054 N   0  0  0  0  0  0  0  0  0  0  0  0
   18.1939   -5.3657  -10.9083 C   0  0  0  0  0  0  0  0  0  0  0  0
   19.1645   -5.7353  -10.1533 O   0  0  0  0  0  0  0  0  0  0  0  0
   20.7944   -8.5506  -13.6790 N   0  0  0  0  0  0  0  0  0  0  0  0
   21.6792   -7.6465  -14.3090 C   0  0  0  0  0  0  0  0  0  0  0  0
   22.8339   -7.9773  -14.6497 O   0  0  0  0  0  0  0  0  0  0  0  0
   21.2035   -6.2526  -14.5696 C   0  0  0  0  0  0  0  0  0  0  0  0
   19.8576   -6.0554  -13.9229 C   0  0  0  0  0  0  0  0  0  0  0  0
   19.9503   -5.1810  -12.7210 C   0  0  2  0  0  0  0  0  0  0  0  0
   18.6116   -4.8890  -12.1721 N   0  0  0  0  0  0  0  0  0  0  0  0
   20.6152   -3.8853  -12.9255 C   0  0  0  0  0  0  0  0  0  0  0  0
   19.9363   -2.8190  -13.1225 O   0  0  0  0  0  0  0  0  0  0  0  0
   21.9857   -3.6964  -12.9238 O   0  0  0  0  0  0  0  0  0  0  0  0
  2  1  1  6
  3  4  1  0
  3  2  1  0
  4  5  2  0
  5  6  1  0
  7  6  2  0
  8  7  1  0
  9  8  2  0
  9  4  1  0
 10  2  1  0
 10 11  2  0
 12 13  1  0
 13 14  1  0
 16 15  1  1
 15 14  1  0
 16 17  1  0
 17 10  1  0
 18 16  1  0
 19 18  2  0
 20 21  1  0
 21 22  2  0
 23 21  1  0
 23 24  1  0
 25 24  1  6
 25 27  1  0
 25 26  1  0
 26 18  1  0
 27 29  1  0
 28 27  2  0
M  END
$$$$
