FMQ.pdb
     RDKit          3D

 29 29  0  0  1  0  0  0  0  0999 V2000
   28.7043  -20.2143  -15.3109 N   0  0  0  0  0  0  0  0  0  0  0  0
   27.7408  -19.4841  -14.4918 C   0  0  1  0  0  0  0  0  0  0  0  0
   26.7690  -18.8329  -15.4592 C   0  0  0  0  0  0  0  0  0  0  0  0
   27.4432  -17.5938  -15.9459 C   0  0  0  0  0  0  0  0  0  0  0  0
   27.4548  -16.4445  -15.1795 C   0  0  0  0  0  0  0  0  0  0  0  0
   28.0788  -15.2883  -15.6238 C   0  0  0  0  0  0  0  0  0  0  0  0
   28.7127  -15.2387  -16.8475 C   0  0  0  0  0  0  0  0  0  0  0  0
   28.7014  -16.3832  -17.6110 C   0  0  0  0  0  0  0  0  0  0  0  0
   28.0835  -17.5338  -17.1750 C   0  0  0  0  0  0  0  0  0  0  0  0
   27.0839  -20.3958  -13.5429 C   0  0  0  0  0  0  0  0  0  0  0  0
   26.8192  -21.5705  -13.8873 O   0  0  0  0  0  0  0  0  0  0  0  0
   27.5290  -19.9933   -6.9992 C   0  0  0  0  0  0  0  0  0  0  0  0
   25.7938  -20.3916   -7.2349 S   0  0  0  0  0  0  0  0  0  0  0  0
   25.4368  -21.0424   -8.8751 C   0  0  0  0  0  0  0  0  0  0  0  0
   26.1789  -20.3594   -9.9650 C   0  0  0  0  0  0  0  0  0  0  0  0
   25.9734  -20.8969  -11.3502 C   0  0  2  0  0  0  0  0  0  0  0  0
   26.7377  -19.9902  -12.2442 N   0  0  0  0  0  0  0  0  0  0  0  0
   24.5776  -20.8549  -11.8307 C   0  0  0  0  0  0  0  0  0  0  0  0
   24.0589  -19.7520  -12.2349 O   0  0  0  0  0  0  0  0  0  0  0  0
   24.2586  -24.7794  -14.1929 N   0  0  0  0  0  0  0  0  0  0  0  0
   23.6904  -23.9965  -15.2232 C   0  0  0  0  0  0  0  0  0  0  0  0
   24.1204  -24.0290  -16.3948 O   0  0  0  0  0  0  0  0  0  0  0  0
   22.5379  -23.1055  -14.8844 C   0  0  0  0  0  0  0  0  0  0  0  0
   22.2380  -23.2151  -13.4124 C   0  0  0  0  0  0  0  0  0  0  0  0
   22.4572  -21.9199  -12.7109 C   0  0  2  0  0  0  0  0  0  0  0  0
   23.6929  -21.9552  -11.9043 N   0  0  0  0  0  0  0  0  0  0  0  0
   21.3764  -21.4924  -11.8100 C   0  0  0  0  0  0  0  0  0  0  0  0
   21.5634  -21.4113  -10.5470 O   0  0  0  0  0  0  0  0  0  0  0  0
   20.1012  -21.1472  -12.2207 O   0  0  0  0  0  0  0  0  0  0  0  0
  2  1  1  6
  3  4  1  0
  3  2  1  0
  4  5  2  0
  5  6  1  0
  7  6  2  0
  8  7  1  0
  9  8  2  0
  9  4  1  0
 10  2  1  0
 10 11  2  0
 12 13  1  0
 13 14  1  0
 16 15  1  1
 15 14  1  0
 16 17  1  0
 17 10  1  0
 18 16  1  0
 19 18  2  0
 20 21  1  0
 21 22  2  0
 23 21  1  0
 23 24  1  0
 25 24  1  1
 25 27  1  0
 25 26  1  0
 26 18  1  0
 27 29  1  0
 28 27  2  0
M  END
$$$$
