LVA.pdb
     RDKit          3D

 21 20  0  0  1  0  0  0  0  0999 V2000
    5.9213  -12.1874   25.7082 C   0  0  0  0  0  0  0  0  0  0  0  0
    6.3925  -12.7778   27.0204 C   0  0  2  0  0  0  0  0  0  0  0  0
    7.1817  -11.8181   27.8503 C   0  0  0  0  0  0  0  0  0  0  0  0
    7.2109  -14.0270   26.6652 C   0  0  0  0  0  0  0  0  0  0  0  0
    6.3853  -14.7923   25.6565 C   0  0  2  0  0  0  0  0  0  0  0  0
    5.4989  -15.6625   26.3947 N   0  0  0  0  0  0  0  0  0  0  0  0
    7.2188  -15.5573   24.7108 C   0  0  0  0  0  0  0  0  0  0  0  0
    7.5687  -16.7265   25.0114 O   0  0  0  0  0  0  0  0  0  0  0  0
    9.1932  -15.5731   20.1346 C   0  0  0  0  0  0  0  0  0  0  0  0
    8.3598  -14.9078   21.2006 C   0  0  1  0  0  0  0  0  0  0  0  0
    6.9430  -14.6782   20.7525 C   0  0  0  0  0  0  0  0  0  0  0  0
    8.4160  -15.7114   22.4949 C   0  0  2  0  0  0  0  0  0  0  0  0
    7.6219  -14.9822   23.4758 N   0  0  0  0  0  0  0  0  0  0  0  0
    9.7958  -15.7983   23.0114 C   0  0  0  0  0  0  0  0  0  0  0  0
   10.4453  -14.7647   23.3870 O   0  0  0  0  0  0  0  0  0  0  0  0
   12.0613  -18.5263   24.1529 C   0  0  0  0  0  0  0  0  0  0  0  0
   11.8567  -17.1006   23.6791 C   0  0  2  0  0  0  0  0  0  0  0  0
   10.5020  -17.0323   23.1290 N   0  0  0  0  0  0  0  0  0  0  0  0
   12.8451  -16.7023   22.6587 C   0  0  0  0  0  0  0  0  0  0  0  0
   12.5234  -16.8839   21.3263 O   0  0  0  0  0  0  0  0  0  0  0  0
   13.9363  -16.2169   22.9978 O   0  0  0  0  0  0  0  0  0  0  0  0
  2  1  1  6
  3  2  1  0
  4  5  1  0
  4  2  1  0
  5  7  1  0
  5  6  1  1
  7 13  1  0
  7  8  2  0
 10  9  1  6
 11 10  1  0
 12 10  1  0
 12 14  1  0
 12 13  1  1
 14 15  2  0
 17 16  1  6
 17 19  1  0
 18 17  1  0
 18 14  1  0
 19 21  2  0
 19 20  1  0
M  END
$$$$
