LVA.pdb
     RDKit          3D

 21 20  0  0  1  0  0  0  0  0999 V2000
    5.5025  -17.7981   21.5283 C   0  0  0  0  0  0  0  0  0  0  0  0
    6.9465  -18.0161   21.1286 C   0  0  2  0  0  0  0  0  0  0  0  0
    7.3136  -19.4591   21.0041 C   0  0  0  0  0  0  0  0  0  0  0  0
    7.8017  -17.3022   22.1849 C   0  0  0  0  0  0  0  0  0  0  0  0
    7.3992  -15.8463   22.1314 C   0  0  2  0  0  0  0  0  0  0  0  0
    7.7136  -15.3594   20.8077 N   0  0  0  0  0  0  0  0  0  0  0  0
    8.0665  -15.0390   23.1695 C   0  0  0  0  0  0  0  0  0  0  0  0
    9.2598  -14.6849   22.9956 O   0  0  0  0  0  0  0  0  0  0  0  0
    7.4617  -12.5739   27.4434 C   0  0  0  0  0  0  0  0  0  0  0  0
    6.9164  -13.1925   26.1812 C   0  0  1  0  0  0  0  0  0  0  0  0
    6.2531  -12.1774   25.2921 C   0  0  0  0  0  0  0  0  0  0  0  0
    8.0156  -13.9503   25.4453 C   0  0  2  0  0  0  0  0  0  0  0  0
    7.3713  -14.6655   24.3509 N   0  0  0  0  0  0  0  0  0  0  0  0
    8.6532  -14.9527   26.3211 C   0  0  0  0  0  0  0  0  0  0  0  0
    7.9835  -15.8795   26.8900 O   0  0  0  0  0  0  0  0  0  0  0  0
   12.1363  -16.0743   26.9630 C   0  0  0  0  0  0  0  0  0  0  0  0
   10.6809  -16.0226   27.3852 C   0  0  2  0  0  0  0  0  0  0  0  0
   10.0531  -14.9620   26.5957 N   0  0  0  0  0  0  0  0  0  0  0  0
   10.5254  -15.7493   28.8268 C   0  0  0  0  0  0  0  0  0  0  0  0
   10.8977  -16.7318   29.7256 O   0  0  0  0  0  0  0  0  0  0  0  0
   10.0704  -14.6609   29.2136 O   0  0  0  0  0  0  0  0  0  0  0  0
  2  1  1  1
  3  2  1  0
  4  5  1  0
  4  2  1  0
  5  7  1  0
  5  6  1  6
  7 13  1  0
  7  8  2  0
 10  9  1  1
 11 10  1  0
 12 10  1  0
 12 14  1  0
 12 13  1  6
 14 15  2  0
 17 16  1  6
 17 19  1  0
 18 17  1  0
 18 14  1  0
 19 21  2  0
 19 20  1  0
M  END
$$$$
