LVA.pdb
     RDKit          3D

 21 20  0  0  1  0  0  0  0  0999 V2000
    6.0186  -11.9041   25.5651 C   0  0  0  0  0  0  0  0  0  0  0  0
    6.3638  -12.4936   26.9163 C   0  0  2  0  0  0  0  0  0  0  0  0
    7.1591  -11.5682   27.7787 C   0  0  0  0  0  0  0  0  0  0  0  0
    7.1192  -13.8009   26.6394 C   0  0  0  0  0  0  0  0  0  0  0  0
    6.2894  -14.5541   25.6251 C   0  0  2  0  0  0  0  0  0  0  0  0
    5.3189  -15.3363   26.3560 N   0  0  0  0  0  0  0  0  0  0  0  0
    7.1112  -15.4078   24.7474 C   0  0  0  0  0  0  0  0  0  0  0  0
    7.3697  -16.5842   25.1064 O   0  0  0  0  0  0  0  0  0  0  0  0
    9.1847  -15.7769   20.2368 C   0  0  0  0  0  0  0  0  0  0  0  0
    8.3346  -15.0345   21.2366 C   0  0  1  0  0  0  0  0  0  0  0  0
    6.9201  -14.8573   20.7585 C   0  0  0  0  0  0  0  0  0  0  0  0
    8.3860  -15.7276   22.5934 C   0  0  2  0  0  0  0  0  0  0  0  0
    7.6049  -14.9089   23.5122 N   0  0  0  0  0  0  0  0  0  0  0  0
    9.7667  -15.7885   23.1114 C   0  0  0  0  0  0  0  0  0  0  0  0
   10.4388  -14.7350   23.3751 O   0  0  0  0  0  0  0  0  0  0  0  0
   11.9987  -18.3899   24.5489 C   0  0  0  0  0  0  0  0  0  0  0  0
   11.8253  -17.0554   23.8503 C   0  0  2  0  0  0  0  0  0  0  0  0
   10.4487  -17.0178   23.3544 N   0  0  0  0  0  0  0  0  0  0  0  0
   12.7765  -16.8788   22.7363 C   0  0  0  0  0  0  0  0  0  0  0  0
   14.0132  -16.3243   23.0101 O   0  0  0  0  0  0  0  0  0  0  0  0
   12.4651  -17.2226   21.5847 O   0  0  0  0  0  0  0  0  0  0  0  0
  2  1  1  6
  3  2  1  0
  4  5  1  0
  4  2  1  0
  5  7  1  0
  5  6  1  1
  7 13  1  0
  7  8  2  0
 10  9  1  6
 11 10  1  0
 12 10  1  0
 12 14  1  0
 12 13  1  1
 14 15  2  0
 17 16  1  6
 17 19  1  0
 18 17  1  0
 18 14  1  0
 19 21  2  0
 19 20  1  0
M  END
$$$$
