LVA.pdb
     RDKit          3D

 21 20  0  0  1  0  0  0  0  0999 V2000
    4.8785  -18.5298   22.5946 C   0  0  0  0  0  0  0  0  0  0  0  0
    6.3033  -18.9073   22.2483 C   0  0  2  0  0  0  0  0  0  0  0  0
    6.5568  -20.3784   22.3122 C   0  0  0  0  0  0  0  0  0  0  0  0
    7.2056  -18.1334   23.2196 C   0  0  0  0  0  0  0  0  0  0  0  0
    7.1207  -16.6835   22.8008 C   0  0  2  0  0  0  0  0  0  0  0  0
    7.5661  -16.6033   21.4285 N   0  0  0  0  0  0  0  0  0  0  0  0
    7.9149  -15.7980   23.6724 C   0  0  0  0  0  0  0  0  0  0  0  0
    9.1589  -15.7317   23.5059 O   0  0  0  0  0  0  0  0  0  0  0  0
    7.7029  -12.5010   27.4068 C   0  0  0  0  0  0  0  0  0  0  0  0
    7.0323  -13.2887   26.3099 C   0  0  1  0  0  0  0  0  0  0  0  0
    6.3427  -12.3995   25.3126 C   0  0  0  0  0  0  0  0  0  0  0  0
    8.0361  -14.2165   25.6348 C   0  0  2  0  0  0  0  0  0  0  0  0
    7.2841  -15.0294   24.6871 N   0  0  0  0  0  0  0  0  0  0  0  0
    8.6610  -15.1302   26.6111 C   0  0  0  0  0  0  0  0  0  0  0  0
    7.9707  -15.9269   27.3320 O   0  0  0  0  0  0  0  0  0  0  0  0
   11.9936  -16.5859   27.0878 C   0  0  0  0  0  0  0  0  0  0  0  0
   10.6781  -16.1746   27.7199 C   0  0  2  0  0  0  0  0  0  0  0  0
   10.0708  -15.1917   26.8212 N   0  0  0  0  0  0  0  0  0  0  0  0
   10.8599  -15.5960   29.0649 C   0  0  0  0  0  0  0  0  0  0  0  0
   10.5698  -14.2567   29.2487 O   0  0  0  0  0  0  0  0  0  0  0  0
   11.2639  -16.3024   30.0025 O   0  0  0  0  0  0  0  0  0  0  0  0
  2  1  1  1
  3  2  1  0
  4  5  1  0
  4  2  1  0
  5  7  1  0
  5  6  1  6
  7 13  1  0
  7  8  2  0
 10  9  1  1
 11 10  1  0
 12 10  1  0
 12 14  1  0
 12 13  1  6
 14 15  2  0
 17 16  1  6
 17 19  1  0
 18 17  1  0
 18 14  1  0
 19 21  2  0
 19 20  1  0
M  END
$$$$
