LVA.pdb
     RDKit          3D

 21 20  0  0  1  0  0  0  0  0999 V2000
    4.7447  -19.5918   23.2479 C   0  0  0  0  0  0  0  0  0  0  0  0
    6.2455  -19.7877   23.2901 C   0  0  2  0  0  0  0  0  0  0  0  0
    6.6505  -21.1557   23.7338 C   0  0  0  0  0  0  0  0  0  0  0  0
    6.7989  -18.7015   24.2231 C   0  0  0  0  0  0  0  0  0  0  0  0
    6.5098  -17.3826   23.5438 C   0  0  2  0  0  0  0  0  0  0  0  0
    6.6955  -17.5778   22.1241 N   0  0  0  0  0  0  0  0  0  0  0  0
    7.3623  -16.2903   24.0484 C   0  0  0  0  0  0  0  0  0  0  0  0
    8.5090  -16.1334   23.5583 O   0  0  0  0  0  0  0  0  0  0  0  0
    7.6228  -12.4707   27.2402 C   0  0  0  0  0  0  0  0  0  0  0  0
    6.8201  -13.4468   26.4178 C   0  0  1  0  0  0  0  0  0  0  0  0
    5.8937  -12.7531   25.4579 C   0  0  0  0  0  0  0  0  0  0  0  0
    7.7467  -14.4209   25.6991 C   0  0  2  0  0  0  0  0  0  0  0  0
    6.8954  -15.4259   25.0747 N   0  0  0  0  0  0  0  0  0  0  0  0
    8.6351  -15.1159   26.6510 C   0  0  0  0  0  0  0  0  0  0  0  0
    8.1830  -15.9039   27.5486 O   0  0  0  0  0  0  0  0  0  0  0  0
   12.2892  -15.7890   26.8059 C   0  0  0  0  0  0  0  0  0  0  0  0
   10.9290  -15.7845   27.4757 C   0  0  2  0  0  0  0  0  0  0  0  0
   10.0533  -14.9611   26.6404 N   0  0  0  0  0  0  0  0  0  0  0  0
   10.9825  -15.2464   28.8485 C   0  0  0  0  0  0  0  0  0  0  0  0
   10.3843  -14.0253   29.0992 O   0  0  0  0  0  0  0  0  0  0  0  0
   11.5530  -15.8817   29.7497 O   0  0  0  0  0  0  0  0  0  0  0  0
  2  1  1  1
  3  2  1  0
  4  5  1  0
  4  2  1  0
  5  7  1  0
  5  6  1  6
  7 13  1  0
  7  8  2  0
 10  9  1  6
 11 10  1  0
 12 10  1  0
 12 14  1  0
 12 13  1  1
 14 15  2  0
 17 16  1  6
 17 19  1  0
 18 17  1  0
 18 14  1  0
 19 21  2  0
 19 20  1  0
M  END
$$$$
