LVA.pdb
     RDKit          3D

 21 20  0  0  1  0  0  0  0  0999 V2000
    5.1062  -17.0166   21.1588 C   0  0  0  0  0  0  0  0  0  0  0  0
    6.4467  -17.7146   21.0679 C   0  0  2  0  0  0  0  0  0  0  0  0
    6.3362  -19.2044   21.0377 C   0  0  0  0  0  0  0  0  0  0  0  0
    7.2702  -17.2311   22.2698 C   0  0  0  0  0  0  0  0  0  0  0  0
    7.3805  -15.7309   22.1221 C   0  0  2  0  0  0  0  0  0  0  0  0
    8.0208  -15.4674   20.8538 N   0  0  0  0  0  0  0  0  0  0  0  0
    8.1224  -15.1084   23.2341 C   0  0  0  0  0  0  0  0  0  0  0  0
    9.3769  -15.0558   23.1786 O   0  0  0  0  0  0  0  0  0  0  0  0
    7.6931  -12.6823   27.5657 C   0  0  0  0  0  0  0  0  0  0  0  0
    7.0965  -13.1909   26.2777 C   0  0  1  0  0  0  0  0  0  0  0  0
    6.5349  -12.0799   25.4345 C   0  0  0  0  0  0  0  0  0  0  0  0
    8.1222  -14.0159   25.5087 C   0  0  2  0  0  0  0  0  0  0  0  0
    7.4300  -14.5747   24.3541 N   0  0  0  0  0  0  0  0  0  0  0  0
    8.6200  -15.1432   26.3209 C   0  0  0  0  0  0  0  0  0  0  0  0
    7.8319  -15.9984   26.8486 O   0  0  0  0  0  0  0  0  0  0  0  0
   11.7947  -16.9393   26.7280 C   0  0  0  0  0  0  0  0  0  0  0  0
   10.4817  -16.5074   27.3514 C   0  0  2  0  0  0  0  0  0  0  0  0
   10.0068  -15.3607   26.5755 N   0  0  0  0  0  0  0  0  0  0  0  0
   10.6309  -16.1387   28.7722 C   0  0  0  0  0  0  0  0  0  0  0  0
   10.3929  -14.8270   29.1390 O   0  0  0  0  0  0  0  0  0  0  0  0
   10.9623  -16.9923   29.6105 O   0  0  0  0  0  0  0  0  0  0  0  0
  2  1  1  1
  3  2  1  0
  4  5  1  0
  4  2  1  0
  5  7  1  0
  5  6  1  6
  7 13  1  0
  7  8  2  0
 10  9  1  1
 11 10  1  0
 12 10  1  0
 12 14  1  0
 12 13  1  6
 14 15  2  0
 17 16  1  6
 17 19  1  0
 18 17  1  0
 18 14  1  0
 19 21  2  0
 19 20  1  0
M  END
$$$$
