LVA.pdb
     RDKit          3D

 21 20  0  0  1  0  0  0  0  0999 V2000
    6.4820  -11.9657   25.6324 C   0  0  0  0  0  0  0  0  0  0  0  0
    6.6258  -12.6366   26.9822 C   0  0  2  0  0  0  0  0  0  0  0  0
    7.4180  -11.8317   27.9605 C   0  0  0  0  0  0  0  0  0  0  0  0
    7.2697  -14.0052   26.7202 C   0  0  0  0  0  0  0  0  0  0  0  0
    6.4063  -14.6788   25.6784 C   0  0  2  0  0  0  0  0  0  0  0  0
    5.4077  -15.4528   26.3795 N   0  0  0  0  0  0  0  0  0  0  0  0
    7.1894  -15.5252   24.7593 C   0  0  0  0  0  0  0  0  0  0  0  0
    7.5274  -16.6781   25.1281 O   0  0  0  0  0  0  0  0  0  0  0  0
    9.1801  -15.8364   20.1988 C   0  0  0  0  0  0  0  0  0  0  0  0
    8.3379  -15.1035   21.2122 C   0  0  1  0  0  0  0  0  0  0  0  0
    6.9239  -14.9077   20.7401 C   0  0  0  0  0  0  0  0  0  0  0  0
    8.3866  -15.8188   22.5576 C   0  0  2  0  0  0  0  0  0  0  0  0
    7.5578  -15.0455   23.4737 N   0  0  0  0  0  0  0  0  0  0  0  0
    9.7577  -15.8395   23.1035 C   0  0  0  0  0  0  0  0  0  0  0  0
   10.3710  -14.7698   23.4362 O   0  0  0  0  0  0  0  0  0  0  0  0
   12.1151  -18.4684   24.3291 C   0  0  0  0  0  0  0  0  0  0  0  0
   11.8379  -17.0467   23.8808 C   0  0  2  0  0  0  0  0  0  0  0  0
   10.4949  -17.0452   23.2989 N   0  0  0  0  0  0  0  0  0  0  0  0
   12.8249  -16.5682   22.8940 C   0  0  0  0  0  0  0  0  0  0  0  0
   13.9978  -16.0027   23.3590 O   0  0  0  0  0  0  0  0  0  0  0  0
   12.5988  -16.6750   21.6779 O   0  0  0  0  0  0  0  0  0  0  0  0
  2  1  1  6
  3  2  1  0
  4  5  1  0
  4  2  1  0
  5  7  1  0
  5  6  1  1
  7 13  1  0
  7  8  2  0
 10  9  1  6
 11 10  1  0
 12 10  1  0
 12 14  1  0
 12 13  1  1
 14 15  2  0
 17 16  1  6
 17 19  1  0
 18 17  1  0
 18 14  1  0
 19 21  2  0
 19 20  1  0
M  END
$$$$
