RIM.pdb
     RDKit          3D

 28 27  0  0  1  0  0  0  0  0999 V2000
   24.4035  -28.4323  -16.7239 N   0  0  0  0  0  0  0  0  0  0  0  0
   23.3661  -27.4584  -16.6983 C   0  0  0  0  0  0  0  0  0  0  0  0
   22.2741  -27.7676  -16.1105 N   0  0  0  0  0  0  0  0  0  0  0  0
   23.5304  -26.1601  -17.3138 N   0  0  0  0  0  0  0  0  0  0  0  0
   24.7884  -25.8543  -17.9269 C   0  0  0  0  0  0  0  0  0  0  0  0
   25.9562  -25.6259  -17.0634 C   0  0  0  0  0  0  0  0  0  0  0  0
   26.0113  -24.4064  -16.2122 C   0  0  0  0  0  0  0  0  0  0  0  0
   26.9004  -23.3195  -16.6600 C   0  0  2  0  0  0  0  0  0  0  0  0
   28.1858  -23.8293  -17.0925 N   0  0  0  0  0  0  0  0  0  0  0  0
   27.1088  -22.2888  -15.5655 C   0  0  0  0  0  0  0  0  0  0  0  0
   28.0516  -22.4194  -14.7459 O   0  0  0  0  0  0  0  0  0  0  0  0
   21.4995  -27.0736  -16.0869 C   0  0  0  0  0  0  0  0  0  0  0  0
   28.3651  -18.3037  -15.6466 C   0  0  0  0  0  0  0  0  0  0  0  0
   26.8976  -18.3417  -16.0228 C   0  0  1  0  0  0  0  0  0  0  0  0
   26.0818  -18.7782  -14.8278 C   0  0  0  0  0  0  0  0  0  0  0  0
   26.1342  -17.7878  -13.6921 C   0  0  2  0  0  0  0  0  0  0  0  0
   26.4304  -20.1748  -14.3699 N   0  0  0  0  0  0  0  0  0  0  0  0
   26.2666  -21.1575  -15.4238 C   0  0  0  0  0  0  0  0  0  0  0  0
   25.6206  -20.5863  -13.1955 O   0  0  0  0  0  0  0  0  0  0  0  0
   24.4082  -20.9695  -13.3075 C   0  0  0  0  0  0  0  0  0  0  0  0
   28.2872  -19.2942   -7.5413 S   0  0  0  0  0  0  0  0  0  0  0  0
   26.6691  -19.8036   -6.8618 C   0  0  0  0  0  0  0  0  0  0  0  0
   25.6206  -20.3557   -8.2026 C   0  0  0  0  0  0  0  0  0  0  0  0
   26.2193  -20.3478   -9.5575 C   0  0  1  0  0  0  0  0  0  0  0  0
   25.3630  -20.8302  -10.6795 N   0  0  0  0  0  0  0  0  0  0  0  0
   26.1773  -20.5643  -11.9051 C   0  0  0  0  0  0  0  0  0  0  0  0
   24.0932  -20.1253  -10.7882 O   0  0  0  0  0  0  0  0  0  0  0  0
   23.1010  -20.6333  -10.1414 O   0  0  0  0  0  0  0  0  0  0  0  0
  2  4  1  0
  2  1  1  0
  3  2  2  0
  5  4  1  0
  6  5  1  0
  7  6  1  0
  8 10  1  0
  8  7  1  0
  8  9  1  1
 10 11  2  0
 12 13  1  0
 14 13  1  0
 14 16  1  0
 14 15  1  6
 16 18  1  0
 16 17  1  1
 17 10  1  0
 18 19  2  0
 20 21  1  0
 21 22  1  0
 22 23  1  0
 24 23  1  1
 24 26  1  0
 25 24  1  0
 25 18  1  0
 26 27  2  0
 26 28  1  0
M  END
$$$$
