RIM.pdb
     RDKit          3D

 28 27  0  0  1  0  0  0  0  0999 V2000
   29.1056  -17.0528  -18.8442 N   0  0  0  0  0  0  0  0  0  0  0  0
   29.3002  -18.4570  -18.9694 C   0  0  0  0  0  0  0  0  0  0  0  0
   29.5219  -18.9252  -20.1377 N   0  0  0  0  0  0  0  0  0  0  0  0
   29.2501  -19.3341  -17.8207 N   0  0  0  0  0  0  0  0  0  0  0  0
   29.0804  -18.7465  -16.5253 C   0  0  0  0  0  0  0  0  0  0  0  0
   27.7485  -18.2545  -16.1437 C   0  0  0  0  0  0  0  0  0  0  0  0
   26.7931  -19.1740  -15.4680 C   0  0  0  0  0  0  0  0  0  0  0  0
   27.3722  -20.2734  -14.6752 C   0  0  2  0  0  0  0  0  0  0  0  0
   27.8839  -21.3288  -15.5258 N   0  0  0  0  0  0  0  0  0  0  0  0
   26.3561  -20.8530  -13.7081 C   0  0  0  0  0  0  0  0  0  0  0  0
   25.6472  -21.8324  -14.0482 O   0  0  0  0  0  0  0  0  0  0  0  0
   29.6746  -19.9480  -20.2511 C   0  0  0  0  0  0  0  0  0  0  0  0
   27.0209  -20.0608   -8.2746 C   0  0  0  0  0  0  0  0  0  0  0  0
   26.7536  -20.7217   -9.6119 C   0  0  2  0  0  0  0  0  0  0  0  0
   25.3624  -20.3644  -10.0820 C   0  0  0  0  0  0  0  0  0  0  0  0
   24.2852  -20.8767   -9.1596 C   0  0  2  0  0  0  0  0  0  0  0  0
   25.1144  -20.7734  -11.5147 N   0  0  0  0  0  0  0  0  0  0  0  0
   26.1671  -20.3254  -12.4060 C   0  0  0  0  0  0  0  0  0  0  0  0
   23.8111  -20.2664  -12.0133 O   0  0  0  0  0  0  0  0  0  0  0  0
   23.5099  -19.0262  -11.9865 C   0  0  0  0  0  0  0  0  0  0  0  0
   21.0692  -23.1297  -16.9565 S   0  0  0  0  0  0  0  0  0  0  0  0
   20.1802  -21.5345  -16.8885 C   0  0  0  0  0  0  0  0  0  0  0  0
   20.2406  -20.9035  -15.2151 C   0  0  0  0  0  0  0  0  0  0  0  0
   21.4920  -21.1465  -14.4608 C   0  0  1  0  0  0  0  0  0  0  0  0
   21.5264  -20.6916  -13.0406 N   0  0  0  0  0  0  0  0  0  0  0  0
   22.8562  -21.1546  -12.5375 C   0  0  0  0  0  0  0  0  0  0  0  0
   20.4756  -21.2733  -12.2168 O   0  0  0  0  0  0  0  0  0  0  0  0
   20.7608  -22.3836  -11.6277 O   0  0  0  0  0  0  0  0  0  0  0  0
  2  4  1  0
  2  1  1  0
  3  2  2  0
  5  4  1  0
  6  5  1  0
  7  6  1  0
  8 10  1  0
  8  7  1  0
  8  9  1  6
 10 11  2  0
 12 13  1  0
 14 13  1  0
 14 16  1  0
 14 15  1  6
 16 18  1  0
 16 17  1  6
 17 10  1  0
 18 19  2  0
 20 21  1  0
 21 22  1  0
 22 23  1  0
 24 23  1  6
 24 26  1  0
 25 24  1  0
 25 18  1  0
 26 27  2  0
 26 28  1  0
M  END
$$$$
