RIM.pdb
     RDKit          3D

 28 27  0  0  1  0  0  0  0  0999 V2000
   15.9418  -21.3974  -17.5558 N   0  0  0  0  0  0  0  0  0  0  0  0
   16.0325  -20.1944  -16.8009 C   0  0  0  0  0  0  0  0  0  0  0  0
   15.8980  -19.0879  -17.4261 N   0  0  0  0  0  0  0  0  0  0  0  0
   16.2696  -20.2112  -15.3743 N   0  0  0  0  0  0  0  0  0  0  0  0
   17.2350  -21.1350  -14.8579 C   0  0  0  0  0  0  0  0  0  0  0  0
   16.9827  -22.5756  -15.0085 C   0  0  0  0  0  0  0  0  0  0  0  0
   17.7205  -23.5427  -14.1511 C   0  0  0  0  0  0  0  0  0  0  0  0
   19.1704  -23.3271  -13.9971 C   0  0  2  0  0  0  0  0  0  0  0  0
   19.9312  -24.1739  -14.8934 N   0  0  0  0  0  0  0  0  0  0  0  0
   19.6179  -23.5746  -12.5681 C   0  0  0  0  0  0  0  0  0  0  0  0
   19.9148  -24.7353  -12.1910 O   0  0  0  0  0  0  0  0  0  0  0  0
   15.9485  -18.1967  -16.8918 C   0  0  0  0  0  0  0  0  0  0  0  0
   22.0565  -20.4767   -7.7910 C   0  0  0  0  0  0  0  0  0  0  0  0
   21.3288  -21.7173   -8.2684 C   0  0  2  0  0  0  0  0  0  0  0  0
   20.8517  -21.5077   -9.6870 C   0  0  0  0  0  0  0  0  0  0  0  0
   19.9907  -20.2791   -9.8377 C   0  0  2  0  0  0  0  0  0  0  0  0
   20.1815  -22.7350  -10.2580 N   0  0  0  0  0  0  0  0  0  0  0  0
   19.7183  -22.5285  -11.6167 C   0  0  0  0  0  0  0  0  0  0  0  0
   19.0385  -23.1771   -9.4199 O   0  0  0  0  0  0  0  0  0  0  0  0
   17.8814  -22.6465   -9.5153 C   0  0  0  0  0  0  0  0  0  0  0  0
   17.6391  -29.1691   -8.8917 S   0  0  0  0  0  0  0  0  0  0  0  0
   17.1809  -28.7354   -7.1766 C   0  0  0  0  0  0  0  0  0  0  0  0
   17.0961  -26.9543   -7.0277 C   0  0  0  0  0  0  0  0  0  0  0  0
   18.1336  -26.1797   -7.7472 C   0  0  2  0  0  0  0  0  0  0  0  0
   18.0791  -24.6943   -7.6217 N   0  0  0  0  0  0  0  0  0  0  0  0
   19.2027  -24.2105   -8.4814 C   0  0  0  0  0  0  0  0  0  0  0  0
   18.2801  -24.2168   -6.2605 O   0  0  0  0  0  0  0  0  0  0  0  0
   19.4967  -23.9663   -5.9171 O   0  0  0  0  0  0  0  0  0  0  0  0
  2  4  1  0
  2  1  1  0
  3  2  2  0
  5  4  1  0
  6  5  1  0
  7  6  1  0
  8 10  1  0
  8  7  1  0
  8  9  1  6
 10 11  2  0
 12 13  1  0
 14 13  1  0
 14 16  1  0
 14 15  1  6
 16 18  1  0
 16 17  1  1
 17 10  1  0
 18 19  2  0
 20 21  1  0
 21 22  1  0
 22 23  1  0
 24 23  1  6
 24 26  1  0
 25 24  1  0
 25 18  1  0
 26 27  2  0
 26 28  1  0
M  END
$$$$
