RIM.pdb
     RDKit          3D

 28 27  0  0  1  0  0  0  0  0999 V2000
   24.6013  -24.5285  -14.7879 N   0  0  0  0  0  0  0  0  0  0  0  0
   23.6967  -25.5864  -15.0842 C   0  0  0  0  0  0  0  0  0  0  0  0
   24.1893  -26.6970  -15.4809 N   0  0  0  0  0  0  0  0  0  0  0  0
   22.2666  -25.4215  -14.9457 N   0  0  0  0  0  0  0  0  0  0  0  0
   21.7316  -24.0929  -14.9679 C   0  0  0  0  0  0  0  0  0  0  0  0
   21.6262  -23.3544  -13.7010 C   0  0  0  0  0  0  0  0  0  0  0  0
   20.6073  -23.7633  -12.6965 C   0  0  0  0  0  0  0  0  0  0  0  0
   19.2044  -23.4205  -12.9912 C   0  0  2  0  0  0  0  0  0  0  0  0
   19.0701  -22.0360  -13.3966 N   0  0  0  0  0  0  0  0  0  0  0  0
   18.3072  -23.6854  -11.7959 C   0  0  0  0  0  0  0  0  0  0  0  0
   18.0226  -22.7553  -11.0011 O   0  0  0  0  0  0  0  0  0  0  0  0
   23.5446  -27.4700  -15.7438 C   0  0  0  0  0  0  0  0  0  0  0  0
   13.3595  -25.4323  -10.1317 C   0  0  0  0  0  0  0  0  0  0  0  0
   14.5866  -26.2945   -9.9140 C   0  0  2  0  0  0  0  0  0  0  0  0
   15.6004  -26.0121  -10.9987 C   0  0  0  0  0  0  0  0  0  0  0  0
   16.0429  -27.2584  -11.7228 C   0  0  2  0  0  0  0  0  0  0  0  0
   16.7766  -25.2095  -10.4947 N   0  0  0  0  0  0  0  0  0  0  0  0
   17.7626  -24.9668  -11.5302 C   0  0  0  0  0  0  0  0  0  0  0  0
   17.4392  -25.8701   -9.3420 O   0  0  0  0  0  0  0  0  0  0  0  0
   18.4370  -26.6524   -9.4894 C   0  0  0  0  0  0  0  0  0  0  0  0
   16.8276  -26.2388   -1.4213 S   0  0  0  0  0  0  0  0  0  0  0  0
   16.6965  -25.2191   -2.9321 C   0  0  0  0  0  0  0  0  0  0  0  0
   17.2183  -26.1922   -4.3402 C   0  0  0  0  0  0  0  0  0  0  0  0
   17.0103  -25.5874   -5.6764 C   0  0  1  0  0  0  0  0  0  0  0  0
   17.6026  -26.3028   -6.8436 N   0  0  0  0  0  0  0  0  0  0  0  0
   16.9770  -25.6478   -8.0333 C   0  0  0  0  0  0  0  0  0  0  0  0
   17.3000  -27.7272   -6.8689 O   0  0  0  0  0  0  0  0  0  0  0  0
   16.1668  -28.0610   -7.3840 O   0  0  0  0  0  0  0  0  0  0  0  0
  2  4  1  0
  2  1  1  0
  3  2  2  0
  5  4  1  0
  6  5  1  0
  7  6  1  0
  8 10  1  0
  8  7  1  0
  8  9  1  1
 10 11  2  0
 12 13  1  0
 14 13  1  0
 14 16  1  0
 14 15  1  1
 16 18  1  0
 16 17  1  1
 17 10  1  0
 18 19  2  0
 20 21  1  0
 21 22  1  0
 22 23  1  0
 24 23  1  6
 24 26  1  0
 25 24  1  0
 25 18  1  0
 26 27  2  0
 26 28  1  0
M  END
$$$$
