RIM.pdb
     RDKit          3D

 28 27  0  0  1  0  0  0  0  0999 V2000
   18.1771  -18.6352  -15.3741 N   0  0  0  0  0  0  0  0  0  0  0  0
   18.8191  -17.3654  -15.4010 C   0  0  0  0  0  0  0  0  0  0  0  0
   18.1287  -16.3574  -15.7759 N   0  0  0  0  0  0  0  0  0  0  0  0
   20.2055  -17.2092  -15.0201 N   0  0  0  0  0  0  0  0  0  0  0  0
   21.1917  -17.1515  -16.0575 C   0  0  0  0  0  0  0  0  0  0  0  0
   21.5934  -18.4020  -16.7182 C   0  0  0  0  0  0  0  0  0  0  0  0
   22.3103  -19.4464  -15.9372 C   0  0  0  0  0  0  0  0  0  0  0  0
   23.6276  -19.8718  -16.4435 C   0  0  2  0  0  0  0  0  0  0  0  0
   23.4973  -20.8258  -17.5262 N   0  0  0  0  0  0  0  0  0  0  0  0
   24.4764  -20.4748  -15.3393 C   0  0  0  0  0  0  0  0  0  0  0  0
   24.0508  -21.4547  -14.6787 O   0  0  0  0  0  0  0  0  0  0  0  0
   18.5864  -15.4249  -15.8327 C   0  0  0  0  0  0  0  0  0  0  0  0
   28.5810  -22.2499  -15.2926 C   0  0  0  0  0  0  0  0  0  0  0  0
   28.6237  -20.7364  -15.3564 C   0  0  1  0  0  0  0  0  0  0  0  0
   28.0320  -20.1613  -14.0902 C   0  0  0  0  0  0  0  0  0  0  0  0
   28.8257  -20.5205  -12.8595 C   0  0  2  0  0  0  0  0  0  0  0  0
   26.5684  -20.4996  -13.9315 N   0  0  0  0  0  0  0  0  0  0  0  0
   25.7597  -19.9693  -15.0122 C   0  0  0  0  0  0  0  0  0  0  0  0
   26.0281  -20.0094  -12.6384 O   0  0  0  0  0  0  0  0  0  0  0  0
   25.9320  -18.7651  -12.3707 C   0  0  0  0  0  0  0  0  0  0  0  0
   21.5058  -21.8790   -6.4907 S   0  0  0  0  0  0  0  0  0  0  0  0
   22.0901  -22.2751   -8.1764 C   0  0  0  0  0  0  0  0  0  0  0  0
   23.4849  -21.2265   -8.5722 C   0  0  0  0  0  0  0  0  0  0  0  0
   24.0702  -21.3856   -9.9236 C   0  0  1  0  0  0  0  0  0  0  0  0
   25.2016  -20.4823  -10.2827 N   0  0  0  0  0  0  0  0  0  0  0  0
   25.6002  -20.9191  -11.6560 C   0  0  0  0  0  0  0  0  0  0  0  0
   26.3480  -20.6020   -9.3924 O   0  0  0  0  0  0  0  0  0  0  0  0
   27.2194  -21.5000   -9.7012 O   0  0  0  0  0  0  0  0  0  0  0  0
  2  4  1  0
  2  1  1  0
  3  2  2  0
  5  4  1  0
  6  5  1  0
  7  6  1  0
  8 10  1  0
  8  7  1  0
  8  9  1  6
 10 11  2  0
 12 13  1  0
 14 13  1  0
 14 16  1  0
 14 15  1  6
 16 18  1  0
 16 17  1  1
 17 10  1  0
 18 19  2  0
 20 21  1  0
 21 22  1  0
 22 23  1  0
 24 23  1  6
 24 26  1  0
 25 24  1  0
 25 18  1  0
 26 27  2  0
 26 28  1  0
M  END
$$$$
