RIM.pdb
     RDKit          3D

 28 27  0  0  1  0  0  0  0  0999 V2000
   13.9621  -21.1991  -12.0865 N   0  0  0  0  0  0  0  0  0  0  0  0
   12.6673  -20.6574  -11.8511 C   0  0  0  0  0  0  0  0  0  0  0  0
   12.1711  -19.8914  -12.7457 N   0  0  0  0  0  0  0  0  0  0  0  0
   11.9293  -20.9559  -10.6438 N   0  0  0  0  0  0  0  0  0  0  0  0
   12.5859  -21.7062   -9.6152 C   0  0  0  0  0  0  0  0  0  0  0  0
   12.8576  -23.1323   -9.8476 C   0  0  0  0  0  0  0  0  0  0  0  0
   13.5220  -23.9348   -8.7849 C   0  0  0  0  0  0  0  0  0  0  0  0
   14.7121  -23.3433   -8.1476 C   0  0  2  0  0  0  0  0  0  0  0  0
   15.9217  -23.6703   -8.8752 N   0  0  0  0  0  0  0  0  0  0  0  0
   14.8518  -23.7984   -6.7064 C   0  0  0  0  0  0  0  0  0  0  0  0
   15.5811  -24.7806   -6.4218 O   0  0  0  0  0  0  0  0  0  0  0  0
   11.2605  -19.4235  -12.5612 C   0  0  0  0  0  0  0  0  0  0  0  0
   14.2060  -21.6107   -0.9560 C   0  0  0  0  0  0  0  0  0  0  0  0
   14.3936  -22.8123   -1.8602 C   0  0  2  0  0  0  0  0  0  0  0  0
   14.1688  -22.4020   -3.2973 C   0  0  0  0  0  0  0  0  0  0  0  0
   12.8716  -21.6597   -3.4963 C   0  0  2  0  0  0  0  0  0  0  0  0
   14.3040  -23.5611   -4.2564 N   0  0  0  0  0  0  0  0  0  0  0  0
   14.1796  -23.1483   -5.6411 C   0  0  0  0  0  0  0  0  0  0  0  0
   13.3058  -24.6242   -3.9778 O   0  0  0  0  0  0  0  0  0  0  0  0
   12.1287  -24.5964   -4.4708 C   0  0  0  0  0  0  0  0  0  0  0  0
   15.1142  -29.3417    0.1520 S   0  0  0  0  0  0  0  0  0  0  0  0
   13.6942  -30.1768   -0.6391 C   0  0  0  0  0  0  0  0  0  0  0  0
   12.7171  -28.9615   -1.5167 C   0  0  0  0  0  0  0  0  0  0  0  0
   13.4333  -27.7563   -1.9948 C   0  0  2  0  0  0  0  0  0  0  0  0
   12.6436  -26.7674   -2.7843 N   0  0  0  0  0  0  0  0  0  0  0  0
   13.6360  -25.7097   -3.1481 C   0  0  0  0  0  0  0  0  0  0  0  0
   11.5529  -26.1604   -2.0340 O   0  0  0  0  0  0  0  0  0  0  0  0
   10.3959  -26.7141   -2.1598 O   0  0  0  0  0  0  0  0  0  0  0  0
  2  4  1  0
  2  1  1  0
  3  2  2  0
  5  4  1  0
  6  5  1  0
  7  6  1  0
  8 10  1  0
  8  7  1  0
  8  9  1  6
 10 11  2  0
 12 13  1  0
 14 13  1  0
 14 16  1  0
 14 15  1  6
 16 18  1  0
 16 17  1  1
 17 10  1  0
 18 19  2  0
 20 21  1  0
 21 22  1  0
 22 23  1  0
 24 23  1  6
 24 26  1  0
 25 24  1  0
 25 18  1  0
 26 27  2  0
 26 28  1  0
M  END
$$$$
