RIM.pdb
     RDKit          3D

 28 27  0  0  1  0  0  0  0  0999 V2000
   25.1343  -25.1936  -15.5280 N   0  0  0  0  0  0  0  0  0  0  0  0
   24.2564  -25.3497  -16.6372 C   0  0  0  0  0  0  0  0  0  0  0  0
   23.0948  -25.8332  -16.4133 N   0  0  0  0  0  0  0  0  0  0  0  0
   24.6549  -24.9781  -17.9769 N   0  0  0  0  0  0  0  0  0  0  0  0
   25.9184  -24.3263  -18.1526 C   0  0  0  0  0  0  0  0  0  0  0  0
   27.1352  -25.0128  -17.6945 C   0  0  0  0  0  0  0  0  0  0  0  0
   28.0204  -24.3495  -16.6989 C   0  0  0  0  0  0  0  0  0  0  0  0
   28.5035  -22.9974  -17.0315 C   0  0  2  0  0  0  0  0  0  0  0  0
   29.9068  -23.0088  -17.3920 N   0  0  0  0  0  0  0  0  0  0  0  0
   28.2865  -22.0333  -15.8796 C   0  0  0  0  0  0  0  0  0  0  0  0
   29.1373  -21.9462  -14.9597 O   0  0  0  0  0  0  0  0  0  0  0  0
   22.4367  -25.9553  -17.2097 C   0  0  0  0  0  0  0  0  0  0  0  0
   27.0297  -17.0038  -16.8720 C   0  0  0  0  0  0  0  0  0  0  0  0
   27.5467  -18.3095  -16.3024 C   0  0  2  0  0  0  0  0  0  0  0  0
   26.5384  -18.8674  -15.3245 C   0  0  0  0  0  0  0  0  0  0  0  0
   26.1788  -17.8890  -14.2351 C   0  0  2  0  0  0  0  0  0  0  0  0
   26.9595  -20.2040  -14.7607 N   0  0  0  0  0  0  0  0  0  0  0  0
   27.1384  -21.2063  -15.7935 C   0  0  0  0  0  0  0  0  0  0  0  0
   25.9862  -20.7097  -13.7601 O   0  0  0  0  0  0  0  0  0  0  0  0
   24.9470  -21.3699  -14.0973 C   0  0  0  0  0  0  0  0  0  0  0  0
   27.3774  -19.4306   -7.6007 S   0  0  0  0  0  0  0  0  0  0  0  0
   25.9699  -20.5481   -7.2696 C   0  0  0  0  0  0  0  0  0  0  0  0
   25.1453  -20.9213   -8.8132 C   0  0  0  0  0  0  0  0  0  0  0  0
   25.8931  -20.6140  -10.0544 C   0  0  1  0  0  0  0  0  0  0  0  0
   25.2308  -20.9552  -11.3466 N   0  0  0  0  0  0  0  0  0  0  0  0
   26.1863  -20.4705  -12.3896 C   0  0  0  0  0  0  0  0  0  0  0  0
   23.9453  -20.2969  -11.5343 O   0  0  0  0  0  0  0  0  0  0  0  0
   23.9775  -19.1213  -12.0614 O   0  0  0  0  0  0  0  0  0  0  0  0
  2  4  1  0
  2  1  1  0
  3  2  2  0
  5  4  1  0
  6  5  1  0
  7  6  1  0
  8 10  1  0
  8  7  1  0
  8  9  1  1
 10 11  2  0
 12 13  1  0
 14 13  1  0
 14 16  1  0
 14 15  1  6
 16 18  1  0
 16 17  1  1
 17 10  1  0
 18 19  2  0
 20 21  1  0
 21 22  1  0
 22 23  1  0
 24 23  1  1
 24 26  1  0
 25 24  1  0
 25 18  1  0
 26 27  2  0
 26 28  1  0
M  END
$$$$
