RIM.pdb
     RDKit          3D

 28 27  0  0  1  0  0  0  0  0999 V2000
   24.9403  -26.0166  -15.1207 N   0  0  0  0  0  0  0  0  0  0  0  0
   25.0814  -26.5795  -16.4202 C   0  0  0  0  0  0  0  0  0  0  0  0
   24.5431  -27.7181  -16.6371 N   0  0  0  0  0  0  0  0  0  0  0  0
   25.8078  -25.8957  -17.4672 N   0  0  0  0  0  0  0  0  0  0  0  0
   26.3841  -24.6183  -17.1702 C   0  0  0  0  0  0  0  0  0  0  0  0
   27.5907  -24.5673  -16.3318 C   0  0  0  0  0  0  0  0  0  0  0  0
   28.1030  -23.2509  -15.8634 C   0  0  0  0  0  0  0  0  0  0  0  0
   27.4740  -22.0476  -16.4368 C   0  0  2  0  0  0  0  0  0  0  0  0
   28.4078  -21.2978  -17.2523 N   0  0  0  0  0  0  0  0  0  0  0  0
   26.9144  -21.1455  -15.3520 C   0  0  0  0  0  0  0  0  0  0  0  0
   27.6028  -20.1961  -14.9023 O   0  0  0  0  0  0  0  0  0  0  0  0
   24.5749  -28.1169  -17.5975 C   0  0  0  0  0  0  0  0  0  0  0  0
   22.2437  -18.7886  -15.9586 C   0  0  0  0  0  0  0  0  0  0  0  0
   23.6595  -19.1679  -15.5736 C   0  0  2  0  0  0  0  0  0  0  0  0
   23.6364  -19.9686  -14.2921 C   0  0  0  0  0  0  0  0  0  0  0  0
   22.9038  -19.2653  -13.1775 C   0  0  2  0  0  0  0  0  0  0  0  0
   25.0152  -20.4124  -13.8638 N   0  0  0  0  0  0  0  0  0  0  0  0
   25.6175  -21.3312  -14.8106 C   0  0  0  0  0  0  0  0  0  0  0  0
   24.9963  -21.0459  -12.5211 O   0  0  0  0  0  0  0  0  0  0  0  0
   24.4556  -22.1837  -12.3148 C   0  0  0  0  0  0  0  0  0  0  0  0
   29.3189  -20.0469   -7.2893 S   0  0  0  0  0  0  0  0  0  0  0  0
   27.6660  -19.4065   -6.8452 C   0  0  0  0  0  0  0  0  0  0  0  0
   26.4243  -20.3058   -7.7679 C   0  0  0  0  0  0  0  0  0  0  0  0
   26.4356  -20.1296   -9.2386 C   0  0  1  0  0  0  0  0  0  0  0  0
   25.4251  -20.8987  -10.0210 N   0  0  0  0  0  0  0  0  0  0  0  0
   25.5839  -20.3979  -11.4209 C   0  0  0  0  0  0  0  0  0  0  0  0
   24.0542  -20.6708   -9.5854 O   0  0  0  0  0  0  0  0  0  0  0  0
   23.4458  -19.6665  -10.1165 O   0  0  0  0  0  0  0  0  0  0  0  0
  2  4  1  0
  2  1  1  0
  3  2  2  0
  5  4  1  0
  6  5  1  0
  7  6  1  0
  8 10  1  0
  8  7  1  0
  8  9  1  1
 10 11  2  0
 12 13  1  0
 14 13  1  0
 14 16  1  0
 14 15  1  6
 16 18  1  0
 16 17  1  1
 17 10  1  0
 18 19  2  0
 20 21  1  0
 21 22  1  0
 22 23  1  0
 24 23  1  6
 24 26  1  0
 25 24  1  0
 25 18  1  0
 26 27  2  0
 26 28  1  0
M  END
$$$$
