RIM.pdb
     RDKit          3D

 28 27  0  0  1  0  0  0  0  0999 V2000
   23.7553  -25.7620  -17.2404 N   0  0  0  0  0  0  0  0  0  0  0  0
   24.3234  -26.0476  -15.9672 C   0  0  0  0  0  0  0  0  0  0  0  0
   25.4284  -26.6892  -15.9389 N   0  0  0  0  0  0  0  0  0  0  0  0
   23.6806  -25.6316  -14.7403 N   0  0  0  0  0  0  0  0  0  0  0  0
   22.9293  -24.4120  -14.7477 C   0  0  0  0  0  0  0  0  0  0  0  0
   23.4349  -23.2777  -15.5347 C   0  0  0  0  0  0  0  0  0  0  0  0
   23.5630  -21.9403  -14.8946 C   0  0  0  0  0  0  0  0  0  0  0  0
   22.9428  -21.7732  -13.5680 C   0  0  2  0  0  0  0  0  0  0  0  0
   21.5920  -21.2602  -13.6744 N   0  0  0  0  0  0  0  0  0  0  0  0
   23.7643  -20.8515  -12.6853 C   0  0  0  0  0  0  0  0  0  0  0  0
   23.6958  -19.6063  -12.8353 O   0  0  0  0  0  0  0  0  0  0  0  0
   25.9035  -26.8365  -15.0252 C   0  0  0  0  0  0  0  0  0  0  0  0
   24.3012  -20.7882   -7.3971 C   0  0  0  0  0  0  0  0  0  0  0  0
   24.2287  -20.5524   -8.8924 C   0  0  2  0  0  0  0  0  0  0  0  0
   25.6006  -20.7367   -9.4991 C   0  0  0  0  0  0  0  0  0  0  0  0
   26.6588  -19.9122   -8.8106 C   0  0  2  0  0  0  0  0  0  0  0  0
   25.6047  -20.5187  -10.9938 N   0  0  0  0  0  0  0  0  0  0  0  0
   24.6264  -21.3453  -11.6742 C   0  0  0  0  0  0  0  0  0  0  0  0
   26.9441  -20.7718  -11.5824 O   0  0  0  0  0  0  0  0  0  0  0  0
   27.4632  -21.9375  -11.6124 C   0  0  0  0  0  0  0  0  0  0  0  0
   31.3780  -21.8144   -9.2729 S   0  0  0  0  0  0  0  0  0  0  0  0
   32.0277  -22.1671  -10.9442 C   0  0  0  0  0  0  0  0  0  0  0  0
   31.1529  -21.1583  -12.1354 C   0  0  0  0  0  0  0  0  0  0  0  0
   29.7934  -20.7115  -11.7531 C   0  0  1  0  0  0  0  0  0  0  0  0
   29.0282  -19.9271  -12.7651 N   0  0  0  0  0  0  0  0  0  0  0  0
   27.6902  -19.7151  -12.1322 C   0  0  0  0  0  0  0  0  0  0  0  0
   28.8519  -20.6248  -14.0314 O   0  0  0  0  0  0  0  0  0  0  0  0
   27.7705  -21.3145  -14.1575 O   0  0  0  0  0  0  0  0  0  0  0  0
  2  4  1  0
  2  1  1  0
  3  2  2  0
  5  4  1  0
  6  5  1  0
  7  6  1  0
  8 10  1  0
  8  7  1  0
  8  9  1  6
 10 11  2  0
 12 13  1  0
 14 13  1  0
 14 16  1  0
 14 15  1  6
 16 18  1  0
 16 17  1  6
 17 10  1  0
 18 19  2  0
 20 21  1  0
 21 22  1  0
 22 23  1  0
 24 23  1  1
 24 26  1  0
 25 24  1  0
 25 18  1  0
 26 27  2  0
 26 28  1  0
M  END
$$$$
