RIM.pdb
     RDKit          3D

 28 27  0  0  1  0  0  0  0  0999 V2000
   28.2815  -20.1302  -17.6451 N   0  0  0  0  0  0  0  0  0  0  0  0
   28.6152  -18.7593  -17.8314 C   0  0  0  0  0  0  0  0  0  0  0  0
   28.5383  -18.2837  -19.0151 N   0  0  0  0  0  0  0  0  0  0  0  0
   29.0296  -17.9235  -16.7263 N   0  0  0  0  0  0  0  0  0  0  0  0
   28.5240  -18.2256  -15.4204 C   0  0  0  0  0  0  0  0  0  0  0  0
   27.0906  -18.0318  -15.1575 C   0  0  0  0  0  0  0  0  0  0  0  0
   26.3784  -18.9705  -14.2485 C   0  0  0  0  0  0  0  0  0  0  0  0
   27.2122  -19.8748  -13.4364 C   0  0  2  0  0  0  0  0  0  0  0  0
   27.9173  -20.8328  -14.2636 N   0  0  0  0  0  0  0  0  0  0  0  0
   26.3818  -20.6148  -12.4036 C   0  0  0  0  0  0  0  0  0  0  0  0
   25.8517  -21.7167  -12.6909 O   0  0  0  0  0  0  0  0  0  0  0  0
   28.8143  -17.2944  -19.1807 C   0  0  0  0  0  0  0  0  0  0  0  0
   27.3463  -19.5657   -7.1536 C   0  0  0  0  0  0  0  0  0  0  0  0
   27.0478  -20.4106   -8.3757 C   0  0  2  0  0  0  0  0  0  0  0  0
   25.5799  -20.3013   -8.7182 C   0  0  0  0  0  0  0  0  0  0  0  0
   24.6944  -21.0089   -7.7239 C   0  0  2  0  0  0  0  0  0  0  0  0
   25.2845  -20.7301  -10.1361 N   0  0  0  0  0  0  0  0  0  0  0  0
   26.1730  -20.1056  -11.0973 C   0  0  0  0  0  0  0  0  0  0  0  0
   23.8794  -20.4389  -10.5170 O   0  0  0  0  0  0  0  0  0  0  0  0
   23.4573  -19.2475  -10.6956 C   0  0  0  0  0  0  0  0  0  0  0  0
   21.8553  -22.7781  -15.5515 S   0  0  0  0  0  0  0  0  0  0  0  0
   20.1906  -22.8103  -14.7982 C   0  0  0  0  0  0  0  0  0  0  0  0
   20.2382  -21.9334  -13.2392 C   0  0  0  0  0  0  0  0  0  0  0  0
   21.5244  -21.9582  -12.5048 C   0  0  1  0  0  0  0  0  0  0  0  0
   21.5686  -21.2521  -11.1916 N   0  0  0  0  0  0  0  0  0  0  0  0
   22.9590  -21.4864  -10.6940 C   0  0  0  0  0  0  0  0  0  0  0  0
   20.6192  -21.7728  -10.2177 O   0  0  0  0  0  0  0  0  0  0  0  0
   21.0494  -22.7114   -9.4464 O   0  0  0  0  0  0  0  0  0  0  0  0
  2  4  1  0
  2  1  1  0
  3  2  2  0
  5  4  1  0
  6  5  1  0
  7  6  1  0
  8 10  1  0
  8  7  1  0
  8  9  1  6
 10 11  2  0
 12 13  1  0
 14 13  1  0
 14 16  1  0
 14 15  1  6
 16 18  1  0
 16 17  1  6
 17 10  1  0
 18 19  2  0
 20 21  1  0
 21 22  1  0
 22 23  1  0
 24 23  1  6
 24 26  1  0
 25 24  1  0
 25 18  1  0
 26 27  2  0
 26 28  1  0
M  END
$$$$
