RIM.pdb
     RDKit          3D

 28 27  0  0  1  0  0  0  0  0999 V2000
   31.1517  -24.1741  -17.1038 N   0  0  0  0  0  0  0  0  0  0  0  0
   30.1620  -25.0705  -16.6117 C   0  0  0  0  0  0  0  0  0  0  0  0
   30.5321  -25.9671  -15.7796 N   0  0  0  0  0  0  0  0  0  0  0  0
   28.7813  -24.9799  -17.0326 N   0  0  0  0  0  0  0  0  0  0  0  0
   28.3159  -23.7358  -17.5691 C   0  0  0  0  0  0  0  0  0  0  0  0
   28.8583  -22.4845  -17.0198 C   0  0  0  0  0  0  0  0  0  0  0  0
   28.0608  -21.7124  -16.0288 C   0  0  0  0  0  0  0  0  0  0  0  0
   26.7646  -21.1791  -16.4850 C   0  0  2  0  0  0  0  0  0  0  0  0
   26.9260  -20.2859  -17.6143 N   0  0  0  0  0  0  0  0  0  0  0  0
   26.0406  -20.4524  -15.3665 C   0  0  0  0  0  0  0  0  0  0  0  0
   26.3624  -19.2763  -15.0649 O   0  0  0  0  0  0  0  0  0  0  0  0
   31.5388  -26.0363  -15.5264 C   0  0  0  0  0  0  0  0  0  0  0  0
   20.5322  -19.6631  -13.0553 C   0  0  0  0  0  0  0  0  0  0  0  0
   22.0166  -19.6068  -12.7552 C   0  0  2  0  0  0  0  0  0  0  0  0
   22.7808  -20.3019  -13.8584 C   0  0  0  0  0  0  0  0  0  0  0  0
   22.2129  -21.6569  -14.1975 C   0  0  2  0  0  0  0  0  0  0  0  0
   24.2637  -20.3698  -13.5791 N   0  0  0  0  0  0  0  0  0  0  0  0
   24.9915  -21.0564  -14.6289 C   0  0  0  0  0  0  0  0  0  0  0  0
   24.5488  -21.0319  -12.2812 O   0  0  0  0  0  0  0  0  0  0  0  0
   24.4804  -22.2982  -12.1355 C   0  0  0  0  0  0  0  0  0  0  0  0
   29.1734  -19.5754   -8.0339 S   0  0  0  0  0  0  0  0  0  0  0  0
   27.7115  -19.4923   -6.9404 C   0  0  0  0  0  0  0  0  0  0  0  0
   26.3609  -20.3849   -7.7027 C   0  0  0  0  0  0  0  0  0  0  0  0
   26.1196  -20.1195   -9.1399 C   0  0  1  0  0  0  0  0  0  0  0  0
   24.9963  -20.8582   -9.7861 N   0  0  0  0  0  0  0  0  0  0  0  0
   24.9078  -20.2682  -11.1571 C   0  0  0  0  0  0  0  0  0  0  0  0
   23.7188  -20.6848   -9.1087 O   0  0  0  0  0  0  0  0  0  0  0  0
   23.0103  -19.6729   -9.4763 O   0  0  0  0  0  0  0  0  0  0  0  0
  2  4  1  0
  2  1  1  0
  3  2  2  0
  5  4  1  0
  6  5  1  0
  7  6  1  0
  8 10  1  0
  8  7  1  0
  8  9  1  6
 10 11  2  0
 12 13  1  0
 14 13  1  0
 14 16  1  0
 14 15  1  6
 16 18  1  0
 16 17  1  1
 17 10  1  0
 18 19  2  0
 20 21  1  0
 21 22  1  0
 22 23  1  0
 24 23  1  6
 24 26  1  0
 25 24  1  0
 25 18  1  0
 26 27  2  0
 26 28  1  0
M  END
$$$$
