RIM.pdb
     RDKit          3D

 28 27  0  0  1  0  0  0  0  0999 V2000
   23.6820  -19.1905  -18.9662 N   0  0  0  0  0  0  0  0  0  0  0  0
   23.6068  -18.2005  -17.9466 C   0  0  0  0  0  0  0  0  0  0  0  0
   22.4793  -17.6312  -17.7519 N   0  0  0  0  0  0  0  0  0  0  0  0
   24.7609  -17.8419  -17.1523 N   0  0  0  0  0  0  0  0  0  0  0  0
   25.9836  -18.5555  -17.3714 C   0  0  0  0  0  0  0  0  0  0  0  0
   26.3142  -19.6772  -16.4803 C   0  0  0  0  0  0  0  0  0  0  0  0
   27.1942  -19.4436  -15.3031 C   0  0  0  0  0  0  0  0  0  0  0  0
   27.5901  -20.6281  -14.5203 C   0  0  2  0  0  0  0  0  0  0  0  0
   28.0105  -21.7162  -15.3797 N   0  0  0  0  0  0  0  0  0  0  0  0
   26.4611  -21.1012  -13.6231 C   0  0  0  0  0  0  0  0  0  0  0  0
   25.7268  -22.0552  -13.9814 O   0  0  0  0  0  0  0  0  0  0  0  0
   22.4229  -16.8393  -17.0796 C   0  0  0  0  0  0  0  0  0  0  0  0
   27.0833  -20.0312   -8.3699 C   0  0  0  0  0  0  0  0  0  0  0  0
   26.6651  -20.9548   -9.4962 C   0  0  2  0  0  0  0  0  0  0  0  0
   25.3406  -20.4948  -10.0603 C   0  0  0  0  0  0  0  0  0  0  0  0
   24.1726  -20.8611   -9.1798 C   0  0  2  0  0  0  0  0  0  0  0  0
   25.1315  -20.9483  -11.4858 N   0  0  0  0  0  0  0  0  0  0  0  0
   26.1918  -20.4999  -12.3680 C   0  0  0  0  0  0  0  0  0  0  0  0
   23.8274  -20.4858  -12.0240 O   0  0  0  0  0  0  0  0  0  0  0  0
   23.5757  -19.2508  -12.2258 C   0  0  0  0  0  0  0  0  0  0  0  0
   19.8286  -24.9411  -14.6507 S   0  0  0  0  0  0  0  0  0  0  0  0
   19.2435  -23.3914  -15.4225 C   0  0  0  0  0  0  0  0  0  0  0  0
   19.7486  -22.0068  -14.4078 C   0  0  0  0  0  0  0  0  0  0  0  0
   21.0852  -22.1017  -13.7764 C   0  0  1  0  0  0  0  0  0  0  0  0
   21.4827  -20.9927  -12.8615 N   0  0  0  0  0  0  0  0  0  0  0  0
   22.8162  -21.4125  -12.3312 C   0  0  0  0  0  0  0  0  0  0  0  0
   20.5653  -20.7995  -11.7470 O   0  0  0  0  0  0  0  0  0  0  0  0
   20.7930  -21.5031  -10.6915 O   0  0  0  0  0  0  0  0  0  0  0  0
  2  4  1  0
  2  1  1  0
  3  2  2  0
  5  4  1  0
  6  5  1  0
  7  6  1  0
  8 10  1  0
  8  7  1  0
  8  9  1  6
 10 11  2  0
 12 13  1  0
 14 13  1  0
 14 16  1  0
 14 15  1  6
 16 18  1  0
 16 17  1  6
 17 10  1  0
 18 19  2  0
 20 21  1  0
 21 22  1  0
 22 23  1  0
 24 23  1  6
 24 26  1  0
 25 24  1  0
 25 18  1  0
 26 27  2  0
 26 28  1  0
M  END
$$$$
