RIM.pdb
     RDKit          3D

 28 27  0  0  1  0  0  0  0  0999 V2000
   15.2112  -14.5056  -16.2716 N   0  0  0  0  0  0  0  0  0  0  0  0
   15.0886  -15.2980  -15.0958 C   0  0  0  0  0  0  0  0  0  0  0  0
   15.7136  -16.4122  -15.0612 N   0  0  0  0  0  0  0  0  0  0  0  0
   14.2860  -14.8675  -13.9724 N   0  0  0  0  0  0  0  0  0  0  0  0
   14.2465  -13.4694  -13.6630 C   0  0  0  0  0  0  0  0  0  0  0  0
   15.3611  -12.8838  -12.9039 C   0  0  0  0  0  0  0  0  0  0  0  0
   15.3705  -11.4220  -12.6252 C   0  0  0  0  0  0  0  0  0  0  0  0
   14.4986  -10.9443  -11.5371 C   0  0  2  0  0  0  0  0  0  0  0  0
   13.1067  -11.2498  -11.7993 N   0  0  0  0  0  0  0  0  0  0  0  0
   14.6547   -9.4505  -11.3183 C   0  0  0  0  0  0  0  0  0  0  0  0
   14.2044   -8.6377  -12.1635 O   0  0  0  0  0  0  0  0  0  0  0  0
   15.6587  -16.9955  -14.2016 C   0  0  0  0  0  0  0  0  0  0  0  0
   13.2186   -8.7965   -7.9363 C   0  0  0  0  0  0  0  0  0  0  0  0
   13.4680   -7.3526   -8.3232 C   0  0  2  0  0  0  0  0  0  0  0  0
   14.9501   -7.1322   -8.5208 C   0  0  0  0  0  0  0  0  0  0  0  0
   15.3905   -5.7434   -8.1325 C   0  0  2  0  0  0  0  0  0  0  0  0
   15.4070   -7.4960   -9.9138 N   0  0  0  0  0  0  0  0  0  0  0  0
   15.3015   -8.9187  -10.1746 C   0  0  0  0  0  0  0  0  0  0  0  0
   16.8042   -7.0611  -10.1650 O   0  0  0  0  0  0  0  0  0  0  0  0
   17.8087   -7.7510   -9.7849 C   0  0  0  0  0  0  0  0  0  0  0  0
   22.5266   -6.8413  -11.5210 S   0  0  0  0  0  0  0  0  0  0  0  0
   21.2844   -7.7293  -12.5251 C   0  0  0  0  0  0  0  0  0  0  0  0
   20.0170   -6.5758  -13.0398 C   0  0  0  0  0  0  0  0  0  0  0  0
   18.7274   -6.6422  -12.3140 C   0  0  1  0  0  0  0  0  0  0  0  0
   18.4152   -5.5193  -11.3831 N   0  0  0  0  0  0  0  0  0  0  0  0
   17.0632   -5.8559  -10.8402 C   0  0  0  0  0  0  0  0  0  0  0  0
   18.3567   -4.2193  -12.0369 O   0  0  0  0  0  0  0  0  0  0  0  0
   17.2868   -3.9660  -12.7093 O   0  0  0  0  0  0  0  0  0  0  0  0
  2  4  1  0
  2  1  1  0
  3  2  2  0
  5  4  1  0
  6  5  1  0
  7  6  1  0
  8 10  1  0
  8  7  1  0
  8  9  1  6
 10 11  2  0
 12 13  1  0
 14 13  1  0
 14 16  1  0
 14 15  1  6
 16 18  1  0
 16 17  1  6
 17 10  1  0
 18 19  2  0
 20 21  1  0
 21 22  1  0
 22 23  1  0
 24 23  1  1
 24 26  1  0
 25 24  1  0
 25 18  1  0
 26 27  2  0
 26 28  1  0
M  END
$$$$
