RIM.pdb
     RDKit          3D

 28 27  0  0  1  0  0  0  0  0999 V2000
   25.9186  -15.9117  -15.7268 N   0  0  0  0  0  0  0  0  0  0  0  0
   27.2159  -15.5832  -16.2108 C   0  0  0  0  0  0  0  0  0  0  0  0
   27.3905  -14.4154  -16.6997 N   0  0  0  0  0  0  0  0  0  0  0  0
   28.3070  -16.5309  -16.1572 N   0  0  0  0  0  0  0  0  0  0  0  0
   27.9961  -17.9114  -15.9340 C   0  0  0  0  0  0  0  0  0  0  0  0
   26.8800  -18.5117  -16.6793 C   0  0  0  0  0  0  0  0  0  0  0  0
   26.5249  -19.9378  -16.4451 C   0  0  0  0  0  0  0  0  0  0  0  0
   27.1873  -20.6137  -15.3152 C   0  0  2  0  0  0  0  0  0  0  0  0
   28.0157  -21.7136  -15.7663 N   0  0  0  0  0  0  0  0  0  0  0  0
   26.1755  -21.1252  -14.3061 C   0  0  0  0  0  0  0  0  0  0  0  0
   25.5134  -22.1651  -14.5467 O   0  0  0  0  0  0  0  0  0  0  0  0
   28.3420  -14.1373  -17.0154 C   0  0  0  0  0  0  0  0  0  0  0  0
   27.0181  -20.3400   -8.9530 C   0  0  0  0  0  0  0  0  0  0  0  0
   26.6476  -20.9801  -10.2757 C   0  0  2  0  0  0  0  0  0  0  0  0
   25.2808  -20.4978  -10.7041 C   0  0  0  0  0  0  0  0  0  0  0  0
   24.1943  -20.8859   -9.7333 C   0  0  2  0  0  0  0  0  0  0  0  0
   24.9413  -20.9067  -12.1179 N   0  0  0  0  0  0  0  0  0  0  0  0
   25.9387  -20.4656  -13.0740 C   0  0  0  0  0  0  0  0  0  0  0  0
   23.6122  -20.3928  -12.5346 O   0  0  0  0  0  0  0  0  0  0  0  0
   23.3713  -19.1442  -12.6453 C   0  0  0  0  0  0  0  0  0  0  0  0
   20.7186  -23.3390  -17.0633 S   0  0  0  0  0  0  0  0  0  0  0  0
   19.1525  -22.6891  -16.3818 C   0  0  0  0  0  0  0  0  0  0  0  0
   19.5175  -21.6360  -14.9819 C   0  0  0  0  0  0  0  0  0  0  0  0
   20.8674  -21.7699  -14.3870 C   0  0  1  0  0  0  0  0  0  0  0  0
   21.2260  -20.8152  -13.2985 N   0  0  0  0  0  0  0  0  0  0  0  0
   22.5641  -21.2837  -12.8234 C   0  0  0  0  0  0  0  0  0  0  0  0
   20.2918  -20.8278  -12.1812 O   0  0  0  0  0  0  0  0  0  0  0  0
   20.5274  -21.6866  -11.2496 O   0  0  0  0  0  0  0  0  0  0  0  0
  2  4  1  0
  2  1  1  0
  3  2  2  0
  5  4  1  0
  6  5  1  0
  7  6  1  0
  8 10  1  0
  8  7  1  0
  8  9  1  6
 10 11  2  0
 12 13  1  0
 14 13  1  0
 14 16  1  0
 14 15  1  6
 16 18  1  0
 16 17  1  6
 17 10  1  0
 18 19  2  0
 20 21  1  0
 21 22  1  0
 22 23  1  0
 24 23  1  6
 24 26  1  0
 25 24  1  0
 25 18  1  0
 26 27  2  0
 26 28  1  0
M  END
$$$$
