RIM.pdb
     RDKit          3D

 28 27  0  0  1  0  0  0  0  0999 V2000
   20.2052  -17.3312  -13.0715 N   0  0  0  0  0  0  0  0  0  0  0  0
   19.8815  -17.9470  -14.3130 C   0  0  0  0  0  0  0  0  0  0  0  0
   19.2732  -17.2403  -15.1871 N   0  0  0  0  0  0  0  0  0  0  0  0
   20.2235  -19.3252  -14.5870 N   0  0  0  0  0  0  0  0  0  0  0  0
   21.2653  -19.9323  -13.8136 C   0  0  0  0  0  0  0  0  0  0  0  0
   21.3056  -19.6811  -12.3655 C   0  0  0  0  0  0  0  0  0  0  0  0
   22.3491  -20.3420  -11.5355 C   0  0  0  0  0  0  0  0  0  0  0  0
   23.6238  -20.6672  -12.2002 C   0  0  2  0  0  0  0  0  0  0  0  0
   23.4566  -21.7177  -13.1840 N   0  0  0  0  0  0  0  0  0  0  0  0
   24.6823  -21.0816  -11.1946 C   0  0  0  0  0  0  0  0  0  0  0  0
   24.5681  -22.1634  -10.5667 O   0  0  0  0  0  0  0  0  0  0  0  0
   19.0189  -17.6732  -16.0983 C   0  0  0  0  0  0  0  0  0  0  0  0
   29.6143  -21.2402  -12.7463 C   0  0  0  0  0  0  0  0  0  0  0  0
   28.2783  -21.4373  -12.0585 C   0  0  2  0  0  0  0  0  0  0  0  0
   28.2507  -20.6425  -10.7733 C   0  0  0  0  0  0  0  0  0  0  0  0
   29.3862  -20.9936   -9.8455 C   0  0  2  0  0  0  0  0  0  0  0  0
   26.9130  -20.7193  -10.0758 N   0  0  0  0  0  0  0  0  0  0  0  0
   25.8221  -20.2829  -10.9260 C   0  0  0  0  0  0  0  0  0  0  0  0
   26.8992  -19.9209   -8.8242 O   0  0  0  0  0  0  0  0  0  0  0  0
   26.0847  -18.9547   -8.6442 C   0  0  0  0  0  0  0  0  0  0  0  0
   24.2719  -21.4680   -4.4142 S   0  0  0  0  0  0  0  0  0  0  0  0
   24.9830  -20.0506   -3.5059 C   0  0  0  0  0  0  0  0  0  0  0  0
   26.4465  -19.4820   -4.3642 C   0  0  0  0  0  0  0  0  0  0  0  0
   26.6311  -19.9681   -5.7513 C   0  0  1  0  0  0  0  0  0  0  0  0
   27.8111  -19.4471   -6.5004 N   0  0  0  0  0  0  0  0  0  0  0  0
   27.7994  -20.2126   -7.7848 C   0  0  0  0  0  0  0  0  0  0  0  0
   29.0793  -19.6743   -5.8212 O   0  0  0  0  0  0  0  0  0  0  0  0
   29.7049  -20.7585   -6.1276 O   0  0  0  0  0  0  0  0  0  0  0  0
  2  4  1  0
  2  1  1  0
  3  2  2  0
  5  4  1  0
  6  5  1  0
  7  6  1  0
  8 10  1  0
  8  7  1  0
  8  9  1  6
 10 11  2  0
 12 13  1  0
 14 13  1  0
 14 16  1  0
 14 15  1  6
 16 18  1  0
 16 17  1  1
 17 10  1  0
 18 19  2  0
 20 21  1  0
 21 22  1  0
 22 23  1  0
 24 23  1  6
 24 26  1  0
 25 24  1  0
 25 18  1  0
 26 27  2  0
 26 28  1  0
M  END
$$$$
