DYI.pdb
     RDKit          3D

 29 29  0  0  1  0  0  0  0  0999 V2000
   24.1541  -18.6112  -17.4141 N   0  0  0  0  0  0  0  0  0  0  0  0
   24.1370  -20.0502  -17.4207 C   0  0  1  0  0  0  0  0  0  0  0  0
   24.3984  -20.6553  -18.7833 C   0  0  0  0  0  0  0  0  0  0  0  0
   23.1289  -20.6771  -19.5473 C   0  0  0  0  0  0  0  0  0  0  0  0
   22.1148  -20.0673  -19.1520 O   0  0  0  0  0  0  0  0  0  0  0  0
   25.1042  -20.5336  -16.4087 C   0  0  0  0  0  0  0  0  0  0  0  0
   25.2668  -21.7685  -16.2642 O   0  0  0  0  0  0  0  0  0  0  0  0
   22.9824  -21.3805  -20.7581 O   0  0  0  0  0  0  0  0  0  0  0  0
   31.0324  -20.5233  -19.5623 O   0  0  0  0  0  0  0  0  0  0  0  0
   30.2974  -20.2154  -18.4228 C   0  0  0  0  0  0  0  0  0  0  0  0
   29.6644  -19.0003  -18.2737 C   0  0  0  0  0  0  0  0  0  0  0  0
   28.9486  -18.7337  -17.1339 C   0  0  0  0  0  0  0  0  0  0  0  0
   28.8498  -19.6653  -16.1277 C   0  0  0  0  0  0  0  0  0  0  0  0
   28.1240  -19.2993  -14.9123 C   0  0  0  0  0  0  0  0  0  0  0  0
   26.8804  -20.0984  -14.6438 C   0  0  2  0  0  0  0  0  0  0  0  0
   25.8366  -19.6209  -15.6138 N   0  0  0  0  0  0  0  0  0  0  0  0
   26.3203  -19.7958  -13.3321 C   0  0  0  0  0  0  0  0  0  0  0  0
   26.1271  -18.5925  -13.0120 O   0  0  0  0  0  0  0  0  0  0  0  0
   29.4884  -20.8698  -16.2987 C   0  0  0  0  0  0  0  0  0  0  0  0
   30.2076  -21.1602  -17.4230 C   0  0  0  0  0  0  0  0  0  0  0  0
   21.9049  -20.6307   -9.7698 C   0  0  0  0  0  0  0  0  0  0  0  0
   23.3870  -20.2483   -9.7450 C   0  0  0  0  0  0  0  0  0  0  0  0
   23.9439  -20.6077  -11.0868 C   0  0  2  0  0  0  0  0  0  0  0  0
   23.7405  -22.0800  -11.4006 C   0  0  0  0  0  0  0  0  0  0  0  0
   25.4490  -20.3570  -11.0893 C   0  0  2  0  0  0  0  0  0  0  0  0
   25.9728  -20.8044  -12.4000 N   0  0  0  0  0  0  0  0  0  0  0  0
   26.0990  -21.1723  -10.0588 C   0  0  0  0  0  0  0  0  0  0  0  0
   26.2202  -20.7651   -8.7255 O   0  0  0  0  0  0  0  0  0  0  0  0
   26.5941  -22.2983  -10.3222 O   0  0  0  0  0  0  0  0  0  0  0  0
  2  1  1  6
  2  3  1  0
  4  8  1  0
  4  3  1  0
  5  4  2  0
  6  2  1  0
  7  6  2  0
  9 10  1  0
 10 11  2  0
 10 20  1  0
 11 12  1  0
 12 13  2  0
 13 14  1  0
 15 14  1  6
 15 16  1  0
 16  6  1  0
 17 15  1  0
 17 18  2  0
 19 13  1  0
 20 19  2  0
 21 22  1  0
 23 25  1  0
 23 22  1  0
 23 24  1  1
 25 26  1  6
 26 17  1  0
 27 25  1  0
 28 27  1  0
 29 27  2  0
M  END
$$$$
