DYI.pdb
     RDKit          3D

 29 29  0  0  1  0  0  0  0  0999 V2000
   28.5500  -22.3345  -17.0986 N   0  0  0  0  0  0  0  0  0  0  0  0
   27.4360  -21.4235  -17.0813 C   0  0  1  0  0  0  0  0  0  0  0  0
   26.5311  -21.5463  -18.2885 C   0  0  0  0  0  0  0  0  0  0  0  0
   27.2825  -21.1222  -19.4932 C   0  0  0  0  0  0  0  0  0  0  0  0
   26.7434  -21.0665  -20.6168 O   0  0  0  0  0  0  0  0  0  0  0  0
   26.6936  -21.6172  -15.8146 C   0  0  0  0  0  0  0  0  0  0  0  0
   25.6651  -22.3345  -15.8161 O   0  0  0  0  0  0  0  0  0  0  0  0
   28.6419  -20.7577  -19.4519 O   0  0  0  0  0  0  0  0  0  0  0  0
   24.6997  -20.2885   -7.2462 O   0  0  0  0  0  0  0  0  0  0  0  0
   25.3463  -20.3600   -8.4751 C   0  0  0  0  0  0  0  0  0  0  0  0
   25.5791  -19.2370   -9.2392 C   0  0  0  0  0  0  0  0  0  0  0  0
   26.2203  -19.3484  -10.4472 C   0  0  0  0  0  0  0  0  0  0  0  0
   26.6393  -20.5717  -10.9141 C   0  0  0  0  0  0  0  0  0  0  0  0
   27.2622  -20.6334  -12.2356 C   0  0  0  0  0  0  0  0  0  0  0  0
   26.4059  -21.2225  -13.3204 C   0  0  2  0  0  0  0  0  0  0  0  0
   27.1331  -21.0047  -14.6174 N   0  0  0  0  0  0  0  0  0  0  0  0
   25.1572  -20.4866  -13.4781 C   0  0  0  0  0  0  0  0  0  0  0  0
   25.1860  -19.3345  -13.9876 O   0  0  0  0  0  0  0  0  0  0  0  0
   26.3973  -21.6771  -10.1350 C   0  0  0  0  0  0  0  0  0  0  0  0
   25.7607  -21.5938   -8.9294 C   0  0  0  0  0  0  0  0  0  0  0  0
   20.9728  -19.2256  -16.5138 C   0  0  0  0  0  0  0  0  0  0  0  0
   21.2049  -19.2551  -15.0010 C   0  0  0  0  0  0  0  0  0  0  0  0
   22.4312  -20.0820  -14.7725 C   0  0  2  0  0  0  0  0  0  0  0  0
   22.2403  -21.5101  -15.2538 C   0  0  0  0  0  0  0  0  0  0  0  0
   22.7175  -20.1526  -13.2755 C   0  0  2  0  0  0  0  0  0  0  0  0
   23.9034  -21.0194  -13.0892 N   0  0  0  0  0  0  0  0  0  0  0  0
   21.5977  -20.7898  -12.5760 C   0  0  0  0  0  0  0  0  0  0  0  0
   21.6850  -22.0566  -11.9880 O   0  0  0  0  0  0  0  0  0  0  0  0
   20.4790  -20.2249  -12.4680 O   0  0  0  0  0  0  0  0  0  0  0  0
  2  1  1  6
  2  3  1  0
  4  8  1  0
  4  3  1  0
  5  4  2  0
  6  2  1  0
  7  6  2  0
  9 10  1  0
 10 11  2  0
 10 20  1  0
 11 12  1  0
 12 13  2  0
 13 14  1  0
 15 14  1  1
 15 16  1  0
 16  6  1  0
 17 15  1  0
 17 18  2  0
 19 13  1  0
 20 19  2  0
 21 22  1  0
 23 25  1  0
 23 22  1  0
 23 24  1  1
 25 26  1  6
 26 17  1  0
 27 25  1  0
 28 27  1  0
 29 27  2  0
M  END
$$$$
