DYI.pdb
     RDKit          3D

 29 29  0  0  1  0  0  0  0  0999 V2000
   24.4142  -17.6146  -19.4570 N   0  0  0  0  0  0  0  0  0  0  0  0
   24.2577  -19.0054  -19.7919 C   0  0  1  0  0  0  0  0  0  0  0  0
   25.3974  -19.5644  -20.6163 C   0  0  0  0  0  0  0  0  0  0  0  0
   25.3465  -18.9639  -21.9700 C   0  0  0  0  0  0  0  0  0  0  0  0
   24.5253  -18.0711  -22.2612 O   0  0  0  0  0  0  0  0  0  0  0  0
   24.0589  -19.7684  -18.5382 C   0  0  0  0  0  0  0  0  0  0  0  0
   23.9748  -21.0183  -18.5939 O   0  0  0  0  0  0  0  0  0  0  0  0
   26.2121  -19.3566  -23.0087 O   0  0  0  0  0  0  0  0  0  0  0  0
   29.9551  -21.8111  -16.7851 O   0  0  0  0  0  0  0  0  0  0  0  0
   28.7453  -21.2391  -16.4077 C   0  0  0  0  0  0  0  0  0  0  0  0
   28.5436  -19.8763  -16.4456 C   0  0  0  0  0  0  0  0  0  0  0  0
   27.3352  -19.3495  -16.0647 C   0  0  0  0  0  0  0  0  0  0  0  0
   26.3115  -20.1640  -15.6419 C   0  0  0  0  0  0  0  0  0  0  0  0
   25.0687  -19.5389  -15.1915 C   0  0  0  0  0  0  0  0  0  0  0  0
   23.8519  -19.8721  -16.0073 C   0  0  2  0  0  0  0  0  0  0  0  0
   23.9644  -19.1029  -17.2934 N   0  0  0  0  0  0  0  0  0  0  0  0
   22.6340  -19.3639  -15.3874 C   0  0  0  0  0  0  0  0  0  0  0  0
   22.5082  -18.1223  -15.2132 O   0  0  0  0  0  0  0  0  0  0  0  0
   26.5351  -21.5193  -15.6132 C   0  0  0  0  0  0  0  0  0  0  0  0
   27.7284  -22.0691  -15.9864 C   0  0  0  0  0  0  0  0  0  0  0  0
   16.8645  -19.1878  -15.5261 C   0  0  0  0  0  0  0  0  0  0  0  0
   18.0163  -19.1293  -14.5196 C   0  0  0  0  0  0  0  0  0  0  0  0
   19.2167  -19.6974  -15.2096 C   0  0  2  0  0  0  0  0  0  0  0  0
   19.0407  -21.1757  -15.5114 C   0  0  0  0  0  0  0  0  0  0  0  0
   20.4293  -19.5729  -14.2920 C   0  0  2  0  0  0  0  0  0  0  0  0
   21.5750  -20.2116  -14.9788 N   0  0  0  0  0  0  0  0  0  0  0  0
   20.1996  -20.3128  -13.0474 C   0  0  0  0  0  0  0  0  0  0  0  0
   20.8539  -21.5105  -12.7382 O   0  0  0  0  0  0  0  0  0  0  0  0
   19.3864  -19.9066  -12.1779 O   0  0  0  0  0  0  0  0  0  0  0  0
  2  1  1  1
  2  3  1  0
  4  8  1  0
  4  3  1  0
  5  4  2  0
  6  2  1  0
  7  6  2  0
  9 10  1  0
 10 11  2  0
 10 20  1  0
 11 12  1  0
 12 13  2  0
 13 14  1  0
 15 14  1  1
 15 16  1  0
 16  6  1  0
 17 15  1  0
 17 18  2  0
 19 13  1  0
 20 19  2  0
 21 22  1  0
 23 25  1  0
 23 22  1  0
 23 24  1  1
 25 26  1  6
 26 17  1  0
 27 25  1  0
 28 27  1  0
 29 27  2  0
M  END
$$$$
