DYI.pdb
     RDKit          3D

 29 29  0  0  1  0  0  0  0  0999 V2000
   26.2105  -20.4152  -15.4650 N   0  0  0  0  0  0  0  0  0  0  0  0
   27.0726  -19.7612  -14.5163 C   0  0  1  0  0  0  0  0  0  0  0  0
   27.6583  -18.4605  -15.0226 C   0  0  0  0  0  0  0  0  0  0  0  0
   28.4623  -18.7395  -16.2357 C   0  0  0  0  0  0  0  0  0  0  0  0
   29.0268  -19.8382  -16.4103 O   0  0  0  0  0  0  0  0  0  0  0  0
   26.3208  -19.5723  -13.2544 C   0  0  0  0  0  0  0  0  0  0  0  0
   25.7615  -18.4710  -13.0388 O   0  0  0  0  0  0  0  0  0  0  0  0
   28.6422  -17.7930  -17.2625 O   0  0  0  0  0  0  0  0  0  0  0  0
   19.9892  -19.9526  -14.7252 O   0  0  0  0  0  0  0  0  0  0  0  0
   21.0441  -20.3328  -13.9031 C   0  0  0  0  0  0  0  0  0  0  0  0
   21.9691  -21.2749  -14.2982 C   0  0  0  0  0  0  0  0  0  0  0  0
   22.9963  -21.6239  -13.4580 C   0  0  0  0  0  0  0  0  0  0  0  0
   23.1214  -21.0454  -12.2171 C   0  0  0  0  0  0  0  0  0  0  0  0
   24.2014  -21.5032  -11.3442 C   0  0  0  0  0  0  0  0  0  0  0  0
   25.3083  -20.5120  -11.1210 C   0  0  2  0  0  0  0  0  0  0  0  0
   26.2314  -20.6150  -12.3024 N   0  0  0  0  0  0  0  0  0  0  0  0
   26.1381  -20.8813   -9.9805 C   0  0  0  0  0  0  0  0  0  0  0  0
   26.8391  -21.9261  -10.0466 O   0  0  0  0  0  0  0  0  0  0  0  0
   22.1882  -20.1082  -11.8452 C   0  0  0  0  0  0  0  0  0  0  0  0
   21.1561  -19.7433  -12.6620 C   0  0  0  0  0  0  0  0  0  0  0  0
   29.2785  -19.0202   -5.2114 C   0  0  0  0  0  0  0  0  0  0  0  0
   28.4633  -20.1683   -5.8121 C   0  0  0  0  0  0  0  0  0  0  0  0
   27.6962  -19.5929   -6.9611 C   0  0  2  0  0  0  0  0  0  0  0  0
   26.6989  -18.5446   -6.4986 C   0  0  0  0  0  0  0  0  0  0  0  0
   26.8940  -20.7020   -7.6351 C   0  0  2  0  0  0  0  0  0  0  0  0
   26.1974  -20.1047   -8.7971 N   0  0  0  0  0  0  0  0  0  0  0  0
   25.8643  -21.2076   -6.7223 C   0  0  0  0  0  0  0  0  0  0  0  0
   24.4940  -21.0240   -6.9386 O   0  0  0  0  0  0  0  0  0  0  0  0
   26.1617  -21.8406   -5.6767 O   0  0  0  0  0  0  0  0  0  0  0  0
  2  1  1  6
  2  3  1  0
  4  8  1  0
  4  3  1  0
  5  4  2  0
  6  2  1  0
  7  6  2  0
  9 10  1  0
 10 11  2  0
 10 20  1  0
 11 12  1  0
 12 13  2  0
 13 14  1  0
 15 14  1  6
 15 16  1  0
 16  6  1  0
 17 15  1  0
 17 18  2  0
 19 13  1  0
 20 19  2  0
 21 22  1  0
 23 25  1  0
 23 22  1  0
 23 24  1  1
 25 26  1  6
 26 17  1  0
 27 25  1  0
 28 27  1  0
 29 27  2  0
M  END
$$$$
