DYI.pdb
     RDKit          3D

 29 29  0  0  1  0  0  0  0  0999 V2000
   24.9986  -19.8456  -16.8526 N   0  0  0  0  0  0  0  0  0  0  0  0
   26.0005  -20.0301  -15.8362 C   0  0  1  0  0  0  0  0  0  0  0  0
   27.2597  -19.2233  -16.0700 C   0  0  0  0  0  0  0  0  0  0  0  0
   28.0203  -19.8378  -17.1834 C   0  0  0  0  0  0  0  0  0  0  0  0
   27.5708  -20.8058  -17.8293 O   0  0  0  0  0  0  0  0  0  0  0  0
   25.3913  -19.7311  -14.5198 C   0  0  0  0  0  0  0  0  0  0  0  0
   24.9208  -18.5873  -14.3133 O   0  0  0  0  0  0  0  0  0  0  0  0
   29.2887  -19.3758  -17.5834 O   0  0  0  0  0  0  0  0  0  0  0  0
   19.0652  -19.2815  -15.1490 O   0  0  0  0  0  0  0  0  0  0  0  0
   20.1234  -19.8067  -14.4157 C   0  0  0  0  0  0  0  0  0  0  0  0
   20.2361  -19.6043  -13.0571 C   0  0  0  0  0  0  0  0  0  0  0  0
   21.2955  -20.1389  -12.3683 C   0  0  0  0  0  0  0  0  0  0  0  0
   22.2563  -20.8803  -13.0143 C   0  0  0  0  0  0  0  0  0  0  0  0
   23.3926  -21.3718  -12.2364 C   0  0  0  0  0  0  0  0  0  0  0  0
   24.5962  -20.4727  -12.2226 C   0  0  2  0  0  0  0  0  0  0  0  0
   25.3383  -20.7168  -13.5065 N   0  0  0  0  0  0  0  0  0  0  0  0
   25.5410  -20.8560  -11.1805 C   0  0  0  0  0  0  0  0  0  0  0  0
   26.0901  -21.9886  -11.2388 O   0  0  0  0  0  0  0  0  0  0  0  0
   22.1227  -21.0696  -14.3686 C   0  0  0  0  0  0  0  0  0  0  0  0
   21.0784  -20.5482  -15.0779 C   0  0  0  0  0  0  0  0  0  0  0  0
   28.8599  -19.0349   -6.4006 C   0  0  0  0  0  0  0  0  0  0  0  0
   28.0486  -20.1578   -7.0519 C   0  0  0  0  0  0  0  0  0  0  0  0
   27.3481  -19.5527   -8.2279 C   0  0  2  0  0  0  0  0  0  0  0  0
   26.3921  -18.4512   -7.8033 C   0  0  0  0  0  0  0  0  0  0  0  0
   26.5113  -20.6245   -8.9200 C   0  0  2  0  0  0  0  0  0  0  0  0
   25.8775  -19.9995  -10.1033 N   0  0  0  0  0  0  0  0  0  0  0  0
   25.4329  -21.0741   -8.0345 C   0  0  0  0  0  0  0  0  0  0  0  0
   25.6107  -22.0510   -7.0485 O   0  0  0  0  0  0  0  0  0  0  0  0
   24.2702  -20.6011   -8.1167 O   0  0  0  0  0  0  0  0  0  0  0  0
  2  1  1  6
  2  3  1  0
  4  8  1  0
  4  3  1  0
  5  4  2  0
  6  2  1  0
  7  6  2  0
  9 10  1  0
 10 11  2  0
 10 20  1  0
 11 12  1  0
 12 13  2  0
 13 14  1  0
 15 14  1  6
 15 16  1  0
 16  6  1  0
 17 15  1  0
 17 18  2  0
 19 13  1  0
 20 19  2  0
 21 22  1  0
 23 25  1  0
 23 22  1  0
 23 24  1  1
 25 26  1  6
 26 17  1  0
 27 25  1  0
 28 27  1  0
 29 27  2  0
M  END
$$$$
