DYI.pdb
     RDKit          3D

 29 29  0  0  1  0  0  0  0  0999 V2000
   20.6127   -8.6925  -18.4839 N   0  0  0  0  0  0  0  0  0  0  0  0
   20.2972   -7.3128  -18.7448 C   0  0  1  0  0  0  0  0  0  0  0  0
   19.2978   -7.1188  -19.8650 C   0  0  0  0  0  0  0  0  0  0  0  0
   19.9562   -7.4409  -21.1529 C   0  0  0  0  0  0  0  0  0  0  0  0
   21.1509   -7.1540  -21.3687 O   0  0  0  0  0  0  0  0  0  0  0  0
   19.8360   -6.6921  -17.4818 C   0  0  0  0  0  0  0  0  0  0  0  0
   18.9659   -7.2807  -16.7971 O   0  0  0  0  0  0  0  0  0  0  0  0
   19.2848   -8.0854  -22.2094 O   0  0  0  0  0  0  0  0  0  0  0  0
   22.7065   -9.8176  -12.6308 O   0  0  0  0  0  0  0  0  0  0  0  0
   22.3332   -8.6050  -13.1996 C   0  0  0  0  0  0  0  0  0  0  0  0
   22.9539   -8.1099  -14.3260 C   0  0  0  0  0  0  0  0  0  0  0  0
   22.5571   -6.9088  -14.8576 C   0  0  0  0  0  0  0  0  0  0  0  0
   21.5415   -6.1827  -14.2819 C   0  0  0  0  0  0  0  0  0  0  0  0
   21.2054   -4.8820  -14.8590 C   0  0  0  0  0  0  0  0  0  0  0  0
   19.9763   -4.8629  -15.7228 C   0  0  2  0  0  0  0  0  0  0  0  0
   20.3652   -5.4535  -17.0488 N   0  0  0  0  0  0  0  0  0  0  0  0
   19.5643   -3.5009  -16.0407 C   0  0  0  0  0  0  0  0  0  0  0  0
   20.1329   -2.8949  -16.9878 O   0  0  0  0  0  0  0  0  0  0  0  0
   20.9367   -6.6964  -13.1602 C   0  0  0  0  0  0  0  0  0  0  0  0
   21.3129   -7.8889  -12.6109 C   0  0  0  0  0  0  0  0  0  0  0  0
   15.0492   -2.4289  -17.7910 C   0  0  0  0  0  0  0  0  0  0  0  0
   15.9698   -2.3584  -16.5700 C   0  0  0  0  0  0  0  0  0  0  0  0
   17.2282   -1.6858  -17.0213 C   0  0  2  0  0  0  0  0  0  0  0  0
   17.9874   -2.5360  -18.0256 C   0  0  0  0  0  0  0  0  0  0  0  0
   18.1497   -1.4871  -15.8216 C   0  0  2  0  0  0  0  0  0  0  0  0
   18.5383   -2.8291  -15.3314 N   0  0  0  0  0  0  0  0  0  0  0  0
   17.4277   -0.8184  -14.7349 C   0  0  0  0  0  0  0  0  0  0  0  0
   17.0079   -1.4798  -13.5754 O   0  0  0  0  0  0  0  0  0  0  0  0
   17.1390    0.4048  -14.7884 O   0  0  0  0  0  0  0  0  0  0  0  0
  2  1  1  1
  2  3  1  0
  4  8  1  0
  4  3  1  0
  5  4  2  0
  6  2  1  0
  7  6  2  0
  9 10  1  0
 10 11  2  0
 10 20  1  0
 11 12  1  0
 12 13  2  0
 13 14  1  0
 15 14  1  1
 15 16  1  0
 16  6  1  0
 17 15  1  0
 17 18  2  0
 19 13  1  0
 20 19  2  0
 21 22  1  0
 23 25  1  0
 23 22  1  0
 23 24  1  6
 25 26  1  1
 26 17  1  0
 27 25  1  0
 28 27  1  0
 29 27  2  0
M  END
$$$$
