DYI.pdb
     RDKit          3D

 29 29  0  0  1  0  0  0  0  0999 V2000
   42.5527   -6.9110   -4.9064 N   0  0  0  0  0  0  0  0  0  0  0  0
   43.1741   -7.5161   -6.0547 C   0  0  1  0  0  0  0  0  0  0  0  0
   44.6824   -7.5988   -5.9572 C   0  0  0  0  0  0  0  0  0  0  0  0
   45.2398   -6.2268   -6.0090 C   0  0  0  0  0  0  0  0  0  0  0  0
   44.7796   -5.3604   -6.7797 O   0  0  0  0  0  0  0  0  0  0  0  0
   42.5624   -8.8476   -6.2698 C   0  0  0  0  0  0  0  0  0  0  0  0
   42.3176   -9.5720   -5.2759 O   0  0  0  0  0  0  0  0  0  0  0  0
   46.3158   -5.8125   -5.2009 O   0  0  0  0  0  0  0  0  0  0  0  0
   36.0604   -7.7957   -6.3286 O   0  0  0  0  0  0  0  0  0  0  0  0
   37.1319   -8.4464   -6.9302 C   0  0  0  0  0  0  0  0  0  0  0  0
   37.5732   -9.6761   -6.4918 C   0  0  0  0  0  0  0  0  0  0  0  0
   38.6344  -10.2864   -7.1116 C   0  0  0  0  0  0  0  0  0  0  0  0
   39.2720   -9.6881   -8.1726 C   0  0  0  0  0  0  0  0  0  0  0  0
   40.4344  -10.3601   -8.7517 C   0  0  0  0  0  0  0  0  0  0  0  0
   41.5665  -10.6173   -7.7980 C   0  0  2  0  0  0  0  0  0  0  0  0
   42.2567   -9.3013   -7.5744 N   0  0  0  0  0  0  0  0  0  0  0  0
   42.5904  -11.4655   -8.3962 C   0  0  0  0  0  0  0  0  0  0  0  0
   43.5032  -10.9321   -9.0817 O   0  0  0  0  0  0  0  0  0  0  0  0
   38.8142   -8.4628   -8.5928 C   0  0  0  0  0  0  0  0  0  0  0  0
   37.7605   -7.8337   -7.9931 C   0  0  0  0  0  0  0  0  0  0  0  0
   45.4202  -16.7827   -7.6479 C   0  0  0  0  0  0  0  0  0  0  0  0
   45.1388  -15.6134   -8.5950 C   0  0  0  0  0  0  0  0  0  0  0  0
   44.0329  -14.8179   -7.9756 C   0  0  2  0  0  0  0  0  0  0  0  0
   42.7502  -15.6257   -7.8770 C   0  0  0  0  0  0  0  0  0  0  0  0
   43.7297  -13.6091   -8.8560 C   0  0  2  0  0  0  0  0  0  0  0  0
   42.6082  -12.8723   -8.2301 N   0  0  0  0  0  0  0  0  0  0  0  0
   43.2778  -14.0484  -10.1796 C   0  0  0  0  0  0  0  0  0  0  0  0
   44.1571  -14.3772  -11.2174 O   0  0  0  0  0  0  0  0  0  0  0  0
   42.0558  -14.1518  -10.4597 O   0  0  0  0  0  0  0  0  0  0  0  0
  2  1  1  1
  2  3  1  0
  4  8  1  0
  4  3  1  0
  5  4  2  0
  6  2  1  0
  7  6  2  0
  9 10  1  0
 10 11  2  0
 10 20  1  0
 11 12  1  0
 12 13  2  0
 13 14  1  0
 15 14  1  6
 15 16  1  0
 16  6  1  0
 17 15  1  0
 17 18  2  0
 19 13  1  0
 20 19  2  0
 21 22  1  0
 23 25  1  0
 23 22  1  0
 23 24  1  6
 25 26  1  1
 26 17  1  0
 27 25  1  0
 28 27  1  0
 29 27  2  0
M  END
$$$$
