DYI.pdb
     RDKit          3D

 29 29  0  0  1  0  0  0  0  0999 V2000
   15.0539  -12.9959  -15.5150 N   0  0  0  0  0  0  0  0  0  0  0  0
   14.7270  -11.6426  -15.1506 C   0  0  1  0  0  0  0  0  0  0  0  0
   13.3173  -11.4780  -14.6246 C   0  0  0  0  0  0  0  0  0  0  0  0
   12.4042  -12.3164  -15.4365 C   0  0  0  0  0  0  0  0  0  0  0  0
   12.0063  -11.9530  -16.5617 O   0  0  0  0  0  0  0  0  0  0  0  0
   15.7368  -11.1634  -14.1789 C   0  0  0  0  0  0  0  0  0  0  0  0
   16.5213  -11.9919  -13.6588 O   0  0  0  0  0  0  0  0  0  0  0  0
   11.9283  -13.5667  -14.9975 O   0  0  0  0  0  0  0  0  0  0  0  0
   22.1830   -6.0475  -11.3162 O   0  0  0  0  0  0  0  0  0  0  0  0
   21.1361   -6.6793  -11.9780 C   0  0  0  0  0  0  0  0  0  0  0  0
   20.0507   -5.9774  -12.4561 C   0  0  0  0  0  0  0  0  0  0  0  0
   19.0369   -6.6371  -13.1040 C   0  0  0  0  0  0  0  0  0  0  0  0
   19.0841   -7.9988  -13.2871 C   0  0  0  0  0  0  0  0  0  0  0  0
   17.9452   -8.6519  -13.9309 C   0  0  0  0  0  0  0  0  0  0  0  0
   16.9466   -9.2687  -12.9932 C   0  0  2  0  0  0  0  0  0  0  0  0
   15.8198   -9.7928  -13.8383 N   0  0  0  0  0  0  0  0  0  0  0  0
   16.3216   -8.2661  -12.1388 C   0  0  0  0  0  0  0  0  0  0  0  0
   15.6112   -7.3693  -12.6666 O   0  0  0  0  0  0  0  0  0  0  0  0
   20.1762   -8.6774  -12.8029 C   0  0  0  0  0  0  0  0  0  0  0  0
   21.1983   -8.0451  -12.1541 C   0  0  0  0  0  0  0  0  0  0  0  0
   12.9250   -8.8957   -8.5746 C   0  0  0  0  0  0  0  0  0  0  0  0
   13.7589   -8.1941   -9.6496 C   0  0  0  0  0  0  0  0  0  0  0  0
   14.9520   -7.6155   -8.9557 C   0  0  2  0  0  0  0  0  0  0  0  0
   14.5707   -6.4359   -8.0779 C   0  0  0  0  0  0  0  0  0  0  0  0
   15.9354   -7.0932   -9.9988 C   0  0  2  0  0  0  0  0  0  0  0  0
   16.4723   -8.2634  -10.7301 N   0  0  0  0  0  0  0  0  0  0  0  0
   17.0673   -6.4336   -9.3409 C   0  0  0  0  0  0  0  0  0  0  0  0
   18.3460   -6.9978   -9.2715 O   0  0  0  0  0  0  0  0  0  0  0  0
   16.9476   -5.3084   -8.7913 O   0  0  0  0  0  0  0  0  0  0  0  0
  2  1  1  1
  2  3  1  0
  4  8  1  0
  4  3  1  0
  5  4  2  0
  6  2  1  0
  7  6  2  0
  9 10  1  0
 10 11  2  0
 10 20  1  0
 11 12  1  0
 12 13  2  0
 13 14  1  0
 15 14  1  6
 15 16  1  0
 16  6  1  0
 17 15  1  0
 17 18  2  0
 19 13  1  0
 20 19  2  0
 21 22  1  0
 23 25  1  0
 23 22  1  0
 23 24  1  1
 25 26  1  1
 26 17  1  0
 27 25  1  0
 28 27  1  0
 29 27  2  0
M  END
$$$$
