DYI.pdb
     RDKit          3D

 29 29  0  0  1  0  0  0  0  0999 V2000
   28.5101  -23.4101  -17.5781 N   0  0  0  0  0  0  0  0  0  0  0  0
   28.1672  -22.0885  -17.1235 C   0  0  1  0  0  0  0  0  0  0  0  0
   27.4648  -21.2489  -18.1689 C   0  0  0  0  0  0  0  0  0  0  0  0
   28.4228  -20.9422  -19.2570 C   0  0  0  0  0  0  0  0  0  0  0  0
   28.0975  -21.0206  -20.4589 O   0  0  0  0  0  0  0  0  0  0  0  0
   27.3627  -22.2140  -15.8864 C   0  0  0  0  0  0  0  0  0  0  0  0
   26.4977  -23.1187  -15.8127 O   0  0  0  0  0  0  0  0  0  0  0  0
   29.7513  -20.5460  -19.0109 O   0  0  0  0  0  0  0  0  0  0  0  0
   24.5433  -20.0351   -7.7238 O   0  0  0  0  0  0  0  0  0  0  0  0
   25.2803  -20.1834   -8.8934 C   0  0  0  0  0  0  0  0  0  0  0  0
   25.5682  -19.1118   -9.7108 C   0  0  0  0  0  0  0  0  0  0  0  0
   26.2984  -19.2987  -10.8574 C   0  0  0  0  0  0  0  0  0  0  0  0
   26.7528  -20.5475  -11.2096 C   0  0  0  0  0  0  0  0  0  0  0  0
   27.4731  -20.6923  -12.4738 C   0  0  0  0  0  0  0  0  0  0  0  0
   26.7324  -21.4315  -13.5519 C   0  0  2  0  0  0  0  0  0  0  0  0
   27.5623  -21.3293  -14.8006 N   0  0  0  0  0  0  0  0  0  0  0  0
   25.4802  -20.7681  -13.8948 C   0  0  0  0  0  0  0  0  0  0  0  0
   25.5183  -19.6696  -14.5107 O   0  0  0  0  0  0  0  0  0  0  0  0
   26.4545  -21.6006  -10.3792 C   0  0  0  0  0  0  0  0  0  0  0  0
   25.7292  -21.4419   -9.2327 C   0  0  0  0  0  0  0  0  0  0  0  0
   22.4715  -21.0569  -17.5977 C   0  0  0  0  0  0  0  0  0  0  0  0
   23.1544  -20.4944  -16.3484 C   0  0  0  0  0  0  0  0  0  0  0  0
   22.4119  -21.0439  -15.1709 C   0  0  2  0  0  0  0  0  0  0  0  0
   20.9533  -20.6198  -15.1822 C   0  0  0  0  0  0  0  0  0  0  0  0
   23.0251  -20.4909  -13.8879 C   0  0  2  0  0  0  0  0  0  0  0  0
   24.2139  -21.3149  -13.5713 N   0  0  0  0  0  0  0  0  0  0  0  0
   22.0838  -20.6377  -12.7736 C   0  0  0  0  0  0  0  0  0  0  0  0
   21.1955  -19.6286  -12.3853 O   0  0  0  0  0  0  0  0  0  0  0  0
   22.0253  -21.6941  -12.0932 O   0  0  0  0  0  0  0  0  0  0  0  0
  2  1  1  6
  2  3  1  0
  4  8  1  0
  4  3  1  0
  5  4  2  0
  6  2  1  0
  7  6  2  0
  9 10  1  0
 10 11  2  0
 10 20  1  0
 11 12  1  0
 12 13  2  0
 13 14  1  0
 15 14  1  1
 15 16  1  0
 16  6  1  0
 17 15  1  0
 17 18  2  0
 19 13  1  0
 20 19  2  0
 21 22  1  0
 23 25  1  0
 23 22  1  0
 23 24  1  6
 25 26  1  1
 26 17  1  0
 27 25  1  0
 28 27  1  0
 29 27  2  0
M  END
$$$$
