DYI.pdb
     RDKit          3D

 29 29  0  0  1  0  0  0  0  0999 V2000
   23.2849  -12.0524  -18.4945 N   0  0  0  0  0  0  0  0  0  0  0  0
   22.3616  -10.9709  -18.7156 C   0  0  1  0  0  0  0  0  0  0  0  0
   20.9537  -11.4282  -19.0317 C   0  0  0  0  0  0  0  0  0  0  0  0
   20.9650  -12.1464  -20.3279 C   0  0  0  0  0  0  0  0  0  0  0  0
   20.4065  -13.2528  -20.4697 O   0  0  0  0  0  0  0  0  0  0  0  0
   22.3982  -10.0767  -17.5357 C   0  0  0  0  0  0  0  0  0  0  0  0
   22.0683  -10.5339  -16.4157 O   0  0  0  0  0  0  0  0  0  0  0  0
   21.6008  -11.6343  -21.4750 O   0  0  0  0  0  0  0  0  0  0  0  0
   28.1215  -11.2774  -15.4529 O   0  0  0  0  0  0  0  0  0  0  0  0
   27.1475  -10.3102  -15.6748 C   0  0  0  0  0  0  0  0  0  0  0  0
   27.0795   -9.6064  -16.8577 C   0  0  0  0  0  0  0  0  0  0  0  0
   26.1035   -8.6592  -17.0387 C   0  0  0  0  0  0  0  0  0  0  0  0
   25.1826   -8.3965  -16.0523 C   0  0  0  0  0  0  0  0  0  0  0  0
   24.2050   -7.3336  -16.2814 C   0  0  0  0  0  0  0  0  0  0  0  0
   22.7901   -7.7972  -16.4821 C   0  0  2  0  0  0  0  0  0  0  0  0
   22.7984   -8.7257  -17.6637 N   0  0  0  0  0  0  0  0  0  0  0  0
   21.9186   -6.7016  -16.8895 C   0  0  0  0  0  0  0  0  0  0  0  0
   22.1117   -6.1483  -18.0049 O   0  0  0  0  0  0  0  0  0  0  0  0
   25.2693   -9.1109  -14.8819 C   0  0  0  0  0  0  0  0  0  0  0  0
   26.2311  -10.0585  -14.6761 C   0  0  0  0  0  0  0  0  0  0  0  0
   16.9672   -5.6145  -18.9200 C   0  0  0  0  0  0  0  0  0  0  0  0
   17.9459   -4.8686  -18.0094 C   0  0  0  0  0  0  0  0  0  0  0  0
   18.9549   -5.8743  -17.5509 C   0  0  2  0  0  0  0  0  0  0  0  0
   18.3129   -6.9710  -16.7186 C   0  0  0  0  0  0  0  0  0  0  0  0
   19.9825   -5.1840  -16.6590 C   0  0  2  0  0  0  0  0  0  0  0  0
   20.8508   -6.2362  -16.0832 N   0  0  0  0  0  0  0  0  0  0  0  0
   19.3122   -4.5123  -15.5416 C   0  0  0  0  0  0  0  0  0  0  0  0
   18.6905   -3.2644  -15.6618 O   0  0  0  0  0  0  0  0  0  0  0  0
   19.2618   -5.0278  -14.3953 O   0  0  0  0  0  0  0  0  0  0  0  0
  2  1  1  1
  2  3  1  0
  4  8  1  0
  4  3  1  0
  5  4  2  0
  6  2  1  0
  7  6  2  0
  9 10  1  0
 10 11  2  0
 10 20  1  0
 11 12  1  0
 12 13  2  0
 13 14  1  0
 15 14  1  6
 15 16  1  0
 16  6  1  0
 17 15  1  0
 17 18  2  0
 19 13  1  0
 20 19  2  0
 21 22  1  0
 23 25  1  0
 23 22  1  0
 23 24  1  1
 25 26  1  1
 26 17  1  0
 27 25  1  0
 28 27  1  0
 29 27  2  0
M  END
$$$$
