DYI.pdb
     RDKit          3D

 29 29  0  0  1  0  0  0  0  0999 V2000
   24.9888  -10.6311  -21.3782 N   0  0  0  0  0  0  0  0  0  0  0  0
   24.0255  -10.8463  -20.3309 C   0  0  1  0  0  0  0  0  0  0  0  0
   24.2758  -12.1014  -19.5227 C   0  0  0  0  0  0  0  0  0  0  0  0
   23.9208  -13.2794  -20.3486 C   0  0  0  0  0  0  0  0  0  0  0  0
   24.5042  -14.3740  -20.2153 O   0  0  0  0  0  0  0  0  0  0  0  0
   23.9884   -9.6384  -19.4748 C   0  0  0  0  0  0  0  0  0  0  0  0
   25.0534   -9.2284  -18.9551 O   0  0  0  0  0  0  0  0  0  0  0  0
   22.9118  -13.2434  -21.3299 O   0  0  0  0  0  0  0  0  0  0  0  0
   25.6076   -4.4388  -23.1274 O   0  0  0  0  0  0  0  0  0  0  0  0
   24.7308   -4.9651  -22.1852 C   0  0  0  0  0  0  0  0  0  0  0  0
   24.5517   -4.3766  -20.9519 C   0  0  0  0  0  0  0  0  0  0  0  0
   23.6773   -4.9264  -20.0486 C   0  0  0  0  0  0  0  0  0  0  0  0
   22.9693   -6.0647  -20.3539 C   0  0  0  0  0  0  0  0  0  0  0  0
   22.0991   -6.6363  -19.3273 C   0  0  0  0  0  0  0  0  0  0  0  0
   22.7391   -7.6758  -18.4514 C   0  0  2  0  0  0  0  0  0  0  0  0
   22.7727   -8.9530  -19.2427 N   0  0  0  0  0  0  0  0  0  0  0  0
   21.9085   -7.9889  -17.2948 C   0  0  0  0  0  0  0  0  0  0  0  0
   20.7775   -8.5133  -17.4776 O   0  0  0  0  0  0  0  0  0  0  0  0
   23.1635   -6.6333  -21.5894 C   0  0  0  0  0  0  0  0  0  0  0  0
   24.0280   -6.1067  -22.5064 C   0  0  0  0  0  0  0  0  0  0  0  0
   23.4428  -11.1182  -13.6845 C   0  0  0  0  0  0  0  0  0  0  0  0
   22.6412  -10.2724  -14.6770 C   0  0  0  0  0  0  0  0  0  0  0  0
   22.1902   -9.0540  -13.9342 C   0  0  2  0  0  0  0  0  0  0  0  0
   21.2572   -9.4103  -12.7896 C   0  0  0  0  0  0  0  0  0  0  0  0
   21.4063   -8.1500  -14.8810 C   0  0  2  0  0  0  0  0  0  0  0  0
   22.3261   -7.7359  -15.9649 N   0  0  0  0  0  0  0  0  0  0  0  0
   20.9806   -6.9337  -14.1821 C   0  0  0  0  0  0  0  0  0  0  0  0
   21.7372   -5.7567  -14.1660 O   0  0  0  0  0  0  0  0  0  0  0  0
   19.8966   -6.8826  -13.5458 O   0  0  0  0  0  0  0  0  0  0  0  0
  2  1  1  6
  2  3  1  0
  4  8  1  0
  4  3  1  0
  5  4  2  0
  6  2  1  0
  7  6  2  0
  9 10  1  0
 10 11  2  0
 10 20  1  0
 11 12  1  0
 12 13  2  0
 13 14  1  0
 15 14  1  6
 15 16  1  0
 16  6  1  0
 17 15  1  0
 17 18  2  0
 19 13  1  0
 20 19  2  0
 21 22  1  0
 23 25  1  0
 23 22  1  0
 23 24  1  1
 25 26  1  6
 26 17  1  0
 27 25  1  0
 28 27  1  0
 29 27  2  0
M  END
$$$$
