DYI.pdb
     RDKit          3D

 29 29  0  0  1  0  0  0  0  0999 V2000
   20.7583   -8.9074  -22.2822 N   0  0  0  0  0  0  0  0  0  0  0  0
   21.0679   -9.1344  -20.8952 C   0  0  1  0  0  0  0  0  0  0  0  0
   22.4740   -9.6437  -20.6613 C   0  0  0  0  0  0  0  0  0  0  0  0
   22.5777  -11.0214  -21.1971 C   0  0  0  0  0  0  0  0  0  0  0  0
   21.8323  -11.9385  -20.7977 O   0  0  0  0  0  0  0  0  0  0  0  0
   20.8034   -7.8841  -20.1467 C   0  0  0  0  0  0  0  0  0  0  0  0
   21.1305   -6.7876  -20.6596 O   0  0  0  0  0  0  0  0  0  0  0  0
   23.5152  -11.3850  -22.1827 O   0  0  0  0  0  0  0  0  0  0  0  0
   14.6670  -10.2423  -17.1555 O   0  0  0  0  0  0  0  0  0  0  0  0
   15.6247   -9.2710  -17.4249 C   0  0  0  0  0  0  0  0  0  0  0  0
   16.0141   -8.3522  -16.4743 C   0  0  0  0  0  0  0  0  0  0  0  0
   16.9624   -7.4084  -16.7786 C   0  0  0  0  0  0  0  0  0  0  0  0
   17.5374   -7.3617  -18.0265 C   0  0  0  0  0  0  0  0  0  0  0  0
   18.4970   -6.2951  -18.3085 C   0  0  0  0  0  0  0  0  0  0  0  0
   19.9392   -6.6582  -18.0950 C   0  0  2  0  0  0  0  0  0  0  0  0
   20.1915   -7.9198  -18.8717 N   0  0  0  0  0  0  0  0  0  0  0  0
   20.2003   -7.0286  -16.7092 C   0  0  0  0  0  0  0  0  0  0  0  0
   19.6708   -8.0734  -16.2449 O   0  0  0  0  0  0  0  0  0  0  0  0
   17.1343   -8.2881  -18.9576 C   0  0  0  0  0  0  0  0  0  0  0  0
   16.1922   -9.2374  -18.6807 C   0  0  0  0  0  0  0  0  0  0  0  0
   23.6363   -9.9174  -14.0070 C   0  0  0  0  0  0  0  0  0  0  0  0
   22.7689   -8.7178  -13.6171 C   0  0  0  0  0  0  0  0  0  0  0  0
   22.3178   -8.0827  -14.8949 C   0  0  2  0  0  0  0  0  0  0  0  0
   23.4923   -7.5638  -15.7065 C   0  0  0  0  0  0  0  0  0  0  0  0
   21.4344   -6.8808  -14.5739 C   0  0  2  0  0  0  0  0  0  0  0  0
   21.0374   -6.2637  -15.8599 N   0  0  0  0  0  0  0  0  0  0  0  0
   22.1982   -5.8773  -13.8263 C   0  0  0  0  0  0  0  0  0  0  0  0
   22.4462   -5.9728  -12.4525 O   0  0  0  0  0  0  0  0  0  0  0  0
   22.6765   -4.8583  -14.3876 O   0  0  0  0  0  0  0  0  0  0  0  0
  2  1  1  6
  2  3  1  0
  4  8  1  0
  4  3  1  0
  5  4  2  0
  6  2  1  0
  7  6  2  0
  9 10  1  0
 10 11  2  0
 10 20  1  0
 11 12  1  0
 12 13  2  0
 13 14  1  0
 15 14  1  1
 15 16  1  0
 16  6  1  0
 17 15  1  0
 17 18  2  0
 19 13  1  0
 20 19  2  0
 21 22  1  0
 23 25  1  0
 23 22  1  0
 23 24  1  1
 25 26  1  6
 26 17  1  0
 27 25  1  0
 28 27  1  0
 29 27  2  0
M  END
$$$$
