DYI.pdb
     RDKit          3D

 29 29  0  0  1  0  0  0  0  0999 V2000
   21.3220   -6.8621  -14.3449 N   0  0  0  0  0  0  0  0  0  0  0  0
   21.9195   -7.4872  -15.4952 C   0  0  1  0  0  0  0  0  0  0  0  0
   21.0778   -8.5950  -16.0913 C   0  0  0  0  0  0  0  0  0  0  0  0
   20.0527   -9.0009  -15.1012 C   0  0  0  0  0  0  0  0  0  0  0  0
   18.8414   -9.0528  -15.3947 O   0  0  0  0  0  0  0  0  0  0  0  0
   22.2299   -6.4351  -16.4902 C   0  0  0  0  0  0  0  0  0  0  0  0
   22.8252   -6.7541  -17.5468 O   0  0  0  0  0  0  0  0  0  0  0  0
   20.3732   -9.3514  -13.7757 O   0  0  0  0  0  0  0  0  0  0  0  0
   22.0370   -0.6393  -22.6708 O   0  0  0  0  0  0  0  0  0  0  0  0
   21.8797   -1.5772  -21.6565 C   0  0  0  0  0  0  0  0  0  0  0  0
   20.7309   -1.6400  -20.8977 C   0  0  0  0  0  0  0  0  0  0  0  0
   20.6135   -2.5799  -19.9050 C   0  0  0  0  0  0  0  0  0  0  0  0
   21.6306   -3.4693  -19.6506 C   0  0  0  0  0  0  0  0  0  0  0  0
   21.4704   -4.4071  -18.5402 C   0  0  0  0  0  0  0  0  0  0  0  0
   22.1643   -4.0159  -17.2664 C   0  0  2  0  0  0  0  0  0  0  0  0
   21.8632   -5.0887  -16.2579 N   0  0  0  0  0  0  0  0  0  0  0  0
   21.5884   -2.8065  -16.6906 C   0  0  0  0  0  0  0  0  0  0  0  0
   20.6064   -2.9091  -15.9078 O   0  0  0  0  0  0  0  0  0  0  0  0
   22.7659   -3.3885  -20.4202 C   0  0  0  0  0  0  0  0  0  0  0  0
   22.9083   -2.4623  -21.4139 C   0  0  0  0  0  0  0  0  0  0  0  0
   23.1039    2.5825  -14.5717 C   0  0  0  0  0  0  0  0  0  0  0  0
   21.9541    1.7794  -15.1852 C   0  0  0  0  0  0  0  0  0  0  0  0
   22.5648    0.5595  -15.8005 C   0  0  2  0  0  0  0  0  0  0  0  0
   23.3971    0.9068  -17.0229 C   0  0  0  0  0  0  0  0  0  0  0  0
   21.4545   -0.3755  -16.2704 C   0  0  2  0  0  0  0  0  0  0  0  0
   22.0958   -1.5132  -16.9680 N   0  0  0  0  0  0  0  0  0  0  0  0
   20.5979    0.3066  -17.2452 C   0  0  0  0  0  0  0  0  0  0  0  0
   19.5628    1.1739  -16.8784 O   0  0  0  0  0  0  0  0  0  0  0  0
   20.7470    0.1438  -18.4836 O   0  0  0  0  0  0  0  0  0  0  0  0
  2  1  1  1
  2  3  1  0
  4  8  1  0
  4  3  1  0
  5  4  2  0
  6  2  1  0
  7  6  2  0
  9 10  1  0
 10 11  2  0
 10 20  1  0
 11 12  1  0
 12 13  2  0
 13 14  1  0
 15 14  1  6
 15 16  1  0
 16  6  1  0
 17 15  1  0
 17 18  2  0
 19 13  1  0
 20 19  2  0
 21 22  1  0
 23 25  1  0
 23 22  1  0
 23 24  1  6
 25 26  1  6
 26 17  1  0
 27 25  1  0
 28 27  1  0
 29 27  2  0
M  END
$$$$
