DYI.pdb
     RDKit          3D

 29 29  0  0  1  0  0  0  0  0999 V2000
   27.7582  -20.5704  -17.2918 N   0  0  0  0  0  0  0  0  0  0  0  0
   27.5664  -21.4568  -16.1744 C   0  0  1  0  0  0  0  0  0  0  0  0
   28.8585  -21.9753  -15.5806 C   0  0  0  0  0  0  0  0  0  0  0  0
   29.4204  -23.0050  -16.4861 C   0  0  0  0  0  0  0  0  0  0  0  0
   28.9192  -23.2395  -17.6041 O   0  0  0  0  0  0  0  0  0  0  0  0
   26.7358  -20.7621  -15.1641 C   0  0  0  0  0  0  0  0  0  0  0  0
   26.8641  -19.5232  -15.0191 O   0  0  0  0  0  0  0  0  0  0  0  0
   30.5460  -23.7809  -16.1491 O   0  0  0  0  0  0  0  0  0  0  0  0
   19.6271  -19.0643  -10.2662 O   0  0  0  0  0  0  0  0  0  0  0  0
   20.5733  -19.6009  -11.1322 C   0  0  0  0  0  0  0  0  0  0  0  0
   21.0763  -20.8724  -10.9602 C   0  0  0  0  0  0  0  0  0  0  0  0
   22.0096  -21.3666  -11.8363 C   0  0  0  0  0  0  0  0  0  0  0  0
   22.4566  -20.6096  -12.8933 C   0  0  0  0  0  0  0  0  0  0  0  0
   23.4961  -21.1688  -13.7562 C   0  0  0  0  0  0  0  0  0  0  0  0
   24.9021  -20.7730  -13.4043 C   0  0  2  0  0  0  0  0  0  0  0  0
   25.8098  -21.4799  -14.3712 N   0  0  0  0  0  0  0  0  0  0  0  0
   25.2940  -21.2881  -12.0979 C   0  0  0  0  0  0  0  0  0  0  0  0
   25.5648  -22.5129  -11.9791 O   0  0  0  0  0  0  0  0  0  0  0  0
   21.9405  -19.3454  -13.0453 C   0  0  0  0  0  0  0  0  0  0  0  0
   21.0113  -18.8295  -12.1874 C   0  0  0  0  0  0  0  0  0  0  0  0
   28.5118  -19.8716   -7.2832 C   0  0  0  0  0  0  0  0  0  0  0  0
   27.4263  -20.8077   -7.8205 C   0  0  0  0  0  0  0  0  0  0  0  0
   26.9004  -20.1788   -9.0725 C   0  0  2  0  0  0  0  0  0  0  0  0
   26.2037  -18.8597   -8.7857 C   0  0  0  0  0  0  0  0  0  0  0  0
   25.8608  -21.1026   -9.7002 C   0  0  2  0  0  0  0  0  0  0  0  0
   25.3935  -20.4625  -10.9509 N   0  0  0  0  0  0  0  0  0  0  0  0
   24.6988  -21.2310   -8.8157 C   0  0  0  0  0  0  0  0  0  0  0  0
   23.4616  -20.6363   -9.0877 O   0  0  0  0  0  0  0  0  0  0  0  0
   24.7528  -21.8901   -7.7456 O   0  0  0  0  0  0  0  0  0  0  0  0
  2  1  1  6
  2  3  1  0
  4  8  1  0
  4  3  1  0
  5  4  2  0
  6  2  1  0
  7  6  2  0
  9 10  1  0
 10 11  2  0
 10 20  1  0
 11 12  1  0
 12 13  2  0
 13 14  1  0
 15 14  1  6
 15 16  1  0
 16  6  1  0
 17 15  1  0
 17 18  2  0
 19 13  1  0
 20 19  2  0
 21 22  1  0
 23 25  1  0
 23 22  1  0
 23 24  1  1
 25 26  1  6
 26 17  1  0
 27 25  1  0
 28 27  1  0
 29 27  2  0
M  END
$$$$
