DYI.pdb
     RDKit          3D

 29 29  0  0  1  0  0  0  0  0999 V2000
   20.1456  -12.7103  -17.6516 N   0  0  0  0  0  0  0  0  0  0  0  0
   18.9777  -12.6307  -16.8145 C   0  0  1  0  0  0  0  0  0  0  0  0
   18.7915  -13.8333  -15.9143 C   0  0  0  0  0  0  0  0  0  0  0  0
   18.5700  -15.0312  -16.7581 C   0  0  0  0  0  0  0  0  0  0  0  0
   19.3036  -15.2917  -17.7329 O   0  0  0  0  0  0  0  0  0  0  0  0
   19.0420  -11.3691  -16.0416 C   0  0  0  0  0  0  0  0  0  0  0  0
   18.1055  -11.0887  -15.2562 O   0  0  0  0  0  0  0  0  0  0  0  0
   17.5272  -15.9466  -16.5196 O   0  0  0  0  0  0  0  0  0  0  0  0
   22.8091   -3.6705  -13.6072 O   0  0  0  0  0  0  0  0  0  0  0  0
   22.5363   -4.9854  -13.9677 C   0  0  0  0  0  0  0  0  0  0  0  0
   22.7973   -5.4596  -15.2351 C   0  0  0  0  0  0  0  0  0  0  0  0
   22.5137   -6.7640  -15.5527 C   0  0  0  0  0  0  0  0  0  0  0  0
   21.9687   -7.6153  -14.6209 C   0  0  0  0  0  0  0  0  0  0  0  0
   21.6327   -8.9761  -15.0374 C   0  0  0  0  0  0  0  0  0  0  0  0
   20.1982   -9.1902  -15.4293 C   0  0  2  0  0  0  0  0  0  0  0  0
   20.1406  -10.4890  -16.1829 N   0  0  0  0  0  0  0  0  0  0  0  0
   19.7503   -8.1925  -16.3935 C   0  0  0  0  0  0  0  0  0  0  0  0
   20.2335   -8.2059  -17.5571 O   0  0  0  0  0  0  0  0  0  0  0  0
   21.7179   -7.1208  -13.3638 C   0  0  0  0  0  0  0  0  0  0  0  0
   21.9903   -5.8267  -13.0220 C   0  0  0  0  0  0  0  0  0  0  0  0
   15.2429   -5.8300  -19.0980 C   0  0  0  0  0  0  0  0  0  0  0  0
   16.6201   -5.4270  -18.5648 C   0  0  0  0  0  0  0  0  0  0  0  0
   17.0437   -6.5045  -17.6165 C   0  0  2  0  0  0  0  0  0  0  0  0
   16.1555   -6.5463  -16.3848 C   0  0  0  0  0  0  0  0  0  0  0  0
   18.4617   -6.2178  -17.1317 C   0  0  2  0  0  0  0  0  0  0  0  0
   18.7811   -7.2084  -16.0785 N   0  0  0  0  0  0  0  0  0  0  0  0
   18.5263   -4.8895  -16.5147 C   0  0  0  0  0  0  0  0  0  0  0  0
   18.6588   -3.7089  -17.2541 O   0  0  0  0  0  0  0  0  0  0  0  0
   18.4688   -4.7371  -15.2674 O   0  0  0  0  0  0  0  0  0  0  0  0
  2  1  1  1
  2  3  1  0
  4  8  1  0
  4  3  1  0
  5  4  2  0
  6  2  1  0
  7  6  2  0
  9 10  1  0
 10 11  2  0
 10 20  1  0
 11 12  1  0
 12 13  2  0
 13 14  1  0
 15 14  1  6
 15 16  1  0
 16  6  1  0
 17 15  1  0
 17 18  2  0
 19 13  1  0
 20 19  2  0
 21 22  1  0
 23 25  1  0
 23 22  1  0
 23 24  1  1
 25 26  1  1
 26 17  1  0
 27 25  1  0
 28 27  1  0
 29 27  2  0
M  END
$$$$
