CNM.pdb
     RDKit          3D

 23 22  0  0  1  0  0  0  0  0999 V2000
    7.7717  -15.1333   17.3557 N   0  0  0  0  0  0  0  0  0  0  0  0
    8.5332  -14.5425   18.4353 C   0  0  1  0  0  0  0  0  0  0  0  0
    7.8227  -13.2396   18.7925 C   0  0  0  0  0  0  0  0  0  0  0  0
    8.5761  -12.4354   20.2240 S   0  0  0  0  0  0  0  0  0  0  0  0
    8.5060  -15.3988   19.6600 C   0  0  0  0  0  0  0  0  0  0  0  0
    7.4260  -15.9215   20.0225 O   0  0  0  0  0  0  0  0  0  0  0  0
   10.0102  -19.5160   21.0935 N   0  0  0  0  0  0  0  0  0  0  0  0
   10.8182  -18.3785   20.7490 C   0  0  0  0  0  0  0  0  0  0  0  0
   11.3998  -18.4172   19.6440 O   0  0  0  0  0  0  0  0  0  0  0  0
   10.8766  -17.2873   21.7325 C   0  0  0  0  0  0  0  0  0  0  0  0
    9.6107  -16.4733   21.6401 C   0  0  2  0  0  0  0  0  0  0  0  0
    9.6773  -15.6487   20.4447 N   0  0  0  0  0  0  0  0  0  0  0  0
    9.4762  -15.5633   22.8214 C   0  0  0  0  0  0  0  0  0  0  0  0
   10.1823  -14.5367   22.9435 O   0  0  0  0  0  0  0  0  0  0  0  0
    6.4995  -11.2711   28.0729 C   0  0  0  0  0  0  0  0  0  0  0  0
    7.3804  -12.1472   26.7316 S   0  0  0  0  0  0  0  0  0  0  0  0
    6.5662  -13.5755   26.1536 C   0  0  0  0  0  0  0  0  0  0  0  0
    6.9865  -14.4367   25.0637 C   0  0  0  0  0  0  0  0  0  0  0  0
    8.3821  -14.8429   24.9162 C   0  0  2  0  0  0  0  0  0  0  0  0
    8.5440  -15.8431   23.8310 N   0  0  0  0  0  0  0  0  0  0  0  0
    8.6780  -15.7686   26.0909 C   0  0  0  0  0  0  0  0  0  0  0  0
    8.2494  -16.9502   26.0459 O   0  0  0  0  0  0  0  0  0  0  0  0
    9.3704  -15.3995   27.1803 O   0  0  0  0  0  0  0  0  0  0  0  0
  2  5  1  0
  2  1  1  6
  2  3  1  0
  4  3  1  0
  5  6  2  0
  7  8  1  0
  8  9  2  0
  8 10  1  0
 11 10  1  1
 11 13  1  0
 12 11  1  0
 12  5  1  0
 13 20  1  0
 13 14  2  0
 15 16  1  0
 17 16  1  0
 18 17  1  0
 19 18  1  1
 20 19  1  0
 21 19  1  0
 21 23  1  0
 22 21  2  0
M  END
$$$$
