CNM.pdb
     RDKit          3D

 23 22  0  0  1  0  0  0  0  0999 V2000
    7.1488  -14.7731   19.1853 N   0  0  0  0  0  0  0  0  0  0  0  0
    8.3452  -14.5022   19.9533 C   0  0  1  0  0  0  0  0  0  0  0  0
    8.2116  -13.0669   20.4551 C   0  0  0  0  0  0  0  0  0  0  0  0
    8.4179  -11.8677   19.1198 S   0  0  0  0  0  0  0  0  0  0  0  0
    8.4317  -15.3761   21.1628 C   0  0  0  0  0  0  0  0  0  0  0  0
    7.3945  -15.6177   21.8237 O   0  0  0  0  0  0  0  0  0  0  0  0
    9.2117  -19.7443   21.8479 N   0  0  0  0  0  0  0  0  0  0  0  0
   10.2456  -18.8250   21.4593 C   0  0  0  0  0  0  0  0  0  0  0  0
   10.6328  -18.8843   20.2730 O   0  0  0  0  0  0  0  0  0  0  0  0
   10.7407  -17.9099   22.4980 C   0  0  0  0  0  0  0  0  0  0  0  0
    9.7036  -16.8448   22.7505 C   0  0  2  0  0  0  0  0  0  0  0  0
    9.6656  -15.9546   21.6017 N   0  0  0  0  0  0  0  0  0  0  0  0
   10.0608  -16.0295   23.9543 C   0  0  0  0  0  0  0  0  0  0  0  0
   11.1881  -15.4989   24.0775 O   0  0  0  0  0  0  0  0  0  0  0  0
    5.1786  -12.6766   26.1297 C   0  0  0  0  0  0  0  0  0  0  0  0
    6.7868  -11.9986   26.6743 S   0  0  0  0  0  0  0  0  0  0  0  0
    8.1607  -12.9807   26.2443 C   0  0  0  0  0  0  0  0  0  0  0  0
    8.4828  -14.2998   26.7565 C   0  0  0  0  0  0  0  0  0  0  0  0
    9.5734  -15.0868   26.1856 C   0  0  2  0  0  0  0  0  0  0  0  0
    9.1289  -15.8383   24.9847 N   0  0  0  0  0  0  0  0  0  0  0  0
    9.7620  -16.2814   27.1138 C   0  0  0  0  0  0  0  0  0  0  0  0
   10.1276  -16.0685   28.2983 O   0  0  0  0  0  0  0  0  0  0  0  0
    9.5636  -17.5567   26.7442 O   0  0  0  0  0  0  0  0  0  0  0  0
  2  5  1  0
  2  1  1  1
  2  3  1  0
  4  3  1  0
  5  6  2  0
  7  8  1  0
  8  9  2  0
  8 10  1  0
 11 10  1  6
 11 13  1  0
 12 11  1  0
 12  5  1  0
 13 20  1  0
 13 14  2  0
 15 16  1  0
 17 16  1  0
 18 17  1  0
 19 18  1  1
 20 19  1  0
 21 19  1  0
 21 23  1  0
 22 21  2  0
M  END
$$$$
