CNM.pdb
     RDKit          3D

 23 22  0  0  1  0  0  0  0  0999 V2000
    5.5267  -19.2752   20.4904 N   0  0  0  0  0  0  0  0  0  0  0  0
    5.4278  -17.8694   20.8198 C   0  0  1  0  0  0  0  0  0  0  0  0
    4.5517  -17.7863   22.0670 C   0  0  0  0  0  0  0  0  0  0  0  0
    2.7931  -17.8275   21.6553 S   0  0  0  0  0  0  0  0  0  0  0  0
    6.7581  -17.2960   21.1877 C   0  0  0  0  0  0  0  0  0  0  0  0
    7.4827  -17.9005   22.0128 O   0  0  0  0  0  0  0  0  0  0  0  0
    7.4357  -12.4066   20.2406 N   0  0  0  0  0  0  0  0  0  0  0  0
    7.6908  -13.6973   19.6623 C   0  0  0  0  0  0  0  0  0  0  0  0
    6.8647  -14.1083   18.8201 O   0  0  0  0  0  0  0  0  0  0  0  0
    8.8975  -14.4002   20.1219 C   0  0  0  0  0  0  0  0  0  0  0  0
    8.4961  -15.4892   21.0845 C   0  0  2  0  0  0  0  0  0  0  0  0
    7.2435  -16.0702   20.6295 N   0  0  0  0  0  0  0  0  0  0  0  0
    8.2745  -14.9314   22.4561 C   0  0  0  0  0  0  0  0  0  0  0  0
    7.2304  -14.3063   22.7503 O   0  0  0  0  0  0  0  0  0  0  0  0
    7.8126  -11.2549   27.4917 C   0  0  0  0  0  0  0  0  0  0  0  0
    6.4907  -12.2239   26.6816 S   0  0  0  0  0  0  0  0  0  0  0  0
    6.9633  -13.8379   26.2247 C   0  0  0  0  0  0  0  0  0  0  0  0
    7.5169  -14.2553   24.9497 C   0  0  0  0  0  0  0  0  0  0  0  0
    8.9369  -14.5688   24.8086 C   0  0  2  0  0  0  0  0  0  0  0  0
    9.2434  -15.0988   23.4560 N   0  0  0  0  0  0  0  0  0  0  0  0
    9.1632  -15.8593   25.5881 C   0  0  0  0  0  0  0  0  0  0  0  0
    8.5412  -16.0240   26.6688 O   0  0  0  0  0  0  0  0  0  0  0  0
    9.9927  -16.8382   25.1928 O   0  0  0  0  0  0  0  0  0  0  0  0
  2  5  1  0
  2  1  1  1
  2  3  1  0
  4  3  1  0
  5  6  2  0
  7  8  1  0
  8  9  2  0
  8 10  1  0
 11 10  1  6
 11 13  1  0
 12 11  1  0
 12  5  1  0
 13 20  1  0
 13 14  2  0
 15 16  1  0
 17 16  1  0
 18 17  1  0
 19 18  1  6
 20 19  1  0
 21 19  1  0
 21 23  1  0
 22 21  2  0
M  END
$$$$
