CNM.pdb
     RDKit          3D

 23 22  0  0  1  0  0  0  0  0999 V2000
    7.2057  -18.7861   22.2082 N   0  0  0  0  0  0  0  0  0  0  0  0
    7.7453  -19.1186   20.9071 C   0  0  1  0  0  0  0  0  0  0  0  0
    6.5462  -19.2555   19.9726 C   0  0  0  0  0  0  0  0  0  0  0  0
    7.0566  -19.5640   18.2673 S   0  0  0  0  0  0  0  0  0  0  0  0
    8.5918  -18.0130   20.3641 C   0  0  0  0  0  0  0  0  0  0  0  0
    8.6219  -17.8105   19.1275 O   0  0  0  0  0  0  0  0  0  0  0  0
    8.8003  -13.3175   20.3066 N   0  0  0  0  0  0  0  0  0  0  0  0
    7.6170  -14.1316   20.2588 C   0  0  0  0  0  0  0  0  0  0  0  0
    6.6126  -13.6305   19.7102 O   0  0  0  0  0  0  0  0  0  0  0  0
    7.7109  -15.4697   20.8606 C   0  0  0  0  0  0  0  0  0  0  0  0
    9.1423  -15.7327   21.2547 C   0  0  2  0  0  0  0  0  0  0  0  0
    9.3787  -17.1665   21.2091 N   0  0  0  0  0  0  0  0  0  0  0  0
    9.4032  -15.2664   22.6532 C   0  0  0  0  0  0  0  0  0  0  0  0
   10.2726  -14.4017   22.9060 O   0  0  0  0  0  0  0  0  0  0  0  0
    6.8403  -11.0616   26.6496 C   0  0  0  0  0  0  0  0  0  0  0  0
    6.0441  -12.6339   26.1632 S   0  0  0  0  0  0  0  0  0  0  0  0
    7.0785  -13.7138   25.2684 C   0  0  0  0  0  0  0  0  0  0  0  0
    7.8522  -14.8199   25.8014 C   0  0  0  0  0  0  0  0  0  0  0  0
    9.0221  -15.3345   25.0935 C   0  0  2  0  0  0  0  0  0  0  0  0
    8.6699  -15.7936   23.7262 N   0  0  0  0  0  0  0  0  0  0  0  0
    9.3124  -16.7035   25.6984 C   0  0  0  0  0  0  0  0  0  0  0  0
    9.0032  -17.7285   25.0382 O   0  0  0  0  0  0  0  0  0  0  0  0
    9.8793  -16.8866   26.9015 O   0  0  0  0  0  0  0  0  0  0  0  0
  2  5  1  0
  2  1  1  1
  2  3  1  0
  4  3  1  0
  5  6  2  0
  7  8  1  0
  8  9  2  0
  8 10  1  0
 11 10  1  1
 11 13  1  0
 12 11  1  0
 12  5  1  0
 13 20  1  0
 13 14  2  0
 15 16  1  0
 17 16  1  0
 18 17  1  0
 19 18  1  1
 20 19  1  0
 21 19  1  0
 21 23  1  0
 22 21  2  0
M  END
$$$$
