CNM.pdb
     RDKit          3D

 23 22  0  0  1  0  0  0  0  0999 V2000
    5.0142  -20.1442   20.7191 N   0  0  0  0  0  0  0  0  0  0  0  0
    5.0638  -18.7917   21.2316 C   0  0  1  0  0  0  0  0  0  0  0  0
    4.2091  -18.7854   22.4962 C   0  0  0  0  0  0  0  0  0  0  0  0
    2.4478  -18.6577   22.1148 S   0  0  0  0  0  0  0  0  0  0  0  0
    6.4488  -18.4108   21.6446 C   0  0  0  0  0  0  0  0  0  0  0  0
    7.1126  -19.1906   22.3674 O   0  0  0  0  0  0  0  0  0  0  0  0
   11.4038  -16.4983   20.6283 N   0  0  0  0  0  0  0  0  0  0  0  0
   10.3928  -15.5993   21.1130 C   0  0  0  0  0  0  0  0  0  0  0  0
   10.7795  -14.6570   21.8364 O   0  0  0  0  0  0  0  0  0  0  0  0
    9.0081  -15.8817   20.7075 C   0  0  0  0  0  0  0  0  0  0  0  0
    8.3795  -16.8099   21.7159 C   0  0  2  0  0  0  0  0  0  0  0  0
    7.0545  -17.1770   21.2436 N   0  0  0  0  0  0  0  0  0  0  0  0
    8.2251  -16.1299   23.0407 C   0  0  0  0  0  0  0  0  0  0  0  0
    7.0986  -15.8336   23.4997 O   0  0  0  0  0  0  0  0  0  0  0  0
    6.1310  -11.3365   26.4312 C   0  0  0  0  0  0  0  0  0  0  0  0
    5.8632  -13.1186   26.7392 S   0  0  0  0  0  0  0  0  0  0  0  0
    7.2779  -14.1075   26.4990 C   0  0  0  0  0  0  0  0  0  0  0  0
    7.7956  -14.5943   25.2336 C   0  0  0  0  0  0  0  0  0  0  0  0
    9.1266  -15.1897   25.1402 C   0  0  2  0  0  0  0  0  0  0  0  0
    9.3530  -15.8053   23.8083 N   0  0  0  0  0  0  0  0  0  0  0  0
    9.0696  -16.4788   25.9523 C   0  0  0  0  0  0  0  0  0  0  0  0
    8.9333  -16.3960   27.1999 O   0  0  0  0  0  0  0  0  0  0  0  0
    9.1587  -17.7067   25.4168 O   0  0  0  0  0  0  0  0  0  0  0  0
  2  5  1  0
  2  1  1  1
  2  3  1  0
  4  3  1  0
  5  6  2  0
  7  8  1  0
  8  9  2  0
  8 10  1  0
 11 10  1  6
 11 13  1  0
 12 11  1  0
 12  5  1  0
 13 20  1  0
 13 14  2  0
 15 16  1  0
 17 16  1  0
 18 17  1  0
 19 18  1  6
 20 19  1  0
 21 19  1  0
 21 23  1  0
 22 21  2  0
M  END
$$$$
