CNM.pdb
     RDKit          3D

 23 22  0  0  1  0  0  0  0  0999 V2000
    7.3720  -14.7093   17.6144 N   0  0  0  0  0  0  0  0  0  0  0  0
    8.3786  -14.2906   18.5662 C   0  0  1  0  0  0  0  0  0  0  0  0
    8.0115  -12.8661   18.9733 C   0  0  0  0  0  0  0  0  0  0  0  0
    9.2107  -12.1692   20.1310 S   0  0  0  0  0  0  0  0  0  0  0  0
    8.3378  -15.1190   19.8096 C   0  0  0  0  0  0  0  0  0  0  0  0
    7.2315  -15.3932   20.3313 O   0  0  0  0  0  0  0  0  0  0  0  0
    9.5148  -19.5148   22.6051 N   0  0  0  0  0  0  0  0  0  0  0  0
   10.4530  -18.4272   22.6515 C   0  0  0  0  0  0  0  0  0  0  0  0
   11.1387  -18.3212   23.6904 O   0  0  0  0  0  0  0  0  0  0  0  0
   10.5086  -17.5519   21.4716 C   0  0  0  0  0  0  0  0  0  0  0  0
    9.4446  -16.4907   21.5954 C   0  0  2  0  0  0  0  0  0  0  0  0
    9.5249  -15.6176   20.4358 N   0  0  0  0  0  0  0  0  0  0  0  0
    9.6663  -15.6555   22.8180 C   0  0  0  0  0  0  0  0  0  0  0  0
   10.6306  -14.8618   22.9054 O   0  0  0  0  0  0  0  0  0  0  0  0
    5.1175  -11.9345   26.0954 C   0  0  0  0  0  0  0  0  0  0  0  0
    6.7787  -11.8704   26.8562 S   0  0  0  0  0  0  0  0  0  0  0  0
    7.7252  -13.3164   26.6324 C   0  0  0  0  0  0  0  0  0  0  0  0
    7.7809  -14.1455   25.4425 C   0  0  0  0  0  0  0  0  0  0  0  0
    9.0139  -14.8250   25.0517 C   0  0  2  0  0  0  0  0  0  0  0  0
    8.7875  -15.7435   23.9074 N   0  0  0  0  0  0  0  0  0  0  0  0
    9.2660  -15.8864   26.1167 C   0  0  0  0  0  0  0  0  0  0  0  0
    8.7364  -17.0181   25.9726 O   0  0  0  0  0  0  0  0  0  0  0  0
   10.0215  -15.6881   27.2087 O   0  0  0  0  0  0  0  0  0  0  0  0
  2  5  1  0
  2  1  1  6
  2  3  1  0
  4  3  1  0
  5  6  2  0
  7  8  1  0
  8  9  2  0
  8 10  1  0
 11 10  1  6
 11 13  1  0
 12 11  1  0
 12  5  1  0
 13 20  1  0
 13 14  2  0
 15 16  1  0
 17 16  1  0
 18 17  1  0
 19 18  1  1
 20 19  1  0
 21 19  1  0
 21 23  1  0
 22 21  2  0
M  END
$$$$
