CNM.pdb
     RDKit          3D

 23 22  0  0  1  0  0  0  0  0999 V2000
    7.4739  -13.3775   18.1869 N   0  0  0  0  0  0  0  0  0  0  0  0
    8.6423  -14.1006   18.6413 C   0  0  1  0  0  0  0  0  0  0  0  0
    9.6450  -13.0437   19.0967 C   0  0  0  0  0  0  0  0  0  0  0  0
    8.9712  -12.0013   20.4094 S   0  0  0  0  0  0  0  0  0  0  0  0
    8.3354  -14.9469   19.8344 C   0  0  0  0  0  0  0  0  0  0  0  0
    7.2592  -14.7728   20.4530 O   0  0  0  0  0  0  0  0  0  0  0  0
    9.1195  -19.5711   19.5562 N   0  0  0  0  0  0  0  0  0  0  0  0
    8.7740  -19.0656   20.8564 C   0  0  0  0  0  0  0  0  0  0  0  0
    7.7480  -19.5398   21.3886 O   0  0  0  0  0  0  0  0  0  0  0  0
    9.6637  -18.0429   21.4254 C   0  0  0  0  0  0  0  0  0  0  0  0
    8.9232  -16.7314   21.4976 C   0  0  2  0  0  0  0  0  0  0  0  0
    9.2314  -15.9599   20.3045 N   0  0  0  0  0  0  0  0  0  0  0  0
    9.3637  -15.9367   22.6874 C   0  0  0  0  0  0  0  0  0  0  0  0
   10.4937  -15.3999   22.7371 O   0  0  0  0  0  0  0  0  0  0  0  0
    5.2879  -12.0282   26.5972 C   0  0  0  0  0  0  0  0  0  0  0  0
    7.0536  -11.8688   27.0436 S   0  0  0  0  0  0  0  0  0  0  0  0
    8.0380  -13.2259   26.5679 C   0  0  0  0  0  0  0  0  0  0  0  0
    7.8747  -14.0472   25.3826 C   0  0  0  0  0  0  0  0  0  0  0  0
    8.9648  -14.8844   24.8870 C   0  0  2  0  0  0  0  0  0  0  0  0
    8.5098  -15.7724   23.7877 N   0  0  0  0  0  0  0  0  0  0  0  0
    9.1813  -15.9630   25.9425 C   0  0  0  0  0  0  0  0  0  0  0  0
    8.6156  -17.0756   25.7876 O   0  0  0  0  0  0  0  0  0  0  0  0
    9.9415  -15.7991   27.0369 O   0  0  0  0  0  0  0  0  0  0  0  0
  2  5  1  0
  2  1  1  1
  2  3  1  0
  4  3  1  0
  5  6  2  0
  7  8  1  0
  8  9  2  0
  8 10  1  0
 11 10  1  6
 11 13  1  0
 12 11  1  0
 12  5  1  0
 13 20  1  0
 13 14  2  0
 15 16  1  0
 17 16  1  0
 18 17  1  0
 19 18  1  1
 20 19  1  0
 21 19  1  0
 21 23  1  0
 22 21  2  0
M  END
$$$$
