CNM.pdb
     RDKit          3D

 23 22  0  0  1  0  0  0  0  0999 V2000
    7.4958  -14.7392   18.2823 N   0  0  0  0  0  0  0  0  0  0  0  0
    8.4043  -14.3648   19.3449 C   0  0  1  0  0  0  0  0  0  0  0  0
    7.7806  -13.1512   20.0288 C   0  0  0  0  0  0  0  0  0  0  0  0
    8.2204  -11.6109   19.1933 S   0  0  0  0  0  0  0  0  0  0  0  0
    8.5103  -15.4370   20.3808 C   0  0  0  0  0  0  0  0  0  0  0  0
    7.5024  -16.1295   20.6561 O   0  0  0  0  0  0  0  0  0  0  0  0
   12.3563  -19.0418   23.2948 N   0  0  0  0  0  0  0  0  0  0  0  0
   11.0542  -18.7070   22.7874 C   0  0  0  0  0  0  0  0  0  0  0  0
   10.0905  -19.3621   23.2379 O   0  0  0  0  0  0  0  0  0  0  0  0
   10.9909  -17.6281   21.7906 C   0  0  0  0  0  0  0  0  0  0  0  0
    9.7963  -16.7562   22.0843 C   0  0  2  0  0  0  0  0  0  0  0  0
    9.7305  -15.7079   21.0792 N   0  0  0  0  0  0  0  0  0  0  0  0
    9.9315  -16.1026   23.4244 C   0  0  0  0  0  0  0  0  0  0  0  0
   10.9174  -15.3853   23.7090 O   0  0  0  0  0  0  0  0  0  0  0  0
    6.4758  -11.0609   25.6099 C   0  0  0  0  0  0  0  0  0  0  0  0
    7.0399  -12.4487   26.6580 S   0  0  0  0  0  0  0  0  0  0  0  0
    7.3658  -13.9203   25.7833 C   0  0  0  0  0  0  0  0  0  0  0  0
    7.9592  -15.1346   26.3122 C   0  0  0  0  0  0  0  0  0  0  0  0
    9.1866  -15.6862   25.7431 C   0  0  2  0  0  0  0  0  0  0  0  0
    8.9442  -16.2806   24.4044 N   0  0  0  0  0  0  0  0  0  0  0  0
    9.4540  -16.9846   26.4960 C   0  0  0  0  0  0  0  0  0  0  0  0
    9.7676  -16.9188   27.7123 O   0  0  0  0  0  0  0  0  0  0  0  0
    9.3779  -18.2037   25.9388 O   0  0  0  0  0  0  0  0  0  0  0  0
  2  5  1  0
  2  1  1  6
  2  3  1  0
  4  3  1  0
  5  6  2  0
  7  8  1  0
  8  9  2  0
  8 10  1  0
 11 10  1  6
 11 13  1  0
 12 11  1  0
 12  5  1  0
 13 20  1  0
 13 14  2  0
 15 16  1  0
 17 16  1  0
 18 17  1  0
 19 18  1  1
 20 19  1  0
 21 19  1  0
 21 23  1  0
 22 21  2  0
M  END
$$$$
