CNM.pdb
     RDKit          3D

 23 22  0  0  1  0  0  0  0  0999 V2000
    7.1823  -15.5642   18.5359 N   0  0  0  0  0  0  0  0  0  0  0  0
    8.2431  -14.8492   19.2128 C   0  0  1  0  0  0  0  0  0  0  0  0
    7.6228  -13.5502   19.7201 C   0  0  0  0  0  0  0  0  0  0  0  0
    7.2854  -12.3964   18.3715 S   0  0  0  0  0  0  0  0  0  0  0  0
    8.7284  -15.5940   20.4143 C   0  0  0  0  0  0  0  0  0  0  0  0
    7.9470  -16.3662   21.0177 O   0  0  0  0  0  0  0  0  0  0  0  0
   13.6730  -16.6027   23.8307 N   0  0  0  0  0  0  0  0  0  0  0  0
   12.4922  -17.0890   23.1715 C   0  0  0  0  0  0  0  0  0  0  0  0
   11.9695  -18.1203   23.6447 O   0  0  0  0  0  0  0  0  0  0  0  0
   12.0218  -16.3225   22.0085 C   0  0  0  0  0  0  0  0  0  0  0  0
   10.5172  -16.2341   22.0533 C   0  0  2  0  0  0  0  0  0  0  0  0
   10.0651  -15.4592   20.9093 N   0  0  0  0  0  0  0  0  0  0  0  0
   10.0624  -15.5319   23.2949 C   0  0  0  0  0  0  0  0  0  0  0  0
   10.0915  -14.2841   23.3919 O   0  0  0  0  0  0  0  0  0  0  0  0
    6.6396  -11.3486   25.9180 C   0  0  0  0  0  0  0  0  0  0  0  0
    7.2196  -12.6863   27.0211 S   0  0  0  0  0  0  0  0  0  0  0  0
    7.0165  -14.2900   26.3702 C   0  0  0  0  0  0  0  0  0  0  0  0
    7.7892  -14.9020   25.3050 C   0  0  0  0  0  0  0  0  0  0  0  0
    9.0940  -15.5044   25.5678 C   0  0  2  0  0  0  0  0  0  0  0  0
    9.5868  -16.2650   24.3918 N   0  0  0  0  0  0  0  0  0  0  0  0
    8.8320  -16.6948   26.4836 C   0  0  0  0  0  0  0  0  0  0  0  0
    8.4479  -16.4727   27.6605 O   0  0  0  0  0  0  0  0  0  0  0  0
    8.9886  -17.9754   26.1121 O   0  0  0  0  0  0  0  0  0  0  0  0
  2  5  1  0
  2  1  1  1
  2  3  1  0
  4  3  1  0
  5  6  2  0
  7  8  1  0
  8  9  2  0
  8 10  1  0
 11 10  1  1
 11 13  1  0
 12 11  1  0
 12  5  1  0
 13 20  1  0
 13 14  2  0
 15 16  1  0
 17 16  1  0
 18 17  1  0
 19 18  1  6
 20 19  1  0
 21 19  1  0
 21 23  1  0
 22 21  2  0
M  END
$$$$
