CNM.pdb
     RDKit          3D

 23 22  0  0  1  0  0  0  0  0999 V2000
    7.3126  -14.8676   17.9288 N   0  0  0  0  0  0  0  0  0  0  0  0
    8.2634  -14.3958   18.9126 C   0  0  1  0  0  0  0  0  0  0  0  0
    7.6781  -13.1075   19.4849 C   0  0  0  0  0  0  0  0  0  0  0  0
    8.6677  -12.4724   20.8564 S   0  0  0  0  0  0  0  0  0  0  0  0
    8.3959  -15.3534   20.0525 C   0  0  0  0  0  0  0  0  0  0  0  0
    7.3654  -15.8627   20.5523 O   0  0  0  0  0  0  0  0  0  0  0  0
   10.0407  -19.6728   20.9743 N   0  0  0  0  0  0  0  0  0  0  0  0
   10.7688  -18.5110   20.5437 C   0  0  0  0  0  0  0  0  0  0  0  0
   11.1335  -18.4878   19.3491 O   0  0  0  0  0  0  0  0  0  0  0  0
   11.0092  -17.4701   21.5538 C   0  0  0  0  0  0  0  0  0  0  0  0
    9.7578  -16.6450   21.7176 C   0  0  2  0  0  0  0  0  0  0  0  0
    9.6669  -15.7163   20.6028 N   0  0  0  0  0  0  0  0  0  0  0  0
    9.8103  -15.8446   22.9818 C   0  0  0  0  0  0  0  0  0  0  0  0
   10.7046  -14.9917   23.1826 O   0  0  0  0  0  0  0  0  0  0  0  0
    6.5040  -10.4667   26.5845 C   0  0  0  0  0  0  0  0  0  0  0  0
    6.1923  -12.2369   26.2501 S   0  0  0  0  0  0  0  0  0  0  0  0
    7.6226  -13.1564   25.8687 C   0  0  0  0  0  0  0  0  0  0  0  0
    7.6890  -14.5696   25.5450 C   0  0  0  0  0  0  0  0  0  0  0  0
    8.9595  -15.2101   25.2129 C   0  0  2  0  0  0  0  0  0  0  0  0
    8.8464  -16.0335   23.9827 N   0  0  0  0  0  0  0  0  0  0  0  0
    9.1276  -16.3535   26.2073 C   0  0  0  0  0  0  0  0  0  0  0  0
    8.8500  -17.5211   25.8310 O   0  0  0  0  0  0  0  0  0  0  0  0
    9.5542  -16.1922   27.4701 O   0  0  0  0  0  0  0  0  0  0  0  0
  2  5  1  0
  2  1  1  6
  2  3  1  0
  4  3  1  0
  5  6  2  0
  7  8  1  0
  8  9  2  0
  8 10  1  0
 11 10  1  6
 11 13  1  0
 12 11  1  0
 12  5  1  0
 13 20  1  0
 13 14  2  0
 15 16  1  0
 17 16  1  0
 18 17  1  0
 19 18  1  1
 20 19  1  0
 21 19  1  0
 21 23  1  0
 22 21  2  0
M  END
$$$$
