CNQ.pdb
     RDKit          3D

 24 23  0  0  1  0  0  0  0  0999 V2000
    5.1811  -14.0092   25.8433 N   0  0  0  0  0  0  0  0  0  0  0  0
    6.2457  -13.3634   25.1232 C   0  0  1  0  0  0  0  0  0  0  0  0
    7.1912  -12.7699   26.1734 C   0  0  0  0  0  0  0  0  0  0  0  0
    6.3680  -11.3655   26.9425 S   0  0  0  0  0  0  0  0  0  0  0  0
    7.0382  -14.3476   24.3290 C   0  0  0  0  0  0  0  0  0  0  0  0
    7.1196  -15.5301   24.7410 O   0  0  0  0  0  0  0  0  0  0  0  0
    7.6426  -12.8065   19.4714 N   0  0  0  0  0  0  0  0  0  0  0  0
    7.8801  -14.0610   20.1340 C   0  0  0  0  0  0  0  0  0  0  0  0
    7.1474  -15.0308   19.8469 O   0  0  0  0  0  0  0  0  0  0  0  0
    8.9694  -14.1550   21.1184 C   0  0  0  0  0  0  0  0  0  0  0  0
    8.5343  -14.8534   22.3657 C   0  0  2  0  0  0  0  0  0  0  0  0
    7.6878  -13.9508   23.1287 N   0  0  0  0  0  0  0  0  0  0  0  0
    9.7372  -15.2332   23.1769 C   0  0  0  0  0  0  0  0  0  0  0  0
   10.4995  -14.2789   23.5054 O   0  0  0  0  0  0  0  0  0  0  0  0
   10.1096  -13.9897   27.8877 N   0  0  0  0  0  0  0  0  0  0  0  0
   10.8788  -15.1618   28.1198 C   0  0  0  0  0  0  0  0  0  0  0  0
   11.4582  -15.2516   29.2463 O   0  0  0  0  0  0  0  0  0  0  0  0
   11.0255  -16.2543   27.1401 C   0  0  0  0  0  0  0  0  0  0  0  0
   10.3611  -16.0684   25.8411 C   0  0  0  0  0  0  0  0  0  0  0  0
   10.8750  -16.8651   24.6943 C   0  0  2  0  0  0  0  0  0  0  0  0
   10.0045  -16.5540   23.5492 N   0  0  0  0  0  0  0  0  0  0  0  0
   10.9460  -18.2977   24.8859 C   0  0  0  0  0  0  0  0  0  0  0  0
   12.0113  -18.8578   25.5976 O   0  0  0  0  0  0  0  0  0  0  0  0
   10.0800  -19.0717   24.4345 O   0  0  0  0  0  0  0  0  0  0  0  0
  2  3  1  0
  2  1  1  1
  4  3  1  0
  5  6  2  0
  5  2  1  0
  8  7  1  0
  8 10  1  0
  9  8  2  0
 11 10  1  6
 11 12  1  0
 12  5  1  0
 13 11  1  0
 13 21  1  0
 14 13  2  0
 16 15  1  0
 16 17  2  0
 18 16  1  0
 20 19  1  1
 19 18  1  0
 20 21  1  0
 20 22  1  0
 22 24  2  0
 22 23  1  0
M  END
$$$$
