CNQ.pdb
     RDKit          3D

 24 23  0  0  1  0  0  0  0  0999 V2000
    9.4911  -14.2608   19.0618 N   0  0  0  0  0  0  0  0  0  0  0  0
    8.5062  -13.6750   19.9312 C   0  0  1  0  0  0  0  0  0  0  0  0
    7.1879  -13.6503   19.1499 C   0  0  0  0  0  0  0  0  0  0  0  0
    7.4382  -12.6807   17.6537 S   0  0  0  0  0  0  0  0  0  0  0  0
    8.2806  -14.5189   21.1413 C   0  0  0  0  0  0  0  0  0  0  0  0
    7.3766  -14.1899   21.9469 O   0  0  0  0  0  0  0  0  0  0  0  0
    7.8804  -17.8659   20.5873 N   0  0  0  0  0  0  0  0  0  0  0  0
    8.9715  -18.4925   21.2846 C   0  0  0  0  0  0  0  0  0  0  0  0
    9.3271  -19.6344   20.9246 O   0  0  0  0  0  0  0  0  0  0  0  0
    9.6238  -17.7706   22.3882 C   0  0  0  0  0  0  0  0  0  0  0  0
    9.0092  -16.4279   22.6158 C   0  0  2  0  0  0  0  0  0  0  0  0
    9.0762  -15.6733   21.3749 N   0  0  0  0  0  0  0  0  0  0  0  0
    9.7609  -15.7052   23.6938 C   0  0  0  0  0  0  0  0  0  0  0  0
   10.3303  -14.6329   23.3396 O   0  0  0  0  0  0  0  0  0  0  0  0
    6.9332  -11.5577   27.6239 N   0  0  0  0  0  0  0  0  0  0  0  0
    7.0006  -12.6072   26.6683 C   0  0  0  0  0  0  0  0  0  0  0  0
    5.8952  -13.0798   26.2591 O   0  0  0  0  0  0  0  0  0  0  0  0
    8.2635  -13.1539   26.1379 C   0  0  0  0  0  0  0  0  0  0  0  0
    8.3119  -14.6074   25.9185 C   0  0  0  0  0  0  0  0  0  0  0  0
    9.6134  -15.2881   26.1564 C   0  0  2  0  0  0  0  0  0  0  0  0
    9.8317  -16.1804   25.0067 N   0  0  0  0  0  0  0  0  0  0  0  0
    9.7339  -16.0340   27.3905 C   0  0  0  0  0  0  0  0  0  0  0  0
    9.4899  -17.4108   27.4041 O   0  0  0  0  0  0  0  0  0  0  0  0
   10.0526  -15.4913   28.4660 O   0  0  0  0  0  0  0  0  0  0  0  0
  2  3  1  0
  2  1  1  6
  4  3  1  0
  5  6  2  0
  5  2  1  0
  8  7  1  0
  8 10  1  0
  9  8  2  0
 11 10  1  6
 11 12  1  0
 12  5  1  0
 13 11  1  0
 13 21  1  0
 14 13  2  0
 16 15  1  0
 16 17  2  0
 18 16  1  0
 20 19  1  6
 19 18  1  0
 20 21  1  0
 20 22  1  0
 22 24  2  0
 22 23  1  0
M  END
$$$$
