CNQ.pdb
     RDKit          3D

 24 23  0  0  1  0  0  0  0  0999 V2000
    7.1753  -14.8293   19.7723 N   0  0  0  0  0  0  0  0  0  0  0  0
    8.4775  -14.2477   19.9593 C   0  0  1  0  0  0  0  0  0  0  0  0
    8.4300  -12.8501   19.3318 C   0  0  0  0  0  0  0  0  0  0  0  0
    7.7340  -12.9989   17.6781 S   0  0  0  0  0  0  0  0  0  0  0  0
    8.7870  -14.0654   21.4079 C   0  0  0  0  0  0  0  0  0  0  0  0
    9.9714  -13.8277   21.7470 O   0  0  0  0  0  0  0  0  0  0  0  0
    6.2069  -12.3673   26.6132 N   0  0  0  0  0  0  0  0  0  0  0  0
    7.0042  -13.3493   25.9282 C   0  0  0  0  0  0  0  0  0  0  0  0
    7.8567  -13.9833   26.5848 O   0  0  0  0  0  0  0  0  0  0  0  0
    6.7879  -13.5692   24.4897 C   0  0  0  0  0  0  0  0  0  0  0  0
    8.0239  -14.0611   23.8093 C   0  0  2  0  0  0  0  0  0  0  0  0
    7.7576  -14.1598   22.3835 N   0  0  0  0  0  0  0  0  0  0  0  0
    8.3971  -15.4080   24.3532 C   0  0  0  0  0  0  0  0  0  0  0  0
    7.5591  -16.3328   24.1477 O   0  0  0  0  0  0  0  0  0  0  0  0
   13.1666  -17.9477   22.3049 N   0  0  0  0  0  0  0  0  0  0  0  0
   12.8935  -18.8119   23.3993 C   0  0  0  0  0  0  0  0  0  0  0  0
   13.5959  -19.8665   23.4844 O   0  0  0  0  0  0  0  0  0  0  0  0
   11.8626  -18.5432   24.4193 C   0  0  0  0  0  0  0  0  0  0  0  0
   11.1215  -17.2794   24.2906 C   0  0  0  0  0  0  0  0  0  0  0  0
   10.0755  -16.9975   25.3105 C   0  0  2  0  0  0  0  0  0  0  0  0
    9.5918  -15.6336   25.0435 N   0  0  0  0  0  0  0  0  0  0  0  0
   10.4779  -17.1166   26.6955 C   0  0  0  0  0  0  0  0  0  0  0  0
   10.5029  -15.9860   27.5178 O   0  0  0  0  0  0  0  0  0  0  0  0
   10.8105  -18.2068   27.1989 O   0  0  0  0  0  0  0  0  0  0  0  0
  2  3  1  0
  2  1  1  1
  4  3  1  0
  5  6  2  0
  5  2  1  0
  8  7  1  0
  8 10  1  0
  9  8  2  0
 11 10  1  1
 11 12  1  0
 12  5  1  0
 13 11  1  0
 13 21  1  0
 14 13  2  0
 16 15  1  0
 16 17  2  0
 18 16  1  0
 20 19  1  6
 19 18  1  0
 20 21  1  0
 20 22  1  0
 22 24  2  0
 22 23  1  0
M  END
$$$$
