CNQ.pdb
     RDKit          3D

 24 23  0  0  1  0  0  0  0  0999 V2000
    4.5810  -20.6461   20.2958 N   0  0  0  0  0  0  0  0  0  0  0  0
    4.6000  -19.3758   20.9702 C   0  0  1  0  0  0  0  0  0  0  0  0
    3.4321  -19.3864   21.9626 C   0  0  0  0  0  0  0  0  0  0  0  0
    1.9119  -19.0853   21.0463 S   0  0  0  0  0  0  0  0  0  0  0  0
    5.8495  -19.2043   21.7683 C   0  0  0  0  0  0  0  0  0  0  0  0
    6.3743  -20.2161   22.2931 O   0  0  0  0  0  0  0  0  0  0  0  0
   10.8382  -16.8316   22.3916 N   0  0  0  0  0  0  0  0  0  0  0  0
    9.6124  -16.2295   22.8432 C   0  0  0  0  0  0  0  0  0  0  0  0
    9.6534  -15.4775   23.8396 O   0  0  0  0  0  0  0  0  0  0  0  0
    8.3643  -16.5194   22.1203 C   0  0  0  0  0  0  0  0  0  0  0  0
    7.6548  -17.7059   22.6873 C   0  0  2  0  0  0  0  0  0  0  0  0
    6.4322  -17.9180   21.9297 N   0  0  0  0  0  0  0  0  0  0  0  0
    7.3250  -17.4551   24.1287 C   0  0  0  0  0  0  0  0  0  0  0  0
    6.4775  -16.5417   24.3455 O   0  0  0  0  0  0  0  0  0  0  0  0
    6.0508  -21.7013   28.2118 N   0  0  0  0  0  0  0  0  0  0  0  0
    7.4419  -21.4175   28.1529 C   0  0  0  0  0  0  0  0  0  0  0  0
    8.2281  -22.3199   28.5777 O   0  0  0  0  0  0  0  0  0  0  0  0
    8.0007  -20.1578   27.6275 C   0  0  0  0  0  0  0  0  0  0  0  0
    7.0353  -19.1608   27.1406 C   0  0  0  0  0  0  0  0  0  0  0  0
    7.5866  -17.8989   26.5771 C   0  0  2  0  0  0  0  0  0  0  0  0
    7.9124  -18.1801   25.1698 N   0  0  0  0  0  0  0  0  0  0  0  0
    8.7411  -17.3436   27.2500 C   0  0  0  0  0  0  0  0  0  0  0  0
   10.0293  -17.7241   26.8614 O   0  0  0  0  0  0  0  0  0  0  0  0
    8.6356  -16.5226   28.1815 O   0  0  0  0  0  0  0  0  0  0  0  0
  2  3  1  0
  2  1  1  1
  4  3  1  0
  5  6  2  0
  5  2  1  0
  8  7  1  0
  8 10  1  0
  9  8  2  0
 11 10  1  6
 11 12  1  0
 12  5  1  0
 13 11  1  0
 13 21  1  0
 14 13  2  0
 16 15  1  0
 16 17  2  0
 18 16  1  0
 20 19  1  1
 19 18  1  0
 20 21  1  0
 20 22  1  0
 22 24  2  0
 22 23  1  0
M  END
$$$$
