CNQ.pdb
     RDKit          3D

 24 23  0  0  1  0  0  0  0  0999 V2000
    7.6628  -14.2664   18.1304 N   0  0  0  0  0  0  0  0  0  0  0  0
    8.4742  -14.1064   19.3072 C   0  0  1  0  0  0  0  0  0  0  0  0
    8.0256  -12.8033   19.9778 C   0  0  0  0  0  0  0  0  0  0  0  0
    8.5544  -11.4273   18.9442 S   0  0  0  0  0  0  0  0  0  0  0  0
    8.2325  -15.2067   20.2862 C   0  0  0  0  0  0  0  0  0  0  0  0
    7.4940  -16.1635   19.9490 O   0  0  0  0  0  0  0  0  0  0  0  0
   11.0089  -19.3931   22.4833 N   0  0  0  0  0  0  0  0  0  0  0  0
    9.8048  -18.6114   22.5750 C   0  0  0  0  0  0  0  0  0  0  0  0
    8.9099  -18.9914   23.3589 O   0  0  0  0  0  0  0  0  0  0  0  0
    9.6726  -17.4018   21.7480 C   0  0  0  0  0  0  0  0  0  0  0  0
    8.8874  -16.3362   22.4412 C   0  0  2  0  0  0  0  0  0  0  0  0
    8.8286  -15.1695   21.5759 N   0  0  0  0  0  0  0  0  0  0  0  0
    9.5556  -15.9786   23.7355 C   0  0  0  0  0  0  0  0  0  0  0  0
   10.7413  -15.5494   23.6391 O   0  0  0  0  0  0  0  0  0  0  0  0
    7.3060  -11.4709   26.1891 N   0  0  0  0  0  0  0  0  0  0  0  0
    6.5964  -12.6983   26.2848 C   0  0  0  0  0  0  0  0  0  0  0  0
    5.3323  -12.6221   26.3806 O   0  0  0  0  0  0  0  0  0  0  0  0
    7.2437  -14.0234   26.2710 C   0  0  0  0  0  0  0  0  0  0  0  0
    8.7056  -14.0413   26.1102 C   0  0  0  0  0  0  0  0  0  0  0  0
    9.3785  -15.3676   26.1553 C   0  0  2  0  0  0  0  0  0  0  0  0
    8.9152  -16.1089   24.9714 N   0  0  0  0  0  0  0  0  0  0  0  0
    9.1642  -16.1582   27.3482 C   0  0  0  0  0  0  0  0  0  0  0  0
    9.6965  -15.7396   28.5716 O   0  0  0  0  0  0  0  0  0  0  0  0
    8.5115  -17.2195   27.3330 O   0  0  0  0  0  0  0  0  0  0  0  0
  2  3  1  0
  2  1  1  6
  4  3  1  0
  5  6  2  0
  5  2  1  0
  8  7  1  0
  8 10  1  0
  9  8  2  0
 11 10  1  6
 11 12  1  0
 12  5  1  0
 13 11  1  0
 13 21  1  0
 14 13  2  0
 16 15  1  0
 16 17  2  0
 18 16  1  0
 20 19  1  1
 19 18  1  0
 20 21  1  0
 20 22  1  0
 22 24  2  0
 22 23  1  0
M  END
$$$$
