CNQ.pdb
     RDKit          3D

 24 23  0  0  1  0  0  0  0  0999 V2000
    9.7204  -14.0343   18.8457 N   0  0  0  0  0  0  0  0  0  0  0  0
    8.8098  -13.8016   19.9346 C   0  0  1  0  0  0  0  0  0  0  0  0
    7.4106  -13.6816   19.3207 C   0  0  0  0  0  0  0  0  0  0  0  0
    7.3535  -12.1728   18.3401 S   0  0  0  0  0  0  0  0  0  0  0  0
    8.7773  -14.9627   20.8717 C   0  0  0  0  0  0  0  0  0  0  0  0
    7.9222  -14.9736   21.7900 O   0  0  0  0  0  0  0  0  0  0  0  0
    8.7570  -19.5477   19.9843 N   0  0  0  0  0  0  0  0  0  0  0  0
    9.9548  -18.7606   19.8610 C   0  0  0  0  0  0  0  0  0  0  0  0
   10.4152  -18.5571   18.7180 O   0  0  0  0  0  0  0  0  0  0  0  0
   10.5889  -18.2278   21.0770 C   0  0  0  0  0  0  0  0  0  0  0  0
    9.7874  -17.1230   21.6850 C   0  0  2  0  0  0  0  0  0  0  0  0
    9.6985  -16.0350   20.7248 N   0  0  0  0  0  0  0  0  0  0  0  0
   10.4577  -16.6442   22.9383 C   0  0  0  0  0  0  0  0  0  0  0  0
   11.5213  -15.9807   22.7711 O   0  0  0  0  0  0  0  0  0  0  0  0
    7.8786  -13.2951   27.0838 N   0  0  0  0  0  0  0  0  0  0  0  0
    9.0510  -13.7142   27.7686 C   0  0  0  0  0  0  0  0  0  0  0  0
    9.2585  -13.2032   28.9126 O   0  0  0  0  0  0  0  0  0  0  0  0
   10.0099  -14.6959   27.2285 C   0  0  0  0  0  0  0  0  0  0  0  0
    9.6682  -15.3089   25.9359 C   0  0  0  0  0  0  0  0  0  0  0  0
   10.5813  -16.3651   25.4216 C   0  0  2  0  0  0  0  0  0  0  0  0
    9.9456  -16.9105   24.2116 N   0  0  0  0  0  0  0  0  0  0  0  0
   10.9042  -17.4386   26.3367 C   0  0  0  0  0  0  0  0  0  0  0  0
   11.8301  -17.2299   27.3635 O   0  0  0  0  0  0  0  0  0  0  0  0
   10.3817  -18.5664   26.2480 O   0  0  0  0  0  0  0  0  0  0  0  0
  2  3  1  0
  2  1  1  6
  4  3  1  0
  5  6  2  0
  5  2  1  0
  8  7  1  0
  8 10  1  0
  9  8  2  0
 11 10  1  6
 11 12  1  0
 12  5  1  0
 13 11  1  0
 13 21  1  0
 14 13  2  0
 16 15  1  0
 16 17  2  0
 18 16  1  0
 20 19  1  1
 19 18  1  0
 20 21  1  0
 20 22  1  0
 22 24  2  0
 22 23  1  0
M  END
$$$$
