CNQ.pdb
     RDKit          3D

 24 23  0  0  1  0  0  0  0  0999 V2000
    9.0185  -12.4045   18.6108 N   0  0  0  0  0  0  0  0  0  0  0  0
    8.6140  -13.7686   18.8223 C   0  0  1  0  0  0  0  0  0  0  0  0
    7.7571  -14.1660   17.6153 C   0  0  0  0  0  0  0  0  0  0  0  0
    6.1974  -13.2721   17.7133 S   0  0  0  0  0  0  0  0  0  0  0  0
    9.7909  -14.6861   18.8430 C   0  0  0  0  0  0  0  0  0  0  0  0
    9.5928  -15.9196   18.9597 O   0  0  0  0  0  0  0  0  0  0  0  0
   13.4895  -16.5066   16.2442 N   0  0  0  0  0  0  0  0  0  0  0  0
   13.0388  -15.1635   16.4938 C   0  0  0  0  0  0  0  0  0  0  0  0
   12.4511  -14.5552   15.5749 O   0  0  0  0  0  0  0  0  0  0  0  0
   13.2849  -14.5600   17.8128 C   0  0  0  0  0  0  0  0  0  0  0  0
   12.2888  -15.0163   18.8288 C   0  0  2  0  0  0  0  0  0  0  0  0
   11.1106  -14.1701   18.7326 N   0  0  0  0  0  0  0  0  0  0  0  0
   12.8834  -14.9093   20.2016 C   0  0  0  0  0  0  0  0  0  0  0  0
   12.8325  -13.7624   20.7322 O   0  0  0  0  0  0  0  0  0  0  0  0
    9.2223  -15.7709   23.6103 N   0  0  0  0  0  0  0  0  0  0  0  0
   10.2726  -16.0095   24.5372 C   0  0  0  0  0  0  0  0  0  0  0  0
    9.9435  -16.1161   25.7592 O   0  0  0  0  0  0  0  0  0  0  0  0
   11.6904  -16.1428   24.1540 C   0  0  0  0  0  0  0  0  0  0  0  0
   12.0116  -15.9371   22.7335 C   0  0  0  0  0  0  0  0  0  0  0  0
   13.4311  -16.1145   22.3246 C   0  0  2  0  0  0  0  0  0  0  0  0
   13.4579  -16.0020   20.8576 N   0  0  0  0  0  0  0  0  0  0  0  0
   14.0712  -17.3449   22.7375 C   0  0  0  0  0  0  0  0  0  0  0  0
   14.7698  -17.3999   23.9475 O   0  0  0  0  0  0  0  0  0  0  0  0
   14.0264  -18.3809   22.0466 O   0  0  0  0  0  0  0  0  0  0  0  0
  2  3  1  0
  2  1  1  6
  4  3  1  0
  5  6  2  0
  5  2  1  0
  8  7  1  0
  8 10  1  0
  9  8  2  0
 11 10  1  6
 11 12  1  0
 12  5  1  0
 13 11  1  0
 13 21  1  0
 14 13  2  0
 16 15  1  0
 16 17  2  0
 18 16  1  0
 20 19  1  6
 19 18  1  0
 20 21  1  0
 20 22  1  0
 22 24  2  0
 22 23  1  0
M  END
$$$$
