CNQ.pdb
     RDKit          3D

 24 23  0  0  1  0  0  0  0  0999 V2000
    7.7095  -14.4561   17.6366 N   0  0  0  0  0  0  0  0  0  0  0  0
    8.5586  -14.3130   18.7888 C   0  0  1  0  0  0  0  0  0  0  0  0
    8.0154  -13.1256   19.5914 C   0  0  0  0  0  0  0  0  0  0  0  0
    8.3890  -11.6154   18.6852 S   0  0  0  0  0  0  0  0  0  0  0  0
    8.4777  -15.5118   19.6742 C   0  0  0  0  0  0  0  0  0  0  0  0
    7.9036  -16.5417   19.2450 O   0  0  0  0  0  0  0  0  0  0  0  0
   10.2124  -20.1637   21.1994 N   0  0  0  0  0  0  0  0  0  0  0  0
   10.0381  -18.9342   21.9255 C   0  0  0  0  0  0  0  0  0  0  0  0
    9.9172  -18.9912   23.1672 O   0  0  0  0  0  0  0  0  0  0  0  0
   10.0089  -17.6637   21.1841 C   0  0  0  0  0  0  0  0  0  0  0  0
    9.1014  -16.6651   21.8258 C   0  0  2  0  0  0  0  0  0  0  0  0
    9.0411  -15.4851   20.9788 N   0  0  0  0  0  0  0  0  0  0  0  0
    9.6339  -16.2957   23.1784 C   0  0  0  0  0  0  0  0  0  0  0  0
   10.8546  -15.9669   23.2151 O   0  0  0  0  0  0  0  0  0  0  0  0
    5.6535  -12.6302   25.7169 N   0  0  0  0  0  0  0  0  0  0  0  0
    6.7791  -12.5147   26.5766 C   0  0  0  0  0  0  0  0  0  0  0  0
    6.7681  -11.5540   27.4071 O   0  0  0  0  0  0  0  0  0  0  0  0
    7.9271  -13.4402   26.5539 C   0  0  0  0  0  0  0  0  0  0  0  0
    7.9068  -14.4906   25.5246 C   0  0  0  0  0  0  0  0  0  0  0  0
    9.0905  -15.3887   25.4461 C   0  0  2  0  0  0  0  0  0  0  0  0
    8.8382  -16.3115   24.3278 N   0  0  0  0  0  0  0  0  0  0  0  0
    9.4109  -16.1378   26.6420 C   0  0  0  0  0  0  0  0  0  0  0  0
   10.1477  -15.5385   27.6682 O   0  0  0  0  0  0  0  0  0  0  0  0
    9.0510  -17.3201   26.8013 O   0  0  0  0  0  0  0  0  0  0  0  0
  2  3  1  0
  2  1  1  6
  4  3  1  0
  5  6  2  0
  5  2  1  0
  8  7  1  0
  8 10  1  0
  9  8  2  0
 11 10  1  6
 11 12  1  0
 12  5  1  0
 13 11  1  0
 13 21  1  0
 14 13  2  0
 16 15  1  0
 16 17  2  0
 18 16  1  0
 20 19  1  1
 19 18  1  0
 20 21  1  0
 20 22  1  0
 22 24  2  0
 22 23  1  0
M  END
$$$$
