CNQ.pdb
     RDKit          3D

 24 23  0  0  1  0  0  0  0  0999 V2000
    8.1124  -14.3659   18.3691 N   0  0  0  0  0  0  0  0  0  0  0  0
    8.8224  -14.3240   19.6193 C   0  0  1  0  0  0  0  0  0  0  0  0
    8.4594  -12.9932   20.2875 C   0  0  0  0  0  0  0  0  0  0  0  0
    9.1116  -11.6572   19.2721 S   0  0  0  0  0  0  0  0  0  0  0  0
    8.3696  -15.4107   20.5367 C   0  0  0  0  0  0  0  0  0  0  0  0
    7.6337  -16.3187   20.0801 O   0  0  0  0  0  0  0  0  0  0  0  0
    9.1911  -18.6357   20.5893 N   0  0  0  0  0  0  0  0  0  0  0  0
   10.4673  -18.2527   21.1314 C   0  0  0  0  0  0  0  0  0  0  0  0
   11.4279  -19.0398   20.9987 O   0  0  0  0  0  0  0  0  0  0  0  0
   10.5934  -16.9572   21.8172 C   0  0  0  0  0  0  0  0  0  0  0  0
    9.3407  -16.5866   22.5424 C   0  0  2  0  0  0  0  0  0  0  0  0
    8.7658  -15.4151   21.9016 N   0  0  0  0  0  0  0  0  0  0  0  0
    9.6596  -16.2796   23.9755 C   0  0  0  0  0  0  0  0  0  0  0  0
   10.0969  -17.2497   24.6590 O   0  0  0  0  0  0  0  0  0  0  0  0
    5.4879  -11.6822   25.8763 N   0  0  0  0  0  0  0  0  0  0  0  0
    6.7055  -12.3423   26.1936 C   0  0  0  0  0  0  0  0  0  0  0  0
    7.3409  -11.9145   27.2066 O   0  0  0  0  0  0  0  0  0  0  0  0
    7.2479  -13.4776   25.4241 C   0  0  0  0  0  0  0  0  0  0  0  0
    7.8682  -14.5630   26.1990 C   0  0  0  0  0  0  0  0  0  0  0  0
    9.3173  -14.8159   25.9756 C   0  0  2  0  0  0  0  0  0  0  0  0
    9.4870  -15.0062   24.5262 N   0  0  0  0  0  0  0  0  0  0  0  0
    9.8938  -15.9336   26.6914 C   0  0  0  0  0  0  0  0  0  0  0  0
   10.1914  -15.8159   28.0526 O   0  0  0  0  0  0  0  0  0  0  0  0
   10.1423  -17.0209   26.1357 O   0  0  0  0  0  0  0  0  0  0  0  0
  2  3  1  0
  2  1  1  6
  4  3  1  0
  5  6  2  0
  5  2  1  0
  8  7  1  0
  8 10  1  0
  9  8  2  0
 11 10  1  6
 11 12  1  0
 12  5  1  0
 13 11  1  0
 13 21  1  0
 14 13  2  0
 16 15  1  0
 16 17  2  0
 18 16  1  0
 20 19  1  6
 19 18  1  0
 20 21  1  0
 20 22  1  0
 22 24  2  0
 22 23  1  0
M  END
$$$$
