CNQ.pdb
     RDKit          3D

 24 23  0  0  1  0  0  0  0  0999 V2000
    6.6227  -19.1239   19.5595 N   0  0  0  0  0  0  0  0  0  0  0  0
    6.5307  -18.0681   20.5319 C   0  0  1  0  0  0  0  0  0  0  0  0
    6.6394  -18.7285   21.9107 C   0  0  0  0  0  0  0  0  0  0  0  0
    4.9864  -18.8343   22.6162 S   0  0  0  0  0  0  0  0  0  0  0  0
    7.6759  -17.1186   20.4113 C   0  0  0  0  0  0  0  0  0  0  0  0
    8.7920  -17.5619   20.0477 O   0  0  0  0  0  0  0  0  0  0  0  0
    6.3375  -12.4046   18.7885 N   0  0  0  0  0  0  0  0  0  0  0  0
    7.4481  -13.2923   19.0072 C   0  0  0  0  0  0  0  0  0  0  0  0
    7.9034  -13.9236   18.0305 O   0  0  0  0  0  0  0  0  0  0  0  0
    8.0029  -13.4232   20.3635 C   0  0  0  0  0  0  0  0  0  0  0  0
    8.5890  -14.7776   20.5974 C   0  0  2  0  0  0  0  0  0  0  0  0
    7.5031  -15.7383   20.7033 N   0  0  0  0  0  0  0  0  0  0  0  0
    9.3884  -14.7690   21.8664 C   0  0  0  0  0  0  0  0  0  0  0  0
    9.1506  -13.8107   22.6568 O   0  0  0  0  0  0  0  0  0  0  0  0
    7.2059  -16.8755   25.9810 N   0  0  0  0  0  0  0  0  0  0  0  0
    8.5192  -16.9532   26.5181 C   0  0  0  0  0  0  0  0  0  0  0  0
    8.6171  -17.2543   27.7480 O   0  0  0  0  0  0  0  0  0  0  0  0
    9.7430  -16.7134   25.7309 C   0  0  0  0  0  0  0  0  0  0  0  0
    9.5564  -16.2886   24.3352 C   0  0  0  0  0  0  0  0  0  0  0  0
   10.7819  -15.9953   23.5440 C   0  0  2  0  0  0  0  0  0  0  0  0
   10.3363  -15.7531   22.1625 N   0  0  0  0  0  0  0  0  0  0  0  0
   11.8158  -17.0077   23.5592 C   0  0  0  0  0  0  0  0  0  0  0  0
   11.7119  -18.1282   22.7292 O   0  0  0  0  0  0  0  0  0  0  0  0
   12.8172  -16.9231   24.2959 O   0  0  0  0  0  0  0  0  0  0  0  0
  2  3  1  0
  2  1  1  6
  4  3  1  0
  5  6  2  0
  5  2  1  0
  8  7  1  0
  8 10  1  0
  9  8  2  0
 11 10  1  1
 11 12  1  0
 12  5  1  0
 13 11  1  0
 13 21  1  0
 14 13  2  0
 16 15  1  0
 16 17  2  0
 18 16  1  0
 20 19  1  1
 19 18  1  0
 20 21  1  0
 20 22  1  0
 22 24  2  0
 22 23  1  0
M  END
$$$$
