CNQ.pdb
     RDKit          3D

 24 23  0  0  1  0  0  0  0  0999 V2000
    9.1081  -15.3155   19.9551 N   0  0  0  0  0  0  0  0  0  0  0  0
    8.0112  -15.5031   20.8665 C   0  0  1  0  0  0  0  0  0  0  0  0
    7.7297  -17.0089   20.9129 C   0  0  0  0  0  0  0  0  0  0  0  0
    6.1414  -17.3094   20.1200 S   0  0  0  0  0  0  0  0  0  0  0  0
    8.3793  -15.0851   22.2512 C   0  0  0  0  0  0  0  0  0  0  0  0
    9.5685  -15.2223   22.6273 O   0  0  0  0  0  0  0  0  0  0  0  0
    5.8911  -12.0079   26.9745 N   0  0  0  0  0  0  0  0  0  0  0  0
    6.9872  -12.6330   26.2837 C   0  0  0  0  0  0  0  0  0  0  0  0
    8.0477  -12.8322   26.9126 O   0  0  0  0  0  0  0  0  0  0  0  0
    6.8200  -13.0120   24.8720 C   0  0  0  0  0  0  0  0  0  0  0  0
    7.7043  -14.1555   24.4938 C   0  0  2  0  0  0  0  0  0  0  0  0
    7.3994  -14.5419   23.1258 N   0  0  0  0  0  0  0  0  0  0  0  0
    7.4575  -15.3110   25.4175 C   0  0  0  0  0  0  0  0  0  0  0  0
    6.2835  -15.7815   25.4042 O   0  0  0  0  0  0  0  0  0  0  0  0
    5.6305  -19.7428   23.8943 N   0  0  0  0  0  0  0  0  0  0  0  0
    7.0332  -19.5178   23.9250 C   0  0  0  0  0  0  0  0  0  0  0  0
    7.6400  -19.5370   22.8095 O   0  0  0  0  0  0  0  0  0  0  0  0
    7.7963  -19.2622   25.1609 C   0  0  0  0  0  0  0  0  0  0  0  0
    8.5190  -17.9835   25.2369 C   0  0  0  0  0  0  0  0  0  0  0  0
    8.5157  -17.2772   26.5464 C   0  0  2  0  0  0  0  0  0  0  0  0
    8.4555  -15.8386   26.2423 N   0  0  0  0  0  0  0  0  0  0  0  0
    9.6306  -17.5495   27.4278 C   0  0  0  0  0  0  0  0  0  0  0  0
   10.8516  -16.8954   27.2362 O   0  0  0  0  0  0  0  0  0  0  0  0
    9.5488  -18.3594   28.3712 O   0  0  0  0  0  0  0  0  0  0  0  0
  2  3  1  0
  2  1  1  6
  4  3  1  0
  5  6  2  0
  5  2  1  0
  8  7  1  0
  8 10  1  0
  9  8  2  0
 11 10  1  1
 11 12  1  0
 12  5  1  0
 13 11  1  0
 13 21  1  0
 14 13  2  0
 16 15  1  0
 16 17  2  0
 18 16  1  0
 20 19  1  6
 19 18  1  0
 20 21  1  0
 20 22  1  0
 22 24  2  0
 22 23  1  0
M  END
$$$$
