CNQ.pdb
     RDKit          3D

 24 23  0  0  1  0  0  0  0  0999 V2000
    5.6606  -14.2447   26.4558 N   0  0  0  0  0  0  0  0  0  0  0  0
    6.0226  -13.3732   25.3702 C   0  0  1  0  0  0  0  0  0  0  0  0
    6.9696  -12.3170   25.9503 C   0  0  0  0  0  0  0  0  0  0  0  0
    6.2441  -11.6854   27.4722 S   0  0  0  0  0  0  0  0  0  0  0  0
    6.7813  -14.1075   24.3153 C   0  0  0  0  0  0  0  0  0  0  0  0
    6.9905  -15.3354   24.4663 O   0  0  0  0  0  0  0  0  0  0  0  0
    9.2696  -13.1445   18.7706 N   0  0  0  0  0  0  0  0  0  0  0  0
    8.3657  -13.8451   19.6432 C   0  0  0  0  0  0  0  0  0  0  0  0
    8.0100  -14.9993   19.3250 O   0  0  0  0  0  0  0  0  0  0  0  0
    7.8965  -13.1812   20.8694 C   0  0  0  0  0  0  0  0  0  0  0  0
    7.8297  -14.1271   22.0242 C   0  0  2  0  0  0  0  0  0  0  0  0
    7.2571  -13.4265   23.1621 N   0  0  0  0  0  0  0  0  0  0  0  0
    9.2094  -14.6081   22.3626 C   0  0  0  0  0  0  0  0  0  0  0  0
    9.8071  -15.2445   21.4476 O   0  0  0  0  0  0  0  0  0  0  0  0
   10.8186  -14.9578   28.5362 N   0  0  0  0  0  0  0  0  0  0  0  0
   11.5910  -15.9386   27.8574 C   0  0  0  0  0  0  0  0  0  0  0  0
   12.3009  -16.7066   28.5778 O   0  0  0  0  0  0  0  0  0  0  0  0
   11.6000  -16.1059   26.3922 C   0  0  0  0  0  0  0  0  0  0  0  0
   10.7647  -15.1760   25.6172 C   0  0  0  0  0  0  0  0  0  0  0  0
   10.8527  -15.2572   24.1342 C   0  0  2  0  0  0  0  0  0  0  0  0
    9.8021  -14.3720   23.6067 N   0  0  0  0  0  0  0  0  0  0  0  0
   10.7251  -16.5762   23.5528 C   0  0  0  0  0  0  0  0  0  0  0  0
   11.8028  -17.1485   22.8699 O   0  0  0  0  0  0  0  0  0  0  0  0
    9.6736  -17.2396   23.6358 O   0  0  0  0  0  0  0  0  0  0  0  0
  2  3  1  0
  2  1  1  1
  4  3  1  0
  5  6  2  0
  5  2  1  0
  8  7  1  0
  8 10  1  0
  9  8  2  0
 11 10  1  6
 11 12  1  0
 12  5  1  0
 13 11  1  0
 13 21  1  0
 14 13  2  0
 16 15  1  0
 16 17  2  0
 18 16  1  0
 20 19  1  1
 19 18  1  0
 20 21  1  0
 20 22  1  0
 22 24  2  0
 22 23  1  0
M  END
$$$$
