CNQ.pdb
     RDKit          3D

 24 23  0  0  1  0  0  0  0  0999 V2000
    5.4880  -13.3882   26.8575 N   0  0  0  0  0  0  0  0  0  0  0  0
    6.3477  -12.6978   25.9338 C   0  0  1  0  0  0  0  0  0  0  0  0
    7.5420  -12.1825   26.7446 C   0  0  0  0  0  0  0  0  0  0  0  0
    7.0170  -10.7189   27.6520 S   0  0  0  0  0  0  0  0  0  0  0  0
    6.8905  -13.6273   24.8999 C   0  0  0  0  0  0  0  0  0  0  0  0
    7.0279  -14.8401   25.1909 O   0  0  0  0  0  0  0  0  0  0  0  0
    8.4179  -13.5274   18.8824 N   0  0  0  0  0  0  0  0  0  0  0  0
    7.9038  -14.1171   20.0895 C   0  0  0  0  0  0  0  0  0  0  0  0
    7.6898  -15.3475   20.1035 O   0  0  0  0  0  0  0  0  0  0  0  0
    7.6506  -13.2556   21.2550 C   0  0  0  0  0  0  0  0  0  0  0  0
    7.6501  -14.0318   22.5318 C   0  0  2  0  0  0  0  0  0  0  0  0
    7.2444  -13.1455   23.6104 N   0  0  0  0  0  0  0  0  0  0  0  0
    9.0267  -14.5640   22.7990 C   0  0  0  0  0  0  0  0  0  0  0  0
    9.9159  -13.6935   23.0249 O   0  0  0  0  0  0  0  0  0  0  0  0
   11.7788  -18.6917   26.4164 N   0  0  0  0  0  0  0  0  0  0  0  0
   10.5805  -17.9335   26.5077 C   0  0  0  0  0  0  0  0  0  0  0  0
   10.0675  -17.8116   27.6630 O   0  0  0  0  0  0  0  0  0  0  0  0
    9.9257  -17.2919   25.3524 C   0  0  0  0  0  0  0  0  0  0  0  0
   10.4974  -17.5779   24.0278 C   0  0  0  0  0  0  0  0  0  0  0  0
   10.6676  -16.4289   23.0980 C   0  0  2  0  0  0  0  0  0  0  0  0
    9.3149  -15.9320   22.7998 N   0  0  0  0  0  0  0  0  0  0  0  0
   11.3781  -16.6971   21.8662 C   0  0  0  0  0  0  0  0  0  0  0  0
   12.7483  -16.9746   21.8934 O   0  0  0  0  0  0  0  0  0  0  0  0
   10.8098  -16.6916   20.7573 O   0  0  0  0  0  0  0  0  0  0  0  0
  2  3  1  0
  2  1  1  1
  4  3  1  0
  5  6  2  0
  5  2  1  0
  8  7  1  0
  8 10  1  0
  9  8  2  0
 11 10  1  6
 11 12  1  0
 12  5  1  0
 13 11  1  0
 13 21  1  0
 14 13  2  0
 16 15  1  0
 16 17  2  0
 18 16  1  0
 20 19  1  1
 19 18  1  0
 20 21  1  0
 20 22  1  0
 22 24  2  0
 22 23  1  0
M  END
$$$$
