CNQ.pdb
     RDKit          3D

 24 23  0  0  1  0  0  0  0  0999 V2000
    4.5974  -19.0294   19.9569 N   0  0  0  0  0  0  0  0  0  0  0  0
    4.8177  -17.8683   20.7769 C   0  0  1  0  0  0  0  0  0  0  0  0
    4.4997  -18.2803   22.2185 C   0  0  0  0  0  0  0  0  0  0  0  0
    2.7101  -18.3242   22.4097 S   0  0  0  0  0  0  0  0  0  0  0  0
    6.2497  -17.4486   20.7487 C   0  0  0  0  0  0  0  0  0  0  0  0
    7.1266  -18.3101   20.4971 O   0  0  0  0  0  0  0  0  0  0  0  0
    7.2287  -12.4618   19.1501 N   0  0  0  0  0  0  0  0  0  0  0  0
    7.8555  -13.7244   19.4371 C   0  0  0  0  0  0  0  0  0  0  0  0
    8.2616  -14.4156   18.4794 O   0  0  0  0  0  0  0  0  0  0  0  0
    7.9943  -14.1521   20.8379 C   0  0  0  0  0  0  0  0  0  0  0  0
    7.9908  -15.6405   20.9688 C   0  0  2  0  0  0  0  0  0  0  0  0
    6.6111  -16.0976   21.0025 N   0  0  0  0  0  0  0  0  0  0  0  0
    8.6908  -16.0372   22.2346 C   0  0  0  0  0  0  0  0  0  0  0  0
    8.1236  -15.6828   23.3080 O   0  0  0  0  0  0  0  0  0  0  0  0
   14.0679  -20.5405   23.9909 N   0  0  0  0  0  0  0  0  0  0  0  0
   12.6621  -20.3357   24.0249 C   0  0  0  0  0  0  0  0  0  0  0  0
   11.9309  -21.3517   23.8109 O   0  0  0  0  0  0  0  0  0  0  0  0
   12.0295  -19.0317   24.2978 C   0  0  0  0  0  0  0  0  0  0  0  0
   11.2132  -18.4562   23.2181 C   0  0  0  0  0  0  0  0  0  0  0  0
   10.5413  -17.1572   23.4920 C   0  0  2  0  0  0  0  0  0  0  0  0
    9.8923  -16.7521   22.2349 N   0  0  0  0  0  0  0  0  0  0  0  0
   11.3838  -16.0868   23.9803 C   0  0  0  0  0  0  0  0  0  0  0  0
   11.8051  -16.0788   25.3136 O   0  0  0  0  0  0  0  0  0  0  0  0
   11.7589  -15.1506   23.2484 O   0  0  0  0  0  0  0  0  0  0  0  0
  2  3  1  0
  2  1  1  6
  4  3  1  0
  5  6  2  0
  5  2  1  0
  8  7  1  0
  8 10  1  0
  9  8  2  0
 11 10  1  1
 11 12  1  0
 12  5  1  0
 13 11  1  0
 13 21  1  0
 14 13  2  0
 16 15  1  0
 16 17  2  0
 18 16  1  0
 20 19  1  6
 19 18  1  0
 20 21  1  0
 20 22  1  0
 22 24  2  0
 22 23  1  0
M  END
$$$$
