PWD.pdb
     RDKit          3D

 30 32  0  0  1  0  0  0  0  0999 V2000
    7.1631  -15.9430   21.0278 N   0  0  0  0  0  0  0  0  0  0  0  0
    6.1740  -15.5269   20.0799 C   0  0  0  0  0  0  0  0  0  0  0  0
    6.6161  -14.2267   19.4785 C   0  0  0  0  0  0  0  0  0  0  0  0
    7.7549  -13.8165   20.4155 C   0  0  0  0  0  0  0  0  0  0  0  0
    8.3480  -15.1977   20.7174 C   0  0  1  0  0  0  0  0  0  0  0  0
    9.2938  -15.1249   21.8589 C   0  0  0  0  0  0  0  0  0  0  0  0
   10.3702  -14.4848   21.7638 O   0  0  0  0  0  0  0  0  0  0  0  0
    9.0080  -15.7714   23.0760 N   0  0  0  0  0  0  0  0  0  0  0  0
    9.8022  -15.7198   24.2551 C   0  0  1  0  0  0  0  0  0  0  0  0
    8.9891  -16.0330   25.4673 C   0  0  0  0  0  0  0  0  0  0  0  0
    7.7526  -15.2520   25.6147 C   0  0  0  0  0  0  0  0  0  0  0  0
    6.4588  -15.7024   25.4125 C   0  0  0  0  0  0  0  0  0  0  0  0
    5.5984  -14.7196   25.6720 N   0  0  0  0  0  0  0  0  0  0  0  0
    6.3069  -13.6358   26.0393 C   0  0  0  0  0  0  0  0  0  0  0  0
    5.9386  -12.3700   26.4030 C   0  0  0  0  0  0  0  0  0  0  0  0
    6.8223  -11.3732   26.7440 C   0  0  0  0  0  0  0  0  0  0  0  0
    8.1660  -11.7033   26.7070 C   0  0  0  0  0  0  0  0  0  0  0  0
    8.5752  -12.9575   26.3491 C   0  0  0  0  0  0  0  0  0  0  0  0
    7.6559  -13.9485   26.0093 C   0  0  0  0  0  0  0  0  0  0  0  0
   11.0205  -16.5425   24.1908 C   0  0  0  0  0  0  0  0  0  0  0  0
   10.9363  -17.7198   23.7212 O   0  0  0  0  0  0  0  0  0  0  0  0
   12.2870  -16.0813   24.6300 N   0  0  0  0  0  0  0  0  0  0  0  0
   13.5076  -16.8583   24.4681 C   0  0  1  0  0  0  0  0  0  0  0  0
   14.6842  -15.9877   24.1566 C   0  0  0  0  0  0  0  0  0  0  0  0
   15.8970  -16.8005   24.0497 C   0  0  0  0  0  0  0  0  0  0  0  0
   16.1340  -17.5249   23.0391 O   0  0  0  0  0  0  0  0  0  0  0  0
   13.7138  -17.7902   25.5874 C   0  0  0  0  0  0  0  0  0  0  0  0
   14.4209  -18.9559   25.5268 O   0  0  0  0  0  0  0  0  0  0  0  0
   16.8272  -16.7786   25.0968 O   0  0  0  0  0  0  0  0  0  0  0  0
   13.1865  -17.4836   26.7102 O   0  0  0  0  0  0  0  0  0  0  0  0
  1  2  1  0
  1  5  1  0
  2  3  1  0
  3  4  1  0
  5  4  1  0
  6  7  2  0
  5  6  1  1
  8  6  1  0
  9  8  1  0
  9 10  1  1
 10 11  1  0
 11 12  2  0
 11 19  1  0
 12 13  1  0
 13 14  1  0
 14 15  2  0
 15 16  1  0
 17 16  2  0
 18 17  1  0
 19 18  2  0
 19 14  1  0
 20  9  1  0
 21 20  2  0
 22 20  1  0
 23 22  1  0
 24 25  1  0
 23 24  1  1
 25 29  1  0
 26 25  2  0
 27 28  1  0
 27 23  1  0
 30 27  2  0
M  END
$$$$
