PWD.pdb
     RDKit          3D

 30 32  0  0  1  0  0  0  0  0999 V2000
    7.4523  -15.3586   21.0271 N   0  0  0  0  0  0  0  0  0  0  0  0
    6.6165  -14.7776   20.0201 C   0  0  0  0  0  0  0  0  0  0  0  0
    7.1854  -13.4408   19.6500 C   0  0  0  0  0  0  0  0  0  0  0  0
    8.2027  -13.2096   20.7702 C   0  0  0  0  0  0  0  0  0  0  0  0
    8.6960  -14.6476   20.9687 C   0  0  1  0  0  0  0  0  0  0  0  0
    9.4817  -14.7649   22.2225 C   0  0  0  0  0  0  0  0  0  0  0  0
   10.5743  -14.1605   22.3568 O   0  0  0  0  0  0  0  0  0  0  0  0
    9.0219  -15.5564   23.2916 N   0  0  0  0  0  0  0  0  0  0  0  0
    9.6731  -15.7260   24.5449 C   0  0  1  0  0  0  0  0  0  0  0  0
    8.6840  -15.9432   25.6418 C   0  0  0  0  0  0  0  0  0  0  0  0
    7.5807  -14.9733   25.6956 C   0  0  0  0  0  0  0  0  0  0  0  0
    6.2473  -15.2184   25.4135 C   0  0  0  0  0  0  0  0  0  0  0  0
    5.5396  -14.1061   25.6015 N   0  0  0  0  0  0  0  0  0  0  0  0
    6.3867  -13.1393   26.0004 C   0  0  0  0  0  0  0  0  0  0  0  0
    6.2022  -11.8228   26.3214 C   0  0  0  0  0  0  0  0  0  0  0  0
    7.2098  -10.9702   26.7069 C   0  0  0  0  0  0  0  0  0  0  0  0
    8.4834  -11.5092   26.7643 C   0  0  0  0  0  0  0  0  0  0  0  0
    8.7097  -12.8206   26.4517 C   0  0  0  0  0  0  0  0  0  0  0  0
    7.6678  -13.6618   26.0649 C   0  0  0  0  0  0  0  0  0  0  0  0
   10.7157  -16.7643   24.5403 C   0  0  0  0  0  0  0  0  0  0  0  0
   11.3204  -17.0250   25.6266 O   0  0  0  0  0  0  0  0  0  0  0  0
   11.0778  -17.4890   23.3769 N   0  0  0  0  0  0  0  0  0  0  0  0
   12.1894  -18.4289   23.3487 C   0  0  1  0  0  0  0  0  0  0  0  0
   11.8859  -19.6242   22.5009 C   0  0  0  0  0  0  0  0  0  0  0  0
   11.5194  -20.7611   23.3473 C   0  0  0  0  0  0  0  0  0  0  0  0
   10.3295  -20.9567   23.7321 O   0  0  0  0  0  0  0  0  0  0  0  0
   13.4613  -17.7607   23.0335 C   0  0  0  0  0  0  0  0  0  0  0  0
   13.6050  -16.4407   22.7183 O   0  0  0  0  0  0  0  0  0  0  0  0
   12.5140  -21.6632   23.7459 O   0  0  0  0  0  0  0  0  0  0  0  0
   14.5202  -18.4755   23.0556 O   0  0  0  0  0  0  0  0  0  0  0  0
  1  2  1  0
  1  5  1  0
  2  3  1  0
  3  4  1  0
  5  4  1  0
  6  7  2  0
  5  6  1  1
  8  6  1  0
  9  8  1  0
  9 10  1  1
 10 11  1  0
 11 12  2  0
 11 19  1  0
 12 13  1  0
 13 14  1  0
 14 15  2  0
 15 16  1  0
 17 16  2  0
 18 17  1  0
 19 18  2  0
 19 14  1  0
 20  9  1  0
 21 20  2  0
 22 20  1  0
 23 22  1  0
 24 25  1  0
 23 24  1  6
 25 29  1  0
 26 25  2  0
 27 28  1  0
 27 23  1  0
 30 27  2  0
M  END
$$$$
