PWD.pdb
     RDKit          3D

 30 32  0  0  1  0  0  0  0  0999 V2000
    7.2370  -15.4218   20.5655 N   0  0  0  0  0  0  0  0  0  0  0  0
    6.3938  -14.8413   19.5645 C   0  0  0  0  0  0  0  0  0  0  0  0
    7.0101  -13.5482   19.1221 C   0  0  0  0  0  0  0  0  0  0  0  0
    8.0757  -13.3222   20.1975 C   0  0  0  0  0  0  0  0  0  0  0  0
    8.5092  -14.7731   20.4370 C   0  0  1  0  0  0  0  0  0  0  0  0
    9.3324  -14.8790   21.6675 C   0  0  0  0  0  0  0  0  0  0  0  0
   10.4802  -14.3719   21.7202 O   0  0  0  0  0  0  0  0  0  0  0  0
    8.8473  -15.5501   22.8056 N   0  0  0  0  0  0  0  0  0  0  0  0
    9.4994  -15.6326   24.0672 C   0  0  1  0  0  0  0  0  0  0  0  0
    8.5373  -15.9973   25.1489 C   0  0  0  0  0  0  0  0  0  0  0  0
    7.3979  -15.0831   25.3123 C   0  0  0  0  0  0  0  0  0  0  0  0
    6.0625  -15.3754   25.0909 C   0  0  0  0  0  0  0  0  0  0  0  0
    5.3191  -14.3074   25.3740 N   0  0  0  0  0  0  0  0  0  0  0  0
    6.1447  -13.3232   25.7756 C   0  0  0  0  0  0  0  0  0  0  0  0
    5.9218  -12.0340   26.1734 C   0  0  0  0  0  0  0  0  0  0  0  0
    6.9117  -11.1557   26.5470 C   0  0  0  0  0  0  0  0  0  0  0  0
    8.2086  -11.6376   26.5073 C   0  0  0  0  0  0  0  0  0  0  0  0
    8.4735  -12.9202   26.1159 C   0  0  0  0  0  0  0  0  0  0  0  0
    7.4489  -13.7886   25.7434 C   0  0  0  0  0  0  0  0  0  0  0  0
   10.6806  -16.5099   24.0724 C   0  0  0  0  0  0  0  0  0  0  0  0
   10.5746  -17.6772   23.5828 O   0  0  0  0  0  0  0  0  0  0  0  0
   11.9349  -16.1119   24.5999 N   0  0  0  0  0  0  0  0  0  0  0  0
   13.1344  -16.9285   24.4804 C   0  0  1  0  0  0  0  0  0  0  0  0
   14.3727  -16.0912   24.4095 C   0  0  0  0  0  0  0  0  0  0  0  0
   15.5525  -16.9482   24.2801 C   0  0  0  0  0  0  0  0  0  0  0  0
   16.1055  -17.4868   25.2832 O   0  0  0  0  0  0  0  0  0  0  0  0
   13.1722  -17.9943   25.4935 C   0  0  0  0  0  0  0  0  0  0  0  0
   13.7302  -19.2282   25.3239 O   0  0  0  0  0  0  0  0  0  0  0  0
   16.0892  -17.1821   23.0076 O   0  0  0  0  0  0  0  0  0  0  0  0
   12.6374  -17.7450   26.6269 O   0  0  0  0  0  0  0  0  0  0  0  0
  1  2  1  0
  1  5  1  0
  2  3  1  0
  3  4  1  0
  5  4  1  0
  6  7  2  0
  5  6  1  1
  8  6  1  0
  9  8  1  0
  9 10  1  1
 10 11  1  0
 11 12  2  0
 11 19  1  0
 12 13  1  0
 13 14  1  0
 14 15  2  0
 15 16  1  0
 17 16  2  0
 18 17  1  0
 19 18  2  0
 19 14  1  0
 20  9  1  0
 21 20  2  0
 22 20  1  0
 23 22  1  0
 24 25  1  0
 23 24  1  1
 25 29  1  0
 26 25  2  0
 27 28  1  0
 27 23  1  0
 30 27  2  0
M  END
$$$$
