PWD.pdb
     RDKit          3D

 30 32  0  0  1  0  0  0  0  0999 V2000
    7.0892  -15.2707   20.7901 N   0  0  0  0  0  0  0  0  0  0  0  0
    6.2053  -14.6485   19.8511 C   0  0  0  0  0  0  0  0  0  0  0  0
    6.8555  -13.3924   19.3538 C   0  0  0  0  0  0  0  0  0  0  0  0
    8.0102  -13.2212   20.3441 C   0  0  0  0  0  0  0  0  0  0  0  0
    8.3813  -14.6929   20.5613 C   0  0  1  0  0  0  0  0  0  0  0  0
    9.2883  -14.8392   21.7270 C   0  0  0  0  0  0  0  0  0  0  0  0
   10.4282  -14.3120   21.7264 O   0  0  0  0  0  0  0  0  0  0  0  0
    8.8935  -15.5723   22.8617 N   0  0  0  0  0  0  0  0  0  0  0  0
    9.6040  -15.6538   24.0914 C   0  0  1  0  0  0  0  0  0  0  0  0
    8.7009  -16.0543   25.2107 C   0  0  0  0  0  0  0  0  0  0  0  0
    7.4972  -15.2266   25.3749 C   0  0  0  0  0  0  0  0  0  0  0  0
    6.1834  -15.6332   25.2125 C   0  0  0  0  0  0  0  0  0  0  0  0
    5.3655  -14.6158   25.4761 N   0  0  0  0  0  0  0  0  0  0  0  0
    6.1214  -13.5524   25.8069 C   0  0  0  0  0  0  0  0  0  0  0  0
    5.8079  -12.2683   26.1574 C   0  0  0  0  0  0  0  0  0  0  0  0
    6.7351  -11.2986   26.4591 C   0  0  0  0  0  0  0  0  0  0  0  0
    8.0648  -11.6777   26.3948 C   0  0  0  0  0  0  0  0  0  0  0  0
    8.4197  -12.9517   26.0487 C   0  0  0  0  0  0  0  0  0  0  0  0
    7.4572  -13.9141   25.7490 C   0  0  0  0  0  0  0  0  0  0  0  0
   10.8046  -16.5025   24.0322 C   0  0  0  0  0  0  0  0  0  0  0  0
   10.6786  -17.7108   23.6612 O   0  0  0  0  0  0  0  0  0  0  0  0
   12.0986  -16.0331   24.3710 N   0  0  0  0  0  0  0  0  0  0  0  0
   13.2913  -16.8605   24.2575 C   0  0  1  0  0  0  0  0  0  0  0  0
   14.5122  -16.0415   23.9779 C   0  0  0  0  0  0  0  0  0  0  0  0
   15.6907  -16.9064   23.8989 C   0  0  0  0  0  0  0  0  0  0  0  0
   15.6044  -18.1354   23.6086 O   0  0  0  0  0  0  0  0  0  0  0  0
   13.4219  -17.7883   25.3915 C   0  0  0  0  0  0  0  0  0  0  0  0
   12.7738  -17.6731   26.5870 O   0  0  0  0  0  0  0  0  0  0  0  0
   16.9555  -16.3603   24.1519 O   0  0  0  0  0  0  0  0  0  0  0  0
   14.2082  -18.7849   25.2460 O   0  0  0  0  0  0  0  0  0  0  0  0
  1  2  1  0
  1  5  1  0
  2  3  1  0
  3  4  1  0
  5  4  1  0
  6  7  2  0
  5  6  1  1
  8  6  1  0
  9  8  1  0
  9 10  1  1
 10 11  1  0
 11 12  2  0
 11 19  1  0
 12 13  1  0
 13 14  1  0
 14 15  2  0
 15 16  1  0
 17 16  2  0
 18 17  1  0
 19 18  2  0
 19 14  1  0
 20  9  1  0
 21 20  2  0
 22 20  1  0
 23 22  1  0
 24 25  1  0
 23 24  1  1
 25 29  1  0
 26 25  2  0
 27 28  1  0
 27 23  1  0
 30 27  2  0
M  END
$$$$
