PWD.pdb
     RDKit          3D

 30 32  0  0  1  0  0  0  0  0999 V2000
    8.2799  -15.3087   18.6158 N   0  0  0  0  0  0  0  0  0  0  0  0
    7.8227  -14.9477   17.3079 C   0  0  0  0  0  0  0  0  0  0  0  0
    7.9834  -13.4659   17.1455 C   0  0  0  0  0  0  0  0  0  0  0  0
    8.2549  -13.0183   18.5839 C   0  0  0  0  0  0  0  0  0  0  0  0
    9.0838  -14.2124   19.0714 C   0  0  1  0  0  0  0  0  0  0  0  0
    9.2283  -14.1835   20.5483 C   0  0  0  0  0  0  0  0  0  0  0  0
   10.0877  -13.4505   21.0972 O   0  0  0  0  0  0  0  0  0  0  0  0
    8.4058  -14.9767   21.3701 N   0  0  0  0  0  0  0  0  0  0  0  0
    8.4041  -14.9822   22.7926 C   0  0  1  0  0  0  0  0  0  0  0  0
    7.0118  -15.0181   23.3303 C   0  0  0  0  0  0  0  0  0  0  0  0
    6.8957  -14.8618   24.7873 C   0  0  0  0  0  0  0  0  0  0  0  0
    6.7879  -15.8763   25.7237 C   0  0  0  0  0  0  0  0  0  0  0  0
    6.7345  -15.3513   26.9464 N   0  0  0  0  0  0  0  0  0  0  0  0
    6.8048  -14.0126   26.8252 C   0  0  0  0  0  0  0  0  0  0  0  0
    6.7872  -12.9990   27.7429 C   0  0  0  0  0  0  0  0  0  0  0  0
    6.8621  -11.6634   27.4244 C   0  0  0  0  0  0  0  0  0  0  0  0
    6.9609  -11.3566   26.0783 C   0  0  0  0  0  0  0  0  0  0  0  0
    6.9821  -12.3407   25.1297 C   0  0  0  0  0  0  0  0  0  0  0  0
    6.9055  -13.6869   25.4828 C   0  0  0  0  0  0  0  0  0  0  0  0
    9.2430  -16.0350   23.3866 C   0  0  0  0  0  0  0  0  0  0  0  0
    9.1658  -16.2420   24.6375 O   0  0  0  0  0  0  0  0  0  0  0  0
   10.1358  -16.8312   22.6258 N   0  0  0  0  0  0  0  0  0  0  0  0
   10.8720  -17.9514   23.1944 C   0  0  1  0  0  0  0  0  0  0  0  0
   11.2858  -18.9351   22.1454 C   0  0  0  0  0  0  0  0  0  0  0  0
   12.1567  -18.2866   21.1634 C   0  0  0  0  0  0  0  0  0  0  0  0
   12.5871  -17.1068   21.3220 O   0  0  0  0  0  0  0  0  0  0  0  0
   11.9606  -17.4988   24.0741 C   0  0  0  0  0  0  0  0  0  0  0  0
   12.7118  -18.3026   24.8815 O   0  0  0  0  0  0  0  0  0  0  0  0
   12.5277  -18.9907   20.0108 O   0  0  0  0  0  0  0  0  0  0  0  0
   12.2247  -16.2486   24.0841 O   0  0  0  0  0  0  0  0  0  0  0  0
  1  2  1  0
  1  5  1  0
  2  3  1  0
  3  4  1  0
  5  4  1  0
  6  7  2  0
  5  6  1  1
  8  6  1  0
  9  8  1  0
  9 10  1  6
 10 11  1  0
 11 12  2  0
 11 19  1  0
 12 13  1  0
 13 14  1  0
 14 15  2  0
 15 16  1  0
 17 16  2  0
 18 17  1  0
 19 18  2  0
 19 14  1  0
 20  9  1  0
 21 20  2  0
 22 20  1  0
 23 22  1  0
 24 25  1  0
 23 24  1  6
 25 29  1  0
 26 25  2  0
 27 28  1  0
 27 23  1  0
 30 27  2  0
M  END
$$$$
