PWD.pdb
     RDKit          3D

 30 32  0  0  1  0  0  0  0  0999 V2000
    7.2918  -15.3643   20.7510 N   0  0  0  0  0  0  0  0  0  0  0  0
    6.4709  -14.7625   19.7441 C   0  0  0  0  0  0  0  0  0  0  0  0
    7.0284  -13.4066   19.4307 C   0  0  0  0  0  0  0  0  0  0  0  0
    8.0163  -13.1979   20.5812 C   0  0  0  0  0  0  0  0  0  0  0  0
    8.5260  -14.6346   20.7447 C   0  0  1  0  0  0  0  0  0  0  0  0
    9.2845  -14.7817   22.0120 C   0  0  0  0  0  0  0  0  0  0  0  0
   10.3397  -14.1303   22.2105 O   0  0  0  0  0  0  0  0  0  0  0  0
    8.8400  -15.6548   23.0225 N   0  0  0  0  0  0  0  0  0  0  0  0
    9.4846  -15.8852   24.2695 C   0  0  1  0  0  0  0  0  0  0  0  0
    8.4925  -16.2019   25.3392 C   0  0  0  0  0  0  0  0  0  0  0  0
    7.4056  -15.2251   25.4986 C   0  0  0  0  0  0  0  0  0  0  0  0
    6.0628  -15.4279   25.2276 C   0  0  0  0  0  0  0  0  0  0  0  0
    5.3764  -14.3258   25.5236 N   0  0  0  0  0  0  0  0  0  0  0  0
    6.2466  -13.4071   25.9822 C   0  0  0  0  0  0  0  0  0  0  0  0
    6.0892  -12.1197   26.4157 C   0  0  0  0  0  0  0  0  0  0  0  0
    7.1178  -11.3158   26.8478 C   0  0  0  0  0  0  0  0  0  0  0  0
    8.3839  -11.8748   26.8311 C   0  0  0  0  0  0  0  0  0  0  0  0
    8.5834  -13.1584   26.4054 C   0  0  0  0  0  0  0  0  0  0  0  0
    7.5207  -13.9503   25.9737 C   0  0  0  0  0  0  0  0  0  0  0  0
   10.5584  -16.8895   24.2101 C   0  0  0  0  0  0  0  0  0  0  0  0
   10.2603  -18.0815   23.8878 O   0  0  0  0  0  0  0  0  0  0  0  0
   11.9136  -16.5879   24.4966 N   0  0  0  0  0  0  0  0  0  0  0  0
   12.9196  -17.6169   24.7182 C   0  0  1  0  0  0  0  0  0  0  0  0
   14.3075  -17.0840   24.5474 C   0  0  0  0  0  0  0  0  0  0  0  0
   14.4835  -16.5650   23.1899 C   0  0  0  0  0  0  0  0  0  0  0  0
   14.8119  -15.3631   22.9670 O   0  0  0  0  0  0  0  0  0  0  0  0
   12.6916  -18.3408   25.9781 C   0  0  0  0  0  0  0  0  0  0  0  0
   11.7562  -18.0184   26.9181 O   0  0  0  0  0  0  0  0  0  0  0  0
   14.2831  -17.4225   22.1006 O   0  0  0  0  0  0  0  0  0  0  0  0
   13.4313  -19.3559   26.2131 O   0  0  0  0  0  0  0  0  0  0  0  0
  1  2  1  0
  1  5  1  0
  2  3  1  0
  3  4  1  0
  5  4  1  0
  6  7  2  0
  5  6  1  1
  8  6  1  0
  9  8  1  0
  9 10  1  1
 10 11  1  0
 11 12  2  0
 11 19  1  0
 12 13  1  0
 13 14  1  0
 14 15  2  0
 15 16  1  0
 17 16  2  0
 18 17  1  0
 19 18  2  0
 19 14  1  0
 20  9  1  0
 21 20  2  0
 22 20  1  0
 23 22  1  0
 24 25  1  0
 23 24  1  1
 25 29  1  0
 26 25  2  0
 27 28  1  0
 27 23  1  0
 30 27  2  0
M  END
$$$$
