PWD.pdb
     RDKit          3D

 30 32  0  0  1  0  0  0  0  0999 V2000
    7.2822  -15.4322   20.7346 N   0  0  0  0  0  0  0  0  0  0  0  0
    6.4522  -14.8536   19.7215 C   0  0  0  0  0  0  0  0  0  0  0  0
    7.0403  -13.5314   19.3297 C   0  0  0  0  0  0  0  0  0  0  0  0
    8.0646  -13.2990   20.4432 C   0  0  0  0  0  0  0  0  0  0  0  0
    8.5365  -14.7412   20.6618 C   0  0  1  0  0  0  0  0  0  0  0  0
    9.3243  -14.8518   21.9148 C   0  0  0  0  0  0  0  0  0  0  0  0
   10.4387  -14.2836   22.0273 O   0  0  0  0  0  0  0  0  0  0  0  0
    8.8422  -15.5960   23.0078 N   0  0  0  0  0  0  0  0  0  0  0  0
    9.5032  -15.7705   24.2553 C   0  0  1  0  0  0  0  0  0  0  0  0
    8.5226  -15.9900   25.3594 C   0  0  0  0  0  0  0  0  0  0  0  0
    7.4587  -14.9813   25.4659 C   0  0  0  0  0  0  0  0  0  0  0  0
    6.1147  -15.1614   25.1847 C   0  0  0  0  0  0  0  0  0  0  0  0
    5.4525  -14.0320   25.4283 N   0  0  0  0  0  0  0  0  0  0  0  0
    6.3397  -13.1177   25.8626 C   0  0  0  0  0  0  0  0  0  0  0  0
    6.2092  -11.8108   26.2435 C   0  0  0  0  0  0  0  0  0  0  0  0
    7.2522  -11.0162   26.6580 C   0  0  0  0  0  0  0  0  0  0  0  0
    8.5040  -11.6065   26.6803 C   0  0  0  0  0  0  0  0  0  0  0  0
    8.6764  -12.9103   26.3075 C   0  0  0  0  0  0  0  0  0  0  0  0
    7.5997  -13.6920   25.8926 C   0  0  0  0  0  0  0  0  0  0  0  0
   10.5443  -16.8102   24.2390 C   0  0  0  0  0  0  0  0  0  0  0  0
   10.3450  -17.8611   23.5538 O   0  0  0  0  0  0  0  0  0  0  0  0
   11.7626  -16.6933   24.9545 N   0  0  0  0  0  0  0  0  0  0  0  0
   12.7036  -17.7958   25.0927 C   0  0  1  0  0  0  0  0  0  0  0  0
   14.1226  -17.3204   25.0845 C   0  0  0  0  0  0  0  0  0  0  0  0
   14.4353  -16.6929   23.7994 C   0  0  0  0  0  0  0  0  0  0  0  0
   14.1040  -17.2182   22.6964 O   0  0  0  0  0  0  0  0  0  0  0  0
   12.3568  -18.6709   26.2230 C   0  0  0  0  0  0  0  0  0  0  0  0
   11.3317  -18.4629   27.0996 O   0  0  0  0  0  0  0  0  0  0  0  0
   15.1227  -15.4725   23.7857 O   0  0  0  0  0  0  0  0  0  0  0  0
   13.0754  -19.7126   26.3998 O   0  0  0  0  0  0  0  0  0  0  0  0
  1  2  1  0
  1  5  1  0
  2  3  1  0
  3  4  1  0
  5  4  1  0
  6  7  2  0
  5  6  1  1
  8  6  1  0
  9  8  1  0
  9 10  1  1
 10 11  1  0
 11 12  2  0
 11 19  1  0
 12 13  1  0
 13 14  1  0
 14 15  2  0
 15 16  1  0
 17 16  2  0
 18 17  1  0
 19 18  2  0
 19 14  1  0
 20  9  1  0
 21 20  2  0
 22 20  1  0
 23 22  1  0
 24 25  1  0
 23 24  1  1
 25 29  1  0
 26 25  2  0
 27 28  1  0
 27 23  1  0
 30 27  2  0
M  END
$$$$
