PWD.pdb
     RDKit          3D

 30 32  0  0  1  0  0  0  0  0999 V2000
    7.3443  -15.9095   21.0265 N   0  0  0  0  0  0  0  0  0  0  0  0
    6.4339  -15.4576   20.0181 C   0  0  0  0  0  0  0  0  0  0  0  0
    6.8487  -14.0813   19.5921 C   0  0  0  0  0  0  0  0  0  0  0  0
    7.8537  -13.7027   20.6828 C   0  0  0  0  0  0  0  0  0  0  0  0
    8.5028  -15.0715   20.9190 C   0  0  1  0  0  0  0  0  0  0  0  0
    9.3175  -15.0594   22.1596 C   0  0  0  0  0  0  0  0  0  0  0  0
   10.3373  -14.3325   22.2534 O   0  0  0  0  0  0  0  0  0  0  0  0
    8.9674  -15.8620   23.2615 N   0  0  0  0  0  0  0  0  0  0  0  0
    9.6700  -15.9373   24.4960 C   0  0  1  0  0  0  0  0  0  0  0  0
    8.7318  -16.1411   25.6393 C   0  0  0  0  0  0  0  0  0  0  0  0
    7.6066  -15.1976   25.7058 C   0  0  0  0  0  0  0  0  0  0  0  0
    6.2730  -15.4797   25.4619 C   0  0  0  0  0  0  0  0  0  0  0  0
    5.5429  -14.3820   25.6503 N   0  0  0  0  0  0  0  0  0  0  0  0
    6.3757  -13.3883   26.0121 C   0  0  0  0  0  0  0  0  0  0  0  0
    6.1668  -12.0716   26.3167 C   0  0  0  0  0  0  0  0  0  0  0  0
    7.1624  -11.1885   26.6628 C   0  0  0  0  0  0  0  0  0  0  0  0
    8.4500  -11.6954   26.6961 C   0  0  0  0  0  0  0  0  0  0  0  0
    8.7007  -13.0058   26.3986 C   0  0  0  0  0  0  0  0  0  0  0  0
    7.6705  -13.8784   26.0520 C   0  0  0  0  0  0  0  0  0  0  0  0
   10.7589  -16.9270   24.5040 C   0  0  0  0  0  0  0  0  0  0  0  0
   10.4913  -18.1293   24.1937 O   0  0  0  0  0  0  0  0  0  0  0  0
   12.0961  -16.6002   24.8429 N   0  0  0  0  0  0  0  0  0  0  0  0
   13.1348  -17.6069   25.0096 C   0  0  1  0  0  0  0  0  0  0  0  0
   14.5048  -17.0207   24.8720 C   0  0  0  0  0  0  0  0  0  0  0  0
   14.6817  -16.4652   23.5292 C   0  0  0  0  0  0  0  0  0  0  0  0
   13.9979  -16.8639   22.5413 O   0  0  0  0  0  0  0  0  0  0  0  0
   12.9295  -18.4065   26.2270 C   0  0  0  0  0  0  0  0  0  0  0  0
   12.0277  -18.1295   27.2132 O   0  0  0  0  0  0  0  0  0  0  0  0
   15.6366  -15.4606   23.3271 O   0  0  0  0  0  0  0  0  0  0  0  0
   13.6564  -19.4470   26.3744 O   0  0  0  0  0  0  0  0  0  0  0  0
  1  2  1  0
  1  5  1  0
  2  3  1  0
  3  4  1  0
  5  4  1  0
  6  7  2  0
  5  6  1  1
  8  6  1  0
  9  8  1  0
  9 10  1  1
 10 11  1  0
 11 12  2  0
 11 19  1  0
 12 13  1  0
 13 14  1  0
 14 15  2  0
 15 16  1  0
 17 16  2  0
 18 17  1  0
 19 18  2  0
 19 14  1  0
 20  9  1  0
 21 20  2  0
 22 20  1  0
 23 22  1  0
 24 25  1  0
 23 24  1  1
 25 29  1  0
 26 25  2  0
 27 28  1  0
 27 23  1  0
 30 27  2  0
M  END
$$$$
