PWD.pdb
     RDKit          3D

 30 32  0  0  1  0  0  0  0  0999 V2000
    7.1715  -15.2306   20.6894 N   0  0  0  0  0  0  0  0  0  0  0  0
    6.3803  -14.5297   19.7236 C   0  0  0  0  0  0  0  0  0  0  0  0
    7.1023  -13.2704   19.3483 C   0  0  0  0  0  0  0  0  0  0  0  0
    8.1821  -13.1912   20.4304 C   0  0  0  0  0  0  0  0  0  0  0  0
    8.4933  -14.6839   20.5911 C   0  0  1  0  0  0  0  0  0  0  0  0
    9.3038  -14.9230   21.8113 C   0  0  0  0  0  0  0  0  0  0  0  0
   10.4706  -14.4688   21.9088 O   0  0  0  0  0  0  0  0  0  0  0  0
    8.7848  -15.6644   22.8892 N   0  0  0  0  0  0  0  0  0  0  0  0
    9.4152  -15.8574   24.1498 C   0  0  1  0  0  0  0  0  0  0  0  0
    8.4088  -16.1091   25.2234 C   0  0  0  0  0  0  0  0  0  0  0  0
    7.3324  -15.1129   25.3230 C   0  0  0  0  0  0  0  0  0  0  0  0
    5.9922  -15.3093   25.0350 C   0  0  0  0  0  0  0  0  0  0  0  0
    5.3154  -14.1875   25.2737 N   0  0  0  0  0  0  0  0  0  0  0  0
    6.1894  -13.2622   25.7115 C   0  0  0  0  0  0  0  0  0  0  0  0
    6.0415  -11.9565   26.0900 C   0  0  0  0  0  0  0  0  0  0  0  0
    7.0727  -11.1491   26.5090 C   0  0  0  0  0  0  0  0  0  0  0  0
    8.3313  -11.7245   26.5386 C   0  0  0  0  0  0  0  0  0  0  0  0
    8.5212  -13.0266   26.1684 C   0  0  0  0  0  0  0  0  0  0  0  0
    7.4560  -13.8215   25.7488 C   0  0  0  0  0  0  0  0  0  0  0  0
   10.4674  -16.8858   24.1399 C   0  0  0  0  0  0  0  0  0  0  0  0
   10.2005  -18.0256   23.6468 O   0  0  0  0  0  0  0  0  0  0  0  0
   11.7687  -16.6632   24.6567 N   0  0  0  0  0  0  0  0  0  0  0  0
   12.7165  -17.7424   24.8955 C   0  0  1  0  0  0  0  0  0  0  0  0
   14.1325  -17.2614   24.8416 C   0  0  0  0  0  0  0  0  0  0  0  0
   14.3771  -16.5582   23.5811 C   0  0  0  0  0  0  0  0  0  0  0  0
   14.0239  -17.0377   22.4642 O   0  0  0  0  0  0  0  0  0  0  0  0
   12.3756  -18.5110   26.1025 C   0  0  0  0  0  0  0  0  0  0  0  0
   11.4997  -18.1157   27.0715 O   0  0  0  0  0  0  0  0  0  0  0  0
   15.0221  -15.3151   23.6077 O   0  0  0  0  0  0  0  0  0  0  0  0
   12.9477  -19.6430   26.2575 O   0  0  0  0  0  0  0  0  0  0  0  0
  1  2  1  0
  1  5  1  0
  2  3  1  0
  3  4  1  0
  5  4  1  0
  6  7  2  0
  5  6  1  1
  8  6  1  0
  9  8  1  0
  9 10  1  1
 10 11  1  0
 11 12  2  0
 11 19  1  0
 12 13  1  0
 13 14  1  0
 14 15  2  0
 15 16  1  0
 17 16  2  0
 18 17  1  0
 19 18  2  0
 19 14  1  0
 20  9  1  0
 21 20  2  0
 22 20  1  0
 23 22  1  0
 24 25  1  0
 23 24  1  1
 25 29  1  0
 26 25  2  0
 27 28  1  0
 27 23  1  0
 30 27  2  0
M  END
$$$$
