PWD.pdb
     RDKit          3D

 30 32  0  0  1  0  0  0  0  0999 V2000
    7.8254  -15.3717   18.6006 N   0  0  0  0  0  0  0  0  0  0  0  0
    7.2421  -14.9825   17.3522 C   0  0  0  0  0  0  0  0  0  0  0  0
    7.5910  -13.5470   17.0969 C   0  0  0  0  0  0  0  0  0  0  0  0
    8.1285  -13.1054   18.4605 C   0  0  0  0  0  0  0  0  0  0  0  0
    8.8370  -14.3966   18.8865 C   0  0  1  0  0  0  0  0  0  0  0  0
    9.1951  -14.3487   20.3262 C   0  0  0  0  0  0  0  0  0  0  0  0
   10.0926  -13.5744   20.7412 O   0  0  0  0  0  0  0  0  0  0  0  0
    8.5377  -15.1694   21.2616 N   0  0  0  0  0  0  0  0  0  0  0  0
    8.5532  -15.0030   22.6743 C   0  0  1  0  0  0  0  0  0  0  0  0
    7.1869  -14.7062   23.1976 C   0  0  0  0  0  0  0  0  0  0  0  0
    7.0829  -14.5976   24.6599 C   0  0  0  0  0  0  0  0  0  0  0  0
    7.1200  -15.6381   25.5729 C   0  0  0  0  0  0  0  0  0  0  0  0
    7.0281  -15.1508   26.8088 N   0  0  0  0  0  0  0  0  0  0  0  0
    6.9310  -13.8114   26.7193 C   0  0  0  0  0  0  0  0  0  0  0  0
    6.8083  -12.8281   27.6617 C   0  0  0  0  0  0  0  0  0  0  0  0
    6.7120  -11.4868   27.3748 C   0  0  0  0  0  0  0  0  0  0  0  0
    6.7443  -11.1405   26.0350 C   0  0  0  0  0  0  0  0  0  0  0  0
    6.8662  -12.0933   25.0624 C   0  0  0  0  0  0  0  0  0  0  0  0
    6.9629  -13.4461   25.3836 C   0  0  0  0  0  0  0  0  0  0  0  0
    9.1823  -16.1178   23.4000 C   0  0  0  0  0  0  0  0  0  0  0  0
    8.7596  -17.2971   23.1898 O   0  0  0  0  0  0  0  0  0  0  0  0
   10.2409  -15.9364   24.3253 N   0  0  0  0  0  0  0  0  0  0  0  0
   10.9835  -17.0490   24.9004 C   0  0  1  0  0  0  0  0  0  0  0  0
   12.4578  -16.7920   24.9024 C   0  0  0  0  0  0  0  0  0  0  0  0
   12.9482  -16.6663   23.5288 C   0  0  0  0  0  0  0  0  0  0  0  0
   12.7520  -17.5656   22.6599 O   0  0  0  0  0  0  0  0  0  0  0  0
   10.4311  -17.4602   26.2001 C   0  0  0  0  0  0  0  0  0  0  0  0
    9.3857  -16.8611   26.8410 O   0  0  0  0  0  0  0  0  0  0  0  0
   13.6574  -15.5159   23.1605 O   0  0  0  0  0  0  0  0  0  0  0  0
   10.9756  -18.4611   26.7783 O   0  0  0  0  0  0  0  0  0  0  0  0
  1  2  1  0
  1  5  1  0
  2  3  1  0
  3  4  1  0
  5  4  1  0
  6  7  2  0
  5  6  1  1
  8  6  1  0
  9  8  1  0
  9 10  1  1
 10 11  1  0
 11 12  2  0
 11 19  1  0
 12 13  1  0
 13 14  1  0
 14 15  2  0
 15 16  1  0
 17 16  2  0
 18 17  1  0
 19 18  2  0
 19 14  1  0
 20  9  1  0
 21 20  2  0
 22 20  1  0
 23 22  1  0
 24 25  1  0
 23 24  1  1
 25 29  1  0
 26 25  2  0
 27 28  1  0
 27 23  1  0
 30 27  2  0
M  END
$$$$
