PWD.pdb
     RDKit          3D

 30 32  0  0  1  0  0  0  0  0999 V2000
    6.9987  -15.3266   20.8937 N   0  0  0  0  0  0  0  0  0  0  0  0
    6.0706  -14.7342   19.9783 C   0  0  0  0  0  0  0  0  0  0  0  0
    6.6942  -13.4937   19.4126 C   0  0  0  0  0  0  0  0  0  0  0  0
    7.8935  -13.2913   20.3420 C   0  0  0  0  0  0  0  0  0  0  0  0
    8.2775  -14.7553   20.5868 C   0  0  1  0  0  0  0  0  0  0  0  0
    9.2383  -14.8650   21.7128 C   0  0  0  0  0  0  0  0  0  0  0  0
   10.3820  -14.3518   21.6359 O   0  0  0  0  0  0  0  0  0  0  0  0
    8.8916  -15.5468   22.8943 N   0  0  0  0  0  0  0  0  0  0  0  0
    9.6824  -15.6275   24.0740 C   0  0  1  0  0  0  0  0  0  0  0  0
    8.8564  -16.0296   25.2508 C   0  0  0  0  0  0  0  0  0  0  0  0
    7.6671  -15.2014   25.4972 C   0  0  0  0  0  0  0  0  0  0  0  0
    6.3446  -15.5908   25.3668 C   0  0  0  0  0  0  0  0  0  0  0  0
    5.5464  -14.5803   25.7063 N   0  0  0  0  0  0  0  0  0  0  0  0
    6.3236  -13.5383   26.0552 C   0  0  0  0  0  0  0  0  0  0  0  0
    6.0350  -12.2690   26.4742 C   0  0  0  0  0  0  0  0  0  0  0  0
    6.9815  -11.3205   26.7834 C   0  0  0  0  0  0  0  0  0  0  0  0
    8.3044  -11.7060   26.6518 C   0  0  0  0  0  0  0  0  0  0  0  0
    8.6346  -12.9657   26.2362 C   0  0  0  0  0  0  0  0  0  0  0  0
    7.6530  -13.9068   25.9306 C   0  0  0  0  0  0  0  0  0  0  0  0
   10.8777  -16.4744   23.9348 C   0  0  0  0  0  0  0  0  0  0  0  0
   10.7786  -17.5674   23.2953 O   0  0  0  0  0  0  0  0  0  0  0  0
   12.1379  -16.1262   24.4828 N   0  0  0  0  0  0  0  0  0  0  0  0
   13.3417  -16.9118   24.2508 C   0  0  1  0  0  0  0  0  0  0  0  0
   14.4924  -16.0544   23.8264 C   0  0  0  0  0  0  0  0  0  0  0  0
   15.6894  -16.8761   23.6387 C   0  0  0  0  0  0  0  0  0  0  0  0
   15.6678  -17.9539   22.9754 O   0  0  0  0  0  0  0  0  0  0  0  0
   13.6310  -17.8125   25.3772 C   0  0  0  0  0  0  0  0  0  0  0  0
   13.0522  -17.7477   26.6114 O   0  0  0  0  0  0  0  0  0  0  0  0
   16.8988  -16.4596   24.2097 O   0  0  0  0  0  0  0  0  0  0  0  0
   14.4971  -18.7321   25.1848 O   0  0  0  0  0  0  0  0  0  0  0  0
  1  2  1  0
  1  5  1  0
  2  3  1  0
  3  4  1  0
  5  4  1  0
  6  7  2  0
  5  6  1  1
  8  6  1  0
  9  8  1  0
  9 10  1  1
 10 11  1  0
 11 12  2  0
 11 19  1  0
 12 13  1  0
 13 14  1  0
 14 15  2  0
 15 16  1  0
 17 16  2  0
 18 17  1  0
 19 18  2  0
 19 14  1  0
 20  9  1  0
 21 20  2  0
 22 20  1  0
 23 22  1  0
 24 25  1  0
 23 24  1  1
 25 29  1  0
 26 25  2  0
 27 28  1  0
 27 23  1  0
 30 27  2  0
M  END
$$$$
