YEV.pdb
     RDKit          3D

 29 29  0  0  1  0  0  0  0  0999 V2000
   28.8413  -11.5999  -16.0879 O   0  0  0  0  0  0  0  0  0  0  0  0
   27.8022  -10.6638  -16.1304 C   0  0  0  0  0  0  0  0  0  0  0  0
   27.8907   -9.5781  -16.9817 C   0  0  0  0  0  0  0  0  0  0  0  0
   26.8809   -8.6394  -17.0449 C   0  0  0  0  0  0  0  0  0  0  0  0
   25.7540   -8.7535  -16.2630 C   0  0  0  0  0  0  0  0  0  0  0  0
   24.6460   -7.7360  -16.3256 C   0  0  0  0  0  0  0  0  0  0  0  0
   23.3783   -8.3772  -16.8589 C   0  0  2  0  0  0  0  0  0  0  0  0
   23.7501   -8.9199  -18.1734 N   0  0  0  0  0  0  0  0  0  0  0  0
   22.2825   -7.4192  -17.0119 C   0  0  0  0  0  0  0  0  0  0  0  0
   22.2514   -6.6101  -17.9752 O   0  0  0  0  0  0  0  0  0  0  0  0
   25.6736   -9.8311  -15.4225 C   0  0  0  0  0  0  0  0  0  0  0  0
   26.6796  -10.7816  -15.3485 C   0  0  0  0  0  0  0  0  0  0  0  0
   21.2205   -7.3839  -16.0658 N   0  0  0  0  0  0  0  0  0  0  0  0
   20.0026   -6.6349  -16.2204 C   0  0  1  0  0  0  0  0  0  0  0  0
   18.7763   -7.2389  -15.6692 C   0  0  0  0  0  0  0  0  0  0  0  0
   18.4272   -8.6351  -15.9466 C   0  0  0  0  0  0  0  0  0  0  0  0
   17.2166   -9.1808  -15.3082 C   0  0  0  0  0  0  0  0  0  0  0  0
   16.0354   -8.8396  -15.5363 O   0  0  0  0  0  0  0  0  0  0  0  0
   20.1777   -5.2001  -15.9111 C   0  0  0  0  0  0  0  0  0  0  0  0
   21.0182   -4.7546  -15.0751 O   0  0  0  0  0  0  0  0  0  0  0  0
   17.3612  -10.1825  -14.3454 O   0  0  0  0  0  0  0  0  0  0  0  0
   19.1183   -2.5610  -18.7508 C   0  0  0  0  0  0  0  0  0  0  0  0
   19.9489   -2.1275  -17.5510 C   0  0  2  0  0  0  0  0  0  0  0  0
   21.3756   -2.5290  -17.8316 C   0  0  0  0  0  0  0  0  0  0  0  0
   19.4300   -2.8158  -16.2923 C   0  0  2  0  0  0  0  0  0  0  0  0
   19.3704   -4.2413  -16.5749 N   0  0  0  0  0  0  0  0  0  0  0  0
   18.0502   -2.2848  -16.0793 C   0  0  0  0  0  0  0  0  0  0  0  0
   17.8082   -1.1115  -15.3927 O   0  0  0  0  0  0  0  0  0  0  0  0
   17.0769   -2.9261  -16.5393 O   0  0  0  0  0  0  0  0  0  0  0  0
  2  1  1  0
  3  2  2  0
  4  3  1  0
  5 11  1  0
  5  4  2  0
  6  5  1  0
  7  6  1  0
  7  8  1  6
  9  7  1  0
  9 10  2  0
 11 12  2  0
 12  2  1  0
 13  9  1  0
 14 13  1  0
 14 15  1  1
 16 15  1  0
 16 17  1  0
 17 18  2  0
 19 14  1  0
 20 19  2  0
 21 17  1  0
 23 22  1  6
 23 25  1  0
 24 23  1  0
 25 27  1  0
 25 26  1  6
 26 19  1  0
 27 28  1  0
 29 27  2  0
M  END
$$$$
