YEV.pdb
     RDKit          3D

 29 29  0  0  1  0  0  0  0  0999 V2000
   30.3762  -15.8264  -19.5759 O   0  0  0  0  0  0  0  0  0  0  0  0
   29.3259  -15.8631  -18.6520 C   0  0  0  0  0  0  0  0  0  0  0  0
   29.1404  -16.9866  -17.8679 C   0  0  0  0  0  0  0  0  0  0  0  0
   28.1133  -17.0506  -16.9483 C   0  0  0  0  0  0  0  0  0  0  0  0
   27.2409  -15.9990  -16.7822 C   0  0  0  0  0  0  0  0  0  0  0  0
   26.1183  -16.0581  -15.7806 C   0  0  0  0  0  0  0  0  0  0  0  0
   25.0092  -16.9582  -16.2924 C   0  0  2  0  0  0  0  0  0  0  0  0
   24.1683  -16.0888  -17.1278 N   0  0  0  0  0  0  0  0  0  0  0  0
   24.2056  -17.5334  -15.2129 C   0  0  0  0  0  0  0  0  0  0  0  0
   23.4897  -16.8090  -14.4738 O   0  0  0  0  0  0  0  0  0  0  0  0
   27.4309  -14.8901  -17.5623 C   0  0  0  0  0  0  0  0  0  0  0  0
   28.4579  -14.8116  -18.4896 C   0  0  0  0  0  0  0  0  0  0  0  0
   24.2178  -18.9362  -14.9760 N   0  0  0  0  0  0  0  0  0  0  0  0
   23.6511  -19.5831  -13.8234 C   0  0  1  0  0  0  0  0  0  0  0  0
   22.4286  -20.3773  -14.0408 C   0  0  0  0  0  0  0  0  0  0  0  0
   21.2670  -19.8087  -14.7304 C   0  0  0  0  0  0  0  0  0  0  0  0
   20.7576  -20.5173  -15.9176 C   0  0  0  0  0  0  0  0  0  0  0  0
   20.4681  -20.0081  -17.0223 O   0  0  0  0  0  0  0  0  0  0  0  0
   24.6743  -20.2411  -12.9837 C   0  0  0  0  0  0  0  0  0  0  0  0
   25.5930  -20.9834  -13.4406 O   0  0  0  0  0  0  0  0  0  0  0  0
   20.5650  -21.8987  -15.8411 O   0  0  0  0  0  0  0  0  0  0  0  0
   26.4145  -20.5692   -8.3123 C   0  0  0  0  0  0  0  0  0  0  0  0
   25.3573  -20.0677   -9.2860 C   0  0  2  0  0  0  0  0  0  0  0  0
   24.0213  -20.5458   -8.7744 C   0  0  0  0  0  0  0  0  0  0  0  0
   25.6359  -20.6264  -10.6780 C   0  0  2  0  0  0  0  0  0  0  0  0
   24.6514  -20.0479  -11.5788 N   0  0  0  0  0  0  0  0  0  0  0  0
   25.4207  -22.1008  -10.5738 C   0  0  0  0  0  0  0  0  0  0  0  0
   26.4516  -22.9808  -10.3099 O   0  0  0  0  0  0  0  0  0  0  0  0
   24.2642  -22.5565  -10.7315 O   0  0  0  0  0  0  0  0  0  0  0  0
  2  1  1  0
  3  2  2  0
  4  3  1  0
  5 11  1  0
  5  4  2  0
  6  5  1  0
  7  6  1  0
  7  8  1  6
  9  7  1  0
  9 10  2  0
 11 12  2  0
 12  2  1  0
 13  9  1  0
 14 13  1  0
 14 15  1  6
 16 15  1  0
 16 17  1  0
 17 18  2  0
 19 14  1  0
 20 19  2  0
 21 17  1  0
 23 22  1  1
 23 25  1  0
 24 23  1  0
 25 27  1  0
 25 26  1  6
 26 19  1  0
 27 28  1  0
 29 27  2  0
M  END
$$$$
