YEV.pdb
     RDKit          3D

 29 29  0  0  1  0  0  0  0  0999 V2000
   16.4242  -14.4527  -14.8400 O   0  0  0  0  0  0  0  0  0  0  0  0
   17.2553  -15.4564  -14.3302 C   0  0  0  0  0  0  0  0  0  0  0  0
   18.4984  -15.6713  -14.8957 C   0  0  0  0  0  0  0  0  0  0  0  0
   19.3391  -16.6538  -14.4133 C   0  0  0  0  0  0  0  0  0  0  0  0
   18.9675  -17.4510  -13.3546 C   0  0  0  0  0  0  0  0  0  0  0  0
   19.8780  -18.5242  -12.8197 C   0  0  0  0  0  0  0  0  0  0  0  0
   19.9029  -19.7080  -13.7686 C   0  0  2  0  0  0  0  0  0  0  0  0
   18.8138  -20.5839  -13.3134 N   0  0  0  0  0  0  0  0  0  0  0  0
   21.1719  -20.4362  -13.7294 C   0  0  0  0  0  0  0  0  0  0  0  0
   21.4346  -21.2417  -12.7989 O   0  0  0  0  0  0  0  0  0  0  0  0
   17.7351  -17.2323  -12.8000 C   0  0  0  0  0  0  0  0  0  0  0  0
   16.8804  -16.2494  -13.2737 C   0  0  0  0  0  0  0  0  0  0  0  0
   22.1421  -20.2464  -14.7524 N   0  0  0  0  0  0  0  0  0  0  0  0
   23.4226  -20.8988  -14.8061 C   0  0  1  0  0  0  0  0  0  0  0  0
   23.8451  -21.4270  -16.1157 C   0  0  0  0  0  0  0  0  0  0  0  0
   25.1179  -22.1366  -16.2729 C   0  0  0  0  0  0  0  0  0  0  0  0
   26.3296  -21.3313  -16.5064 C   0  0  0  0  0  0  0  0  0  0  0  0
   26.4949  -20.4767  -17.4041 O   0  0  0  0  0  0  0  0  0  0  0  0
   24.4683  -20.1538  -14.0737 C   0  0  0  0  0  0  0  0  0  0  0  0
   24.7179  -18.9253  -14.2532 O   0  0  0  0  0  0  0  0  0  0  0  0
   27.4264  -21.5116  -15.6604 O   0  0  0  0  0  0  0  0  0  0  0  0
   26.8011  -22.3780  -11.2741 C   0  0  0  0  0  0  0  0  0  0  0  0
   26.4551  -20.9157  -11.0301 C   0  0  2  0  0  0  0  0  0  0  0  0
   25.1457  -20.8892  -10.2819 C   0  0  0  0  0  0  0  0  0  0  0  0
   26.3310  -20.1884  -12.3654 C   0  0  2  0  0  0  0  0  0  0  0  0
   25.2552  -20.8286  -13.1057 N   0  0  0  0  0  0  0  0  0  0  0  0
   27.6298  -20.4087  -13.0694 C   0  0  0  0  0  0  0  0  0  0  0  0
   28.7334  -19.6080  -12.8511 O   0  0  0  0  0  0  0  0  0  0  0  0
   27.7224  -21.3532  -13.8877 O   0  0  0  0  0  0  0  0  0  0  0  0
  2  1  1  0
  3  2  2  0
  4  3  1  0
  5 11  1  0
  5  4  2  0
  6  5  1  0
  7  6  1  0
  7  8  1  1
  9  7  1  0
  9 10  2  0
 11 12  2  0
 12  2  1  0
 13  9  1  0
 14 13  1  0
 14 15  1  6
 16 15  1  0
 16 17  1  0
 17 18  2  0
 19 14  1  0
 20 19  2  0
 21 17  1  0
 23 22  1  6
 23 25  1  0
 24 23  1  0
 25 27  1  0
 25 26  1  6
 26 19  1  0
 27 28  1  0
 29 27  2  0
M  END
$$$$
