YEV.pdb
     RDKit          3D

 29 29  0  0  1  0  0  0  0  0999 V2000
   22.6850  -21.6668   -7.0169 O   0  0  0  0  0  0  0  0  0  0  0  0
   23.3186  -21.2355   -8.1877 C   0  0  0  0  0  0  0  0  0  0  0  0
   22.5640  -20.9414   -9.3081 C   0  0  0  0  0  0  0  0  0  0  0  0
   23.1618  -20.5137  -10.4762 C   0  0  0  0  0  0  0  0  0  0  0  0
   24.5275  -20.3665  -10.5636 C   0  0  0  0  0  0  0  0  0  0  0  0
   25.1893  -19.8989  -11.8326 C   0  0  0  0  0  0  0  0  0  0  0  0
   24.7736  -20.7824  -12.9941 C   0  0  2  0  0  0  0  0  0  0  0  0
   25.5143  -22.0374  -12.8018 N   0  0  0  0  0  0  0  0  0  0  0  0
   25.1132  -20.2024  -14.2942 C   0  0  0  0  0  0  0  0  0  0  0  0
   26.2958  -20.2096  -14.7241 O   0  0  0  0  0  0  0  0  0  0  0  0
   25.2680  -20.6598   -9.4501 C   0  0  0  0  0  0  0  0  0  0  0  0
   24.6815  -21.0900   -8.2704 C   0  0  0  0  0  0  0  0  0  0  0  0
   24.1033  -19.6141  -15.1053 N   0  0  0  0  0  0  0  0  0  0  0  0
   24.3356  -18.9490  -16.3590 C   0  0  1  0  0  0  0  0  0  0  0  0
   23.7477  -19.5696  -17.5597 C   0  0  0  0  0  0  0  0  0  0  0  0
   24.0520  -19.0642  -18.9014 C   0  0  0  0  0  0  0  0  0  0  0  0
   23.4086  -19.7285  -20.0485 C   0  0  0  0  0  0  0  0  0  0  0  0
   22.5999  -20.6810  -20.0006 O   0  0  0  0  0  0  0  0  0  0  0  0
   24.1501  -17.4855  -16.2659 C   0  0  0  0  0  0  0  0  0  0  0  0
   23.1541  -16.9331  -15.7121 O   0  0  0  0  0  0  0  0  0  0  0  0
   23.7063  -19.2774  -21.3366 O   0  0  0  0  0  0  0  0  0  0  0  0
   27.4198  -15.1834  -17.4796 C   0  0  0  0  0  0  0  0  0  0  0  0
   26.4188  -14.6293  -16.4753 C   0  0  2  0  0  0  0  0  0  0  0  0
   26.8737  -15.0709  -15.1067 C   0  0  0  0  0  0  0  0  0  0  0  0
   25.0273  -15.1725  -16.7852 C   0  0  2  0  0  0  0  0  0  0  0  0
   25.1297  -16.6228  -16.8208 N   0  0  0  0  0  0  0  0  0  0  0  0
   24.6840  -14.6567  -18.1443 C   0  0  0  0  0  0  0  0  0  0  0  0
   24.2691  -13.3571  -18.3580 O   0  0  0  0  0  0  0  0  0  0  0  0
   24.7751  -15.4298  -19.1262 O   0  0  0  0  0  0  0  0  0  0  0  0
  2  1  1  0
  3  2  2  0
  4  3  1  0
  5 11  1  0
  5  4  2  0
  6  5  1  0
  7  6  1  0
  7  8  1  1
  9  7  1  0
  9 10  2  0
 11 12  2  0
 12  2  1  0
 13  9  1  0
 14 13  1  0
 14 15  1  6
 16 15  1  0
 16 17  1  0
 17 18  2  0
 19 14  1  0
 20 19  2  0
 21 17  1  0
 23 22  1  6
 23 25  1  0
 24 23  1  0
 25 27  1  0
 25 26  1  6
 26 19  1  0
 27 28  1  0
 29 27  2  0
M  END
$$$$
