YEV.pdb
     RDKit          3D

 29 29  0  0  1  0  0  0  0  0999 V2000
   12.6803  -15.5104  -17.5807 O   0  0  0  0  0  0  0  0  0  0  0  0
   13.7558  -14.6900  -17.2227 C   0  0  0  0  0  0  0  0  0  0  0  0
   13.7811  -13.3714  -17.6375 C   0  0  0  0  0  0  0  0  0  0  0  0
   14.8287  -12.5391  -17.2991 C   0  0  0  0  0  0  0  0  0  0  0  0
   15.8815  -12.9945  -16.5384 C   0  0  0  0  0  0  0  0  0  0  0  0
   17.0283  -12.0943  -16.1623 C   0  0  0  0  0  0  0  0  0  0  0  0
   18.0273  -12.0179  -17.3019 C   0  0  2  0  0  0  0  0  0  0  0  0
   18.6714  -13.3388  -17.3326 N   0  0  0  0  0  0  0  0  0  0  0  0
   19.0384  -10.9797  -17.0975 C   0  0  0  0  0  0  0  0  0  0  0  0
   20.0041  -11.1541  -16.3097 O   0  0  0  0  0  0  0  0  0  0  0  0
   15.8494  -14.3012  -16.1316 C   0  0  0  0  0  0  0  0  0  0  0  0
   14.8041  -15.1484  -16.4636 C   0  0  0  0  0  0  0  0  0  0  0  0
   18.9488   -9.7416  -17.7924 N   0  0  0  0  0  0  0  0  0  0  0  0
   19.8739   -8.6492  -17.6542 C   0  0  1  0  0  0  0  0  0  0  0  0
   19.6692   -7.4887  -18.5394 C   0  0  0  0  0  0  0  0  0  0  0  0
   18.7362   -6.4165  -18.1815 C   0  0  0  0  0  0  0  0  0  0  0  0
   19.1719   -5.0256  -18.3975 C   0  0  0  0  0  0  0  0  0  0  0  0
   20.2783   -4.6521  -18.8445 O   0  0  0  0  0  0  0  0  0  0  0  0
   20.1402   -8.3088  -16.2406 C   0  0  0  0  0  0  0  0  0  0  0  0
   19.2398   -8.2104  -15.3555 O   0  0  0  0  0  0  0  0  0  0  0  0
   18.2877   -3.9907  -18.0834 O   0  0  0  0  0  0  0  0  0  0  0  0
   22.2641  -10.2276  -14.1367 C   0  0  0  0  0  0  0  0  0  0  0  0
   22.8702   -8.8357  -14.0248 C   0  0  2  0  0  0  0  0  0  0  0  0
   23.2759   -8.6435  -12.5848 C   0  0  0  0  0  0  0  0  0  0  0  0
   21.8382   -7.7919  -14.4409 C   0  0  2  0  0  0  0  0  0  0  0  0
   21.4743   -8.0730  -15.8207 N   0  0  0  0  0  0  0  0  0  0  0  0
   22.5384   -6.4750  -14.3612 C   0  0  0  0  0  0  0  0  0  0  0  0
   22.8933   -5.7579  -15.4866 O   0  0  0  0  0  0  0  0  0  0  0  0
   22.8143   -6.0032  -13.2336 O   0  0  0  0  0  0  0  0  0  0  0  0
  2  1  1  0
  3  2  2  0
  4  3  1  0
  5 11  1  0
  5  4  2  0
  6  5  1  0
  7  6  1  0
  7  8  1  1
  9  7  1  0
  9 10  2  0
 11 12  2  0
 12  2  1  0
 13  9  1  0
 14 13  1  0
 14 15  1  6
 16 15  1  0
 16 17  1  0
 17 18  2  0
 19 14  1  0
 20 19  2  0
 21 17  1  0
 23 22  1  1
 23 25  1  0
 24 23  1  0
 25 27  1  0
 25 26  1  6
 26 19  1  0
 27 28  1  0
 29 27  2  0
M  END
$$$$
