YEV.pdb
     RDKit          3D

 29 29  0  0  1  0  0  0  0  0999 V2000
   15.3582  -17.9349  -18.0808 O   0  0  0  0  0  0  0  0  0  0  0  0
   16.3696  -16.9796  -17.9317 C   0  0  0  0  0  0  0  0  0  0  0  0
   17.6158  -17.3650  -17.4737 C   0  0  0  0  0  0  0  0  0  0  0  0
   18.6322  -16.4446  -17.3173 C   0  0  0  0  0  0  0  0  0  0  0  0
   18.4384  -15.1141  -17.6119 C   0  0  0  0  0  0  0  0  0  0  0  0
   19.5410  -14.1024  -17.4465 C   0  0  0  0  0  0  0  0  0  0  0  0
   19.9931  -13.5967  -18.8038 C   0  0  2  0  0  0  0  0  0  0  0  0
   20.6633  -14.7435  -19.4335 N   0  0  0  0  0  0  0  0  0  0  0  0
   20.9251  -12.4726  -18.7056 C   0  0  0  0  0  0  0  0  0  0  0  0
   22.1194  -12.5786  -19.0878 O   0  0  0  0  0  0  0  0  0  0  0  0
   17.2017  -14.7401  -18.0648 C   0  0  0  0  0  0  0  0  0  0  0  0
   16.1718  -15.6532  -18.2268 C   0  0  0  0  0  0  0  0  0  0  0  0
   20.4951  -11.2260  -18.1717 N   0  0  0  0  0  0  0  0  0  0  0  0
   21.2852  -10.0248  -18.1416 C   0  0  1  0  0  0  0  0  0  0  0  0
   22.0024   -9.6698  -19.3794 C   0  0  0  0  0  0  0  0  0  0  0  0
   22.8362   -8.4667  -19.4549 C   0  0  0  0  0  0  0  0  0  0  0  0
   23.4350   -8.1260  -20.7573 C   0  0  0  0  0  0  0  0  0  0  0  0
   23.3891   -8.8128  -21.8013 O   0  0  0  0  0  0  0  0  0  0  0  0
   20.5802   -8.8999  -17.4916 C   0  0  0  0  0  0  0  0  0  0  0  0
   19.5984   -8.2885  -18.0073 O   0  0  0  0  0  0  0  0  0  0  0  0
   24.1328   -6.9220  -20.8787 O   0  0  0  0  0  0  0  0  0  0  0  0
   21.0913   -8.7467  -13.4446 C   0  0  0  0  0  0  0  0  0  0  0  0
   19.8642   -8.1563  -14.1250 C   0  0  2  0  0  0  0  0  0  0  0  0
   18.9156   -9.2973  -14.3957 C   0  0  0  0  0  0  0  0  0  0  0  0
   20.2773   -7.4749  -15.4261 C   0  0  2  0  0  0  0  0  0  0  0  0
   21.0061   -8.4568  -16.2134 N   0  0  0  0  0  0  0  0  0  0  0  0
   21.1939   -6.3644  -15.0290 C   0  0  0  0  0  0  0  0  0  0  0  0
   20.7261   -5.1486  -14.5711 O   0  0  0  0  0  0  0  0  0  0  0  0
   22.4315   -6.5411  -15.1142 O   0  0  0  0  0  0  0  0  0  0  0  0
  2  1  1  0
  3  2  2  0
  4  3  1  0
  5 11  1  0
  5  4  2  0
  6  5  1  0
  7  6  1  0
  7  8  1  1
  9  7  1  0
  9 10  2  0
 11 12  2  0
 12  2  1  0
 13  9  1  0
 14 13  1  0
 14 15  1  6
 16 15  1  0
 16 17  1  0
 17 18  2  0
 19 14  1  0
 20 19  2  0
 21 17  1  0
 23 22  1  6
 23 25  1  0
 24 23  1  0
 25 27  1  0
 25 26  1  6
 26 19  1  0
 27 28  1  0
 29 27  2  0
M  END
$$$$
