YEV.pdb
     RDKit          3D

 29 29  0  0  1  0  0  0  0  0999 V2000
   13.9487  -19.3539  -11.8337 O   0  0  0  0  0  0  0  0  0  0  0  0
   15.2932  -19.7412  -11.8480 C   0  0  0  0  0  0  0  0  0  0  0  0
   16.2334  -18.9347  -12.4619 C   0  0  0  0  0  0  0  0  0  0  0  0
   17.5663  -19.2913  -12.4910 C   0  0  0  0  0  0  0  0  0  0  0  0
   18.0025  -20.4605  -11.9104 C   0  0  0  0  0  0  0  0  0  0  0  0
   19.4546  -20.8578  -11.9350 C   0  0  0  0  0  0  0  0  0  0  0  0
   19.7588  -21.6451  -13.1959 C   0  0  2  0  0  0  0  0  0  0  0  0
   19.1600  -22.9687  -12.9721 N   0  0  0  0  0  0  0  0  0  0  0  0
   21.1949  -21.7873  -13.4399 C   0  0  0  0  0  0  0  0  0  0  0  0
   21.8806  -22.6442  -12.8241 O   0  0  0  0  0  0  0  0  0  0  0  0
   17.0657  -21.2539  -11.3045 C   0  0  0  0  0  0  0  0  0  0  0  0
   15.7239  -20.9086  -11.2674 C   0  0  0  0  0  0  0  0  0  0  0  0
   21.8499  -20.9521  -14.3872 N   0  0  0  0  0  0  0  0  0  0  0  0
   23.2406  -21.0408  -14.7426 C   0  0  1  0  0  0  0  0  0  0  0  0
   23.5714  -20.9020  -16.1722 C   0  0  0  0  0  0  0  0  0  0  0  0
   24.9447  -21.0767  -16.6537 C   0  0  0  0  0  0  0  0  0  0  0  0
   25.7997  -19.8799  -16.7417 C   0  0  0  0  0  0  0  0  0  0  0  0
   25.5014  -18.7883  -17.2734 O   0  0  0  0  0  0  0  0  0  0  0  0
   24.1083  -20.2672  -13.8296 C   0  0  0  0  0  0  0  0  0  0  0  0
   23.9135  -19.0525  -13.5292 O   0  0  0  0  0  0  0  0  0  0  0  0
   27.0806  -19.9302  -16.1865 O   0  0  0  0  0  0  0  0  0  0  0  0
   26.6858  -22.2541  -11.2301 C   0  0  0  0  0  0  0  0  0  0  0  0
   26.3681  -20.7688  -11.1289 C   0  0  2  0  0  0  0  0  0  0  0  0
   25.0519  -20.6457  -10.4026 C   0  0  0  0  0  0  0  0  0  0  0  0
   26.2729  -20.1683  -12.5281 C   0  0  2  0  0  0  0  0  0  0  0  0
   25.2339  -20.8965  -13.2391 N   0  0  0  0  0  0  0  0  0  0  0  0
   27.5976  -20.4228  -13.1696 C   0  0  0  0  0  0  0  0  0  0  0  0
   27.7858  -21.4214  -14.1045 O   0  0  0  0  0  0  0  0  0  0  0  0
   28.5736  -19.7054  -12.8486 O   0  0  0  0  0  0  0  0  0  0  0  0
  2  1  1  0
  3  2  2  0
  4  3  1  0
  5 11  1  0
  5  4  2  0
  6  5  1  0
  7  6  1  0
  7  8  1  1
  9  7  1  0
  9 10  2  0
 11 12  2  0
 12  2  1  0
 13  9  1  0
 14 13  1  0
 14 15  1  6
 16 15  1  0
 16 17  1  0
 17 18  2  0
 19 14  1  0
 20 19  2  0
 21 17  1  0
 23 22  1  6
 23 25  1  0
 24 23  1  0
 25 27  1  0
 25 26  1  6
 26 19  1  0
 27 28  1  0
 29 27  2  0
M  END
$$$$
