YEV.pdb
     RDKit          3D

 29 29  0  0  1  0  0  0  0  0999 V2000
   22.6947  -28.2010  -19.6810 O   0  0  0  0  0  0  0  0  0  0  0  0
   23.1963  -27.0528  -19.0579 C   0  0  0  0  0  0  0  0  0  0  0  0
   24.4788  -27.0567  -18.5416 C   0  0  0  0  0  0  0  0  0  0  0  0
   24.9997  -25.9388  -17.9222 C   0  0  0  0  0  0  0  0  0  0  0  0
   24.2599  -24.7848  -17.7983 C   0  0  0  0  0  0  0  0  0  0  0  0
   24.8194  -23.5593  -17.1260 C   0  0  0  0  0  0  0  0  0  0  0  0
   25.1487  -23.8638  -15.6765 C   0  0  2  0  0  0  0  0  0  0  0  0
   23.9637  -24.5599  -15.1550 N   0  0  0  0  0  0  0  0  0  0  0  0
   25.3987  -22.6559  -14.8887 C   0  0  0  0  0  0  0  0  0  0  0  0
   26.2698  -21.8172  -15.2369 O   0  0  0  0  0  0  0  0  0  0  0  0
   22.9908  -24.7887  -18.3118 C   0  0  0  0  0  0  0  0  0  0  0  0
   22.4547  -25.9037  -18.9365 C   0  0  0  0  0  0  0  0  0  0  0  0
   24.6544  -22.4036  -13.7028 N   0  0  0  0  0  0  0  0  0  0  0  0
   24.7962  -21.2383  -12.8720 C   0  0  1  0  0  0  0  0  0  0  0  0
   23.7658  -20.1936  -13.0108 C   0  0  0  0  0  0  0  0  0  0  0  0
   23.7205  -19.3245  -14.1902 C   0  0  0  0  0  0  0  0  0  0  0  0
   22.5396  -19.4162  -15.0666 C   0  0  0  0  0  0  0  0  0  0  0  0
   22.3998  -18.8797  -16.1874 O   0  0  0  0  0  0  0  0  0  0  0  0
   25.1484  -21.5775  -11.4771 C   0  0  0  0  0  0  0  0  0  0  0  0
   24.6278  -22.5327  -10.8288 O   0  0  0  0  0  0  0  0  0  0  0  0
   21.4444  -20.1697  -14.6375 O   0  0  0  0  0  0  0  0  0  0  0  0
   28.8302  -20.6859   -9.8590 C   0  0  0  0  0  0  0  0  0  0  0  0
   27.6519  -20.1186   -9.0797 C   0  0  2  0  0  0  0  0  0  0  0  0
   28.0096  -20.1971   -7.6164 C   0  0  0  0  0  0  0  0  0  0  0  0
   26.3992  -20.9374   -9.3759 C   0  0  2  0  0  0  0  0  0  0  0  0
   26.1248  -20.8047  -10.7980 N   0  0  0  0  0  0  0  0  0  0  0  0
   25.3022  -20.2996   -8.5879 C   0  0  0  0  0  0  0  0  0  0  0  0
   24.9893  -20.6959   -7.3027 O   0  0  0  0  0  0  0  0  0  0  0  0
   24.6415  -19.3720   -9.1107 O   0  0  0  0  0  0  0  0  0  0  0  0
  2  1  1  0
  3  2  2  0
  4  3  1  0
  5 11  1  0
  5  4  2  0
  6  5  1  0
  7  6  1  0
  7  8  1  1
  9  7  1  0
  9 10  2  0
 11 12  2  0
 12  2  1  0
 13  9  1  0
 14 13  1  0
 14 15  1  1
 16 15  1  0
 16 17  1  0
 17 18  2  0
 19 14  1  0
 20 19  2  0
 21 17  1  0
 23 22  1  6
 23 25  1  0
 24 23  1  0
 25 27  1  0
 25 26  1  6
 26 19  1  0
 27 28  1  0
 29 27  2  0
M  END
$$$$
