YEV.pdb
     RDKit          3D

 29 29  0  0  1  0  0  0  0  0999 V2000
   19.8544  -20.9273  -15.5429 O   0  0  0  0  0  0  0  0  0  0  0  0
   20.4027  -19.6413  -15.6030 C   0  0  0  0  0  0  0  0  0  0  0  0
   21.6481  -19.3997  -15.0536 C   0  0  0  0  0  0  0  0  0  0  0  0
   22.2136  -18.1416  -15.0986 C   0  0  0  0  0  0  0  0  0  0  0  0
   21.5566  -17.0873  -15.6913 C   0  0  0  0  0  0  0  0  0  0  0  0
   22.1655  -15.7115  -15.7473 C   0  0  0  0  0  0  0  0  0  0  0  0
   22.5230  -15.3570  -17.1788 C   0  0  2  0  0  0  0  0  0  0  0  0
   23.6587  -16.2278  -17.5143 N   0  0  0  0  0  0  0  0  0  0  0  0
   22.9133  -13.9548  -17.3324 C   0  0  0  0  0  0  0  0  0  0  0  0
   24.0891  -13.5741  -17.0958 O   0  0  0  0  0  0  0  0  0  0  0  0
   20.3238  -17.3343  -16.2330 C   0  0  0  0  0  0  0  0  0  0  0  0
   19.7436  -18.5924  -16.1953 C   0  0  0  0  0  0  0  0  0  0  0  0
   21.9621  -12.9857  -17.7568 N   0  0  0  0  0  0  0  0  0  0  0  0
   22.2170  -11.5751  -17.8721 C   0  0  1  0  0  0  0  0  0  0  0  0
   22.1319  -10.9925  -19.2234 C   0  0  0  0  0  0  0  0  0  0  0  0
   22.7315  -11.6656  -20.3790 C   0  0  0  0  0  0  0  0  0  0  0  0
   22.5929  -11.0223  -21.6974 C   0  0  0  0  0  0  0  0  0  0  0  0
   23.5105  -10.7945  -22.5157 O   0  0  0  0  0  0  0  0  0  0  0  0
   21.5420  -10.7901  -16.8171 C   0  0  0  0  0  0  0  0  0  0  0  0
   20.3028  -10.8616  -16.5664 O   0  0  0  0  0  0  0  0  0  0  0  0
   21.3237  -10.6110  -22.1114 O   0  0  0  0  0  0  0  0  0  0  0  0
   24.0428   -9.4618  -13.8915 C   0  0  0  0  0  0  0  0  0  0  0  0
   22.5558   -9.6764  -13.6460 C   0  0  2  0  0  0  0  0  0  0  0  0
   22.3536  -11.1530  -13.4144 C   0  0  0  0  0  0  0  0  0  0  0  0
   21.7622   -9.2048  -14.8606 C   0  0  2  0  0  0  0  0  0  0  0  0
   22.3020   -9.8949  -16.0216 N   0  0  0  0  0  0  0  0  0  0  0  0
   22.0283   -7.7395  -14.9750 C   0  0  0  0  0  0  0  0  0  0  0  0
   21.3691   -6.8064  -14.1993 O   0  0  0  0  0  0  0  0  0  0  0  0
   22.8795   -7.3415  -15.8039 O   0  0  0  0  0  0  0  0  0  0  0  0
  2  1  1  0
  3  2  2  0
  4  3  1  0
  5 11  1  0
  5  4  2  0
  6  5  1  0
  7  6  1  0
  7  8  1  1
  9  7  1  0
  9 10  2  0
 11 12  2  0
 12  2  1  0
 13  9  1  0
 14 13  1  0
 14 15  1  6
 16 15  1  0
 16 17  1  0
 17 18  2  0
 19 14  1  0
 20 19  2  0
 21 17  1  0
 23 22  1  6
 23 25  1  0
 24 23  1  0
 25 27  1  0
 25 26  1  6
 26 19  1  0
 27 28  1  0
 29 27  2  0
M  END
$$$$
