YEV.pdb
     RDKit          3D

 29 29  0  0  1  0  0  0  0  0999 V2000
   31.8645  -22.0015   -9.9856 O   0  0  0  0  0  0  0  0  0  0  0  0
   30.6964  -21.4799  -10.5525 C   0  0  0  0  0  0  0  0  0  0  0  0
   29.4667  -21.9960  -10.1877 C   0  0  0  0  0  0  0  0  0  0  0  0
   28.2982  -21.5010  -10.7302 C   0  0  0  0  0  0  0  0  0  0  0  0
   28.3191  -20.4784  -11.6513 C   0  0  0  0  0  0  0  0  0  0  0  0
   27.0500  -19.9300  -12.2477 C   0  0  0  0  0  0  0  0  0  0  0  0
   26.7221  -20.6590  -13.5374 C   0  0  2  0  0  0  0  0  0  0  0  0
   27.7617  -20.2381  -14.4876 N   0  0  0  0  0  0  0  0  0  0  0  0
   25.4016  -20.3098  -14.0631 C   0  0  0  0  0  0  0  0  0  0  0  0
   25.1083  -19.1217  -14.3564 O   0  0  0  0  0  0  0  0  0  0  0  0
   29.5404  -19.9727  -12.0075 C   0  0  0  0  0  0  0  0  0  0  0  0
   30.7219  -20.4597  -11.4711 C   0  0  0  0  0  0  0  0  0  0  0  0
   24.4146  -21.3161  -14.2552 N   0  0  0  0  0  0  0  0  0  0  0  0
   23.0233  -21.0670  -14.5210 C   0  0  1  0  0  0  0  0  0  0  0  0
   22.5326  -21.4079  -15.8684 C   0  0  0  0  0  0  0  0  0  0  0  0
   21.1488  -21.1313  -16.2644 C   0  0  0  0  0  0  0  0  0  0  0  0
   20.7248  -21.5429  -17.6142 C   0  0  0  0  0  0  0  0  0  0  0  0
   21.4323  -22.1046  -18.4788 O   0  0  0  0  0  0  0  0  0  0  0  0
   22.1481  -21.5084  -13.4146 C   0  0  0  0  0  0  0  0  0  0  0  0
   22.2494  -22.6314  -12.8381 O   0  0  0  0  0  0  0  0  0  0  0  0
   19.4063  -21.2980  -18.0054 O   0  0  0  0  0  0  0  0  0  0  0  0
   21.4575  -19.4871  -10.3554 C   0  0  0  0  0  0  0  0  0  0  0  0
   20.0932  -19.7951  -10.9563 C   0  0  2  0  0  0  0  0  0  0  0  0
   19.1585  -20.0842   -9.8083 C   0  0  0  0  0  0  0  0  0  0  0  0
   20.2017  -21.0016  -11.8836 C   0  0  2  0  0  0  0  0  0  0  0  0
   21.1248  -20.6437  -12.9491 N   0  0  0  0  0  0  0  0  0  0  0  0
   18.8334  -21.2042  -12.4474 C   0  0  0  0  0  0  0  0  0  0  0  0
   18.3185  -20.3988  -13.4438 O   0  0  0  0  0  0  0  0  0  0  0  0
   18.1267  -22.1377  -12.0009 O   0  0  0  0  0  0  0  0  0  0  0  0
  2  1  1  0
  3  2  2  0
  4  3  1  0
  5 11  1  0
  5  4  2  0
  6  5  1  0
  7  6  1  0
  7  8  1  6
  9  7  1  0
  9 10  2  0
 11 12  2  0
 12  2  1  0
 13  9  1  0
 14 13  1  0
 14 15  1  6
 16 15  1  0
 16 17  1  0
 17 18  2  0
 19 14  1  0
 20 19  2  0
 21 17  1  0
 23 22  1  1
 23 25  1  0
 24 23  1  0
 25 27  1  0
 25 26  1  6
 26 19  1  0
 27 28  1  0
 29 27  2  0
M  END
$$$$
