YEV.pdb
     RDKit          3D

 29 29  0  0  1  0  0  0  0  0999 V2000
   29.8205  -11.5001  -16.0399 O   0  0  0  0  0  0  0  0  0  0  0  0
   28.6469  -10.7467  -16.1549 C   0  0  0  0  0  0  0  0  0  0  0  0
   27.6155  -10.9412  -15.2551 C   0  0  0  0  0  0  0  0  0  0  0  0
   26.4469  -10.2123  -15.3441 C   0  0  0  0  0  0  0  0  0  0  0  0
   26.2706   -9.2689  -16.3307 C   0  0  0  0  0  0  0  0  0  0  0  0
   25.0005   -8.4672  -16.4353 C   0  0  0  0  0  0  0  0  0  0  0  0
   23.8433   -9.3706  -16.8189 C   0  0  2  0  0  0  0  0  0  0  0  0
   24.2931  -10.0721  -18.0298 N   0  0  0  0  0  0  0  0  0  0  0  0
   22.6168   -8.6255  -17.1064 C   0  0  0  0  0  0  0  0  0  0  0  0
   22.3871   -8.1627  -18.2539 O   0  0  0  0  0  0  0  0  0  0  0  0
   27.2963   -9.0821  -17.2179 C   0  0  0  0  0  0  0  0  0  0  0  0
   28.4753   -9.8065  -17.1408 C   0  0  0  0  0  0  0  0  0  0  0  0
   21.6508   -8.4083  -16.0849 N   0  0  0  0  0  0  0  0  0  0  0  0
   20.3511   -7.8274  -16.2885 C   0  0  1  0  0  0  0  0  0  0  0  0
   19.1882   -8.6534  -15.9174 C   0  0  0  0  0  0  0  0  0  0  0  0
   19.0320  -10.0177  -16.4297 C   0  0  0  0  0  0  0  0  0  0  0  0
   17.8108  -10.7550  -16.0605 C   0  0  0  0  0  0  0  0  0  0  0  0
   16.8898  -10.3478  -15.3191 O   0  0  0  0  0  0  0  0  0  0  0  0
   20.2817   -6.4226  -15.8338 C   0  0  0  0  0  0  0  0  0  0  0  0
   20.8211   -5.9965  -14.7702 O   0  0  0  0  0  0  0  0  0  0  0  0
   17.6265  -12.0425  -16.5700 O   0  0  0  0  0  0  0  0  0  0  0  0
   20.8243   -3.5819  -18.3473 C   0  0  0  0  0  0  0  0  0  0  0  0
   19.5324   -3.2847  -17.5991 C   0  0  2  0  0  0  0  0  0  0  0  0
   19.4981   -1.7979  -17.3476 C   0  0  0  0  0  0  0  0  0  0  0  0
   19.5123   -4.0573  -16.2836 C   0  0  2  0  0  0  0  0  0  0  0  0
   19.5758   -5.4721  -16.6147 N   0  0  0  0  0  0  0  0  0  0  0  0
   18.1962   -3.7451  -15.6501 C   0  0  0  0  0  0  0  0  0  0  0  0
   18.0695   -2.8321  -14.6219 O   0  0  0  0  0  0  0  0  0  0  0  0
   17.1699   -4.3321  -16.0652 O   0  0  0  0  0  0  0  0  0  0  0  0
  2  1  1  0
  3  2  2  0
  4  3  1  0
  5 11  1  0
  5  4  2  0
  6  5  1  0
  7  6  1  0
  7  8  1  6
  9  7  1  0
  9 10  2  0
 11 12  2  0
 12  2  1  0
 13  9  1  0
 14 13  1  0
 14 15  1  1
 16 15  1  0
 16 17  1  0
 17 18  2  0
 19 14  1  0
 20 19  2  0
 21 17  1  0
 23 22  1  1
 23 25  1  0
 24 23  1  0
 25 27  1  0
 25 26  1  6
 26 19  1  0
 27 28  1  0
 29 27  2  0
M  END
$$$$
