YEV.pdb
     RDKit          3D

 29 29  0  0  1  0  0  0  0  0999 V2000
   20.2167  -21.9713  -14.3888 O   0  0  0  0  0  0  0  0  0  0  0  0
   20.6643  -20.6608  -14.5893 C   0  0  0  0  0  0  0  0  0  0  0  0
   19.7481  -19.6476  -14.8025 C   0  0  0  0  0  0  0  0  0  0  0  0
   20.1607  -18.3459  -15.0027 C   0  0  0  0  0  0  0  0  0  0  0  0
   21.4966  -18.0144  -14.9968 C   0  0  0  0  0  0  0  0  0  0  0  0
   21.9571  -16.5973  -15.2124 C   0  0  0  0  0  0  0  0  0  0  0  0
   21.7483  -16.1954  -16.6606 C   0  0  2  0  0  0  0  0  0  0  0  0
   22.7201  -16.9941  -17.4212 N   0  0  0  0  0  0  0  0  0  0  0  0
   21.9911  -14.7707  -16.8917 C   0  0  0  0  0  0  0  0  0  0  0  0
   23.1581  -14.3000  -16.9025 O   0  0  0  0  0  0  0  0  0  0  0  0
   22.3977  -19.0231  -14.7852 C   0  0  0  0  0  0  0  0  0  0  0  0
   21.9980  -20.3346  -14.5825 C   0  0  0  0  0  0  0  0  0  0  0  0
   20.9023  -13.8818  -17.1111 N   0  0  0  0  0  0  0  0  0  0  0  0
   21.0231  -12.4624  -17.3083 C   0  0  1  0  0  0  0  0  0  0  0  0
   20.1473  -11.8559  -18.3270 C   0  0  0  0  0  0  0  0  0  0  0  0
   18.6878  -11.9268  -18.2124 C   0  0  0  0  0  0  0  0  0  0  0  0
   17.9186  -10.6935  -18.4544 C   0  0  0  0  0  0  0  0  0  0  0  0
   16.9758  -10.2548  -17.7600 O   0  0  0  0  0  0  0  0  0  0  0  0
   21.0954  -11.7181  -16.0332 C   0  0  0  0  0  0  0  0  0  0  0  0
   20.3485  -11.9487  -15.0368 O   0  0  0  0  0  0  0  0  0  0  0  0
   18.2454   -9.9073  -19.5618 O   0  0  0  0  0  0  0  0  0  0  0  0
   24.5572   -9.5523  -15.4073 C   0  0  0  0  0  0  0  0  0  0  0  0
   23.6718  -10.0043  -14.2544 C   0  0  2  0  0  0  0  0  0  0  0  0
   24.0461  -11.4316  -13.9416 C   0  0  0  0  0  0  0  0  0  0  0  0
   22.2057   -9.9061  -14.6647 C   0  0  2  0  0  0  0  0  0  0  0  0
   22.0485  -10.6780  -15.8873 N   0  0  0  0  0  0  0  0  0  0  0  0
   21.9590   -8.4598  -14.9449 C   0  0  0  0  0  0  0  0  0  0  0  0
   21.6970   -7.5475  -13.9421 O   0  0  0  0  0  0  0  0  0  0  0  0
   21.9905   -8.0591  -16.1318 O   0  0  0  0  0  0  0  0  0  0  0  0
  2  1  1  0
  3  2  2  0
  4  3  1  0
  5 11  1  0
  5  4  2  0
  6  5  1  0
  7  6  1  0
  7  8  1  6
  9  7  1  0
  9 10  2  0
 11 12  2  0
 12  2  1  0
 13  9  1  0
 14 13  1  0
 14 15  1  1
 16 15  1  0
 16 17  1  0
 17 18  2  0
 19 14  1  0
 20 19  2  0
 21 17  1  0
 23 22  1  6
 23 25  1  0
 24 23  1  0
 25 27  1  0
 25 26  1  6
 26 19  1  0
 27 28  1  0
 29 27  2  0
M  END
$$$$
