PYE.pdb
     RDKit          3D

 29 30  0  0  1  0  0  0  0  0999 V2000
    6.5278  -14.9782   20.2186 N   0  0  0  0  0  0  0  0  0  0  0  0
    5.7761  -13.7797   20.4395 C   0  0  0  0  0  0  0  0  0  0  0  0
    6.6568  -12.6141   20.1007 C   0  0  0  0  0  0  0  0  0  0  0  0
    7.7518  -13.2647   19.2844 C   0  0  0  0  0  0  0  0  0  0  0  0
    7.8820  -14.6102   19.9371 C   0  0  1  0  0  0  0  0  0  0  0  0
    8.6608  -14.5395   21.2094 C   0  0  0  0  0  0  0  0  0  0  0  0
    9.8819  -14.3202   21.1789 O   0  0  0  0  0  0  0  0  0  0  0  0
   10.0602  -14.2228   29.9753 O   0  0  0  0  0  0  0  0  0  0  0  0
    9.4714  -14.3403   28.7222 C   0  0  0  0  0  0  0  0  0  0  0  0
    9.3026  -13.2300   27.9028 C   0  0  0  0  0  0  0  0  0  0  0  0
    8.7199  -13.3167   26.6507 C   0  0  0  0  0  0  0  0  0  0  0  0
    8.2822  -14.5336   26.1736 C   0  0  0  0  0  0  0  0  0  0  0  0
    7.6628  -14.6472   24.8522 C   0  0  0  0  0  0  0  0  0  0  0  0
    8.7131  -14.6866   23.7338 C   0  0  2  0  0  0  0  0  0  0  0  0
    8.0379  -14.7185   22.4757 N   0  0  0  0  0  0  0  0  0  0  0  0
    9.5921  -15.8682   23.9472 C   0  0  0  0  0  0  0  0  0  0  0  0
    9.1376  -17.0223   23.7466 O   0  0  0  0  0  0  0  0  0  0  0  0
    8.4422  -15.6474   26.9751 C   0  0  0  0  0  0  0  0  0  0  0  0
    9.0287  -15.5508   28.2314 C   0  0  0  0  0  0  0  0  0  0  0  0
   10.9396  -15.7504   24.3731 N   0  0  0  0  0  0  0  0  0  0  0  0
   11.8522  -16.9166   24.4393 C   0  0  1  0  0  0  0  0  0  0  0  0
   13.1545  -16.5882   23.7978 C   0  0  0  0  0  0  0  0  0  0  0  0
   14.1164  -17.7440   23.8348 C   0  0  0  0  0  0  0  0  0  0  0  0
   15.4303  -17.3618   23.2209 C   0  0  0  0  0  0  0  0  0  0  0  0
   16.2956  -16.8324   23.9559 O   0  0  0  0  0  0  0  0  0  0  0  0
   11.9212  -17.4003   25.8295 C   0  0  0  0  0  0  0  0  0  0  0  0
   11.5976  -16.6445   26.7665 O   0  0  0  0  0  0  0  0  0  0  0  0
   15.7100  -17.5723   21.8928 O   0  0  0  0  0  0  0  0  0  0  0  0
   12.3387  -18.6874   26.1607 O   0  0  0  0  0  0  0  0  0  0  0  0
  1  5  1  0
  2  3  1  0
  2  1  1  0
  3  4  1  0
  4  5  1  0
  5  6  1  1
  6  7  2  0
  8  9  1  0
  9 10  2  0
 10 11  1  0
 12 11  2  0
 12 13  1  0
 14 13  1  1
 14 15  1  0
 15  6  1  0
 16 14  1  0
 16 17  2  0
 18 12  1  0
 19  9  1  0
 19 18  2  0
 20 16  1  0
 21 20  1  0
 21 22  1  1
 22 23  1  0
 23 24  1  0
 24 25  2  0
 24 28  1  0
 26 21  1  0
 27 26  2  0
 29 26  1  0
M  END
$$$$
