PYE.pdb
     RDKit          3D

 29 30  0  0  1  0  0  0  0  0999 V2000
    7.7462  -15.4414   19.0265 N   0  0  0  0  0  0  0  0  0  0  0  0
    6.7921  -14.4251   18.6994 C   0  0  0  0  0  0  0  0  0  0  0  0
    7.5344  -13.1328   18.5314 C   0  0  0  0  0  0  0  0  0  0  0  0
    8.9624  -13.6019   18.3602 C   0  0  0  0  0  0  0  0  0  0  0  0
    9.0116  -14.8107   19.2488 C   0  0  1  0  0  0  0  0  0  0  0  0
    9.1442  -14.4388   20.6891 C   0  0  0  0  0  0  0  0  0  0  0  0
   10.2212  -13.9979   21.1202 O   0  0  0  0  0  0  0  0  0  0  0  0
    6.9896  -13.1396   29.1726 O   0  0  0  0  0  0  0  0  0  0  0  0
    6.9598  -13.3005   27.7926 C   0  0  0  0  0  0  0  0  0  0  0  0
    6.5055  -14.4822   27.2187 C   0  0  0  0  0  0  0  0  0  0  0  0
    6.4646  -14.6709   25.8483 C   0  0  0  0  0  0  0  0  0  0  0  0
    6.8826  -13.6690   24.9989 C   0  0  0  0  0  0  0  0  0  0  0  0
    6.8478  -13.8481   23.5466 C   0  0  0  0  0  0  0  0  0  0  0  0
    8.1555  -14.4523   23.0169 C   0  0  2  0  0  0  0  0  0  0  0  0
    8.0581  -14.5758   21.5974 N   0  0  0  0  0  0  0  0  0  0  0  0
    8.3869  -15.7563   23.6953 C   0  0  0  0  0  0  0  0  0  0  0  0
    7.8103  -16.7876   23.2678 O   0  0  0  0  0  0  0  0  0  0  0  0
    7.3372  -12.4878   25.5527 C   0  0  0  0  0  0  0  0  0  0  0  0
    7.3748  -12.3073   26.9302 C   0  0  0  0  0  0  0  0  0  0  0  0
    9.2410  -15.8913   24.8192 N   0  0  0  0  0  0  0  0  0  0  0  0
    9.9728  -17.1474   25.1093 C   0  0  1  0  0  0  0  0  0  0  0  0
   10.8031  -17.5414   23.9384 C   0  0  0  0  0  0  0  0  0  0  0  0
   12.1877  -16.9566   23.9982 C   0  0  0  0  0  0  0  0  0  0  0  0
   13.1195  -17.7033   23.0908 C   0  0  0  0  0  0  0  0  0  0  0  0
   14.1423  -18.2250   23.5917 O   0  0  0  0  0  0  0  0  0  0  0  0
   10.6880  -17.0076   26.3901 C   0  0  0  0  0  0  0  0  0  0  0  0
   10.9819  -15.8737   26.8162 O   0  0  0  0  0  0  0  0  0  0  0  0
   12.8879  -17.8308   21.7429 O   0  0  0  0  0  0  0  0  0  0  0  0
   11.0621  -18.1006   27.1685 O   0  0  0  0  0  0  0  0  0  0  0  0
  1  5  1  0
  2  3  1  0
  2  1  1  0
  3  4  1  0
  4  5  1  0
  5  6  1  1
  6  7  2  0
  8  9  1  0
  9 10  2  0
 10 11  1  0
 12 11  2  0
 12 13  1  0
 14 13  1  1
 14 15  1  0
 15  6  1  0
 16 14  1  0
 16 17  2  0
 18 12  1  0
 19  9  1  0
 19 18  2  0
 20 16  1  0
 21 20  1  0
 21 22  1  6
 22 23  1  0
 23 24  1  0
 24 25  2  0
 24 28  1  0
 26 21  1  0
 27 26  2  0
 29 26  1  0
M  END
$$$$
