PYE.pdb
     RDKit          3D

 29 30  0  0  1  0  0  0  0  0999 V2000
    7.9026  -15.5109   18.9141 N   0  0  0  0  0  0  0  0  0  0  0  0
    6.8845  -14.5489   18.6175 C   0  0  0  0  0  0  0  0  0  0  0  0
    7.5422  -13.2078   18.4840 C   0  0  0  0  0  0  0  0  0  0  0  0
    8.9965  -13.5798   18.2966 C   0  0  0  0  0  0  0  0  0  0  0  0
    9.1262  -14.8071   19.1511 C   0  0  1  0  0  0  0  0  0  0  0  0
    9.2405  -14.4675   20.6009 C   0  0  0  0  0  0  0  0  0  0  0  0
   10.2925  -13.9804   21.0437 O   0  0  0  0  0  0  0  0  0  0  0  0
    6.8584  -12.6916   28.9004 O   0  0  0  0  0  0  0  0  0  0  0  0
    6.8443  -13.0991   27.5719 C   0  0  0  0  0  0  0  0  0  0  0  0
    7.1979  -12.2250   26.5505 C   0  0  0  0  0  0  0  0  0  0  0  0
    7.1931  -12.6026   25.2192 C   0  0  0  0  0  0  0  0  0  0  0  0
    6.8293  -13.8839   24.8644 C   0  0  0  0  0  0  0  0  0  0  0  0
    6.8172  -14.3036   23.4622 C   0  0  0  0  0  0  0  0  0  0  0  0
    8.2371  -14.5214   22.9218 C   0  0  2  0  0  0  0  0  0  0  0  0
    8.1649  -14.6879   21.5052 N   0  0  0  0  0  0  0  0  0  0  0  0
    8.8341  -15.6971   23.6116 C   0  0  0  0  0  0  0  0  0  0  0  0
    8.3705  -16.8444   23.3932 O   0  0  0  0  0  0  0  0  0  0  0  0
    6.4749  -14.7656   25.8672 C   0  0  0  0  0  0  0  0  0  0  0  0
    6.4827  -14.3775   27.2016 C   0  0  0  0  0  0  0  0  0  0  0  0
    9.9186  -15.5811   24.5178 N   0  0  0  0  0  0  0  0  0  0  0  0
   10.5612  -16.7649   25.1368 C   0  0  1  0  0  0  0  0  0  0  0  0
   12.0392  -16.6908   24.9767 C   0  0  0  0  0  0  0  0  0  0  0  0
   12.4609  -16.7582   23.5345 C   0  0  0  0  0  0  0  0  0  0  0  0
   13.9496  -16.6266   23.4095 C   0  0  0  0  0  0  0  0  0  0  0  0
   14.4699  -16.8289   22.2880 O   0  0  0  0  0  0  0  0  0  0  0  0
   10.0683  -16.9182   26.5171 C   0  0  0  0  0  0  0  0  0  0  0  0
   10.2739  -17.9812   27.1350 O   0  0  0  0  0  0  0  0  0  0  0  0
   14.7503  -16.2948   24.4750 O   0  0  0  0  0  0  0  0  0  0  0  0
    9.3685  -15.9154   27.1841 O   0  0  0  0  0  0  0  0  0  0  0  0
  1  5  1  0
  2  3  1  0
  2  1  1  0
  3  4  1  0
  4  5  1  0
  5  6  1  1
  6  7  2  0
  8  9  1  0
  9 10  2  0
 10 11  1  0
 12 11  2  0
 12 13  1  0
 14 13  1  1
 14 15  1  0
 15  6  1  0
 16 14  1  0
 16 17  2  0
 18 12  1  0
 19  9  1  0
 19 18  2  0
 20 16  1  0
 21 20  1  0
 21 22  1  1
 22 23  1  0
 23 24  1  0
 24 25  2  0
 24 28  1  0
 26 21  1  0
 27 26  2  0
 29 26  1  0
M  END
$$$$
