PYE.pdb
     RDKit          3D

 29 30  0  0  1  0  0  0  0  0999 V2000
    7.0739  -15.0715   19.1349 N   0  0  0  0  0  0  0  0  0  0  0  0
    6.3097  -13.8669   19.0128 C   0  0  0  0  0  0  0  0  0  0  0  0
    7.2681  -12.7316   18.8087 C   0  0  0  0  0  0  0  0  0  0  0  0
    8.5349  -13.4497   18.3987 C   0  0  0  0  0  0  0  0  0  0  0  0
    8.4590  -14.7168   19.2000 C   0  0  1  0  0  0  0  0  0  0  0  0
    8.8586  -14.5014   20.6228 C   0  0  0  0  0  0  0  0  0  0  0  0
   10.0448  -14.2732   20.9071 O   0  0  0  0  0  0  0  0  0  0  0  0
    7.9853  -13.3227   29.3631 O   0  0  0  0  0  0  0  0  0  0  0  0
    7.7337  -13.4997   28.0080 C   0  0  0  0  0  0  0  0  0  0  0  0
    7.3883  -14.7468   27.5002 C   0  0  0  0  0  0  0  0  0  0  0  0
    7.1323  -14.9529   26.1560 C   0  0  0  0  0  0  0  0  0  0  0  0
    7.2151  -13.9030   25.2666 C   0  0  0  0  0  0  0  0  0  0  0  0
    6.9486  -14.0995   23.8408 C   0  0  0  0  0  0  0  0  0  0  0  0
    8.2228  -14.4720   23.0705 C   0  0  2  0  0  0  0  0  0  0  0  0
    7.9078  -14.5502   21.6797 N   0  0  0  0  0  0  0  0  0  0  0  0
    8.7518  -15.7517   23.6154 C   0  0  0  0  0  0  0  0  0  0  0  0
    8.1160  -16.8177   23.4202 O   0  0  0  0  0  0  0  0  0  0  0  0
    7.5572  -12.6566   25.7545 C   0  0  0  0  0  0  0  0  0  0  0  0
    7.8126  -12.4591   27.1063 C   0  0  0  0  0  0  0  0  0  0  0  0
    9.9588  -15.8251   24.3562 N   0  0  0  0  0  0  0  0  0  0  0  0
   10.5492  -17.1174   24.7788 C   0  0  1  0  0  0  0  0  0  0  0  0
   11.7841  -17.3993   23.9970 C   0  0  0  0  0  0  0  0  0  0  0  0
   12.9263  -16.5038   24.3920 C   0  0  0  0  0  0  0  0  0  0  0  0
   14.1140  -16.7355   23.5060 C   0  0  0  0  0  0  0  0  0  0  0  0
   15.1348  -16.0325   23.6883 O   0  0  0  0  0  0  0  0  0  0  0  0
   10.6972  -17.1269   26.2449 C   0  0  0  0  0  0  0  0  0  0  0  0
   10.5196  -16.0773   26.8934 O   0  0  0  0  0  0  0  0  0  0  0  0
   14.1162  -17.6840   22.5126 O   0  0  0  0  0  0  0  0  0  0  0  0
   11.0328  -18.2731   26.9619 O   0  0  0  0  0  0  0  0  0  0  0  0
  1  5  1  0
  2  3  1  0
  2  1  1  0
  3  4  1  0
  4  5  1  0
  5  6  1  1
  6  7  2  0
  8  9  1  0
  9 10  2  0
 10 11  1  0
 12 11  2  0
 12 13  1  0
 14 13  1  1
 14 15  1  0
 15  6  1  0
 16 14  1  0
 16 17  2  0
 18 12  1  0
 19  9  1  0
 19 18  2  0
 20 16  1  0
 21 20  1  0
 21 22  1  6
 22 23  1  0
 23 24  1  0
 24 25  2  0
 24 28  1  0
 26 21  1  0
 27 26  2  0
 29 26  1  0
M  END
$$$$
