PYE.pdb
     RDKit          3D

 29 30  0  0  1  0  0  0  0  0999 V2000
    7.2482  -15.0216   20.1470 N   0  0  0  0  0  0  0  0  0  0  0  0
    6.4004  -13.8927   20.3857 C   0  0  0  0  0  0  0  0  0  0  0  0
    7.2600  -12.6639   20.3935 C   0  0  0  0  0  0  0  0  0  0  0  0
    8.5246  -13.1515   19.7215 C   0  0  0  0  0  0  0  0  0  0  0  0
    8.6076  -14.5755   20.1891 C   0  0  1  0  0  0  0  0  0  0  0  0
    9.1282  -14.6742   21.5854 C   0  0  0  0  0  0  0  0  0  0  0  0
   10.2737  -14.2773   21.8508 O   0  0  0  0  0  0  0  0  0  0  0  0
    6.4112  -10.1865   26.9482 O   0  0  0  0  0  0  0  0  0  0  0  0
    6.6722  -11.4570   26.4495 C   0  0  0  0  0  0  0  0  0  0  0  0
    7.9201  -11.7801   25.9292 C   0  0  0  0  0  0  0  0  0  0  0  0
    8.2087  -13.0364   25.4258 C   0  0  0  0  0  0  0  0  0  0  0  0
    7.2442  -14.0212   25.4277 C   0  0  0  0  0  0  0  0  0  0  0  0
    7.5286  -15.3565   24.8997 C   0  0  0  0  0  0  0  0  0  0  0  0
    8.7675  -15.3574   23.9937 C   0  0  2  0  0  0  0  0  0  0  0  0
    8.3406  -15.2175   22.6380 N   0  0  0  0  0  0  0  0  0  0  0  0
    9.5309  -16.6123   24.2319 C   0  0  0  0  0  0  0  0  0  0  0  0
    8.9879  -17.7212   23.9989 O   0  0  0  0  0  0  0  0  0  0  0  0
    5.9983  -13.7170   25.9412 C   0  0  0  0  0  0  0  0  0  0  0  0
    5.7175  -12.4524   26.4447 C   0  0  0  0  0  0  0  0  0  0  0  0
   10.8634  -16.6149   24.7172 N   0  0  0  0  0  0  0  0  0  0  0  0
   11.6105  -17.8704   24.9680 C   0  0  1  0  0  0  0  0  0  0  0  0
   13.0147  -17.7375   24.4924 C   0  0  0  0  0  0  0  0  0  0  0  0
   13.6250  -16.4177   24.8773 C   0  0  0  0  0  0  0  0  0  0  0  0
   14.8605  -16.1482   24.0710 C   0  0  0  0  0  0  0  0  0  0  0  0
   14.7991  -15.2869   23.1634 O   0  0  0  0  0  0  0  0  0  0  0  0
   11.4410  -18.2625   26.3783 C   0  0  0  0  0  0  0  0  0  0  0  0
   10.8643  -17.4929   27.1714 O   0  0  0  0  0  0  0  0  0  0  0  0
   16.0433  -16.8094   24.2952 O   0  0  0  0  0  0  0  0  0  0  0  0
   11.9017  -19.4756   26.8847 O   0  0  0  0  0  0  0  0  0  0  0  0
  1  5  1  0
  2  3  1  0
  2  1  1  0
  3  4  1  0
  4  5  1  0
  5  6  1  1
  6  7  2  0
  8  9  1  0
  9 10  2  0
 10 11  1  0
 12 11  2  0
 12 13  1  0
 14 13  1  1
 14 15  1  0
 15  6  1  0
 16 14  1  0
 16 17  2  0
 18 12  1  0
 19  9  1  0
 19 18  2  0
 20 16  1  0
 21 20  1  0
 21 22  1  1
 22 23  1  0
 23 24  1  0
 24 25  2  0
 24 28  1  0
 26 21  1  0
 27 26  2  0
 29 26  1  0
M  END
$$$$
