PYE.pdb
     RDKit          3D

 29 30  0  0  1  0  0  0  0  0999 V2000
    6.7332  -14.7488   20.4068 N   0  0  0  0  0  0  0  0  0  0  0  0
    6.0414  -13.5325   20.7102 C   0  0  0  0  0  0  0  0  0  0  0  0
    6.9742  -12.3907   20.4359 C   0  0  0  0  0  0  0  0  0  0  0  0
    8.0308  -13.0395   19.5691 C   0  0  0  0  0  0  0  0  0  0  0  0
    8.1014  -14.4282   20.1348 C   0  0  1  0  0  0  0  0  0  0  0  0
    8.8921  -14.4748   21.4009 C   0  0  0  0  0  0  0  0  0  0  0  0
   10.1171  -14.2784   21.3757 O   0  0  0  0  0  0  0  0  0  0  0  0
   10.4935  -14.7604   30.1146 O   0  0  0  0  0  0  0  0  0  0  0  0
    9.8723  -14.7504   28.8716 C   0  0  0  0  0  0  0  0  0  0  0  0
    9.6258  -13.5567   28.2033 C   0  0  0  0  0  0  0  0  0  0  0  0
    9.0092  -13.5160   26.9651 C   0  0  0  0  0  0  0  0  0  0  0  0
    8.6150  -14.6845   26.3494 C   0  0  0  0  0  0  0  0  0  0  0  0
    7.9609  -14.6637   25.0401 C   0  0  0  0  0  0  0  0  0  0  0  0
    8.9675  -14.8639   23.8988 C   0  0  2  0  0  0  0  0  0  0  0  0
    8.2762  -14.7415   22.6550 N   0  0  0  0  0  0  0  0  0  0  0  0
    9.6215  -16.1899   24.0676 C   0  0  0  0  0  0  0  0  0  0  0  0
    9.0479  -17.2223   23.6387 O   0  0  0  0  0  0  0  0  0  0  0  0
    8.8523  -15.8800   26.9998 C   0  0  0  0  0  0  0  0  0  0  0  0
    9.4723  -15.9112   28.2432 C   0  0  0  0  0  0  0  0  0  0  0  0
   10.8813  -16.3448   24.6998 N   0  0  0  0  0  0  0  0  0  0  0  0
   11.7487  -17.5218   24.4554 C   0  0  1  0  0  0  0  0  0  0  0  0
   12.6716  -17.2538   23.3188 C   0  0  0  0  0  0  0  0  0  0  0  0
   13.6628  -18.3666   23.1141 C   0  0  0  0  0  0  0  0  0  0  0  0
   14.7008  -17.9747   22.1051 C   0  0  0  0  0  0  0  0  0  0  0  0
   15.7208  -17.3700   22.5091 O   0  0  0  0  0  0  0  0  0  0  0  0
   12.3845  -17.9272   25.7214 C   0  0  0  0  0  0  0  0  0  0  0  0
   13.0428  -18.9844   25.7746 O   0  0  0  0  0  0  0  0  0  0  0  0
   14.5682  -18.2554   20.7671 O   0  0  0  0  0  0  0  0  0  0  0  0
   12.2871  -17.1746   26.8896 O   0  0  0  0  0  0  0  0  0  0  0  0
  1  5  1  0
  2  3  1  0
  2  1  1  0
  3  4  1  0
  4  5  1  0
  5  6  1  1
  6  7  2  0
  8  9  1  0
  9 10  2  0
 10 11  1  0
 12 11  2  0
 12 13  1  0
 14 13  1  1
 14 15  1  0
 15  6  1  0
 16 14  1  0
 16 17  2  0
 18 12  1  0
 19  9  1  0
 19 18  2  0
 20 16  1  0
 21 20  1  0
 21 22  1  6
 22 23  1  0
 23 24  1  0
 24 25  2  0
 24 28  1  0
 26 21  1  0
 27 26  2  0
 29 26  1  0
M  END
$$$$
