PYE.pdb
     RDKit          3D

 29 30  0  0  1  0  0  0  0  0999 V2000
    7.0152  -14.9773   19.1348 N   0  0  0  0  0  0  0  0  0  0  0  0
    6.2731  -13.7563   19.0431 C   0  0  0  0  0  0  0  0  0  0  0  0
    7.2532  -12.6312   18.8929 C   0  0  0  0  0  0  0  0  0  0  0  0
    8.5142  -13.3563   18.4774 C   0  0  0  0  0  0  0  0  0  0  0  0
    8.4048  -14.6487   19.2330 C   0  0  1  0  0  0  0  0  0  0  0  0
    8.7857  -14.4893   20.6682 C   0  0  0  0  0  0  0  0  0  0  0  0
    9.9814  -14.3975   20.9870 O   0  0  0  0  0  0  0  0  0  0  0  0
    7.7441  -13.2479   29.3854 O   0  0  0  0  0  0  0  0  0  0  0  0
    7.5103  -13.4524   28.0310 C   0  0  0  0  0  0  0  0  0  0  0  0
    7.6406  -12.4136   27.1164 C   0  0  0  0  0  0  0  0  0  0  0  0
    7.4143  -12.5877   25.7624 C   0  0  0  0  0  0  0  0  0  0  0  0
    7.0457  -13.8234   25.2754 C   0  0  0  0  0  0  0  0  0  0  0  0
    6.8013  -14.0289   23.8469 C   0  0  0  0  0  0  0  0  0  0  0  0
    8.0884  -14.4000   23.0977 C   0  0  2  0  0  0  0  0  0  0  0  0
    7.8059  -14.4385   21.6982 N   0  0  0  0  0  0  0  0  0  0  0  0
    8.5865  -15.7005   23.6220 C   0  0  0  0  0  0  0  0  0  0  0  0
    7.9592  -16.7564   23.3567 O   0  0  0  0  0  0  0  0  0  0  0  0
    6.9116  -14.8670   26.1707 C   0  0  0  0  0  0  0  0  0  0  0  0
    7.1410  -14.6828   27.5290 C   0  0  0  0  0  0  0  0  0  0  0  0
    9.7544  -15.8052   24.4195 N   0  0  0  0  0  0  0  0  0  0  0  0
   10.3914  -17.1094   24.7206 C   0  0  1  0  0  0  0  0  0  0  0  0
   11.5827  -17.3133   23.8517 C   0  0  0  0  0  0  0  0  0  0  0  0
   12.3161  -18.5853   24.1782 C   0  0  0  0  0  0  0  0  0  0  0  0
   13.4946  -18.7676   23.2687 C   0  0  0  0  0  0  0  0  0  0  0  0
   14.4704  -17.9933   23.4015 O   0  0  0  0  0  0  0  0  0  0  0  0
   10.6258  -17.2114   26.1718 C   0  0  0  0  0  0  0  0  0  0  0  0
   10.8589  -18.3227   26.6863 O   0  0  0  0  0  0  0  0  0  0  0  0
   13.5357  -19.7464   22.3061 O   0  0  0  0  0  0  0  0  0  0  0  0
   10.6004  -16.1064   27.0196 O   0  0  0  0  0  0  0  0  0  0  0  0
  1  5  1  0
  2  3  1  0
  2  1  1  0
  3  4  1  0
  4  5  1  0
  5  6  1  1
  6  7  2  0
  8  9  1  0
  9 10  2  0
 10 11  1  0
 12 11  2  0
 12 13  1  0
 14 13  1  1
 14 15  1  0
 15  6  1  0
 16 14  1  0
 16 17  2  0
 18 12  1  0
 19  9  1  0
 19 18  2  0
 20 16  1  0
 21 20  1  0
 21 22  1  6
 22 23  1  0
 23 24  1  0
 24 25  2  0
 24 28  1  0
 26 21  1  0
 27 26  2  0
 29 26  1  0
M  END
$$$$
