PYE.pdb
     RDKit          3D

 29 30  0  0  1  0  0  0  0  0999 V2000
    7.2591  -15.3096   18.7510 N   0  0  0  0  0  0  0  0  0  0  0  0
    6.3093  -14.2433   18.6462 C   0  0  0  0  0  0  0  0  0  0  0  0
    7.0713  -12.9588   18.5105 C   0  0  0  0  0  0  0  0  0  0  0  0
    8.4493  -13.4422   18.1159 C   0  0  0  0  0  0  0  0  0  0  0  0
    8.5643  -14.7345   18.8709 C   0  0  1  0  0  0  0  0  0  0  0  0
    8.8871  -14.5113   20.3119 C   0  0  0  0  0  0  0  0  0  0  0  0
   10.0499  -14.2454   20.6540 O   0  0  0  0  0  0  0  0  0  0  0  0
    7.3586  -12.9253   28.9000 O   0  0  0  0  0  0  0  0  0  0  0  0
    7.2127  -13.2374   27.5539 C   0  0  0  0  0  0  0  0  0  0  0  0
    7.0131  -14.5494   27.1400 C   0  0  0  0  0  0  0  0  0  0  0  0
    6.8646  -14.8899   25.8070 C   0  0  0  0  0  0  0  0  0  0  0  0
    6.9119  -13.9147   24.8340 C   0  0  0  0  0  0  0  0  0  0  0  0
    6.7574  -14.2535   23.4184 C   0  0  0  0  0  0  0  0  0  0  0  0
    8.1151  -14.4003   22.7178 C   0  0  2  0  0  0  0  0  0  0  0  0
    7.8883  -14.5952   21.3212 N   0  0  0  0  0  0  0  0  0  0  0  0
    8.8554  -15.5284   23.3453 C   0  0  0  0  0  0  0  0  0  0  0  0
    8.4685  -16.7078   23.1500 O   0  0  0  0  0  0  0  0  0  0  0  0
    7.1095  -12.6054   25.2279 C   0  0  0  0  0  0  0  0  0  0  0  0
    7.2577  -12.2728   26.5691 C   0  0  0  0  0  0  0  0  0  0  0  0
    9.9948  -15.3312   24.1661 N   0  0  0  0  0  0  0  0  0  0  0  0
   10.8466  -16.4565   24.6193 C   0  0  1  0  0  0  0  0  0  0  0  0
   12.2640  -16.2173   24.2329 C   0  0  0  0  0  0  0  0  0  0  0  0
   13.1798  -17.3066   24.7198 C   0  0  0  0  0  0  0  0  0  0  0  0
   14.5961  -17.0332   24.3093 C   0  0  0  0  0  0  0  0  0  0  0  0
   14.9680  -15.8400   24.2240 O   0  0  0  0  0  0  0  0  0  0  0  0
   10.6010  -16.7052   26.0508 C   0  0  0  0  0  0  0  0  0  0  0  0
   10.1319  -15.7988   26.7666 O   0  0  0  0  0  0  0  0  0  0  0  0
   15.4871  -18.0397   24.0273 O   0  0  0  0  0  0  0  0  0  0  0  0
   10.8712  -17.9276   26.6615 O   0  0  0  0  0  0  0  0  0  0  0  0
  1  5  1  0
  2  3  1  0
  2  1  1  0
  3  4  1  0
  4  5  1  0
  5  6  1  1
  6  7  2  0
  8  9  1  0
  9 10  2  0
 10 11  1  0
 12 11  2  0
 12 13  1  0
 14 13  1  1
 14 15  1  0
 15  6  1  0
 16 14  1  0
 16 17  2  0
 18 12  1  0
 19  9  1  0
 19 18  2  0
 20 16  1  0
 21 20  1  0
 21 22  1  1
 22 23  1  0
 23 24  1  0
 24 25  2  0
 24 28  1  0
 26 21  1  0
 27 26  2  0
 29 26  1  0
M  END
$$$$
