PYE.pdb
     RDKit          3D

 29 30  0  0  1  0  0  0  0  0999 V2000
    7.8493  -16.3033   18.9498 N   0  0  0  0  0  0  0  0  0  0  0  0
    7.1003  -15.2141   18.3996 C   0  0  0  0  0  0  0  0  0  0  0  0
    8.0628  -14.1119   18.0713 C   0  0  0  0  0  0  0  0  0  0  0  0
    9.3919  -14.8344   18.0723 C   0  0  0  0  0  0  0  0  0  0  0  0
    9.1968  -15.8632   19.1478 C   0  0  1  0  0  0  0  0  0  0  0  0
    9.3406  -15.2762   20.5135 C   0  0  0  0  0  0  0  0  0  0  0  0
   10.3736  -14.6604   20.8194 O   0  0  0  0  0  0  0  0  0  0  0  0
    7.0486  -12.0058   28.3704 O   0  0  0  0  0  0  0  0  0  0  0  0
    7.0268  -12.6555   27.1422 C   0  0  0  0  0  0  0  0  0  0  0  0
    7.4973  -12.0310   25.9928 C   0  0  0  0  0  0  0  0  0  0  0  0
    7.4880  -12.6531   24.7567 C   0  0  0  0  0  0  0  0  0  0  0  0
    7.0010  -13.9365   24.6312 C   0  0  0  0  0  0  0  0  0  0  0  0
    6.9819  -14.6123   23.3330 C   0  0  0  0  0  0  0  0  0  0  0  0
    8.3993  -14.9262   22.8348 C   0  0  2  0  0  0  0  0  0  0  0  0
    8.3148  -15.4023   21.4909 N   0  0  0  0  0  0  0  0  0  0  0  0
    9.0213  -15.9130   23.7587 C   0  0  0  0  0  0  0  0  0  0  0  0
    8.6159  -17.1024   23.7586 O   0  0  0  0  0  0  0  0  0  0  0  0
    6.5295  -14.5718   25.7637 C   0  0  0  0  0  0  0  0  0  0  0  0
    6.5427  -13.9392   27.0010 C   0  0  0  0  0  0  0  0  0  0  0  0
   10.0663  -15.5682   24.6530 N   0  0  0  0  0  0  0  0  0  0  0  0
   10.7653  -16.5809   25.4797 C   0  0  1  0  0  0  0  0  0  0  0  0
   12.2300  -16.5365   25.2186 C   0  0  0  0  0  0  0  0  0  0  0  0
   12.5870  -17.1031   23.8718 C   0  0  0  0  0  0  0  0  0  0  0  0
   14.0662  -17.0242   23.6372 C   0  0  0  0  0  0  0  0  0  0  0  0
   14.8318  -17.2520   24.6022 O   0  0  0  0  0  0  0  0  0  0  0  0
   10.3554  -16.4257   26.8866 C   0  0  0  0  0  0  0  0  0  0  0  0
   10.7896  -17.2130   27.7500 O   0  0  0  0  0  0  0  0  0  0  0  0
   14.6004  -16.7133   22.4106 O   0  0  0  0  0  0  0  0  0  0  0  0
    9.4881  -15.4227   27.3135 O   0  0  0  0  0  0  0  0  0  0  0  0
  1  5  1  0
  2  3  1  0
  2  1  1  0
  3  4  1  0
  4  5  1  0
  5  6  1  1
  6  7  2  0
  8  9  1  0
  9 10  2  0
 10 11  1  0
 12 11  2  0
 12 13  1  0
 14 13  1  1
 14 15  1  0
 15  6  1  0
 16 14  1  0
 16 17  2  0
 18 12  1  0
 19  9  1  0
 19 18  2  0
 20 16  1  0
 21 20  1  0
 21 22  1  1
 22 23  1  0
 23 24  1  0
 24 25  2  0
 24 28  1  0
 26 21  1  0
 27 26  2  0
 29 26  1  0
M  END
$$$$
