PYE.pdb
     RDKit          3D

 29 30  0  0  1  0  0  0  0  0999 V2000
    7.7654  -15.4120   18.8242 N   0  0  0  0  0  0  0  0  0  0  0  0
    6.8236  -14.3538   18.6161 C   0  0  0  0  0  0  0  0  0  0  0  0
    7.5901  -13.0696   18.5046 C   0  0  0  0  0  0  0  0  0  0  0  0
    8.9961  -13.5567   18.2321 C   0  0  0  0  0  0  0  0  0  0  0  0
    9.0556  -14.8272   19.0295 C   0  0  1  0  0  0  0  0  0  0  0  0
    9.2643  -14.5629   20.4845 C   0  0  0  0  0  0  0  0  0  0  0  0
   10.4009  -14.3086   20.9128 O   0  0  0  0  0  0  0  0  0  0  0  0
    7.3347  -12.6717   28.9001 O   0  0  0  0  0  0  0  0  0  0  0  0
    7.2413  -12.9937   27.5515 C   0  0  0  0  0  0  0  0  0  0  0  0
    7.5987  -12.0770   26.5695 C   0  0  0  0  0  0  0  0  0  0  0  0
    7.5161  -12.3696   25.2195 C   0  0  0  0  0  0  0  0  0  0  0  0
    7.0672  -13.6053   24.8052 C   0  0  0  0  0  0  0  0  0  0  0  0
    6.9720  -13.9349   23.3822 C   0  0  0  0  0  0  0  0  0  0  0  0
    8.3114  -14.4346   22.8237 C   0  0  2  0  0  0  0  0  0  0  0  0
    8.1846  -14.5937   21.4101 N   0  0  0  0  0  0  0  0  0  0  0  0
    8.6740  -15.7005   23.5169 C   0  0  0  0  0  0  0  0  0  0  0  0
    8.1542  -16.7818   23.1435 O   0  0  0  0  0  0  0  0  0  0  0  0
    6.7078  -14.5283   25.7682 C   0  0  0  0  0  0  0  0  0  0  0  0
    6.7941  -14.2256   27.1218 C   0  0  0  0  0  0  0  0  0  0  0  0
    9.5931  -15.7439   24.5959 N   0  0  0  0  0  0  0  0  0  0  0  0
   10.2455  -17.0028   25.0281 C   0  0  1  0  0  0  0  0  0  0  0  0
   11.4112  -17.3050   24.1532 C   0  0  0  0  0  0  0  0  0  0  0  0
   12.1072  -18.5782   24.5496 C   0  0  0  0  0  0  0  0  0  0  0  0
   13.2877  -18.8372   23.6616 C   0  0  0  0  0  0  0  0  0  0  0  0
   14.2410  -18.0250   23.6919 O   0  0  0  0  0  0  0  0  0  0  0  0
   10.5240  -16.9337   26.4734 C   0  0  0  0  0  0  0  0  0  0  0  0
   10.5233  -15.8304   27.0536 O   0  0  0  0  0  0  0  0  0  0  0  0
   13.3542  -19.9252   22.8259 O   0  0  0  0  0  0  0  0  0  0  0  0
   10.7944  -18.0619   27.2445 O   0  0  0  0  0  0  0  0  0  0  0  0
  1  5  1  0
  2  3  1  0
  2  1  1  0
  3  4  1  0
  4  5  1  0
  5  6  1  1
  6  7  2  0
  8  9  1  0
  9 10  2  0
 10 11  1  0
 12 11  2  0
 12 13  1  0
 14 13  1  1
 14 15  1  0
 15  6  1  0
 16 14  1  0
 16 17  2  0
 18 12  1  0
 19  9  1  0
 19 18  2  0
 20 16  1  0
 21 20  1  0
 21 22  1  6
 22 23  1  0
 23 24  1  0
 24 25  2  0
 24 28  1  0
 26 21  1  0
 27 26  2  0
 29 26  1  0
M  END
$$$$
