YNF.pdb
     RDKit          3D

 32 33  0  0  1  0  0  0  0  0999 V2000
   30.6249  -22.2966  -19.4134 O   0  0  0  0  0  0  0  0  0  0  0  0
   29.8995  -21.7395  -18.3622 C   0  0  0  0  0  0  0  0  0  0  0  0
   29.5297  -20.4123  -18.4241 C   0  0  0  0  0  0  0  0  0  0  0  0
   28.8176  -19.8381  -17.4072 C   0  0  0  0  0  0  0  0  0  0  0  0
   28.4409  -20.5593  -16.2816 C   0  0  0  0  0  0  0  0  0  0  0  0
   27.6716  -19.9061  -15.1981 C   0  0  0  0  0  0  0  0  0  0  0  0
   26.2535  -20.4814  -15.1334 C   0  0  2  0  0  0  0  0  0  0  0  0
   25.5520  -20.1451  -16.3371 N   0  0  0  0  0  0  0  0  0  0  0  0
   25.5649  -19.9843  -13.9140 C   0  0  0  0  0  0  0  0  0  0  0  0
   24.6689  -19.1128  -14.0508 O   0  0  0  0  0  0  0  0  0  0  0  0
   28.8221  -21.8788  -16.2458 C   0  0  0  0  0  0  0  0  0  0  0  0
   29.5400  -22.4822  -17.2569 C   0  0  0  0  0  0  0  0  0  0  0  0
   22.7488  -20.1933   -9.6148 N   0  0  0  0  0  0  0  0  0  0  0  0
   22.6612  -21.0025  -10.7654 C   0  0  0  0  0  0  0  0  0  0  0  0
   21.5859  -21.6654  -10.9090 O   0  0  0  0  0  0  0  0  0  0  0  0
   23.6740  -21.1583  -11.8064 C   0  0  0  0  0  0  0  0  0  0  0  0
   24.9449  -20.3917  -11.5368 C   0  0  2  0  0  0  0  0  0  0  0  0
   25.8825  -20.4576  -12.6099 N   0  0  0  0  0  0  0  0  0  0  0  0
   25.5587  -20.7978  -10.2329 C   0  0  0  0  0  0  0  0  0  0  0  0
   25.4061  -21.9681   -9.7838 O   0  0  0  0  0  0  0  0  0  0  0  0
   26.3229  -19.9043   -9.4599 N   0  0  0  0  0  0  0  0  0  0  0  0
   26.8537  -20.2135   -8.1444 C   0  0  1  0  0  0  0  0  0  0  0  0
   27.6435  -19.0863   -7.5731 C   0  0  0  0  0  0  0  0  0  0  0  0
   28.1725  -19.3205   -6.2103 C   0  0  0  0  0  0  0  0  0  0  0  0
   29.3077  -20.0569   -5.9664 C   0  0  0  0  0  0  0  0  0  0  0  0
   29.7424  -20.2309   -4.6775 C   0  0  0  0  0  0  0  0  0  0  0  0
   29.0989  -19.7027   -3.5869 C   0  0  0  0  0  0  0  0  0  0  0  0
   27.9592  -18.9657   -3.8551 C   0  0  0  0  0  0  0  0  0  0  0  0
   27.5061  -18.7786   -5.1370 C   0  0  0  0  0  0  0  0  0  0  0  0
   25.7936  -20.6726   -7.2199 C   0  0  0  0  0  0  0  0  0  0  0  0
   24.6954  -20.0169   -7.2347 O   0  0  0  0  0  0  0  0  0  0  0  0
   25.9029  -21.7334   -6.3647 O   0  0  0  0  0  0  0  0  0  0  0  0
  2  3  2  0
  2  1  1  0
  4  3  1  0
  5  4  2  0
  6  5  1  0
  7  6  1  0
  7  8  1  6
  9  7  1  0
  9 10  2  0
 11  5  1  0
 11 12  2  0
 12  2  1  0
 13 14  1  0
 14 16  1  0
 14 15  2  0
 17 16  1  6
 17 18  1  0
 18  9  1  0
 19 21  1  0
 19 17  1  0
 20 19  2  0
 22 21  1  0
 22 30  1  0
 22 23  1  1
 24 23  1  0
 25 24  2  0
 26 25  1  0
 27 26  2  0
 27 28  1  0
 28 29  2  0
 29 24  1  0
 30 32  1  0
 31 30  2  0
M  END
$$$$
