YNF.pdb
     RDKit          3D

 32 33  0  0  1  0  0  0  0  0999 V2000
   31.4823  -18.9101  -18.8236 O   0  0  0  0  0  0  0  0  0  0  0  0
   30.6160  -18.8306  -17.7352 C   0  0  0  0  0  0  0  0  0  0  0  0
   30.1987  -17.5932  -17.2917 C   0  0  0  0  0  0  0  0  0  0  0  0
   29.3487  -17.4841  -16.2257 C   0  0  0  0  0  0  0  0  0  0  0  0
   28.8751  -18.6024  -15.5519 C   0  0  0  0  0  0  0  0  0  0  0  0
   27.9573  -18.4485  -14.4002 C   0  0  0  0  0  0  0  0  0  0  0  0
   26.5721  -19.0018  -14.7484 C   0  0  2  0  0  0  0  0  0  0  0  0
   26.0110  -18.2312  -15.8186 N   0  0  0  0  0  0  0  0  0  0  0  0
   25.7129  -19.0043  -13.5359 C   0  0  0  0  0  0  0  0  0  0  0  0
   24.6680  -18.3049  -13.5463 O   0  0  0  0  0  0  0  0  0  0  0  0
   29.3065  -19.8222  -16.0143 C   0  0  0  0  0  0  0  0  0  0  0  0
   30.1628  -19.9604  -17.0865 C   0  0  0  0  0  0  0  0  0  0  0  0
   23.0144  -20.3920   -9.3071 N   0  0  0  0  0  0  0  0  0  0  0  0
   22.7539  -20.4800  -10.6894 C   0  0  0  0  0  0  0  0  0  0  0  0
   21.5523  -20.7278  -11.0228 O   0  0  0  0  0  0  0  0  0  0  0  0
   23.7175  -20.3169  -11.7749 C   0  0  0  0  0  0  0  0  0  0  0  0
   25.0991  -19.9315  -11.3077 C   0  0  2  0  0  0  0  0  0  0  0  0
   26.0302  -19.7648  -12.3755 N   0  0  0  0  0  0  0  0  0  0  0  0
   25.6062  -20.8817  -10.2676 C   0  0  0  0  0  0  0  0  0  0  0  0
   25.8866  -22.0763  -10.5658 O   0  0  0  0  0  0  0  0  0  0  0  0
   25.7901  -20.4905   -8.9286 N   0  0  0  0  0  0  0  0  0  0  0  0
   26.3207  -21.3576   -7.8921 C   0  0  1  0  0  0  0  0  0  0  0  0
   27.7704  -21.1195   -7.6418 C   0  0  0  0  0  0  0  0  0  0  0  0
   28.0679  -20.1332   -6.5785 C   0  0  0  0  0  0  0  0  0  0  0  0
   27.8248  -18.7872   -6.7193 C   0  0  0  0  0  0  0  0  0  0  0  0
   28.1226  -17.9304   -5.6909 C   0  0  0  0  0  0  0  0  0  0  0  0
   28.6623  -18.3423   -4.4986 C   0  0  0  0  0  0  0  0  0  0  0  0
   28.8990  -19.7000   -4.3784 C   0  0  0  0  0  0  0  0  0  0  0  0
   28.6086  -20.5757   -5.3946 C   0  0  0  0  0  0  0  0  0  0  0  0
   25.5226  -21.2772   -6.6487 C   0  0  0  0  0  0  0  0  0  0  0  0
   25.9178  -21.9937   -5.6655 O   0  0  0  0  0  0  0  0  0  0  0  0
   24.4100  -20.5015   -6.4788 O   0  0  0  0  0  0  0  0  0  0  0  0
  2  3  2  0
  2  1  1  0
  4  3  1  0
  5  4  2  0
  6  5  1  0
  7  6  1  0
  7  8  1  6
  9  7  1  0
  9 10  2  0
 11  5  1  0
 11 12  2  0
 12  2  1  0
 13 14  1  0
 14 16  1  0
 14 15  2  0
 17 16  1  6
 17 18  1  0
 18  9  1  0
 19 21  1  0
 19 17  1  0
 20 19  2  0
 22 21  1  0
 22 30  1  0
 22 23  1  1
 24 23  1  0
 25 24  2  0
 26 25  1  0
 27 26  2  0
 27 28  1  0
 28 29  2  0
 29 24  1  0
 30 32  1  0
 31 30  2  0
M  END
$$$$
