YNF.pdb
     RDKit          3D

 32 33  0  0  1  0  0  0  0  0999 V2000
   20.0852  -18.6903  -20.0309 O   0  0  0  0  0  0  0  0  0  0  0  0
   21.1451  -18.3834  -19.1802 C   0  0  0  0  0  0  0  0  0  0  0  0
   21.4874  -17.0632  -18.9750 C   0  0  0  0  0  0  0  0  0  0  0  0
   22.5233  -16.7317  -18.1457 C   0  0  0  0  0  0  0  0  0  0  0  0
   23.2662  -17.6997  -17.4823 C   0  0  0  0  0  0  0  0  0  0  0  0
   24.3826  -17.3061  -16.5928 C   0  0  0  0  0  0  0  0  0  0  0  0
   25.4872  -18.3667  -16.6271 C   0  0  2  0  0  0  0  0  0  0  0  0
   26.0771  -18.3924  -17.9330 N   0  0  0  0  0  0  0  0  0  0  0  0
   24.9303  -19.6851  -16.2267 C   0  0  0  0  0  0  0  0  0  0  0  0
   25.4738  -20.7232  -16.6827 O   0  0  0  0  0  0  0  0  0  0  0  0
   22.9040  -19.0063  -17.7045 C   0  0  0  0  0  0  0  0  0  0  0  0
   21.8643  -19.3679  -18.5353 C   0  0  0  0  0  0  0  0  0  0  0  0
   24.9158  -24.1188  -13.7491 N   0  0  0  0  0  0  0  0  0  0  0  0
   24.4869  -22.8620  -13.2771 C   0  0  0  0  0  0  0  0  0  0  0  0
   23.8214  -22.8627  -12.1938 O   0  0  0  0  0  0  0  0  0  0  0  0
   24.7265  -21.5632  -13.9011 C   0  0  0  0  0  0  0  0  0  0  0  0
   23.5369  -21.0231  -14.6553 C   0  0  2  0  0  0  0  0  0  0  0  0
   23.8140  -19.8100  -15.3528 N   0  0  0  0  0  0  0  0  0  0  0  0
   22.3407  -20.8944  -13.7641 C   0  0  0  0  0  0  0  0  0  0  0  0
   22.4148  -20.2681  -12.6700 O   0  0  0  0  0  0  0  0  0  0  0  0
   21.0969  -21.4588  -14.1018 N   0  0  0  0  0  0  0  0  0  0  0  0
   19.8860  -21.2896  -13.3189 C   0  0  1  0  0  0  0  0  0  0  0  0
   18.9979  -20.2282  -13.8717 C   0  0  0  0  0  0  0  0  0  0  0  0
   19.4631  -18.8414  -13.6431 C   0  0  0  0  0  0  0  0  0  0  0  0
   19.0147  -18.0659  -12.6000 C   0  0  0  0  0  0  0  0  0  0  0  0
   19.4915  -16.7893  -12.4468 C   0  0  0  0  0  0  0  0  0  0  0  0
   20.4121  -16.2219  -13.2912 C   0  0  0  0  0  0  0  0  0  0  0  0
   20.8495  -17.0194  -14.3336 C   0  0  0  0  0  0  0  0  0  0  0  0
   20.3860  -18.2997  -14.5060 C   0  0  0  0  0  0  0  0  0  0  0  0
   19.1699  -22.5711  -13.1336 C   0  0  0  0  0  0  0  0  0  0  0  0
   19.5262  -23.5420  -13.8864 O   0  0  0  0  0  0  0  0  0  0  0  0
   18.1701  -22.7878  -12.2269 O   0  0  0  0  0  0  0  0  0  0  0  0
  2  3  2  0
  2  1  1  0
  4  3  1  0
  5  4  2  0
  6  5  1  0
  7  6  1  0
  7  8  1  6
  9  7  1  0
  9 10  2  0
 11  5  1  0
 11 12  2  0
 12  2  1  0
 13 14  1  0
 14 16  1  0
 14 15  2  0
 17 16  1  1
 17 18  1  0
 18  9  1  0
 19 21  1  0
 19 17  1  0
 20 19  2  0
 22 21  1  0
 22 30  1  0
 22 23  1  6
 24 23  1  0
 25 24  2  0
 26 25  1  0
 27 26  2  0
 27 28  1  0
 28 29  2  0
 29 24  1  0
 30 32  1  0
 31 30  2  0
M  END
$$$$
