YNF.pdb
     RDKit          3D

 32 33  0  0  1  0  0  0  0  0999 V2000
   18.2253  -16.7725  -13.5414 O   0  0  0  0  0  0  0  0  0  0  0  0
   19.4116  -17.4994  -13.6172 C   0  0  0  0  0  0  0  0  0  0  0  0
   20.3138  -17.2189  -14.6219 C   0  0  0  0  0  0  0  0  0  0  0  0
   21.4864  -17.9160  -14.7215 C   0  0  0  0  0  0  0  0  0  0  0  0
   21.8146  -18.9248  -13.8251 C   0  0  0  0  0  0  0  0  0  0  0  0
   23.0919  -19.6611  -13.9629 C   0  0  0  0  0  0  0  0  0  0  0  0
   23.0774  -20.5147  -15.2345 C   0  0  2  0  0  0  0  0  0  0  0  0
   22.0177  -21.4756  -15.1464 N   0  0  0  0  0  0  0  0  0  0  0  0
   24.4074  -21.1485  -15.4292 C   0  0  0  0  0  0  0  0  0  0  0  0
   24.7489  -22.0675  -14.6418 O   0  0  0  0  0  0  0  0  0  0  0  0
   20.8984  -19.1835  -12.8345 C   0  0  0  0  0  0  0  0  0  0  0  0
   19.7092  -18.4960  -12.7113 C   0  0  0  0  0  0  0  0  0  0  0  0
   26.4207  -21.6113  -20.0208 N   0  0  0  0  0  0  0  0  0  0  0  0
   26.9062  -21.8929  -18.7280 C   0  0  0  0  0  0  0  0  0  0  0  0
   26.9278  -23.1176  -18.3873 O   0  0  0  0  0  0  0  0  0  0  0  0
   27.3853  -20.9274  -17.7423 C   0  0  0  0  0  0  0  0  0  0  0  0
   26.6957  -21.0320  -16.4047 C   0  0  2  0  0  0  0  0  0  0  0  0
   25.2978  -20.7541  -16.4670 N   0  0  0  0  0  0  0  0  0  0  0  0
   27.3855  -20.1977  -15.3704 C   0  0  0  0  0  0  0  0  0  0  0  0
   27.3075  -18.9376  -15.3997 O   0  0  0  0  0  0  0  0  0  0  0  0
   28.1422  -20.7736  -14.3333 N   0  0  0  0  0  0  0  0  0  0  0  0
   28.8098  -20.0127  -13.2926 C   0  0  1  0  0  0  0  0  0  0  0  0
   27.8766  -19.1043  -12.5681 C   0  0  0  0  0  0  0  0  0  0  0  0
   26.9405  -19.7793  -11.6406 C   0  0  0  0  0  0  0  0  0  0  0  0
   27.1960  -19.9257  -10.2975 C   0  0  0  0  0  0  0  0  0  0  0  0
   26.2818  -20.5598   -9.4959 C   0  0  0  0  0  0  0  0  0  0  0  0
   25.0969  -21.0712   -9.9617 C   0  0  0  0  0  0  0  0  0  0  0  0
   24.8603  -20.9131  -11.3156 C   0  0  0  0  0  0  0  0  0  0  0  0
   25.7610  -20.2818  -12.1365 C   0  0  0  0  0  0  0  0  0  0  0  0
   29.5594  -20.8907  -12.3671 C   0  0  0  0  0  0  0  0  0  0  0  0
   30.2033  -20.3144  -11.4240 O   0  0  0  0  0  0  0  0  0  0  0  0
   29.6104  -22.2544  -12.4470 O   0  0  0  0  0  0  0  0  0  0  0  0
  2  3  2  0
  2  1  1  0
  4  3  1  0
  5  4  2  0
  6  5  1  0
  7  6  1  0
  7  8  1  1
  9  7  1  0
  9 10  2  0
 11  5  1  0
 11 12  2  0
 12  2  1  0
 13 14  1  0
 14 16  1  0
 14 15  2  0
 17 16  1  6
 17 18  1  0
 18  9  1  0
 19 21  1  0
 19 17  1  0
 20 19  2  0
 22 21  1  0
 22 30  1  0
 22 23  1  1
 24 23  1  0
 25 24  2  0
 26 25  1  0
 27 26  2  0
 27 28  1  0
 28 29  2  0
 29 24  1  0
 30 32  1  0
 31 30  2  0
M  END
$$$$
