YNF.pdb
     RDKit          3D

 32 33  0  0  1  0  0  0  0  0999 V2000
   21.9517    1.5094  -18.4919 O   0  0  0  0  0  0  0  0  0  0  0  0
   21.8381    0.2595  -17.8866 C   0  0  0  0  0  0  0  0  0  0  0  0
   22.6199   -0.0343  -16.7891 C   0  0  0  0  0  0  0  0  0  0  0  0
   22.5303   -1.2528  -16.1745 C   0  0  0  0  0  0  0  0  0  0  0  0
   21.6578   -2.2353  -16.6245 C   0  0  0  0  0  0  0  0  0  0  0  0
   21.5871   -3.5446  -15.9367 C   0  0  0  0  0  0  0  0  0  0  0  0
   20.1562   -3.8190  -15.4643 C   0  0  2  0  0  0  0  0  0  0  0  0
   19.8369   -2.9321  -14.3847 N   0  0  0  0  0  0  0  0  0  0  0  0
   20.0173   -5.2497  -15.0873 C   0  0  0  0  0  0  0  0  0  0  0  0
   19.9365   -5.5375  -13.8660 O   0  0  0  0  0  0  0  0  0  0  0  0
   20.8911   -1.9164  -17.7191 C   0  0  0  0  0  0  0  0  0  0  0  0
   20.9616   -0.6959  -18.3574 C   0  0  0  0  0  0  0  0  0  0  0  0
   19.1223  -10.3754  -14.8317 N   0  0  0  0  0  0  0  0  0  0  0  0
   18.2298   -9.5820  -15.5803 C   0  0  0  0  0  0  0  0  0  0  0  0
   17.1023  -10.1031  -15.8514 O   0  0  0  0  0  0  0  0  0  0  0  0
   18.4649   -8.2281  -16.0755 C   0  0  0  0  0  0  0  0  0  0  0  0
   19.8042   -7.6598  -15.6770 C   0  0  2  0  0  0  0  0  0  0  0  0
   19.9725   -6.2940  -16.0532 N   0  0  0  0  0  0  0  0  0  0  0  0
   20.9276   -8.5177  -16.1707 C   0  0  0  0  0  0  0  0  0  0  0  0
   21.4139   -8.3449  -17.3232 O   0  0  0  0  0  0  0  0  0  0  0  0
   21.4838   -9.5417  -15.3822 N   0  0  0  0  0  0  0  0  0  0  0  0
   22.5579  -10.4149  -15.8202 C   0  0  1  0  0  0  0  0  0  0  0  0
   23.7104  -10.4127  -14.8754 C   0  0  0  0  0  0  0  0  0  0  0  0
   24.8076  -11.3432  -15.2249 C   0  0  0  0  0  0  0  0  0  0  0  0
   24.8206  -12.6620  -14.8360 C   0  0  0  0  0  0  0  0  0  0  0  0
   25.8689  -13.4683  -15.1984 C   0  0  0  0  0  0  0  0  0  0  0  0
   26.9341  -13.0306  -15.9442 C   0  0  0  0  0  0  0  0  0  0  0  0
   26.9009  -11.7008  -16.3244 C   0  0  0  0  0  0  0  0  0  0  0  0
   25.8619  -10.8757  -15.9731 C   0  0  0  0  0  0  0  0  0  0  0  0
   22.0717  -11.7843  -16.0988 C   0  0  0  0  0  0  0  0  0  0  0  0
   21.1359  -12.2254  -15.3464 O   0  0  0  0  0  0  0  0  0  0  0  0
   22.5440  -12.5987  -17.0898 O   0  0  0  0  0  0  0  0  0  0  0  0
  2  3  2  0
  2  1  1  0
  4  3  1  0
  5  4  2  0
  6  5  1  0
  7  6  1  0
  7  8  1  1
  9  7  1  0
  9 10  2  0
 11  5  1  0
 11 12  2  0
 12  2  1  0
 13 14  1  0
 14 16  1  0
 14 15  2  0
 17 16  1  6
 17 18  1  0
 18  9  1  0
 19 21  1  0
 19 17  1  0
 20 19  2  0
 22 21  1  0
 22 30  1  0
 22 23  1  1
 24 23  1  0
 25 24  2  0
 26 25  1  0
 27 26  2  0
 27 28  1  0
 28 29  2  0
 29 24  1  0
 30 32  1  0
 31 30  2  0
M  END
$$$$
