YNF.pdb
     RDKit          3D

 32 33  0  0  1  0  0  0  0  0999 V2000
   26.1051  -15.4419  -20.6054 O   0  0  0  0  0  0  0  0  0  0  0  0
   25.4665  -16.3487  -19.7620 C   0  0  0  0  0  0  0  0  0  0  0  0
   25.0213  -17.5498  -20.2730 C   0  0  0  0  0  0  0  0  0  0  0  0
   24.3909  -18.4594  -19.4693 C   0  0  0  0  0  0  0  0  0  0  0  0
   24.1746  -18.2147  -18.1193 C   0  0  0  0  0  0  0  0  0  0  0  0
   23.4871  -19.2205  -17.2779 C   0  0  0  0  0  0  0  0  0  0  0  0
   24.4856  -19.8891  -16.3280 C   0  0  2  0  0  0  0  0  0  0  0  0
   25.4806  -20.5771  -17.0966 N   0  0  0  0  0  0  0  0  0  0  0  0
   23.7632  -20.7903  -15.3929 C   0  0  0  0  0  0  0  0  0  0  0  0
   23.3588  -21.8984  -15.8285 O   0  0  0  0  0  0  0  0  0  0  0  0
   24.6280  -17.0109  -17.6365 C   0  0  0  0  0  0  0  0  0  0  0  0
   25.2665  -16.0765  -18.4247 C   0  0  0  0  0  0  0  0  0  0  0  0
   25.4417  -22.0233  -12.3627 N   0  0  0  0  0  0  0  0  0  0  0  0
   24.4838  -21.5681  -11.4345 C   0  0  0  0  0  0  0  0  0  0  0  0
   24.8555  -21.5147  -10.2198 O   0  0  0  0  0  0  0  0  0  0  0  0
   23.1132  -21.1530  -11.7218 C   0  0  0  0  0  0  0  0  0  0  0  0
   22.7347  -21.2736  -13.1771 C   0  0  2  0  0  0  0  0  0  0  0  0
   23.5170  -20.4442  -14.0346 N   0  0  0  0  0  0  0  0  0  0  0  0
   21.2668  -21.0564  -13.3770 C   0  0  0  0  0  0  0  0  0  0  0  0
   20.7471  -19.9243  -13.1693 O   0  0  0  0  0  0  0  0  0  0  0  0
   20.4121  -22.0913  -13.7994 N   0  0  0  0  0  0  0  0  0  0  0  0
   18.9663  -21.9778  -13.8654 C   0  0  1  0  0  0  0  0  0  0  0  0
   18.3810  -22.8203  -14.9465 C   0  0  0  0  0  0  0  0  0  0  0  0
   16.9026  -22.8007  -15.0238 C   0  0  0  0  0  0  0  0  0  0  0  0
   16.1096  -23.7301  -14.3930 C   0  0  0  0  0  0  0  0  0  0  0  0
   14.7452  -23.6493  -14.5054 C   0  0  0  0  0  0  0  0  0  0  0  0
   14.1045  -22.6739  -15.2268 C   0  0  0  0  0  0  0  0  0  0  0  0
   14.9213  -21.7495  -15.8533 C   0  0  0  0  0  0  0  0  0  0  0  0
   16.2888  -21.8111  -15.7544 C   0  0  0  0  0  0  0  0  0  0  0  0
   18.3354  -22.2420  -12.5533 C   0  0  0  0  0  0  0  0  0  0  0  0
   17.4276  -21.4229  -12.1775 O   0  0  0  0  0  0  0  0  0  0  0  0
   18.6487  -23.2851  -11.7274 O   0  0  0  0  0  0  0  0  0  0  0  0
  2  3  2  0
  2  1  1  0
  4  3  1  0
  5  4  2  0
  6  5  1  0
  7  6  1  0
  7  8  1  6
  9  7  1  0
  9 10  2  0
 11  5  1  0
 11 12  2  0
 12  2  1  0
 13 14  1  0
 14 16  1  0
 14 15  2  0
 17 16  1  1
 17 18  1  0
 18  9  1  0
 19 21  1  0
 19 17  1  0
 20 19  2  0
 22 21  1  0
 22 30  1  0
 22 23  1  6
 24 23  1  0
 25 24  2  0
 26 25  1  0
 27 26  2  0
 27 28  1  0
 28 29  2  0
 29 24  1  0
 30 32  1  0
 31 30  2  0
M  END
$$$$
