YNF.pdb
     RDKit          3D

 32 33  0  0  1  0  0  0  0  0999 V2000
   19.2231  -16.7376  -17.5528 O   0  0  0  0  0  0  0  0  0  0  0  0
   20.1449  -17.4837  -16.8213 C   0  0  0  0  0  0  0  0  0  0  0  0
   19.8671  -18.8022  -16.5276 C   0  0  0  0  0  0  0  0  0  0  0  0
   20.7528  -19.5591  -15.8111 C   0  0  0  0  0  0  0  0  0  0  0  0
   21.9562  -19.0378  -15.3539 C   0  0  0  0  0  0  0  0  0  0  0  0
   22.8918  -19.8846  -14.5792 C   0  0  0  0  0  0  0  0  0  0  0  0
   24.1226  -20.2255  -15.4247 C   0  0  2  0  0  0  0  0  0  0  0  0
   23.7314  -21.0835  -16.5040 N   0  0  0  0  0  0  0  0  0  0  0  0
   25.1706  -20.8332  -14.5640 C   0  0  0  0  0  0  0  0  0  0  0  0
   25.0345  -22.0351  -14.2206 O   0  0  0  0  0  0  0  0  0  0  0  0
   22.2076  -17.7222  -15.6604 C   0  0  0  0  0  0  0  0  0  0  0  0
   21.3322  -16.9371  -16.3809 C   0  0  0  0  0  0  0  0  0  0  0  0
   29.1444  -21.5161  -11.1407 N   0  0  0  0  0  0  0  0  0  0  0  0
   29.4220  -20.4784  -12.0532 C   0  0  0  0  0  0  0  0  0  0  0  0
   30.5794  -19.9573  -11.9807 O   0  0  0  0  0  0  0  0  0  0  0  0
   28.5212  -19.9411  -13.0698 C   0  0  0  0  0  0  0  0  0  0  0  0
   27.1665  -20.6044  -13.0925 C   0  0  2  0  0  0  0  0  0  0  0  0
   26.3116  -20.1073  -14.1207 N   0  0  0  0  0  0  0  0  0  0  0  0
   26.5119  -20.5503  -11.7470 C   0  0  0  0  0  0  0  0  0  0  0  0
   25.6812  -19.6407  -11.4690 O   0  0  0  0  0  0  0  0  0  0  0  0
   26.7903  -21.4984  -10.7453 N   0  0  0  0  0  0  0  0  0  0  0  0
   26.1302  -21.5357   -9.4528 C   0  0  1  0  0  0  0  0  0  0  0  0
   27.0222  -22.0515   -8.3761 C   0  0  0  0  0  0  0  0  0  0  0  0
   27.8536  -21.0253   -7.7072 C   0  0  0  0  0  0  0  0  0  0  0  0
   29.2270  -21.0827   -7.6736 C   0  0  0  0  0  0  0  0  0  0  0  0
   29.9343  -20.0947   -7.0380 C   0  0  0  0  0  0  0  0  0  0  0  0
   29.3425  -19.0241   -6.4168 C   0  0  0  0  0  0  0  0  0  0  0  0
   27.9603  -18.9862   -6.4625 C   0  0  0  0  0  0  0  0  0  0  0  0
   27.2322  -19.9639   -7.0931 C   0  0  0  0  0  0  0  0  0  0  0  0
   25.5377  -20.2259   -9.1022 C   0  0  0  0  0  0  0  0  0  0  0  0
   26.2703  -19.1948   -9.2932 O   0  0  0  0  0  0  0  0  0  0  0  0
   24.2807  -20.0427   -8.5975 O   0  0  0  0  0  0  0  0  0  0  0  0
  2  3  2  0
  2  1  1  0
  4  3  1  0
  5  4  2  0
  6  5  1  0
  7  6  1  0
  7  8  1  6
  9  7  1  0
  9 10  2  0
 11  5  1  0
 11 12  2  0
 12  2  1  0
 13 14  1  0
 14 16  1  0
 14 15  2  0
 17 16  1  1
 17 18  1  0
 18  9  1  0
 19 21  1  0
 19 17  1  0
 20 19  2  0
 22 21  1  0
 22 30  1  0
 22 23  1  1
 24 23  1  0
 25 24  2  0
 26 25  1  0
 27 26  2  0
 27 28  1  0
 28 29  2  0
 29 24  1  0
 30 32  1  0
 31 30  2  0
M  END
$$$$
