YNF.pdb
     RDKit          3D

 32 33  0  0  1  0  0  0  0  0999 V2000
   23.2421   -0.2136  -17.2357 O   0  0  0  0  0  0  0  0  0  0  0  0
   23.1205   -1.5021  -16.7193 C   0  0  0  0  0  0  0  0  0  0  0  0
   23.1064   -1.6845  -15.3524 C   0  0  0  0  0  0  0  0  0  0  0  0
   22.9885   -2.9374  -14.8167 C   0  0  0  0  0  0  0  0  0  0  0  0
   22.8790   -4.0667  -15.6178 C   0  0  0  0  0  0  0  0  0  0  0  0
   22.7545   -5.4089  -15.0050 C   0  0  0  0  0  0  0  0  0  0  0  0
   21.2869   -5.7141  -14.6902 C   0  0  2  0  0  0  0  0  0  0  0  0
   20.8556   -4.8879  -13.6015 N   0  0  0  0  0  0  0  0  0  0  0  0
   21.1252   -7.1636  -14.4052 C   0  0  0  0  0  0  0  0  0  0  0  0
   20.5242   -7.4991  -13.3529 O   0  0  0  0  0  0  0  0  0  0  0  0
   22.8957   -3.8565  -16.9754 C   0  0  0  0  0  0  0  0  0  0  0  0
   23.0135   -2.6044  -17.5415 C   0  0  0  0  0  0  0  0  0  0  0  0
   20.6319  -12.2314  -14.1119 N   0  0  0  0  0  0  0  0  0  0  0  0
   19.6651  -11.2507  -14.4117 C   0  0  0  0  0  0  0  0  0  0  0  0
   18.4493  -11.5951  -14.2717 O   0  0  0  0  0  0  0  0  0  0  0  0
   19.9139   -9.8847  -14.8650 C   0  0  0  0  0  0  0  0  0  0  0  0
   21.3767   -9.5591  -15.0378 C   0  0  2  0  0  0  0  0  0  0  0  0
   21.6226   -8.1741  -15.2754 N   0  0  0  0  0  0  0  0  0  0  0  0
   22.0069  -10.4257  -16.0835 C   0  0  0  0  0  0  0  0  0  0  0  0
   22.6024   -9.9147  -17.0730 O   0  0  0  0  0  0  0  0  0  0  0  0
   21.9636  -11.8302  -16.0111 N   0  0  0  0  0  0  0  0  0  0  0  0
   23.0624  -12.6998  -16.3910 C   0  0  1  0  0  0  0  0  0  0  0  0
   24.3102  -12.3993  -15.6336 C   0  0  0  0  0  0  0  0  0  0  0  0
   25.4666  -13.2623  -15.9654 C   0  0  0  0  0  0  0  0  0  0  0  0
   25.8541  -14.3247  -15.1832 C   0  0  0  0  0  0  0  0  0  0  0  0
   26.9344  -15.0841  -15.5532 C   0  0  0  0  0  0  0  0  0  0  0  0
   27.6727  -14.8442  -16.6845 C   0  0  0  0  0  0  0  0  0  0  0  0
   27.2656  -13.7708  -17.4565 C   0  0  0  0  0  0  0  0  0  0  0  0
   26.1875  -12.9974  -17.1055 C   0  0  0  0  0  0  0  0  0  0  0  0
   22.6878  -14.1283  -16.2986 C   0  0  0  0  0  0  0  0  0  0  0  0
   23.3978  -14.9526  -16.9714 O   0  0  0  0  0  0  0  0  0  0  0  0
   21.6527  -14.6220  -15.5548 O   0  0  0  0  0  0  0  0  0  0  0  0
  2  3  2  0
  2  1  1  0
  4  3  1  0
  5  4  2  0
  6  5  1  0
  7  6  1  0
  7  8  1  1
  9  7  1  0
  9 10  2  0
 11  5  1  0
 11 12  2  0
 12  2  1  0
 13 14  1  0
 14 16  1  0
 14 15  2  0
 17 16  1  6
 17 18  1  0
 18  9  1  0
 19 21  1  0
 19 17  1  0
 20 19  2  0
 22 21  1  0
 22 30  1  0
 22 23  1  1
 24 23  1  0
 25 24  2  0
 26 25  1  0
 27 26  2  0
 27 28  1  0
 28 29  2  0
 29 24  1  0
 30 32  1  0
 31 30  2  0
M  END
$$$$
