YNF.pdb
     RDKit          3D

 32 33  0  0  1  0  0  0  0  0999 V2000
   18.0899  -16.6573  -15.8192 O   0  0  0  0  0  0  0  0  0  0  0  0
   18.3406  -15.2983  -15.9967 C   0  0  0  0  0  0  0  0  0  0  0  0
   19.2074  -14.8945  -16.9905 C   0  0  0  0  0  0  0  0  0  0  0  0
   19.4729  -13.5674  -17.1882 C   0  0  0  0  0  0  0  0  0  0  0  0
   18.8874  -12.5810  -16.4051 C   0  0  0  0  0  0  0  0  0  0  0  0
   19.1983  -11.1533  -16.6448 C   0  0  0  0  0  0  0  0  0  0  0  0
   18.1709  -10.5402  -17.6012 C   0  0  2  0  0  0  0  0  0  0  0  0
   18.3397  -11.1110  -18.9050 N   0  0  0  0  0  0  0  0  0  0  0  0
   18.3079   -9.0605  -17.6043 C   0  0  0  0  0  0  0  0  0  0  0  0
   18.0674   -8.4434  -18.6732 O   0  0  0  0  0  0  0  0  0  0  0  0
   18.0284  -13.0108  -15.4227 C   0  0  0  0  0  0  0  0  0  0  0  0
   17.7432  -14.3420  -15.2023 C   0  0  0  0  0  0  0  0  0  0  0  0
   17.8041   -3.8194  -17.7771 N   0  0  0  0  0  0  0  0  0  0  0  0
   17.5716   -4.7628  -16.7563 C   0  0  0  0  0  0  0  0  0  0  0  0
   17.3762   -4.2962  -15.5899 O   0  0  0  0  0  0  0  0  0  0  0  0
   17.5321   -6.2160  -16.8984 C   0  0  0  0  0  0  0  0  0  0  0  0
   18.8019   -6.9036  -16.4618 C   0  0  2  0  0  0  0  0  0  0  0  0
   18.6979   -8.3263  -16.4491 N   0  0  0  0  0  0  0  0  0  0  0  0
   19.2876   -6.3674  -15.1510 C   0  0  0  0  0  0  0  0  0  0  0  0
   18.7052   -6.6721  -14.0727 O   0  0  0  0  0  0  0  0  0  0  0  0
   20.4003   -5.5106  -15.0638 N   0  0  0  0  0  0  0  0  0  0  0  0
   21.2292   -5.3696  -13.8802 C   0  0  1  0  0  0  0  0  0  0  0  0
   22.3622   -6.3375  -13.8639 C   0  0  0  0  0  0  0  0  0  0  0  0
   23.2464   -6.2858  -15.0503 C   0  0  0  0  0  0  0  0  0  0  0  0
   23.1847   -7.2081  -16.0682 C   0  0  0  0  0  0  0  0  0  0  0  0
   24.0331   -7.0971  -17.1398 C   0  0  0  0  0  0  0  0  0  0  0  0
   24.9647   -6.0974  -17.2635 C   0  0  0  0  0  0  0  0  0  0  0  0
   25.0098   -5.1807  -16.2283 C   0  0  0  0  0  0  0  0  0  0  0  0
   24.1702   -5.2723  -15.1465 C   0  0  0  0  0  0  0  0  0  0  0  0
   21.6881   -3.9751  -13.6956 C   0  0  0  0  0  0  0  0  0  0  0  0
   21.5069   -3.1763  -14.6781 O   0  0  0  0  0  0  0  0  0  0  0  0
   22.2820   -3.4872  -12.5653 O   0  0  0  0  0  0  0  0  0  0  0  0
  2  3  2  0
  2  1  1  0
  4  3  1  0
  5  4  2  0
  6  5  1  0
  7  6  1  0
  7  8  1  6
  9  7  1  0
  9 10  2  0
 11  5  1  0
 11 12  2  0
 12  2  1  0
 13 14  1  0
 14 16  1  0
 14 15  2  0
 17 16  1  1
 17 18  1  0
 18  9  1  0
 19 21  1  0
 19 17  1  0
 20 19  2  0
 22 21  1  0
 22 30  1  0
 22 23  1  6
 24 23  1  0
 25 24  2  0
 26 25  1  0
 27 26  2  0
 27 28  1  0
 28 29  2  0
 29 24  1  0
 30 32  1  0
 31 30  2  0
M  END
$$$$
