YNF.pdb
     RDKit          3D

 32 33  0  0  1  0  0  0  0  0999 V2000
   16.1776  -26.3459  -22.7087 O   0  0  0  0  0  0  0  0  0  0  0  0
   17.0310  -25.3531  -22.2318 C   0  0  0  0  0  0  0  0  0  0  0  0
   18.0517  -25.6951  -21.3697 C   0  0  0  0  0  0  0  0  0  0  0  0
   18.9048  -24.7421  -20.8852 C   0  0  0  0  0  0  0  0  0  0  0  0
   18.7807  -23.4042  -21.2369 C   0  0  0  0  0  0  0  0  0  0  0  0
   19.7205  -22.3977  -20.6926 C   0  0  0  0  0  0  0  0  0  0  0  0
   21.0255  -22.4024  -21.4944 C   0  0  2  0  0  0  0  0  0  0  0  0
   21.9552  -23.3026  -20.8783 N   0  0  0  0  0  0  0  0  0  0  0  0
   21.5558  -21.0181  -21.5990 C   0  0  0  0  0  0  0  0  0  0  0  0
   22.4049  -20.6413  -20.7517 O   0  0  0  0  0  0  0  0  0  0  0  0
   17.7557  -23.0913  -22.0967 C   0  0  0  0  0  0  0  0  0  0  0  0
   16.8819  -24.0322  -22.5998 C   0  0  0  0  0  0  0  0  0  0  0  0
   24.1367  -19.6947  -23.8547 N   0  0  0  0  0  0  0  0  0  0  0  0
   23.2392  -18.8709  -24.5634 C   0  0  0  0  0  0  0  0  0  0  0  0
   23.5683  -18.5708  -25.7541 O   0  0  0  0  0  0  0  0  0  0  0  0
   21.9747  -18.3279  -24.0737 C   0  0  0  0  0  0  0  0  0  0  0  0
   21.6229  -18.7739  -22.6762 C   0  0  2  0  0  0  0  0  0  0  0  0
   21.1389  -20.1145  -22.6164 N   0  0  0  0  0  0  0  0  0  0  0  0
   20.6838  -17.8111  -22.0183 C   0  0  0  0  0  0  0  0  0  0  0  0
   19.4383  -17.8893  -22.2117 O   0  0  0  0  0  0  0  0  0  0  0  0
   21.1419  -16.7891  -21.1665 N   0  0  0  0  0  0  0  0  0  0  0  0
   20.2810  -15.7967  -20.5487 C   0  0  1  0  0  0  0  0  0  0  0  0
   20.2944  -15.8829  -19.0610 C   0  0  0  0  0  0  0  0  0  0  0  0
   19.7590  -17.1452  -18.5026 C   0  0  0  0  0  0  0  0  0  0  0  0
   18.4140  -17.3756  -18.3334 C   0  0  0  0  0  0  0  0  0  0  0  0
   17.9882  -18.5706  -17.8126 C   0  0  0  0  0  0  0  0  0  0  0  0
   18.8423  -19.5775  -17.4396 C   0  0  0  0  0  0  0  0  0  0  0  0
   20.1907  -19.3246  -17.6182 C   0  0  0  0  0  0  0  0  0  0  0  0
   20.6391  -18.1361  -18.1377 C   0  0  0  0  0  0  0  0  0  0  0  0
   20.5877  -14.4308  -21.0280 C   0  0  0  0  0  0  0  0  0  0  0  0
   19.8043  -13.4969  -20.6401 O   0  0  0  0  0  0  0  0  0  0  0  0
   21.6346  -14.1012  -21.8428 O   0  0  0  0  0  0  0  0  0  0  0  0
  2  3  2  0
  2  1  1  0
  4  3  1  0
  5  4  2  0
  6  5  1  0
  7  6  1  0
  7  8  1  1
  9  7  1  0
  9 10  2  0
 11  5  1  0
 11 12  2  0
 12  2  1  0
 13 14  1  0
 14 16  1  0
 14 15  2  0
 17 16  1  6
 17 18  1  0
 18  9  1  0
 19 21  1  0
 19 17  1  0
 20 19  2  0
 22 21  1  0
 22 30  1  0
 22 23  1  1
 24 23  1  0
 25 24  2  0
 26 25  1  0
 27 26  2  0
 27 28  1  0
 28 29  2  0
 29 24  1  0
 30 32  1  0
 31 30  2  0
M  END
$$$$
