YNF.pdb
     RDKit          3D

 32 33  0  0  1  0  0  0  0  0999 V2000
   14.4141  -35.0530  -12.3923 O   0  0  0  0  0  0  0  0  0  0  0  0
   14.8030  -34.0238  -11.5373 C   0  0  0  0  0  0  0  0  0  0  0  0
   16.1450  -33.7508  -11.3739 C   0  0  0  0  0  0  0  0  0  0  0  0
   16.5565  -32.7468  -10.5412 C   0  0  0  0  0  0  0  0  0  0  0  0
   15.6505  -31.9682   -9.8327 C   0  0  0  0  0  0  0  0  0  0  0  0
   16.1301  -30.8902   -8.9382 C   0  0  0  0  0  0  0  0  0  0  0  0
   15.9484  -29.5249   -9.6083 C   0  0  2  0  0  0  0  0  0  0  0  0
   16.8662  -29.4101  -10.7031 N   0  0  0  0  0  0  0  0  0  0  0  0
   16.1222  -28.4446   -8.6027 C   0  0  0  0  0  0  0  0  0  0  0  0
   17.0267  -27.5928   -8.7956 O   0  0  0  0  0  0  0  0  0  0  0  0
   14.3205  -32.2615  -10.0140 C   0  0  0  0  0  0  0  0  0  0  0  0
   13.8786  -33.2677  -10.8471 C   0  0  0  0  0  0  0  0  0  0  0  0
   15.8270  -24.7637   -5.0396 N   0  0  0  0  0  0  0  0  0  0  0  0
   15.4483  -24.7430   -6.3969 C   0  0  0  0  0  0  0  0  0  0  0  0
   15.2730  -23.5961   -6.9168 O   0  0  0  0  0  0  0  0  0  0  0  0
   15.2369  -25.8982   -7.2655 C   0  0  0  0  0  0  0  0  0  0  0  0
   15.3871  -27.2234   -6.5607 C   0  0  2  0  0  0  0  0  0  0  0  0
   15.3066  -28.3433   -7.4408 N   0  0  0  0  0  0  0  0  0  0  0  0
   14.4290  -27.3424   -5.4162 C   0  0  0  0  0  0  0  0  0  0  0  0
   13.3948  -28.0607   -5.5116 O   0  0  0  0  0  0  0  0  0  0  0  0
   14.6359  -26.6671   -4.1993 N   0  0  0  0  0  0  0  0  0  0  0  0
   13.7540  -26.7695   -3.0506 C   0  0  1  0  0  0  0  0  0  0  0  0
   13.5355  -28.1820   -2.6286 C   0  0  0  0  0  0  0  0  0  0  0  0
   14.7010  -28.8304   -1.9859 C   0  0  0  0  0  0  0  0  0  0  0  0
   15.0246  -28.6422   -0.6629 C   0  0  0  0  0  0  0  0  0  0  0  0
   16.1179  -29.2776   -0.1324 C   0  0  0  0  0  0  0  0  0  0  0  0
   16.9310  -30.1114   -0.8577 C   0  0  0  0  0  0  0  0  0  0  0  0
   16.5873  -30.2865   -2.1864 C   0  0  0  0  0  0  0  0  0  0  0  0
   15.4976  -29.6606   -2.7382 C   0  0  0  0  0  0  0  0  0  0  0  0
   14.2137  -25.9205   -1.9294 C   0  0  0  0  0  0  0  0  0  0  0  0
   13.4558  -25.8687   -0.9002 O   0  0  0  0  0  0  0  0  0  0  0  0
   15.3748  -25.1992   -1.9155 O   0  0  0  0  0  0  0  0  0  0  0  0
  2  3  2  0
  2  1  1  0
  4  3  1  0
  5  4  2  0
  6  5  1  0
  7  6  1  0
  7  8  1  6
  9  7  1  0
  9 10  2  0
 11  5  1  0
 11 12  2  0
 12  2  1  0
 13 14  1  0
 14 16  1  0
 14 15  2  0
 17 16  1  6
 17 18  1  0
 18  9  1  0
 19 21  1  0
 19 17  1  0
 20 19  2  0
 22 21  1  0
 22 30  1  0
 22 23  1  1
 24 23  1  0
 25 24  2  0
 26 25  1  0
 27 26  2  0
 27 28  1  0
 28 29  2  0
 29 24  1  0
 30 32  1  0
 31 30  2  0
M  END
$$$$
