YNF.pdb
     RDKit          3D

 32 33  0  0  1  0  0  0  0  0999 V2000
   36.9219  -35.0496  -24.4548 O   0  0  0  0  0  0  0  0  0  0  0  0
   36.1240  -34.4787  -23.4654 C   0  0  0  0  0  0  0  0  0  0  0  0
   35.7995  -33.1407  -23.5464 C   0  0  0  0  0  0  0  0  0  0  0  0
   35.0183  -32.5529  -22.5899 C   0  0  0  0  0  0  0  0  0  0  0  0
   34.5240  -33.2706  -21.5084 C   0  0  0  0  0  0  0  0  0  0  0  0
   33.6822  -32.6027  -20.4897 C   0  0  0  0  0  0  0  0  0  0  0  0
   34.5625  -31.8825  -19.4637 C   0  0  2  0  0  0  0  0  0  0  0  0
   35.2185  -32.8541  -18.6393 N   0  0  0  0  0  0  0  0  0  0  0  0
   33.7384  -30.9291  -18.6761 C   0  0  0  0  0  0  0  0  0  0  0  0
   33.3099  -31.3002  -17.5537 O   0  0  0  0  0  0  0  0  0  0  0  0
   34.8623  -34.6011  -21.4524 C   0  0  0  0  0  0  0  0  0  0  0  0
   35.6480  -35.2183  -22.4029 C   0  0  0  0  0  0  0  0  0  0  0  0
   34.9087  -25.9332  -19.4428 N   0  0  0  0  0  0  0  0  0  0  0  0
   34.2137  -26.8246  -18.6009 C   0  0  0  0  0  0  0  0  0  0  0  0
   34.8604  -27.2825  -17.6066 O   0  0  0  0  0  0  0  0  0  0  0  0
   32.8326  -27.2756  -18.7514 C   0  0  0  0  0  0  0  0  0  0  0  0
   32.6225  -28.7226  -18.3805 C   0  0  2  0  0  0  0  0  0  0  0  0
   33.4220  -29.6232  -19.1452 N   0  0  0  0  0  0  0  0  0  0  0  0
   31.1716  -29.0898  -18.4231 C   0  0  0  0  0  0  0  0  0  0  0  0
   30.6531  -29.5530  -19.4773 O   0  0  0  0  0  0  0  0  0  0  0  0
   30.3320  -28.9364  -17.3044 N   0  0  0  0  0  0  0  0  0  0  0  0
   28.9076  -29.2171  -17.3103 C   0  0  1  0  0  0  0  0  0  0  0  0
   28.5917  -30.5543  -16.7331 C   0  0  0  0  0  0  0  0  0  0  0  0
   27.1616  -30.9344  -16.7812 C   0  0  0  0  0  0  0  0  0  0  0  0
   26.5449  -31.3775  -17.9275 C   0  0  0  0  0  0  0  0  0  0  0  0
   25.2162  -31.7156  -17.8986 C   0  0  0  0  0  0  0  0  0  0  0  0
   24.4428  -31.6375  -16.7680 C   0  0  0  0  0  0  0  0  0  0  0  0
   25.0831  -31.1893  -15.6265 C   0  0  0  0  0  0  0  0  0  0  0  0
   26.4118  -30.8456  -15.6324 C   0  0  0  0  0  0  0  0  0  0  0  0
   28.1334  -28.1360  -16.6615 C   0  0  0  0  0  0  0  0  0  0  0  0
   26.8675  -28.1469  -16.8449 O   0  0  0  0  0  0  0  0  0  0  0  0
   28.6675  -27.1418  -15.8902 O   0  0  0  0  0  0  0  0  0  0  0  0
  2  3  2  0
  2  1  1  0
  4  3  1  0
  5  4  2  0
  6  5  1  0
  7  6  1  0
  7  8  1  1
  9  7  1  0
  9 10  2  0
 11  5  1  0
 11 12  2  0
 12  2  1  0
 13 14  1  0
 14 16  1  0
 14 15  2  0
 17 16  1  6
 17 18  1  0
 18  9  1  0
 19 21  1  0
 19 17  1  0
 20 19  2  0
 22 21  1  0
 22 30  1  0
 22 23  1  1
 24 23  1  0
 25 24  2  0
 26 25  1  0
 27 26  2  0
 27 28  1  0
 28 29  2  0
 29 24  1  0
 30 32  1  0
 31 30  2  0
M  END
$$$$
