MWE.pdb
     RDKit          3D

 32 33  0  0  1  0  0  0  0  0999 V2000
   26.9522  -16.6716  -17.3551 C   0  0  0  0  0  0  0  0  0  0  0  0
   28.4265  -17.4500  -18.0009 S   0  0  0  0  0  0  0  0  0  0  0  0
   28.9557  -18.9126  -17.1544 C   0  0  0  0  0  0  0  0  0  0  0  0
   27.9397  -19.5133  -16.2362 C   0  0  0  0  0  0  0  0  0  0  0  0
   28.4808  -20.7378  -15.5628 C   0  0  2  0  0  0  0  0  0  0  0  0
   28.5748  -21.7749  -16.5769 N   0  0  0  0  0  0  0  0  0  0  0  0
   27.5385  -21.2160  -14.4884 C   0  0  0  0  0  0  0  0  0  0  0  0
   26.6078  -21.9980  -14.7812 O   0  0  0  0  0  0  0  0  0  0  0  0
   27.6847  -20.8008  -13.1645 N   0  0  0  0  0  0  0  0  0  0  0  0
   26.7485  -21.1358  -12.0731 C   0  0  1  0  0  0  0  0  0  0  0  0
   27.4813  -20.8749  -10.8310 C   0  0  0  0  0  0  0  0  0  0  0  0
   26.7576  -20.6463   -9.5964 C   0  0  0  0  0  0  0  0  0  0  0  0
   25.4004  -20.6216   -9.4450 C   0  0  0  0  0  0  0  0  0  0  0  0
   25.1286  -20.3696   -8.1632 N   0  0  0  0  0  0  0  0  0  0  0  0
   26.2684  -20.2251   -7.4541 C   0  0  0  0  0  0  0  0  0  0  0  0
   26.5005  -19.9597   -6.1164 C   0  0  0  0  0  0  0  0  0  0  0  0
   27.8001  -19.8586   -5.6315 C   0  0  0  0  0  0  0  0  0  0  0  0
   28.8285  -20.0299   -6.5191 C   0  0  0  0  0  0  0  0  0  0  0  0
   28.5885  -20.2934   -7.8471 C   0  0  0  0  0  0  0  0  0  0  0  0
   27.2971  -20.3990   -8.3546 C   0  0  0  0  0  0  0  0  0  0  0  0
   25.5163  -20.4495  -12.3623 C   0  0  0  0  0  0  0  0  0  0  0  0
   25.5039  -19.1912  -12.4867 O   0  0  0  0  0  0  0  0  0  0  0  0
   24.2882  -21.1085  -12.5232 N   0  0  0  0  0  0  0  0  0  0  0  0
   23.0385  -20.4086  -12.8092 C   0  0  1  0  0  0  0  0  0  0  0  0
   22.4471  -21.0787  -14.0085 C   0  0  0  0  0  0  0  0  0  0  0  0
   22.6440  -20.2490  -15.2267 C   0  0  0  0  0  0  0  0  0  0  0  0
   22.7687  -21.1479  -16.4240 C   0  0  0  0  0  0  0  0  0  0  0  0
   23.8992  -21.2741  -16.9377 O   0  0  0  0  0  0  0  0  0  0  0  0
   22.1337  -20.5290  -11.6533 C   0  0  0  0  0  0  0  0  0  0  0  0
   20.9948  -19.7091  -11.5347 O   0  0  0  0  0  0  0  0  0  0  0  0
   21.6772  -21.8011  -16.9270 O   0  0  0  0  0  0  0  0  0  0  0  0
   22.2887  -21.3400  -10.7066 O   0  0  0  0  0  0  0  0  0  0  0  0
  2  1  1  0
  3  2  1  0
  4  3  1  0
  5  4  1  0
  5  6  1  6
  7  5  1  0
  7  8  2  0
  9  7  1  0
 10  9  1  0
 10 11  1  1
 11 12  1  0
 12 13  2  0
 12 20  1  0
 13 14  1  0
 14 15  1  0
 15 16  2  0
 16 17  1  0
 18 17  2  0
 19 18  1  0
 20 19  2  0
 20 15  1  0
 21 10  1  0
 22 21  2  0
 23 21  1  0
 24 25  1  6
 24 23  1  0
 25 26  1  0
 26 27  1  0
 27 31  1  0
 27 28  2  0
 29 30  1  0
 29 24  1  0
 32 29  2  0
M  END
$$$$
