MWE.pdb
     RDKit          3D

 32 33  0  0  1  0  0  0  0  0999 V2000
   27.6345  -24.6277  -15.6963 C   0  0  0  0  0  0  0  0  0  0  0  0
   27.5847  -23.0320  -16.5008 S   0  0  0  0  0  0  0  0  0  0  0  0
   28.3294  -21.6977  -15.6058 C   0  0  0  0  0  0  0  0  0  0  0  0
   28.1532  -21.7567  -14.1220 C   0  0  0  0  0  0  0  0  0  0  0  0
   26.8610  -21.1206  -13.7082 C   0  0  2  0  0  0  0  0  0  0  0  0
   26.9770  -19.6992  -13.9893 N   0  0  0  0  0  0  0  0  0  0  0  0
   26.6334  -21.2892  -12.2282 C   0  0  0  0  0  0  0  0  0  0  0  0
   26.4291  -22.4293  -11.7569 O   0  0  0  0  0  0  0  0  0  0  0  0
   26.6462  -20.1915  -11.3672 N   0  0  0  0  0  0  0  0  0  0  0  0
   26.2676  -20.2407   -9.9410 C   0  0  1  0  0  0  0  0  0  0  0  0
   27.3135  -19.5005   -9.2296 C   0  0  0  0  0  0  0  0  0  0  0  0
   28.1003  -20.1596   -8.2066 C   0  0  0  0  0  0  0  0  0  0  0  0
   28.8769  -21.2711   -8.3716 C   0  0  0  0  0  0  0  0  0  0  0  0
   29.4271  -21.5735   -7.1943 N   0  0  0  0  0  0  0  0  0  0  0  0
   29.0387  -20.6935   -6.2469 C   0  0  0  0  0  0  0  0  0  0  0  0
   29.3357  -20.5907   -4.8997 C   0  0  0  0  0  0  0  0  0  0  0  0
   28.7905  -19.5669   -4.1323 C   0  0  0  0  0  0  0  0  0  0  0  0
   27.9583  -18.6753   -4.7548 C   0  0  0  0  0  0  0  0  0  0  0  0
   27.6686  -18.7852   -6.0944 C   0  0  0  0  0  0  0  0  0  0  0  0
   28.2023  -19.8010   -6.8817 C   0  0  0  0  0  0  0  0  0  0  0  0
   24.8899  -19.8293   -9.8661 C   0  0  0  0  0  0  0  0  0  0  0  0
   24.5933  -18.6001   -9.8602 O   0  0  0  0  0  0  0  0  0  0  0  0
   23.8195  -20.7338   -9.8000 N   0  0  0  0  0  0  0  0  0  0  0  0
   22.5506  -20.5205  -10.4912 C   0  0  1  0  0  0  0  0  0  0  0  0
   22.8659  -20.5087  -11.9532 C   0  0  0  0  0  0  0  0  0  0  0  0
   21.6468  -20.2164  -12.7531 C   0  0  0  0  0  0  0  0  0  0  0  0
   21.7024  -20.9872  -14.0414 C   0  0  0  0  0  0  0  0  0  0  0  0
   22.7746  -21.5583  -14.3282 O   0  0  0  0  0  0  0  0  0  0  0  0
   21.6274  -21.6229  -10.1722 C   0  0  0  0  0  0  0  0  0  0  0  0
   22.0599  -22.7406   -9.4326 O   0  0  0  0  0  0  0  0  0  0  0  0
   20.6125  -21.0559  -14.8650 O   0  0  0  0  0  0  0  0  0  0  0  0
   20.4200  -21.6654  -10.5164 O   0  0  0  0  0  0  0  0  0  0  0  0
  2  1  1  0
  3  2  1  0
  4  3  1  0
  5  4  1  0
  5  6  1  1
  7  5  1  0
  7  8  2  0
  9  7  1  0
 10  9  1  0
 10 11  1  1
 11 12  1  0
 12 13  2  0
 12 20  1  0
 13 14  1  0
 14 15  1  0
 15 16  2  0
 16 17  1  0
 18 17  2  0
 19 18  1  0
 20 19  2  0
 20 15  1  0
 21 10  1  0
 22 21  2  0
 23 21  1  0
 24 25  1  6
 24 23  1  0
 25 26  1  0
 26 27  1  0
 27 31  1  0
 27 28  2  0
 29 30  1  0
 29 24  1  0
 32 29  2  0
M  END
$$$$
