MWE.pdb
     RDKit          3D

 32 33  0  0  1  0  0  0  0  0999 V2000
   47.7455   -9.5073   -3.2231 C   0  0  0  0  0  0  0  0  0  0  0  0
   47.7043  -10.8843   -4.3626 S   0  0  0  0  0  0  0  0  0  0  0  0
   47.6373  -10.4575   -6.0799 C   0  0  0  0  0  0  0  0  0  0  0  0
   46.3187   -9.9300   -6.5485 C   0  0  0  0  0  0  0  0  0  0  0  0
   45.2191  -10.9102   -6.2735 C   0  0  2  0  0  0  0  0  0  0  0  0
   45.5760  -12.1496   -6.9440 N   0  0  0  0  0  0  0  0  0  0  0  0
   43.9145  -10.4237   -6.8499 C   0  0  0  0  0  0  0  0  0  0  0  0
   43.6319  -10.6701   -8.0428 O   0  0  0  0  0  0  0  0  0  0  0  0
   43.0095   -9.6989   -6.0740 N   0  0  0  0  0  0  0  0  0  0  0  0
   41.7100   -9.1913   -6.5572 C   0  0  1  0  0  0  0  0  0  0  0  0
   40.7320   -9.5751   -5.5354 C   0  0  0  0  0  0  0  0  0  0  0  0
   39.3161   -9.5563   -5.8435 C   0  0  0  0  0  0  0  0  0  0  0  0
   38.4613  -10.6206   -5.7929 C   0  0  0  0  0  0  0  0  0  0  0  0
   37.2495  -10.1993   -6.1595 N   0  0  0  0  0  0  0  0  0  0  0  0
   37.2719   -8.8819   -6.4536 C   0  0  0  0  0  0  0  0  0  0  0  0
   36.2841   -8.0088   -6.8730 C   0  0  0  0  0  0  0  0  0  0  0  0
   36.5788   -6.6707   -7.1114 C   0  0  0  0  0  0  0  0  0  0  0  0
   37.8692   -6.2560   -6.9171 C   0  0  0  0  0  0  0  0  0  0  0  0
   38.8447   -7.1308   -6.5000 C   0  0  0  0  0  0  0  0  0  0  0  0
   38.5731   -8.4735   -6.2555 C   0  0  0  0  0  0  0  0  0  0  0  0
   41.9116   -7.8087   -6.9051 C   0  0  0  0  0  0  0  0  0  0  0  0
   42.7351   -7.1035   -6.2545 O   0  0  0  0  0  0  0  0  0  0  0  0
   41.2331   -7.1731   -7.9557 N   0  0  0  0  0  0  0  0  0  0  0  0
   41.4408   -5.7706   -8.3070 C   0  0  1  0  0  0  0  0  0  0  0  0
   40.8629   -5.5904   -9.6747 C   0  0  0  0  0  0  0  0  0  0  0  0
   41.0630   -4.1963  -10.1520 C   0  0  0  0  0  0  0  0  0  0  0  0
   40.4785   -4.0550  -11.5288 C   0  0  0  0  0  0  0  0  0  0  0  0
   39.8816   -5.0409  -12.0080 O   0  0  0  0  0  0  0  0  0  0  0  0
   40.7413   -4.9132   -7.3350 C   0  0  0  0  0  0  0  0  0  0  0  0
   41.3976   -3.8306   -6.7180 O   0  0  0  0  0  0  0  0  0  0  0  0
   40.6006   -2.8843  -12.2255 O   0  0  0  0  0  0  0  0  0  0  0  0
   39.5450   -5.0627   -6.9820 O   0  0  0  0  0  0  0  0  0  0  0  0
  2  1  1  0
  3  2  1  0
  4  3  1  0
  5  4  1  0
  5  6  1  6
  7  5  1  0
  7  8  2  0
  9  7  1  0
 10  9  1  0
 10 11  1  1
 11 12  1  0
 12 13  2  0
 12 20  1  0
 13 14  1  0
 14 15  1  0
 15 16  2  0
 16 17  1  0
 18 17  2  0
 19 18  1  0
 20 19  2  0
 20 15  1  0
 21 10  1  0
 22 21  2  0
 23 21  1  0
 24 25  1  6
 24 23  1  0
 25 26  1  0
 26 27  1  0
 27 31  1  0
 27 28  2  0
 29 30  1  0
 29 24  1  0
 32 29  2  0
M  END
$$$$
