MWE.pdb
     RDKit          3D

 32 33  0  0  1  0  0  0  0  0999 V2000
   30.2025  -17.4288  -17.0529 C   0  0  0  0  0  0  0  0  0  0  0  0
   30.5166  -19.1788  -17.2399 S   0  0  0  0  0  0  0  0  0  0  0  0
   29.0832  -20.2187  -17.2521 C   0  0  0  0  0  0  0  0  0  0  0  0
   28.7615  -20.8660  -15.9430 C   0  0  0  0  0  0  0  0  0  0  0  0
   27.7328  -20.0769  -15.1914 C   0  0  2  0  0  0  0  0  0  0  0  0
   28.3972  -18.8897  -14.6795 N   0  0  0  0  0  0  0  0  0  0  0  0
   27.2090  -20.8643  -14.0182 C   0  0  0  0  0  0  0  0  0  0  0  0
   26.5849  -21.9300  -14.2141 O   0  0  0  0  0  0  0  0  0  0  0  0
   27.4077  -20.4252  -12.7090 N   0  0  0  0  0  0  0  0  0  0  0  0
   26.6593  -20.9202  -11.5365 C   0  0  1  0  0  0  0  0  0  0  0  0
   27.5744  -20.7871  -10.3996 C   0  0  0  0  0  0  0  0  0  0  0  0
   27.0474  -20.6075   -9.0616 C   0  0  0  0  0  0  0  0  0  0  0  0
   25.7392  -20.7163   -8.6843 C   0  0  0  0  0  0  0  0  0  0  0  0
   25.6609  -20.4671   -7.3758 N   0  0  0  0  0  0  0  0  0  0  0  0
   26.8821  -20.1947   -6.8688 C   0  0  0  0  0  0  0  0  0  0  0  0
   27.3058  -19.8805   -5.5899 C   0  0  0  0  0  0  0  0  0  0  0  0
   28.6509  -19.6396   -5.3307 C   0  0  0  0  0  0  0  0  0  0  0  0
   29.5288  -19.7246   -6.3780 C   0  0  0  0  0  0  0  0  0  0  0  0
   29.0987  -20.0375   -7.6460 C   0  0  0  0  0  0  0  0  0  0  0  0
   27.7584  -20.2824   -7.9289 C   0  0  0  0  0  0  0  0  0  0  0  0
   25.3876  -20.2451  -11.5447 C   0  0  0  0  0  0  0  0  0  0  0  0
   25.3242  -19.0129  -11.8217 O   0  0  0  0  0  0  0  0  0  0  0  0
   24.1737  -20.8876  -11.2584 N   0  0  0  0  0  0  0  0  0  0  0  0
   22.8743  -20.3522  -11.6560 C   0  0  1  0  0  0  0  0  0  0  0  0
   22.9171  -20.2083  -13.1441 C   0  0  0  0  0  0  0  0  0  0  0  0
   21.6246  -19.6848  -13.6606 C   0  0  0  0  0  0  0  0  0  0  0  0
   21.5704  -19.8789  -15.1493 C   0  0  0  0  0  0  0  0  0  0  0  0
   22.3357  -20.7281  -15.6504 O   0  0  0  0  0  0  0  0  0  0  0  0
   21.8139  -21.2946  -11.2599 C   0  0  0  0  0  0  0  0  0  0  0  0
   20.5705  -20.8313  -10.7880 O   0  0  0  0  0  0  0  0  0  0  0  0
   20.7101  -19.1472  -15.9209 O   0  0  0  0  0  0  0  0  0  0  0  0
   21.9173  -22.5457  -11.3046 O   0  0  0  0  0  0  0  0  0  0  0  0
  2  1  1  0
  3  2  1  0
  4  3  1  0
  5  4  1  0
  5  6  1  1
  7  5  1  0
  7  8  2  0
  9  7  1  0
 10  9  1  0
 10 11  1  1
 11 12  1  0
 12 13  2  0
 12 20  1  0
 13 14  1  0
 14 15  1  0
 15 16  2  0
 16 17  1  0
 18 17  2  0
 19 18  1  0
 20 19  2  0
 20 15  1  0
 21 10  1  0
 22 21  2  0
 23 21  1  0
 24 25  1  6
 24 23  1  0
 25 26  1  0
 26 27  1  0
 27 31  1  0
 27 28  2  0
 29 30  1  0
 29 24  1  0
 32 29  2  0
M  END
$$$$
