MWE.pdb
     RDKit          3D

 32 33  0  0  1  0  0  0  0  0999 V2000
    9.7928  -23.0332    3.1739 C   0  0  0  0  0  0  0  0  0  0  0  0
   11.5695  -22.8346    3.1553 S   0  0  0  0  0  0  0  0  0  0  0  0
   12.3142  -22.7384    1.5514 C   0  0  0  0  0  0  0  0  0  0  0  0
   13.7853  -22.4701    1.5535 C   0  0  0  0  0  0  0  0  0  0  0  0
   14.0972  -21.1784    0.8608 C   0  0  2  0  0  0  0  0  0  0  0  0
   14.4807  -21.5078   -0.5020 N   0  0  0  0  0  0  0  0  0  0  0  0
   15.2613  -20.4863    1.5216 C   0  0  0  0  0  0  0  0  0  0  0  0
   16.4295  -20.7688    1.1764 O   0  0  0  0  0  0  0  0  0  0  0  0
   15.0606  -19.5304    2.5178 N   0  0  0  0  0  0  0  0  0  0  0  0
   16.1399  -18.7724    3.1814 C   0  0  1  0  0  0  0  0  0  0  0  0
   15.8060  -17.3587    2.9870 C   0  0  0  0  0  0  0  0  0  0  0  0
   16.8584  -16.3629    2.9542 C   0  0  0  0  0  0  0  0  0  0  0  0
   16.7426  -15.0492    3.3097 C   0  0  0  0  0  0  0  0  0  0  0  0
   17.9268  -14.4622    3.1268 N   0  0  0  0  0  0  0  0  0  0  0  0
   18.8307  -15.3489    2.6584 C   0  0  0  0  0  0  0  0  0  0  0  0
   20.1660  -15.2204    2.3204 C   0  0  0  0  0  0  0  0  0  0  0  0
   20.8845  -16.3152    1.8517 C   0  0  0  0  0  0  0  0  0  0  0  0
   20.2265  -17.5107    1.7393 C   0  0  0  0  0  0  0  0  0  0  0  0
   18.8991  -17.6292    2.0775 C   0  0  0  0  0  0  0  0  0  0  0  0
   18.1604  -16.5480    2.5485 C   0  0  0  0  0  0  0  0  0  0  0  0
   16.2775  -19.3243    4.5041 C   0  0  0  0  0  0  0  0  0  0  0  0
   15.2525  -19.6779    5.1548 O   0  0  0  0  0  0  0  0  0  0  0  0
   17.5163  -19.5036    5.1378 N   0  0  0  0  0  0  0  0  0  0  0  0
   17.6573  -20.1195    6.4546 C   0  0  1  0  0  0  0  0  0  0  0  0
   18.6600  -21.2183    6.2989 C   0  0  0  0  0  0  0  0  0  0  0  0
   18.9035  -21.8980    7.5990 C   0  0  0  0  0  0  0  0  0  0  0  0
   19.8300  -23.0609    7.3846 C   0  0  0  0  0  0  0  0  0  0  0  0
   20.1373  -23.7472    8.3809 O   0  0  0  0  0  0  0  0  0  0  0  0
   18.1400  -19.1141    7.4167 C   0  0  0  0  0  0  0  0  0  0  0  0
   18.6415  -17.8730    6.9790 O   0  0  0  0  0  0  0  0  0  0  0  0
   20.3149  -23.3507    6.1389 O   0  0  0  0  0  0  0  0  0  0  0  0
   18.1484  -19.2653    8.6637 O   0  0  0  0  0  0  0  0  0  0  0  0
  2  1  1  0
  3  2  1  0
  4  3  1  0
  5  4  1  0
  5  6  1  6
  7  5  1  0
  7  8  2  0
  9  7  1  0
 10  9  1  0
 10 11  1  1
 11 12  1  0
 12 13  2  0
 12 20  1  0
 13 14  1  0
 14 15  1  0
 15 16  2  0
 16 17  1  0
 18 17  2  0
 19 18  1  0
 20 19  2  0
 20 15  1  0
 21 10  1  0
 22 21  2  0
 23 21  1  0
 24 25  1  6
 24 23  1  0
 25 26  1  0
 26 27  1  0
 27 31  1  0
 27 28  2  0
 29 30  1  0
 29 24  1  0
 32 29  2  0
M  END
$$$$
