MWE.pdb
     RDKit          3D

 32 33  0  0  1  0  0  0  0  0999 V2000
   27.4013  -18.7611  -18.1151 C   0  0  0  0  0  0  0  0  0  0  0  0
   28.2707  -20.2772  -18.4914 S   0  0  0  0  0  0  0  0  0  0  0  0
   27.3029  -21.7579  -18.4081 C   0  0  0  0  0  0  0  0  0  0  0  0
   26.4527  -21.8885  -17.1848 C   0  0  0  0  0  0  0  0  0  0  0  0
   27.2791  -22.2687  -15.9939 C   0  0  2  0  0  0  0  0  0  0  0  0
   27.7149  -23.6402  -16.1983 N   0  0  0  0  0  0  0  0  0  0  0  0
   26.4528  -22.2216  -14.7345 C   0  0  0  0  0  0  0  0  0  0  0  0
   25.7545  -23.2076  -14.4123 O   0  0  0  0  0  0  0  0  0  0  0  0
   26.4513  -21.0923  -13.9152 N   0  0  0  0  0  0  0  0  0  0  0  0
   25.6237  -20.9382  -12.7023 C   0  0  1  0  0  0  0  0  0  0  0  0
   26.3031  -19.9274  -11.8872 C   0  0  0  0  0  0  0  0  0  0  0  0
   27.3717  -20.3181  -10.9896 C   0  0  0  0  0  0  0  0  0  0  0  0
   28.5861  -20.8296  -11.3492 C   0  0  0  0  0  0  0  0  0  0  0  0
   29.2818  -21.0723  -10.2369 N   0  0  0  0  0  0  0  0  0  0  0  0
   28.5645  -20.7365   -9.1435 C   0  0  0  0  0  0  0  0  0  0  0  0
   28.8499  -20.8023   -7.7915 C   0  0  0  0  0  0  0  0  0  0  0  0
   27.9148  -20.3835   -6.8510 C   0  0  0  0  0  0  0  0  0  0  0  0
   26.7152  -19.9092   -7.3099 C   0  0  0  0  0  0  0  0  0  0  0  0
   26.4400  -19.8475   -8.6557 C   0  0  0  0  0  0  0  0  0  0  0  0
   27.3599  -20.2608   -9.6145 C   0  0  0  0  0  0  0  0  0  0  0  0
   24.2699  -20.7389  -13.1501 C   0  0  0  0  0  0  0  0  0  0  0  0
   24.0298  -19.9701  -14.1249 O   0  0  0  0  0  0  0  0  0  0  0  0
   23.1634  -21.3652  -12.5571 N   0  0  0  0  0  0  0  0  0  0  0  0
   21.7945  -21.1858  -13.0338 C   0  0  1  0  0  0  0  0  0  0  0  0
   20.9914  -22.2940  -12.4307 C   0  0  0  0  0  0  0  0  0  0  0  0
   19.5501  -22.1427  -12.7644 C   0  0  0  0  0  0  0  0  0  0  0  0
   18.8764  -23.4823  -12.6719 C   0  0  0  0  0  0  0  0  0  0  0  0
   18.8693  -24.1983  -13.6942 O   0  0  0  0  0  0  0  0  0  0  0  0
   21.2866  -19.8782  -12.5849 C   0  0  0  0  0  0  0  0  0  0  0  0
   20.2631  -19.2162  -13.2904 O   0  0  0  0  0  0  0  0  0  0  0  0
   18.2941  -23.8951  -11.5051 O   0  0  0  0  0  0  0  0  0  0  0  0
   21.7027  -19.2593  -11.5741 O   0  0  0  0  0  0  0  0  0  0  0  0
  2  1  1  0
  3  2  1  0
  4  3  1  0
  5  4  1  0
  5  6  1  6
  7  5  1  0
  7  8  2  0
  9  7  1  0
 10  9  1  0
 10 11  1  6
 11 12  1  0
 12 13  2  0
 12 20  1  0
 13 14  1  0
 14 15  1  0
 15 16  2  0
 16 17  1  0
 18 17  2  0
 19 18  1  0
 20 19  2  0
 20 15  1  0
 21 10  1  0
 22 21  2  0
 23 21  1  0
 24 25  1  1
 24 23  1  0
 25 26  1  0
 26 27  1  0
 27 31  1  0
 27 28  2  0
 29 30  1  0
 29 24  1  0
 32 29  2  0
M  END
$$$$
