MWE.pdb
     RDKit          3D

 32 33  0  0  1  0  0  0  0  0999 V2000
   15.2978  -23.2385    3.0198 C   0  0  0  0  0  0  0  0  0  0  0  0
   16.4440  -21.9299    3.4322 S   0  0  0  0  0  0  0  0  0  0  0  0
   16.4745  -20.5561    2.3151 C   0  0  0  0  0  0  0  0  0  0  0  0
   17.3120  -19.3996    2.7594 C   0  0  0  0  0  0  0  0  0  0  0  0
   16.6263  -18.6240    3.8429 C   0  0  2  0  0  0  0  0  0  0  0  0
   15.6586  -17.7533    3.1962 N   0  0  0  0  0  0  0  0  0  0  0  0
   17.6122  -17.7599    4.5860 C   0  0  0  0  0  0  0  0  0  0  0  0
   18.5743  -17.2472    3.9733 O   0  0  0  0  0  0  0  0  0  0  0  0
   17.4723  -17.5188    5.9530 N   0  0  0  0  0  0  0  0  0  0  0  0
   18.3765  -16.6664    6.7504 C   0  0  1  0  0  0  0  0  0  0  0  0
   17.6654  -15.3977    6.9306 C   0  0  0  0  0  0  0  0  0  0  0  0
   18.1334  -14.2022    6.2583 C   0  0  0  0  0  0  0  0  0  0  0  0
   17.5565  -13.6030    5.1748 C   0  0  0  0  0  0  0  0  0  0  0  0
   18.2912  -12.5386    4.8471 N   0  0  0  0  0  0  0  0  0  0  0  0
   19.3437  -12.4106    5.6828 C   0  0  0  0  0  0  0  0  0  0  0  0
   20.3690  -11.4841    5.7471 C   0  0  0  0  0  0  0  0  0  0  0  0
   21.3496  -11.5826    6.7285 C   0  0  0  0  0  0  0  0  0  0  0  0
   21.2617  -12.6199    7.6179 C   0  0  0  0  0  0  0  0  0  0  0  0
   20.2390  -13.5363    7.5465 C   0  0  0  0  0  0  0  0  0  0  0  0
   19.2473  -13.4577    6.5736 C   0  0  0  0  0  0  0  0  0  0  0  0
   18.7876  -17.4510    7.8854 C   0  0  0  0  0  0  0  0  0  0  0  0
   17.9909  -18.2854    8.4031 O   0  0  0  0  0  0  0  0  0  0  0  0
   20.0580  -17.3485    8.4719 N   0  0  0  0  0  0  0  0  0  0  0  0
   20.4551  -18.1095    9.6537 C   0  0  1  0  0  0  0  0  0  0  0  0
   21.9262  -17.8946    9.8165 C   0  0  0  0  0  0  0  0  0  0  0  0
   22.4293  -18.5895   11.0312 C   0  0  0  0  0  0  0  0  0  0  0  0
   23.9164  -18.4006   11.1304 C   0  0  0  0  0  0  0  0  0  0  0  0
   24.5064  -17.9233   10.1394 O   0  0  0  0  0  0  0  0  0  0  0  0
   19.7272  -17.6035   10.8299 C   0  0  0  0  0  0  0  0  0  0  0  0
   19.4579  -16.2294   10.9808 O   0  0  0  0  0  0  0  0  0  0  0  0
   24.5920  -18.7418   12.2696 O   0  0  0  0  0  0  0  0  0  0  0  0
   19.2979  -18.3213   11.7671 O   0  0  0  0  0  0  0  0  0  0  0  0
  2  1  1  0
  3  2  1  0
  4  3  1  0
  5  4  1  0
  5  6  1  6
  7  5  1  0
  7  8  2  0
  9  7  1  0
 10  9  1  0
 10 11  1  1
 11 12  1  0
 12 13  2  0
 12 20  1  0
 13 14  1  0
 14 15  1  0
 15 16  2  0
 16 17  1  0
 18 17  2  0
 19 18  1  0
 20 19  2  0
 20 15  1  0
 21 10  1  0
 22 21  2  0
 23 21  1  0
 24 25  1  1
 24 23  1  0
 25 26  1  0
 26 27  1  0
 27 31  1  0
 27 28  2  0
 29 30  1  0
 29 24  1  0
 32 29  2  0
M  END
$$$$
