MWE.pdb
     RDKit          3D

 32 33  0  0  1  0  0  0  0  0999 V2000
   24.5912  -21.3987  -19.5158 C   0  0  0  0  0  0  0  0  0  0  0  0
   26.1631  -22.1284  -19.9547 S   0  0  0  0  0  0  0  0  0  0  0  0
   27.2317  -22.5223  -18.5985 C   0  0  0  0  0  0  0  0  0  0  0  0
   26.5406  -22.7213  -17.2874 C   0  0  0  0  0  0  0  0  0  0  0  0
   26.9682  -21.6862  -16.2917 C   0  0  2  0  0  0  0  0  0  0  0  0
   28.3296  -22.0102  -15.8987 N   0  0  0  0  0  0  0  0  0  0  0  0
   26.0995  -21.7388  -15.0614 C   0  0  0  0  0  0  0  0  0  0  0  0
   25.4524  -22.7768  -14.8015 O   0  0  0  0  0  0  0  0  0  0  0  0
   26.0020  -20.6451  -14.2007 N   0  0  0  0  0  0  0  0  0  0  0  0
   25.2585  -20.6464  -12.9251 C   0  0  1  0  0  0  0  0  0  0  0  0
   25.9632  -19.6990  -12.0570 C   0  0  0  0  0  0  0  0  0  0  0  0
   27.1086  -20.1368  -11.2847 C   0  0  0  0  0  0  0  0  0  0  0  0
   28.2818  -20.6285  -11.7823 C   0  0  0  0  0  0  0  0  0  0  0  0
   29.0767  -20.9300  -10.7540 N   0  0  0  0  0  0  0  0  0  0  0  0
   28.4657  -20.6529   -9.5824 C   0  0  0  0  0  0  0  0  0  0  0  0
   28.8752  -20.7905   -8.2681 C   0  0  0  0  0  0  0  0  0  0  0  0
   28.0336  -20.4223   -7.2239 C   0  0  0  0  0  0  0  0  0  0  0  0
   26.7988  -19.9243   -7.5434 C   0  0  0  0  0  0  0  0  0  0  0  0
   26.4001  -19.7910   -8.8526 C   0  0  0  0  0  0  0  0  0  0  0  0
   27.2249  -20.1527   -9.9134 C   0  0  0  0  0  0  0  0  0  0  0  0
   23.8709  -20.4535  -13.2570 C   0  0  0  0  0  0  0  0  0  0  0  0
   23.5076  -19.4248  -13.8964 O   0  0  0  0  0  0  0  0  0  0  0  0
   22.8625  -21.3643  -12.9079 N   0  0  0  0  0  0  0  0  0  0  0  0
   21.4515  -21.1505  -13.2185 C   0  0  1  0  0  0  0  0  0  0  0  0
   20.8289  -22.5081  -13.2986 C   0  0  0  0  0  0  0  0  0  0  0  0
   20.4047  -22.8123  -14.6910 C   0  0  0  0  0  0  0  0  0  0  0  0
   20.8407  -24.2046  -15.0492 C   0  0  0  0  0  0  0  0  0  0  0  0
   21.3775  -24.8908  -14.1554 O   0  0  0  0  0  0  0  0  0  0  0  0
   20.8274  -20.3601  -12.1438 C   0  0  0  0  0  0  0  0  0  0  0  0
   19.5959  -19.7069  -12.3447 O   0  0  0  0  0  0  0  0  0  0  0  0
   20.6523  -24.6953  -16.3120 O   0  0  0  0  0  0  0  0  0  0  0  0
   21.3160  -20.2026  -10.9973 O   0  0  0  0  0  0  0  0  0  0  0  0
  2  1  1  0
  3  2  1  0
  4  3  1  0
  5  4  1  0
  5  6  1  1
  7  5  1  0
  7  8  2  0
  9  7  1  0
 10  9  1  0
 10 11  1  1
 11 12  1  0
 12 13  2  0
 12 20  1  0
 13 14  1  0
 14 15  1  0
 15 16  2  0
 16 17  1  0
 18 17  2  0
 19 18  1  0
 20 19  2  0
 20 15  1  0
 21 10  1  0
 22 21  2  0
 23 21  1  0
 24 25  1  1
 24 23  1  0
 25 26  1  0
 26 27  1  0
 27 31  1  0
 27 28  2  0
 29 30  1  0
 29 24  1  0
 32 29  2  0
M  END
$$$$
