MWE.pdb
     RDKit          3D

 32 33  0  0  1  0  0  0  0  0999 V2000
   25.8412  -18.0338  -17.5073 C   0  0  0  0  0  0  0  0  0  0  0  0
   27.5861  -18.3444  -17.7422 S   0  0  0  0  0  0  0  0  0  0  0  0
   28.3162  -19.5066  -16.6232 C   0  0  0  0  0  0  0  0  0  0  0  0
   27.4099  -19.9927  -15.5376 C   0  0  0  0  0  0  0  0  0  0  0  0
   28.1014  -21.0010  -14.6711 C   0  0  2  0  0  0  0  0  0  0  0  0
   28.2754  -22.2020  -15.4711 N   0  0  0  0  0  0  0  0  0  0  0  0
   27.2508  -21.3513  -13.4775 C   0  0  0  0  0  0  0  0  0  0  0  0
   26.2744  -22.1204  -13.6146 O   0  0  0  0  0  0  0  0  0  0  0  0
   27.5327  -20.8311  -12.2140 N   0  0  0  0  0  0  0  0  0  0  0  0
   26.6925  -21.0355  -11.0172 C   0  0  1  0  0  0  0  0  0  0  0  0
   27.5787  -20.8153   -9.8710 C   0  0  0  0  0  0  0  0  0  0  0  0
   27.0186  -20.6074   -8.5507 C   0  0  0  0  0  0  0  0  0  0  0  0
   25.6975  -20.6760   -8.2106 C   0  0  0  0  0  0  0  0  0  0  0  0
   25.5885  -20.4112   -6.9074 N   0  0  0  0  0  0  0  0  0  0  0  0
   26.8018  -20.1673   -6.3677 C   0  0  0  0  0  0  0  0  0  0  0  0
   27.1971  -19.8517   -5.0801 C   0  0  0  0  0  0  0  0  0  0  0  0
   28.5403  -19.6453   -4.7842 C   0  0  0  0  0  0  0  0  0  0  0  0
   29.4453  -19.7654   -5.8047 C   0  0  0  0  0  0  0  0  0  0  0  0
   29.0434  -20.0794   -7.0816 C   0  0  0  0  0  0  0  0  0  0  0  0
   27.7055  -20.2902   -7.4009 C   0  0  0  0  0  0  0  0  0  0  0  0
   25.5105  -20.2346  -11.2022 C   0  0  0  0  0  0  0  0  0  0  0  0
   25.6022  -19.0674  -11.6800 O   0  0  0  0  0  0  0  0  0  0  0  0
   24.2204  -20.6810  -10.8787 N   0  0  0  0  0  0  0  0  0  0  0  0
   23.0077  -19.9640  -11.2644 C   0  0  1  0  0  0  0  0  0  0  0  0
   22.9597  -19.9941  -12.7589 C   0  0  0  0  0  0  0  0  0  0  0  0
   22.8636  -21.3926  -13.2553 C   0  0  0  0  0  0  0  0  0  0  0  0
   22.3192  -21.3854  -14.6555 C   0  0  0  0  0  0  0  0  0  0  0  0
   21.9168  -20.2966  -15.1143 O   0  0  0  0  0  0  0  0  0  0  0  0
   21.8328  -20.6478  -10.6973 C   0  0  0  0  0  0  0  0  0  0  0  0
   21.9588  -21.8950  -10.0553 O   0  0  0  0  0  0  0  0  0  0  0  0
   22.2699  -22.5354  -15.3944 O   0  0  0  0  0  0  0  0  0  0  0  0
   20.6598  -20.1999  -10.7331 O   0  0  0  0  0  0  0  0  0  0  0  0
  2  1  1  0
  3  2  1  0
  4  3  1  0
  5  4  1  0
  5  6  1  6
  7  5  1  0
  7  8  2  0
  9  7  1  0
 10  9  1  0
 10 11  1  1
 11 12  1  0
 12 13  2  0
 12 20  1  0
 13 14  1  0
 14 15  1  0
 15 16  2  0
 16 17  1  0
 18 17  2  0
 19 18  1  0
 20 19  2  0
 20 15  1  0
 21 10  1  0
 22 21  2  0
 23 21  1  0
 24 25  1  6
 24 23  1  0
 25 26  1  0
 26 27  1  0
 27 31  1  0
 27 28  2  0
 29 30  1  0
 29 24  1  0
 32 29  2  0
M  END
$$$$
