MWE.pdb
     RDKit          3D

 32 33  0  0  1  0  0  0  0  0999 V2000
   29.9605  -16.7387  -17.1257 C   0  0  0  0  0  0  0  0  0  0  0  0
   28.9116  -18.0153  -16.4427 S   0  0  0  0  0  0  0  0  0  0  0  0
   28.0734  -17.5972  -14.9399 C   0  0  0  0  0  0  0  0  0  0  0  0
   27.1827  -18.6677  -14.3949 C   0  0  0  0  0  0  0  0  0  0  0  0
   27.9431  -19.5929  -13.4941 C   0  0  2  0  0  0  0  0  0  0  0  0
   28.6830  -20.5066  -14.3489 N   0  0  0  0  0  0  0  0  0  0  0  0
   26.9998  -20.4050  -12.6447 C   0  0  0  0  0  0  0  0  0  0  0  0
   26.6020  -21.5193  -13.0494 O   0  0  0  0  0  0  0  0  0  0  0  0
   26.5582  -19.9353  -11.4073 N   0  0  0  0  0  0  0  0  0  0  0  0
   25.5451  -20.6068  -10.5692 C   0  0  1  0  0  0  0  0  0  0  0  0
   25.8935  -20.2725   -9.1855 C   0  0  0  0  0  0  0  0  0  0  0  0
   27.1925  -20.6372   -8.6565 C   0  0  0  0  0  0  0  0  0  0  0  0
   28.1457  -21.3826   -9.2901 C   0  0  0  0  0  0  0  0  0  0  0  0
   29.1906  -21.5071   -8.4697 N   0  0  0  0  0  0  0  0  0  0  0  0
   28.9608  -20.8647   -7.3047 C   0  0  0  0  0  0  0  0  0  0  0  0
   29.7283  -20.7107   -6.1641 C   0  0  0  0  0  0  0  0  0  0  0  0
   29.2453  -19.9849   -5.0804 C   0  0  0  0  0  0  0  0  0  0  0  0
   27.9956  -19.4353   -5.1853 C   0  0  0  0  0  0  0  0  0  0  0  0
   27.2397  -19.5935   -6.3229 C   0  0  0  0  0  0  0  0  0  0  0  0
   27.7021  -20.3153   -7.4191 C   0  0  0  0  0  0  0  0  0  0  0  0
   24.2601  -20.2532  -11.1139 C   0  0  0  0  0  0  0  0  0  0  0  0
   23.9661  -19.0393  -11.3116 O   0  0  0  0  0  0  0  0  0  0  0  0
   23.2816  -21.1996  -11.4533 N   0  0  0  0  0  0  0  0  0  0  0  0
   22.0131  -20.8447  -12.0844 C   0  0  1  0  0  0  0  0  0  0  0  0
   21.9644  -21.5928  -13.3786 C   0  0  0  0  0  0  0  0  0  0  0  0
   22.9440  -21.0339  -14.3478 C   0  0  0  0  0  0  0  0  0  0  0  0
   23.5434  -22.1546  -15.1489 C   0  0  0  0  0  0  0  0  0  0  0  0
   24.0923  -23.0843  -14.5227 O   0  0  0  0  0  0  0  0  0  0  0  0
   20.8999  -21.2534  -11.2109 C   0  0  0  0  0  0  0  0  0  0  0  0
   19.5641  -20.9737  -11.5587 O   0  0  0  0  0  0  0  0  0  0  0  0
   23.4853  -22.1487  -16.5154 O   0  0  0  0  0  0  0  0  0  0  0  0
   21.0343  -21.8632  -10.1209 O   0  0  0  0  0  0  0  0  0  0  0  0
  2  1  1  0
  3  2  1  0
  4  3  1  0
  5  4  1  0
  5  6  1  6
  7  5  1  0
  7  8  2  0
  9  7  1  0
 10  9  1  0
 10 11  1  1
 11 12  1  0
 12 13  2  0
 12 20  1  0
 13 14  1  0
 14 15  1  0
 15 16  2  0
 16 17  1  0
 18 17  2  0
 19 18  1  0
 20 19  2  0
 20 15  1  0
 21 10  1  0
 22 21  2  0
 23 21  1  0
 24 25  1  6
 24 23  1  0
 25 26  1  0
 26 27  1  0
 27 31  1  0
 27 28  2  0
 29 30  1  0
 29 24  1  0
 32 29  2  0
M  END
$$$$
