MWE.pdb
     RDKit          3D

 32 33  0  0  1  0  0  0  0  0999 V2000
   25.5690  -11.5191  -24.1348 C   0  0  0  0  0  0  0  0  0  0  0  0
   24.7941  -10.7875  -22.6993 S   0  0  0  0  0  0  0  0  0  0  0  0
   24.1545  -11.9296  -21.5067 C   0  0  0  0  0  0  0  0  0  0  0  0
   23.3853  -11.3071  -20.3855 C   0  0  0  0  0  0  0  0  0  0  0  0
   24.1862  -10.2320  -19.7158 C   0  0  2  0  0  0  0  0  0  0  0  0
   25.4329  -10.8389  -19.2797 N   0  0  0  0  0  0  0  0  0  0  0  0
   23.4668   -9.7110  -18.4985 C   0  0  0  0  0  0  0  0  0  0  0  0
   22.3067   -9.2576  -18.6090 O   0  0  0  0  0  0  0  0  0  0  0  0
   24.0733   -9.7243  -17.2421 N   0  0  0  0  0  0  0  0  0  0  0  0
   23.3877   -9.3934  -15.9772 C   0  0  1  0  0  0  0  0  0  0  0  0
   24.0493  -10.1993  -14.9474 C   0  0  0  0  0  0  0  0  0  0  0  0
   23.8414  -11.6328  -14.9037 C   0  0  0  0  0  0  0  0  0  0  0  0
   24.7923  -12.5828  -14.6609 C   0  0  0  0  0  0  0  0  0  0  0  0
   24.2083  -13.7811  -14.7185 N   0  0  0  0  0  0  0  0  0  0  0  0
   22.8923  -13.6570  -14.9933 C   0  0  0  0  0  0  0  0  0  0  0  0
   21.8860  -14.5931  -15.1508 C   0  0  0  0  0  0  0  0  0  0  0  0
   20.5857  -14.1909  -15.4371 C   0  0  0  0  0  0  0  0  0  0  0  0
   20.3434  -12.8485  -15.5555 C   0  0  0  0  0  0  0  0  0  0  0  0
   21.3499  -11.9250  -15.3973 C   0  0  0  0  0  0  0  0  0  0  0  0
   22.6578  -12.3041  -15.1107 C   0  0  0  0  0  0  0  0  0  0  0  0
   23.3605   -7.9566  -15.8872 C   0  0  0  0  0  0  0  0  0  0  0  0
   24.3702   -7.2791  -16.2341 O   0  0  0  0  0  0  0  0  0  0  0  0
   22.2485   -7.2356  -15.4268 N   0  0  0  0  0  0  0  0  0  0  0  0
   22.2118   -5.7766  -15.3688 C   0  0  1  0  0  0  0  0  0  0  0  0
   20.8970   -5.3663  -15.9519 C   0  0  0  0  0  0  0  0  0  0  0  0
   20.7520   -3.8864  -15.9360 C   0  0  0  0  0  0  0  0  0  0  0  0
   19.4436   -3.5096  -16.5708 C   0  0  0  0  0  0  0  0  0  0  0  0
   18.7199   -4.4330  -16.9968 O   0  0  0  0  0  0  0  0  0  0  0  0
   22.3122   -5.3393  -13.9660 C   0  0  0  0  0  0  0  0  0  0  0  0
   22.6659   -4.0150  -13.6422 O   0  0  0  0  0  0  0  0  0  0  0  0
   19.0663   -2.1989  -16.6743 O   0  0  0  0  0  0  0  0  0  0  0  0
   22.1006   -6.0767  -12.9713 O   0  0  0  0  0  0  0  0  0  0  0  0
  2  1  1  0
  3  2  1  0
  4  3  1  0
  5  4  1  0
  5  6  1  1
  7  5  1  0
  7  8  2  0
  9  7  1  0
 10  9  1  0
 10 11  1  1
 11 12  1  0
 12 13  2  0
 12 20  1  0
 13 14  1  0
 14 15  1  0
 15 16  2  0
 16 17  1  0
 18 17  2  0
 19 18  1  0
 20 19  2  0
 20 15  1  0
 21 10  1  0
 22 21  2  0
 23 21  1  0
 24 25  1  1
 24 23  1  0
 25 26  1  0
 26 27  1  0
 27 31  1  0
 27 28  2  0
 29 30  1  0
 29 24  1  0
 32 29  2  0
M  END
$$$$
