MWE.pdb
     RDKit          3D

 32 33  0  0  1  0  0  0  0  0999 V2000
   28.6466  -19.6074  -18.4515 C   0  0  0  0  0  0  0  0  0  0  0  0
   27.9195  -18.2664  -17.5191 S   0  0  0  0  0  0  0  0  0  0  0  0
   28.4246  -18.1468  -15.8259 C   0  0  0  0  0  0  0  0  0  0  0  0
   27.5563  -18.8810  -14.8547 C   0  0  0  0  0  0  0  0  0  0  0  0
   28.3321  -19.9426  -14.1358 C   0  0  2  0  0  0  0  0  0  0  0  0
   28.7174  -20.9333  -15.1271 N   0  0  0  0  0  0  0  0  0  0  0  0
   27.4729  -20.6230  -13.1016 C   0  0  0  0  0  0  0  0  0  0  0  0
   26.6495  -21.4955  -13.4543 O   0  0  0  0  0  0  0  0  0  0  0  0
   27.5781  -20.2966  -11.7492 N   0  0  0  0  0  0  0  0  0  0  0  0
   26.7273  -20.8606  -10.6825 C   0  0  1  0  0  0  0  0  0  0  0  0
   27.5104  -20.7420   -9.4494 C   0  0  0  0  0  0  0  0  0  0  0  0
   26.8495  -20.8081   -8.1614 C   0  0  0  0  0  0  0  0  0  0  0  0
   25.6208  -21.3482   -7.9075 C   0  0  0  0  0  0  0  0  0  0  0  0
   25.3629  -21.2034   -6.6064 N   0  0  0  0  0  0  0  0  0  0  0  0
   26.3866  -20.5809   -5.9842 C   0  0  0  0  0  0  0  0  0  0  0  0
   26.5836  -20.2126   -4.6654 C   0  0  0  0  0  0  0  0  0  0  0  0
   27.7539  -19.5679   -4.2792 C   0  0  0  0  0  0  0  0  0  0  0  0
   28.6922  -19.3149   -5.2437 C   0  0  0  0  0  0  0  0  0  0  0  0
   28.4880  -19.6844   -6.5523 C   0  0  0  0  0  0  0  0  0  0  0  0
   27.3254  -20.3303   -6.9616 C   0  0  0  0  0  0  0  0  0  0  0  0
   25.4401  -20.2272  -10.8044 C   0  0  0  0  0  0  0  0  0  0  0  0
   25.3611  -19.0009  -11.1026 O   0  0  0  0  0  0  0  0  0  0  0  0
   24.2275  -20.9055  -10.6100 N   0  0  0  0  0  0  0  0  0  0  0  0
   22.9533  -20.4312  -11.1439 C   0  0  1  0  0  0  0  0  0  0  0  0
   23.1169  -20.3714  -12.6294 C   0  0  0  0  0  0  0  0  0  0  0  0
   21.8279  -20.0314  -13.2884 C   0  0  0  0  0  0  0  0  0  0  0  0
   21.6013  -18.5489  -13.1992 C   0  0  0  0  0  0  0  0  0  0  0  0
   22.1754  -17.8243  -14.0378 O   0  0  0  0  0  0  0  0  0  0  0  0
   21.8864  -21.3795  -10.7808 C   0  0  0  0  0  0  0  0  0  0  0  0
   20.6159  -20.9234  -10.3793 O   0  0  0  0  0  0  0  0  0  0  0  0
   20.7932  -18.0202  -12.2305 O   0  0  0  0  0  0  0  0  0  0  0  0
   22.0070  -22.6298  -10.7953 O   0  0  0  0  0  0  0  0  0  0  0  0
  2  1  1  0
  3  2  1  0
  4  3  1  0
  5  4  1  0
  5  6  1  6
  7  5  1  0
  7  8  2  0
  9  7  1  0
 10  9  1  0
 10 11  1  1
 11 12  1  0
 12 13  2  0
 12 20  1  0
 13 14  1  0
 14 15  1  0
 15 16  2  0
 16 17  1  0
 18 17  2  0
 19 18  1  0
 20 19  2  0
 20 15  1  0
 21 10  1  0
 22 21  2  0
 23 21  1  0
 24 25  1  6
 24 23  1  0
 25 26  1  0
 26 27  1  0
 27 31  1  0
 27 28  2  0
 29 30  1  0
 29 24  1  0
 32 29  2  0
M  END
$$$$
