KVQ.pdb
     RDKit          3D

 26 25  0  0  1  0  0  0  0  0999 V2000
    8.3606  -15.0145   20.8440 N   0  0  0  0  0  0  0  0  0  0  0  0
    7.4748  -15.4231   21.9485 C   0  0  1  0  0  0  0  0  0  0  0  0
    7.5630  -16.9219   22.0541 C   0  0  0  0  0  0  0  0  0  0  0  0
    6.8600  -17.6780   20.9856 C   0  0  0  0  0  0  0  0  0  0  0  0
    7.5408  -17.6400   19.6506 C   0  0  0  0  0  0  0  0  0  0  0  0
    6.7583  -18.3124   18.5605 C   0  0  0  0  0  0  0  0  0  0  0  0
    7.3549  -18.1969   17.2679 N   0  0  0  0  0  0  0  0  0  0  0  0
    7.9926  -14.7201   23.1552 C   0  0  0  0  0  0  0  0  0  0  0  0
    9.2578  -14.5682   23.2465 O   0  0  0  0  0  0  0  0  0  0  0  0
    6.1109  -11.7362   25.3617 C   0  0  0  0  0  0  0  0  0  0  0  0
    6.6783  -12.9060   26.0784 C   0  0  2  0  0  0  0  0  0  0  0  0
    7.2731  -12.4104   27.4026 C   0  0  0  0  0  0  0  0  0  0  0  0
    7.7606  -13.6605   25.3775 C   0  0  2  0  0  0  0  0  0  0  0  0
    7.1564  -14.2276   24.1765 N   0  0  0  0  0  0  0  0  0  0  0  0
    8.3233  -14.6965   26.2397 C   0  0  0  0  0  0  0  0  0  0  0  0
    7.5471  -15.6656   26.5695 O   0  0  0  0  0  0  0  0  0  0  0  0
   12.0218  -16.6888   24.0454 N   0  0  0  0  0  0  0  0  0  0  0  0
   12.8480  -16.2856   25.1110 C   0  0  0  0  0  0  0  0  0  0  0  0
   13.9975  -15.8726   24.8935 O   0  0  0  0  0  0  0  0  0  0  0  0
   12.3572  -16.3471   26.5243 C   0  0  0  0  0  0  0  0  0  0  0  0
   10.9410  -16.8220   26.5897 C   0  0  0  0  0  0  0  0  0  0  0  0
   10.0993  -15.9757   27.4872 C   0  0  2  0  0  0  0  0  0  0  0  0
    9.6210  -14.7842   26.7653 N   0  0  0  0  0  0  0  0  0  0  0  0
   10.8017  -15.5116   28.6897 C   0  0  0  0  0  0  0  0  0  0  0  0
   11.3270  -16.4445   29.6071 O   0  0  0  0  0  0  0  0  0  0  0  0
   10.9847  -14.2829   28.9882 O   0  0  0  0  0  0  0  0  0  0  0  0
  2  3  1  0
  2  1  1  6
  4  5  1  0
  4  3  1  0
  5  6  1  0
  7  6  1  0
  8  9  2  0
  8  2  1  0
 11 10  1  6
 11 13  1  0
 11 12  1  0
 13 15  1  0
 13 14  1  6
 14  8  1  0
 15 16  2  0
 17 18  1  0
 18 20  1  0
 18 19  2  0
 20 21  1  0
 22 21  1  6
 22 24  1  0
 23 22  1  0
 23 15  1  0
 24 26  2  0
 24 25  1  0
M  END
$$$$
