KVQ.pdb
     RDKit          3D

 26 25  0  0  1  0  0  0  0  0999 V2000
    6.3523  -16.6767   21.7506 N   0  0  0  0  0  0  0  0  0  0  0  0
    5.9840  -16.6884   23.1774 C   0  0  1  0  0  0  0  0  0  0  0  0
    6.1614  -18.1002   23.6678 C   0  0  0  0  0  0  0  0  0  0  0  0
    5.4474  -19.1410   22.8838 C   0  0  0  0  0  0  0  0  0  0  0  0
    5.6420  -20.5386   23.3896 C   0  0  0  0  0  0  0  0  0  0  0  0
    4.9421  -21.5773   22.5625 C   0  0  0  0  0  0  0  0  0  0  0  0
    3.5193  -21.5476   22.6838 N   0  0  0  0  0  0  0  0  0  0  0  0
    6.9059  -15.7205   23.8347 C   0  0  0  0  0  0  0  0  0  0  0  0
    8.0873  -15.6215   23.3585 O   0  0  0  0  0  0  0  0  0  0  0  0
    5.8433  -12.1163   25.4516 C   0  0  0  0  0  0  0  0  0  0  0  0
    6.7338  -12.9818   26.2652 C   0  0  2  0  0  0  0  0  0  0  0  0
    7.7585  -12.0830   26.9689 C   0  0  0  0  0  0  0  0  0  0  0  0
    7.5111  -14.0236   25.5284 C   0  0  2  0  0  0  0  0  0  0  0  0
    6.5306  -14.9283   24.9375 N   0  0  0  0  0  0  0  0  0  0  0  0
    8.4260  -14.7282   26.4227 C   0  0  0  0  0  0  0  0  0  0  0  0
    7.9763  -15.0485   27.5827 O   0  0  0  0  0  0  0  0  0  0  0  0
    7.8705  -19.4309   27.9222 N   0  0  0  0  0  0  0  0  0  0  0  0
    9.2667  -19.2604   27.9686 C   0  0  0  0  0  0  0  0  0  0  0  0
    9.8892  -19.4576   29.0235 O   0  0  0  0  0  0  0  0  0  0  0  0
   10.0262  -18.8388   26.7489 C   0  0  0  0  0  0  0  0  0  0  0  0
    9.5198  -17.5380   26.2136 C   0  0  0  0  0  0  0  0  0  0  0  0
   10.3126  -16.3732   26.7082 C   0  0  2  0  0  0  0  0  0  0  0  0
    9.7533  -15.1151   26.1848 N   0  0  0  0  0  0  0  0  0  0  0  0
   11.7294  -16.4195   26.3267 C   0  0  0  0  0  0  0  0  0  0  0  0
   12.1943  -15.6553   25.2368 O   0  0  0  0  0  0  0  0  0  0  0  0
   12.6136  -17.1230   26.9230 O   0  0  0  0  0  0  0  0  0  0  0  0
  2  3  1  0
  2  1  1  6
  4  5  1  0
  4  3  1  0
  5  6  1  0
  7  6  1  0
  8  9  2  0
  8  2  1  0
 11 10  1  6
 11 13  1  0
 11 12  1  0
 13 15  1  0
 13 14  1  1
 14  8  1  0
 15 16  2  0
 17 18  1  0
 18 20  1  0
 18 19  2  0
 20 21  1  0
 22 21  1  6
 22 24  1  0
 23 22  1  0
 23 15  1  0
 24 26  2  0
 24 25  1  0
M  END
$$$$
