KVQ.pdb
     RDKit          3D

 26 25  0  0  1  0  0  0  0  0999 V2000
    6.5955  -15.2187   22.0001 N   0  0  0  0  0  0  0  0  0  0  0  0
    8.0176  -14.9042   21.7759 C   0  0  1  0  0  0  0  0  0  0  0  0
    8.0691  -13.7812   20.7752 C   0  0  0  0  0  0  0  0  0  0  0  0
    7.5694  -14.1156   19.4165 C   0  0  0  0  0  0  0  0  0  0  0  0
    8.0876  -13.2226   18.3297 C   0  0  0  0  0  0  0  0  0  0  0  0
    7.5422  -13.5545   16.9714 C   0  0  0  0  0  0  0  0  0  0  0  0
    8.0149  -12.6934   15.9346 N   0  0  0  0  0  0  0  0  0  0  0  0
    8.5566  -14.5234   23.1111 C   0  0  0  0  0  0  0  0  0  0  0  0
    9.8045  -14.2593   23.1851 O   0  0  0  0  0  0  0  0  0  0  0  0
    6.0472  -14.0059   26.5233 C   0  0  0  0  0  0  0  0  0  0  0  0
    7.3522  -13.3297   26.3144 C   0  0  2  0  0  0  0  0  0  0  0  0
    7.0953  -12.0243   25.5510 C   0  0  0  0  0  0  0  0  0  0  0  0
    8.3814  -14.0852   25.5385 C   0  0  2  0  0  0  0  0  0  0  0  0
    7.7583  -14.4456   24.2693 N   0  0  0  0  0  0  0  0  0  0  0  0
    8.8332  -15.2643   26.2725 C   0  0  0  0  0  0  0  0  0  0  0  0
    7.9368  -16.1218   26.6068 O   0  0  0  0  0  0  0  0  0  0  0  0
   13.2841  -18.0092   23.4565 N   0  0  0  0  0  0  0  0  0  0  0  0
   12.9882  -17.4520   24.7146 C   0  0  0  0  0  0  0  0  0  0  0  0
   13.8294  -16.7606   25.3092 O   0  0  0  0  0  0  0  0  0  0  0  0
   11.6559  -17.6820   25.3582 C   0  0  0  0  0  0  0  0  0  0  0  0
   11.7148  -17.4457   26.8333 C   0  0  0  0  0  0  0  0  0  0  0  0
   10.4489  -16.8587   27.3653 C   0  0  2  0  0  0  0  0  0  0  0  0
   10.1368  -15.5995   26.6678 N   0  0  0  0  0  0  0  0  0  0  0  0
   10.4922  -16.5683   28.8036 C   0  0  0  0  0  0  0  0  0  0  0  0
   10.6598  -17.6156   29.7325 O   0  0  0  0  0  0  0  0  0  0  0  0
   10.3861  -15.3984   29.3060 O   0  0  0  0  0  0  0  0  0  0  0  0
  2  3  1  0
  2  1  1  1
  4  5  1  0
  4  3  1  0
  5  6  1  0
  7  6  1  0
  8  9  2  0
  8  2  1  0
 11 10  1  6
 11 13  1  0
 11 12  1  0
 13 15  1  0
 13 14  1  6
 14  8  1  0
 15 16  2  0
 17 18  1  0
 18 20  1  0
 18 19  2  0
 20 21  1  0
 22 21  1  6
 22 24  1  0
 23 22  1  0
 23 15  1  0
 24 26  2  0
 24 25  1  0
M  END
$$$$
