KVQ.pdb
     RDKit          3D

 26 25  0  0  1  0  0  0  0  0999 V2000
    7.6182  -14.6946   20.7285 N   0  0  0  0  0  0  0  0  0  0  0  0
    6.9116  -15.2117   21.9138 C   0  0  1  0  0  0  0  0  0  0  0  0
    6.9806  -16.7138   21.8487 C   0  0  0  0  0  0  0  0  0  0  0  0
    7.0976  -17.2873   20.4831 C   0  0  0  0  0  0  0  0  0  0  0  0
    6.9776  -18.7804   20.4268 C   0  0  0  0  0  0  0  0  0  0  0  0
    7.0933  -19.3382   19.0382 C   0  0  0  0  0  0  0  0  0  0  0  0
    5.8403  -19.7023   18.4574 N   0  0  0  0  0  0  0  0  0  0  0  0
    7.6324  -14.6432   23.0867 C   0  0  0  0  0  0  0  0  0  0  0  0
    8.9061  -14.5746   23.0142 O   0  0  0  0  0  0  0  0  0  0  0  0
    6.3119  -11.5202   25.3706 C   0  0  0  0  0  0  0  0  0  0  0  0
    6.8348  -12.7103   26.0876 C   0  0  2  0  0  0  0  0  0  0  0  0
    7.6063  -12.2227   27.3204 C   0  0  0  0  0  0  0  0  0  0  0  0
    7.7628  -13.5981   25.3240 C   0  0  2  0  0  0  0  0  0  0  0  0
    6.9752  -14.1886   24.2470 N   0  0  0  0  0  0  0  0  0  0  0  0
    8.3453  -14.6198   26.1900 C   0  0  0  0  0  0  0  0  0  0  0  0
    7.5750  -15.5796   26.5589 O   0  0  0  0  0  0  0  0  0  0  0  0
   13.7842  -19.2329   26.4627 N   0  0  0  0  0  0  0  0  0  0  0  0
   13.3776  -17.8879   26.5437 C   0  0  0  0  0  0  0  0  0  0  0  0
   14.0673  -16.9911   26.0344 O   0  0  0  0  0  0  0  0  0  0  0  0
   12.1082  -17.5140   27.2444 C   0  0  0  0  0  0  0  0  0  0  0  0
   11.4279  -16.3684   26.5661 C   0  0  0  0  0  0  0  0  0  0  0  0
   10.1943  -15.9334   27.2865 C   0  0  2  0  0  0  0  0  0  0  0  0
    9.6565  -14.7028   26.6818 N   0  0  0  0  0  0  0  0  0  0  0  0
   10.4080  -15.6674   28.7143 C   0  0  0  0  0  0  0  0  0  0  0  0
   10.6761  -16.7310   29.6001 O   0  0  0  0  0  0  0  0  0  0  0  0
   10.3697  -14.5055   29.2444 O   0  0  0  0  0  0  0  0  0  0  0  0
  2  3  1  0
  2  1  1  6
  4  5  1  0
  4  3  1  0
  5  6  1  0
  7  6  1  0
  8  9  2  0
  8  2  1  0
 11 10  1  6
 11 13  1  0
 11 12  1  0
 13 15  1  0
 13 14  1  6
 14  8  1  0
 15 16  2  0
 17 18  1  0
 18 20  1  0
 18 19  2  0
 20 21  1  0
 22 21  1  6
 22 24  1  0
 23 22  1  0
 23 15  1  0
 24 26  2  0
 24 25  1  0
M  END
$$$$
