KVQ.pdb
     RDKit          3D

 26 25  0  0  1  0  0  0  0  0999 V2000
    9.3863  -15.4331   21.2214 N   0  0  0  0  0  0  0  0  0  0  0  0
    8.2032  -15.6722   22.0668 C   0  0  1  0  0  0  0  0  0  0  0  0
    8.0731  -17.1624   22.2332 C   0  0  0  0  0  0  0  0  0  0  0  0
    8.0927  -17.9480   20.9723 C   0  0  0  0  0  0  0  0  0  0  0  0
    7.9719  -19.4297   21.1648 C   0  0  0  0  0  0  0  0  0  0  0  0
    7.8804  -20.1950   19.8769 C   0  0  0  0  0  0  0  0  0  0  0  0
    7.6698  -21.5966   20.0534 N   0  0  0  0  0  0  0  0  0  0  0  0
    8.4783  -14.9622   23.3469 C   0  0  0  0  0  0  0  0  0  0  0  0
    9.6909  -14.9269   23.7479 O   0  0  0  0  0  0  0  0  0  0  0  0
    6.5678  -11.5881   24.9810 C   0  0  0  0  0  0  0  0  0  0  0  0
    6.6971  -12.8402   25.7681 C   0  0  2  0  0  0  0  0  0  0  0  0
    6.9012  -12.4587   27.2397 C   0  0  0  0  0  0  0  0  0  0  0  0
    7.8243  -13.7492   25.4001 C   0  0  2  0  0  0  0  0  0  0  0  0
    7.4725  -14.3423   24.1143 N   0  0  0  0  0  0  0  0  0  0  0  0
    8.0350  -14.7680   26.4253 C   0  0  0  0  0  0  0  0  0  0  0  0
    7.1355  -15.6785   26.5359 O   0  0  0  0  0  0  0  0  0  0  0  0
   10.8151  -19.7478   27.4824 N   0  0  0  0  0  0  0  0  0  0  0  0
   11.7808  -18.7586   27.2188 C   0  0  0  0  0  0  0  0  0  0  0  0
   12.9829  -19.0572   27.1469 O   0  0  0  0  0  0  0  0  0  0  0  0
   11.3775  -17.3302   27.0204 C   0  0  0  0  0  0  0  0  0  0  0  0
    9.8901  -17.1794   27.0137 C   0  0  0  0  0  0  0  0  0  0  0  0
    9.4179  -16.1641   28.0018 C   0  0  2  0  0  0  0  0  0  0  0  0
    9.1067  -14.8953   27.3216 N   0  0  0  0  0  0  0  0  0  0  0  0
   10.3937  -15.8713   29.0586 C   0  0  0  0  0  0  0  0  0  0  0  0
   11.1297  -14.6691   29.0291 O   0  0  0  0  0  0  0  0  0  0  0  0
   10.6434  -16.6458   30.0436 O   0  0  0  0  0  0  0  0  0  0  0  0
  2  3  1  0
  2  1  1  6
  4  5  1  0
  4  3  1  0
  5  6  1  0
  7  6  1  0
  8  9  2  0
  8  2  1  0
 11 10  1  6
 11 13  1  0
 11 12  1  0
 13 15  1  0
 13 14  1  6
 14  8  1  0
 15 16  2  0
 17 18  1  0
 18 20  1  0
 18 19  2  0
 20 21  1  0
 22 21  1  6
 22 24  1  0
 23 22  1  0
 23 15  1  0
 24 26  2  0
 24 25  1  0
M  END
$$$$
