KVQ.pdb
     RDKit          3D

 26 25  0  0  1  0  0  0  0  0999 V2000
    8.4893  -14.9668   21.0086 N   0  0  0  0  0  0  0  0  0  0  0  0
    7.5143  -15.2724   22.0705 C   0  0  1  0  0  0  0  0  0  0  0  0
    7.3494  -16.7681   22.1016 C   0  0  0  0  0  0  0  0  0  0  0  0
    6.8917  -17.3848   20.8298 C   0  0  0  0  0  0  0  0  0  0  0  0
    6.7055  -18.8708   20.8948 C   0  0  0  0  0  0  0  0  0  0  0  0
    6.1336  -19.4579   19.6373 C   0  0  0  0  0  0  0  0  0  0  0  0
    6.0033  -20.8798   19.6728 N   0  0  0  0  0  0  0  0  0  0  0  0
    8.1039  -14.7225   23.3229 C   0  0  0  0  0  0  0  0  0  0  0  0
    9.3784  -14.6991   23.4088 O   0  0  0  0  0  0  0  0  0  0  0  0
    6.3989  -11.7266   25.7223 C   0  0  0  0  0  0  0  0  0  0  0  0
    6.9490  -12.9573   26.3441 C   0  0  2  0  0  0  0  0  0  0  0  0
    7.5872  -12.5695   27.6839 C   0  0  0  0  0  0  0  0  0  0  0  0
    7.9935  -13.6908   25.5675 C   0  0  2  0  0  0  0  0  0  0  0  0
    7.3246  -14.2382   24.3919 N   0  0  0  0  0  0  0  0  0  0  0  0
    8.6104  -14.7397   26.3752 C   0  0  0  0  0  0  0  0  0  0  0  0
    7.8284  -15.6319   26.8680 O   0  0  0  0  0  0  0  0  0  0  0  0
   14.0466  -17.5625   25.7844 N   0  0  0  0  0  0  0  0  0  0  0  0
   12.8568  -17.7034   25.0460 C   0  0  0  0  0  0  0  0  0  0  0  0
   12.8725  -18.2331   23.9242 O   0  0  0  0  0  0  0  0  0  0  0  0
   11.5524  -17.2182   25.5984 C   0  0  0  0  0  0  0  0  0  0  0  0
   11.7325  -16.5712   26.9341 C   0  0  0  0  0  0  0  0  0  0  0  0
   10.4479  -16.0526   27.4917 C   0  0  2  0  0  0  0  0  0  0  0  0
    9.9661  -14.9140   26.6911 N   0  0  0  0  0  0  0  0  0  0  0  0
   10.5492  -15.6017   28.8851 C   0  0  0  0  0  0  0  0  0  0  0  0
   10.4277  -14.2320   29.1964 O   0  0  0  0  0  0  0  0  0  0  0  0
   10.7466  -16.3774   29.8809 O   0  0  0  0  0  0  0  0  0  0  0  0
  2  3  1  0
  2  1  1  6
  4  5  1  0
  4  3  1  0
  5  6  1  0
  7  6  1  0
  8  9  2  0
  8  2  1  0
 11 10  1  6
 11 13  1  0
 11 12  1  0
 13 15  1  0
 13 14  1  6
 14  8  1  0
 15 16  2  0
 17 18  1  0
 18 20  1  0
 18 19  2  0
 20 21  1  0
 22 21  1  6
 22 24  1  0
 23 22  1  0
 23 15  1  0
 24 26  2  0
 24 25  1  0
M  END
$$$$
