KVQ.pdb
     RDKit          3D

 26 25  0  0  1  0  0  0  0  0999 V2000
    8.6765  -15.4484   21.0601 N   0  0  0  0  0  0  0  0  0  0  0  0
    7.7330  -15.7616   22.1479 C   0  0  1  0  0  0  0  0  0  0  0  0
    7.7976  -17.2482   22.3742 C   0  0  0  0  0  0  0  0  0  0  0  0
    7.7148  -18.0831   21.1480 C   0  0  0  0  0  0  0  0  0  0  0  0
    6.3477  -18.6270   20.8612 C   0  0  0  0  0  0  0  0  0  0  0  0
    6.2787  -19.4380   19.6000 C   0  0  0  0  0  0  0  0  0  0  0  0
    4.9563  -19.8501   19.2518 N   0  0  0  0  0  0  0  0  0  0  0  0
    8.1998  -14.9704   23.3203 C   0  0  0  0  0  0  0  0  0  0  0  0
    9.4607  -14.8982   23.5132 O   0  0  0  0  0  0  0  0  0  0  0  0
    6.3604  -11.6387   25.1693 C   0  0  0  0  0  0  0  0  0  0  0  0
    6.7618  -12.8301   25.9588 C   0  0  2  0  0  0  0  0  0  0  0  0
    7.2344  -12.3508   27.3372 C   0  0  0  0  0  0  0  0  0  0  0  0
    7.8631  -13.6674   25.3948 C   0  0  2  0  0  0  0  0  0  0  0  0
    7.3211  -14.3136   24.2042 N   0  0  0  0  0  0  0  0  0  0  0  0
    8.3347  -14.6447   26.3724 C   0  0  0  0  0  0  0  0  0  0  0  0
    7.5084  -15.5637   26.7233 O   0  0  0  0  0  0  0  0  0  0  0  0
   11.8288  -19.1144   25.7638 N   0  0  0  0  0  0  0  0  0  0  0  0
   12.2683  -18.8157   27.0670 C   0  0  0  0  0  0  0  0  0  0  0  0
   13.2790  -19.3658   27.5308 O   0  0  0  0  0  0  0  0  0  0  0  0
   11.5267  -17.8309   27.9169 C   0  0  0  0  0  0  0  0  0  0  0  0
   11.0651  -16.6568   27.1146 C   0  0  0  0  0  0  0  0  0  0  0  0
    9.9954  -15.8799   27.8089 C   0  0  2  0  0  0  0  0  0  0  0  0
    9.5913  -14.7233   26.9912 N   0  0  0  0  0  0  0  0  0  0  0  0
   10.3965  -15.3712   29.1262 C   0  0  0  0  0  0  0  0  0  0  0  0
   10.6044  -13.9900   29.3184 O   0  0  0  0  0  0  0  0  0  0  0  0
   10.5813  -16.1044   30.1560 O   0  0  0  0  0  0  0  0  0  0  0  0
  2  3  1  0
  2  1  1  6
  4  5  1  0
  4  3  1  0
  5  6  1  0
  7  6  1  0
  8  9  2  0
  8  2  1  0
 11 10  1  6
 11 13  1  0
 11 12  1  0
 13 15  1  0
 13 14  1  6
 14  8  1  0
 15 16  2  0
 17 18  1  0
 18 20  1  0
 18 19  2  0
 20 21  1  0
 22 21  1  6
 22 24  1  0
 23 22  1  0
 23 15  1  0
 24 26  2  0
 24 25  1  0
M  END
$$$$
