KVQ.pdb
     RDKit          3D

 26 25  0  0  1  0  0  0  0  0999 V2000
    8.4081  -18.5069   17.8868 N   0  0  0  0  0  0  0  0  0  0  0  0
    7.3043  -17.7342   18.4837 C   0  0  1  0  0  0  0  0  0  0  0  0
    6.3650  -18.7241   19.1187 C   0  0  0  0  0  0  0  0  0  0  0  0
    6.8991  -20.1024   19.2693 C   0  0  0  0  0  0  0  0  0  0  0  0
    7.1053  -20.5341   20.6899 C   0  0  0  0  0  0  0  0  0  0  0  0
    7.4722  -21.9829   20.8279 C   0  0  0  0  0  0  0  0  0  0  0  0
    7.7575  -22.3796   22.1700 N   0  0  0  0  0  0  0  0  0  0  0  0
    7.9454  -16.8204   19.4698 C   0  0  0  0  0  0  0  0  0  0  0  0
    9.1254  -17.1158   19.8607 O   0  0  0  0  0  0  0  0  0  0  0  0
    7.8403  -12.8122   19.3521 C   0  0  0  0  0  0  0  0  0  0  0  0
    7.5364  -13.4193   20.6723 C   0  0  2  0  0  0  0  0  0  0  0  0
    8.1650  -12.5371   21.7583 C   0  0  0  0  0  0  0  0  0  0  0  0
    8.0389  -14.8073   20.9029 C   0  0  2  0  0  0  0  0  0  0  0  0
    7.3121  -15.6681   19.9756 N   0  0  0  0  0  0  0  0  0  0  0  0
    7.8374  -15.2164   22.2904 C   0  0  0  0  0  0  0  0  0  0  0  0
    6.6369  -15.5065   22.6442 O   0  0  0  0  0  0  0  0  0  0  0  0
    6.0336  -17.5502   24.7858 N   0  0  0  0  0  0  0  0  0  0  0  0
    6.9002  -18.5298   25.3054 C   0  0  0  0  0  0  0  0  0  0  0  0
    6.5863  -19.1727   26.3191 O   0  0  0  0  0  0  0  0  0  0  0  0
    8.2145  -18.8146   24.6469 C   0  0  0  0  0  0  0  0  0  0  0  0
    8.5809  -17.7405   23.6736 C   0  0  0  0  0  0  0  0  0  0  0  0
    8.7218  -16.4055   24.3277 C   0  0  2  0  0  0  0  0  0  0  0  0
    8.7923  -15.3428   23.3103 N   0  0  0  0  0  0  0  0  0  0  0  0
    9.9151  -16.2865   25.1744 C   0  0  0  0  0  0  0  0  0  0  0  0
    9.7865  -16.2521   26.5780 O   0  0  0  0  0  0  0  0  0  0  0  0
   11.1099  -16.2080   24.7288 O   0  0  0  0  0  0  0  0  0  0  0  0
  2  3  1  0
  2  1  1  1
  4  5  1  0
  4  3  1  0
  5  6  1  0
  7  6  1  0
  8  9  2  0
  8  2  1  0
 11 10  1  6
 11 13  1  0
 11 12  1  0
 13 15  1  0
 13 14  1  6
 14  8  1  0
 15 16  2  0
 17 18  1  0
 18 20  1  0
 18 19  2  0
 20 21  1  0
 22 21  1  6
 22 24  1  0
 23 22  1  0
 23 15  1  0
 24 26  2  0
 24 25  1  0
M  END
$$$$
