KVQ.pdb
     RDKit          3D

 26 25  0  0  1  0  0  0  0  0999 V2000
    7.2985  -14.4852   20.6124 N   0  0  0  0  0  0  0  0  0  0  0  0
    6.7883  -15.0743   21.8630 C   0  0  1  0  0  0  0  0  0  0  0  0
    7.0077  -16.5606   21.7728 C   0  0  0  0  0  0  0  0  0  0  0  0
    6.2247  -17.2570   20.7195 C   0  0  0  0  0  0  0  0  0  0  0  0
    6.4650  -18.7348   20.6453 C   0  0  0  0  0  0  0  0  0  0  0  0
    5.7794  -19.3951   19.4848 C   0  0  0  0  0  0  0  0  0  0  0  0
    6.0916  -20.7817   19.3444 N   0  0  0  0  0  0  0  0  0  0  0  0
    7.5725  -14.4324   22.9546 C   0  0  0  0  0  0  0  0  0  0  0  0
    8.8002  -14.1704   22.7174 O   0  0  0  0  0  0  0  0  0  0  0  0
    6.4226  -11.5906   25.5774 C   0  0  0  0  0  0  0  0  0  0  0  0
    7.0533  -12.7944   26.1751 C   0  0  2  0  0  0  0  0  0  0  0  0
    7.9567  -12.3363   27.3270 C   0  0  0  0  0  0  0  0  0  0  0  0
    7.9015  -13.6260   25.2690 C   0  0  2  0  0  0  0  0  0  0  0  0
    7.0217  -14.1109   24.2108 N   0  0  0  0  0  0  0  0  0  0  0  0
    8.5277  -14.7263   25.9972 C   0  0  0  0  0  0  0  0  0  0  0  0
    7.7437  -15.5595   26.5818 O   0  0  0  0  0  0  0  0  0  0  0  0
   14.1945  -16.7829   24.9917 N   0  0  0  0  0  0  0  0  0  0  0  0
   13.0667  -16.8923   24.1570 C   0  0  0  0  0  0  0  0  0  0  0  0
   13.2023  -17.1036   22.9420 O   0  0  0  0  0  0  0  0  0  0  0  0
   11.6848  -16.7561   24.7174 C   0  0  0  0  0  0  0  0  0  0  0  0
   11.7105  -16.6271   26.2067 C   0  0  0  0  0  0  0  0  0  0  0  0
   10.3779  -16.2531   26.7672 C   0  0  2  0  0  0  0  0  0  0  0  0
    9.8939  -15.0078   26.1470 N   0  0  0  0  0  0  0  0  0  0  0  0
   10.3858  -16.0488   28.2209 C   0  0  0  0  0  0  0  0  0  0  0  0
   10.5954  -17.1406   29.0880 O   0  0  0  0  0  0  0  0  0  0  0  0
   10.2111  -14.9186   28.7907 O   0  0  0  0  0  0  0  0  0  0  0  0
  2  3  1  0
  2  1  1  6
  4  5  1  0
  4  3  1  0
  5  6  1  0
  7  6  1  0
  8  9  2  0
  8  2  1  0
 11 10  1  6
 11 13  1  0
 11 12  1  0
 13 15  1  0
 13 14  1  6
 14  8  1  0
 15 16  2  0
 17 18  1  0
 18 20  1  0
 18 19  2  0
 20 21  1  0
 22 21  1  6
 22 24  1  0
 23 22  1  0
 23 15  1  0
 24 26  2  0
 24 25  1  0
M  END
$$$$
