KVQ.pdb
     RDKit          3D

 26 25  0  0  1  0  0  0  0  0999 V2000
    7.2334  -15.6810   19.4551 N   0  0  0  0  0  0  0  0  0  0  0  0
    6.6632  -15.9844   20.7796 C   0  0  1  0  0  0  0  0  0  0  0  0
    6.4883  -17.4774   20.8538 C   0  0  0  0  0  0  0  0  0  0  0  0
    6.6261  -18.1996   19.5627 C   0  0  0  0  0  0  0  0  0  0  0  0
    6.4349  -19.6831   19.6602 C   0  0  0  0  0  0  0  0  0  0  0  0
    6.5894  -20.3941   18.3474 C   0  0  0  0  0  0  0  0  0  0  0  0
    6.4821  -21.8149   18.4456 N   0  0  0  0  0  0  0  0  0  0  0  0
    7.6482  -15.4609   21.7667 C   0  0  0  0  0  0  0  0  0  0  0  0
    8.8711  -15.4059   21.4006 O   0  0  0  0  0  0  0  0  0  0  0  0
    6.4785  -14.0259   25.6159 C   0  0  0  0  0  0  0  0  0  0  0  0
    7.6715  -13.5570   24.8669 C   0  0  2  0  0  0  0  0  0  0  0  0
    7.2473  -12.3733   23.9885 C   0  0  0  0  0  0  0  0  0  0  0  0
    8.3273  -14.5492   23.9627 C   0  0  2  0  0  0  0  0  0  0  0  0
    7.2884  -15.0339   23.0601 N   0  0  0  0  0  0  0  0  0  0  0  0
    8.9308  -15.6384   24.7259 C   0  0  0  0  0  0  0  0  0  0  0  0
    8.2133  -16.6877   24.9115 O   0  0  0  0  0  0  0  0  0  0  0  0
   14.8448  -17.0736   23.9983 N   0  0  0  0  0  0  0  0  0  0  0  0
   14.4030  -18.1857   24.7390 C   0  0  0  0  0  0  0  0  0  0  0  0
   15.1673  -19.1378   24.9595 O   0  0  0  0  0  0  0  0  0  0  0  0
   13.0055  -18.2415   25.2739 C   0  0  0  0  0  0  0  0  0  0  0  0
   12.2515  -16.9888   24.9617 C   0  0  0  0  0  0  0  0  0  0  0  0
   10.8886  -16.9794   25.5719 C   0  0  2  0  0  0  0  0  0  0  0  0
   10.2126  -15.7009   25.2928 N   0  0  0  0  0  0  0  0  0  0  0  0
   10.8929  -17.1684   27.0277 C   0  0  0  0  0  0  0  0  0  0  0  0
   11.2448  -18.4178   27.5782 O   0  0  0  0  0  0  0  0  0  0  0  0
   10.5919  -16.2592   27.8732 O   0  0  0  0  0  0  0  0  0  0  0  0
  2  3  1  0
  2  1  1  6
  4  5  1  0
  4  3  1  0
  5  6  1  0
  7  6  1  0
  8  9  2  0
  8  2  1  0
 11 10  1  6
 11 13  1  0
 11 12  1  0
 13 15  1  0
 13 14  1  6
 14  8  1  0
 15 16  2  0
 17 18  1  0
 18 20  1  0
 18 19  2  0
 20 21  1  0
 22 21  1  1
 22 24  1  0
 23 22  1  0
 23 15  1  0
 24 26  2  0
 24 25  1  0
M  END
$$$$
