KVQ.pdb
     RDKit          3D

 26 25  0  0  1  0  0  0  0  0999 V2000
    8.1987  -15.1889   20.4866 N   0  0  0  0  0  0  0  0  0  0  0  0
    7.3170  -15.6115   21.5890 C   0  0  1  0  0  0  0  0  0  0  0  0
    7.3735  -17.1143   21.6486 C   0  0  0  0  0  0  0  0  0  0  0  0
    6.8649  -17.8189   20.4434 C   0  0  0  0  0  0  0  0  0  0  0  0
    5.3742  -17.7838   20.2894 C   0  0  0  0  0  0  0  0  0  0  0  0
    4.8795  -18.5268   19.0828 C   0  0  0  0  0  0  0  0  0  0  0  0
    3.4708  -18.4155   18.8752 N   0  0  0  0  0  0  0  0  0  0  0  0
    7.8638  -14.9566   22.8099 C   0  0  0  0  0  0  0  0  0  0  0  0
    9.1318  -14.9749   22.9661 O   0  0  0  0  0  0  0  0  0  0  0  0
    6.4744  -11.6174   24.8675 C   0  0  0  0  0  0  0  0  0  0  0  0
    6.6942  -12.8831   25.6116 C   0  0  2  0  0  0  0  0  0  0  0  0
    7.2301  -12.5295   27.0047 C   0  0  0  0  0  0  0  0  0  0  0  0
    7.6607  -13.8527   25.0133 C   0  0  2  0  0  0  0  0  0  0  0  0
    7.0519  -14.3317   23.7769 N   0  0  0  0  0  0  0  0  0  0  0  0
    7.9452  -14.9491   25.9354 C   0  0  0  0  0  0  0  0  0  0  0  0
    7.0647  -15.8805   26.0229 O   0  0  0  0  0  0  0  0  0  0  0  0
   11.5510  -19.1724   23.4051 N   0  0  0  0  0  0  0  0  0  0  0  0
   12.0161  -18.2118   24.3226 C   0  0  0  0  0  0  0  0  0  0  0  0
   13.0388  -17.5531   24.0785 O   0  0  0  0  0  0  0  0  0  0  0  0
   11.2878  -17.9667   25.6077 C   0  0  0  0  0  0  0  0  0  0  0  0
   10.5617  -16.6600   25.5825 C   0  0  0  0  0  0  0  0  0  0  0  0
    9.7836  -16.4186   26.8340 C   0  0  2  0  0  0  0  0  0  0  0  0
    9.0708  -15.1323   26.7524 N   0  0  0  0  0  0  0  0  0  0  0  0
   10.6108  -16.3893   28.0464 C   0  0  0  0  0  0  0  0  0  0  0  0
   11.0404  -15.1573   28.5806 O   0  0  0  0  0  0  0  0  0  0  0  0
   10.9906  -17.4288   28.6849 O   0  0  0  0  0  0  0  0  0  0  0  0
  2  3  1  0
  2  1  1  6
  4  5  1  0
  4  3  1  0
  5  6  1  0
  7  6  1  0
  8  9  2  0
  8  2  1  0
 11 10  1  6
 11 13  1  0
 11 12  1  0
 13 15  1  0
 13 14  1  6
 14  8  1  0
 15 16  2  0
 17 18  1  0
 18 20  1  0
 18 19  2  0
 20 21  1  0
 22 21  1  6
 22 24  1  0
 23 22  1  0
 23 15  1  0
 24 26  2  0
 24 25  1  0
M  END
$$$$
