KVQ.pdb
     RDKit          3D

 26 25  0  0  1  0  0  0  0  0999 V2000
    8.6155  -15.2770   20.8030 N   0  0  0  0  0  0  0  0  0  0  0  0
    7.6084  -15.5779   21.8359 C   0  0  1  0  0  0  0  0  0  0  0  0
    7.4715  -17.0756   21.8962 C   0  0  0  0  0  0  0  0  0  0  0  0
    6.5897  -17.6764   20.8624 C   0  0  0  0  0  0  0  0  0  0  0  0
    7.2857  -18.0219   19.5805 C   0  0  0  0  0  0  0  0  0  0  0  0
    6.4110  -18.7497   18.6018 C   0  0  0  0  0  0  0  0  0  0  0  0
    7.0701  -19.0877   17.3806 N   0  0  0  0  0  0  0  0  0  0  0  0
    8.1412  -14.9879   23.0955 C   0  0  0  0  0  0  0  0  0  0  0  0
    9.4106  -14.9593   23.2375 O   0  0  0  0  0  0  0  0  0  0  0  0
    6.2726  -11.9513   25.1351 C   0  0  0  0  0  0  0  0  0  0  0  0
    6.8668  -13.0447   25.9447 C   0  0  2  0  0  0  0  0  0  0  0  0
    7.5001  -12.4213   27.1950 C   0  0  0  0  0  0  0  0  0  0  0  0
    7.9301  -13.8629   25.2875 C   0  0  2  0  0  0  0  0  0  0  0  0
    7.3147  -14.4719   24.1131 N   0  0  0  0  0  0  0  0  0  0  0  0
    8.4604  -14.8699   26.2028 C   0  0  0  0  0  0  0  0  0  0  0  0
    7.6264  -15.7252   26.6754 O   0  0  0  0  0  0  0  0  0  0  0  0
   12.7034  -18.5005   23.9542 N   0  0  0  0  0  0  0  0  0  0  0  0
   12.6208  -17.8311   25.1894 C   0  0  0  0  0  0  0  0  0  0  0  0
   13.6419  -17.6310   25.8651 O   0  0  0  0  0  0  0  0  0  0  0  0
   11.3027  -17.3489   25.7109 C   0  0  0  0  0  0  0  0  0  0  0  0
   11.4379  -16.7681   27.0819 C   0  0  0  0  0  0  0  0  0  0  0  0
   10.1744  -16.1277   27.5545 C   0  0  2  0  0  0  0  0  0  0  0  0
    9.7815  -15.0390   26.6436 N   0  0  0  0  0  0  0  0  0  0  0  0
   10.2698  -15.5611   28.9054 C   0  0  0  0  0  0  0  0  0  0  0  0
   10.4238  -16.4105   30.0201 O   0  0  0  0  0  0  0  0  0  0  0  0
   10.2228  -14.3115   29.1675 O   0  0  0  0  0  0  0  0  0  0  0  0
  2  3  1  0
  2  1  1  6
  4  5  1  0
  4  3  1  0
  5  6  1  0
  7  6  1  0
  8  9  2  0
  8  2  1  0
 11 10  1  6
 11 13  1  0
 11 12  1  0
 13 15  1  0
 13 14  1  6
 14  8  1  0
 15 16  2  0
 17 18  1  0
 18 20  1  0
 18 19  2  0
 20 21  1  0
 22 21  1  6
 22 24  1  0
 23 22  1  0
 23 15  1  0
 24 26  2  0
 24 25  1  0
M  END
$$$$
