SEI.pdb
     RDKit          3D

 24 23  0  0  1  0  0  0  0  0999 V2000
    8.4380  -11.9871   20.3726 O   0  0  0  0  0  0  0  0  0  0  0  0
    8.7632  -12.8572   19.3475 C   0  0  0  0  0  0  0  0  0  0  0  0
    7.7595  -13.9979   19.3920 C   0  0  2  0  0  0  0  0  0  0  0  0
    6.4441  -13.4508   19.2036 N   0  0  0  0  0  0  0  0  0  0  0  0
    7.8156  -14.6547   20.7131 C   0  0  0  0  0  0  0  0  0  0  0  0
    6.8890  -14.3983   21.5574 O   0  0  0  0  0  0  0  0  0  0  0  0
    8.8582  -15.5440   21.0484 N   0  0  0  0  0  0  0  0  0  0  0  0
    8.7632  -16.3284   22.2473 C   0  0  1  0  0  0  0  0  0  0  0  0
    9.6583  -17.5513   22.1895 C   0  0  0  0  0  0  0  0  0  0  0  0
    9.4742  -18.3866   23.4349 C   0  0  0  0  0  0  0  0  0  0  0  0
   10.3834  -19.5352   23.4910 C   0  0  0  0  0  0  0  0  0  0  0  0
   11.3746  -19.5159   24.2426 O   0  0  0  0  0  0  0  0  0  0  0  0
    9.1043  -15.4703   23.4202 C   0  0  0  0  0  0  0  0  0  0  0  0
   10.1612  -14.7892   23.4250 O   0  0  0  0  0  0  0  0  0  0  0  0
   10.1615  -20.6521   22.7185 O   0  0  0  0  0  0  0  0  0  0  0  0
    5.4616  -12.2836   25.6961 C   0  0  0  0  0  0  0  0  0  0  0  0
    6.6811  -12.9788   25.2151 C   0  0  0  0  0  0  0  0  0  0  0  0
    7.4883  -13.7033   26.2270 C   0  0  2  0  0  0  0  0  0  0  0  0
    8.0326  -12.7589   27.3046 C   0  0  0  0  0  0  0  0  0  0  0  0
    8.5929  -14.5652   25.7329 C   0  0  2  0  0  0  0  0  0  0  0  0
    8.2809  -15.3696   24.5752 N   0  0  0  0  0  0  0  0  0  0  0  0
    9.2777  -15.3282   26.7950 C   0  0  0  0  0  0  0  0  0  0  0  0
    9.1972  -16.7149   26.8232 O   0  0  0  0  0  0  0  0  0  0  0  0
    9.9580  -14.8020   27.7168 O   0  0  0  0  0  0  0  0  0  0  0  0
  2  3  1  0
  2  1  1  0
  3  4  1  1
  5  6  2  0
  5  3  1  0
  7  5  1  0
  8 13  1  0
  8  7  1  0
  8  9  1  6
 10 11  1  0
 10  9  1  0
 11 12  2  0
 13 21  1  0
 14 13  2  0
 15 11  1  0
 17 16  1  0
 18 17  1  0
 18 20  1  0
 18 19  1  1
 20 22  1  0
 20 21  1  6
 22 24  2  0
 22 23  1  0
M  END
$$$$
