SEI.pdb
     RDKit          3D

 24 23  0  0  1  0  0  0  0  0999 V2000
    8.6707  -12.0400   18.7406 O   0  0  0  0  0  0  0  0  0  0  0  0
    8.2817  -12.6767   19.9055 C   0  0  0  0  0  0  0  0  0  0  0  0
    8.1741  -14.1601   19.5916 C   0  0  2  0  0  0  0  0  0  0  0  0
    6.9058  -14.3979   18.9592 N   0  0  0  0  0  0  0  0  0  0  0  0
    8.2319  -14.9365   20.8461 C   0  0  0  0  0  0  0  0  0  0  0  0
    7.1347  -15.1878   21.4546 O   0  0  0  0  0  0  0  0  0  0  0  0
    9.4583  -15.3953   21.3710 N   0  0  0  0  0  0  0  0  0  0  0  0
    9.4608  -16.2461   22.5276 C   0  0  1  0  0  0  0  0  0  0  0  0
   10.5707  -17.2776   22.4623 C   0  0  0  0  0  0  0  0  0  0  0  0
   10.5208  -18.1692   23.6810 C   0  0  0  0  0  0  0  0  0  0  0  0
   11.6286  -19.1280   23.7322 C   0  0  0  0  0  0  0  0  0  0  0  0
   12.1971  -19.3744   24.8109 O   0  0  0  0  0  0  0  0  0  0  0  0
    9.5850  -15.4032   23.7532 C   0  0  0  0  0  0  0  0  0  0  0  0
   10.5371  -14.5909   23.8738 O   0  0  0  0  0  0  0  0  0  0  0  0
   12.0607  -19.7718   22.5954 O   0  0  0  0  0  0  0  0  0  0  0  0
    5.8736  -12.2064   25.6899 C   0  0  0  0  0  0  0  0  0  0  0  0
    7.0811  -12.9997   25.3512 C   0  0  0  0  0  0  0  0  0  0  0  0
    7.6494  -13.8541   26.4223 C   0  0  2  0  0  0  0  0  0  0  0  0
    8.0025  -13.0411   27.6729 C   0  0  0  0  0  0  0  0  0  0  0  0
    8.8004  -14.7235   26.0667 C   0  0  2  0  0  0  0  0  0  0  0  0
    8.6619  -15.4614   24.8334 N   0  0  0  0  0  0  0  0  0  0  0  0
    9.2885  -15.5570   27.1831 C   0  0  0  0  0  0  0  0  0  0  0  0
    8.9972  -16.9148   27.2220 O   0  0  0  0  0  0  0  0  0  0  0  0
    9.9769  -15.1186   28.1440 O   0  0  0  0  0  0  0  0  0  0  0  0
  2  3  1  0
  2  1  1  0
  3  4  1  1
  5  6  2  0
  5  3  1  0
  7  5  1  0
  8 13  1  0
  8  7  1  0
  8  9  1  6
 10 11  1  0
 10  9  1  0
 11 12  2  0
 13 21  1  0
 14 13  2  0
 15 11  1  0
 17 16  1  0
 18 17  1  0
 18 20  1  0
 18 19  1  1
 20 22  1  0
 20 21  1  6
 22 24  2  0
 22 23  1  0
M  END
$$$$
