SEI.pdb
     RDKit          3D

 24 23  0  0  1  0  0  0  0  0999 V2000
    8.3276  -12.0970   20.3339 O   0  0  0  0  0  0  0  0  0  0  0  0
    9.0545  -12.9965   19.5749 C   0  0  0  0  0  0  0  0  0  0  0  0
    8.2052  -14.2484   19.4275 C   0  0  2  0  0  0  0  0  0  0  0  0
    6.8871  -13.8547   19.0117 N   0  0  0  0  0  0  0  0  0  0  0  0
    8.1062  -14.9351   20.7308 C   0  0  0  0  0  0  0  0  0  0  0  0
    7.0379  -14.7808   21.4178 O   0  0  0  0  0  0  0  0  0  0  0  0
    9.1551  -15.7434   21.2175 N   0  0  0  0  0  0  0  0  0  0  0  0
    8.9758  -16.4797   22.4371 C   0  0  1  0  0  0  0  0  0  0  0  0
    9.8782  -17.6972   22.4947 C   0  0  0  0  0  0  0  0  0  0  0  0
    9.7296  -18.5117   21.2309 C   0  0  0  0  0  0  0  0  0  0  0  0
   10.7058  -19.6013   21.1363 C   0  0  0  0  0  0  0  0  0  0  0  0
   10.7241  -20.3438   20.1384 O   0  0  0  0  0  0  0  0  0  0  0  0
    9.2258  -15.5728   23.5960 C   0  0  0  0  0  0  0  0  0  0  0  0
   10.2015  -14.7797   23.5851 O   0  0  0  0  0  0  0  0  0  0  0  0
   11.6171  -19.8247   22.1430 O   0  0  0  0  0  0  0  0  0  0  0  0
    5.6957  -12.2692   25.6870 C   0  0  0  0  0  0  0  0  0  0  0  0
    6.8984  -13.0426   25.2900 C   0  0  0  0  0  0  0  0  0  0  0  0
    7.5641  -13.8440   26.3460 C   0  0  2  0  0  0  0  0  0  0  0  0
    8.0471  -12.9678   27.5073 C   0  0  0  0  0  0  0  0  0  0  0  0
    8.6666  -14.7474   25.9274 C   0  0  2  0  0  0  0  0  0  0  0  0
    8.4016  -15.5466   24.7545 N   0  0  0  0  0  0  0  0  0  0  0  0
    9.2533  -15.5286   27.0342 C   0  0  0  0  0  0  0  0  0  0  0  0
   10.1505  -14.9331   27.9121 O   0  0  0  0  0  0  0  0  0  0  0  0
    8.9957  -16.7424   27.2568 O   0  0  0  0  0  0  0  0  0  0  0  0
  2  3  1  0
  2  1  1  0
  3  4  1  1
  5  6  2  0
  5  3  1  0
  7  5  1  0
  8 13  1  0
  8  7  1  0
  8  9  1  6
 10 11  1  0
 10  9  1  0
 11 12  2  0
 13 21  1  0
 14 13  2  0
 15 11  1  0
 17 16  1  0
 18 17  1  0
 18 20  1  0
 18 19  1  1
 20 22  1  0
 20 21  1  6
 22 24  2  0
 22 23  1  0
M  END
$$$$
