SEI.pdb
     RDKit          3D

 24 23  0  0  1  0  0  0  0  0999 V2000
    7.9169  -13.1363   20.1795 O   0  0  0  0  0  0  0  0  0  0  0  0
    8.5248  -14.2048   19.5452 C   0  0  0  0  0  0  0  0  0  0  0  0
    7.7157  -15.4465   19.8831 C   0  0  2  0  0  0  0  0  0  0  0  0
    6.3315  -15.1726   19.6106 N   0  0  0  0  0  0  0  0  0  0  0  0
    7.8641  -15.7579   21.3187 C   0  0  0  0  0  0  0  0  0  0  0  0
    6.8373  -15.6423   22.0734 O   0  0  0  0  0  0  0  0  0  0  0  0
    9.1002  -16.1731   21.8570 N   0  0  0  0  0  0  0  0  0  0  0  0
    9.1446  -16.7428   23.1742 C   0  0  1  0  0  0  0  0  0  0  0  0
   10.1995  -17.8272   23.2808 C   0  0  0  0  0  0  0  0  0  0  0  0
   10.2379  -18.3752   24.6882 C   0  0  0  0  0  0  0  0  0  0  0  0
   11.2338  -19.4372   24.8599 C   0  0  0  0  0  0  0  0  0  0  0  0
   11.0138  -20.5815   24.4243 O   0  0  0  0  0  0  0  0  0  0  0  0
    9.3916  -15.6563   24.1676 C   0  0  0  0  0  0  0  0  0  0  0  0
   10.2500  -14.7667   23.9382 O   0  0  0  0  0  0  0  0  0  0  0  0
   12.4258  -19.1926   25.5025 O   0  0  0  0  0  0  0  0  0  0  0  0
    5.9275  -12.2146   25.8929 C   0  0  0  0  0  0  0  0  0  0  0  0
    7.1197  -13.0409   25.5797 C   0  0  0  0  0  0  0  0  0  0  0  0
    7.8407  -13.6467   26.7257 C   0  0  2  0  0  0  0  0  0  0  0  0
    8.3212  -12.5858   27.7222 C   0  0  0  0  0  0  0  0  0  0  0  0
    8.9642  -14.5687   26.4179 C   0  0  2  0  0  0  0  0  0  0  0  0
    8.6932  -15.5587   25.4025 N   0  0  0  0  0  0  0  0  0  0  0  0
    9.6174  -15.1366   27.6139 C   0  0  0  0  0  0  0  0  0  0  0  0
    9.6666  -16.5129   27.7973 O   0  0  0  0  0  0  0  0  0  0  0  0
   10.1567  -14.4455   28.5199 O   0  0  0  0  0  0  0  0  0  0  0  0
  2  3  1  0
  2  1  1  0
  3  4  1  1
  5  6  2  0
  5  3  1  0
  7  5  1  0
  8 13  1  0
  8  7  1  0
  8  9  1  6
 10 11  1  0
 10  9  1  0
 11 12  2  0
 13 21  1  0
 14 13  2  0
 15 11  1  0
 17 16  1  0
 18 17  1  0
 18 20  1  0
 18 19  1  1
 20 22  1  0
 20 21  1  6
 22 24  2  0
 22 23  1  0
M  END
$$$$
