SEI.pdb
     RDKit          3D

 24 23  0  0  1  0  0  0  0  0999 V2000
    9.7746  -12.9319   19.8849 O   0  0  0  0  0  0  0  0  0  0  0  0
    9.4733  -14.1836   19.3788 C   0  0  0  0  0  0  0  0  0  0  0  0
    7.9583  -14.3039   19.3520 C   0  0  2  0  0  0  0  0  0  0  0  0
    7.4069  -13.0111   19.0521 N   0  0  0  0  0  0  0  0  0  0  0  0
    7.4726  -14.7306   20.6793 C   0  0  0  0  0  0  0  0  0  0  0  0
    6.8117  -13.8900   21.3821 O   0  0  0  0  0  0  0  0  0  0  0  0
    7.7237  -16.0286   21.1718 N   0  0  0  0  0  0  0  0  0  0  0  0
    7.2432  -16.3986   22.4732 C   0  0  1  0  0  0  0  0  0  0  0  0
    7.2751  -17.9012   22.6763 C   0  0  0  0  0  0  0  0  0  0  0  0
    6.6744  -18.2552   24.0166 C   0  0  0  0  0  0  0  0  0  0  0  0
    6.6930  -19.6958   24.2876 C   0  0  0  0  0  0  0  0  0  0  0  0
    6.1516  -20.1496   25.3115 O   0  0  0  0  0  0  0  0  0  0  0  0
    8.0582  -15.7008   23.5110 C   0  0  0  0  0  0  0  0  0  0  0  0
    9.3017  -15.5798   23.3690 O   0  0  0  0  0  0  0  0  0  0  0  0
    7.3057  -20.5713   23.4207 O   0  0  0  0  0  0  0  0  0  0  0  0
    5.9829  -11.8079   27.4118 C   0  0  0  0  0  0  0  0  0  0  0  0
    6.4192  -13.1041   26.8361 C   0  0  0  0  0  0  0  0  0  0  0  0
    7.7076  -13.1163   26.1010 C   0  0  2  0  0  0  0  0  0  0  0  0
    7.6737  -12.1958   24.8758 C   0  0  0  0  0  0  0  0  0  0  0  0
    8.2554  -14.4381   25.7009 C   0  0  2  0  0  0  0  0  0  0  0  0
    7.4989  -15.1433   24.6935 N   0  0  0  0  0  0  0  0  0  0  0  0
    8.6370  -15.2973   26.8392 C   0  0  0  0  0  0  0  0  0  0  0  0
    9.6145  -14.8800   27.7339 O   0  0  0  0  0  0  0  0  0  0  0  0
    8.1268  -16.4257   27.0751 O   0  0  0  0  0  0  0  0  0  0  0  0
  2  3  1  0
  2  1  1  0
  3  4  1  1
  5  6  2  0
  5  3  1  0
  7  5  1  0
  8 13  1  0
  8  7  1  0
  8  9  1  1
 10 11  1  0
 10  9  1  0
 11 12  2  0
 13 21  1  0
 14 13  2  0
 15 11  1  0
 17 16  1  0
 18 17  1  0
 18 20  1  0
 18 19  1  6
 20 22  1  0
 20 21  1  1
 22 24  2  0
 22 23  1  0
M  END
$$$$
