SEI.pdb
     RDKit          3D

 24 23  0  0  1  0  0  0  0  0999 V2000
    8.4175  -12.5389   18.0963 O   0  0  0  0  0  0  0  0  0  0  0  0
    8.1631  -13.0059   19.3734 C   0  0  0  0  0  0  0  0  0  0  0  0
    8.1105  -14.5229   19.2942 C   0  0  2  0  0  0  0  0  0  0  0  0
    6.8940  -14.8993   18.6280 N   0  0  0  0  0  0  0  0  0  0  0  0
    8.0996  -15.0893   20.6576 C   0  0  0  0  0  0  0  0  0  0  0  0
    6.9741  -15.2137   21.2535 O   0  0  0  0  0  0  0  0  0  0  0  0
    9.2921  -15.4869   21.2981 N   0  0  0  0  0  0  0  0  0  0  0  0
    9.2254  -16.1848   22.5511 C   0  0  1  0  0  0  0  0  0  0  0  0
   10.2531  -17.2974   22.6285 C   0  0  0  0  0  0  0  0  0  0  0  0
   10.1928  -17.9644   23.9828 C   0  0  0  0  0  0  0  0  0  0  0  0
   11.1478  -19.0683   24.1181 C   0  0  0  0  0  0  0  0  0  0  0  0
   10.9378  -20.1543   23.5487 O   0  0  0  0  0  0  0  0  0  0  0  0
    9.4096  -15.2077   23.6644 C   0  0  0  0  0  0  0  0  0  0  0  0
   10.3978  -14.4302   23.6724 O   0  0  0  0  0  0  0  0  0  0  0  0
   12.2897  -18.9280   24.8730 O   0  0  0  0  0  0  0  0  0  0  0  0
    5.3983  -12.3170   26.7274 C   0  0  0  0  0  0  0  0  0  0  0  0
    6.2974  -13.4356   26.3501 C   0  0  0  0  0  0  0  0  0  0  0  0
    7.6780  -13.0822   25.9384 C   0  0  2  0  0  0  0  0  0  0  0  0
    7.6971  -12.2982   24.6214 C   0  0  0  0  0  0  0  0  0  0  0  0
    8.6733  -14.1826   25.8636 C   0  0  2  0  0  0  0  0  0  0  0  0
    8.5065  -15.0949   24.7571 N   0  0  0  0  0  0  0  0  0  0  0  0
    8.8998  -14.8733   27.1486 C   0  0  0  0  0  0  0  0  0  0  0  0
    8.7836  -16.2554   27.2300 O   0  0  0  0  0  0  0  0  0  0  0  0
    9.2026  -14.2867   28.2225 O   0  0  0  0  0  0  0  0  0  0  0  0
  2  3  1  0
  2  1  1  0
  3  4  1  1
  5  6  2  0
  5  3  1  0
  7  5  1  0
  8 13  1  0
  8  7  1  0
  8  9  1  6
 10 11  1  0
 10  9  1  0
 11 12  2  0
 13 21  1  0
 14 13  2  0
 15 11  1  0
 17 16  1  0
 18 17  1  0
 18 20  1  0
 18 19  1  6
 20 22  1  0
 20 21  1  6
 22 24  2  0
 22 23  1  0
M  END
$$$$
