SEI.pdb
     RDKit          3D

 24 23  0  0  1  0  0  0  0  0999 V2000
    9.3854  -13.4535   20.1778 O   0  0  0  0  0  0  0  0  0  0  0  0
    9.0536  -14.6450   19.5583 C   0  0  0  0  0  0  0  0  0  0  0  0
    7.5421  -14.7857   19.6367 C   0  0  2  0  0  0  0  0  0  0  0  0
    6.9509  -13.5289   19.2678 N   0  0  0  0  0  0  0  0  0  0  0  0
    7.1466  -15.1076   21.0223 C   0  0  0  0  0  0  0  0  0  0  0  0
    6.5383  -14.2111   21.7030 O   0  0  0  0  0  0  0  0  0  0  0  0
    7.4261  -16.3672   21.5929 N   0  0  0  0  0  0  0  0  0  0  0  0
    6.9910  -16.6518   22.9313 C   0  0  1  0  0  0  0  0  0  0  0  0
    7.0511  -18.1362   23.2366 C   0  0  0  0  0  0  0  0  0  0  0  0
    6.4579  -18.4086   24.5991 C   0  0  0  0  0  0  0  0  0  0  0  0
    6.4705  -19.8313   24.9527 C   0  0  0  0  0  0  0  0  0  0  0  0
    6.8136  -20.1925   26.0926 O   0  0  0  0  0  0  0  0  0  0  0  0
    7.8271  -15.8734   23.8921 C   0  0  0  0  0  0  0  0  0  0  0  0
    9.0525  -15.6969   23.6723 O   0  0  0  0  0  0  0  0  0  0  0  0
    6.1055  -20.7915   24.0371 O   0  0  0  0  0  0  0  0  0  0  0  0
    5.6373  -11.4580   26.3035 C   0  0  0  0  0  0  0  0  0  0  0  0
    6.5154  -12.4767   25.6765 C   0  0  0  0  0  0  0  0  0  0  0  0
    7.3171  -13.3294   26.5879 C   0  0  2  0  0  0  0  0  0  0  0  0
    8.2726  -12.4990   27.4523 C   0  0  0  0  0  0  0  0  0  0  0  0
    8.0669  -14.4611   25.9843 C   0  0  2  0  0  0  0  0  0  0  0  0
    7.3084  -15.2972   25.0842 N   0  0  0  0  0  0  0  0  0  0  0  0
    8.8635  -15.2371   26.9553 C   0  0  0  0  0  0  0  0  0  0  0  0
   10.1351  -14.8101   27.3170 O   0  0  0  0  0  0  0  0  0  0  0  0
    8.4672  -16.2997   27.5058 O   0  0  0  0  0  0  0  0  0  0  0  0
  2  3  1  0
  2  1  1  0
  3  4  1  1
  5  6  2  0
  5  3  1  0
  7  5  1  0
  8 13  1  0
  8  7  1  0
  8  9  1  1
 10 11  1  0
 10  9  1  0
 11 12  2  0
 13 21  1  0
 14 13  2  0
 15 11  1  0
 17 16  1  0
 18 17  1  0
 18 20  1  0
 18 19  1  6
 20 22  1  0
 20 21  1  1
 22 24  2  0
 22 23  1  0
M  END
$$$$
