SEI.pdb
     RDKit          3D

 24 23  0  0  1  0  0  0  0  0999 V2000
    8.8932  -12.1598   18.2371 O   0  0  0  0  0  0  0  0  0  0  0  0
    8.6087  -12.6357   19.5045 C   0  0  0  0  0  0  0  0  0  0  0  0
    8.1629  -14.0808   19.3515 C   0  0  2  0  0  0  0  0  0  0  0  0
    6.8246  -14.0884   18.8280 N   0  0  0  0  0  0  0  0  0  0  0  0
    8.1595  -14.7398   20.6727 C   0  0  0  0  0  0  0  0  0  0  0  0
    7.0917  -14.6835   21.3755 O   0  0  0  0  0  0  0  0  0  0  0  0
    9.2972  -15.4173   21.1594 N   0  0  0  0  0  0  0  0  0  0  0  0
    9.1808  -16.2572   22.3181 C   0  0  1  0  0  0  0  0  0  0  0  0
   10.1714  -17.4050   22.2802 C   0  0  0  0  0  0  0  0  0  0  0  0
   10.0012  -18.2759   23.5030 C   0  0  0  0  0  0  0  0  0  0  0  0
   11.0244  -19.3206   23.6062 C   0  0  0  0  0  0  0  0  0  0  0  0
   10.8875  -20.2566   24.4141 O   0  0  0  0  0  0  0  0  0  0  0  0
    9.3703  -15.4268   23.5438 C   0  0  0  0  0  0  0  0  0  0  0  0
   10.3304  -14.6188   23.6235 O   0  0  0  0  0  0  0  0  0  0  0  0
   12.1509  -19.2887   22.8166 O   0  0  0  0  0  0  0  0  0  0  0  0
    6.0419  -11.9839   25.5616 C   0  0  0  0  0  0  0  0  0  0  0  0
    7.1850  -12.8671   25.2220 C   0  0  0  0  0  0  0  0  0  0  0  0
    7.6435  -13.8107   26.2707 C   0  0  2  0  0  0  0  0  0  0  0  0
    8.0455  -13.0813   27.5575 C   0  0  0  0  0  0  0  0  0  0  0  0
    8.7125  -14.7751   25.9044 C   0  0  2  0  0  0  0  0  0  0  0  0
    8.5032  -15.4926   24.6690 N   0  0  0  0  0  0  0  0  0  0  0  0
    9.1328  -15.6530   27.0144 C   0  0  0  0  0  0  0  0  0  0  0  0
    9.9850  -15.1736   28.0014 O   0  0  0  0  0  0  0  0  0  0  0  0
    8.7661  -16.8520   27.1450 O   0  0  0  0  0  0  0  0  0  0  0  0
  2  3  1  0
  2  1  1  0
  3  4  1  1
  5  6  2  0
  5  3  1  0
  7  5  1  0
  8 13  1  0
  8  7  1  0
  8  9  1  6
 10 11  1  0
 10  9  1  0
 11 12  2  0
 13 21  1  0
 14 13  2  0
 15 11  1  0
 17 16  1  0
 18 17  1  0
 18 20  1  0
 18 19  1  1
 20 22  1  0
 20 21  1  6
 22 24  2  0
 22 23  1  0
M  END
$$$$
