SEI.pdb
     RDKit          3D

 24 23  0  0  1  0  0  0  0  0999 V2000
    8.2799  -11.9522   19.1110 O   0  0  0  0  0  0  0  0  0  0  0  0
    9.0340  -12.9162   19.7556 C   0  0  0  0  0  0  0  0  0  0  0  0
    8.3601  -14.2553   19.5042 C   0  0  2  0  0  0  0  0  0  0  0  0
    7.0384  -14.0085   18.9969 N   0  0  0  0  0  0  0  0  0  0  0  0
    8.2496  -14.9996   20.7744 C   0  0  0  0  0  0  0  0  0  0  0  0
    7.1158  -15.0223   21.3671 O   0  0  0  0  0  0  0  0  0  0  0  0
    9.3575  -15.6726   21.3311 N   0  0  0  0  0  0  0  0  0  0  0  0
    9.1928  -16.4316   22.5387 C   0  0  1  0  0  0  0  0  0  0  0  0
   10.1473  -17.6088   22.5956 C   0  0  0  0  0  0  0  0  0  0  0  0
    9.7570  -18.6417   21.5644 C   0  0  0  0  0  0  0  0  0  0  0  0
   10.6903  -19.7707   21.5063 C   0  0  0  0  0  0  0  0  0  0  0  0
   10.4778  -20.7969   22.1767 O   0  0  0  0  0  0  0  0  0  0  0  0
    9.3852  -15.5294   23.7122 C   0  0  0  0  0  0  0  0  0  0  0  0
   10.4039  -14.7966   23.7920 O   0  0  0  0  0  0  0  0  0  0  0  0
   11.8143  -19.7200   20.7140 O   0  0  0  0  0  0  0  0  0  0  0  0
    5.8075  -12.0725   25.5500 C   0  0  0  0  0  0  0  0  0  0  0  0
    6.9647  -12.9390   25.2151 C   0  0  0  0  0  0  0  0  0  0  0  0
    7.5691  -13.7162   26.3247 C   0  0  2  0  0  0  0  0  0  0  0  0
    8.0298  -12.8091   27.4712 C   0  0  0  0  0  0  0  0  0  0  0  0
    8.6633  -14.6610   25.9825 C   0  0  2  0  0  0  0  0  0  0  0  0
    8.4566  -15.4415   24.7856 N   0  0  0  0  0  0  0  0  0  0  0  0
    9.1325  -15.4720   27.1234 C   0  0  0  0  0  0  0  0  0  0  0  0
   10.1584  -15.0075   27.9371 O   0  0  0  0  0  0  0  0  0  0  0  0
    8.6582  -16.5985   27.4322 O   0  0  0  0  0  0  0  0  0  0  0  0
  2  3  1  0
  2  1  1  0
  3  4  1  1
  5  6  2  0
  5  3  1  0
  7  5  1  0
  8 13  1  0
  8  7  1  0
  8  9  1  1
 10 11  1  0
 10  9  1  0
 11 12  2  0
 13 21  1  0
 14 13  2  0
 15 11  1  0
 17 16  1  0
 18 17  1  0
 18 20  1  0
 18 19  1  1
 20 22  1  0
 20 21  1  6
 22 24  2  0
 22 23  1  0
M  END
$$$$
