SEI.pdb
     RDKit          3D

 24 23  0  0  1  0  0  0  0  0999 V2000
    7.9558  -15.8764   19.9456 O   0  0  0  0  0  0  0  0  0  0  0  0
    7.8022  -16.9638   19.1045 C   0  0  0  0  0  0  0  0  0  0  0  0
    7.0420  -18.0272   19.8802 C   0  0  2  0  0  0  0  0  0  0  0  0
    5.7967  -18.2747   19.2071 N   0  0  0  0  0  0  0  0  0  0  0  0
    6.7555  -17.5355   21.2425 C   0  0  0  0  0  0  0  0  0  0  0  0
    5.6423  -16.9398   21.4505 O   0  0  0  0  0  0  0  0  0  0  0  0
    7.6765  -17.7115   22.2966 N   0  0  0  0  0  0  0  0  0  0  0  0
    7.2511  -17.5042   23.6522 C   0  0  1  0  0  0  0  0  0  0  0  0
    7.4757  -18.7379   24.5051 C   0  0  0  0  0  0  0  0  0  0  0  0
    7.1017  -18.4499   25.9403 C   0  0  0  0  0  0  0  0  0  0  0  0
    7.3122  -19.5987   26.8263 C   0  0  0  0  0  0  0  0  0  0  0  0
    8.0740  -19.5059   27.8054 O   0  0  0  0  0  0  0  0  0  0  0  0
    7.9731  -16.3254   24.2154 C   0  0  0  0  0  0  0  0  0  0  0  0
    9.1835  -16.1278   23.9380 O   0  0  0  0  0  0  0  0  0  0  0  0
    6.6757  -20.7967   26.5954 O   0  0  0  0  0  0  0  0  0  0  0  0
    6.7704  -11.1502   27.4863 C   0  0  0  0  0  0  0  0  0  0  0  0
    6.9031  -12.6067   27.2350 C   0  0  0  0  0  0  0  0  0  0  0  0
    7.2093  -13.0265   25.8456 C   0  0  2  0  0  0  0  0  0  0  0  0
    5.9402  -13.1522   24.9953 C   0  0  0  0  0  0  0  0  0  0  0  0
    8.0379  -14.2464   25.6657 C   0  0  2  0  0  0  0  0  0  0  0  0
    7.3581  -15.3761   25.0773 N   0  0  0  0  0  0  0  0  0  0  0  0
    8.8337  -14.6104   26.8547 C   0  0  0  0  0  0  0  0  0  0  0  0
    9.9121  -13.8248   27.2421 O   0  0  0  0  0  0  0  0  0  0  0  0
    8.6047  -15.6178   27.5771 O   0  0  0  0  0  0  0  0  0  0  0  0
  2  3  1  0
  2  1  1  0
  3  4  1  6
  5  6  2  0
  5  3  1  0
  7  5  1  0
  8 13  1  0
  8  7  1  0
  8  9  1  1
 10 11  1  0
 10  9  1  0
 11 12  2  0
 13 21  1  0
 14 13  2  0
 15 11  1  0
 17 16  1  0
 18 17  1  0
 18 20  1  0
 18 19  1  6
 20 22  1  0
 20 21  1  1
 22 24  2  0
 22 23  1  0
M  END
$$$$
