SEI.pdb
     RDKit          3D

 24 23  0  0  1  0  0  0  0  0999 V2000
    3.2133  -18.1650   21.7889 O   0  0  0  0  0  0  0  0  0  0  0  0
    3.8822  -17.1237   21.1709 C   0  0  0  0  0  0  0  0  0  0  0  0
    5.0998  -17.7185   20.4823 C   0  0  2  0  0  0  0  0  0  0  0  0
    4.7399  -19.0086   19.9616 N   0  0  0  0  0  0  0  0  0  0  0  0
    6.1887  -17.8901   21.4644 C   0  0  0  0  0  0  0  0  0  0  0  0
    6.3092  -19.0245   22.0440 O   0  0  0  0  0  0  0  0  0  0  0  0
    7.0801  -16.8388   21.7651 N   0  0  0  0  0  0  0  0  0  0  0  0
    8.1558  -17.0634   22.6893 C   0  0  1  0  0  0  0  0  0  0  0  0
    9.4405  -17.4356   21.9744 C   0  0  0  0  0  0  0  0  0  0  0  0
   10.5330  -17.7080   22.9818 C   0  0  0  0  0  0  0  0  0  0  0  0
   11.8255  -18.0026   22.3560 C   0  0  0  0  0  0  0  0  0  0  0  0
   12.4792  -19.0020   22.7045 O   0  0  0  0  0  0  0  0  0  0  0  0
    8.3435  -15.8416   23.5260 C   0  0  0  0  0  0  0  0  0  0  0  0
    8.5830  -14.7312   22.9870 O   0  0  0  0  0  0  0  0  0  0  0  0
   12.3402  -17.1852   21.3759 O   0  0  0  0  0  0  0  0  0  0  0  0
    5.3988  -12.4887   25.6258 C   0  0  0  0  0  0  0  0  0  0  0  0
    6.6082  -13.2260   25.1832 C   0  0  0  0  0  0  0  0  0  0  0  0
    7.3946  -13.9227   26.2303 C   0  0  2  0  0  0  0  0  0  0  0  0
    7.8289  -12.9673   27.3474 C   0  0  0  0  0  0  0  0  0  0  0  0
    8.5679  -14.7199   25.7889 C   0  0  2  0  0  0  0  0  0  0  0  0
    8.2661  -15.8525   24.9459 N   0  0  0  0  0  0  0  0  0  0  0  0
    9.5117  -15.0480   26.8757 C   0  0  0  0  0  0  0  0  0  0  0  0
    9.7128  -16.3701   27.2524 O   0  0  0  0  0  0  0  0  0  0  0  0
   10.1777  -14.1905   27.5162 O   0  0  0  0  0  0  0  0  0  0  0  0
  2  3  1  0
  2  1  1  0
  3  4  1  1
  5  6  2  0
  5  3  1  0
  7  5  1  0
  8 13  1  0
  8  7  1  0
  8  9  1  6
 10 11  1  0
 10  9  1  0
 11 12  2  0
 13 21  1  0
 14 13  2  0
 15 11  1  0
 17 16  1  0
 18 17  1  0
 18 20  1  0
 18 19  1  1
 20 22  1  0
 20 21  1  1
 22 24  2  0
 22 23  1  0
M  END
$$$$
