SEI.pdb
     RDKit          3D

 24 23  0  0  1  0  0  0  0  0999 V2000
   10.2776  -16.1897   18.9025 O   0  0  0  0  0  0  0  0  0  0  0  0
    8.9132  -15.9618   18.9154 C   0  0  0  0  0  0  0  0  0  0  0  0
    8.2482  -17.2464   19.3824 C   0  0  2  0  0  0  0  0  0  0  0  0
    7.0919  -17.4814   18.5620 N   0  0  0  0  0  0  0  0  0  0  0  0
    7.8123  -17.0961   20.7850 C   0  0  0  0  0  0  0  0  0  0  0  0
    6.7550  -16.4153   21.0216 O   0  0  0  0  0  0  0  0  0  0  0  0
    8.5337  -17.6826   21.8460 N   0  0  0  0  0  0  0  0  0  0  0  0
    8.0265  -17.5884   23.1859 C   0  0  1  0  0  0  0  0  0  0  0  0
    8.2917  -18.8555   23.9761 C   0  0  0  0  0  0  0  0  0  0  0  0
    7.7757  -18.7024   25.3878 C   0  0  0  0  0  0  0  0  0  0  0  0
    8.0109  -19.8910   26.2132 C   0  0  0  0  0  0  0  0  0  0  0  0
    7.4309  -20.9606   25.9543 O   0  0  0  0  0  0  0  0  0  0  0  0
    8.6361  -16.4021   23.8562 C   0  0  0  0  0  0  0  0  0  0  0  0
    9.8682  -16.1745   23.7510 O   0  0  0  0  0  0  0  0  0  0  0  0
    8.8728  -19.8493   27.2851 O   0  0  0  0  0  0  0  0  0  0  0  0
    6.2304  -11.6984   26.8127 C   0  0  0  0  0  0  0  0  0  0  0  0
    6.4891  -12.9960   26.1408 C   0  0  0  0  0  0  0  0  0  0  0  0
    7.7527  -13.1185   25.3736 C   0  0  2  0  0  0  0  0  0  0  0  0
    7.5716  -12.7088   23.9077 C   0  0  0  0  0  0  0  0  0  0  0  0
    8.4645  -14.4213   25.4298 C   0  0  2  0  0  0  0  0  0  0  0  0
    7.8859  -15.4786   24.6349 N   0  0  0  0  0  0  0  0  0  0  0  0
    8.8119  -14.8551   26.7975 C   0  0  0  0  0  0  0  0  0  0  0  0
    9.6980  -14.1089   27.5644 O   0  0  0  0  0  0  0  0  0  0  0  0
    8.3505  -15.8906   27.3491 O   0  0  0  0  0  0  0  0  0  0  0  0
  2  3  1  0
  2  1  1  0
  3  4  1  6
  5  6  2  0
  5  3  1  0
  7  5  1  0
  8 13  1  0
  8  7  1  0
  8  9  1  1
 10 11  1  0
 10  9  1  0
 11 12  2  0
 13 21  1  0
 14 13  2  0
 15 11  1  0
 17 16  1  0
 18 17  1  0
 18 20  1  0
 18 19  1  6
 20 22  1  0
 20 21  1  1
 22 24  2  0
 22 23  1  0
M  END
$$$$
