WVV.pdb
     RDKit          3D

 29 30  0  0  1  0  0  0  0  0999 V2000
   10.4462  -16.2227   22.1767 N   0  0  0  0  0  0  0  0  0  0  0  0
    9.7362  -15.5376   23.2354 C   0  0  1  0  0  0  0  0  0  0  0  0
    8.2809  -15.9519   23.1271 C   0  0  0  0  0  0  0  0  0  0  0  0
    7.3911  -14.7635   23.0787 C   0  0  0  0  0  0  0  0  0  0  0  0
    6.6955  -14.2259   22.0133 C   0  0  0  0  0  0  0  0  0  0  0  0
    6.0232  -13.1529   22.4304 N   0  0  0  0  0  0  0  0  0  0  0  0
    6.2251  -12.9276   23.7371 C   0  0  0  0  0  0  0  0  0  0  0  0
    5.7525  -11.9529   24.6095 C   0  0  0  0  0  0  0  0  0  0  0  0
    6.1701  -12.0195   25.9219 C   0  0  0  0  0  0  0  0  0  0  0  0
    7.0254  -13.0228   26.3368 C   0  0  0  0  0  0  0  0  0  0  0  0
    7.4945  -13.9902   25.4712 C   0  0  0  0  0  0  0  0  0  0  0  0
    7.0775  -13.9261   24.1549 C   0  0  0  0  0  0  0  0  0  0  0  0
   10.3290  -15.9111   24.5257 C   0  0  0  0  0  0  0  0  0  0  0  0
   11.1989  -16.8255   24.5398 O   0  0  0  0  0  0  0  0  0  0  0  0
   10.3817  -13.3388   27.8705 C   0  0  0  0  0  0  0  0  0  0  0  0
   10.1054  -14.7937   28.1262 C   0  0  2  0  0  0  0  0  0  0  0  0
   10.6809  -15.1101   29.4837 C   0  0  0  0  0  0  0  0  0  0  0  0
   10.7114  -15.6207   27.0136 C   0  0  2  0  0  0  0  0  0  0  0  0
   10.0057  -15.3294   25.7584 N   0  0  0  0  0  0  0  0  0  0  0  0
   10.4673  -17.0425   27.2977 C   0  0  0  0  0  0  0  0  0  0  0  0
    9.2535  -17.4138   27.4707 O   0  0  0  0  0  0  0  0  0  0  0  0
   11.3653  -20.1730   25.3932 C   0  0  0  0  0  0  0  0  0  0  0  0
   11.7997  -20.4219   26.8092 C   0  0  1  0  0  0  0  0  0  0  0  0
   13.2891  -20.2740   26.9634 C   0  0  0  0  0  0  0  0  0  0  0  0
   11.0343  -19.4563   27.7081 C   0  0  2  0  0  0  0  0  0  0  0  0
   11.4174  -18.0780   27.4031 N   0  0  0  0  0  0  0  0  0  0  0  0
   11.4177  -19.7873   29.0976 C   0  0  0  0  0  0  0  0  0  0  0  0
   12.1476  -19.0242   29.7637 O   0  0  0  0  0  0  0  0  0  0  0  0
   10.9822  -20.9469   29.7010 O   0  0  0  0  0  0  0  0  0  0  0  0
  2  1  1  6
  2 13  1  0
  3  2  1  0
  4  3  1  0
  4 12  1  0
  5  6  1  0
  5  4  2  0
  6  7  1  0
  7 12  2  0
  7  8  1  0
  8  9  2  0
  9 10  1  0
 11 10  2  0
 12 11  1  0
 13 14  2  0
 16 17  1  1
 16 15  1  0
 16 18  1  0
 18 19  1  6
 19 13  1  0
 20 21  2  0
 20 18  1  0
 23 22  1  6
 23 25  1  0
 24 23  1  0
 25 26  1  6
 25 27  1  0
 26 20  1  0
 27 29  1  0
 28 27  2  0
M  END
$$$$
