WVV.pdb
     RDKit          3D

 29 30  0  0  1  0  0  0  0  0999 V2000
    6.0823  -18.5535   25.0101 N   0  0  0  0  0  0  0  0  0  0  0  0
    6.3614  -17.1455   24.8257 C   0  0  1  0  0  0  0  0  0  0  0  0
    6.8824  -16.6243   26.1517 C   0  0  0  0  0  0  0  0  0  0  0  0
    6.2641  -15.3167   26.4898 C   0  0  0  0  0  0  0  0  0  0  0  0
    4.9439  -15.0076   26.7531 C   0  0  0  0  0  0  0  0  0  0  0  0
    4.8457  -13.7028   27.0081 N   0  0  0  0  0  0  0  0  0  0  0  0
    6.0409  -13.0990   26.9320 C   0  0  0  0  0  0  0  0  0  0  0  0
    6.4436  -11.7799   27.1119 C   0  0  0  0  0  0  0  0  0  0  0  0
    7.7843  -11.4987   26.9544 C   0  0  0  0  0  0  0  0  0  0  0  0
    8.6790  -12.5011   26.6303 C   0  0  0  0  0  0  0  0  0  0  0  0
    8.2795  -13.8102   26.4518 C   0  0  0  0  0  0  0  0  0  0  0  0
    6.9361  -14.0952   26.6090 C   0  0  0  0  0  0  0  0  0  0  0  0
    7.3398  -16.9919   23.7417 C   0  0  0  0  0  0  0  0  0  0  0  0
    8.1605  -17.9298   23.5419 O   0  0  0  0  0  0  0  0  0  0  0  0
    6.7609  -14.3496   20.5297 C   0  0  0  0  0  0  0  0  0  0  0  0
    8.1619  -14.4609   21.0620 C   0  0  2  0  0  0  0  0  0  0  0  0
    9.0867  -14.2620   19.8876 C   0  0  0  0  0  0  0  0  0  0  0  0
    8.3348  -15.8039   21.7371 C   0  0  2  0  0  0  0  0  0  0  0  0
    7.4393  -15.8770   22.8995 N   0  0  0  0  0  0  0  0  0  0  0  0
    9.7024  -15.8896   22.2704 C   0  0  0  0  0  0  0  0  0  0  0  0
   10.0665  -15.0002   23.1172 O   0  0  0  0  0  0  0  0  0  0  0  0
   13.7847  -18.1082   23.6478 C   0  0  0  0  0  0  0  0  0  0  0  0
   12.3352  -18.1244   23.2547 C   0  0  1  0  0  0  0  0  0  0  0  0
   11.4436  -18.3567   24.4443 C   0  0  0  0  0  0  0  0  0  0  0  0
   12.0260  -16.8027   22.5593 C   0  0  2  0  0  0  0  0  0  0  0  0
   10.6891  -16.8492   21.9676 N   0  0  0  0  0  0  0  0  0  0  0  0
   13.0401  -16.6445   21.4945 C   0  0  0  0  0  0  0  0  0  0  0  0
   12.8611  -17.1278   20.3574 O   0  0  0  0  0  0  0  0  0  0  0  0
   14.2135  -15.9594   21.7229 O   0  0  0  0  0  0  0  0  0  0  0  0
  2  1  1  1
  2 13  1  0
  3  2  1  0
  4  3  1  0
  4 12  1  0
  5  6  1  0
  5  4  2  0
  6  7  1  0
  7 12  2  0
  7  8  1  0
  8  9  2  0
  9 10  1  0
 11 10  2  0
 12 11  1  0
 13 14  2  0
 16 17  1  6
 16 15  1  0
 16 18  1  0
 18 19  1  1
 19 13  1  0
 20 21  2  0
 20 18  1  0
 23 22  1  1
 23 25  1  0
 24 23  1  0
 25 26  1  6
 25 27  1  0
 26 20  1  0
 27 29  1  0
 28 27  2  0
M  END
$$$$
