WVV.pdb
     RDKit          3D

 29 30  0  0  1  0  0  0  0  0999 V2000
    5.8116  -18.3827   24.8172 N   0  0  0  0  0  0  0  0  0  0  0  0
    6.3225  -17.0329   24.7111 C   0  0  1  0  0  0  0  0  0  0  0  0
    6.7260  -16.6055   26.1096 C   0  0  0  0  0  0  0  0  0  0  0  0
    6.1080  -15.3030   26.4674 C   0  0  0  0  0  0  0  0  0  0  0  0
    4.7812  -14.9873   26.6865 C   0  0  0  0  0  0  0  0  0  0  0  0
    4.6863  -13.6910   26.9827 N   0  0  0  0  0  0  0  0  0  0  0  0
    5.8899  -13.0994   26.9774 C   0  0  0  0  0  0  0  0  0  0  0  0
    6.2987  -11.7922   27.2199 C   0  0  0  0  0  0  0  0  0  0  0  0
    7.6477  -11.5219   27.1280 C   0  0  0  0  0  0  0  0  0  0  0  0
    8.5445  -12.5232   26.8064 C   0  0  0  0  0  0  0  0  0  0  0  0
    8.1390  -13.8204   26.5657 C   0  0  0  0  0  0  0  0  0  0  0  0
    6.7873  -14.0945   26.6571 C   0  0  0  0  0  0  0  0  0  0  0  0
    7.4543  -17.0241   23.7758 C   0  0  0  0  0  0  0  0  0  0  0  0
    8.1355  -18.0798   23.6543 O   0  0  0  0  0  0  0  0  0  0  0  0
    7.7307  -14.7144   20.4270 C   0  0  0  0  0  0  0  0  0  0  0  0
    8.9909  -14.6924   21.2455 C   0  0  2  0  0  0  0  0  0  0  0  0
   10.1383  -14.6240   20.2694 C   0  0  0  0  0  0  0  0  0  0  0  0
    9.0330  -15.9185   22.1311 C   0  0  2  0  0  0  0  0  0  0  0  0
    7.8460  -15.9278   22.9967 N   0  0  0  0  0  0  0  0  0  0  0  0
   10.1918  -15.8100   23.0298 C   0  0  0  0  0  0  0  0  0  0  0  0
   11.3582  -15.9085   22.5095 O   0  0  0  0  0  0  0  0  0  0  0  0
   10.5155  -13.4497   26.2904 C   0  0  0  0  0  0  0  0  0  0  0  0
   11.1179  -14.8024   26.5419 C   0  0  1  0  0  0  0  0  0  0  0  0
   10.2090  -15.6648   27.3748 C   0  0  0  0  0  0  0  0  0  0  0  0
   11.4231  -15.4357   25.1885 C   0  0  2  0  0  0  0  0  0  0  0  0
   10.1875  -15.6021   24.4237 N   0  0  0  0  0  0  0  0  0  0  0  0
   12.0190  -16.7591   25.4722 C   0  0  0  0  0  0  0  0  0  0  0  0
   11.3960  -17.8126   25.2252 O   0  0  0  0  0  0  0  0  0  0  0  0
   13.2794  -16.8721   26.0174 O   0  0  0  0  0  0  0  0  0  0  0  0
  2  1  1  1
  2 13  1  0
  3  2  1  0
  4  3  1  0
  4 12  1  0
  5  6  1  0
  5  4  2  0
  6  7  1  0
  7 12  2  0
  7  8  1  0
  8  9  2  0
  9 10  1  0
 11 10  2  0
 12 11  1  0
 13 14  2  0
 16 17  1  6
 16 15  1  0
 16 18  1  0
 18 19  1  1
 19 13  1  0
 20 21  2  0
 20 18  1  0
 23 22  1  6
 23 25  1  0
 24 23  1  0
 25 26  1  6
 25 27  1  0
 26 20  1  0
 27 29  1  0
 28 27  2  0
M  END
$$$$
