WVV.pdb
     RDKit          3D

 29 30  0  0  1  0  0  0  0  0999 V2000
    8.0616  -17.0335   20.5282 N   0  0  0  0  0  0  0  0  0  0  0  0
    8.3519  -16.1982   21.6738 C   0  0  1  0  0  0  0  0  0  0  0  0
    7.0388  -15.5722   22.1042 C   0  0  0  0  0  0  0  0  0  0  0  0
    7.1981  -14.1158   22.3490 C   0  0  0  0  0  0  0  0  0  0  0  0
    7.5975  -13.1152   21.4846 C   0  0  0  0  0  0  0  0  0  0  0  0
    7.5979  -11.9524   22.1366 N   0  0  0  0  0  0  0  0  0  0  0  0
    7.2162  -12.1080   23.4129 C   0  0  0  0  0  0  0  0  0  0  0  0
    7.0615  -11.2130   24.4663 C   0  0  0  0  0  0  0  0  0  0  0  0
    6.6418  -11.7237   25.6764 C   0  0  0  0  0  0  0  0  0  0  0  0
    6.3893  -13.0750   25.8191 C   0  0  0  0  0  0  0  0  0  0  0  0
    6.5427  -13.9634   24.7738 C   0  0  0  0  0  0  0  0  0  0  0  0
    6.9633  -13.4544   23.5594 C   0  0  0  0  0  0  0  0  0  0  0  0
    8.9481  -17.0272   22.7289 C   0  0  0  0  0  0  0  0  0  0  0  0
    8.2912  -18.0191   23.1504 O   0  0  0  0  0  0  0  0  0  0  0  0
   11.7112  -19.2853   22.9798 C   0  0  0  0  0  0  0  0  0  0  0  0
   12.0106  -18.2590   24.0359 C   0  0  2  0  0  0  0  0  0  0  0  0
   12.6876  -18.9896   25.1681 C   0  0  0  0  0  0  0  0  0  0  0  0
   10.7244  -17.5778   24.4497 C   0  0  2  0  0  0  0  0  0  0  0  0
   10.2016  -16.8064   23.3140 N   0  0  0  0  0  0  0  0  0  0  0  0
   11.0289  -16.5975   25.5024 C   0  0  0  0  0  0  0  0  0  0  0  0
   11.9615  -15.7498   25.2728 O   0  0  0  0  0  0  0  0  0  0  0  0
   10.3444  -13.4901   27.0024 C   0  0  0  0  0  0  0  0  0  0  0  0
   10.1665  -14.4539   28.1405 C   0  0  1  0  0  0  0  0  0  0  0  0
    8.7176  -14.8040   28.3456 C   0  0  0  0  0  0  0  0  0  0  0  0
   11.0149  -15.6863   27.8446 C   0  0  2  0  0  0  0  0  0  0  0  0
   10.4106  -16.4617   26.7615 N   0  0  0  0  0  0  0  0  0  0  0  0
   11.0318  -16.4890   29.0866 C   0  0  0  0  0  0  0  0  0  0  0  0
   10.4154  -17.5721   29.1622 O   0  0  0  0  0  0  0  0  0  0  0  0
   11.7275  -16.0679   30.1989 O   0  0  0  0  0  0  0  0  0  0  0  0
  2  1  1  6
  2 13  1  0
  3  2  1  0
  4  3  1  0
  4 12  1  0
  5  6  1  0
  5  4  2  0
  6  7  1  0
  7 12  2  0
  7  8  1  0
  8  9  2  0
  9 10  1  0
 11 10  2  0
 12 11  1  0
 13 14  2  0
 16 17  1  1
 16 15  1  0
 16 18  1  0
 18 19  1  6
 19 13  1  0
 20 21  2  0
 20 18  1  0
 23 22  1  6
 23 25  1  0
 24 23  1  0
 25 26  1  6
 25 27  1  0
 26 20  1  0
 27 29  1  0
 28 27  2  0
M  END
$$$$
