WVV.pdb
     RDKit          3D

 29 30  0  0  1  0  0  0  0  0999 V2000
    7.9685  -16.8920   20.8008 N   0  0  0  0  0  0  0  0  0  0  0  0
    8.3247  -16.0745   21.9406 C   0  0  1  0  0  0  0  0  0  0  0  0
    7.0324  -15.4997   22.4891 C   0  0  0  0  0  0  0  0  0  0  0  0
    7.1431  -14.0312   22.6836 C   0  0  0  0  0  0  0  0  0  0  0  0
    7.5071  -13.0478   21.7845 C   0  0  0  0  0  0  0  0  0  0  0  0
    7.4695  -11.8641   22.3966 N   0  0  0  0  0  0  0  0  0  0  0  0
    7.0953  -11.9888   23.6785 C   0  0  0  0  0  0  0  0  0  0  0  0
    6.9124  -11.0640   24.7012 C   0  0  0  0  0  0  0  0  0  0  0  0
    6.5121  -11.5469   25.9292 C   0  0  0  0  0  0  0  0  0  0  0  0
    6.3055  -12.9003   26.1185 C   0  0  0  0  0  0  0  0  0  0  0  0
    6.4870  -13.8181   25.1037 C   0  0  0  0  0  0  0  0  0  0  0  0
    6.8882  -13.3371   23.8715 C   0  0  0  0  0  0  0  0  0  0  0  0
    9.0272  -16.9083   22.9240 C   0  0  0  0  0  0  0  0  0  0  0  0
    8.4306  -17.9230   23.3799 O   0  0  0  0  0  0  0  0  0  0  0  0
   12.1835  -18.7579   22.6349 C   0  0  0  0  0  0  0  0  0  0  0  0
   12.3582  -17.9109   23.8640 C   0  0  2  0  0  0  0  0  0  0  0  0
   13.1641  -18.7294   24.8410 C   0  0  0  0  0  0  0  0  0  0  0  0
   10.9981  -17.5156   24.3960 C   0  0  2  0  0  0  0  0  0  0  0  0
   10.3211  -16.6689   23.4044 N   0  0  0  0  0  0  0  0  0  0  0  0
   11.1853  -16.6761   25.5885 C   0  0  0  0  0  0  0  0  0  0  0  0
   12.0049  -15.6955   25.5019 O   0  0  0  0  0  0  0  0  0  0  0  0
    9.8782  -14.0311   27.5697 C   0  0  0  0  0  0  0  0  0  0  0  0
   10.0027  -15.1538   28.5596 C   0  0  1  0  0  0  0  0  0  0  0  0
    8.6810  -15.8346   28.7907 C   0  0  0  0  0  0  0  0  0  0  0  0
   11.0593  -16.1214   28.0366 C   0  0  2  0  0  0  0  0  0  0  0  0
   10.5620  -16.8095   26.8455 N   0  0  0  0  0  0  0  0  0  0  0  0
   11.2991  -17.1013   29.1179 C   0  0  0  0  0  0  0  0  0  0  0  0
   10.9212  -18.2863   29.0091 O   0  0  0  0  0  0  0  0  0  0  0  0
   11.9467  -16.7386   30.2788 O   0  0  0  0  0  0  0  0  0  0  0  0
  2  1  1  6
  2 13  1  0
  3  2  1  0
  4  3  1  0
  4 12  1  0
  5  6  1  0
  5  4  2  0
  6  7  1  0
  7 12  2  0
  7  8  1  0
  8  9  2  0
  9 10  1  0
 11 10  2  0
 12 11  1  0
 13 14  2  0
 16 17  1  1
 16 15  1  0
 16 18  1  0
 18 19  1  6
 19 13  1  0
 20 21  2  0
 20 18  1  0
 23 22  1  6
 23 25  1  0
 24 23  1  0
 25 26  1  6
 25 27  1  0
 26 20  1  0
 27 29  1  0
 28 27  2  0
M  END
$$$$
