WVV.pdb
     RDKit          3D

 29 30  0  0  1  0  0  0  0  0999 V2000
    5.9371  -16.9509   25.2616 N   0  0  0  0  0  0  0  0  0  0  0  0
    7.1367  -16.2203   24.9130 C   0  0  1  0  0  0  0  0  0  0  0  0
    7.4132  -15.2607   26.0549 C   0  0  0  0  0  0  0  0  0  0  0  0
    6.5437  -14.0598   25.9637 C   0  0  0  0  0  0  0  0  0  0  0  0
    5.3762  -13.7634   26.6398 C   0  0  0  0  0  0  0  0  0  0  0  0
    4.9331  -12.5715   26.2396 N   0  0  0  0  0  0  0  0  0  0  0  0
    5.7442  -12.0335   25.3169 C   0  0  0  0  0  0  0  0  0  0  0  0
    5.7077  -10.8337   24.6143 C   0  0  0  0  0  0  0  0  0  0  0  0
    6.7279  -10.5913   23.7190 C   0  0  0  0  0  0  0  0  0  0  0  0
    7.7395  -11.5159   23.5395 C   0  0  0  0  0  0  0  0  0  0  0  0
    7.7760  -12.7065   24.2366 C   0  0  0  0  0  0  0  0  0  0  0  0
    6.7546  -12.9524   25.1349 C   0  0  0  0  0  0  0  0  0  0  0  0
    8.2331  -17.1751   24.7077 C   0  0  0  0  0  0  0  0  0  0  0  0
    8.1792  -18.2833   25.3095 O   0  0  0  0  0  0  0  0  0  0  0  0
   10.6552  -17.8899   21.5306 C   0  0  0  0  0  0  0  0  0  0  0  0
   11.4310  -17.4658   22.7458 C   0  0  2  0  0  0  0  0  0  0  0  0
   12.7225  -18.2441   22.7265 C   0  0  0  0  0  0  0  0  0  0  0  0
   10.5992  -17.7206   23.9838 C   0  0  2  0  0  0  0  0  0  0  0  0
    9.3482  -16.9561   23.8887 N   0  0  0  0  0  0  0  0  0  0  0  0
   11.3161  -17.1851   25.1506 C   0  0  0  0  0  0  0  0  0  0  0  0
   12.1634  -16.2460   24.9475 O   0  0  0  0  0  0  0  0  0  0  0  0
   10.4878  -14.9941   27.6733 C   0  0  0  0  0  0  0  0  0  0  0  0
   11.0331  -16.1411   28.4751 C   0  0  1  0  0  0  0  0  0  0  0  0
    9.9292  -16.9887   29.0466 C   0  0  0  0  0  0  0  0  0  0  0  0
   11.9589  -16.9452   27.5683 C   0  0  2  0  0  0  0  0  0  0  0  0
   11.1870  -17.5765   26.4982 N   0  0  0  0  0  0  0  0  0  0  0  0
   12.5777  -17.9840   28.4199 C   0  0  0  0  0  0  0  0  0  0  0  0
   12.3013  -19.1919   28.2662 O   0  0  0  0  0  0  0  0  0  0  0  0
   13.4779  -17.6528   29.4090 O   0  0  0  0  0  0  0  0  0  0  0  0
  2  1  1  1
  2 13  1  0
  3  2  1  0
  4  3  1  0
  4 12  1  0
  5  6  1  0
  5  4  2  0
  6  7  1  0
  7 12  2  0
  7  8  1  0
  8  9  2  0
  9 10  1  0
 11 10  2  0
 12 11  1  0
 13 14  2  0
 16 17  1  1
 16 15  1  0
 16 18  1  0
 18 19  1  6
 19 13  1  0
 20 21  2  0
 20 18  1  0
 23 22  1  6
 23 25  1  0
 24 23  1  0
 25 26  1  6
 25 27  1  0
 26 20  1  0
 27 29  1  0
 28 27  2  0
M  END
$$$$
