WVV.pdb
     RDKit          3D

 29 30  0  0  1  0  0  0  0  0999 V2000
    5.3995  -18.0850   23.9417 N   0  0  0  0  0  0  0  0  0  0  0  0
    6.1117  -16.8301   23.8313 C   0  0  1  0  0  0  0  0  0  0  0  0
    6.9077  -16.6634   25.1118 C   0  0  0  0  0  0  0  0  0  0  0  0
    6.5421  -15.4019   25.8057 C   0  0  0  0  0  0  0  0  0  0  0  0
    5.3494  -15.0356   26.3983 C   0  0  0  0  0  0  0  0  0  0  0  0
    5.4730  -13.8067   26.9000 N   0  0  0  0  0  0  0  0  0  0  0  0
    6.6991  -13.3100   26.6790 C   0  0  0  0  0  0  0  0  0  0  0  0
    7.2972  -12.0969   27.0035 C   0  0  0  0  0  0  0  0  0  0  0  0
    8.6071  -11.9112   26.6148 C   0  0  0  0  0  0  0  0  0  0  0  0
    9.2840  -12.9028   25.9300 C   0  0  0  0  0  0  0  0  0  0  0  0
    8.6906  -14.1067   25.6080 C   0  0  0  0  0  0  0  0  0  0  0  0
    7.3776  -14.2958   25.9964 C   0  0  0  0  0  0  0  0  0  0  0  0
    6.9705  -16.8729   22.6411 C   0  0  0  0  0  0  0  0  0  0  0  0
    7.4032  -17.9951   22.2582 O   0  0  0  0  0  0  0  0  0  0  0  0
    8.3414  -13.3635   20.7213 C   0  0  0  0  0  0  0  0  0  0  0  0
    8.0720  -14.5818   19.8837 C   0  0  2  0  0  0  0  0  0  0  0  0
    6.6705  -14.4350   19.3469 C   0  0  0  0  0  0  0  0  0  0  0  0
    8.2601  -15.8218   20.7301 C   0  0  2  0  0  0  0  0  0  0  0  0
    7.3543  -15.7578   21.8850 N   0  0  0  0  0  0  0  0  0  0  0  0
    9.6235  -15.8132   21.2806 C   0  0  0  0  0  0  0  0  0  0  0  0
   10.5992  -15.8142   20.4505 O   0  0  0  0  0  0  0  0  0  0  0  0
   12.9625  -15.8474   24.9377 C   0  0  0  0  0  0  0  0  0  0  0  0
   11.5085  -15.9109   24.5671 C   0  0  1  0  0  0  0  0  0  0  0  0
   10.7200  -14.8191   25.2380 C   0  0  0  0  0  0  0  0  0  0  0  0
   11.4111  -15.8334   23.0470 C   0  0  2  0  0  0  0  0  0  0  0  0
   10.0076  -15.7991   22.6364 N   0  0  0  0  0  0  0  0  0  0  0  0
   12.0562  -17.0575   22.5249 C   0  0  0  0  0  0  0  0  0  0  0  0
   11.4651  -18.1569   22.5470 O   0  0  0  0  0  0  0  0  0  0  0  0
   13.3288  -17.0240   21.9978 O   0  0  0  0  0  0  0  0  0  0  0  0
  2  1  1  1
  2 13  1  0
  3  2  1  0
  4  3  1  0
  4 12  1  0
  5  6  1  0
  5  4  2  0
  6  7  1  0
  7 12  2  0
  7  8  1  0
  8  9  2  0
  9 10  1  0
 11 10  2  0
 12 11  1  0
 13 14  2  0
 16 17  1  1
 16 15  1  0
 16 18  1  0
 18 19  1  1
 19 13  1  0
 20 21  2  0
 20 18  1  0
 23 22  1  6
 23 25  1  0
 24 23  1  0
 25 26  1  1
 25 27  1  0
 26 20  1  0
 27 29  1  0
 28 27  2  0
M  END
$$$$
