WVV.pdb
     RDKit          3D

 29 30  0  0  1  0  0  0  0  0999 V2000
    5.6614  -17.9583   22.8147 N   0  0  0  0  0  0  0  0  0  0  0  0
    6.1965  -17.8686   24.1563 C   0  0  1  0  0  0  0  0  0  0  0  0
    7.1375  -19.0454   24.3328 C   0  0  0  0  0  0  0  0  0  0  0  0
    6.4050  -20.2457   24.8116 C   0  0  0  0  0  0  0  0  0  0  0  0
    5.8492  -21.2848   24.0910 C   0  0  0  0  0  0  0  0  0  0  0  0
    5.2865  -22.1479   24.9369 N   0  0  0  0  0  0  0  0  0  0  0  0
    5.4302  -21.7489   26.2093 C   0  0  0  0  0  0  0  0  0  0  0  0
    5.0253  -22.2988   27.4210 C   0  0  0  0  0  0  0  0  0  0  0  0
    5.3481  -21.6088   28.5704 C   0  0  0  0  0  0  0  0  0  0  0  0
    6.0472  -20.4185   28.5023 C   0  0  0  0  0  0  0  0  0  0  0  0
    6.4492  -19.8727   27.2999 C   0  0  0  0  0  0  0  0  0  0  0  0
    6.1271  -20.5621   26.1459 C   0  0  0  0  0  0  0  0  0  0  0  0
    6.8800  -16.5784   24.3112 C   0  0  0  0  0  0  0  0  0  0  0  0
    7.6927  -16.2227   23.4133 O   0  0  0  0  0  0  0  0  0  0  0  0
    5.8052  -12.9095   25.8472 C   0  0  0  0  0  0  0  0  0  0  0  0
    6.8992  -13.6060   26.6066 C   0  0  2  0  0  0  0  0  0  0  0  0
    7.8069  -12.5275   27.1421 C   0  0  0  0  0  0  0  0  0  0  0  0
    7.6052  -14.5780   25.6869 C   0  0  2  0  0  0  0  0  0  0  0  0
    6.7030  -15.6978   25.3862 N   0  0  0  0  0  0  0  0  0  0  0  0
    8.7496  -15.1584   26.4050 C   0  0  0  0  0  0  0  0  0  0  0  0
    8.5103  -15.7833   27.4974 O   0  0  0  0  0  0  0  0  0  0  0  0
   11.8680  -16.8729   24.5965 C   0  0  0  0  0  0  0  0  0  0  0  0
   12.3305  -16.1253   25.8143 C   0  0  1  0  0  0  0  0  0  0  0  0
   12.9835  -14.8208   25.4460 C   0  0  0  0  0  0  0  0  0  0  0  0
   11.1227  -15.9222   26.7232 C   0  0  2  0  0  0  0  0  0  0  0  0
   10.1096  -15.1204   26.0376 N   0  0  0  0  0  0  0  0  0  0  0  0
   11.6144  -15.1966   27.9143 C   0  0  0  0  0  0  0  0  0  0  0  0
   11.2871  -14.0107   28.1270 O   0  0  0  0  0  0  0  0  0  0  0  0
   12.4485  -15.8053   28.8267 O   0  0  0  0  0  0  0  0  0  0  0  0
  2  1  1  6
  2 13  1  0
  3  2  1  0
  4  3  1  0
  4 12  1  0
  5  6  1  0
  5  4  2  0
  6  7  1  0
  7 12  2  0
  7  8  1  0
  8  9  2  0
  9 10  1  0
 11 10  2  0
 12 11  1  0
 13 14  2  0
 16 17  1  6
 16 15  1  0
 16 18  1  0
 18 19  1  1
 19 13  1  0
 20 21  2  0
 20 18  1  0
 23 22  1  6
 23 25  1  0
 24 23  1  0
 25 26  1  6
 25 27  1  0
 26 20  1  0
 27 29  1  0
 28 27  2  0
M  END
$$$$
