WVV.pdb
     RDKit          3D

 29 30  0  0  1  0  0  0  0  0999 V2000
    6.2000  -17.8662   24.5486 N   0  0  0  0  0  0  0  0  0  0  0  0
    6.5677  -16.4969   24.2586 C   0  0  1  0  0  0  0  0  0  0  0  0
    7.3725  -15.9984   25.4439 C   0  0  0  0  0  0  0  0  0  0  0  0
    6.6534  -14.9112   26.1564 C   0  0  0  0  0  0  0  0  0  0  0  0
    5.4138  -14.9258   26.7654 C   0  0  0  0  0  0  0  0  0  0  0  0
    5.1685  -13.7209   27.2804 N   0  0  0  0  0  0  0  0  0  0  0  0
    6.1852  -12.8763   27.0527 C   0  0  0  0  0  0  0  0  0  0  0  0
    6.3948  -11.5422   27.3854 C   0  0  0  0  0  0  0  0  0  0  0  0
    7.5828  -10.9676   26.9855 C   0  0  0  0  0  0  0  0  0  0  0  0
    8.5175  -11.7037   26.2822 C   0  0  0  0  0  0  0  0  0  0  0  0
    8.3097  -13.0277   25.9521 C   0  0  0  0  0  0  0  0  0  0  0  0
    7.1198  -13.6066   26.3516 C   0  0  0  0  0  0  0  0  0  0  0  0
    7.3364  -16.4648   23.0080 C   0  0  0  0  0  0  0  0  0  0  0  0
    7.8799  -17.5340   22.6147 O   0  0  0  0  0  0  0  0  0  0  0  0
    6.7735  -13.6583   20.0160 C   0  0  0  0  0  0  0  0  0  0  0  0
    8.2135  -13.9557   20.3264 C   0  0  2  0  0  0  0  0  0  0  0  0
    8.9656  -13.8546   19.0233 C   0  0  0  0  0  0  0  0  0  0  0  0
    8.3144  -15.3216   20.9693 C   0  0  2  0  0  0  0  0  0  0  0  0
    7.5189  -15.3321   22.2044 N   0  0  0  0  0  0  0  0  0  0  0  0
    9.7082  -15.5462   21.3805 C   0  0  0  0  0  0  0  0  0  0  0  0
   10.2641  -14.6510   22.1088 O   0  0  0  0  0  0  0  0  0  0  0  0
   11.4004  -17.8794   23.6128 C   0  0  0  0  0  0  0  0  0  0  0  0
   12.1453  -18.0082   22.3150 C   0  0  1  0  0  0  0  0  0  0  0  0
   11.7105  -19.2275   21.5481 C   0  0  0  0  0  0  0  0  0  0  0  0
   11.9232  -16.7253   21.5207 C   0  0  2  0  0  0  0  0  0  0  0  0
   10.5325  -16.6475   21.0742 N   0  0  0  0  0  0  0  0  0  0  0  0
   12.8223  -16.7994   20.3489 C   0  0  0  0  0  0  0  0  0  0  0  0
   12.3745  -17.0312   19.2067 O   0  0  0  0  0  0  0  0  0  0  0  0
   14.1815  -16.6151   20.4797 O   0  0  0  0  0  0  0  0  0  0  0  0
  2  1  1  1
  2 13  1  0
  3  2  1  0
  4  3  1  0
  4 12  1  0
  5  6  1  0
  5  4  2  0
  6  7  1  0
  7 12  2  0
  7  8  1  0
  8  9  2  0
  9 10  1  0
 11 10  2  0
 12 11  1  0
 13 14  2  0
 16 17  1  6
 16 15  1  0
 16 18  1  0
 18 19  1  1
 19 13  1  0
 20 21  2  0
 20 18  1  0
 23 22  1  1
 23 25  1  0
 24 23  1  0
 25 26  1  6
 25 27  1  0
 26 20  1  0
 27 29  1  0
 28 27  2  0
M  END
$$$$
