WVV.pdb
     RDKit          3D

 29 30  0  0  1  0  0  0  0  0999 V2000
    5.5842  -17.9479   24.2917 N   0  0  0  0  0  0  0  0  0  0  0  0
    6.1645  -16.6303   24.1455 C   0  0  1  0  0  0  0  0  0  0  0  0
    6.9662  -16.3619   25.4050 C   0  0  0  0  0  0  0  0  0  0  0  0
    6.4774  -15.1422   26.0977 C   0  0  0  0  0  0  0  0  0  0  0  0
    5.2400  -14.8797   26.6525 C   0  0  0  0  0  0  0  0  0  0  0  0
    5.2475  -13.6510   27.1696 N   0  0  0  0  0  0  0  0  0  0  0  0
    6.4364  -13.0551   26.9954 C   0  0  0  0  0  0  0  0  0  0  0  0
    6.9238  -11.8020   27.3514 C   0  0  0  0  0  0  0  0  0  0  0  0
    8.2267  -11.5073   27.0095 C   0  0  0  0  0  0  0  0  0  0  0  0
    9.0036  -12.4332   26.3391 C   0  0  0  0  0  0  0  0  0  0  0  0
    8.5201  -13.6768   25.9858 C   0  0  0  0  0  0  0  0  0  0  0  0
    7.2143  -13.9752   26.3272 C   0  0  0  0  0  0  0  0  0  0  0  0
    6.9983  -16.6084   22.9371 C   0  0  0  0  0  0  0  0  0  0  0  0
    7.5667  -17.6791   22.5855 O   0  0  0  0  0  0  0  0  0  0  0  0
    6.6506  -13.8903   19.7784 C   0  0  0  0  0  0  0  0  0  0  0  0
    8.0417  -14.1143   20.3011 C   0  0  2  0  0  0  0  0  0  0  0  0
    8.9724  -13.9801   19.1221 C   0  0  0  0  0  0  0  0  0  0  0  0
    8.1132  -15.4714   20.9663 C   0  0  2  0  0  0  0  0  0  0  0  0
    7.2180  -15.4839   22.1312 N   0  0  0  0  0  0  0  0  0  0  0  0
    9.4717  -15.6654   21.4944 C   0  0  0  0  0  0  0  0  0  0  0  0
    9.8504  -14.9050   22.4532 O   0  0  0  0  0  0  0  0  0  0  0  0
   13.5299  -18.2122   22.4100 C   0  0  0  0  0  0  0  0  0  0  0  0
   12.0657  -18.1256   22.0869 C   0  0  1  0  0  0  0  0  0  0  0  0
   11.2178  -18.5827   23.2428 C   0  0  0  0  0  0  0  0  0  0  0  0
   11.7604  -16.6851   21.6898 C   0  0  2  0  0  0  0  0  0  0  0  0
   10.4351  -16.6052   21.0763 N   0  0  0  0  0  0  0  0  0  0  0  0
   12.7929  -16.2962   20.7050 C   0  0  0  0  0  0  0  0  0  0  0  0
   12.6299  -16.5038   19.4847 O   0  0  0  0  0  0  0  0  0  0  0  0
   13.9664  -15.6930   21.1019 O   0  0  0  0  0  0  0  0  0  0  0  0
  2  1  1  1
  2 13  1  0
  3  2  1  0
  4  3  1  0
  4 12  1  0
  5  6  1  0
  5  4  2  0
  6  7  1  0
  7 12  2  0
  7  8  1  0
  8  9  2  0
  9 10  1  0
 11 10  2  0
 12 11  1  0
 13 14  2  0
 16 17  1  6
 16 15  1  0
 16 18  1  0
 18 19  1  1
 19 13  1  0
 20 21  2  0
 20 18  1  0
 23 22  1  1
 23 25  1  0
 24 23  1  0
 25 26  1  6
 25 27  1  0
 26 20  1  0
 27 29  1  0
 28 27  2  0
M  END
$$$$
