WVV.pdb
     RDKit          3D

 29 30  0  0  1  0  0  0  0  0999 V2000
    8.3989  -18.3217   20.3988 N   0  0  0  0  0  0  0  0  0  0  0  0
    8.4567  -17.1252   21.2108 C   0  0  1  0  0  0  0  0  0  0  0  0
    7.1391  -16.3990   21.0162 C   0  0  0  0  0  0  0  0  0  0  0  0
    7.2309  -15.4178   19.9047 C   0  0  0  0  0  0  0  0  0  0  0  0
    6.9026  -15.5635   18.5710 C   0  0  0  0  0  0  0  0  0  0  0  0
    7.1500  -14.4183   17.9351 N   0  0  0  0  0  0  0  0  0  0  0  0
    7.6346  -13.4895   18.7725 C   0  0  0  0  0  0  0  0  0  0  0  0
    8.0340  -12.1700   18.5876 C   0  0  0  0  0  0  0  0  0  0  0  0
    8.4930  -11.4851   19.6928 C   0  0  0  0  0  0  0  0  0  0  0  0
    8.5473  -12.1016   20.9287 C   0  0  0  0  0  0  0  0  0  0  0  0
    8.1510  -13.4109   21.1124 C   0  0  0  0  0  0  0  0  0  0  0  0
    7.6904  -14.1001   20.0063 C   0  0  0  0  0  0  0  0  0  0  0  0
    8.6817  -17.5095   22.6099 C   0  0  0  0  0  0  0  0  0  0  0  0
    8.0114  -18.4704   23.0794 O   0  0  0  0  0  0  0  0  0  0  0  0
   12.2480  -17.2404   24.2209 C   0  0  0  0  0  0  0  0  0  0  0  0
   11.1892  -18.1022   24.8492 C   0  0  2  0  0  0  0  0  0  0  0  0
   11.1527  -19.3860   24.0588 C   0  0  0  0  0  0  0  0  0  0  0  0
    9.8711  -17.3594   24.8421 C   0  0  2  0  0  0  0  0  0  0  0  0
    9.5902  -16.8908   23.4783 N   0  0  0  0  0  0  0  0  0  0  0  0
   10.0078  -16.1507   25.6682 C   0  0  0  0  0  0  0  0  0  0  0  0
   10.7276  -15.1958   25.2089 O   0  0  0  0  0  0  0  0  0  0  0  0
    7.7395  -13.5326   26.7222 C   0  0  0  0  0  0  0  0  0  0  0  0
    8.3766  -13.9705   28.0099 C   0  0  1  0  0  0  0  0  0  0  0  0
    7.4615  -14.8643   28.8021 C   0  0  0  0  0  0  0  0  0  0  0  0
    9.6928  -14.6610   27.6676 C   0  0  2  0  0  0  0  0  0  0  0  0
    9.4326  -15.8966   26.9294 N   0  0  0  0  0  0  0  0  0  0  0  0
   10.3463  -14.9753   28.9564 C   0  0  0  0  0  0  0  0  0  0  0  0
   10.4766  -16.1557   29.3418 O   0  0  0  0  0  0  0  0  0  0  0  0
   10.8319  -13.9770   29.7725 O   0  0  0  0  0  0  0  0  0  0  0  0
  2  1  1  6
  2 13  1  0
  3  2  1  0
  4  3  1  0
  4 12  1  0
  5  6  1  0
  5  4  2  0
  6  7  1  0
  7 12  2  0
  7  8  1  0
  8  9  2  0
  9 10  1  0
 11 10  2  0
 12 11  1  0
 13 14  2  0
 16 17  1  6
 16 15  1  0
 16 18  1  0
 18 19  1  6
 19 13  1  0
 20 21  2  0
 20 18  1  0
 23 22  1  6
 23 25  1  0
 24 23  1  0
 25 26  1  1
 25 27  1  0
 26 20  1  0
 27 29  1  0
 28 27  2  0
M  END
$$$$
