WVV.pdb
     RDKit          3D

 29 30  0  0  1  0  0  0  0  0999 V2000
    5.9600  -18.7742   25.1700 N   0  0  0  0  0  0  0  0  0  0  0  0
    6.2177  -17.3589   25.0119 C   0  0  1  0  0  0  0  0  0  0  0  0
    6.7889  -16.8673   26.3284 C   0  0  0  0  0  0  0  0  0  0  0  0
    6.4717  -15.4322   26.5437 C   0  0  0  0  0  0  0  0  0  0  0  0
    5.2452  -14.8102   26.6726 C   0  0  0  0  0  0  0  0  0  0  0  0
    5.4375  -13.5032   26.8516 N   0  0  0  0  0  0  0  0  0  0  0  0
    6.7433  -13.1973   26.8517 C   0  0  0  0  0  0  0  0  0  0  0  0
    7.4301  -11.9969   26.9998 C   0  0  0  0  0  0  0  0  0  0  0  0
    8.8073  -12.0432   26.9482 C   0  0  0  0  0  0  0  0  0  0  0  0
    9.4631  -13.2446   26.7560 C   0  0  0  0  0  0  0  0  0  0  0  0
    8.7817  -14.4359   26.6091 C   0  0  0  0  0  0  0  0  0  0  0  0
    7.4010  -14.3927   26.6604 C   0  0  0  0  0  0  0  0  0  0  0  0
    7.1480  -17.1663   23.8924 C   0  0  0  0  0  0  0  0  0  0  0  0
    7.9234  -18.1157   23.5915 O   0  0  0  0  0  0  0  0  0  0  0  0
    6.4779  -14.5647   20.7426 C   0  0  0  0  0  0  0  0  0  0  0  0
    7.8778  -14.5351   21.2884 C   0  0  2  0  0  0  0  0  0  0  0  0
    8.7914  -14.2685   20.1186 C   0  0  0  0  0  0  0  0  0  0  0  0
    8.1696  -15.8451   21.9870 C   0  0  2  0  0  0  0  0  0  0  0  0
    7.2478  -16.0018   23.1202 N   0  0  0  0  0  0  0  0  0  0  0  0
    9.5196  -15.7789   22.5661 C   0  0  0  0  0  0  0  0  0  0  0  0
    9.7926  -14.7826   23.3236 O   0  0  0  0  0  0  0  0  0  0  0  0
   11.3753  -17.6695   25.0626 C   0  0  0  0  0  0  0  0  0  0  0  0
   12.2785  -17.6687   23.8627 C   0  0  1  0  0  0  0  0  0  0  0  0
   12.1933  -18.9671   23.1072 C   0  0  0  0  0  0  0  0  0  0  0  0
   11.8962  -16.4761   22.9923 C   0  0  2  0  0  0  0  0  0  0  0  0
   10.5783  -16.6934   22.3962 N   0  0  0  0  0  0  0  0  0  0  0  0
   12.9197  -16.3913   21.9282 C   0  0  0  0  0  0  0  0  0  0  0  0
   12.6530  -16.7097   20.7508 O   0  0  0  0  0  0  0  0  0  0  0  0
   14.1991  -15.9587   22.2015 O   0  0  0  0  0  0  0  0  0  0  0  0
  2  1  1  1
  2 13  1  0
  3  2  1  0
  4  3  1  0
  4 12  1  0
  5  6  1  0
  5  4  2  0
  6  7  1  0
  7 12  2  0
  7  8  1  0
  8  9  2  0
  9 10  1  0
 11 10  2  0
 12 11  1  0
 13 14  2  0
 16 17  1  6
 16 15  1  0
 16 18  1  0
 18 19  1  1
 19 13  1  0
 20 21  2  0
 20 18  1  0
 23 22  1  1
 23 25  1  0
 24 23  1  0
 25 26  1  6
 25 27  1  0
 26 20  1  0
 27 29  1  0
 28 27  2  0
M  END
$$$$
