WVV.pdb
     RDKit          3D

 29 30  0  0  1  0  0  0  0  0999 V2000
    6.2096  -18.6360   24.8370 N   0  0  0  0  0  0  0  0  0  0  0  0
    6.4903  -17.2313   24.6312 C   0  0  1  0  0  0  0  0  0  0  0  0
    7.2299  -16.7466   25.8638 C   0  0  0  0  0  0  0  0  0  0  0  0
    6.5941  -15.5249   26.4202 C   0  0  0  0  0  0  0  0  0  0  0  0
    5.2875  -15.3130   26.8151 C   0  0  0  0  0  0  0  0  0  0  0  0
    5.1638  -14.0598   27.2527 N   0  0  0  0  0  0  0  0  0  0  0  0
    6.3283  -13.3987   27.1767 C   0  0  0  0  0  0  0  0  0  0  0  0
    6.6976  -12.0991   27.5070 C   0  0  0  0  0  0  0  0  0  0  0  0
    8.0121  -11.7400   27.2961 C   0  0  0  0  0  0  0  0  0  0  0  0
    8.9140  -12.6491   26.7759 C   0  0  0  0  0  0  0  0  0  0  0  0
    8.5476  -13.9388   26.4482 C   0  0  0  0  0  0  0  0  0  0  0  0
    7.2305  -14.3018   26.6584 C   0  0  0  0  0  0  0  0  0  0  0  0
    7.2855  -17.0790   23.4063 C   0  0  0  0  0  0  0  0  0  0  0  0
    7.8742  -18.0968   22.9473 O   0  0  0  0  0  0  0  0  0  0  0  0
    6.5272  -14.2036   20.5588 C   0  0  0  0  0  0  0  0  0  0  0  0
    7.9885  -14.3919   20.8548 C   0  0  2  0  0  0  0  0  0  0  0  0
    8.7231  -14.1769   19.5555 C   0  0  0  0  0  0  0  0  0  0  0  0
    8.2060  -15.7691   21.4424 C   0  0  2  0  0  0  0  0  0  0  0  0
    7.4472  -15.8829   22.6953 N   0  0  0  0  0  0  0  0  0  0  0  0
    9.6230  -15.9051   21.8105 C   0  0  0  0  0  0  0  0  0  0  0  0
   10.4800  -15.9688   20.8605 O   0  0  0  0  0  0  0  0  0  0  0  0
   11.6121  -14.5196   25.1800 C   0  0  0  0  0  0  0  0  0  0  0  0
   11.9339  -15.9389   24.8088 C   0  0  1  0  0  0  0  0  0  0  0  0
   11.1816  -16.9180   25.6686 C   0  0  0  0  0  0  0  0  0  0  0  0
   11.6151  -16.1172   23.3281 C   0  0  2  0  0  0  0  0  0  0  0  0
   10.1769  -15.9718   23.1047 N   0  0  0  0  0  0  0  0  0  0  0  0
   12.0416  -17.4877   22.9718 C   0  0  0  0  0  0  0  0  0  0  0  0
   13.2472  -17.8119   22.9872 O   0  0  0  0  0  0  0  0  0  0  0  0
   11.1233  -18.4499   22.6119 O   0  0  0  0  0  0  0  0  0  0  0  0
  2  1  1  1
  2 13  1  0
  3  2  1  0
  4  3  1  0
  4 12  1  0
  5  6  1  0
  5  4  2  0
  6  7  1  0
  7 12  2  0
  7  8  1  0
  8  9  2  0
  9 10  1  0
 11 10  2  0
 12 11  1  0
 13 14  2  0
 16 17  1  6
 16 15  1  0
 16 18  1  0
 18 19  1  1
 19 13  1  0
 20 21  2  0
 20 18  1  0
 23 22  1  1
 23 25  1  0
 24 23  1  0
 25 26  1  1
 25 27  1  0
 26 20  1  0
 27 29  1  0
 28 27  2  0
M  END
$$$$
