WVV.pdb
     RDKit          3D

 29 30  0  0  1  0  0  0  0  0999 V2000
    6.4589  -17.5382   24.4027 N   0  0  0  0  0  0  0  0  0  0  0  0
    7.5264  -16.6527   23.9897 C   0  0  1  0  0  0  0  0  0  0  0  0
    7.8895  -15.8101   25.1977 C   0  0  0  0  0  0  0  0  0  0  0  0
    6.7866  -14.8790   25.5484 C   0  0  0  0  0  0  0  0  0  0  0  0
    5.4745  -15.1527   25.8824 C   0  0  0  0  0  0  0  0  0  0  0  0
    4.8383  -14.0055   26.1201 N   0  0  0  0  0  0  0  0  0  0  0  0
    5.6549  -12.9529   25.9645 C   0  0  0  0  0  0  0  0  0  0  0  0
    5.4613  -11.5821   26.0980 C   0  0  0  0  0  0  0  0  0  0  0  0
    6.5436  -10.7621   25.8583 C   0  0  0  0  0  0  0  0  0  0  0  0
    7.7660  -11.2988   25.5002 C   0  0  0  0  0  0  0  0  0  0  0  0
    7.9582  -12.6592   25.3678 C   0  0  0  0  0  0  0  0  0  0  0  0
    6.8751  -13.4838   25.6075 C   0  0  0  0  0  0  0  0  0  0  0  0
    8.6560  -17.4594   23.5111 C   0  0  0  0  0  0  0  0  0  0  0  0
    8.4053  -18.5551   22.9368 O   0  0  0  0  0  0  0  0  0  0  0  0
    9.5223  -17.3503   20.6793 C   0  0  0  0  0  0  0  0  0  0  0  0
   10.6765  -16.6588   21.3485 C   0  0  2  0  0  0  0  0  0  0  0  0
   11.8034  -16.6326   20.3468 C   0  0  0  0  0  0  0  0  0  0  0  0
   11.0283  -17.3937   22.6234 C   0  0  2  0  0  0  0  0  0  0  0  0
   10.0064  -17.1098   23.6400 N   0  0  0  0  0  0  0  0  0  0  0  0
   12.2884  -16.8475   23.1488 C   0  0  0  0  0  0  0  0  0  0  0  0
   12.7659  -15.8035   22.5805 O   0  0  0  0  0  0  0  0  0  0  0  0
   11.4999  -17.8772   26.6034 C   0  0  0  0  0  0  0  0  0  0  0  0
   11.8974  -16.4839   26.2081 C   0  0  1  0  0  0  0  0  0  0  0  0
   11.9806  -15.5739   27.4035 C   0  0  0  0  0  0  0  0  0  0  0  0
   13.2260  -16.5715   25.4642 C   0  0  2  0  0  0  0  0  0  0  0  0
   13.0572  -17.3318   24.2261 N   0  0  0  0  0  0  0  0  0  0  0  0
   14.1617  -17.2802   26.3638 C   0  0  0  0  0  0  0  0  0  0  0  0
   14.6783  -16.7011   27.3419 O   0  0  0  0  0  0  0  0  0  0  0  0
   14.4931  -18.6007   26.1519 O   0  0  0  0  0  0  0  0  0  0  0  0
  2  1  1  1
  2 13  1  0
  3  2  1  0
  4  3  1  0
  4 12  1  0
  5  6  1  0
  5  4  2  0
  6  7  1  0
  7 12  2  0
  7  8  1  0
  8  9  2  0
  9 10  1  0
 11 10  2  0
 12 11  1  0
 13 14  2  0
 16 17  1  6
 16 15  1  0
 16 18  1  0
 18 19  1  1
 19 13  1  0
 20 21  2  0
 20 18  1  0
 23 22  1  1
 23 25  1  0
 24 23  1  0
 25 26  1  6
 25 27  1  0
 26 20  1  0
 27 29  1  0
 28 27  2  0
M  END
$$$$
