HVN.pdb
     RDKit          3D

 26 26  0  0  1  0  0  0  0  0999 V2000
   21.9420  -20.1546  -13.7392 N   0  0  0  0  0  0  0  0  0  0  0  0
   21.0266  -19.9716  -12.6517 C   0  0  1  0  0  0  0  0  0  0  0  0
   19.5932  -19.8363  -13.1132 C   0  0  0  0  0  0  0  0  0  0  0  0
   19.4858  -18.5623  -13.8720 C   0  0  0  0  0  0  0  0  0  0  0  0
   19.0553  -17.3775  -13.3232 C   0  0  0  0  0  0  0  0  0  0  0  0
   19.0964  -16.4664  -14.3119 N   0  0  0  0  0  0  0  0  0  0  0  0
   19.5393  -17.0810  -15.4284 C   0  0  0  0  0  0  0  0  0  0  0  0
   19.7857  -18.3777  -15.1772 N   0  0  0  0  0  0  0  0  0  0  0  0
   21.0532  -21.1815  -11.7290 C   0  0  0  0  0  0  0  0  0  0  0  0
   20.9333  -22.3242  -12.2110 O   0  0  0  0  0  0  0  0  0  0  0  0
   23.6140  -21.0719   -8.5376 C   0  0  0  0  0  0  0  0  0  0  0  0
   22.1817  -21.3830   -8.1141 C   0  0  1  0  0  0  0  0  0  0  0  0
   21.6078  -19.9878   -7.7853 C   0  0  0  0  0  0  0  0  0  0  0  0
   21.3844  -21.9131   -9.2875 C   0  0  2  0  0  0  0  0  0  0  0  0
   21.2136  -20.9541  -10.3585 N   0  0  0  0  0  0  0  0  0  0  0  0
   20.0537  -22.3601   -8.9088 C   0  0  0  0  0  0  0  0  0  0  0  0
   19.0198  -21.6280   -8.9634 O   0  0  0  0  0  0  0  0  0  0  0  0
   16.0568  -25.3392   -7.5115 N   0  0  0  0  0  0  0  0  0  0  0  0
   16.9936  -26.1335   -8.2758 C   0  0  0  0  0  0  0  0  0  0  0  0
   16.6190  -27.2767   -8.5918 O   0  0  0  0  0  0  0  0  0  0  0  0
   18.2701  -25.4902   -8.5829 C   0  0  0  0  0  0  0  0  0  0  0  0
   18.4883  -24.1265   -8.0338 C   0  0  2  0  0  0  0  0  0  0  0  0
   19.8338  -23.6782   -8.4456 N   0  0  0  0  0  0  0  0  0  0  0  0
   18.4465  -24.1246   -6.5686 C   0  0  0  0  0  0  0  0  0  0  0  0
   17.2925  -24.0144   -5.8221 O   0  0  0  0  0  0  0  0  0  0  0  0
   19.5332  -24.2294   -5.9235 O   0  0  0  0  0  0  0  0  0  0  0  0
  2  1  1  6
  2  9  1  0
  3  4  1  0
  3  2  1  0
  4  8  1  0
  5  4  2  0
  5  6  1  0
  6  7  1  0
  8  7  2  0
  9 10  2  0
 12 11  1  6
 12 13  1  0
 12 14  1  0
 14 16  1  0
 15  9  1  0
 14 15  1  6
 16 23  1  0
 16 17  2  0
 18 19  1  0
 19 20  2  0
 19 21  1  0
 22 21  1  1
 22 24  1  0
 23 22  1  0
 24 26  2  0
 24 25  1  0
M  END
$$$$
