HVN.pdb
     RDKit          3D

 26 26  0  0  1  0  0  0  0  0999 V2000
   27.4348  -29.7676  -20.4919 N   0  0  0  0  0  0  0  0  0  0  0  0
   26.5079  -29.9930  -19.4222 C   0  0  1  0  0  0  0  0  0  0  0  0
   25.0717  -30.0265  -19.8930 C   0  0  0  0  0  0  0  0  0  0  0  0
   24.7248  -28.6613  -20.3687 C   0  0  0  0  0  0  0  0  0  0  0  0
   24.1940  -27.6811  -19.5638 C   0  0  0  0  0  0  0  0  0  0  0  0
   24.0205  -26.6018  -20.3475 N   0  0  0  0  0  0  0  0  0  0  0  0
   24.4342  -26.9182  -21.5922 C   0  0  0  0  0  0  0  0  0  0  0  0
   24.8734  -28.1875  -21.6261 N   0  0  0  0  0  0  0  0  0  0  0  0
   26.7648  -31.3471  -18.7766 C   0  0  0  0  0  0  0  0  0  0  0  0
   27.1835  -32.2906  -19.4744 O   0  0  0  0  0  0  0  0  0  0  0  0
   29.2751  -32.1027  -16.7952 C   0  0  0  0  0  0  0  0  0  0  0  0
   28.1603  -32.4092  -15.7998 C   0  0  1  0  0  0  0  0  0  0  0  0
   28.0596  -31.1040  -14.9811 C   0  0  0  0  0  0  0  0  0  0  0  0
   26.8371  -32.5722  -16.5184 C   0  0  2  0  0  0  0  0  0  0  0  0
   26.5157  -31.4750  -17.4064 N   0  0  0  0  0  0  0  0  0  0  0  0
   25.7142  -32.7158  -15.6059 C   0  0  0  0  0  0  0  0  0  0  0  0
   25.0740  -31.7383  -15.1134 O   0  0  0  0  0  0  0  0  0  0  0  0
   22.0611  -34.8137  -12.5639 N   0  0  0  0  0  0  0  0  0  0  0  0
   22.3734  -35.7799  -13.5942 C   0  0  0  0  0  0  0  0  0  0  0  0
   21.6599  -36.7981  -13.6305 O   0  0  0  0  0  0  0  0  0  0  0  0
   23.4940  -35.4373  -14.4683 C   0  0  0  0  0  0  0  0  0  0  0  0
   24.1785  -34.1430  -14.2129 C   0  0  2  0  0  0  0  0  0  0  0  0
   25.2604  -33.9946  -15.2070 N   0  0  0  0  0  0  0  0  0  0  0  0
   24.7895  -34.1124  -12.8808 C   0  0  0  0  0  0  0  0  0  0  0  0
   24.3300  -33.3468  -11.8302 O   0  0  0  0  0  0  0  0  0  0  0  0
   25.8108  -34.8299  -12.6574 O   0  0  0  0  0  0  0  0  0  0  0  0
  2  1  1  6
  2  9  1  0
  3  4  1  0
  3  2  1  0
  4  8  1  0
  5  4  2  0
  5  6  1  0
  6  7  1  0
  8  7  2  0
  9 10  2  0
 12 11  1  6
 12 13  1  0
 12 14  1  0
 14 16  1  0
 15  9  1  0
 14 15  1  1
 16 23  1  0
 16 17  2  0
 18 19  1  0
 19 20  2  0
 19 21  1  0
 22 21  1  6
 22 24  1  0
 23 22  1  0
 24 26  2  0
 24 25  1  0
M  END
$$$$
