HVN.pdb
     RDKit          3D

 26 26  0  0  1  0  0  0  0  0999 V2000
   27.9404  -21.8533  -15.9993 N   0  0  0  0  0  0  0  0  0  0  0  0
   27.2792  -20.7721  -15.3299 C   0  0  1  0  0  0  0  0  0  0  0  0
   26.5332  -19.8660  -16.2829 C   0  0  0  0  0  0  0  0  0  0  0  0
   27.5436  -19.1761  -17.1276 C   0  0  0  0  0  0  0  0  0  0  0  0
   28.3099  -18.1190  -16.6966 C   0  0  0  0  0  0  0  0  0  0  0  0
   29.0943  -17.7737  -17.7332 N   0  0  0  0  0  0  0  0  0  0  0  0
   28.8119  -18.5977  -18.7636 C   0  0  0  0  0  0  0  0  0  0  0  0
   27.8554  -19.4722  -18.4093 N   0  0  0  0  0  0  0  0  0  0  0  0
   26.2335  -21.3092  -14.3634 C   0  0  0  0  0  0  0  0  0  0  0  0
   25.6046  -22.3452  -14.6525 O   0  0  0  0  0  0  0  0  0  0  0  0
   24.7016  -20.9285   -9.6159 C   0  0  0  0  0  0  0  0  0  0  0  0
   25.6491  -20.4785  -10.7237 C   0  0  1  0  0  0  0  0  0  0  0  0
   26.9195  -21.3129  -10.4518 C   0  0  0  0  0  0  0  0  0  0  0  0
   25.1276  -20.9133  -12.0774 C   0  0  2  0  0  0  0  0  0  0  0  0
   26.0210  -20.6050  -13.1740 N   0  0  0  0  0  0  0  0  0  0  0  0
   23.8419  -20.3179  -12.4039 C   0  0  0  0  0  0  0  0  0  0  0  0
   23.6832  -19.0941  -12.6953 O   0  0  0  0  0  0  0  0  0  0  0  0
   18.9136  -19.7699  -13.8519 N   0  0  0  0  0  0  0  0  0  0  0  0
   19.7651  -20.5307  -14.7400 C   0  0  0  0  0  0  0  0  0  0  0  0
   19.3114  -20.7636  -15.8745 O   0  0  0  0  0  0  0  0  0  0  0  0
   21.0589  -20.9328  -14.1906 C   0  0  0  0  0  0  0  0  0  0  0  0
   21.3633  -20.5075  -12.7994 C   0  0  2  0  0  0  0  0  0  0  0  0
   22.6617  -21.0971  -12.4154 N   0  0  0  0  0  0  0  0  0  0  0  0
   20.3544  -20.9970  -11.8554 C   0  0  0  0  0  0  0  0  0  0  0  0
   20.4015  -22.2264  -11.2328 O   0  0  0  0  0  0  0  0  0  0  0  0
   19.3626  -20.2571  -11.5787 O   0  0  0  0  0  0  0  0  0  0  0  0
  2  1  1  6
  2  9  1  0
  3  4  1  0
  3  2  1  0
  4  8  1  0
  5  4  2  0
  5  6  1  0
  6  7  1  0
  8  7  2  0
  9 10  2  0
 12 11  1  1
 12 13  1  0
 12 14  1  0
 14 16  1  0
 15  9  1  0
 14 15  1  6
 16 23  1  0
 16 17  2  0
 18 19  1  0
 19 20  2  0
 19 21  1  0
 22 21  1  6
 22 24  1  0
 23 22  1  0
 24 26  2  0
 24 25  1  0
M  END
$$$$
