HVN.pdb
     RDKit          3D

 26 26  0  0  1  0  0  0  0  0999 V2000
   20.0016  -13.8437  -18.2481 N   0  0  0  0  0  0  0  0  0  0  0  0
   19.2037  -13.6478  -17.0737 C   0  0  1  0  0  0  0  0  0  0  0  0
   18.9723  -14.9296  -16.3061 C   0  0  0  0  0  0  0  0  0  0  0  0
   18.1393  -15.8178  -17.1591 C   0  0  0  0  0  0  0  0  0  0  0  0
   17.0396  -15.3909  -17.8653 C   0  0  0  0  0  0  0  0  0  0  0  0
   16.5597  -16.4715  -18.5065 N   0  0  0  0  0  0  0  0  0  0  0  0
   17.3459  -17.5239  -18.1981 C   0  0  0  0  0  0  0  0  0  0  0  0
   18.3285  -17.1403  -17.3659 N   0  0  0  0  0  0  0  0  0  0  0  0
   19.9077  -12.7064  -16.1072 C   0  0  0  0  0  0  0  0  0  0  0  0
   19.3972  -12.4741  -14.9946 O   0  0  0  0  0  0  0  0  0  0  0  0
   24.1965  -10.2044  -15.3752 C   0  0  0  0  0  0  0  0  0  0  0  0
   23.4154  -11.3047  -16.0871 C   0  0  1  0  0  0  0  0  0  0  0  0
   23.8455  -12.5794  -15.3293 C   0  0  0  0  0  0  0  0  0  0  0  0
   21.9289  -11.1402  -15.8479 C   0  0  2  0  0  0  0  0  0  0  0  0
   21.1163  -12.1342  -16.5166 N   0  0  0  0  0  0  0  0  0  0  0  0
   21.4310   -9.8402  -16.2675 C   0  0  0  0  0  0  0  0  0  0  0  0
   21.3583   -9.4679  -17.4774 O   0  0  0  0  0  0  0  0  0  0  0  0
   19.2802   -5.0929  -16.0192 N   0  0  0  0  0  0  0  0  0  0  0  0
   18.3961   -6.2285  -15.8729 C   0  0  0  0  0  0  0  0  0  0  0  0
   17.1778   -5.9950  -15.9641 O   0  0  0  0  0  0  0  0  0  0  0  0
   19.0482   -7.5152  -15.6349 C   0  0  0  0  0  0  0  0  0  0  0  0
   20.5305   -7.5502  -15.7372 C   0  0  2  0  0  0  0  0  0  0  0  0
   20.9857   -8.8911  -15.3181 N   0  0  0  0  0  0  0  0  0  0  0  0
   21.1536   -6.5684  -14.8448 C   0  0  0  0  0  0  0  0  0  0  0  0
   21.4787   -5.2793  -15.2101 O   0  0  0  0  0  0  0  0  0  0  0  0
   21.4214   -6.9061  -13.6522 O   0  0  0  0  0  0  0  0  0  0  0  0
  2  1  1  6
  2  9  1  0
  3  4  1  0
  3  2  1  0
  4  8  1  0
  5  4  2  0
  5  6  1  0
  6  7  1  0
  8  7  2  0
  9 10  2  0
 12 11  1  1
 12 13  1  0
 12 14  1  0
 14 16  1  0
 15  9  1  0
 14 15  1  6
 16 23  1  0
 16 17  2  0
 18 19  1  0
 19 20  2  0
 19 21  1  0
 22 21  1  1
 22 24  1  0
 23 22  1  0
 24 26  2  0
 24 25  1  0
M  END
$$$$
