HVN.pdb
     RDKit          3D

 26 26  0  0  1  0  0  0  0  0999 V2000
   28.5579  -20.9741  -16.2709 N   0  0  0  0  0  0  0  0  0  0  0  0
   27.6656  -20.1339  -15.5279 C   0  0  1  0  0  0  0  0  0  0  0  0
   26.7545  -19.3200  -16.4186 C   0  0  0  0  0  0  0  0  0  0  0  0
   27.6005  -18.3363  -17.1445 C   0  0  0  0  0  0  0  0  0  0  0  0
   28.9559  -18.2041  -16.9554 C   0  0  0  0  0  0  0  0  0  0  0  0
   29.3587  -17.2226  -17.7821 N   0  0  0  0  0  0  0  0  0  0  0  0
   28.2785  -16.7722  -18.4536 C   0  0  0  0  0  0  0  0  0  0  0  0
   27.1813  -17.4481  -18.0736 N   0  0  0  0  0  0  0  0  0  0  0  0
   26.7476  -20.9781  -14.6557 C   0  0  0  0  0  0  0  0  0  0  0  0
   26.4399  -22.1287  -15.0217 O   0  0  0  0  0  0  0  0  0  0  0  0
   24.8236  -21.2521  -10.0436 C   0  0  0  0  0  0  0  0  0  0  0  0
   25.7562  -20.5736  -11.0423 C   0  0  1  0  0  0  0  0  0  0  0  0
   27.1291  -21.1983  -10.7125 C   0  0  0  0  0  0  0  0  0  0  0  0
   25.4173  -20.9961  -12.4567 C   0  0  2  0  0  0  0  0  0  0  0  0
   26.2823  -20.4165  -13.4625 N   0  0  0  0  0  0  0  0  0  0  0  0
   24.0534  -20.6616  -12.8333 C   0  0  0  0  0  0  0  0  0  0  0  0
   23.6469  -19.4783  -13.0393 O   0  0  0  0  0  0  0  0  0  0  0  0
   19.6981  -23.0300  -15.9179 N   0  0  0  0  0  0  0  0  0  0  0  0
   19.7752  -22.4304  -14.6037 C   0  0  0  0  0  0  0  0  0  0  0  0
   18.7503  -21.8530  -14.1994 O   0  0  0  0  0  0  0  0  0  0  0  0
   21.0544  -22.5784  -13.9115 C   0  0  0  0  0  0  0  0  0  0  0  0
   21.6976  -21.3366  -13.4083 C   0  0  2  0  0  0  0  0  0  0  0  0
   23.0759  -21.6707  -12.9967 N   0  0  0  0  0  0  0  0  0  0  0  0
   20.9975  -20.8070  -12.2344 C   0  0  0  0  0  0  0  0  0  0  0  0
   20.1370  -19.7300  -12.2606 O   0  0  0  0  0  0  0  0  0  0  0  0
   21.1815  -21.3606  -11.1086 O   0  0  0  0  0  0  0  0  0  0  0  0
  2  1  1  6
  2  9  1  0
  3  4  1  0
  3  2  1  0
  4  8  1  0
  5  4  2  0
  5  6  1  0
  6  7  1  0
  8  7  2  0
  9 10  2  0
 12 11  1  1
 12 13  1  0
 12 14  1  0
 14 16  1  0
 15  9  1  0
 14 15  1  6
 16 23  1  0
 16 17  2  0
 18 19  1  0
 19 20  2  0
 19 21  1  0
 22 21  1  1
 22 24  1  0
 23 22  1  0
 24 26  2  0
 24 25  1  0
M  END
$$$$
