HVN.pdb
     RDKit          3D

 26 26  0  0  1  0  0  0  0  0999 V2000
   23.1788  -15.5669  -17.3901 N   0  0  0  0  0  0  0  0  0  0  0  0
   23.7805  -14.4627  -18.0779 C   0  0  1  0  0  0  0  0  0  0  0  0
   22.8938  -13.9011  -19.1660 C   0  0  0  0  0  0  0  0  0  0  0  0
   22.8937  -14.8744  -20.2899 C   0  0  0  0  0  0  0  0  0  0  0  0
   22.7047  -16.2271  -20.1322 C   0  0  0  0  0  0  0  0  0  0  0  0
   22.7714  -16.7638  -21.3638 N   0  0  0  0  0  0  0  0  0  0  0  0
   22.9945  -15.7652  -22.2433 C   0  0  0  0  0  0  0  0  0  0  0  0
   23.0733  -14.5888  -21.5991 N   0  0  0  0  0  0  0  0  0  0  0  0
   24.0326  -13.3130  -17.1132 C   0  0  0  0  0  0  0  0  0  0  0  0
   23.1921  -13.0570  -16.2297 O   0  0  0  0  0  0  0  0  0  0  0  0
   27.6787  -10.3203  -15.4383 C   0  0  0  0  0  0  0  0  0  0  0  0
   27.2307  -11.4709  -16.3343 C   0  0  1  0  0  0  0  0  0  0  0  0
   27.6197  -12.7196  -15.5135 C   0  0  0  0  0  0  0  0  0  0  0  0
   25.7216  -11.4891  -16.4603 C   0  0  2  0  0  0  0  0  0  0  0  0
   25.2156  -12.5824  -17.2630 N   0  0  0  0  0  0  0  0  0  0  0  0
   25.1894  -10.2647  -17.0363 C   0  0  0  0  0  0  0  0  0  0  0  0
   25.3611   -9.9187  -18.2440 O   0  0  0  0  0  0  0  0  0  0  0  0
   22.1145   -6.3195  -18.0497 N   0  0  0  0  0  0  0  0  0  0  0  0
   21.9320   -7.6820  -18.5003 C   0  0  0  0  0  0  0  0  0  0  0  0
   21.0526   -7.8656  -19.3606 O   0  0  0  0  0  0  0  0  0  0  0  0
   22.8081   -8.6777  -17.8853 C   0  0  0  0  0  0  0  0  0  0  0  0
   23.7742   -8.1900  -16.8667 C   0  0  2  0  0  0  0  0  0  0  0  0
   24.4260   -9.3657  -16.2556 N   0  0  0  0  0  0  0  0  0  0  0  0
   23.0987   -7.4486  -15.7977 C   0  0  0  0  0  0  0  0  0  0  0  0
   22.9280   -7.9171  -14.5122 O   0  0  0  0  0  0  0  0  0  0  0  0
   22.6315   -6.2971  -16.0500 O   0  0  0  0  0  0  0  0  0  0  0  0
  2  1  1  1
  2  9  1  0
  3  4  1  0
  3  2  1  0
  4  8  1  0
  5  4  2  0
  5  6  1  0
  6  7  1  0
  8  7  2  0
  9 10  2  0
 12 11  1  1
 12 13  1  0
 12 14  1  0
 14 16  1  0
 15  9  1  0
 14 15  1  6
 16 23  1  0
 16 17  2  0
 18 19  1  0
 19 20  2  0
 19 21  1  0
 22 21  1  6
 22 24  1  0
 23 22  1  0
 24 26  2  0
 24 25  1  0
M  END
$$$$
