HVN.pdb
     RDKit          3D

 26 26  0  0  1  0  0  0  0  0999 V2000
   28.5667  -20.6080  -15.0832 N   0  0  0  0  0  0  0  0  0  0  0  0
   27.3134  -20.0039  -15.4274 C   0  0  1  0  0  0  0  0  0  0  0  0
   27.0334  -20.0487  -16.9124 C   0  0  0  0  0  0  0  0  0  0  0  0
   28.0723  -19.2278  -17.5886 C   0  0  0  0  0  0  0  0  0  0  0  0
   28.2606  -17.8860  -17.3553 C   0  0  0  0  0  0  0  0  0  0  0  0
   29.2804  -17.5048  -18.1452 N   0  0  0  0  0  0  0  0  0  0  0  0
   29.6987  -18.5845  -18.8378 C   0  0  0  0  0  0  0  0  0  0  0  0
   28.9643  -19.6602  -18.5079 N   0  0  0  0  0  0  0  0  0  0  0  0
   26.1659  -20.7533  -14.7658 C   0  0  0  0  0  0  0  0  0  0  0  0
   25.3927  -21.4346  -15.4660 O   0  0  0  0  0  0  0  0  0  0  0  0
   26.8426  -21.3681  -10.7923 C   0  0  0  0  0  0  0  0  0  0  0  0
   25.3583  -21.1133  -11.0357 C   0  0  1  0  0  0  0  0  0  0  0  0
   25.1997  -19.6211  -10.6722 C   0  0  0  0  0  0  0  0  0  0  0  0
   25.0333  -21.2363  -12.5098 C   0  0  2  0  0  0  0  0  0  0  0  0
   26.0275  -20.6426  -13.3786 N   0  0  0  0  0  0  0  0  0  0  0  0
   23.7575  -20.6319  -12.8580 C   0  0  0  0  0  0  0  0  0  0  0  0
   23.5652  -19.3809  -12.9338 O   0  0  0  0  0  0  0  0  0  0  0  0
   21.7128  -20.1651  -16.1514 N   0  0  0  0  0  0  0  0  0  0  0  0
   20.8964  -21.3355  -15.9143 C   0  0  0  0  0  0  0  0  0  0  0  0
   20.4680  -21.9233  -16.9233 O   0  0  0  0  0  0  0  0  0  0  0  0
   20.6755  -21.6829  -14.5115 C   0  0  0  0  0  0  0  0  0  0  0  0
   21.3288  -20.8216  -13.4916 C   0  0  2  0  0  0  0  0  0  0  0  0
   22.6267  -21.4328  -13.1412 N   0  0  0  0  0  0  0  0  0  0  0  0
   20.5289  -20.7398  -12.2659 C   0  0  0  0  0  0  0  0  0  0  0  0
   19.5520  -19.7947  -12.0346 O   0  0  0  0  0  0  0  0  0  0  0  0
   20.7328  -21.5845  -11.3425 O   0  0  0  0  0  0  0  0  0  0  0  0
  2  1  1  6
  2  9  1  0
  3  4  1  0
  3  2  1  0
  4  8  1  0
  5  4  2  0
  5  6  1  0
  6  7  1  0
  8  7  2  0
  9 10  2  0
 12 11  1  6
 12 13  1  0
 12 14  1  0
 14 16  1  0
 15  9  1  0
 14 15  1  6
 16 23  1  0
 16 17  2  0
 18 19  1  0
 19 20  2  0
 19 21  1  0
 22 21  1  6
 22 24  1  0
 23 22  1  0
 24 26  2  0
 24 25  1  0
M  END
$$$$
