HVN.pdb
     RDKit          3D

 26 26  0  0  1  0  0  0  0  0999 V2000
   19.4189  -14.6545  -18.1500 N   0  0  0  0  0  0  0  0  0  0  0  0
   19.9277  -13.8748  -17.0604 C   0  0  1  0  0  0  0  0  0  0  0  0
   21.2466  -14.3963  -16.5367 C   0  0  0  0  0  0  0  0  0  0  0  0
   21.0474  -15.8214  -16.1628 C   0  0  0  0  0  0  0  0  0  0  0  0
   20.0679  -16.2583  -15.3026 C   0  0  0  0  0  0  0  0  0  0  0  0
   20.2078  -17.5934  -15.2178 N   0  0  0  0  0  0  0  0  0  0  0  0
   21.2426  -17.9560  -16.0041 C   0  0  0  0  0  0  0  0  0  0  0  0
   21.7753  -16.8746  -16.5973 N   0  0  0  0  0  0  0  0  0  0  0  0
   20.1961  -12.4466  -17.5124 C   0  0  0  0  0  0  0  0  0  0  0  0
   20.9079  -12.2430  -18.5146 O   0  0  0  0  0  0  0  0  0  0  0  0
   17.7291  -10.3404  -18.7652 C   0  0  0  0  0  0  0  0  0  0  0  0
   18.1730   -9.5469  -17.5401 C   0  0  1  0  0  0  0  0  0  0  0  0
   17.1759  -10.0030  -16.4531 C   0  0  0  0  0  0  0  0  0  0  0  0
   19.5454   -9.9972  -17.0846 C   0  0  2  0  0  0  0  0  0  0  0  0
   19.6227  -11.4084  -16.7712 N   0  0  0  0  0  0  0  0  0  0  0  0
   20.0124   -9.2804  -15.9090 C   0  0  0  0  0  0  0  0  0  0  0  0
   19.8739   -9.7036  -14.7217 O   0  0  0  0  0  0  0  0  0  0  0  0
   22.0114   -5.5404  -12.8884 N   0  0  0  0  0  0  0  0  0  0  0  0
   22.5459   -5.3305  -14.2161 C   0  0  0  0  0  0  0  0  0  0  0  0
   23.3739   -4.4104  -14.3386 O   0  0  0  0  0  0  0  0  0  0  0  0
   22.0438   -6.2303  -15.2531 C   0  0  0  0  0  0  0  0  0  0  0  0
   21.0498   -7.2534  -14.8360 C   0  0  2  0  0  0  0  0  0  0  0  0
   20.6682   -8.0333  -16.0307 N   0  0  0  0  0  0  0  0  0  0  0  0
   19.8340   -6.6339  -14.3007 C   0  0  0  0  0  0  0  0  0  0  0  0
   19.5523   -6.5038  -12.9573 O   0  0  0  0  0  0  0  0  0  0  0  0
   18.9687   -6.1810  -15.1095 O   0  0  0  0  0  0  0  0  0  0  0  0
  2  1  1  6
  2  9  1  0
  3  4  1  0
  3  2  1  0
  4  8  1  0
  5  4  2  0
  5  6  1  0
  6  7  1  0
  8  7  2  0
  9 10  2  0
 12 11  1  6
 12 13  1  0
 12 14  1  0
 14 16  1  0
 15  9  1  0
 14 15  1  1
 16 23  1  0
 16 17  2  0
 18 19  1  0
 19 20  2  0
 19 21  1  0
 22 21  1  6
 22 24  1  0
 23 22  1  0
 24 26  2  0
 24 25  1  0
M  END
$$$$
