HVN.pdb
     RDKit          3D

 26 26  0  0  1  0  0  0  0  0999 V2000
   15.7649  -14.3710    5.3723 N   0  0  0  0  0  0  0  0  0  0  0  0
   16.2043  -13.3756    6.3051 C   0  0  1  0  0  0  0  0  0  0  0  0
   15.3693  -13.3489    7.5652 C   0  0  0  0  0  0  0  0  0  0  0  0
   14.0345  -12.8015    7.2059 C   0  0  0  0  0  0  0  0  0  0  0  0
   13.6963  -11.4733    7.3144 C   0  0  0  0  0  0  0  0  0  0  0  0
   12.4208  -11.3732    6.8996 N   0  0  0  0  0  0  0  0  0  0  0  0
   11.9972  -12.6055    6.5495 C   0  0  0  0  0  0  0  0  0  0  0  0
   12.9805  -13.5029    6.7316 N   0  0  0  0  0  0  0  0  0  0  0  0
   17.6283  -13.6662    6.7568 C   0  0  0  0  0  0  0  0  0  0  0  0
   18.0718  -14.8281    6.6803 O   0  0  0  0  0  0  0  0  0  0  0  0
   21.9018  -11.2923    7.9281 C   0  0  0  0  0  0  0  0  0  0  0  0
   20.4375  -11.2232    7.5053 C   0  0  1  0  0  0  0  0  0  0  0  0
   20.5283  -10.9384    5.9905 C   0  0  0  0  0  0  0  0  0  0  0  0
   19.7782  -12.5788    7.6518 C   0  0  2  0  0  0  0  0  0  0  0  0
   18.3888  -12.5993    7.2459 N   0  0  0  0  0  0  0  0  0  0  0  0
   19.8245  -13.0838    9.0144 C   0  0  0  0  0  0  0  0  0  0  0  0
   19.0317  -12.7144    9.9325 O   0  0  0  0  0  0  0  0  0  0  0  0
   19.2245  -15.4899   13.1753 N   0  0  0  0  0  0  0  0  0  0  0  0
   19.6388  -16.3789   12.1120 C   0  0  0  0  0  0  0  0  0  0  0  0
   19.7602  -17.5798   12.4124 O   0  0  0  0  0  0  0  0  0  0  0  0
   19.8644  -15.7518   10.8108 C   0  0  0  0  0  0  0  0  0  0  0  0
   20.8024  -14.5997   10.7699 C   0  0  2  0  0  0  0  0  0  0  0  0
   20.7863  -14.0459    9.4010 N   0  0  0  0  0  0  0  0  0  0  0  0
   22.1764  -15.0152   11.0669 C   0  0  0  0  0  0  0  0  0  0  0  0
   22.7232  -15.0516   12.3321 O   0  0  0  0  0  0  0  0  0  0  0  0
   22.9310  -15.3683   10.1110 O   0  0  0  0  0  0  0  0  0  0  0  0
  2  1  1  6
  2  9  1  0
  3  4  1  0
  3  2  1  0
  4  8  1  0
  5  4  2  0
  5  6  1  0
  6  7  1  0
  8  7  2  0
  9 10  2  0
 12 11  1  6
 12 13  1  0
 12 14  1  0
 14 16  1  0
 15  9  1  0
 14 15  1  1
 16 23  1  0
 16 17  2  0
 18 19  1  0
 19 20  2  0
 19 21  1  0
 22 21  1  6
 22 24  1  0
 23 22  1  0
 24 26  2  0
 24 25  1  0
M  END
$$$$
