HVN.pdb
     RDKit          3D

 26 26  0  0  1  0  0  0  0  0999 V2000
   44.8588  -10.5461   -6.3341 N   0  0  0  0  0  0  0  0  0  0  0  0
   43.5727  -10.1968   -5.8068 C   0  0  1  0  0  0  0  0  0  0  0  0
   43.6082   -8.9376   -4.9708 C   0  0  0  0  0  0  0  0  0  0  0  0
   44.3877   -9.2387   -3.7412 C   0  0  0  0  0  0  0  0  0  0  0  0
   44.9339  -10.4692   -3.4621 C   0  0  0  0  0  0  0  0  0  0  0  0
   45.5552  -10.3463   -2.2755 N   0  0  0  0  0  0  0  0  0  0  0  0
   45.3905   -9.0775   -1.8470 C   0  0  0  0  0  0  0  0  0  0  0  0
   44.6712   -8.3764   -2.7392 N   0  0  0  0  0  0  0  0  0  0  0  0
   42.5955   -9.9159   -6.9392 C   0  0  0  0  0  0  0  0  0  0  0  0
   43.0238   -9.4865   -8.0276 O   0  0  0  0  0  0  0  0  0  0  0  0
   37.9650  -10.7344   -8.5673 C   0  0  0  0  0  0  0  0  0  0  0  0
   39.1222  -11.0651   -7.6297 C   0  0  1  0  0  0  0  0  0  0  0  0
   39.8394  -12.2209   -8.3604 C   0  0  0  0  0  0  0  0  0  0  0  0
   40.1046   -9.9139   -7.5723 C   0  0  2  0  0  0  0  0  0  0  0  0
   41.2379  -10.1560   -6.7048 N   0  0  0  0  0  0  0  0  0  0  0  0
   39.4928   -8.6726   -7.1265 C   0  0  0  0  0  0  0  0  0  0  0  0
   38.8582   -8.5491   -6.0357 O   0  0  0  0  0  0  0  0  0  0  0  0
   38.1730   -3.7440   -6.5578 N   0  0  0  0  0  0  0  0  0  0  0  0
   39.6002   -3.9761   -6.5995 C   0  0  0  0  0  0  0  0  0  0  0  0
   40.3235   -3.0358   -6.2256 O   0  0  0  0  0  0  0  0  0  0  0  0
   40.0163   -5.2932   -7.0784 C   0  0  0  0  0  0  0  0  0  0  0  0
   38.9400   -6.2408   -7.4688 C   0  0  2  0  0  0  0  0  0  0  0  0
   39.5765   -7.4982   -7.9102 N   0  0  0  0  0  0  0  0  0  0  0  0
   38.1497   -5.7235   -8.5897 C   0  0  0  0  0  0  0  0  0  0  0  0
   37.2534   -4.6801   -8.4952 O   0  0  0  0  0  0  0  0  0  0  0  0
   38.2828   -6.2570   -9.7323 O   0  0  0  0  0  0  0  0  0  0  0  0
  2  1  1  6
  2  9  1  0
  3  4  1  0
  3  2  1  0
  4  8  1  0
  5  4  2  0
  5  6  1  0
  6  7  1  0
  8  7  2  0
  9 10  2  0
 12 11  1  6
 12 13  1  0
 12 14  1  0
 14 16  1  0
 15  9  1  0
 14 15  1  1
 16 23  1  0
 16 17  2  0
 18 19  1  0
 19 20  2  0
 19 21  1  0
 22 21  1  6
 22 24  1  0
 23 22  1  0
 24 26  2  0
 24 25  1  0
M  END
$$$$
