HVN.pdb
     RDKit          3D

 26 26  0  0  1  0  0  0  0  0999 V2000
   16.5641  -11.8205  -13.2282 N   0  0  0  0  0  0  0  0  0  0  0  0
   16.7982  -10.5847  -13.9152 C   0  0  1  0  0  0  0  0  0  0  0  0
   16.5850  -10.6982  -15.4076 C   0  0  0  0  0  0  0  0  0  0  0  0
   17.6293  -11.6125  -15.9405 C   0  0  0  0  0  0  0  0  0  0  0  0
   18.8530  -11.1906  -16.4042 C   0  0  0  0  0  0  0  0  0  0  0  0
   19.5101  -12.2968  -16.7962 N   0  0  0  0  0  0  0  0  0  0  0  0
   18.7079  -13.3593  -16.5766 C   0  0  0  0  0  0  0  0  0  0  0  0
   17.5401  -12.9572  -16.0478 N   0  0  0  0  0  0  0  0  0  0  0  0
   15.8216   -9.5203  -13.4361 C   0  0  0  0  0  0  0  0  0  0  0  0
   15.2633   -8.7798  -14.2683 O   0  0  0  0  0  0  0  0  0  0  0  0
   13.0580  -10.4327  -11.1157 C   0  0  0  0  0  0  0  0  0  0  0  0
   13.7493   -9.2749  -10.4023 C   0  0  1  0  0  0  0  0  0  0  0  0
   14.6463   -9.9915   -9.3698 C   0  0  0  0  0  0  0  0  0  0  0  0
   14.6786   -8.5461  -11.3505 C   0  0  2  0  0  0  0  0  0  0  0  0
   15.5898   -9.4183  -12.0608 N   0  0  0  0  0  0  0  0  0  0  0  0
   15.4927   -7.5437  -10.6823 C   0  0  0  0  0  0  0  0  0  0  0  0
   16.6477   -7.7707  -10.2108 O   0  0  0  0  0  0  0  0  0  0  0  0
   15.1452   -1.4502   -9.6227 N   0  0  0  0  0  0  0  0  0  0  0  0
   15.8604   -2.7011   -9.4953 C   0  0  0  0  0  0  0  0  0  0  0  0
   16.9444   -2.6576   -8.8869 O   0  0  0  0  0  0  0  0  0  0  0  0
   15.2168   -3.8659  -10.1005 C   0  0  0  0  0  0  0  0  0  0  0  0
   15.8755   -5.1827   -9.8979 C   0  0  2  0  0  0  0  0  0  0  0  0
   15.0256   -6.2189  -10.5183 N   0  0  0  0  0  0  0  0  0  0  0  0
   16.0042   -5.5052   -8.4738 C   0  0  0  0  0  0  0  0  0  0  0  0
   17.1701   -5.3791   -7.7486 O   0  0  0  0  0  0  0  0  0  0  0  0
   14.9878   -5.9314   -7.8468 O   0  0  0  0  0  0  0  0  0  0  0  0
  2  1  1  1
  2  9  1  0
  3  4  1  0
  3  2  1  0
  4  8  1  0
  5  4  2  0
  5  6  1  0
  6  7  1  0
  8  7  2  0
  9 10  2  0
 12 11  1  6
 12 13  1  0
 12 14  1  0
 14 16  1  0
 15  9  1  0
 14 15  1  1
 16 23  1  0
 16 17  2  0
 18 19  1  0
 19 20  2  0
 19 21  1  0
 22 21  1  1
 22 24  1  0
 23 22  1  0
 24 26  2  0
 24 25  1  0
M  END
$$$$
