HVN.pdb
     RDKit          3D

 26 26  0  0  1  0  0  0  0  0999 V2000
   24.6664  -15.7771  -18.1172 N   0  0  0  0  0  0  0  0  0  0  0  0
   24.3511  -14.4111  -18.4152 C   0  0  1  0  0  0  0  0  0  0  0  0
   23.0765  -14.2687  -19.2159 C   0  0  0  0  0  0  0  0  0  0  0  0
   23.2846  -14.9611  -20.5149 C   0  0  0  0  0  0  0  0  0  0  0  0
   22.6587  -16.1335  -20.8673 C   0  0  0  0  0  0  0  0  0  0  0  0
   23.0986  -16.4405  -22.1008 N   0  0  0  0  0  0  0  0  0  0  0  0
   23.9665  -15.4818  -22.4856 C   0  0  0  0  0  0  0  0  0  0  0  0
   24.0953  -14.5578  -21.5188 N   0  0  0  0  0  0  0  0  0  0  0  0
   24.1234  -13.6285  -17.1299 C   0  0  0  0  0  0  0  0  0  0  0  0
   23.4603  -14.1412  -16.2080 O   0  0  0  0  0  0  0  0  0  0  0  0
   26.8944  -12.1772  -15.1291 C   0  0  0  0  0  0  0  0  0  0  0  0
   26.0261  -10.9713  -15.4747 C   0  0  1  0  0  0  0  0  0  0  0  0
   26.7303  -10.3830  -16.7164 C   0  0  0  0  0  0  0  0  0  0  0  0
   24.6522  -11.4190  -15.9282 C   0  0  2  0  0  0  0  0  0  0  0  0
   24.6775  -12.3478  -17.0384 N   0  0  0  0  0  0  0  0  0  0  0  0
   23.8017  -10.3098  -16.3287 C   0  0  0  0  0  0  0  0  0  0  0  0
   23.6937   -9.8971  -17.5228 O   0  0  0  0  0  0  0  0  0  0  0  0
   20.0417   -6.7755  -16.3427 N   0  0  0  0  0  0  0  0  0  0  0  0
   19.8255   -8.1577  -16.7105 C   0  0  0  0  0  0  0  0  0  0  0  0
   18.7614   -8.4114  -17.3025 O   0  0  0  0  0  0  0  0  0  0  0  0
   20.8899   -9.0884  -16.3386 C   0  0  0  0  0  0  0  0  0  0  0  0
   22.1379   -8.5008  -15.7854 C   0  0  2  0  0  0  0  0  0  0  0  0
   23.0233   -9.6101  -15.3775 N   0  0  0  0  0  0  0  0  0  0  0  0
   21.8671   -7.6863  -14.5972 C   0  0  0  0  0  0  0  0  0  0  0  0
   21.4914   -6.3600  -14.6307 O   0  0  0  0  0  0  0  0  0  0  0  0
   21.9805   -8.2163  -13.4509 O   0  0  0  0  0  0  0  0  0  0  0  0
  2  1  1  1
  2  9  1  0
  3  4  1  0
  3  2  1  0
  4  8  1  0
  5  4  2  0
  5  6  1  0
  6  7  1  0
  8  7  2  0
  9 10  2  0
 12 11  1  6
 12 13  1  0
 12 14  1  0
 14 16  1  0
 15  9  1  0
 14 15  1  6
 16 23  1  0
 16 17  2  0
 18 19  1  0
 19 20  2  0
 19 21  1  0
 22 21  1  1
 22 24  1  0
 23 22  1  0
 24 26  2  0
 24 25  1  0
M  END
$$$$
