HVN.pdb
     RDKit          3D

 26 26  0  0  1  0  0  0  0  0999 V2000
   28.5528  -21.2039  -16.4061 N   0  0  0  0  0  0  0  0  0  0  0  0
   27.7304  -20.3192  -15.6347 C   0  0  1  0  0  0  0  0  0  0  0  0
   26.8955  -19.3997  -16.4969 C   0  0  0  0  0  0  0  0  0  0  0  0
   27.8274  -18.4875  -17.2109 C   0  0  0  0  0  0  0  0  0  0  0  0
   27.9973  -18.4799  -18.5752 C   0  0  0  0  0  0  0  0  0  0  0  0
   28.9112  -17.5282  -18.8367 N   0  0  0  0  0  0  0  0  0  0  0  0
   29.2849  -16.9743  -17.6645 C   0  0  0  0  0  0  0  0  0  0  0  0
   28.6261  -17.5537  -16.6470 N   0  0  0  0  0  0  0  0  0  0  0  0
   26.7402  -21.1144  -14.7960 C   0  0  0  0  0  0  0  0  0  0  0  0
   26.1925  -22.1218  -15.2833 O   0  0  0  0  0  0  0  0  0  0  0  0
   25.7518  -19.3963  -10.8161 C   0  0  0  0  0  0  0  0  0  0  0  0
   25.9968  -20.8806  -11.0698 C   0  0  1  0  0  0  0  0  0  0  0  0
   24.9657  -21.5639  -10.1457 C   0  0  0  0  0  0  0  0  0  0  0  0
   25.6152  -21.2467  -12.4890 C   0  0  2  0  0  0  0  0  0  0  0  0
   26.4843  -20.6723  -13.4941 N   0  0  0  0  0  0  0  0  0  0  0  0
   24.2593  -20.8468  -12.8289 C   0  0  0  0  0  0  0  0  0  0  0  0
   23.9030  -19.6445  -13.0170 O   0  0  0  0  0  0  0  0  0  0  0  0
   19.2755  -21.1068  -14.2978 N   0  0  0  0  0  0  0  0  0  0  0  0
   19.8116  -22.4470  -14.3921 C   0  0  0  0  0  0  0  0  0  0  0  0
   19.0678  -23.3045  -14.9007 O   0  0  0  0  0  0  0  0  0  0  0  0
   21.1672  -22.6273  -13.8752 C   0  0  0  0  0  0  0  0  0  0  0  0
   21.8709  -21.4126  -13.3871 C   0  0  2  0  0  0  0  0  0  0  0  0
   23.2323  -21.8084  -12.9740 N   0  0  0  0  0  0  0  0  0  0  0  0
   21.1998  -20.8368  -12.2180 C   0  0  0  0  0  0  0  0  0  0  0  0
   21.6479  -20.9655  -10.9204 O   0  0  0  0  0  0  0  0  0  0  0  0
   20.1333  -20.1722  -12.3880 O   0  0  0  0  0  0  0  0  0  0  0  0
  2  1  1  6
  2  9  1  0
  3  4  1  0
  3  2  1  0
  4  8  1  0
  5  4  2  0
  5  6  1  0
  6  7  1  0
  8  7  2  0
  9 10  2  0
 12 11  1  6
 12 13  1  0
 12 14  1  0
 14 16  1  0
 15  9  1  0
 14 15  1  6
 16 23  1  0
 16 17  2  0
 18 19  1  0
 19 20  2  0
 19 21  1  0
 22 21  1  1
 22 24  1  0
 23 22  1  0
 24 26  2  0
 24 25  1  0
M  END
$$$$
