HVN.pdb
     RDKit          3D

 26 26  0  0  1  0  0  0  0  0999 V2000
   23.4538  -14.0881  -17.6541 N   0  0  0  0  0  0  0  0  0  0  0  0
   23.7767  -12.9882  -16.7938 C   0  0  1  0  0  0  0  0  0  0  0  0
   25.2289  -12.5792  -16.8911 C   0  0  0  0  0  0  0  0  0  0  0  0
   26.0521  -13.7587  -16.5151 C   0  0  0  0  0  0  0  0  0  0  0  0
   26.3132  -14.1287  -15.2169 C   0  0  0  0  0  0  0  0  0  0  0  0
   27.0809  -15.2310  -15.2855 N   0  0  0  0  0  0  0  0  0  0  0  0
   27.2798  -15.5214  -16.5881 C   0  0  0  0  0  0  0  0  0  0  0  0
   26.6518  -14.6227  -17.3646 N   0  0  0  0  0  0  0  0  0  0  0  0
   22.9716  -11.7572  -17.1847 C   0  0  0  0  0  0  0  0  0  0  0  0
   22.8513  -11.4588  -18.3884 O   0  0  0  0  0  0  0  0  0  0  0  0
   19.5175  -11.4473  -16.0708 C   0  0  0  0  0  0  0  0  0  0  0  0
   20.1394  -10.1484  -15.5673 C   0  0  1  0  0  0  0  0  0  0  0  0
   20.4593  -10.4682  -14.0910 C   0  0  0  0  0  0  0  0  0  0  0  0
   21.4661   -9.8946  -16.2522 C   0  0  2  0  0  0  0  0  0  0  0  0
   22.3928  -11.0028  -16.1592 N   0  0  0  0  0  0  0  0  0  0  0  0
   22.1557   -8.7262  -15.7295 C   0  0  0  0  0  0  0  0  0  0  0  0
   23.2041   -8.7834  -15.0185 O   0  0  0  0  0  0  0  0  0  0  0  0
   24.9262   -4.1407  -16.2730 N   0  0  0  0  0  0  0  0  0  0  0  0
   23.4875   -4.1593  -16.4227 C   0  0  0  0  0  0  0  0  0  0  0  0
   22.9074   -3.0640  -16.3177 O   0  0  0  0  0  0  0  0  0  0  0  0
   22.8920   -5.4695  -16.6800 C   0  0  0  0  0  0  0  0  0  0  0  0
   22.4018   -6.2315  -15.5018 C   0  0  2  0  0  0  0  0  0  0  0  0
   21.6797   -7.4213  -15.9956 N   0  0  0  0  0  0  0  0  0  0  0  0
   21.4622   -5.4392  -14.7030 C   0  0  0  0  0  0  0  0  0  0  0  0
   20.0963   -5.6269  -14.6936 O   0  0  0  0  0  0  0  0  0  0  0  0
   21.9140   -4.5130  -13.9641 O   0  0  0  0  0  0  0  0  0  0  0  0
  2  1  1  6
  2  9  1  0
  3  4  1  0
  3  2  1  0
  4  8  1  0
  5  4  2  0
  5  6  1  0
  6  7  1  0
  8  7  2  0
  9 10  2  0
 12 11  1  6
 12 13  1  0
 12 14  1  0
 14 16  1  0
 15  9  1  0
 14 15  1  1
 16 23  1  0
 16 17  2  0
 18 19  1  0
 19 20  2  0
 19 21  1  0
 22 21  1  6
 22 24  1  0
 23 22  1  0
 24 26  2  0
 24 25  1  0
M  END
$$$$
