HVN.pdb
     RDKit          3D

 26 26  0  0  1  0  0  0  0  0999 V2000
   21.5574  -16.4083  -16.7534 N   0  0  0  0  0  0  0  0  0  0  0  0
   21.4744  -15.1029  -17.3394 C   0  0  1  0  0  0  0  0  0  0  0  0
   20.1720  -14.8753  -18.0726 C   0  0  0  0  0  0  0  0  0  0  0  0
   20.1328  -15.8209  -19.2192 C   0  0  0  0  0  0  0  0  0  0  0  0
   20.5995  -15.5201  -20.4770 C   0  0  0  0  0  0  0  0  0  0  0  0
   20.3929  -16.6162  -21.2287 N   0  0  0  0  0  0  0  0  0  0  0  0
   19.8173  -17.5551  -20.4491 C   0  0  0  0  0  0  0  0  0  0  0  0
   19.6480  -17.0828  -19.2028 N   0  0  0  0  0  0  0  0  0  0  0  0
   21.5347  -14.0334  -16.2584 C   0  0  0  0  0  0  0  0  0  0  0  0
   20.8226  -14.1464  -15.2422 O   0  0  0  0  0  0  0  0  0  0  0  0
   24.8883  -13.0494  -14.9358 C   0  0  0  0  0  0  0  0  0  0  0  0
   24.2527  -11.7260  -15.3508 C   0  0  1  0  0  0  0  0  0  0  0  0
   24.8509  -11.4800  -16.7528 C   0  0  0  0  0  0  0  0  0  0  0  0
   22.7593  -11.8908  -15.5406 C   0  0  2  0  0  0  0  0  0  0  0  0
   22.4006  -12.9532  -16.4562 N   0  0  0  0  0  0  0  0  0  0  0  0
   22.1163  -10.6815  -16.0288 C   0  0  0  0  0  0  0  0  0  0  0  0
   22.0759  -10.3467  -17.2512 O   0  0  0  0  0  0  0  0  0  0  0  0
   19.3157   -6.3008  -16.1654 N   0  0  0  0  0  0  0  0  0  0  0  0
   18.7852   -7.1674  -15.1357 C   0  0  0  0  0  0  0  0  0  0  0  0
   17.7223   -6.8036  -14.6017 O   0  0  0  0  0  0  0  0  0  0  0  0
   19.5683   -8.3684  -14.8499 C   0  0  0  0  0  0  0  0  0  0  0  0
   20.8168   -8.5625  -15.6325 C   0  0  2  0  0  0  0  0  0  0  0  0
   21.4801   -9.7859  -15.1382 N   0  0  0  0  0  0  0  0  0  0  0  0
   21.7465   -7.4447  -15.4464 C   0  0  0  0  0  0  0  0  0  0  0  0
   21.8279   -6.3514  -16.2825 O   0  0  0  0  0  0  0  0  0  0  0  0
   22.5391   -7.4639  -14.4567 O   0  0  0  0  0  0  0  0  0  0  0  0
  2  1  1  1
  2  9  1  0
  3  4  1  0
  3  2  1  0
  4  8  1  0
  5  4  2  0
  5  6  1  0
  6  7  1  0
  8  7  2  0
  9 10  2  0
 12 11  1  6
 12 13  1  0
 12 14  1  0
 14 16  1  0
 15  9  1  0
 14 15  1  6
 16 23  1  0
 16 17  2  0
 18 19  1  0
 19 20  2  0
 19 21  1  0
 22 21  1  1
 22 24  1  0
 23 22  1  0
 24 26  2  0
 24 25  1  0
M  END
$$$$
