HVN.pdb
     RDKit          3D

 26 26  0  0  1  0  0  0  0  0999 V2000
   27.1372  -20.3702  -14.7239 N   0  0  0  0  0  0  0  0  0  0  0  0
   26.3178  -19.5813  -13.8520 C   0  0  1  0  0  0  0  0  0  0  0  0
   25.2682  -18.7888  -14.5977 C   0  0  0  0  0  0  0  0  0  0  0  0
   25.9755  -17.7695  -15.4169 C   0  0  0  0  0  0  0  0  0  0  0  0
   26.5059  -16.6087  -14.9054 C   0  0  0  0  0  0  0  0  0  0  0  0
   27.0572  -15.9557  -15.9440 N   0  0  0  0  0  0  0  0  0  0  0  0
   26.8667  -16.6990  -17.0538 C   0  0  0  0  0  0  0  0  0  0  0  0
   26.1996  -17.8247  -16.7490 N   0  0  0  0  0  0  0  0  0  0  0  0
   25.5539  -20.4787  -12.8889 C   0  0  0  0  0  0  0  0  0  0  0  0
   25.0267  -21.5254  -13.3118 O   0  0  0  0  0  0  0  0  0  0  0  0
   24.7570  -21.1509   -7.9642 C   0  0  0  0  0  0  0  0  0  0  0  0
   25.4448  -20.3793   -9.0863 C   0  0  1  0  0  0  0  0  0  0  0  0
   26.8854  -20.9341   -9.0544 C   0  0  0  0  0  0  0  0  0  0  0  0
   24.8625  -20.7649  -10.4301 C   0  0  2  0  0  0  0  0  0  0  0  0
   25.4760  -20.0827  -11.5499 N   0  0  0  0  0  0  0  0  0  0  0  0
   23.4331  -20.5137  -10.5180 C   0  0  0  0  0  0  0  0  0  0  0  0
   22.9168  -19.3556  -10.5044 O   0  0  0  0  0  0  0  0  0  0  0  0
   18.2980  -21.2332  -11.0649 N   0  0  0  0  0  0  0  0  0  0  0  0
   18.9508  -22.4753  -11.4166 C   0  0  0  0  0  0  0  0  0  0  0  0
   18.2053  -23.4268  -11.7100 O   0  0  0  0  0  0  0  0  0  0  0  0
   20.4122  -22.4572  -11.3830 C   0  0  0  0  0  0  0  0  0  0  0  0
   21.0570  -21.3331  -10.6553 C   0  0  2  0  0  0  0  0  0  0  0  0
   22.5125  -21.5817  -10.6282 N   0  0  0  0  0  0  0  0  0  0  0  0
   20.5920  -21.2549   -9.2674 C   0  0  0  0  0  0  0  0  0  0  0  0
   20.9132  -22.1678   -8.2854 O   0  0  0  0  0  0  0  0  0  0  0  0
   19.8421  -20.2914   -8.9248 O   0  0  0  0  0  0  0  0  0  0  0  0
  2  1  1  6
  2  9  1  0
  3  4  1  0
  3  2  1  0
  4  8  1  0
  5  4  2  0
  5  6  1  0
  6  7  1  0
  8  7  2  0
  9 10  2  0
 12 11  1  1
 12 13  1  0
 12 14  1  0
 14 16  1  0
 15  9  1  0
 14 15  1  6
 16 23  1  0
 16 17  2  0
 18 19  1  0
 19 20  2  0
 19 21  1  0
 22 21  1  6
 22 24  1  0
 23 22  1  0
 24 26  2  0
 24 25  1  0
M  END
$$$$
