HVN.pdb
     RDKit          3D

 26 26  0  0  1  0  0  0  0  0999 V2000
   24.9873  -15.9463  -17.9186 N   0  0  0  0  0  0  0  0  0  0  0  0
   24.5868  -15.0465  -16.8773 C   0  0  1  0  0  0  0  0  0  0  0  0
   25.7591  -14.5116  -16.0867 C   0  0  0  0  0  0  0  0  0  0  0  0
   26.4809  -15.6776  -15.5124 C   0  0  0  0  0  0  0  0  0  0  0  0
   26.0483  -16.3814  -14.4134 C   0  0  0  0  0  0  0  0  0  0  0  0
   26.9568  -17.3508  -14.2040 N   0  0  0  0  0  0  0  0  0  0  0  0
   27.9133  -17.2384  -15.1490 C   0  0  0  0  0  0  0  0  0  0  0  0
   27.6373  -16.2096  -15.9680 N   0  0  0  0  0  0  0  0  0  0  0  0
   23.8944  -13.8274  -17.4693 C   0  0  0  0  0  0  0  0  0  0  0  0
   24.4458  -13.1948  -18.3903 O   0  0  0  0  0  0  0  0  0  0  0  0
   19.6779  -13.8020  -16.7819 C   0  0  0  0  0  0  0  0  0  0  0  0
   20.3998  -13.0957  -17.9254 C   0  0  1  0  0  0  0  0  0  0  0  0
   19.4586  -11.9159  -18.2518 C   0  0  0  0  0  0  0  0  0  0  0  0
   21.6998  -12.4901  -17.4389 C   0  0  2  0  0  0  0  0  0  0  0  0
   22.6496  -13.4648  -16.9453 N   0  0  0  0  0  0  0  0  0  0  0  0
   21.5055  -11.5180  -16.3752 C   0  0  0  0  0  0  0  0  0  0  0  0
   21.2816  -11.8283  -15.1663 O   0  0  0  0  0  0  0  0  0  0  0  0
   21.1038   -6.9547  -13.8775 N   0  0  0  0  0  0  0  0  0  0  0  0
   21.6824   -6.6721  -15.1729 C   0  0  0  0  0  0  0  0  0  0  0  0
   22.0527   -5.5008  -15.3683 O   0  0  0  0  0  0  0  0  0  0  0  0
   21.7600   -7.8039  -16.0950 C   0  0  0  0  0  0  0  0  0  0  0  0
   21.3973   -9.1405  -15.5557 C   0  0  2  0  0  0  0  0  0  0  0  0
   21.5587  -10.1298  -16.6402 N   0  0  0  0  0  0  0  0  0  0  0  0
   19.9987   -9.1817  -15.1189 C   0  0  0  0  0  0  0  0  0  0  0  0
   18.9176   -9.2504  -15.9719 O   0  0  0  0  0  0  0  0  0  0  0  0
   19.7424   -9.1525  -13.8773 O   0  0  0  0  0  0  0  0  0  0  0  0
  2  1  1  6
  2  9  1  0
  3  4  1  0
  3  2  1  0
  4  8  1  0
  5  4  2  0
  5  6  1  0
  6  7  1  0
  8  7  2  0
  9 10  2  0
 12 11  1  1
 12 13  1  0
 12 14  1  0
 14 16  1  0
 15  9  1  0
 14 15  1  1
 16 23  1  0
 16 17  2  0
 18 19  1  0
 19 20  2  0
 19 21  1  0
 22 21  1  6
 22 24  1  0
 23 22  1  0
 24 26  2  0
 24 25  1  0
M  END
$$$$
