YEV.pdb
     RDKit          3D

 29 29  0  0  1  0  0  0  0  0999 V2000
    9.0299  -12.0701   16.7101 O   0  0  0  0  0  0  0  0  0  0  0  0
    8.4224  -12.7389   17.7786 C   0  0  0  0  0  0  0  0  0  0  0  0
    9.0867  -12.8492   18.9861 C   0  0  0  0  0  0  0  0  0  0  0  0
    8.5120  -13.5028   20.0571 C   0  0  0  0  0  0  0  0  0  0  0  0
    7.2598  -14.0657   19.9580 C   0  0  0  0  0  0  0  0  0  0  0  0
    6.6231  -14.7792   21.1210 C   0  0  0  0  0  0  0  0  0  0  0  0
    7.1832  -16.1843   21.2410 C   0  0  2  0  0  0  0  0  0  0  0  0
    6.1164  -17.0634   20.7411 N   0  0  0  0  0  0  0  0  0  0  0  0
    7.5140  -16.5442   22.6205 C   0  0  0  0  0  0  0  0  0  0  0  0
    6.6152  -16.8131   23.4592 O   0  0  0  0  0  0  0  0  0  0  0  0
    6.6084  -13.9524   18.7593 C   0  0  0  0  0  0  0  0  0  0  0  0
    7.1730  -13.2989   17.6753 C   0  0  0  0  0  0  0  0  0  0  0  0
    8.8710  -16.5980   23.0443 N   0  0  0  0  0  0  0  0  0  0  0  0
    9.3066  -16.9075   24.3794 C   0  0  1  0  0  0  0  0  0  0  0  0
   10.3005  -17.9868   24.5209 C   0  0  0  0  0  0  0  0  0  0  0  0
   10.8246  -18.3681   25.8354 C   0  0  0  0  0  0  0  0  0  0  0  0
   11.8621  -19.4133   25.8850 C   0  0  0  0  0  0  0  0  0  0  0  0
   11.7587  -20.5865   25.4648 O   0  0  0  0  0  0  0  0  0  0  0  0
    9.5923  -15.6960   25.1765 C   0  0  0  0  0  0  0  0  0  0  0  0
   10.5226  -14.8786   24.9115 O   0  0  0  0  0  0  0  0  0  0  0  0
   13.1003  -19.1011   26.4511 O   0  0  0  0  0  0  0  0  0  0  0  0
    6.9453  -13.2244   26.1398 C   0  0  0  0  0  0  0  0  0  0  0  0
    7.6108  -13.6497   27.4411 C   0  0  2  0  0  0  0  0  0  0  0  0
    7.7213  -12.4185   28.3053 C   0  0  0  0  0  0  0  0  0  0  0  0
    8.9905  -14.2300   27.1458 C   0  0  2  0  0  0  0  0  0  0  0  0
    8.7935  -15.4052   26.3118 N   0  0  0  0  0  0  0  0  0  0  0  0
    9.5508  -14.6377   28.4690 C   0  0  0  0  0  0  0  0  0  0  0  0
   10.1893  -13.7452   29.3073 O   0  0  0  0  0  0  0  0  0  0  0  0
    9.4382  -15.8316   28.8324 O   0  0  0  0  0  0  0  0  0  0  0  0
  2  1  1  0
  3  2  2  0
  4  3  1  0
  5 11  1  0
  5  4  2  0
  6  5  1  0
  7  6  1  0
  7  8  1  1
  9  7  1  0
  9 10  2  0
 11 12  2  0
 12  2  1  0
 13  9  1  0
 14 13  1  0
 14 15  1  6
 16 15  1  0
 16 17  1  0
 17 18  2  0
 19 14  1  0
 20 19  2  0
 21 17  1  0
 23 22  1  6
 23 25  1  0
 24 23  1  0
 25 27  1  0
 25 26  1  6
 26 19  1  0
 27 28  1  0
 29 27  2  0
M  END
$$$$
