YEV.pdb
     RDKit          3D

 29 29  0  0  1  0  0  0  0  0999 V2000
    7.0669  -12.1546   16.9344 O   0  0  0  0  0  0  0  0  0  0  0  0
    7.2963  -12.7788   18.1656 C   0  0  0  0  0  0  0  0  0  0  0  0
    8.5768  -12.8224   18.6851 C   0  0  0  0  0  0  0  0  0  0  0  0
    8.8324  -13.4309   19.8971 C   0  0  0  0  0  0  0  0  0  0  0  0
    7.8218  -14.0137   20.6274 C   0  0  0  0  0  0  0  0  0  0  0  0
    8.0898  -14.6785   21.9515 C   0  0  0  0  0  0  0  0  0  0  0  0
    8.8609  -15.9683   21.7412 C   0  0  2  0  0  0  0  0  0  0  0  0
    7.9270  -16.8600   21.0387 N   0  0  0  0  0  0  0  0  0  0  0  0
    9.2816  -16.5860   22.9996 C   0  0  0  0  0  0  0  0  0  0  0  0
    8.4473  -17.1155   23.7788 O   0  0  0  0  0  0  0  0  0  0  0  0
    6.5566  -13.9666   20.1065 C   0  0  0  0  0  0  0  0  0  0  0  0
    6.2850  -13.3590   18.8908 C   0  0  0  0  0  0  0  0  0  0  0  0
   10.6552  -16.6004   23.3699 N   0  0  0  0  0  0  0  0  0  0  0  0
   11.1694  -17.1117   24.6118 C   0  0  1  0  0  0  0  0  0  0  0  0
   12.2602  -18.0991   24.5234 C   0  0  0  0  0  0  0  0  0  0  0  0
   12.4137  -18.9567   23.3448 C   0  0  0  0  0  0  0  0  0  0  0  0
   13.6179  -19.8018   23.2618 C   0  0  0  0  0  0  0  0  0  0  0  0
   13.7752  -20.9282   23.7814 O   0  0  0  0  0  0  0  0  0  0  0  0
   11.3776  -16.0493   25.6181 C   0  0  0  0  0  0  0  0  0  0  0  0
   12.2748  -15.1597   25.5316 O   0  0  0  0  0  0  0  0  0  0  0  0
   14.7166  -19.3322   22.5382 O   0  0  0  0  0  0  0  0  0  0  0  0
    8.3797  -14.9554   28.1360 C   0  0  0  0  0  0  0  0  0  0  0  0
    9.7114  -14.2180   28.1406 C   0  0  2  0  0  0  0  0  0  0  0  0
    9.6704  -13.2223   27.0083 C   0  0  0  0  0  0  0  0  0  0  0  0
   10.8501  -15.2144   27.9449 C   0  0  2  0  0  0  0  0  0  0  0  0
   10.5376  -15.9974   26.7597 N   0  0  0  0  0  0  0  0  0  0  0  0
   10.8307  -16.0945   29.1516 C   0  0  0  0  0  0  0  0  0  0  0  0
   10.3807  -17.3991   29.1070 O   0  0  0  0  0  0  0  0  0  0  0  0
   11.2368  -15.6336   30.2438 O   0  0  0  0  0  0  0  0  0  0  0  0
  2  1  1  0
  3  2  2  0
  4  3  1  0
  5 11  1  0
  5  4  2  0
  6  5  1  0
  7  6  1  0
  7  8  1  1
  9  7  1  0
  9 10  2  0
 11 12  2  0
 12  2  1  0
 13  9  1  0
 14 13  1  0
 14 15  1  6
 16 15  1  0
 16 17  1  0
 17 18  2  0
 19 14  1  0
 20 19  2  0
 21 17  1  0
 23 22  1  6
 23 25  1  0
 24 23  1  0
 25 27  1  0
 25 26  1  6
 26 19  1  0
 27 28  1  0
 29 27  2  0
M  END
$$$$
