YEV.pdb
     RDKit          3D

 29 29  0  0  1  0  0  0  0  0999 V2000
    7.5084  -12.7850   15.2107 O   0  0  0  0  0  0  0  0  0  0  0  0
    7.4136  -13.3335   16.4945 C   0  0  0  0  0  0  0  0  0  0  0  0
    7.8523  -12.6066   17.5856 C   0  0  0  0  0  0  0  0  0  0  0  0
    7.7708  -13.1222   18.8632 C   0  0  0  0  0  0  0  0  0  0  0  0
    7.2507  -14.3757   19.0924 C   0  0  0  0  0  0  0  0  0  0  0  0
    7.1557  -14.9466   20.4823 C   0  0  0  0  0  0  0  0  0  0  0  0
    8.3976  -15.7589   20.7988 C   0  0  2  0  0  0  0  0  0  0  0  0
    8.3182  -16.9342   19.9196 N   0  0  0  0  0  0  0  0  0  0  0  0
    8.4491  -16.1900   22.1965 C   0  0  0  0  0  0  0  0  0  0  0  0
    7.4447  -16.6950   22.7620 O   0  0  0  0  0  0  0  0  0  0  0  0
    6.8186  -15.0895   18.0070 C   0  0  0  0  0  0  0  0  0  0  0  0
    6.8941  -14.5846   16.7185 C   0  0  0  0  0  0  0  0  0  0  0  0
    9.6470  -16.0458   22.9502 N   0  0  0  0  0  0  0  0  0  0  0  0
    9.8055  -16.4257   24.3281 C   0  0  1  0  0  0  0  0  0  0  0  0
   10.6711  -17.5868   24.6022 C   0  0  0  0  0  0  0  0  0  0  0  0
   10.6829  -18.7513   23.7123 C   0  0  0  0  0  0  0  0  0  0  0  0
   11.6071  -19.8529   24.0339 C   0  0  0  0  0  0  0  0  0  0  0  0
   12.0993  -20.6723   23.2278 O   0  0  0  0  0  0  0  0  0  0  0  0
   10.0319  -15.2635   25.2130 C   0  0  0  0  0  0  0  0  0  0  0  0
   10.9583  -14.4166   25.0444 O   0  0  0  0  0  0  0  0  0  0  0  0
   11.9967  -20.0332   25.3632 O   0  0  0  0  0  0  0  0  0  0  0  0
    6.8855  -13.9629   27.4470 C   0  0  0  0  0  0  0  0  0  0  0  0
    8.1299  -13.1083   27.2513 C   0  0  2  0  0  0  0  0  0  0  0  0
    7.9991  -12.4365   25.9071 C   0  0  0  0  0  0  0  0  0  0  0  0
    9.3720  -13.9930   27.2962 C   0  0  2  0  0  0  0  0  0  0  0  0
    9.1766  -15.0585   26.3256 N   0  0  0  0  0  0  0  0  0  0  0  0
    9.4119  -14.5664   28.6748 C   0  0  0  0  0  0  0  0  0  0  0  0
    9.8339  -13.8347   29.7671 O   0  0  0  0  0  0  0  0  0  0  0  0
    9.0499  -15.7536   28.8476 O   0  0  0  0  0  0  0  0  0  0  0  0
  2  1  1  0
  3  2  2  0
  4  3  1  0
  5 11  1  0
  5  4  2  0
  6  5  1  0
  7  6  1  0
  7  8  1  6
  9  7  1  0
  9 10  2  0
 11 12  2  0
 12  2  1  0
 13  9  1  0
 14 13  1  0
 14 15  1  6
 16 15  1  0
 16 17  1  0
 17 18  2  0
 19 14  1  0
 20 19  2  0
 21 17  1  0
 23 22  1  6
 23 25  1  0
 24 23  1  0
 25 27  1  0
 25 26  1  6
 26 19  1  0
 27 28  1  0
 29 27  2  0
M  END
$$$$
