YEV.pdb
     RDKit          3D

 29 29  0  0  1  0  0  0  0  0999 V2000
    8.9582  -11.1185   21.4006 O   0  0  0  0  0  0  0  0  0  0  0  0
    8.2546  -12.3277   21.3713 C   0  0  0  0  0  0  0  0  0  0  0  0
    8.0599  -12.9796   20.1678 C   0  0  0  0  0  0  0  0  0  0  0  0
    7.3702  -14.1736   20.1090 C   0  0  0  0  0  0  0  0  0  0  0  0
    6.8542  -14.7535   21.2455 C   0  0  0  0  0  0  0  0  0  0  0  0
    6.1019  -16.0567   21.1924 C   0  0  0  0  0  0  0  0  0  0  0  0
    7.0752  -17.2185   21.1214 C   0  0  2  0  0  0  0  0  0  0  0  0
    6.2307  -18.4162   21.0071 N   0  0  0  0  0  0  0  0  0  0  0  0
    7.9196  -17.3212   22.3124 C   0  0  0  0  0  0  0  0  0  0  0  0
    7.4594  -17.7419   23.4055 O   0  0  0  0  0  0  0  0  0  0  0  0
    7.0509  -14.1020   22.4334 C   0  0  0  0  0  0  0  0  0  0  0  0
    7.7415  -12.9027   22.5078 C   0  0  0  0  0  0  0  0  0  0  0  0
    9.2903  -16.9443   22.2571 N   0  0  0  0  0  0  0  0  0  0  0  0
   10.2048  -16.9934   23.3659 C   0  0  1  0  0  0  0  0  0  0  0  0
   11.6051  -17.3351   23.0581 C   0  0  0  0  0  0  0  0  0  0  0  0
   12.5944  -17.5151   24.1245 C   0  0  0  0  0  0  0  0  0  0  0  0
   13.9607  -17.9066   23.7357 C   0  0  0  0  0  0  0  0  0  0  0  0
   14.6932  -18.7348   24.3196 O   0  0  0  0  0  0  0  0  0  0  0  0
   10.0359  -15.8517   24.2895 C   0  0  0  0  0  0  0  0  0  0  0  0
    9.8407  -14.6591   23.9109 O   0  0  0  0  0  0  0  0  0  0  0  0
   14.5306  -17.3149   22.6060 O   0  0  0  0  0  0  0  0  0  0  0  0
    8.7677  -13.1922   27.6891 C   0  0  0  0  0  0  0  0  0  0  0  0
    8.7739  -14.3297   26.6774 C   0  0  2  0  0  0  0  0  0  0  0  0
    7.7049  -15.3057   27.1015 C   0  0  0  0  0  0  0  0  0  0  0  0
   10.1449  -14.9988   26.6664 C   0  0  2  0  0  0  0  0  0  0  0  0
   10.0908  -16.0746   25.6892 N   0  0  0  0  0  0  0  0  0  0  0  0
   10.3293  -15.5681   28.0350 C   0  0  0  0  0  0  0  0  0  0  0  0
   10.3776  -16.9282   28.2687 O   0  0  0  0  0  0  0  0  0  0  0  0
   10.4442  -14.7848   29.0063 O   0  0  0  0  0  0  0  0  0  0  0  0
  2  1  1  0
  3  2  2  0
  4  3  1  0
  5 11  1  0
  5  4  2  0
  6  5  1  0
  7  6  1  0
  7  8  1  1
  9  7  1  0
  9 10  2  0
 11 12  2  0
 12  2  1  0
 13  9  1  0
 14 13  1  0
 14 15  1  6
 16 15  1  0
 16 17  1  0
 17 18  2  0
 19 14  1  0
 20 19  2  0
 21 17  1  0
 23 22  1  1
 23 25  1  0
 24 23  1  0
 25 27  1  0
 25 26  1  6
 26 19  1  0
 27 28  1  0
 29 27  2  0
M  END
$$$$
