YEV.pdb
     RDKit          3D

 29 29  0  0  1  0  0  0  0  0999 V2000
    7.7826  -12.9137   15.6158 O   0  0  0  0  0  0  0  0  0  0  0  0
    7.8113  -13.2827   16.9652 C   0  0  0  0  0  0  0  0  0  0  0  0
    8.7634  -14.1805   17.4112 C   0  0  0  0  0  0  0  0  0  0  0  0
    8.8157  -14.5622   18.7365 C   0  0  0  0  0  0  0  0  0  0  0  0
    7.9223  -14.0620   19.6563 C   0  0  0  0  0  0  0  0  0  0  0  0
    7.9719  -14.4706   21.1046 C   0  0  0  0  0  0  0  0  0  0  0  0
    8.0653  -15.9808   21.2179 C   0  0  2  0  0  0  0  0  0  0  0  0
    6.7624  -16.4787   20.7541 N   0  0  0  0  0  0  0  0  0  0  0  0
    8.3061  -16.4302   22.5898 C   0  0  0  0  0  0  0  0  0  0  0  0
    7.3561  -16.6047   23.3965 O   0  0  0  0  0  0  0  0  0  0  0  0
    6.9824  -13.1737   19.2071 C   0  0  0  0  0  0  0  0  0  0  0  0
    6.9180  -12.7813   17.8795 C   0  0  0  0  0  0  0  0  0  0  0  0
    9.6312  -16.6813   23.0425 N   0  0  0  0  0  0  0  0  0  0  0  0
    9.9942  -16.9959   24.3980 C   0  0  1  0  0  0  0  0  0  0  0  0
   11.0451  -18.0122   24.5860 C   0  0  0  0  0  0  0  0  0  0  0  0
   11.0904  -19.2194   23.7561 C   0  0  0  0  0  0  0  0  0  0  0  0
   12.3165  -20.0355   23.7963 C   0  0  0  0  0  0  0  0  0  0  0  0
   12.9319  -20.5050   22.8142 O   0  0  0  0  0  0  0  0  0  0  0  0
   10.1442  -15.7890   25.2381 C   0  0  0  0  0  0  0  0  0  0  0  0
   11.0452  -14.9158   25.0664 O   0  0  0  0  0  0  0  0  0  0  0  0
   12.8795  -20.3370   25.0386 O   0  0  0  0  0  0  0  0  0  0  0  0
    7.7064  -13.1525   25.9412 C   0  0  0  0  0  0  0  0  0  0  0  0
    8.0210  -13.7571   27.3025 C   0  0  2  0  0  0  0  0  0  0  0  0
    8.0523  -12.6218   28.2950 C   0  0  0  0  0  0  0  0  0  0  0  0
    9.3703  -14.4672   27.2488 C   0  0  2  0  0  0  0  0  0  0  0  0
    9.2396  -15.5687   26.3081 N   0  0  0  0  0  0  0  0  0  0  0  0
    9.6020  -15.0020   28.6240 C   0  0  0  0  0  0  0  0  0  0  0  0
   10.1472  -14.2332   29.6333 O   0  0  0  0  0  0  0  0  0  0  0  0
    9.2913  -16.1904   28.8719 O   0  0  0  0  0  0  0  0  0  0  0  0
  2  1  1  0
  3  2  2  0
  4  3  1  0
  5 11  1  0
  5  4  2  0
  6  5  1  0
  7  6  1  0
  7  8  1  1
  9  7  1  0
  9 10  2  0
 11 12  2  0
 12  2  1  0
 13  9  1  0
 14 13  1  0
 14 15  1  6
 16 15  1  0
 16 17  1  0
 17 18  2  0
 19 14  1  0
 20 19  2  0
 21 17  1  0
 23 22  1  6
 23 25  1  0
 24 23  1  0
 25 27  1  0
 25 26  1  6
 26 19  1  0
 27 28  1  0
 29 27  2  0
M  END
$$$$
