YEV.pdb
     RDKit          3D

 29 29  0  0  1  0  0  0  0  0999 V2000
    7.6186  -13.0362   15.4257 O   0  0  0  0  0  0  0  0  0  0  0  0
    7.6812  -13.4019   16.7748 C   0  0  0  0  0  0  0  0  0  0  0  0
    6.9614  -12.6868   17.7140 C   0  0  0  0  0  0  0  0  0  0  0  0
    7.0039  -13.0251   19.0514 C   0  0  0  0  0  0  0  0  0  0  0  0
    7.7638  -14.0842   19.4932 C   0  0  0  0  0  0  0  0  0  0  0  0
    7.8156  -14.4625   20.9496 C   0  0  0  0  0  0  0  0  0  0  0  0
    7.8180  -15.9728   21.0966 C   0  0  2  0  0  0  0  0  0  0  0  0
    6.4446  -16.3885   20.7778 N   0  0  0  0  0  0  0  0  0  0  0  0
    8.1642  -16.4076   22.4505 C   0  0  0  0  0  0  0  0  0  0  0  0
    7.3274  -16.3519   23.3888 O   0  0  0  0  0  0  0  0  0  0  0  0
    8.4738  -14.7873   18.5574 C   0  0  0  0  0  0  0  0  0  0  0  0
    8.4407  -14.4593   17.2112 C   0  0  0  0  0  0  0  0  0  0  0  0
    9.4656  -16.9069   22.7351 N   0  0  0  0  0  0  0  0  0  0  0  0
    9.9925  -17.1322   24.0540 C   0  0  1  0  0  0  0  0  0  0  0  0
   11.1078  -18.0890   24.1698 C   0  0  0  0  0  0  0  0  0  0  0  0
   11.1475  -19.3096   23.3596 C   0  0  0  0  0  0  0  0  0  0  0  0
   12.3324  -20.1771   23.4813 C   0  0  0  0  0  0  0  0  0  0  0  0
   13.1429  -20.4634   22.5732 O   0  0  0  0  0  0  0  0  0  0  0  0
   10.1740  -15.8768   24.8129 C   0  0  0  0  0  0  0  0  0  0  0  0
   10.9722  -14.9543   24.4727 O   0  0  0  0  0  0  0  0  0  0  0  0
   12.6126  -20.7574   24.7206 O   0  0  0  0  0  0  0  0  0  0  0  0
    8.5395  -12.3741   27.5635 C   0  0  0  0  0  0  0  0  0  0  0  0
    8.4006  -13.6023   26.6748 C   0  0  2  0  0  0  0  0  0  0  0  0
    7.1316  -14.3059   27.0867 C   0  0  0  0  0  0  0  0  0  0  0  0
    9.6105  -14.5120   26.8645 C   0  0  2  0  0  0  0  0  0  0  0  0
    9.4227  -15.6642   25.9970 N   0  0  0  0  0  0  0  0  0  0  0  0
    9.5729  -14.9442   28.2938 C   0  0  0  0  0  0  0  0  0  0  0  0
   10.0465  -14.1491   29.3185 O   0  0  0  0  0  0  0  0  0  0  0  0
    9.0948  -16.0681   28.5741 O   0  0  0  0  0  0  0  0  0  0  0  0
  2  1  1  0
  3  2  2  0
  4  3  1  0
  5 11  1  0
  5  4  2  0
  6  5  1  0
  7  6  1  0
  7  8  1  1
  9  7  1  0
  9 10  2  0
 11 12  2  0
 12  2  1  0
 13  9  1  0
 14 13  1  0
 14 15  1  6
 16 15  1  0
 16 17  1  0
 17 18  2  0
 19 14  1  0
 20 19  2  0
 21 17  1  0
 23 22  1  1
 23 25  1  0
 24 23  1  0
 25 27  1  0
 25 26  1  6
 26 19  1  0
 27 28  1  0
 29 27  2  0
M  END
$$$$
