YEV.pdb
     RDKit          3D

 29 29  0  0  1  0  0  0  0  0999 V2000
    9.1063  -11.4691   20.3729 O   0  0  0  0  0  0  0  0  0  0  0  0
    8.4175  -12.6719   20.1809 C   0  0  0  0  0  0  0  0  0  0  0  0
    8.7907  -13.5204   19.1551 C   0  0  0  0  0  0  0  0  0  0  0  0
    8.1297  -14.7131   18.9424 C   0  0  0  0  0  0  0  0  0  0  0  0
    7.0783  -15.0962   19.7439 C   0  0  0  0  0  0  0  0  0  0  0  0
    6.3518  -16.3961   19.5215 C   0  0  0  0  0  0  0  0  0  0  0  0
    6.9513  -17.4845   20.3924 C   0  0  2  0  0  0  0  0  0  0  0  0
    6.1944  -18.6995   20.0582 N   0  0  0  0  0  0  0  0  0  0  0  0
    6.8215  -17.1991   21.8220 C   0  0  0  0  0  0  0  0  0  0  0  0
    5.6934  -17.1372   22.3762 O   0  0  0  0  0  0  0  0  0  0  0  0
    6.7146  -14.2508   20.7573 C   0  0  0  0  0  0  0  0  0  0  0  0
    7.3691  -13.0501   20.9829 C   0  0  0  0  0  0  0  0  0  0  0  0
    7.9790  -16.9844   22.6207 N   0  0  0  0  0  0  0  0  0  0  0  0
    7.9767  -16.8210   24.0495 C   0  0  1  0  0  0  0  0  0  0  0  0
    8.3591  -17.9957   24.8535 C   0  0  0  0  0  0  0  0  0  0  0  0
    9.7106  -18.5579   24.7803 C   0  0  0  0  0  0  0  0  0  0  0  0
   10.0186  -19.7203   25.6318 C   0  0  0  0  0  0  0  0  0  0  0  0
   10.3570  -19.6938   26.8353 O   0  0  0  0  0  0  0  0  0  0  0  0
    8.6020  -15.5509   24.4748 C   0  0  0  0  0  0  0  0  0  0  0  0
    9.6750  -15.0919   23.9830 O   0  0  0  0  0  0  0  0  0  0  0  0
    9.9354  -20.9987   25.0750 O   0  0  0  0  0  0  0  0  0  0  0  0
    6.4367  -13.3160   27.2594 C   0  0  0  0  0  0  0  0  0  0  0  0
    7.5559  -12.6362   26.4832 C   0  0  2  0  0  0  0  0  0  0  0  0
    6.9435  -12.0712   25.2259 C   0  0  0  0  0  0  0  0  0  0  0  0
    8.6397  -13.6559   26.1471 C   0  0  2  0  0  0  0  0  0  0  0  0
    7.9863  -14.7783   25.4923 N   0  0  0  0  0  0  0  0  0  0  0  0
    9.2044  -14.0948   27.4584 C   0  0  0  0  0  0  0  0  0  0  0  0
   10.1058  -13.3268   28.1686 O   0  0  0  0  0  0  0  0  0  0  0  0
    8.8484  -15.1991   27.9318 O   0  0  0  0  0  0  0  0  0  0  0  0
  2  1  1  0
  3  2  2  0
  4  3  1  0
  5 11  1  0
  5  4  2  0
  6  5  1  0
  7  6  1  0
  7  8  1  1
  9  7  1  0
  9 10  2  0
 11 12  2  0
 12  2  1  0
 13  9  1  0
 14 13  1  0
 14 15  1  1
 16 15  1  0
 16 17  1  0
 17 18  2  0
 19 14  1  0
 20 19  2  0
 21 17  1  0
 23 22  1  1
 23 25  1  0
 24 23  1  0
 25 27  1  0
 25 26  1  1
 26 19  1  0
 27 28  1  0
 29 27  2  0
M  END
$$$$
