YEV.pdb
     RDKit          3D

 29 29  0  0  1  0  0  0  0  0999 V2000
    7.5700  -12.4945   16.0165 O   0  0  0  0  0  0  0  0  0  0  0  0
    7.5505  -13.0866   17.2842 C   0  0  0  0  0  0  0  0  0  0  0  0
    8.2837  -12.5274   18.3143 C   0  0  0  0  0  0  0  0  0  0  0  0
    8.2829  -13.0896   19.5748 C   0  0  0  0  0  0  0  0  0  0  0  0
    7.5530  -14.2243   19.8469 C   0  0  0  0  0  0  0  0  0  0  0  0
    7.5439  -14.8443   21.2189 C   0  0  0  0  0  0  0  0  0  0  0  0
    8.2312  -16.1967   21.1848 C   0  0  2  0  0  0  0  0  0  0  0  0
    7.2651  -17.0986   20.5415 N   0  0  0  0  0  0  0  0  0  0  0  0
    8.5601  -16.6965   22.5205 C   0  0  0  0  0  0  0  0  0  0  0  0
    7.6590  -17.0040   23.3434 O   0  0  0  0  0  0  0  0  0  0  0  0
    6.8296  -14.7722   18.8218 C   0  0  0  0  0  0  0  0  0  0  0  0
    6.8208  -14.2187   17.5512 C   0  0  0  0  0  0  0  0  0  0  0  0
    9.9177  -16.8465   22.9184 N   0  0  0  0  0  0  0  0  0  0  0  0
   10.3554  -17.1946   24.2433 C   0  0  1  0  0  0  0  0  0  0  0  0
   11.4425  -18.1847   24.3455 C   0  0  0  0  0  0  0  0  0  0  0  0
   11.9791  -18.5908   25.6475 C   0  0  0  0  0  0  0  0  0  0  0  0
   13.1312  -19.5094   25.6600 C   0  0  0  0  0  0  0  0  0  0  0  0
   14.2729  -19.2669   26.1086 O   0  0  0  0  0  0  0  0  0  0  0  0
   10.5124  -16.0122   25.1163 C   0  0  0  0  0  0  0  0  0  0  0  0
   11.2870  -15.0433   24.8615 O   0  0  0  0  0  0  0  0  0  0  0  0
   12.9718  -20.7902   25.1257 O   0  0  0  0  0  0  0  0  0  0  0  0
    7.9880  -13.7159   26.0524 C   0  0  0  0  0  0  0  0  0  0  0  0
    8.4785  -14.2187   27.4029 C   0  0  2  0  0  0  0  0  0  0  0  0
    8.5049  -13.0326   28.3344 C   0  0  0  0  0  0  0  0  0  0  0  0
    9.8727  -14.8194   27.2510 C   0  0  2  0  0  0  0  0  0  0  0  0
    9.7634  -15.9297   26.3179 N   0  0  0  0  0  0  0  0  0  0  0  0
   10.2433  -15.3313   28.6044 C   0  0  0  0  0  0  0  0  0  0  0  0
   10.7887  -14.5179   29.5778 O   0  0  0  0  0  0  0  0  0  0  0  0
   10.0534  -16.5418   28.8668 O   0  0  0  0  0  0  0  0  0  0  0  0
  2  1  1  0
  3  2  2  0
  4  3  1  0
  5 11  1  0
  5  4  2  0
  6  5  1  0
  7  6  1  0
  7  8  1  1
  9  7  1  0
  9 10  2  0
 11 12  2  0
 12  2  1  0
 13  9  1  0
 14 13  1  0
 14 15  1  6
 16 15  1  0
 16 17  1  0
 17 18  2  0
 19 14  1  0
 20 19  2  0
 21 17  1  0
 23 22  1  6
 23 25  1  0
 24 23  1  0
 25 27  1  0
 25 26  1  6
 26 19  1  0
 27 28  1  0
 29 27  2  0
M  END
$$$$
