YEV.pdb
     RDKit          3D

 29 29  0  0  1  0  0  0  0  0999 V2000
    7.6322  -12.5095   16.3756 O   0  0  0  0  0  0  0  0  0  0  0  0
    7.7332  -13.0110   17.6780 C   0  0  0  0  0  0  0  0  0  0  0  0
    8.8494  -13.7374   18.0492 C   0  0  0  0  0  0  0  0  0  0  0  0
    8.9761  -14.2438   19.3268 C   0  0  0  0  0  0  0  0  0  0  0  0
    7.9961  -14.0423   20.2720 C   0  0  0  0  0  0  0  0  0  0  0  0
    8.1254  -14.5889   21.6690 C   0  0  0  0  0  0  0  0  0  0  0  0
    8.3224  -16.0927   21.6248 C   0  0  2  0  0  0  0  0  0  0  0  0
    7.0200  -16.6353   21.2123 N   0  0  0  0  0  0  0  0  0  0  0  0
    8.7013  -16.6508   22.9236 C   0  0  0  0  0  0  0  0  0  0  0  0
    7.8678  -16.7475   23.8616 O   0  0  0  0  0  0  0  0  0  0  0  0
    6.8938  -13.3222   19.8970 C   0  0  0  0  0  0  0  0  0  0  0  0
    6.7530  -12.8076   18.6178 C   0  0  0  0  0  0  0  0  0  0  0  0
   10.0315  -17.0998   23.1534 N   0  0  0  0  0  0  0  0  0  0  0  0
   10.5684  -17.4668   24.4360 C   0  0  1  0  0  0  0  0  0  0  0  0
   11.6504  -18.4677   24.4420 C   0  0  0  0  0  0  0  0  0  0  0  0
   12.2268  -18.9545   25.6986 C   0  0  0  0  0  0  0  0  0  0  0  0
   13.3468  -19.9084   25.6170 C   0  0  0  0  0  0  0  0  0  0  0  0
   14.0873  -20.2706   26.5573 O   0  0  0  0  0  0  0  0  0  0  0  0
   10.8049  -16.2958   25.3065 C   0  0  0  0  0  0  0  0  0  0  0  0
   11.5352  -15.3123   24.9852 O   0  0  0  0  0  0  0  0  0  0  0  0
   13.6430  -20.4889   24.3815 O   0  0  0  0  0  0  0  0  0  0  0  0
    8.6788  -13.7817   26.4941 C   0  0  0  0  0  0  0  0  0  0  0  0
    9.1267  -14.4572   27.7828 C   0  0  2  0  0  0  0  0  0  0  0  0
    9.2890  -13.3725   28.8183 C   0  0  0  0  0  0  0  0  0  0  0  0
   10.4471  -15.1846   27.5484 C   0  0  2  0  0  0  0  0  0  0  0  0
   10.1903  -16.2422   26.5836 N   0  0  0  0  0  0  0  0  0  0  0  0
   10.8204  -15.7819   28.8655 C   0  0  0  0  0  0  0  0  0  0  0  0
   10.7158  -17.1352   29.1189 O   0  0  0  0  0  0  0  0  0  0  0  0
   11.2434  -15.0292   29.7737 O   0  0  0  0  0  0  0  0  0  0  0  0
  2  1  1  0
  3  2  2  0
  4  3  1  0
  5 11  1  0
  5  4  2  0
  6  5  1  0
  7  6  1  0
  7  8  1  1
  9  7  1  0
  9 10  2  0
 11 12  2  0
 12  2  1  0
 13  9  1  0
 14 13  1  0
 14 15  1  6
 16 15  1  0
 16 17  1  0
 17 18  2  0
 19 14  1  0
 20 19  2  0
 21 17  1  0
 23 22  1  6
 23 25  1  0
 24 23  1  0
 25 27  1  0
 25 26  1  6
 26 19  1  0
 27 28  1  0
 29 27  2  0
M  END
$$$$
