YEV.pdb
     RDKit          3D

 29 29  0  0  1  0  0  0  0  0999 V2000
    6.9739  -12.4355   26.7478 O   0  0  0  0  0  0  0  0  0  0  0  0
    6.8391  -13.1426   25.5479 C   0  0  0  0  0  0  0  0  0  0  0  0
    6.3520  -14.4364   25.5646 C   0  0  0  0  0  0  0  0  0  0  0  0
    6.2081  -15.1575   24.3967 C   0  0  0  0  0  0  0  0  0  0  0  0
    6.5446  -14.6126   23.1784 C   0  0  0  0  0  0  0  0  0  0  0  0
    6.3896  -15.3900   21.8983 C   0  0  0  0  0  0  0  0  0  0  0  0
    7.7532  -15.7300   21.3261 C   0  0  2  0  0  0  0  0  0  0  0  0
    7.4748  -16.5702   20.1524 N   0  0  0  0  0  0  0  0  0  0  0  0
    8.5948  -16.4649   22.2713 C   0  0  0  0  0  0  0  0  0  0  0  0
    8.2649  -17.6046   22.6908 O   0  0  0  0  0  0  0  0  0  0  0  0
    7.0262  -13.3311   23.1699 C   0  0  0  0  0  0  0  0  0  0  0  0
    7.1760  -12.5950   24.3346 C   0  0  0  0  0  0  0  0  0  0  0  0
    9.8141  -15.9002   22.7386 N   0  0  0  0  0  0  0  0  0  0  0  0
   10.7427  -16.5558   23.6196 C   0  0  1  0  0  0  0  0  0  0  0  0
   11.9615  -17.1126   23.0056 C   0  0  0  0  0  0  0  0  0  0  0  0
   12.9288  -17.8775   23.7978 C   0  0  0  0  0  0  0  0  0  0  0  0
   14.1375  -18.3725   23.1157 C   0  0  0  0  0  0  0  0  0  0  0  0
   15.1712  -18.8175   23.6606 O   0  0  0  0  0  0  0  0  0  0  0  0
   10.9705  -15.7972   24.8676 C   0  0  0  0  0  0  0  0  0  0  0  0
   11.5844  -14.6908   24.9201 O   0  0  0  0  0  0  0  0  0  0  0  0
   14.1706  -18.3599   21.7193 O   0  0  0  0  0  0  0  0  0  0  0  0
    9.7166  -13.6842   27.0141 C   0  0  0  0  0  0  0  0  0  0  0  0
    9.8343  -14.9008   27.9216 C   0  0  2  0  0  0  0  0  0  0  0  0
   10.1828  -14.3941   29.2988 C   0  0  0  0  0  0  0  0  0  0  0  0
   10.9232  -15.8303   27.3946 C   0  0  2  0  0  0  0  0  0  0  0  0
   10.4840  -16.3144   26.0953 N   0  0  0  0  0  0  0  0  0  0  0  0
   10.9892  -16.9669   28.3615 C   0  0  0  0  0  0  0  0  0  0  0  0
   11.7432  -16.9108   29.5169 O   0  0  0  0  0  0  0  0  0  0  0  0
   10.3377  -18.0089   28.1164 O   0  0  0  0  0  0  0  0  0  0  0  0
  2  1  1  0
  3  2  2  0
  4  3  1  0
  5 11  1  0
  5  4  2  0
  6  5  1  0
  7  6  1  0
  7  8  1  6
  9  7  1  0
  9 10  2  0
 11 12  2  0
 12  2  1  0
 13  9  1  0
 14 13  1  0
 14 15  1  6
 16 15  1  0
 16 17  1  0
 17 18  2  0
 19 14  1  0
 20 19  2  0
 21 17  1  0
 23 22  1  6
 23 25  1  0
 24 23  1  0
 25 27  1  0
 25 26  1  6
 26 19  1  0
 27 28  1  0
 29 27  2  0
M  END
$$$$
