GLH.pdb
     RDKit          3D

 23 23  0  0  1  0  0  0  0  0999 V2000
   28.2488  -22.1400  -16.1071 N   0  0  0  0  0  0  0  0  0  0  0  0
   27.7085  -21.0139  -15.4125 C   0  0  0  0  0  0  0  0  0  0  0  0
   26.4067  -21.3533  -14.7333 C   0  0  0  0  0  0  0  0  0  0  0  0
   25.7353  -22.2952  -15.1846 O   0  0  0  0  0  0  0  0  0  0  0  0
   25.8733  -22.3666  -10.6562 C   0  0  0  0  0  0  0  0  0  0  0  0
   26.0068  -20.8876  -10.7929 C   0  0  2  0  0  0  0  0  0  0  0  0
   26.1317  -20.2973   -9.3866 C   0  0  0  0  0  0  0  0  0  0  0  0
   24.8261  -20.2378  -11.4835 C   0  0  0  0  0  0  0  0  0  0  0  0
   24.7644  -20.7003  -12.8920 C   0  0  2  0  0  0  0  0  0  0  0  0
   25.9832  -20.6033  -13.6130 N   0  0  0  0  0  0  0  0  0  0  0  0
   23.5482  -20.2249  -13.6393 C   0  0  0  0  0  0  0  0  0  0  0  0
   23.4673  -19.0479  -14.0662 O   0  0  0  0  0  0  0  0  0  0  0  0
   22.4556  -21.0815  -13.8890 N   0  0  0  0  0  0  0  0  0  0  0  0
   21.2518  -20.6638  -14.6221 C   0  0  1  0  0  0  0  0  0  0  0  0
   20.8890  -21.7697  -15.5292 C   0  0  0  0  0  0  0  0  0  0  0  0
   21.6510  -21.8540  -16.7836 C   0  0  0  0  0  0  0  0  0  0  0  0
   22.6243  -21.0514  -17.3059 C   0  0  0  0  0  0  0  0  0  0  0  0
   23.0395  -21.6127  -18.4581 N   0  0  0  0  0  0  0  0  0  0  0  0
   22.3385  -22.7295  -18.6332 C   0  0  0  0  0  0  0  0  0  0  0  0
   21.4867  -22.9018  -17.6303 N   0  0  0  0  0  0  0  0  0  0  0  0
   20.2276  -20.3838  -13.5683 C   0  0  0  0  0  0  0  0  0  0  0  0
   19.0224  -19.7947  -13.9462 O   0  0  0  0  0  0  0  0  0  0  0  0
   20.3888  -20.6491  -12.3769 O   0  0  0  0  0  0  0  0  0  0  0  0
  1  2  1  0
  3  2  1  0
  3  4  2  0
  6  5  1  1
  6  8  1  0
  7  6  1  0
  9  8  1  1
  9 10  1  0
 10  3  1  0
 11  9  1  0
 11 12  2  0
 13 11  1  0
 14 13  1  0
 14 15  1  6
 14 21  1  0
 16 17  2  0
 16 15  1  0
 18 17  1  0
 19 20  2  0
 19 18  1  0
 20 16  1  0
 21 22  1  0
 23 21  2  0
M  END
$$$$
