GLH.pdb
     RDKit          3D

 23 23  0  0  1  0  0  0  0  0999 V2000
   25.8038  -15.6453  -21.6516 N   0  0  0  0  0  0  0  0  0  0  0  0
   25.8220  -14.3138  -21.1328 C   0  0  0  0  0  0  0  0  0  0  0  0
   24.8341  -14.1432  -20.0076 C   0  0  0  0  0  0  0  0  0  0  0  0
   23.6236  -14.2369  -20.2676 O   0  0  0  0  0  0  0  0  0  0  0  0
   24.8851  -16.3183  -16.3263 C   0  0  0  0  0  0  0  0  0  0  0  0
   25.8780  -15.2065  -16.2815 C   0  0  2  0  0  0  0  0  0  0  0  0
   26.7199  -15.3820  -15.0157 C   0  0  0  0  0  0  0  0  0  0  0  0
   25.2421  -13.8325  -16.2488 C   0  0  0  0  0  0  0  0  0  0  0  0
   24.5451  -13.5823  -17.5345 C   0  0  2  0  0  0  0  0  0  0  0  0
   25.2992  -13.8840  -18.6986 N   0  0  0  0  0  0  0  0  0  0  0  0
   23.8026  -12.2746  -17.5835 C   0  0  0  0  0  0  0  0  0  0  0  0
   24.4057  -11.1925  -17.7818 O   0  0  0  0  0  0  0  0  0  0  0  0
   22.4039  -12.2148  -17.4099 N   0  0  0  0  0  0  0  0  0  0  0  0
   21.6303  -10.9682  -17.5024 C   0  0  1  0  0  0  0  0  0  0  0  0
   20.8438  -11.0356  -18.7491 C   0  0  0  0  0  0  0  0  0  0  0  0
   19.8927   -9.9373  -18.9743 C   0  0  0  0  0  0  0  0  0  0  0  0
   18.9879   -9.3404  -18.1440 C   0  0  0  0  0  0  0  0  0  0  0  0
   18.4079   -8.3359  -18.8292 N   0  0  0  0  0  0  0  0  0  0  0  0
   18.9460   -8.3198  -20.0456 C   0  0  0  0  0  0  0  0  0  0  0  0
   19.8522   -9.2823  -20.1621 N   0  0  0  0  0  0  0  0  0  0  0  0
   20.7962  -10.9305  -16.2612 C   0  0  0  0  0  0  0  0  0  0  0  0
   20.2844   -9.7061  -15.8358 O   0  0  0  0  0  0  0  0  0  0  0  0
   20.5314  -11.9283  -15.5902 O   0  0  0  0  0  0  0  0  0  0  0  0
  1  2  1  0
  3  2  1  0
  3  4  2  0
  6  5  1  1
  6  8  1  0
  7  6  1  0
  9  8  1  1
  9 10  1  0
 10  3  1  0
 11  9  1  0
 11 12  2  0
 13 11  1  0
 14 13  1  0
 14 15  1  6
 14 21  1  0
 16 17  2  0
 16 15  1  0
 18 17  1  0
 19 20  2  0
 19 18  1  0
 20 16  1  0
 21 22  1  0
 23 21  2  0
M  END
$$$$
