GLH.pdb
     RDKit          3D

 23 23  0  0  1  0  0  0  0  0999 V2000
   27.7474  -23.7376  -16.0425 N   0  0  0  0  0  0  0  0  0  0  0  0
   27.1862  -22.9536  -17.0974 C   0  0  0  0  0  0  0  0  0  0  0  0
   26.3355  -21.8308  -16.5621 C   0  0  0  0  0  0  0  0  0  0  0  0
   25.6120  -22.0576  -15.5788 O   0  0  0  0  0  0  0  0  0  0  0  0
   27.8774  -17.9880  -15.2320 C   0  0  0  0  0  0  0  0  0  0  0  0
   27.7540  -18.1395  -16.7104 C   0  0  2  0  0  0  0  0  0  0  0  0
   28.5143  -16.9834  -17.3640 C   0  0  0  0  0  0  0  0  0  0  0  0
   26.3217  -18.1109  -17.2011 C   0  0  0  0  0  0  0  0  0  0  0  0
   25.6542  -19.3874  -16.8452 C   0  0  2  0  0  0  0  0  0  0  0  0
   26.3781  -20.5612  -17.1812 N   0  0  0  0  0  0  0  0  0  0  0  0
   24.1897  -19.4281  -17.1874 C   0  0  0  0  0  0  0  0  0  0  0  0
   23.7960  -19.8274  -18.3098 O   0  0  0  0  0  0  0  0  0  0  0  0
   23.2055  -19.0211  -16.2623 N   0  0  0  0  0  0  0  0  0  0  0  0
   21.7627  -19.0840  -16.5368 C   0  0  1  0  0  0  0  0  0  0  0  0
   21.0876  -19.3644  -15.2550 C   0  0  0  0  0  0  0  0  0  0  0  0
   21.1150  -20.7627  -14.8017 C   0  0  0  0  0  0  0  0  0  0  0  0
   21.6947  -21.8761  -15.3389 C   0  0  0  0  0  0  0  0  0  0  0  0
   21.4731  -22.8994  -14.4911 N   0  0  0  0  0  0  0  0  0  0  0  0
   20.7774  -22.4221  -13.4628 C   0  0  0  0  0  0  0  0  0  0  0  0
   20.5455  -21.1255  -13.6245 N   0  0  0  0  0  0  0  0  0  0  0  0
   21.4165  -17.7529  -17.1253 C   0  0  0  0  0  0  0  0  0  0  0  0
   20.2342  -17.6299  -17.8528 O   0  0  0  0  0  0  0  0  0  0  0  0
   22.1209  -16.7509  -16.9999 O   0  0  0  0  0  0  0  0  0  0  0  0
  1  2  1  0
  3  2  1  0
  3  4  2  0
  6  5  1  1
  6  8  1  0
  7  6  1  0
  9  8  1  6
  9 10  1  0
 10  3  1  0
 11  9  1  0
 11 12  2  0
 13 11  1  0
 14 13  1  0
 14 15  1  1
 14 21  1  0
 16 17  2  0
 16 15  1  0
 18 17  1  0
 19 20  2  0
 19 18  1  0
 20 16  1  0
 21 22  1  0
 23 21  2  0
M  END
$$$$
