GLH.pdb
     RDKit          3D

 23 23  0  0  1  0  0  0  0  0999 V2000
   16.3472  -21.4095    0.3956 N   0  0  0  0  0  0  0  0  0  0  0  0
   16.2165  -20.0206    0.7061 C   0  0  0  0  0  0  0  0  0  0  0  0
   17.1370  -19.6139    1.8278 C   0  0  0  0  0  0  0  0  0  0  0  0
   17.6642  -20.5073    2.5101 O   0  0  0  0  0  0  0  0  0  0  0  0
   20.9396  -17.5009    1.9815 C   0  0  0  0  0  0  0  0  0  0  0  0
   19.7835  -16.6364    1.6076 C   0  0  2  0  0  0  0  0  0  0  0  0
   20.3390  -15.2911    1.1350 C   0  0  0  0  0  0  0  0  0  0  0  0
   18.8248  -16.3847    2.7525 C   0  0  0  0  0  0  0  0  0  0  0  0
   18.1461  -17.6538    3.1138 C   0  0  2  0  0  0  0  0  0  0  0  0
   17.3777  -18.2438    2.0764 N   0  0  0  0  0  0  0  0  0  0  0  0
   17.4756  -17.6270    4.4604 C   0  0  0  0  0  0  0  0  0  0  0  0
   16.2987  -17.2126    4.5916 O   0  0  0  0  0  0  0  0  0  0  0  0
   18.1417  -18.0663    5.6237 N   0  0  0  0  0  0  0  0  0  0  0  0
   17.5135  -18.0962    6.9525 C   0  0  1  0  0  0  0  0  0  0  0  0
   18.3074  -19.0172    7.7886 C   0  0  0  0  0  0  0  0  0  0  0  0
   17.8067  -19.2482    9.1514 C   0  0  0  0  0  0  0  0  0  0  0  0
   16.6103  -18.9494    9.7378 C   0  0  0  0  0  0  0  0  0  0  0  0
   16.6402  -19.4358   10.9938 N   0  0  0  0  0  0  0  0  0  0  0  0
   17.8237  -20.0172   11.1685 C   0  0  0  0  0  0  0  0  0  0  0  0
   18.5537  -19.9188   10.0646 N   0  0  0  0  0  0  0  0  0  0  0  0
   17.5324  -16.6779    7.4278 C   0  0  0  0  0  0  0  0  0  0  0  0
   16.5327  -16.2511    8.3000 O   0  0  0  0  0  0  0  0  0  0  0  0
   18.3894  -15.8603    7.0919 O   0  0  0  0  0  0  0  0  0  0  0  0
  1  2  1  0
  3  2  1  0
  3  4  2  0
  6  5  1  1
  6  8  1  0
  7  6  1  0
  9  8  1  6
  9 10  1  0
 10  3  1  0
 11  9  1  0
 11 12  2  0
 13 11  1  0
 14 13  1  0
 14 15  1  1
 14 21  1  0
 16 17  2  0
 16 15  1  0
 18 17  1  0
 19 20  2  0
 19 18  1  0
 20 16  1  0
 21 22  1  0
 23 21  2  0
M  END
$$$$
