GLH.pdb
     RDKit          3D

 23 23  0  0  1  0  0  0  0  0999 V2000
   15.2811  -12.1832    4.1221 N   0  0  0  0  0  0  0  0  0  0  0  0
   16.0496  -11.7632    5.2516 C   0  0  0  0  0  0  0  0  0  0  0  0
   17.1637  -12.7314    5.5556 C   0  0  0  0  0  0  0  0  0  0  0  0
   17.2544  -13.7600    4.8660 O   0  0  0  0  0  0  0  0  0  0  0  0
   21.4708  -11.5783    6.0273 C   0  0  0  0  0  0  0  0  0  0  0  0
   20.6233  -11.2795    7.2175 C   0  0  2  0  0  0  0  0  0  0  0  0
   21.4654  -10.4591    8.1971 C   0  0  0  0  0  0  0  0  0  0  0  0
   20.1287  -12.5202    7.9311 C   0  0  0  0  0  0  0  0  0  0  0  0
   19.1615  -13.2349    7.0620 C   0  0  2  0  0  0  0  0  0  0  0  0
   18.0691  -12.4527    6.6042 N   0  0  0  0  0  0  0  0  0  0  0  0
   18.7931  -14.6074    7.5564 C   0  0  0  0  0  0  0  0  0  0  0  0
   17.8337  -14.7770    8.3467 O   0  0  0  0  0  0  0  0  0  0  0  0
   19.5094  -15.7530    7.1508 N   0  0  0  0  0  0  0  0  0  0  0  0
   19.1418  -17.1194    7.5496 C   0  0  1  0  0  0  0  0  0  0  0  0
   19.0367  -17.9199    6.3145 C   0  0  0  0  0  0  0  0  0  0  0  0
   17.7385  -17.8792    5.6257 C   0  0  0  0  0  0  0  0  0  0  0  0
   16.5940  -17.1845    5.8940 C   0  0  0  0  0  0  0  0  0  0  0  0
   15.7130  -17.4570    4.9119 N   0  0  0  0  0  0  0  0  0  0  0  0
   16.3053  -18.2953    4.0658 C   0  0  0  0  0  0  0  0  0  0  0  0
   17.5378  -18.5692    4.4744 N   0  0  0  0  0  0  0  0  0  0  0  0
   20.2328  -17.5667    8.4703 C   0  0  0  0  0  0  0  0  0  0  0  0
   20.0579  -18.7461    9.1919 O   0  0  0  0  0  0  0  0  0  0  0  0
   21.2862  -16.9487    8.6259 O   0  0  0  0  0  0  0  0  0  0  0  0
  1  2  1  0
  3  2  1  0
  3  4  2  0
  6  5  1  6
  6  8  1  0
  7  6  1  0
  9  8  1  1
  9 10  1  0
 10  3  1  0
 11  9  1  0
 11 12  2  0
 13 11  1  0
 14 13  1  0
 14 15  1  6
 14 21  1  0
 16 17  2  0
 16 15  1  0
 18 17  1  0
 19 20  2  0
 19 18  1  0
 20 16  1  0
 21 22  1  0
 23 21  2  0
M  END
$$$$
