GLH.pdb
     RDKit          3D

 23 23  0  0  1  0  0  0  0  0999 V2000
   33.7154  -32.5869    0.8548 N   0  0  0  0  0  0  0  0  0  0  0  0
   32.7353  -31.8510    1.5900 C   0  0  0  0  0  0  0  0  0  0  0  0
   31.5370  -32.7020    1.9231 C   0  0  0  0  0  0  0  0  0  0  0  0
   31.5314  -33.8847    1.5448 O   0  0  0  0  0  0  0  0  0  0  0  0
   29.9139  -34.6235    5.3092 C   0  0  0  0  0  0  0  0  0  0  0  0
   29.8658  -33.1339    5.3581 C   0  0  2  0  0  0  0  0  0  0  0  0
   29.5326  -32.7236    6.7943 C   0  0  0  0  0  0  0  0  0  0  0  0
   28.8267  -32.5343    4.4340 C   0  0  0  0  0  0  0  0  0  0  0  0
   29.2355  -32.7556    3.0248 C   0  0  2  0  0  0  0  0  0  0  0  0
   30.4601  -32.1446    2.6486 N   0  0  0  0  0  0  0  0  0  0  0  0
   28.1172  -32.5950    2.0311 C   0  0  0  0  0  0  0  0  0  0  0  0
   27.8194  -31.4689    1.5651 O   0  0  0  0  0  0  0  0  0  0  0  0
   27.3633  -33.7010    1.5856 N   0  0  0  0  0  0  0  0  0  0  0  0
   26.2825  -33.5962    0.5947 C   0  0  1  0  0  0  0  0  0  0  0  0
   26.4890  -34.6754   -0.3903 C   0  0  0  0  0  0  0  0  0  0  0  0
   27.3864  -34.3641   -1.5124 C   0  0  0  0  0  0  0  0  0  0  0  0
   27.5376  -33.2331   -2.2623 C   0  0  0  0  0  0  0  0  0  0  0  0
   28.5473  -33.4505   -3.1273 N   0  0  0  0  0  0  0  0  0  0  0  0
   29.0011  -34.6818   -2.9096 C   0  0  0  0  0  0  0  0  0  0  0  0
   28.3141  -35.2609   -1.9330 N   0  0  0  0  0  0  0  0  0  0  0  0
   25.0158  -33.7269    1.3798 C   0  0  0  0  0  0  0  0  0  0  0  0
   23.8691  -33.0884    0.9111 O   0  0  0  0  0  0  0  0  0  0  0  0
   24.9272  -34.3741    2.4234 O   0  0  0  0  0  0  0  0  0  0  0  0
  1  2  1  0
  3  2  1  0
  3  4  2  0
  6  5  1  1
  6  8  1  0
  7  6  1  0
  9  8  1  1
  9 10  1  0
 10  3  1  0
 11  9  1  0
 11 12  2  0
 13 11  1  0
 14 13  1  0
 14 15  1  6
 14 21  1  0
 16 17  2  0
 16 15  1  0
 18 17  1  0
 19 20  2  0
 19 18  1  0
 20 16  1  0
 21 22  1  0
 23 21  2  0
M  END
$$$$
