GLH.pdb
     RDKit          3D

 23 23  0  0  1  0  0  0  0  0999 V2000
   24.8134  -13.2808  -20.7522 N   0  0  0  0  0  0  0  0  0  0  0  0
   24.5808  -11.8708  -20.7770 C   0  0  0  0  0  0  0  0  0  0  0  0
   24.0353  -11.3753  -19.4625 C   0  0  0  0  0  0  0  0  0  0  0  0
   22.9716  -11.8617  -19.0456 O   0  0  0  0  0  0  0  0  0  0  0  0
   25.4788  -11.7633  -15.5695 C   0  0  0  0  0  0  0  0  0  0  0  0
   26.2635  -10.7521  -16.3349 C   0  0  2  0  0  0  0  0  0  0  0  0
   27.5124  -10.4134  -15.5181 C   0  0  0  0  0  0  0  0  0  0  0  0
   25.4999   -9.4713  -16.5985 C   0  0  0  0  0  0  0  0  0  0  0  0
   24.3734   -9.7515  -17.5227 C   0  0  2  0  0  0  0  0  0  0  0  0
   24.7354  -10.3816  -18.7420 N   0  0  0  0  0  0  0  0  0  0  0  0
   23.4003   -8.6127  -17.6640 C   0  0  0  0  0  0  0  0  0  0  0  0
   23.6256   -7.6597  -18.4483 O   0  0  0  0  0  0  0  0  0  0  0  0
   22.2005   -8.5729  -16.9232 N   0  0  0  0  0  0  0  0  0  0  0  0
   21.2412   -7.4614  -16.9972 C   0  0  1  0  0  0  0  0  0  0  0  0
   19.8904   -8.0541  -17.0350 C   0  0  0  0  0  0  0  0  0  0  0  0
   19.4453   -8.5672  -18.3389 C   0  0  0  0  0  0  0  0  0  0  0  0
   19.6825   -8.1311  -19.6109 C   0  0  0  0  0  0  0  0  0  0  0  0
   19.0916   -8.9988  -20.4553 N   0  0  0  0  0  0  0  0  0  0  0  0
   18.5102   -9.9404  -19.7173 C   0  0  0  0  0  0  0  0  0  0  0  0
   18.7091   -9.7038  -18.4267 N   0  0  0  0  0  0  0  0  0  0  0  0
   21.5054   -6.6331  -15.7798 C   0  0  0  0  0  0  0  0  0  0  0  0
   20.8019   -5.4412  -15.6158 O   0  0  0  0  0  0  0  0  0  0  0  0
   22.3133   -6.9484  -14.9059 O   0  0  0  0  0  0  0  0  0  0  0  0
  1  2  1  0
  3  2  1  0
  3  4  2  0
  6  5  1  1
  6  8  1  0
  7  6  1  0
  9  8  1  6
  9 10  1  0
 10  3  1  0
 11  9  1  0
 11 12  2  0
 13 11  1  0
 14 13  1  0
 14 15  1  1
 14 21  1  0
 16 17  2  0
 16 15  1  0
 18 17  1  0
 19 20  2  0
 19 18  1  0
 20 16  1  0
 21 22  1  0
 23 21  2  0
M  END
$$$$
