GLH.pdb
     RDKit          3D

 23 23  0  0  1  0  0  0  0  0999 V2000
   28.8433  -19.6376  -16.9574 N   0  0  0  0  0  0  0  0  0  0  0  0
   28.2896  -19.0774  -15.7649 C   0  0  0  0  0  0  0  0  0  0  0  0
   27.3954  -20.0601  -15.0537 C   0  0  0  0  0  0  0  0  0  0  0  0
   26.6861  -20.8139  -15.7395 O   0  0  0  0  0  0  0  0  0  0  0  0
   28.3653  -21.7143   -9.7528 C   0  0  0  0  0  0  0  0  0  0  0  0
   27.9390  -21.5560  -11.1730 C   0  0  2  0  0  0  0  0  0  0  0  0
   29.1112  -20.9505  -11.9484 C   0  0  0  0  0  0  0  0  0  0  0  0
   26.7339  -20.6549  -11.3431 C   0  0  0  0  0  0  0  0  0  0  0  0
   26.3663  -20.5909  -12.7792 C   0  0  2  0  0  0  0  0  0  0  0  0
   27.3827  -20.1026  -13.6412 N   0  0  0  0  0  0  0  0  0  0  0  0
   24.9952  -20.0265  -13.0351 C   0  0  0  0  0  0  0  0  0  0  0  0
   24.7058  -18.8504  -12.7080 O   0  0  0  0  0  0  0  0  0  0  0  0
   23.9857  -20.7951  -13.6516 N   0  0  0  0  0  0  0  0  0  0  0  0
   22.6658  -20.2567  -14.0113 C   0  0  1  0  0  0  0  0  0  0  0  0
   22.3599  -20.7297  -15.3751 C   0  0  0  0  0  0  0  0  0  0  0  0
   20.9992  -20.4612  -15.8630 C   0  0  0  0  0  0  0  0  0  0  0  0
   19.8046  -21.0618  -15.5861 C   0  0  0  0  0  0  0  0  0  0  0  0
   18.8465  -20.3877  -16.2515 N   0  0  0  0  0  0  0  0  0  0  0  0
   19.4414  -19.4008  -16.9160 C   0  0  0  0  0  0  0  0  0  0  0  0
   20.7502  -19.4210  -16.6981 N   0  0  0  0  0  0  0  0  0  0  0  0
   21.7311  -20.7773  -12.9657 C   0  0  0  0  0  0  0  0  0  0  0  0
   22.0961  -21.9153  -12.2486 O   0  0  0  0  0  0  0  0  0  0  0  0
   20.6504  -20.2517  -12.6982 O   0  0  0  0  0  0  0  0  0  0  0  0
  1  2  1  0
  3  2  1  0
  3  4  2  0
  6  5  1  1
  6  8  1  0
  7  6  1  0
  9  8  1  1
  9 10  1  0
 10  3  1  0
 11  9  1  0
 11 12  2  0
 13 11  1  0
 14 13  1  0
 14 15  1  6
 14 21  1  0
 16 17  2  0
 16 15  1  0
 18 17  1  0
 19 20  2  0
 19 18  1  0
 20 16  1  0
 21 22  1  0
 23 21  2  0
M  END
$$$$
