GLH.pdb
     RDKit          3D

 23 23  0  0  1  0  0  0  0  0999 V2000
   27.7891  -21.7543  -15.6982 N   0  0  0  0  0  0  0  0  0  0  0  0
   26.7707  -20.7530  -15.7525 C   0  0  0  0  0  0  0  0  0  0  0  0
   25.5149  -21.2003  -15.0496 C   0  0  0  0  0  0  0  0  0  0  0  0
   24.8786  -22.1523  -15.5300 O   0  0  0  0  0  0  0  0  0  0  0  0
   25.5845  -22.5832  -11.2551 C   0  0  0  0  0  0  0  0  0  0  0  0
   25.5071  -21.0984  -11.1395 C   0  0  2  0  0  0  0  0  0  0  0  0
   25.7079  -20.7329   -9.6671 C   0  0  0  0  0  0  0  0  0  0  0  0
   24.1825  -20.5269  -11.6000 C   0  0  0  0  0  0  0  0  0  0  0  0
   23.9869  -20.8356  -13.0381 C   0  0  2  0  0  0  0  0  0  0  0  0
   25.0934  -20.5367  -13.8754 N   0  0  0  0  0  0  0  0  0  0  0  0
   22.6503  -20.4066  -13.5795 C   0  0  0  0  0  0  0  0  0  0  0  0
   22.3426  -19.1932  -13.6631 O   0  0  0  0  0  0  0  0  0  0  0  0
   21.6947  -21.3492  -14.0136 N   0  0  0  0  0  0  0  0  0  0  0  0
   20.3876  -20.9760  -14.5735 C   0  0  1  0  0  0  0  0  0  0  0  0
   20.1580  -21.8339  -15.7520 C   0  0  0  0  0  0  0  0  0  0  0  0
   18.8585  -21.6788  -16.4218 C   0  0  0  0  0  0  0  0  0  0  0  0
   18.2074  -20.5724  -16.8868 C   0  0  0  0  0  0  0  0  0  0  0  0
   17.0701  -20.9879  -17.4777 N   0  0  0  0  0  0  0  0  0  0  0  0
   17.0295  -22.3136  -17.3768 C   0  0  0  0  0  0  0  0  0  0  0  0
   18.1041  -22.7612  -16.7396 N   0  0  0  0  0  0  0  0  0  0  0  0
   19.4081  -21.1957  -13.4643 C   0  0  0  0  0  0  0  0  0  0  0  0
   18.2270  -20.4560  -13.4583 O   0  0  0  0  0  0  0  0  0  0  0  0
   19.5861  -22.0015  -12.5507 O   0  0  0  0  0  0  0  0  0  0  0  0
  1  2  1  0
  3  2  1  0
  3  4  2  0
  6  5  1  1
  6  8  1  0
  7  6  1  0
  9  8  1  1
  9 10  1  0
 10  3  1  0
 11  9  1  0
 11 12  2  0
 13 11  1  0
 14 13  1  0
 14 15  1  6
 14 21  1  0
 16 17  2  0
 16 15  1  0
 18 17  1  0
 19 20  2  0
 19 18  1  0
 20 16  1  0
 21 22  1  0
 23 21  2  0
M  END
$$$$
