FIC.pdb
     RDKit          3D

 26 26  0  0  1  0  0  0  0  0999 V2000
   21.9589   -6.6527  -15.8379 N   0  0  0  0  0  0  0  0  0  0  0  0
   20.9500   -7.0519  -14.8851 C   0  0  1  0  0  0  0  0  0  0  0  0
   21.5837   -7.6796  -13.6462 C   0  0  0  0  0  0  0  0  0  0  0  0
   22.0897   -9.0345  -13.9003 C   0  0  0  0  0  0  0  0  0  0  0  0
   21.2200  -10.0893  -13.8927 C   0  0  0  0  0  0  0  0  0  0  0  0
   21.7341  -11.3487  -14.1361 C   0  0  0  0  0  0  0  0  0  0  0  0
   23.0798  -11.5283  -14.3775 C   0  0  0  0  0  0  0  0  0  0  0  0
   23.9147  -10.4462  -14.3759 C   0  0  0  0  0  0  0  0  0  0  0  0
   23.4520   -9.1813  -14.1403 C   0  0  0  0  0  0  0  0  0  0  0  0
   20.2059   -5.8684  -14.4380 C   0  0  0  0  0  0  0  0  0  0  0  0
   20.7684   -4.7303  -14.4708 O   0  0  0  0  0  0  0  0  0  0  0  0
   15.7108   -2.8049  -15.8935 C   0  0  0  0  0  0  0  0  0  0  0  0
   16.4182   -3.2062  -14.6309 C   0  0  0  0  0  0  0  0  0  0  0  0
   17.3741   -4.3443  -14.8456 C   0  0  2  0  0  0  0  0  0  0  0  0
   16.6414   -5.4973  -15.4745 C   0  0  0  0  0  0  0  0  0  0  0  0
   18.0912   -4.7760  -13.6047 C   0  0  2  0  0  0  0  0  0  0  0  0
   18.8950   -5.9516  -13.9758 N   0  0  0  0  0  0  0  0  0  0  0  0
   17.1812   -5.1510  -12.5055 C   0  0  0  0  0  0  0  0  0  0  0  0
   16.6816   -6.3032  -12.4749 O   0  0  0  0  0  0  0  0  0  0  0  0
   16.8089   -4.2928  -11.4435 N   0  0  0  0  0  0  0  0  0  0  0  0
   16.0382   -4.7464  -10.3571 C   0  0  1  0  0  0  0  0  0  0  0  0
   16.7152   -5.6153   -9.3513 C   0  0  0  0  0  0  0  0  0  0  0  0
   15.4723   -6.1346   -8.1173 S   0  0  0  0  0  0  0  0  0  0  0  0
   15.3963   -3.6209   -9.5842 C   0  0  0  0  0  0  0  0  0  0  0  0
   14.3863   -3.9409   -8.6851 O   0  0  0  0  0  0  0  0  0  0  0  0
   15.7506   -2.4429   -9.7381 O   0  0  0  0  0  0  0  0  0  0  0  0
  2  1  1  6
  3  2  1  0
  4  3  1  0
  5  4  2  0
  6  5  1  0
  7  6  2  0
  7  8  1  0
  8  9  2  0
  9  4  1  0
 10  2  1  0
 10 17  1  0
 11 10  2  0
 13 12  1  0
 14 16  1  0
 14 13  1  0
 14 15  1  1
 16 17  1  6
 18 16  1  0
 19 18  2  0
 20 18  1  0
 21 22  1  1
 21 20  1  0
 22 23  1  0
 24 25  1  0
 24 21  1  0
 26 24  2  0
M  END
$$$$
