FIC.pdb
     RDKit          3D

 26 26  0  0  1  0  0  0  0  0999 V2000
   28.7626  -20.6717  -16.4908 N   0  0  0  0  0  0  0  0  0  0  0  0
   27.8729  -19.8533  -15.7011 C   0  0  1  0  0  0  0  0  0  0  0  0
   26.9644  -19.0121  -16.5940 C   0  0  0  0  0  0  0  0  0  0  0  0
   27.6820  -17.9069  -17.2422 C   0  0  0  0  0  0  0  0  0  0  0  0
   27.7998  -17.8890  -18.6042 C   0  0  0  0  0  0  0  0  0  0  0  0
   28.4822  -16.8326  -19.1769 C   0  0  0  0  0  0  0  0  0  0  0  0
   29.0234  -15.8337  -18.3953 C   0  0  0  0  0  0  0  0  0  0  0  0
   28.8825  -15.8904  -17.0370 C   0  0  0  0  0  0  0  0  0  0  0  0
   28.2160  -16.9156  -16.4253 C   0  0  0  0  0  0  0  0  0  0  0  0
   27.0049  -20.7171  -14.8920 C   0  0  0  0  0  0  0  0  0  0  0  0
   26.7705  -21.9032  -15.2804 O   0  0  0  0  0  0  0  0  0  0  0  0
   25.7020  -20.9843   -8.9404 C   0  0  0  0  0  0  0  0  0  0  0  0
   25.2880  -21.4229  -10.3159 C   0  0  0  0  0  0  0  0  0  0  0  0
   26.0545  -20.7180  -11.3979 C   0  0  2  0  0  0  0  0  0  0  0  0
   25.8767  -19.2323  -11.2462 C   0  0  0  0  0  0  0  0  0  0  0  0
   25.6982  -21.1632  -12.7818 C   0  0  2  0  0  0  0  0  0  0  0  0
   26.4255  -20.2772  -13.7046 N   0  0  0  0  0  0  0  0  0  0  0  0
   24.2546  -21.0684  -13.0716 C   0  0  0  0  0  0  0  0  0  0  0  0
   23.7584  -19.9666  -13.4154 O   0  0  0  0  0  0  0  0  0  0  0  0
   23.3471  -22.1516  -12.9927 N   0  0  0  0  0  0  0  0  0  0  0  0
   22.0025  -22.0245  -13.3873 C   0  0  1  0  0  0  0  0  0  0  0  0
   21.3318  -23.2375  -13.9385 C   0  0  0  0  0  0  0  0  0  0  0  0
   19.6083  -22.7972  -14.3542 S   0  0  0  0  0  0  0  0  0  0  0  0
   21.1137  -21.5121  -12.2811 C   0  0  0  0  0  0  0  0  0  0  0  0
   19.8474  -21.0527  -12.6226 O   0  0  0  0  0  0  0  0  0  0  0  0
   21.4904  -21.4966  -11.1001 O   0  0  0  0  0  0  0  0  0  0  0  0
  2  1  1  6
  3  2  1  0
  4  3  1  0
  5  4  2  0
  6  5  1  0
  7  6  2  0
  7  8  1  0
  8  9  2  0
  9  4  1  0
 10  2  1  0
 10 17  1  0
 11 10  2  0
 13 12  1  0
 14 16  1  0
 14 13  1  0
 14 15  1  6
 16 17  1  6
 18 16  1  0
 19 18  2  0
 20 18  1  0
 21 22  1  1
 21 20  1  0
 22 23  1  0
 24 25  1  0
 24 21  1  0
 26 24  2  0
M  END
$$$$
