FIC.pdb
     RDKit          3D

 26 26  0  0  1  0  0  0  0  0999 V2000
   27.0977  -17.2403  -17.2999 N   0  0  0  0  0  0  0  0  0  0  0  0
   26.5967  -17.1059  -15.9523 C   0  0  1  0  0  0  0  0  0  0  0  0
   25.5606  -15.9884  -15.8616 C   0  0  0  0  0  0  0  0  0  0  0  0
   26.1497  -14.6591  -16.0670 C   0  0  0  0  0  0  0  0  0  0  0  0
   25.8979  -13.9845  -17.2292 C   0  0  0  0  0  0  0  0  0  0  0  0
   26.4700  -12.7363  -17.3854 C   0  0  0  0  0  0  0  0  0  0  0  0
   27.2669  -12.1956  -16.3985 C   0  0  0  0  0  0  0  0  0  0  0  0
   27.4930  -12.9039  -15.2517 C   0  0  0  0  0  0  0  0  0  0  0  0
   26.9485  -14.1422  -15.0523 C   0  0  0  0  0  0  0  0  0  0  0  0
   25.9273  -18.3500  -15.5543 C   0  0  0  0  0  0  0  0  0  0  0  0
   25.5424  -19.1638  -16.4500 O   0  0  0  0  0  0  0  0  0  0  0  0
   26.4325  -22.1332  -10.8731 C   0  0  0  0  0  0  0  0  0  0  0  0
   25.5333  -21.6914  -11.9919 C   0  0  0  0  0  0  0  0  0  0  0  0
   25.9617  -20.3820  -12.5895 C   0  0  2  0  0  0  0  0  0  0  0  0
   25.9431  -19.3197  -11.5250 C   0  0  0  0  0  0  0  0  0  0  0  0
   25.1540  -19.9651  -13.7787 C   0  0  2  0  0  0  0  0  0  0  0  0
   25.6983  -18.6705  -14.2188 N   0  0  0  0  0  0  0  0  0  0  0  0
   23.7186  -19.7997  -13.4801 C   0  0  0  0  0  0  0  0  0  0  0  0
   23.3298  -18.8059  -12.8173 O   0  0  0  0  0  0  0  0  0  0  0  0
   22.7046  -20.6974  -13.8912 N   0  0  0  0  0  0  0  0  0  0  0  0
   21.3528  -20.4947  -13.5569 C   0  0  1  0  0  0  0  0  0  0  0  0
   20.4468  -20.0002  -14.6337 C   0  0  0  0  0  0  0  0  0  0  0  0
   18.7683  -19.8293  -13.9331 S   0  0  0  0  0  0  0  0  0  0  0  0
   20.7001  -21.7286  -12.9845 C   0  0  0  0  0  0  0  0  0  0  0  0
   19.5219  -21.5683  -12.2653 O   0  0  0  0  0  0  0  0  0  0  0  0
   21.1903  -22.8560  -13.1441 O   0  0  0  0  0  0  0  0  0  0  0  0
  2  1  1  6
  3  2  1  0
  4  3  1  0
  5  4  2  0
  6  5  1  0
  7  6  2  0
  7  8  1  0
  8  9  2  0
  9  4  1  0
 10  2  1  0
 10 17  1  0
 11 10  2  0
 13 12  1  0
 14 16  1  0
 14 13  1  0
 14 15  1  1
 16 17  1  1
 18 16  1  0
 19 18  2  0
 20 18  1  0
 21 22  1  6
 21 20  1  0
 22 23  1  0
 24 25  1  0
 24 21  1  0
 26 24  2  0
M  END
$$$$
