FIC.pdb
     RDKit          3D

 26 26  0  0  1  0  0  0  0  0999 V2000
   22.7158  -20.5918  -17.1571 N   0  0  0  0  0  0  0  0  0  0  0  0
   23.2486  -19.6208  -16.2306 C   0  0  1  0  0  0  0  0  0  0  0  0
   22.1449  -19.0394  -15.3507 C   0  0  0  0  0  0  0  0  0  0  0  0
   21.2158  -18.1885  -16.1050 C   0  0  0  0  0  0  0  0  0  0  0  0
   19.8954  -18.5354  -16.1785 C   0  0  0  0  0  0  0  0  0  0  0  0
   19.0523  -17.7095  -16.8974 C   0  0  0  0  0  0  0  0  0  0  0  0
   19.5333  -16.5755  -17.5172 C   0  0  0  0  0  0  0  0  0  0  0  0
   20.8607  -16.2654  -17.4186 C   0  0  0  0  0  0  0  0  0  0  0  0
   21.7328  -17.0521  -16.7183 C   0  0  0  0  0  0  0  0  0  0  0  0
   24.2131  -20.2756  -15.3388 C   0  0  0  0  0  0  0  0  0  0  0  0
   24.0263  -21.4853  -15.0005 O   0  0  0  0  0  0  0  0  0  0  0  0
   28.2387  -21.6465  -15.8662 C   0  0  0  0  0  0  0  0  0  0  0  0
   28.0701  -20.1581  -15.7573 C   0  0  0  0  0  0  0  0  0  0  0  0
   27.6617  -19.7262  -14.3782 C   0  0  2  0  0  0  0  0  0  0  0  0
   28.7276  -20.1266  -13.3957 C   0  0  0  0  0  0  0  0  0  0  0  0
   26.3207  -20.2387  -13.9546 C   0  0  2  0  0  0  0  0  0  0  0  0
   25.3338  -19.6109  -14.8477 N   0  0  0  0  0  0  0  0  0  0  0  0
   25.9810  -19.9004  -12.5592 C   0  0  0  0  0  0  0  0  0  0  0  0
   25.9734  -18.6987  -12.1929 O   0  0  0  0  0  0  0  0  0  0  0  0
   25.6508  -20.8478  -11.5611 N   0  0  0  0  0  0  0  0  0  0  0  0
   25.3999  -20.4675  -10.2298 C   0  0  1  0  0  0  0  0  0  0  0  0
   24.2318  -21.0944   -9.5460 C   0  0  0  0  0  0  0  0  0  0  0  0
   22.7689  -20.9002  -10.6226 S   0  0  0  0  0  0  0  0  0  0  0  0
   26.5884  -20.6826   -9.3257 C   0  0  0  0  0  0  0  0  0  0  0  0
   26.5356  -20.1515   -8.0426 O   0  0  0  0  0  0  0  0  0  0  0  0
   27.5869  -21.3121   -9.7045 O   0  0  0  0  0  0  0  0  0  0  0  0
  2  1  1  6
  3  2  1  0
  4  3  1  0
  5  4  2  0
  6  5  1  0
  7  6  2  0
  7  8  1  0
  8  9  2  0
  9  4  1  0
 10  2  1  0
 10 17  1  0
 11 10  2  0
 13 12  1  0
 14 16  1  0
 14 13  1  0
 14 15  1  1
 16 17  1  6
 18 16  1  0
 19 18  2  0
 20 18  1  0
 21 22  1  1
 21 20  1  0
 22 23  1  0
 24 25  1  0
 24 21  1  0
 26 24  2  0
M  END
$$$$
