FIC.pdb
     RDKit          3D

 26 26  0  0  1  0  0  0  0  0999 V2000
   27.6954  -25.3290  -16.7387 N   0  0  0  0  0  0  0  0  0  0  0  0
   27.2593  -23.9823  -17.0243 C   0  0  1  0  0  0  0  0  0  0  0  0
   26.3712  -23.9453  -18.2654 C   0  0  0  0  0  0  0  0  0  0  0  0
   27.1251  -24.1869  -19.5021 C   0  0  0  0  0  0  0  0  0  0  0  0
   27.0238  -25.3998  -20.1250 C   0  0  0  0  0  0  0  0  0  0  0  0
   27.7483  -25.5889  -21.2865 C   0  0  0  0  0  0  0  0  0  0  0  0
   28.5445  -24.5842  -21.7944 C   0  0  0  0  0  0  0  0  0  0  0  0
   28.6171  -23.3865  -21.1400 C   0  0  0  0  0  0  0  0  0  0  0  0
   27.9187  -23.1530  -19.9880 C   0  0  0  0  0  0  0  0  0  0  0  0
   26.4564  -23.4814  -15.9025 C   0  0  0  0  0  0  0  0  0  0  0  0
   25.9081  -24.3093  -15.1108 O   0  0  0  0  0  0  0  0  0  0  0  0
   28.3499  -19.2052  -14.7864 C   0  0  0  0  0  0  0  0  0  0  0  0
   27.5708  -20.1532  -13.9205 C   0  0  0  0  0  0  0  0  0  0  0  0
   26.1145  -20.1979  -14.2845 C   0  0  2  0  0  0  0  0  0  0  0  0
   25.3182  -19.4651  -13.2400 C   0  0  0  0  0  0  0  0  0  0  0  0
   25.5836  -21.5819  -14.4920 C   0  0  2  0  0  0  0  0  0  0  0  0
   26.2741  -22.1198  -15.6750 N   0  0  0  0  0  0  0  0  0  0  0  0
   24.1286  -21.6184  -14.7340 C   0  0  0  0  0  0  0  0  0  0  0  0
   23.6485  -21.0359  -15.7382 O   0  0  0  0  0  0  0  0  0  0  0  0
   23.1927  -22.2774  -13.9017 N   0  0  0  0  0  0  0  0  0  0  0  0
   21.8057  -22.1710  -14.1138 C   0  0  1  0  0  0  0  0  0  0  0  0
   20.9172  -23.0414  -13.2904 C   0  0  0  0  0  0  0  0  0  0  0  0
   19.1864  -22.7024  -13.7664 S   0  0  0  0  0  0  0  0  0  0  0  0
   21.2944  -20.7614  -13.9470 C   0  0  0  0  0  0  0  0  0  0  0  0
   20.4592  -20.2504  -14.9330 O   0  0  0  0  0  0  0  0  0  0  0  0
   21.6030  -20.0708  -12.9649 O   0  0  0  0  0  0  0  0  0  0  0  0
  2  1  1  1
  3  2  1  0
  4  3  1  0
  5  4  2  0
  6  5  1  0
  7  6  2  0
  7  8  1  0
  8  9  2  0
  9  4  1  0
 10  2  1  0
 10 17  1  0
 11 10  2  0
 13 12  1  0
 14 16  1  0
 14 13  1  0
 14 15  1  1
 16 17  1  6
 18 16  1  0
 19 18  2  0
 20 18  1  0
 21 22  1  1
 21 20  1  0
 22 23  1  0
 24 25  1  0
 24 21  1  0
 26 24  2  0
M  END
$$$$
