FIC.pdb
     RDKit          3D

 26 26  0  0  1  0  0  0  0  0999 V2000
   30.1659  -19.6665  -11.6047 N   0  0  0  0  0  0  0  0  0  0  0  0
   29.2410  -20.6889  -12.0343 C   0  0  1  0  0  0  0  0  0  0  0  0
   28.9490  -21.6735  -10.9048 C   0  0  0  0  0  0  0  0  0  0  0  0
   30.1580  -22.0477  -10.1601 C   0  0  0  0  0  0  0  0  0  0  0  0
   30.3885  -21.4950   -8.9310 C   0  0  0  0  0  0  0  0  0  0  0  0
   31.5369  -21.8721   -8.2613 C   0  0  0  0  0  0  0  0  0  0  0  0
   32.4163  -22.7757   -8.8195 C   0  0  0  0  0  0  0  0  0  0  0  0
   32.1476  -23.3044  -10.0509 C   0  0  0  0  0  0  0  0  0  0  0  0
   31.0244  -22.9615  -10.7511 C   0  0  0  0  0  0  0  0  0  0  0  0
   27.9649  -20.0669  -12.4069 C   0  0  0  0  0  0  0  0  0  0  0  0
   27.4613  -19.1788  -11.6517 O   0  0  0  0  0  0  0  0  0  0  0  0
   27.9696  -17.9256  -16.9448 C   0  0  0  0  0  0  0  0  0  0  0  0
   27.5838  -18.2613  -15.5326 C   0  0  0  0  0  0  0  0  0  0  0  0
   26.4553  -19.2498  -15.4655 C   0  0  2  0  0  0  0  0  0  0  0  0
   25.2521  -18.6792  -16.1645 C   0  0  0  0  0  0  0  0  0  0  0  0
   26.1127  -19.6853  -14.0751 C   0  0  2  0  0  0  0  0  0  0  0  0
   27.2829  -20.4199  -13.5684 N   0  0  0  0  0  0  0  0  0  0  0  0
   24.9339  -20.5706  -14.0148 C   0  0  0  0  0  0  0  0  0  0  0  0
   24.9353  -21.6553  -14.6487 O   0  0  0  0  0  0  0  0  0  0  0  0
   23.7583  -20.2930  -13.2773 N   0  0  0  0  0  0  0  0  0  0  0  0
   22.6617  -21.1746  -13.2678 C   0  0  1  0  0  0  0  0  0  0  0  0
   22.2082  -21.6909  -11.9439 C   0  0  0  0  0  0  0  0  0  0  0  0
   22.4239  -20.3621  -10.7091 S   0  0  0  0  0  0  0  0  0  0  0  0
   21.4408  -20.5977  -13.9407 C   0  0  0  0  0  0  0  0  0  0  0  0
   20.3536  -21.4376  -14.1491 O   0  0  0  0  0  0  0  0  0  0  0  0
   21.3972  -19.4123  -14.3010 O   0  0  0  0  0  0  0  0  0  0  0  0
  2  1  1  1
  3  2  1  0
  4  3  1  0
  5  4  2  0
  6  5  1  0
  7  6  2  0
  7  8  1  0
  8  9  2  0
  9  4  1  0
 10  2  1  0
 10 17  1  0
 11 10  2  0
 13 12  1  0
 14 16  1  0
 14 13  1  0
 14 15  1  1
 16 17  1  6
 18 16  1  0
 19 18  2  0
 20 18  1  0
 21 22  1  1
 21 20  1  0
 22 23  1  0
 24 25  1  0
 24 21  1  0
 26 24  2  0
M  END
$$$$
