FIC.pdb
     RDKit          3D

 26 26  0  0  1  0  0  0  0  0999 V2000
   20.6442  -19.6686  -13.8628 N   0  0  0  0  0  0  0  0  0  0  0  0
   21.4671  -20.8459  -13.7144 C   0  0  1  0  0  0  0  0  0  0  0  0
   21.3859  -21.7315  -14.9552 C   0  0  0  0  0  0  0  0  0  0  0  0
   20.0257  -22.2261  -15.2034 C   0  0  0  0  0  0  0  0  0  0  0  0
   19.3465  -21.7986  -16.3103 C   0  0  0  0  0  0  0  0  0  0  0  0
   18.0691  -22.2865  -16.5094 C   0  0  0  0  0  0  0  0  0  0  0  0
   17.5046  -23.1743  -15.6180 C   0  0  0  0  0  0  0  0  0  0  0  0
   18.2186  -23.5761  -14.5240 C   0  0  0  0  0  0  0  0  0  0  0  0
   19.4855  -23.1205  -14.2852 C   0  0  0  0  0  0  0  0  0  0  0  0
   22.8703  -20.4441  -13.5606 C   0  0  0  0  0  0  0  0  0  0  0  0
   23.2786  -19.3810  -14.1227 O   0  0  0  0  0  0  0  0  0  0  0  0
   25.2460  -20.9279   -8.8567 C   0  0  0  0  0  0  0  0  0  0  0  0
   24.8465  -20.5003  -10.2398 C   0  0  0  0  0  0  0  0  0  0  0  0
   25.6153  -21.2229  -11.3085 C   0  0  2  0  0  0  0  0  0  0  0  0
   27.0875  -20.9937  -11.1030 C   0  0  0  0  0  0  0  0  0  0  0  0
   25.2043  -20.8603  -12.7013 C   0  0  2  0  0  0  0  0  0  0  0  0
   23.7755  -21.1940  -12.8141 N   0  0  0  0  0  0  0  0  0  0  0  0
   25.9478  -21.5989  -13.7399 C   0  0  0  0  0  0  0  0  0  0  0  0
   26.4027  -22.7424  -13.4872 O   0  0  0  0  0  0  0  0  0  0  0  0
   26.2020  -21.1124  -15.0443 N   0  0  0  0  0  0  0  0  0  0  0  0
   27.0481  -21.7930  -15.9393 C   0  0  1  0  0  0  0  0  0  0  0  0
   26.4109  -22.4668  -17.1076 C   0  0  0  0  0  0  0  0  0  0  0  0
   24.9026  -23.3160  -16.5236 S   0  0  0  0  0  0  0  0  0  0  0  0
   28.1386  -20.9129  -16.4981 C   0  0  0  0  0  0  0  0  0  0  0  0
   29.1710  -21.5217  -17.2014 O   0  0  0  0  0  0  0  0  0  0  0  0
   28.1250  -19.6833  -16.3411 O   0  0  0  0  0  0  0  0  0  0  0  0
  2  1  1  6
  3  2  1  0
  4  3  1  0
  5  4  2  0
  6  5  1  0
  7  6  2  0
  7  8  1  0
  8  9  2  0
  9  4  1  0
 10  2  1  0
 10 17  1  0
 11 10  2  0
 13 12  1  0
 14 16  1  0
 14 13  1  0
 14 15  1  6
 16 17  1  1
 18 16  1  0
 19 18  2  0
 20 18  1  0
 21 22  1  6
 21 20  1  0
 22 23  1  0
 24 25  1  0
 24 21  1  0
 26 24  2  0
M  END
$$$$
