FIC.pdb
     RDKit          3D

 26 26  0  0  1  0  0  0  0  0999 V2000
   26.6977  -18.5636   -8.1492 N   0  0  0  0  0  0  0  0  0  0  0  0
   26.9370  -19.9433   -8.5020 C   0  0  1  0  0  0  0  0  0  0  0  0
   26.7888  -20.8538   -7.2856 C   0  0  0  0  0  0  0  0  0  0  0  0
   27.7361  -20.5182   -6.2150 C   0  0  0  0  0  0  0  0  0  0  0  0
   27.2677  -20.2839   -4.9520 C   0  0  0  0  0  0  0  0  0  0  0  0
   28.1900  -19.9711   -3.9716 C   0  0  0  0  0  0  0  0  0  0  0  0
   29.5357  -19.8994   -4.2641 C   0  0  0  0  0  0  0  0  0  0  0  0
   29.9614  -20.1410   -5.5402 C   0  0  0  0  0  0  0  0  0  0  0  0
   29.0864  -20.4540   -6.5431 C   0  0  0  0  0  0  0  0  0  0  0  0
   25.9400  -20.3743   -9.4892 C   0  0  0  0  0  0  0  0  0  0  0  0
   24.7110  -20.3834   -9.1695 O   0  0  0  0  0  0  0  0  0  0  0  0
   28.1424  -18.6915  -14.7708 C   0  0  0  0  0  0  0  0  0  0  0  0
   26.8692  -19.0313  -14.0505 C   0  0  0  0  0  0  0  0  0  0  0  0
   27.1164  -19.7597  -12.7607 C   0  0  2  0  0  0  0  0  0  0  0  0
   27.9052  -21.0096  -13.0387 C   0  0  0  0  0  0  0  0  0  0  0  0
   25.8705  -20.0706  -11.9916 C   0  0  2  0  0  0  0  0  0  0  0  0
   26.2983  -20.7764  -10.7732 N   0  0  0  0  0  0  0  0  0  0  0  0
   24.9272  -20.9303  -12.7318 C   0  0  0  0  0  0  0  0  0  0  0  0
   25.2339  -22.1229  -12.9808 O   0  0  0  0  0  0  0  0  0  0  0  0
   23.6599  -20.5120  -13.2029 N   0  0  0  0  0  0  0  0  0  0  0  0
   22.7733  -21.4005  -13.8388 C   0  0  1  0  0  0  0  0  0  0  0  0
   21.3387  -21.3450  -13.4340 C   0  0  0  0  0  0  0  0  0  0  0  0
   21.2637  -21.2475  -11.6114 S   0  0  0  0  0  0  0  0  0  0  0  0
   22.7967  -21.2750  -15.3421 C   0  0  0  0  0  0  0  0  0  0  0  0
   22.1169  -22.2314  -16.0865 O   0  0  0  0  0  0  0  0  0  0  0  0
   23.4004  -20.3515  -15.9072 O   0  0  0  0  0  0  0  0  0  0  0  0
  2  1  1  1
  3  2  1  0
  4  3  1  0
  5  4  2  0
  6  5  1  0
  7  6  2  0
  7  8  1  0
  8  9  2  0
  9  4  1  0
 10  2  1  0
 10 17  1  0
 11 10  2  0
 13 12  1  0
 14 16  1  0
 14 13  1  0
 14 15  1  6
 16 17  1  1
 18 16  1  0
 19 18  2  0
 20 18  1  0
 21 22  1  1
 21 20  1  0
 22 23  1  0
 24 25  1  0
 24 21  1  0
 26 24  2  0
M  END
$$$$
