FIC.pdb
     RDKit          3D

 26 26  0  0  1  0  0  0  0  0999 V2000
   20.4632  -20.1983  -13.0198 N   0  0  0  0  0  0  0  0  0  0  0  0
   21.4598  -21.2416  -12.9610 C   0  0  1  0  0  0  0  0  0  0  0  0
   21.1853  -22.3213  -14.0046 C   0  0  0  0  0  0  0  0  0  0  0  0
   19.9152  -23.0195  -13.7689 C   0  0  0  0  0  0  0  0  0  0  0  0
   18.7995  -22.6372  -14.4605 C   0  0  0  0  0  0  0  0  0  0  0  0
   17.6232  -23.3182  -14.2111 C   0  0  0  0  0  0  0  0  0  0  0  0
   17.5832  -24.3475  -13.2944 C   0  0  0  0  0  0  0  0  0  0  0  0
   18.7219  -24.6977  -12.6245 C   0  0  0  0  0  0  0  0  0  0  0  0
   19.9087  -24.0530  -12.8379 C   0  0  0  0  0  0  0  0  0  0  0  0
   22.7791  -20.6734  -13.2628 C   0  0  0  0  0  0  0  0  0  0  0  0
   22.8576  -19.6296  -13.9818 O   0  0  0  0  0  0  0  0  0  0  0  0
   25.4166  -21.4062   -9.5782 C   0  0  0  0  0  0  0  0  0  0  0  0
   25.8998  -20.4566  -10.6367 C   0  0  0  0  0  0  0  0  0  0  0  0
   26.1769  -21.1451  -11.9422 C   0  0  2  0  0  0  0  0  0  0  0  0
   27.6282  -20.9730  -12.2969 C   0  0  0  0  0  0  0  0  0  0  0  0
   25.2928  -20.6967  -13.0637 C   0  0  2  0  0  0  0  0  0  0  0  0
   23.9557  -21.2440  -12.7844 N   0  0  0  0  0  0  0  0  0  0  0  0
   25.7368  -21.1794  -14.3853 C   0  0  0  0  0  0  0  0  0  0  0  0
   25.6340  -22.3985  -14.6710 O   0  0  0  0  0  0  0  0  0  0  0  0
   26.2890  -20.3573  -15.3963 N   0  0  0  0  0  0  0  0  0  0  0  0
   26.5788  -20.8528  -16.6810 C   0  0  1  0  0  0  0  0  0  0  0  0
   25.4707  -20.8596  -17.6796 C   0  0  0  0  0  0  0  0  0  0  0  0
   25.5105  -22.4570  -18.5649 S   0  0  0  0  0  0  0  0  0  0  0  0
   27.7373  -20.1414  -17.3353 C   0  0  0  0  0  0  0  0  0  0  0  0
   28.5225  -20.8599  -18.2287 O   0  0  0  0  0  0  0  0  0  0  0  0
   27.9906  -18.9527  -17.0913 O   0  0  0  0  0  0  0  0  0  0  0  0
  2  1  1  6
  3  2  1  0
  4  3  1  0
  5  4  2  0
  6  5  1  0
  7  6  2  0
  7  8  1  0
  8  9  2  0
  9  4  1  0
 10  2  1  0
 10 17  1  0
 11 10  2  0
 13 12  1  0
 14 16  1  0
 14 13  1  0
 14 15  1  6
 16 17  1  1
 18 16  1  0
 19 18  2  0
 20 18  1  0
 21 22  1  6
 21 20  1  0
 22 23  1  0
 24 25  1  0
 24 21  1  0
 26 24  2  0
M  END
$$$$
