FIC.pdb
     RDKit          3D

 26 26  0  0  1  0  0  0  0  0999 V2000
   12.1753  -11.8256  -11.0942 N   0  0  0  0  0  0  0  0  0  0  0  0
   12.2307  -10.3846  -11.0178 C   0  0  1  0  0  0  0  0  0  0  0  0
   12.3202   -9.9155   -9.5678 C   0  0  0  0  0  0  0  0  0  0  0  0
   11.0187   -9.9420   -8.8883 C   0  0  0  0  0  0  0  0  0  0  0  0
   10.5152  -11.1339   -8.4465 C   0  0  0  0  0  0  0  0  0  0  0  0
    9.2878  -11.1179   -7.8118 C   0  0  0  0  0  0  0  0  0  0  0  0
    8.5996   -9.9364   -7.6334 C   0  0  0  0  0  0  0  0  0  0  0  0
    9.1392   -8.7669   -8.0906 C   0  0  0  0  0  0  0  0  0  0  0  0
   10.3503   -8.7332   -8.7244 C   0  0  0  0  0  0  0  0  0  0  0  0
   13.4374   -9.9059  -11.7027 C   0  0  0  0  0  0  0  0  0  0  0  0
   14.4230  -10.6929  -11.8503 O   0  0  0  0  0  0  0  0  0  0  0  0
   12.4309   -8.2734  -15.6131 C   0  0  0  0  0  0  0  0  0  0  0  0
   13.8554   -8.4742  -15.1817 C   0  0  0  0  0  0  0  0  0  0  0  0
   14.2887   -7.4735  -14.1492 C   0  0  2  0  0  0  0  0  0  0  0  0
   15.3551   -6.5876  -14.7322 C   0  0  0  0  0  0  0  0  0  0  0  0
   14.7448   -8.0883  -12.8630 C   0  0  2  0  0  0  0  0  0  0  0  0
   13.5389   -8.6091  -12.1996 N   0  0  0  0  0  0  0  0  0  0  0  0
   15.4064   -7.1276  -11.9595 C   0  0  0  0  0  0  0  0  0  0  0  0
   16.5223   -6.6432  -12.2730 O   0  0  0  0  0  0  0  0  0  0  0  0
   14.8725   -6.6886  -10.7245 N   0  0  0  0  0  0  0  0  0  0  0  0
   15.5465   -5.7577   -9.9127 C   0  0  1  0  0  0  0  0  0  0  0  0
   14.7193   -4.9234   -8.9937 C   0  0  0  0  0  0  0  0  0  0  0  0
   13.8133   -6.0415   -7.8684 S   0  0  0  0  0  0  0  0  0  0  0  0
   16.6198   -6.3914   -9.0625 C   0  0  0  0  0  0  0  0  0  0  0  0
   17.4301   -5.5541   -8.3053 O   0  0  0  0  0  0  0  0  0  0  0  0
   16.7832   -7.6198   -9.0322 O   0  0  0  0  0  0  0  0  0  0  0  0
  2  1  1  1
  3  2  1  0
  4  3  1  0
  5  4  2  0
  6  5  1  0
  7  6  2  0
  7  8  1  0
  8  9  2  0
  9  4  1  0
 10  2  1  0
 10 17  1  0
 11 10  2  0
 13 12  1  0
 14 16  1  0
 14 13  1  0
 14 15  1  6
 16 17  1  1
 18 16  1  0
 19 18  2  0
 20 18  1  0
 21 22  1  1
 21 20  1  0
 22 23  1  0
 24 25  1  0
 24 21  1  0
 26 24  2  0
M  END
$$$$
