FIC.pdb
     RDKit          3D

 26 26  0  0  1  0  0  0  0  0999 V2000
   27.8487  -20.7773  -14.2907 N   0  0  0  0  0  0  0  0  0  0  0  0
   26.7503  -19.9757  -13.8045 C   0  0  1  0  0  0  0  0  0  0  0  0
   25.8637  -19.5053  -14.9548 C   0  0  0  0  0  0  0  0  0  0  0  0
   26.4149  -18.3317  -15.6442 C   0  0  0  0  0  0  0  0  0  0  0  0
   25.7855  -17.8492  -16.7578 C   0  0  0  0  0  0  0  0  0  0  0  0
   26.3344  -16.7433  -17.3786 C   0  0  0  0  0  0  0  0  0  0  0  0
   27.4784  -16.1515  -16.8862 C   0  0  0  0  0  0  0  0  0  0  0  0
   28.0760  -16.6660  -15.7699 C   0  0  0  0  0  0  0  0  0  0  0  0
   27.5697  -17.7583  -15.1219 C   0  0  0  0  0  0  0  0  0  0  0  0
   25.9108  -20.7869  -12.9149 C   0  0  0  0  0  0  0  0  0  0  0  0
   25.8489  -22.0429  -13.0916 O   0  0  0  0  0  0  0  0  0  0  0  0
   26.4766  -19.9801   -7.9010 C   0  0  0  0  0  0  0  0  0  0  0  0
   26.1509  -20.6275   -9.2164 C   0  0  0  0  0  0  0  0  0  0  0  0
   24.6948  -20.5152   -9.5664 C   0  0  2  0  0  0  0  0  0  0  0  0
   23.8763  -21.2231   -8.5220 C   0  0  0  0  0  0  0  0  0  0  0  0
   24.3609  -21.0117  -10.9384 C   0  0  2  0  0  0  0  0  0  0  0  0
   25.1748  -20.2222  -11.8765 N   0  0  0  0  0  0  0  0  0  0  0  0
   22.9374  -20.8453  -11.2886 C   0  0  0  0  0  0  0  0  0  0  0  0
   22.4999  -19.7092  -11.5988 O   0  0  0  0  0  0  0  0  0  0  0  0
   21.9871  -21.8939  -11.3059 N   0  0  0  0  0  0  0  0  0  0  0  0
   20.6208  -21.6625  -11.0617 C   0  0  1  0  0  0  0  0  0  0  0  0
   20.2241  -21.3047   -9.6689 C   0  0  0  0  0  0  0  0  0  0  0  0
   20.1529  -22.8413   -8.6835 S   0  0  0  0  0  0  0  0  0  0  0  0
   20.0382  -20.5972  -11.9573 C   0  0  0  0  0  0  0  0  0  0  0  0
   19.1804  -20.9986  -12.9741 O   0  0  0  0  0  0  0  0  0  0  0  0
   20.3091  -19.3977  -11.8006 O   0  0  0  0  0  0  0  0  0  0  0  0
  2  1  1  6
  3  2  1  0
  4  3  1  0
  5  4  2  0
  6  5  1  0
  7  6  2  0
  7  8  1  0
  8  9  2  0
  9  4  1  0
 10  2  1  0
 10 17  1  0
 11 10  2  0
 13 12  1  0
 14 16  1  0
 14 13  1  0
 14 15  1  1
 16 17  1  6
 18 16  1  0
 19 18  2  0
 20 18  1  0
 21 22  1  1
 21 20  1  0
 22 23  1  0
 24 25  1  0
 24 21  1  0
 26 24  2  0
M  END
$$$$
