HKC.pdb
     RDKit          3D

 26 26  0  0  1  0  0  0  0  0999 V2000
    7.5102  -16.9765   20.7440 N   0  0  0  0  0  0  0  0  0  0  0  0
    8.6215  -16.2285   21.2974 C   0  0  1  0  0  0  0  0  0  0  0  0
    8.1739  -14.7644   21.3641 C   0  0  0  0  0  0  0  0  0  0  0  0
    8.1042  -14.1823   20.0031 C   0  0  0  0  0  0  0  0  0  0  0  0
    8.3793  -14.8196   18.8168 C   0  0  0  0  0  0  0  0  0  0  0  0
    8.1982  -13.9434   17.7925 N   0  0  0  0  0  0  0  0  0  0  0  0
    7.8165  -12.7814   18.3403 C   0  0  0  0  0  0  0  0  0  0  0  0
    7.7618  -12.9359   19.6881 N   0  0  0  0  0  0  0  0  0  0  0  0
    8.9283  -16.7532   22.6261 C   0  0  0  0  0  0  0  0  0  0  0  0
    8.0340  -16.8710   23.4866 O   0  0  0  0  0  0  0  0  0  0  0  0
   10.2446  -17.1622   23.0334 N   0  0  0  0  0  0  0  0  0  0  0  0
   10.5515  -17.5440   24.3852 C   0  0  1  0  0  0  0  0  0  0  0  0
   11.8202  -18.4096   24.3056 C   0  0  0  0  0  0  0  0  0  0  0  0
   12.1264  -18.8903   25.6964 C   0  0  0  0  0  0  0  0  0  0  0  0
   13.4156  -19.6816   25.7328 C   0  0  0  0  0  0  0  0  0  0  0  0
   13.6120  -20.2338   27.1076 C   0  0  0  0  0  0  0  0  0  0  0  0
   14.8642  -20.9879   27.1087 N   0  0  0  0  0  0  0  0  0  0  0  0
   10.7244  -16.4259   25.3075 C   0  0  0  0  0  0  0  0  0  0  0  0
   11.3725  -15.3944   24.9960 O   0  0  0  0  0  0  0  0  0  0  0  0
   10.1565  -16.4689   26.6069 N   0  0  0  0  0  0  0  0  0  0  0  0
   10.3591  -15.3619   27.5177 C   0  0  1  0  0  0  0  0  0  0  0  0
    9.1911  -14.4327   27.4079 C   0  0  0  0  0  0  0  0  0  0  0  0
    9.3513  -13.0867   28.6176 S   0  0  0  0  0  0  0  0  0  0  0  0
   10.5155  -15.8116   28.9157 C   0  0  0  0  0  0  0  0  0  0  0  0
   10.8182  -14.9577   29.7806 O   0  0  0  0  0  0  0  0  0  0  0  0
   10.3414  -17.1229   29.2946 O   0  0  0  0  0  0  0  0  0  0  0  0
  2  1  1  1
  3  2  1  0
  4  3  1  0
  5  4  2  0
  6  7  1  0
  6  5  1  0
  7  8  2  0
  8  4  1  0
  9  2  1  0
  9 11  1  0
 10  9  2  0
 12 11  1  0
 12 13  1  6
 13 14  1  0
 14 15  1  0
 15 16  1  0
 17 16  1  0
 18 12  1  0
 19 18  2  0
 20 18  1  0
 21 20  1  0
 21 22  1  1
 22 23  1  0
 24 21  1  0
 25 24  2  0
 26 24  1  0
M  END
$$$$
