HKC.pdb
     RDKit          3D

 26 26  0  0  1  0  0  0  0  0999 V2000
    8.5203  -18.4660   18.9145 N   0  0  0  0  0  0  0  0  0  0  0  0
    9.8720  -18.3211   19.4172 C   0  0  1  0  0  0  0  0  0  0  0  0
   10.7944  -18.3003   18.1937 C   0  0  0  0  0  0  0  0  0  0  0  0
   10.8003  -19.6242   17.5277 C   0  0  0  0  0  0  0  0  0  0  0  0
   10.1158  -20.7495   17.9202 C   0  0  0  0  0  0  0  0  0  0  0  0
   10.3841  -21.7568   17.0466 N   0  0  0  0  0  0  0  0  0  0  0  0
   11.2230  -21.2587   16.1278 C   0  0  0  0  0  0  0  0  0  0  0  0
   11.4714  -19.9583   16.4287 N   0  0  0  0  0  0  0  0  0  0  0  0
    9.9628  -17.0749   20.1744 C   0  0  0  0  0  0  0  0  0  0  0  0
   11.0719  -16.5834   20.4618 O   0  0  0  0  0  0  0  0  0  0  0  0
    8.8162  -16.3399   20.6336 N   0  0  0  0  0  0  0  0  0  0  0  0
    8.9255  -15.2077   21.5133 C   0  0  1  0  0  0  0  0  0  0  0  0
    7.7627  -14.2702   21.1472 C   0  0  0  0  0  0  0  0  0  0  0  0
    8.2234  -13.4031   20.0093 C   0  0  0  0  0  0  0  0  0  0  0  0
    7.5382  -13.7850   18.7153 C   0  0  0  0  0  0  0  0  0  0  0  0
    8.0659  -12.9275   17.6109 C   0  0  0  0  0  0  0  0  0  0  0  0
    7.4564  -13.3850   16.3635 N   0  0  0  0  0  0  0  0  0  0  0  0
    8.9167  -15.5403   22.9346 C   0  0  0  0  0  0  0  0  0  0  0  0
    7.8579  -15.8269   23.5492 O   0  0  0  0  0  0  0  0  0  0  0  0
   10.1239  -15.5507   23.6799 N   0  0  0  0  0  0  0  0  0  0  0  0
   10.1591  -16.1789   24.9837 C   0  0  1  0  0  0  0  0  0  0  0  0
    9.8160  -17.6270   24.8261 C   0  0  0  0  0  0  0  0  0  0  0  0
    9.9479  -18.4753   26.4273 S   0  0  0  0  0  0  0  0  0  0  0  0
   11.4784  -16.0415   25.6333 C   0  0  0  0  0  0  0  0  0  0  0  0
   12.4545  -15.7070   24.9234 O   0  0  0  0  0  0  0  0  0  0  0  0
   11.6678  -16.2665   26.9775 O   0  0  0  0  0  0  0  0  0  0  0  0
  2  1  1  6
  3  2  1  0
  4  3  1  0
  5  4  2  0
  6  7  1  0
  6  5  1  0
  7  8  2  0
  8  4  1  0
  9  2  1  0
  9 11  1  0
 10  9  2  0
 12 11  1  0
 12 13  1  1
 13 14  1  0
 14 15  1  0
 15 16  1  0
 17 16  1  0
 18 12  1  0
 19 18  2  0
 20 18  1  0
 21 20  1  0
 21 22  1  6
 22 23  1  0
 24 21  1  0
 25 24  2  0
 26 24  1  0
M  END
$$$$
