HKC.pdb
     RDKit          3D

 26 26  0  0  1  0  0  0  0  0999 V2000
    7.6223  -16.6391   20.3869 N   0  0  0  0  0  0  0  0  0  0  0  0
    8.0152  -15.4662   21.1424 C   0  0  1  0  0  0  0  0  0  0  0  0
    7.1262  -14.3156   20.6587 C   0  0  0  0  0  0  0  0  0  0  0  0
    7.4217  -13.9935   19.2427 C   0  0  0  0  0  0  0  0  0  0  0  0
    8.3076  -13.0513   18.7773 C   0  0  0  0  0  0  0  0  0  0  0  0
    8.2896  -13.0620   17.4174 N   0  0  0  0  0  0  0  0  0  0  0  0
    7.4042  -13.9984   17.0496 C   0  0  0  0  0  0  0  0  0  0  0  0
    6.8799  -14.5612   18.1684 N   0  0  0  0  0  0  0  0  0  0  0  0
    7.8154  -15.7325   22.5650 C   0  0  0  0  0  0  0  0  0  0  0  0
    6.7456  -15.4252   23.1265 O   0  0  0  0  0  0  0  0  0  0  0  0
    8.8056  -16.3507   23.4035 N   0  0  0  0  0  0  0  0  0  0  0  0
    8.5808  -16.6150   24.7989 C   0  0  1  0  0  0  0  0  0  0  0  0
    8.9645  -18.0877   25.0206 C   0  0  0  0  0  0  0  0  0  0  0  0
    8.7286  -18.4018   26.4714 C   0  0  0  0  0  0  0  0  0  0  0  0
    9.0312  -19.8529   26.7755 C   0  0  0  0  0  0  0  0  0  0  0  0
    8.8768  -20.0875   28.2434 C   0  0  0  0  0  0  0  0  0  0  0  0
    9.3138  -21.4541   28.5231 N   0  0  0  0  0  0  0  0  0  0  0  0
    9.3041  -15.7315   25.7083 C   0  0  0  0  0  0  0  0  0  0  0  0
   10.5398  -15.5255   25.6010 O   0  0  0  0  0  0  0  0  0  0  0  0
    8.6233  -15.0660   26.7602 N   0  0  0  0  0  0  0  0  0  0  0  0
    9.3444  -14.1485   27.6170 C   0  0  1  0  0  0  0  0  0  0  0  0
    8.3820  -13.1317   28.1458 C   0  0  0  0  0  0  0  0  0  0  0  0
    7.4940  -12.3420   26.7715 S   0  0  0  0  0  0  0  0  0  0  0  0
   10.0127  -14.8404   28.7377 C   0  0  0  0  0  0  0  0  0  0  0  0
    9.8926  -16.0844   28.8198 O   0  0  0  0  0  0  0  0  0  0  0  0
   10.7543  -14.1706   29.6835 O   0  0  0  0  0  0  0  0  0  0  0  0
  2  1  1  6
  3  2  1  0
  4  3  1  0
  5  4  2  0
  6  7  1  0
  6  5  1  0
  7  8  2  0
  8  4  1  0
  9  2  1  0
  9 11  1  0
 10  9  2  0
 12 11  1  0
 12 13  1  1
 13 14  1  0
 14 15  1  0
 15 16  1  0
 17 16  1  0
 18 12  1  0
 19 18  2  0
 20 18  1  0
 21 20  1  0
 21 22  1  1
 22 23  1  0
 24 21  1  0
 25 24  2  0
 26 24  1  0
M  END
$$$$
