HKC.pdb
     RDKit          3D

 26 26  0  0  1  0  0  0  0  0999 V2000
    9.5548  -16.0641   20.2284 N   0  0  0  0  0  0  0  0  0  0  0  0
    8.9305  -15.1487   21.1628 C   0  0  1  0  0  0  0  0  0  0  0  0
    7.5106  -14.8953   20.6453 C   0  0  0  0  0  0  0  0  0  0  0  0
    7.5503  -14.3838   19.2550 C   0  0  0  0  0  0  0  0  0  0  0  0
    7.7832  -13.0888   18.8575 C   0  0  0  0  0  0  0  0  0  0  0  0
    7.7372  -13.0288   17.4995 N   0  0  0  0  0  0  0  0  0  0  0  0
    7.4795  -14.2703   17.0659 C   0  0  0  0  0  0  0  0  0  0  0  0
    7.3671  -15.0899   18.1425 N   0  0  0  0  0  0  0  0  0  0  0  0
    8.9130  -15.7655   22.4872 C   0  0  0  0  0  0  0  0  0  0  0  0
    8.2452  -15.2659   23.4138 O   0  0  0  0  0  0  0  0  0  0  0  0
    9.6417  -16.9600   22.8161 N   0  0  0  0  0  0  0  0  0  0  0  0
    9.7348  -17.4630   24.1600 C   0  0  1  0  0  0  0  0  0  0  0  0
   10.4831  -18.8030   24.0621 C   0  0  0  0  0  0  0  0  0  0  0  0
   10.5408  -19.3895   25.4448 C   0  0  0  0  0  0  0  0  0  0  0  0
   11.2924  -20.7027   25.4536 C   0  0  0  0  0  0  0  0  0  0  0  0
   11.2264  -21.2950   26.8241 C   0  0  0  0  0  0  0  0  0  0  0  0
   11.8976  -22.5928   26.7800 N   0  0  0  0  0  0  0  0  0  0  0  0
   10.3824  -16.5570   25.1037 C   0  0  0  0  0  0  0  0  0  0  0  0
   11.5333  -16.0918   24.9039 O   0  0  0  0  0  0  0  0  0  0  0  0
    9.7216  -16.1663   26.2968 N   0  0  0  0  0  0  0  0  0  0  0  0
   10.3647  -15.2409   27.2056 C   0  0  1  0  0  0  0  0  0  0  0  0
    9.4190  -14.1169   27.4919 C   0  0  0  0  0  0  0  0  0  0  0  0
   10.1813  -12.9422   28.6493 S   0  0  0  0  0  0  0  0  0  0  0  0
   10.7715  -15.8909   28.4678 C   0  0  0  0  0  0  0  0  0  0  0  0
   10.2348  -16.9814   28.7705 O   0  0  0  0  0  0  0  0  0  0  0  0
   11.7099  -15.3438   29.3124 O   0  0  0  0  0  0  0  0  0  0  0  0
  2  1  1  6
  3  2  1  0
  4  3  1  0
  5  4  2  0
  6  7  1  0
  6  5  1  0
  7  8  2  0
  8  4  1  0
  9  2  1  0
  9 11  1  0
 10  9  2  0
 12 11  1  0
 12 13  1  6
 13 14  1  0
 14 15  1  0
 15 16  1  0
 17 16  1  0
 18 12  1  0
 19 18  2  0
 20 18  1  0
 21 20  1  0
 21 22  1  1
 22 23  1  0
 24 21  1  0
 25 24  2  0
 26 24  1  0
M  END
$$$$
