HKC.pdb
     RDKit          3D

 26 26  0  0  1  0  0  0  0  0999 V2000
    9.4498  -16.2491   19.0926 N   0  0  0  0  0  0  0  0  0  0  0  0
    8.4558  -16.5407   20.1063 C   0  0  1  0  0  0  0  0  0  0  0  0
    8.3602  -18.0672   20.1997 C   0  0  0  0  0  0  0  0  0  0  0  0
    7.7260  -18.6214   18.9803 C   0  0  0  0  0  0  0  0  0  0  0  0
    6.6888  -18.0713   18.2656 C   0  0  0  0  0  0  0  0  0  0  0  0
    6.3970  -18.8838   17.2147 N   0  0  0  0  0  0  0  0  0  0  0  0
    7.2431  -19.9209   17.2808 C   0  0  0  0  0  0  0  0  0  0  0  0
    8.0497  -19.7529   18.3600 N   0  0  0  0  0  0  0  0  0  0  0  0
    8.8881  -15.9552   21.3732 C   0  0  0  0  0  0  0  0  0  0  0  0
   10.0386  -16.1572   21.8087 O   0  0  0  0  0  0  0  0  0  0  0  0
    8.0471  -15.1257   22.1921 N   0  0  0  0  0  0  0  0  0  0  0  0
    8.4127  -14.7330   23.5262 C   0  0  1  0  0  0  0  0  0  0  0  0
    7.2124  -13.9496   24.0835 C   0  0  0  0  0  0  0  0  0  0  0  0
    7.5707  -13.5038   25.4735 C   0  0  0  0  0  0  0  0  0  0  0  0
    6.4901  -12.6245   26.0640 C   0  0  0  0  0  0  0  0  0  0  0  0
    6.9252  -12.1552   27.4146 C   0  0  0  0  0  0  0  0  0  0  0  0
    5.8138  -11.4124   28.0060 N   0  0  0  0  0  0  0  0  0  0  0  0
    8.7836  -15.8386   24.4042 C   0  0  0  0  0  0  0  0  0  0  0  0
    8.0572  -16.8552   24.5451 O   0  0  0  0  0  0  0  0  0  0  0  0
    9.9967  -15.7998   25.1389 N   0  0  0  0  0  0  0  0  0  0  0  0
   10.3578  -16.9131   25.9910 C   0  0  1  0  0  0  0  0  0  0  0  0
   11.6599  -17.4766   25.5149 C   0  0  0  0  0  0  0  0  0  0  0  0
   12.1995  -18.8144   26.6194 S   0  0  0  0  0  0  0  0  0  0  0  0
   10.4689  -16.5165   27.4093 C   0  0  0  0  0  0  0  0  0  0  0  0
   10.6769  -15.3094   27.6707 O   0  0  0  0  0  0  0  0  0  0  0  0
   10.3528  -17.4197   28.4409 O   0  0  0  0  0  0  0  0  0  0  0  0
  2  1  1  6
  3  2  1  0
  4  3  1  0
  5  4  2  0
  6  7  1  0
  6  5  1  0
  7  8  2  0
  8  4  1  0
  9  2  1  0
  9 11  1  0
 10  9  2  0
 12 11  1  0
 12 13  1  1
 13 14  1  0
 14 15  1  0
 15 16  1  0
 17 16  1  0
 18 12  1  0
 19 18  2  0
 20 18  1  0
 21 20  1  0
 21 22  1  6
 22 23  1  0
 24 21  1  0
 25 24  2  0
 26 24  1  0
M  END
$$$$
