HKC.pdb
     RDKit          3D

 26 26  0  0  1  0  0  0  0  0999 V2000
   11.0106  -18.5590   16.5411 N   0  0  0  0  0  0  0  0  0  0  0  0
   10.1698  -18.8852   17.6758 C   0  0  1  0  0  0  0  0  0  0  0  0
   10.4507  -20.3513   18.0219 C   0  0  0  0  0  0  0  0  0  0  0  0
    9.7791  -21.2494   17.0531 C   0  0  0  0  0  0  0  0  0  0  0  0
    8.5843  -21.9064   17.2265 C   0  0  0  0  0  0  0  0  0  0  0  0
    8.3121  -22.6304   16.1078 N   0  0  0  0  0  0  0  0  0  0  0  0
    9.3258  -22.4224   15.2562 C   0  0  0  0  0  0  0  0  0  0  0  0
   10.2155  -21.5795   15.8404 N   0  0  0  0  0  0  0  0  0  0  0  0
   10.5123  -18.0002   18.7867 C   0  0  0  0  0  0  0  0  0  0  0  0
   11.6916  -17.8946   19.1768 O   0  0  0  0  0  0  0  0  0  0  0  0
    9.5465  -17.2060   19.4956 N   0  0  0  0  0  0  0  0  0  0  0  0
    9.8996  -16.3804   20.6187 C   0  0  1  0  0  0  0  0  0  0  0  0
    8.6871  -15.4702   20.8760 C   0  0  0  0  0  0  0  0  0  0  0  0
    8.6437  -14.4532   19.7702 C   0  0  0  0  0  0  0  0  0  0  0  0
    7.3914  -13.6076   19.8503 C   0  0  0  0  0  0  0  0  0  0  0  0
    7.3298  -12.7105   18.6566 C   0  0  0  0  0  0  0  0  0  0  0  0
    6.1113  -11.9103   18.7649 N   0  0  0  0  0  0  0  0  0  0  0  0
   10.2781  -17.1188   21.8196 C   0  0  0  0  0  0  0  0  0  0  0  0
    9.7379  -18.2100   22.1335 O   0  0  0  0  0  0  0  0  0  0  0  0
   11.2849  -16.6195   22.6855 N   0  0  0  0  0  0  0  0  0  0  0  0
   11.6769  -17.3848   23.8502 C   0  0  1  0  0  0  0  0  0  0  0  0
   13.1642  -17.3054   23.9960 C   0  0  0  0  0  0  0  0  0  0  0  0
   13.6935  -18.2161   25.4763 S   0  0  0  0  0  0  0  0  0  0  0  0
   11.0233  -16.8992   25.0823 C   0  0  0  0  0  0  0  0  0  0  0  0
   10.3706  -15.8317   25.0236 O   0  0  0  0  0  0  0  0  0  0  0  0
   11.1070  -17.5735   26.2789 O   0  0  0  0  0  0  0  0  0  0  0  0
  2  1  1  6
  3  2  1  0
  4  3  1  0
  5  4  2  0
  6  7  1  0
  6  5  1  0
  7  8  2  0
  8  4  1  0
  9  2  1  0
  9 11  1  0
 10  9  2  0
 12 11  1  0
 12 13  1  1
 13 14  1  0
 14 15  1  0
 15 16  1  0
 17 16  1  0
 18 12  1  0
 19 18  2  0
 20 18  1  0
 21 20  1  0
 21 22  1  1
 22 23  1  0
 24 21  1  0
 25 24  2  0
 26 24  1  0
M  END
$$$$
