HKC.pdb
     RDKit          3D

 26 26  0  0  1  0  0  0  0  0999 V2000
    7.0961  -20.4428   23.4733 N   0  0  0  0  0  0  0  0  0  0  0  0
    6.6158  -19.2092   24.0634 C   0  0  1  0  0  0  0  0  0  0  0  0
    6.8863  -19.3093   25.5684 C   0  0  0  0  0  0  0  0  0  0  0  0
    6.1908  -20.4855   26.1420 C   0  0  0  0  0  0  0  0  0  0  0  0
    5.4874  -21.4456   25.4547 C   0  0  0  0  0  0  0  0  0  0  0  0
    5.0012  -22.3558   26.3407 N   0  0  0  0  0  0  0  0  0  0  0  0
    5.3998  -21.9618   27.5580 C   0  0  0  0  0  0  0  0  0  0  0  0
    6.1243  -20.8209   27.4277 N   0  0  0  0  0  0  0  0  0  0  0  0
    7.3371  -18.0880   23.4656 C   0  0  0  0  0  0  0  0  0  0  0  0
    8.5833  -18.0780   23.4311 O   0  0  0  0  0  0  0  0  0  0  0  0
    6.6871  -16.9436   22.8879 N   0  0  0  0  0  0  0  0  0  0  0  0
    7.3519  -15.6796   22.7212 C   0  0  1  0  0  0  0  0  0  0  0  0
    6.4251  -14.8237   21.8417 C   0  0  0  0  0  0  0  0  0  0  0  0
    7.2532  -13.7108   21.2631 C   0  0  0  0  0  0  0  0  0  0  0  0
    7.6501  -14.0076   19.8334 C   0  0  0  0  0  0  0  0  0  0  0  0
    8.5093  -12.8961   19.3236 C   0  0  0  0  0  0  0  0  0  0  0  0
    8.8620  -13.2065   17.9394 N   0  0  0  0  0  0  0  0  0  0  0  0
    7.6833  -14.9987   23.9692 C   0  0  0  0  0  0  0  0  0  0  0  0
    6.9588  -14.0903   24.4497 O   0  0  0  0  0  0  0  0  0  0  0  0
    8.8536  -15.3470   24.6915 N   0  0  0  0  0  0  0  0  0  0  0  0
    9.2868  -14.5230   25.8003 C   0  0  1  0  0  0  0  0  0  0  0  0
    8.2036  -14.5032   26.8328 C   0  0  0  0  0  0  0  0  0  0  0  0
    8.7945  -13.6755   28.3383 S   0  0  0  0  0  0  0  0  0  0  0  0
   10.5452  -15.0113   26.3995 C   0  0  0  0  0  0  0  0  0  0  0  0
   11.0249  -16.0865   25.9722 O   0  0  0  0  0  0  0  0  0  0  0  0
   11.2003  -14.3312   27.4004 O   0  0  0  0  0  0  0  0  0  0  0  0
  2  1  1  6
  3  2  1  0
  4  3  1  0
  5  4  2  0
  6  7  1  0
  6  5  1  0
  7  8  2  0
  8  4  1  0
  9  2  1  0
  9 11  1  0
 10  9  2  0
 12 11  1  0
 12 13  1  6
 13 14  1  0
 14 15  1  0
 15 16  1  0
 17 16  1  0
 18 12  1  0
 19 18  2  0
 20 18  1  0
 21 20  1  0
 21 22  1  1
 22 23  1  0
 24 21  1  0
 25 24  2  0
 26 24  1  0
M  END
$$$$
