HKC.pdb
     RDKit          3D

 26 26  0  0  1  0  0  0  0  0999 V2000
    8.8799  -16.0586   19.7986 N   0  0  0  0  0  0  0  0  0  0  0  0
    7.8385  -15.1022   20.1175 C   0  0  1  0  0  0  0  0  0  0  0  0
    6.7098  -15.3304   19.1064 C   0  0  0  0  0  0  0  0  0  0  0  0
    7.0983  -14.8152   17.7723 C   0  0  0  0  0  0  0  0  0  0  0  0
    8.3222  -14.3073   17.4071 C   0  0  0  0  0  0  0  0  0  0  0  0
    8.2758  -13.9421   16.0978 N   0  0  0  0  0  0  0  0  0  0  0  0
    7.0397  -14.2212   15.6619 C   0  0  0  0  0  0  0  0  0  0  0  0
    6.3286  -14.7531   16.6890 N   0  0  0  0  0  0  0  0  0  0  0  0
    7.3841  -15.3382   21.4859 C   0  0  0  0  0  0  0  0  0  0  0  0
    6.3963  -14.7302   21.9429 O   0  0  0  0  0  0  0  0  0  0  0  0
    8.0203  -16.2613   22.3854 N   0  0  0  0  0  0  0  0  0  0  0  0
    7.5916  -16.4332   23.7471 C   0  0  1  0  0  0  0  0  0  0  0  0
    8.1927  -17.7683   24.2174 C   0  0  0  0  0  0  0  0  0  0  0  0
    7.7593  -17.9816   25.6407 C   0  0  0  0  0  0  0  0  0  0  0  0
    8.2192  -19.3267   26.1592 C   0  0  0  0  0  0  0  0  0  0  0  0
    7.7305  -19.5039   27.5604 C   0  0  0  0  0  0  0  0  0  0  0  0
    8.2799  -20.7602   28.0670 N   0  0  0  0  0  0  0  0  0  0  0  0
    7.9563  -15.3384   24.6411 C   0  0  0  0  0  0  0  0  0  0  0  0
    9.1310  -14.8960   24.7142 O   0  0  0  0  0  0  0  0  0  0  0  0
    6.9795  -14.7288   25.4699 N   0  0  0  0  0  0  0  0  0  0  0  0
    7.3560  -13.6358   26.3414 C   0  0  1  0  0  0  0  0  0  0  0  0
    6.1363  -12.8226   26.6425 C   0  0  0  0  0  0  0  0  0  0  0  0
    6.5444  -11.5030   27.8227 S   0  0  0  0  0  0  0  0  0  0  0  0
    7.9679  -14.1108   27.5989 C   0  0  0  0  0  0  0  0  0  0  0  0
    7.7466  -15.2911   27.9547 O   0  0  0  0  0  0  0  0  0  0  0  0
    8.7640  -13.3080   28.3832 O   0  0  0  0  0  0  0  0  0  0  0  0
  2  1  1  6
  3  2  1  0
  4  3  1  0
  5  4  2  0
  6  7  1  0
  6  5  1  0
  7  8  2  0
  8  4  1  0
  9  2  1  0
  9 11  1  0
 10  9  2  0
 12 11  1  0
 12 13  1  1
 13 14  1  0
 14 15  1  0
 15 16  1  0
 17 16  1  0
 18 12  1  0
 19 18  2  0
 20 18  1  0
 21 20  1  0
 21 22  1  1
 22 23  1  0
 24 21  1  0
 25 24  2  0
 26 24  1  0
M  END
$$$$
