HKC.pdb
     RDKit          3D

 26 26  0  0  1  0  0  0  0  0999 V2000
    9.5279  -15.4159   19.1857 N   0  0  0  0  0  0  0  0  0  0  0  0
    8.2787  -14.8317   19.6319 C   0  0  1  0  0  0  0  0  0  0  0  0
    7.1768  -15.4265   18.7487 C   0  0  0  0  0  0  0  0  0  0  0  0
    7.3113  -14.9396   17.3554 C   0  0  0  0  0  0  0  0  0  0  0  0
    8.3253  -14.1645   16.8454 C   0  0  0  0  0  0  0  0  0  0  0  0
    8.0832  -13.9323   15.5274 N   0  0  0  0  0  0  0  0  0  0  0  0
    6.9353  -14.5561   15.2290 C   0  0  0  0  0  0  0  0  0  0  0  0
    6.4716  -15.1676   16.3491 N   0  0  0  0  0  0  0  0  0  0  0  0
    8.0754  -15.1704   21.0385 C   0  0  0  0  0  0  0  0  0  0  0  0
    7.0325  -14.8308   21.6312 O   0  0  0  0  0  0  0  0  0  0  0  0
    9.0319  -15.8993   21.8257 N   0  0  0  0  0  0  0  0  0  0  0  0
    8.8280  -16.1848   23.2202 C   0  0  1  0  0  0  0  0  0  0  0  0
    9.9043  -17.2133   23.6060 C   0  0  0  0  0  0  0  0  0  0  0  0
    9.7626  -17.4840   25.0777 C   0  0  0  0  0  0  0  0  0  0  0  0
   10.7324  -18.5515   25.5357 C   0  0  0  0  0  0  0  0  0  0  0  0
   10.6265  -18.7047   27.0186 C   0  0  0  0  0  0  0  0  0  0  0  0
   11.6339  -19.6775   27.4376 N   0  0  0  0  0  0  0  0  0  0  0  0
    8.8700  -15.0147   24.0919 C   0  0  0  0  0  0  0  0  0  0  0  0
    9.8389  -14.2134   24.0917 O   0  0  0  0  0  0  0  0  0  0  0  0
    7.7999  -14.7404   24.9821 N   0  0  0  0  0  0  0  0  0  0  0  0
    7.8870  -13.6130   25.8861 C   0  0  1  0  0  0  0  0  0  0  0  0
    6.6023  -12.8480   25.8213 C   0  0  0  0  0  0  0  0  0  0  0  0
    6.5823  -11.5567   27.0991 S   0  0  0  0  0  0  0  0  0  0  0  0
    8.1539  -14.0326   27.2767 C   0  0  0  0  0  0  0  0  0  0  0  0
    7.8384  -15.1970   27.6134 O   0  0  0  0  0  0  0  0  0  0  0  0
    8.7312  -13.1956   28.2038 O   0  0  0  0  0  0  0  0  0  0  0  0
  2  1  1  6
  3  2  1  0
  4  3  1  0
  5  4  2  0
  6  7  1  0
  6  5  1  0
  7  8  2  0
  8  4  1  0
  9  2  1  0
  9 11  1  0
 10  9  2  0
 12 11  1  0
 12 13  1  1
 13 14  1  0
 14 15  1  0
 15 16  1  0
 17 16  1  0
 18 12  1  0
 19 18  2  0
 20 18  1  0
 21 20  1  0
 21 22  1  1
 22 23  1  0
 24 21  1  0
 25 24  2  0
 26 24  1  0
M  END
$$$$
