HKC.pdb
     RDKit          3D

 26 26  0  0  1  0  0  0  0  0999 V2000
    7.5653  -16.7420   19.8895 N   0  0  0  0  0  0  0  0  0  0  0  0
    8.2847  -15.7667   20.6846 C   0  0  1  0  0  0  0  0  0  0  0  0
    7.5994  -14.4168   20.4472 C   0  0  0  0  0  0  0  0  0  0  0  0
    7.8986  -13.9173   19.0844 C   0  0  0  0  0  0  0  0  0  0  0  0
    8.7121  -14.5089   18.1477 C   0  0  0  0  0  0  0  0  0  0  0  0
    8.7258  -13.7399   17.0260 N   0  0  0  0  0  0  0  0  0  0  0  0
    7.9313  -12.6883   17.2682 C   0  0  0  0  0  0  0  0  0  0  0  0
    7.4312  -12.8043   18.5251 N   0  0  0  0  0  0  0  0  0  0  0  0
    8.2151  -16.1600   22.0900 C   0  0  0  0  0  0  0  0  0  0  0  0
    7.1183  -16.2283   22.6788 O   0  0  0  0  0  0  0  0  0  0  0  0
    9.3697  -16.4889   22.8802 N   0  0  0  0  0  0  0  0  0  0  0  0
    9.2785  -16.8482   24.2695 C   0  0  1  0  0  0  0  0  0  0  0  0
   10.1091  -18.1322   24.4327 C   0  0  0  0  0  0  0  0  0  0  0  0
    9.3626  -19.2424   23.7479 C   0  0  0  0  0  0  0  0  0  0  0  0
   10.0080  -20.5848   24.0148 C   0  0  0  0  0  0  0  0  0  0  0  0
    9.1795  -21.6592   23.3882 C   0  0  0  0  0  0  0  0  0  0  0  0
    9.8285  -22.9392   23.6654 N   0  0  0  0  0  0  0  0  0  0  0  0
    9.7154  -15.8078   25.1955 C   0  0  0  0  0  0  0  0  0  0  0  0
   10.7090  -15.0744   24.9591 O   0  0  0  0  0  0  0  0  0  0  0  0
    9.0202  -15.5877   26.4125 N   0  0  0  0  0  0  0  0  0  0  0  0
    9.4270  -14.5095   27.2888 C   0  0  1  0  0  0  0  0  0  0  0  0
    8.2073  -13.7555   27.7169 C   0  0  0  0  0  0  0  0  0  0  0  0
    7.7868  -12.4967   26.4762 S   0  0  0  0  0  0  0  0  0  0  0  0
   10.1579  -15.0004   28.4746 C   0  0  0  0  0  0  0  0  0  0  0  0
   10.2498  -16.2383   28.6413 O   0  0  0  0  0  0  0  0  0  0  0  0
   10.7345  -14.1518   29.3915 O   0  0  0  0  0  0  0  0  0  0  0  0
  2  1  1  6
  3  2  1  0
  4  3  1  0
  5  4  2  0
  6  7  1  0
  6  5  1  0
  7  8  2  0
  8  4  1  0
  9  2  1  0
  9 11  1  0
 10  9  2  0
 12 11  1  0
 12 13  1  6
 13 14  1  0
 14 15  1  0
 15 16  1  0
 17 16  1  0
 18 12  1  0
 19 18  2  0
 20 18  1  0
 21 20  1  0
 21 22  1  1
 22 23  1  0
 24 21  1  0
 25 24  2  0
 26 24  1  0
M  END
$$$$
