HKC.pdb
     RDKit          3D

 26 26  0  0  1  0  0  0  0  0999 V2000
   10.1331  -16.8199   19.5062 N   0  0  0  0  0  0  0  0  0  0  0  0
   10.6726  -17.2407   20.7840 C   0  0  1  0  0  0  0  0  0  0  0  0
   12.1351  -16.7839   20.8137 C   0  0  0  0  0  0  0  0  0  0  0  0
   12.9732  -17.6774   19.9797 C   0  0  0  0  0  0  0  0  0  0  0  0
   12.5581  -18.7879   19.2842 C   0  0  0  0  0  0  0  0  0  0  0  0
   13.6273  -19.3334   18.6446 N   0  0  0  0  0  0  0  0  0  0  0  0
   14.6872  -18.5692   18.9420 C   0  0  0  0  0  0  0  0  0  0  0  0
   14.2796  -17.5622   19.7563 N   0  0  0  0  0  0  0  0  0  0  0  0
    9.8971  -16.6153   21.8526 C   0  0  0  0  0  0  0  0  0  0  0  0
   10.0345  -15.4042   22.1146 O   0  0  0  0  0  0  0  0  0  0  0  0
    8.9439  -17.3248   22.6612 N   0  0  0  0  0  0  0  0  0  0  0  0
    8.1891  -16.6864   23.7054 C   0  0  1  0  0  0  0  0  0  0  0  0
    7.1346  -17.7111   24.1561 C   0  0  0  0  0  0  0  0  0  0  0  0
    6.2353  -17.9790   22.9819 C   0  0  0  0  0  0  0  0  0  0  0  0
    5.2887  -19.1250   23.2652 C   0  0  0  0  0  0  0  0  0  0  0  0
    4.5044  -19.4284   22.0297 C   0  0  0  0  0  0  0  0  0  0  0  0
    3.6062  -20.5403   22.3356 N   0  0  0  0  0  0  0  0  0  0  0  0
    8.9896  -16.2133   24.8306 C   0  0  0  0  0  0  0  0  0  0  0  0
    9.9974  -16.8398   25.2465 O   0  0  0  0  0  0  0  0  0  0  0  0
    8.6495  -15.0106   25.5020 N   0  0  0  0  0  0  0  0  0  0  0  0
    9.4210  -14.5847   26.6506 C   0  0  1  0  0  0  0  0  0  0  0  0
    9.1264  -13.1416   26.9158 C   0  0  0  0  0  0  0  0  0  0  0  0
    7.3717  -12.7959   26.5955 S   0  0  0  0  0  0  0  0  0  0  0  0
    9.1219  -15.3891   27.8525 C   0  0  0  0  0  0  0  0  0  0  0  0
    9.7817  -15.1642   28.8931 O   0  0  0  0  0  0  0  0  0  0  0  0
    8.1532  -16.3663   27.8662 O   0  0  0  0  0  0  0  0  0  0  0  0
  2  1  1  6
  3  2  1  0
  4  3  1  0
  5  4  2  0
  6  7  1  0
  6  5  1  0
  7  8  2  0
  8  4  1  0
  9  2  1  0
  9 11  1  0
 10  9  2  0
 12 11  1  0
 12 13  1  1
 13 14  1  0
 14 15  1  0
 15 16  1  0
 17 16  1  0
 18 12  1  0
 19 18  2  0
 20 18  1  0
 21 20  1  0
 21 22  1  1
 22 23  1  0
 24 21  1  0
 25 24  2  0
 26 24  1  0
M  END
$$$$
