HKC.pdb
     RDKit          3D

 26 26  0  0  1  0  0  0  0  0999 V2000
    7.2487  -16.8012   19.3000 N   0  0  0  0  0  0  0  0  0  0  0  0
    8.1314  -15.8639   19.9656 C   0  0  1  0  0  0  0  0  0  0  0  0
    7.7650  -14.4707   19.4433 C   0  0  0  0  0  0  0  0  0  0  0  0
    8.0970  -14.3540   18.0037 C   0  0  0  0  0  0  0  0  0  0  0  0
    7.4167  -13.6285   17.0551 C   0  0  0  0  0  0  0  0  0  0  0  0
    8.0377  -13.7794   15.8546 N   0  0  0  0  0  0  0  0  0  0  0  0
    9.0870  -14.5872   16.0606 C   0  0  0  0  0  0  0  0  0  0  0  0
    9.1156  -14.9327   17.3733 N   0  0  0  0  0  0  0  0  0  0  0  0
    7.9243  -15.9638   21.4084 C   0  0  0  0  0  0  0  0  0  0  0  0
    6.7815  -15.8629   21.8964 O   0  0  0  0  0  0  0  0  0  0  0  0
    8.9886  -16.1795   22.3500 N   0  0  0  0  0  0  0  0  0  0  0  0
    8.7555  -16.3136   23.7625 C   0  0  1  0  0  0  0  0  0  0  0  0
    9.8730  -17.2270   24.2937 C   0  0  0  0  0  0  0  0  0  0  0  0
    9.6534  -17.3962   25.7709 C   0  0  0  0  0  0  0  0  0  0  0  0
   10.6803  -18.3285   26.3758 C   0  0  0  0  0  0  0  0  0  0  0  0
   10.3227  -18.5903   27.8030 C   0  0  0  0  0  0  0  0  0  0  0  0
   11.3286  -19.4967   28.3539 N   0  0  0  0  0  0  0  0  0  0  0  0
    8.7057  -15.0504   24.4922 C   0  0  0  0  0  0  0  0  0  0  0  0
    9.6489  -14.2196   24.4590 O   0  0  0  0  0  0  0  0  0  0  0  0
    7.5713  -14.7146   25.2754 N   0  0  0  0  0  0  0  0  0  0  0  0
    7.5768  -13.5028   26.0673 C   0  0  1  0  0  0  0  0  0  0  0  0
    6.1701  -13.0080   26.1937 C   0  0  0  0  0  0  0  0  0  0  0  0
    6.1153  -11.5638   27.2946 S   0  0  0  0  0  0  0  0  0  0  0  0
    8.1585  -13.7155   27.4081 C   0  0  0  0  0  0  0  0  0  0  0  0
    8.1486  -14.8761   27.8790 O   0  0  0  0  0  0  0  0  0  0  0  0
    8.7045  -12.6920   28.1481 O   0  0  0  0  0  0  0  0  0  0  0  0
  2  1  1  6
  3  2  1  0
  4  3  1  0
  5  4  2  0
  6  7  1  0
  6  5  1  0
  7  8  2  0
  8  4  1  0
  9  2  1  0
  9 11  1  0
 10  9  2  0
 12 11  1  0
 12 13  1  1
 13 14  1  0
 14 15  1  0
 15 16  1  0
 17 16  1  0
 18 12  1  0
 19 18  2  0
 20 18  1  0
 21 20  1  0
 21 22  1  1
 22 23  1  0
 24 21  1  0
 25 24  2  0
 26 24  1  0
M  END
$$$$
