HKC.pdb
     RDKit          3D

 26 26  0  0  1  0  0  0  0  0999 V2000
    9.5557  -18.6496   18.7713 N   0  0  0  0  0  0  0  0  0  0  0  0
    8.4855  -18.1395   19.6052 C   0  0  1  0  0  0  0  0  0  0  0  0
    8.0731  -19.2840   20.5370 C   0  0  0  0  0  0  0  0  0  0  0  0
    9.2701  -19.9974   21.0415 C   0  0  0  0  0  0  0  0  0  0  0  0
   10.5747  -19.7948   20.6593 C   0  0  0  0  0  0  0  0  0  0  0  0
   11.3755  -20.6471   21.3535 N   0  0  0  0  0  0  0  0  0  0  0  0
   10.5750  -21.3655   22.1529 C   0  0  0  0  0  0  0  0  0  0  0  0
    9.2933  -20.9630   21.9563 N   0  0  0  0  0  0  0  0  0  0  0  0
    8.9816  -16.9906   20.3592 C   0  0  0  0  0  0  0  0  0  0  0  0
   10.1878  -16.8994   20.6610 O   0  0  0  0  0  0  0  0  0  0  0  0
    8.1443  -15.9084   20.7990 N   0  0  0  0  0  0  0  0  0  0  0  0
    8.6545  -14.7908   21.5461 C   0  0  1  0  0  0  0  0  0  0  0  0
    7.5930  -13.6836   21.4345 C   0  0  0  0  0  0  0  0  0  0  0  0
    7.0990  -13.6737   20.0150 C   0  0  0  0  0  0  0  0  0  0  0  0
    8.2314  -13.4314   19.0410 C   0  0  0  0  0  0  0  0  0  0  0  0
    7.6793  -13.3747   17.6534 C   0  0  0  0  0  0  0  0  0  0  0  0
    8.8089  -13.2990   16.7287 N   0  0  0  0  0  0  0  0  0  0  0  0
    8.9735  -15.0869   22.9394 C   0  0  0  0  0  0  0  0  0  0  0  0
    9.4540  -14.2219   23.7153 O   0  0  0  0  0  0  0  0  0  0  0  0
    8.7473  -16.3827   23.4709 N   0  0  0  0  0  0  0  0  0  0  0  0
    9.0426  -16.6513   24.8625 C   0  0  1  0  0  0  0  0  0  0  0  0
    7.8647  -17.3404   25.4767 C   0  0  0  0  0  0  0  0  0  0  0  0
    6.4999  -16.1617   25.6973 S   0  0  0  0  0  0  0  0  0  0  0  0
   10.2533  -17.4813   25.0255 C   0  0  0  0  0  0  0  0  0  0  0  0
   10.8891  -17.8071   23.9968 O   0  0  0  0  0  0  0  0  0  0  0  0
   10.7003  -17.9033   26.2566 O   0  0  0  0  0  0  0  0  0  0  0  0
  2  1  1  6
  3  2  1  0
  4  3  1  0
  5  4  2  0
  6  7  1  0
  6  5  1  0
  7  8  2  0
  8  4  1  0
  9  2  1  0
  9 11  1  0
 10  9  2  0
 12 11  1  0
 12 13  1  1
 13 14  1  0
 14 15  1  0
 15 16  1  0
 17 16  1  0
 18 12  1  0
 19 18  2  0
 20 18  1  0
 21 20  1  0
 21 22  1  6
 22 23  1  0
 24 21  1  0
 25 24  2  0
 26 24  1  0
M  END
$$$$
