HKC.pdb
     RDKit          3D

 26 26  0  0  1  0  0  0  0  0999 V2000
   10.5408  -15.5570   18.3826 N   0  0  0  0  0  0  0  0  0  0  0  0
   10.9378  -15.3305   19.7580 C   0  0  1  0  0  0  0  0  0  0  0  0
   11.8399  -14.0918   19.7551 C   0  0  0  0  0  0  0  0  0  0  0  0
   13.2341  -14.4679   19.4220 C   0  0  0  0  0  0  0  0  0  0  0  0
   13.7233  -15.7376   19.2274 C   0  0  0  0  0  0  0  0  0  0  0  0
   15.0504  -15.6602   18.9401 N   0  0  0  0  0  0  0  0  0  0  0  0
   15.3748  -14.3601   18.9573 C   0  0  0  0  0  0  0  0  0  0  0  0
   14.2618  -13.6404   19.2519 N   0  0  0  0  0  0  0  0  0  0  0  0
    9.7395  -15.1153   20.5657 C   0  0  0  0  0  0  0  0  0  0  0  0
    8.8730  -14.2914   20.2129 O   0  0  0  0  0  0  0  0  0  0  0  0
    9.4732  -15.8149   21.7927 N   0  0  0  0  0  0  0  0  0  0  0  0
    8.2688  -15.6128   22.5518 C   0  0  1  0  0  0  0  0  0  0  0  0
    7.6973  -17.0143   22.8247 C   0  0  0  0  0  0  0  0  0  0  0  0
    7.1305  -17.5299   21.5316 C   0  0  0  0  0  0  0  0  0  0  0  0
    6.6338  -18.9517   21.6778 C   0  0  0  0  0  0  0  0  0  0  0  0
    6.0200  -19.3904   20.3877 C   0  0  0  0  0  0  0  0  0  0  0  0
    5.5951  -20.7799   20.5478 N   0  0  0  0  0  0  0  0  0  0  0  0
    8.4502  -14.8595   23.7888 C   0  0  0  0  0  0  0  0  0  0  0  0
    9.5044  -14.9335   24.4701 O   0  0  0  0  0  0  0  0  0  0  0  0
    7.4245  -14.0052   24.2695 N   0  0  0  0  0  0  0  0  0  0  0  0
    7.5324  -13.4242   25.5911 C   0  0  1  0  0  0  0  0  0  0  0  0
    6.3490  -12.5374   25.8215 C   0  0  0  0  0  0  0  0  0  0  0  0
    6.4366  -11.8019   27.4804 S   0  0  0  0  0  0  0  0  0  0  0  0
    7.6044  -14.4530   26.6483 C   0  0  0  0  0  0  0  0  0  0  0  0
    6.8213  -15.4279   26.5782 O   0  0  0  0  0  0  0  0  0  0  0  0
    8.4936  -14.3761   27.6955 O   0  0  0  0  0  0  0  0  0  0  0  0
  2  1  1  6
  3  2  1  0
  4  3  1  0
  5  4  2  0
  6  7  1  0
  6  5  1  0
  7  8  2  0
  8  4  1  0
  9  2  1  0
  9 11  1  0
 10  9  2  0
 12 11  1  0
 12 13  1  1
 13 14  1  0
 14 15  1  0
 15 16  1  0
 17 16  1  0
 18 12  1  0
 19 18  2  0
 20 18  1  0
 21 20  1  0
 21 22  1  1
 22 23  1  0
 24 21  1  0
 25 24  2  0
 26 24  1  0
M  END
$$$$
