SEL.pdb
     RDKit          3D

 24 23  0  0  1  0  0  0  0  0999 V2000
    8.9413  -12.6372   18.2913 O   0  0  0  0  0  0  0  0  0  0  0  0
    8.5052  -13.4027   19.3709 C   0  0  0  0  0  0  0  0  0  0  0  0
    8.8078  -14.8540   19.0646 C   0  0  2  0  0  0  0  0  0  0  0  0
    7.8898  -15.3299   18.0605 N   0  0  0  0  0  0  0  0  0  0  0  0
    8.5913  -15.6309   20.3128 C   0  0  0  0  0  0  0  0  0  0  0  0
    7.4227  -16.1001   20.5293 O   0  0  0  0  0  0  0  0  0  0  0  0
    9.6540  -15.8329   21.2166 N   0  0  0  0  0  0  0  0  0  0  0  0
    9.5543  -16.5571   22.4545 C   0  0  1  0  0  0  0  0  0  0  0  0
   10.4403  -17.7393   22.5865 C   0  0  0  0  0  0  0  0  0  0  0  0
   11.9094  -17.4145   22.4468 C   0  0  0  0  0  0  0  0  0  0  0  0
   12.6075  -18.4836   21.6686 C   0  0  0  0  0  0  0  0  0  0  0  0
   12.5369  -19.6774   22.0592 O   0  0  0  0  0  0  0  0  0  0  0  0
    9.5501  -15.6648   23.6629 C   0  0  0  0  0  0  0  0  0  0  0  0
   10.3651  -14.7222   23.7697 O   0  0  0  0  0  0  0  0  0  0  0  0
   13.3266  -18.1677   20.5286 O   0  0  0  0  0  0  0  0  0  0  0  0
    8.0780  -12.3585   27.2950 C   0  0  0  0  0  0  0  0  0  0  0  0
    7.2280  -12.7780   26.1338 C   0  0  2  0  0  0  0  0  0  0  0  0
    5.8265  -12.2599   26.1854 C   0  0  0  0  0  0  0  0  0  0  0  0
    7.3279  -14.2114   25.7882 C   0  0  0  0  0  0  0  0  0  0  0  0
    8.6192  -14.9123   25.8896 C   0  0  2  0  0  0  0  0  0  0  0  0
    8.6397  -15.8431   24.7220 N   0  0  0  0  0  0  0  0  0  0  0  0
    8.7853  -15.6698   27.1220 C   0  0  0  0  0  0  0  0  0  0  0  0
    9.4978  -15.1401   28.0405 O   0  0  0  0  0  0  0  0  0  0  0  0
    8.2590  -16.8952   27.4250 O   0  0  0  0  0  0  0  0  0  0  0  0
  2  3  1  0
  2  1  1  0
  3  4  1  6
  5  3  1  0
  5  6  2  0
  7  5  1  0
  8  7  1  0
  8 13  1  0
  8  9  1  1
 10  9  1  0
 10 11  1  0
 11 12  2  0
 13 21  1  0
 14 13  2  0
 15 11  1  0
 17 18  1  1
 17 16  1  0
 19 17  1  0
 20 19  1  1
 21 20  1  0
 22 24  1  0
 22 20  1  0
 23 22  2  0
M  END
$$$$
