SEL.pdb
     RDKit          3D

 24 23  0  0  1  0  0  0  0  0999 V2000
   11.0693  -22.3050   26.5834 O   0  0  0  0  0  0  0  0  0  0  0  0
   11.0199  -20.9128   26.5533 C   0  0  0  0  0  0  0  0  0  0  0  0
   12.3261  -20.4133   25.9735 C   0  0  2  0  0  0  0  0  0  0  0  0
   13.3529  -20.4851   26.9824 N   0  0  0  0  0  0  0  0  0  0  0  0
   12.1329  -18.9900   25.5925 C   0  0  0  0  0  0  0  0  0  0  0  0
   12.5345  -18.0931   26.4093 O   0  0  0  0  0  0  0  0  0  0  0  0
   11.5242  -18.6600   24.3646 N   0  0  0  0  0  0  0  0  0  0  0  0
   11.0291  -17.3560   24.0164 C   0  0  1  0  0  0  0  0  0  0  0  0
   10.8280  -17.1049   22.5685 C   0  0  0  0  0  0  0  0  0  0  0  0
   12.0898  -17.2412   21.7486 C   0  0  0  0  0  0  0  0  0  0  0  0
   11.7976  -17.0095   20.3005 C   0  0  0  0  0  0  0  0  0  0  0  0
   11.9987  -15.8710   19.8046 O   0  0  0  0  0  0  0  0  0  0  0  0
    9.8788  -16.9119   24.8742 C   0  0  0  0  0  0  0  0  0  0  0  0
    8.9417  -17.6932   25.1491 O   0  0  0  0  0  0  0  0  0  0  0  0
   11.3098  -18.0351   19.5088 O   0  0  0  0  0  0  0  0  0  0  0  0
   10.2325  -15.3216   28.9064 C   0  0  0  0  0  0  0  0  0  0  0  0
   10.3372  -14.1944   27.9239 C   0  0  2  0  0  0  0  0  0  0  0  0
   10.8199  -12.9103   28.5184 C   0  0  0  0  0  0  0  0  0  0  0  0
    9.1645  -14.0443   27.0372 C   0  0  0  0  0  0  0  0  0  0  0  0
    8.6574  -15.1971   26.2738 C   0  0  2  0  0  0  0  0  0  0  0  0
    9.7993  -15.6101   25.4046 N   0  0  0  0  0  0  0  0  0  0  0  0
    7.4978  -14.8944   25.4468 C   0  0  0  0  0  0  0  0  0  0  0  0
    7.6921  -14.7805   24.1894 O   0  0  0  0  0  0  0  0  0  0  0  0
    6.2043  -14.7205   25.8558 O   0  0  0  0  0  0  0  0  0  0  0  0
  2  3  1  0
  2  1  1  0
  3  4  1  1
  5  3  1  0
  5  6  2  0
  7  5  1  0
  8  7  1  0
  8 13  1  0
  8  9  1  6
 10  9  1  0
 10 11  1  0
 11 12  2  0
 13 21  1  0
 14 13  2  0
 15 11  1  0
 17 18  1  1
 17 16  1  0
 19 17  1  0
 20 19  1  6
 21 20  1  0
 22 24  1  0
 22 20  1  0
 23 22  2  0
M  END
$$$$
