SEL.pdb
     RDKit          3D

 24 23  0  0  1  0  0  0  0  0999 V2000
    7.9283  -12.0785   20.7747 O   0  0  0  0  0  0  0  0  0  0  0  0
    8.7631  -12.6762   19.8325 C   0  0  0  0  0  0  0  0  0  0  0  0
    8.1832  -14.0322   19.4910 C   0  0  2  0  0  0  0  0  0  0  0  0
    6.8892  -13.8565   18.8809 N   0  0  0  0  0  0  0  0  0  0  0  0
    8.0110  -14.7802   20.7635 C   0  0  0  0  0  0  0  0  0  0  0  0
    6.8495  -14.7940   21.2959 O   0  0  0  0  0  0  0  0  0  0  0  0
    9.1064  -15.4470   21.3489 N   0  0  0  0  0  0  0  0  0  0  0  0
    9.0306  -16.2894   22.5114 C   0  0  1  0  0  0  0  0  0  0  0  0
    9.6974  -17.6095   22.3993 C   0  0  0  0  0  0  0  0  0  0  0  0
   11.2062  -17.5295   22.4128 C   0  0  0  0  0  0  0  0  0  0  0  0
   11.8014  -18.8950   22.2817 C   0  0  0  0  0  0  0  0  0  0  0  0
   12.2968  -19.2495   21.1809 O   0  0  0  0  0  0  0  0  0  0  0  0
    9.3368  -15.5621   23.7896 C   0  0  0  0  0  0  0  0  0  0  0  0
   10.4129  -14.9417   23.9351 O   0  0  0  0  0  0  0  0  0  0  0  0
   11.8092  -19.7649   23.3585 O   0  0  0  0  0  0  0  0  0  0  0  0
    8.4754  -11.9401   25.8508 C   0  0  0  0  0  0  0  0  0  0  0  0
    7.3551  -12.9326   25.9308 C   0  0  2  0  0  0  0  0  0  0  0  0
    6.0433  -12.3402   26.3354 C   0  0  0  0  0  0  0  0  0  0  0  0
    7.6951  -14.1839   26.6400 C   0  0  0  0  0  0  0  0  0  0  0  0
    8.8428  -14.9972   26.2037 C   0  0  2  0  0  0  0  0  0  0  0  0
    8.4387  -15.5431   24.8737 N   0  0  0  0  0  0  0  0  0  0  0  0
    9.1664  -16.0941   27.1048 C   0  0  0  0  0  0  0  0  0  0  0  0
    9.5975  -15.7861   28.2672 O   0  0  0  0  0  0  0  0  0  0  0  0
    9.0578  -17.4352   26.8589 O   0  0  0  0  0  0  0  0  0  0  0  0
  2  3  1  0
  2  1  1  0
  3  4  1  1
  5  3  1  0
  5  6  2  0
  7  5  1  0
  8  7  1  0
  8 13  1  0
  8  9  1  6
 10  9  1  0
 10 11  1  0
 11 12  2  0
 13 21  1  0
 14 13  2  0
 15 11  1  0
 17 18  1  1
 17 16  1  0
 19 17  1  0
 20 19  1  1
 21 20  1  0
 22 24  1  0
 22 20  1  0
 23 22  2  0
M  END
$$$$
