SEL.pdb
     RDKit          3D

 24 23  0  0  1  0  0  0  0  0999 V2000
    9.2568  -12.2778   20.6695 O   0  0  0  0  0  0  0  0  0  0  0  0
    8.0756  -12.4643   19.9542 C   0  0  0  0  0  0  0  0  0  0  0  0
    8.0416  -13.9012   19.4789 C   0  0  2  0  0  0  0  0  0  0  0  0
    6.8394  -14.1214   18.7147 N   0  0  0  0  0  0  0  0  0  0  0  0
    8.0054  -14.7716   20.6828 C   0  0  0  0  0  0  0  0  0  0  0  0
    6.8660  -15.0248   21.2030 O   0  0  0  0  0  0  0  0  0  0  0  0
    9.2008  -15.2917   21.2190 N   0  0  0  0  0  0  0  0  0  0  0  0
    9.2783  -16.1791   22.3474 C   0  0  1  0  0  0  0  0  0  0  0  0
   10.1772  -17.3486   22.1912 C   0  0  0  0  0  0  0  0  0  0  0  0
   10.1449  -18.2989   23.3655 C   0  0  0  0  0  0  0  0  0  0  0  0
   11.0558  -19.4595   23.1215 C   0  0  0  0  0  0  0  0  0  0  0  0
   12.0486  -19.6339   23.8743 O   0  0  0  0  0  0  0  0  0  0  0  0
    9.4419  -15.4593   23.6556 C   0  0  0  0  0  0  0  0  0  0  0  0
   10.5167  -14.8899   23.9469 O   0  0  0  0  0  0  0  0  0  0  0  0
   10.8134  -20.3362   22.0780 O   0  0  0  0  0  0  0  0  0  0  0  0
    7.8085  -11.8582   25.5286 C   0  0  0  0  0  0  0  0  0  0  0  0
    6.8289  -12.9902   25.6038 C   0  0  2  0  0  0  0  0  0  0  0  0
    5.4490  -12.5769   26.0044 C   0  0  0  0  0  0  0  0  0  0  0  0
    7.3290  -14.1866   26.3127 C   0  0  0  0  0  0  0  0  0  0  0  0
    8.6287  -14.7765   25.9499 C   0  0  2  0  0  0  0  0  0  0  0  0
    8.4063  -15.3908   24.6071 N   0  0  0  0  0  0  0  0  0  0  0  0
    9.0970  -15.7931   26.8813 C   0  0  0  0  0  0  0  0  0  0  0  0
    8.7962  -17.0067   26.6196 O   0  0  0  0  0  0  0  0  0  0  0  0
    9.8365  -15.6067   28.0166 O   0  0  0  0  0  0  0  0  0  0  0  0
  2  3  1  0
  2  1  1  0
  3  4  1  6
  5  3  1  0
  5  6  2  0
  7  5  1  0
  8  7  1  0
  8 13  1  0
  8  9  1  6
 10  9  1  0
 10 11  1  0
 11 12  2  0
 13 21  1  0
 14 13  2  0
 15 11  1  0
 17 18  1  1
 17 16  1  0
 19 17  1  0
 20 19  1  1
 21 20  1  0
 22 24  1  0
 22 20  1  0
 23 22  2  0
M  END
$$$$
