SEL.pdb
     RDKit          3D

 24 23  0  0  1  0  0  0  0  0999 V2000
    5.8130  -15.5717   20.3080 O   0  0  0  0  0  0  0  0  0  0  0  0
    6.7366  -15.8561   21.3119 C   0  0  0  0  0  0  0  0  0  0  0  0
    7.5097  -17.0897   20.8968 C   0  0  2  0  0  0  0  0  0  0  0  0
    6.6310  -18.2321   20.9196 N   0  0  0  0  0  0  0  0  0  0  0  0
    8.5890  -17.3004   21.8963 C   0  0  0  0  0  0  0  0  0  0  0  0
    8.4385  -18.2400   22.7491 O   0  0  0  0  0  0  0  0  0  0  0  0
    9.7349  -16.4794   21.8875 N   0  0  0  0  0  0  0  0  0  0  0  0
   10.8159  -16.5661   22.8312 C   0  0  1  0  0  0  0  0  0  0  0  0
   12.1243  -16.0436   22.3673 C   0  0  0  0  0  0  0  0  0  0  0  0
   12.4019  -16.3146   20.9070 C   0  0  0  0  0  0  0  0  0  0  0  0
   13.7569  -15.8058   20.5313 C   0  0  0  0  0  0  0  0  0  0  0  0
   13.8758  -14.6335   20.0907 O   0  0  0  0  0  0  0  0  0  0  0  0
   10.4350  -16.1085   24.2103 C   0  0  0  0  0  0  0  0  0  0  0  0
   11.2537  -16.1598   25.1545 O   0  0  0  0  0  0  0  0  0  0  0  0
   14.8732  -16.6137   20.6646 O   0  0  0  0  0  0  0  0  0  0  0  0
    5.8399  -12.7093   26.3545 C   0  0  0  0  0  0  0  0  0  0  0  0
    7.2112  -13.2795   26.5577 C   0  0  2  0  0  0  0  0  0  0  0  0
    8.3026  -12.2576   26.5579 C   0  0  0  0  0  0  0  0  0  0  0  0
    7.5049  -14.4743   25.7390 C   0  0  0  0  0  0  0  0  0  0  0  0
    8.7880  -15.1814   25.8893 C   0  0  2  0  0  0  0  0  0  0  0  0
    9.1534  -15.6054   24.5048 N   0  0  0  0  0  0  0  0  0  0  0  0
    8.7213  -16.3488   26.7569 C   0  0  0  0  0  0  0  0  0  0  0  0
    9.0442  -16.1843   27.9819 O   0  0  0  0  0  0  0  0  0  0  0  0
    8.3435  -17.6189   26.4183 O   0  0  0  0  0  0  0  0  0  0  0  0
  2  3  1  0
  2  1  1  0
  3  4  1  1
  5  3  1  0
  5  6  2  0
  7  5  1  0
  8  7  1  0
  8 13  1  0
  8  9  1  6
 10  9  1  0
 10 11  1  0
 11 12  2  0
 13 21  1  0
 14 13  2  0
 15 11  1  0
 17 18  1  6
 17 16  1  0
 19 17  1  0
 20 19  1  6
 21 20  1  0
 22 24  1  0
 22 20  1  0
 23 22  2  0
M  END
$$$$
