SEL.pdb
     RDKit          3D

 24 23  0  0  1  0  0  0  0  0999 V2000
    8.7963  -12.9558   20.6961 O   0  0  0  0  0  0  0  0  0  0  0  0
    7.6734  -13.5132   20.0876 C   0  0  0  0  0  0  0  0  0  0  0  0
    7.9180  -14.9991   19.9321 C   0  0  2  0  0  0  0  0  0  0  0  0
    6.8540  -15.5773   19.1502 N   0  0  0  0  0  0  0  0  0  0  0  0
    7.8922  -15.6028   21.2897 C   0  0  0  0  0  0  0  0  0  0  0  0
    6.7542  -15.7794   21.8435 O   0  0  0  0  0  0  0  0  0  0  0  0
    9.0955  -15.9626   21.9297 N   0  0  0  0  0  0  0  0  0  0  0  0
    9.1900  -16.5089   23.2561 C   0  0  1  0  0  0  0  0  0  0  0  0
   10.0095  -17.7376   23.3938 C   0  0  0  0  0  0  0  0  0  0  0  0
   10.0749  -18.5671   22.1326 C   0  0  0  0  0  0  0  0  0  0  0  0
   11.3218  -19.3922   22.1159 C   0  0  0  0  0  0  0  0  0  0  0  0
   11.7355  -19.8639   21.0254 O   0  0  0  0  0  0  0  0  0  0  0  0
    9.4731  -15.4709   24.3043 C   0  0  0  0  0  0  0  0  0  0  0  0
   10.4763  -14.7287   24.2207 O   0  0  0  0  0  0  0  0  0  0  0  0
   12.0179  -19.6381   23.2870 O   0  0  0  0  0  0  0  0  0  0  0  0
    7.8900  -11.7878   25.3376 C   0  0  0  0  0  0  0  0  0  0  0  0
    7.0755  -12.8792   25.9639 C   0  0  2  0  0  0  0  0  0  0  0  0
    5.7213  -12.4426   26.4232 C   0  0  0  0  0  0  0  0  0  0  0  0
    7.8088  -13.7025   26.9481 C   0  0  0  0  0  0  0  0  0  0  0  0
    9.0415  -14.4069   26.5566 C   0  0  2  0  0  0  0  0  0  0  0  0
    8.6336  -15.2843   25.4191 N   0  0  0  0  0  0  0  0  0  0  0  0
    9.6204  -15.2189   27.6175 C   0  0  0  0  0  0  0  0  0  0  0  0
    9.4540  -16.4832   27.5409 O   0  0  0  0  0  0  0  0  0  0  0  0
   10.3375  -14.7890   28.6999 O   0  0  0  0  0  0  0  0  0  0  0  0
  2  3  1  0
  2  1  1  0
  3  4  1  6
  5  3  1  0
  5  6  2  0
  7  5  1  0
  8  7  1  0
  8 13  1  0
  8  9  1  6
 10  9  1  0
 10 11  1  0
 11 12  2  0
 13 21  1  0
 14 13  2  0
 15 11  1  0
 17 18  1  1
 17 16  1  0
 19 17  1  0
 20 19  1  1
 21 20  1  0
 22 24  1  0
 22 20  1  0
 23 22  2  0
M  END
$$$$
