SEL.pdb
     RDKit          3D

 24 23  0  0  1  0  0  0  0  0999 V2000
    7.4967  -13.8373   20.4323 O   0  0  0  0  0  0  0  0  0  0  0  0
    7.8937  -14.2233   19.1535 C   0  0  0  0  0  0  0  0  0  0  0  0
    8.5370  -15.5896   19.2588 C   0  0  2  0  0  0  0  0  0  0  0  0
    7.9675  -16.4618   18.2625 N   0  0  0  0  0  0  0  0  0  0  0  0
    8.2183  -16.1334   20.6045 C   0  0  0  0  0  0  0  0  0  0  0  0
    7.0518  -16.6204   20.7912 O   0  0  0  0  0  0  0  0  0  0  0  0
    9.1856  -16.1039   21.6295 N   0  0  0  0  0  0  0  0  0  0  0  0
    9.0056  -16.6525   22.9461 C   0  0  1  0  0  0  0  0  0  0  0  0
    9.5279  -18.0254   23.1527 C   0  0  0  0  0  0  0  0  0  0  0  0
   10.9940  -18.1728   22.8184 C   0  0  0  0  0  0  0  0  0  0  0  0
   11.4496  -19.5728   23.0799 C   0  0  0  0  0  0  0  0  0  0  0  0
   12.6100  -19.7717   23.5235 O   0  0  0  0  0  0  0  0  0  0  0  0
    9.3730  -15.6930   24.0419 C   0  0  0  0  0  0  0  0  0  0  0  0
   10.4588  -15.0729   24.0171 O   0  0  0  0  0  0  0  0  0  0  0  0
   10.6064  -20.6436   22.8373 O   0  0  0  0  0  0  0  0  0  0  0  0
    7.8627  -11.8090   25.2170 C   0  0  0  0  0  0  0  0  0  0  0  0
    6.9978  -12.9222   25.7264 C   0  0  2  0  0  0  0  0  0  0  0  0
    5.6492  -12.4803   26.1967 C   0  0  0  0  0  0  0  0  0  0  0  0
    7.6804  -13.8558   26.6465 C   0  0  0  0  0  0  0  0  0  0  0  0
    8.9285  -14.5225   26.2381 C   0  0  2  0  0  0  0  0  0  0  0  0
    8.5236  -15.4470   25.1375 N   0  0  0  0  0  0  0  0  0  0  0  0
    9.5692  -15.2809   27.3032 C   0  0  0  0  0  0  0  0  0  0  0  0
    9.3740  -16.5433   27.3189 O   0  0  0  0  0  0  0  0  0  0  0  0
   10.3725  -14.8019   28.3011 O   0  0  0  0  0  0  0  0  0  0  0  0
  2  3  1  0
  2  1  1  0
  3  4  1  6
  5  3  1  0
  5  6  2  0
  7  5  1  0
  8  7  1  0
  8 13  1  0
  8  9  1  6
 10  9  1  0
 10 11  1  0
 11 12  2  0
 13 21  1  0
 14 13  2  0
 15 11  1  0
 17 18  1  1
 17 16  1  0
 19 17  1  0
 20 19  1  1
 21 20  1  0
 22 24  1  0
 22 20  1  0
 23 22  2  0
M  END
$$$$
