SEL.pdb
     RDKit          3D

 24 23  0  0  1  0  0  0  0  0999 V2000
    5.8790  -14.1439   20.6268 O   0  0  0  0  0  0  0  0  0  0  0  0
    6.6729  -14.7696   21.5859 C   0  0  0  0  0  0  0  0  0  0  0  0
    7.1390  -16.0914   21.0137 C   0  0  2  0  0  0  0  0  0  0  0  0
    6.0048  -16.9659   20.8507 N   0  0  0  0  0  0  0  0  0  0  0  0
    8.0723  -16.7017   21.9959 C   0  0  0  0  0  0  0  0  0  0  0  0
    7.6119  -17.6007   22.7787 O   0  0  0  0  0  0  0  0  0  0  0  0
    9.4191  -16.2887   22.0469 N   0  0  0  0  0  0  0  0  0  0  0  0
   10.3918  -16.7704   22.9895 C   0  0  1  0  0  0  0  0  0  0  0  0
   11.7700  -16.9406   22.4683 C   0  0  0  0  0  0  0  0  0  0  0  0
   11.8884  -18.0070   21.4044 C   0  0  0  0  0  0  0  0  0  0  0  0
   13.2860  -18.0623   20.8756 C   0  0  0  0  0  0  0  0  0  0  0  0
   13.6585  -17.2128   20.0257 O   0  0  0  0  0  0  0  0  0  0  0  0
   10.3278  -16.0685   24.3160 C   0  0  0  0  0  0  0  0  0  0  0  0
   11.2846  -15.3736   24.7233 O   0  0  0  0  0  0  0  0  0  0  0  0
   14.1654  -19.0376   21.3135 O   0  0  0  0  0  0  0  0  0  0  0  0
    8.5497  -12.5224   25.8848 C   0  0  0  0  0  0  0  0  0  0  0  0
    7.5727  -13.6477   25.7235 C   0  0  2  0  0  0  0  0  0  0  0  0
    6.1404  -13.2196   25.7459 C   0  0  0  0  0  0  0  0  0  0  0  0
    7.8603  -14.8326   26.5587 C   0  0  0  0  0  0  0  0  0  0  0  0
    9.1775  -15.4877   26.4911 C   0  0  2  0  0  0  0  0  0  0  0  0
    9.2015  -16.1570   25.1563 N   0  0  0  0  0  0  0  0  0  0  0  0
    9.4008  -16.4753   27.5375 C   0  0  0  0  0  0  0  0  0  0  0  0
    9.1764  -17.6979   27.2429 O   0  0  0  0  0  0  0  0  0  0  0  0
    9.8343  -16.2527   28.8154 O   0  0  0  0  0  0  0  0  0  0  0  0
  2  3  1  0
  2  1  1  0
  3  4  1  1
  5  3  1  0
  5  6  2  0
  7  5  1  0
  8  7  1  0
  8 13  1  0
  8  9  1  6
 10  9  1  0
 10 11  1  0
 11 12  2  0
 13 21  1  0
 14 13  2  0
 15 11  1  0
 17 18  1  1
 17 16  1  0
 19 17  1  0
 20 19  1  1
 21 20  1  0
 22 24  1  0
 22 20  1  0
 23 22  2  0
M  END
$$$$
