SEL.pdb
     RDKit          3D

 24 23  0  0  1  0  0  0  0  0999 V2000
   10.6550  -13.0349   19.6967 O   0  0  0  0  0  0  0  0  0  0  0  0
    9.9850  -13.7709   18.7214 C   0  0  0  0  0  0  0  0  0  0  0  0
    8.4985  -13.6286   18.9705 C   0  0  2  0  0  0  0  0  0  0  0  0
    8.1425  -12.2323   18.9404 N   0  0  0  0  0  0  0  0  0  0  0  0
    8.2180  -14.1613   20.3291 C   0  0  0  0  0  0  0  0  0  0  0  0
    8.0029  -13.3212   21.2676 O   0  0  0  0  0  0  0  0  0  0  0  0
    8.1943  -15.5525   20.5553 N   0  0  0  0  0  0  0  0  0  0  0  0
    7.8450  -16.1771   21.8021 C   0  0  1  0  0  0  0  0  0  0  0  0
    7.7190  -17.6547   21.7735 C   0  0  0  0  0  0  0  0  0  0  0  0
    7.3369  -18.2564   23.1059 C   0  0  0  0  0  0  0  0  0  0  0  0
    7.3353  -19.7493   23.0220 C   0  0  0  0  0  0  0  0  0  0  0  0
    8.1583  -20.4072   23.7095 O   0  0  0  0  0  0  0  0  0  0  0  0
    8.6404  -15.6590   22.9663 C   0  0  0  0  0  0  0  0  0  0  0  0
    9.8773  -15.4956   22.8789 O   0  0  0  0  0  0  0  0  0  0  0  0
    6.4390  -20.4062   22.1964 O   0  0  0  0  0  0  0  0  0  0  0  0
    6.0212  -12.3936   25.3092 C   0  0  0  0  0  0  0  0  0  0  0  0
    6.9125  -13.2945   26.1097 C   0  0  2  0  0  0  0  0  0  0  0  0
    6.8643  -13.0473   27.5835 C   0  0  0  0  0  0  0  0  0  0  0  0
    8.2797  -13.4418   25.5682 C   0  0  0  0  0  0  0  0  0  0  0  0
    8.8439  -14.7808   25.3282 C   0  0  2  0  0  0  0  0  0  0  0  0
    8.0404  -15.3354   24.1983 N   0  0  0  0  0  0  0  0  0  0  0  0
    8.7561  -15.6734   26.4752 C   0  0  0  0  0  0  0  0  0  0  0  0
    7.9161  -16.6332   26.4042 O   0  0  0  0  0  0  0  0  0  0  0  0
    9.4779  -15.6140   27.6354 O   0  0  0  0  0  0  0  0  0  0  0  0
  2  3  1  0
  2  1  1  0
  3  4  1  1
  5  3  1  0
  5  6  2  0
  7  5  1  0
  8  7  1  0
  8 13  1  0
  8  9  1  6
 10  9  1  0
 10 11  1  0
 11 12  2  0
 13 21  1  0
 14 13  2  0
 15 11  1  0
 17 18  1  1
 17 16  1  0
 19 17  1  0
 20 19  1  1
 21 20  1  0
 22 24  1  0
 22 20  1  0
 23 22  2  0
M  END
$$$$
