SEL.pdb
     RDKit          3D

 24 23  0  0  1  0  0  0  0  0999 V2000
    8.7048  -12.7653   19.1589 O   0  0  0  0  0  0  0  0  0  0  0  0
    8.4950  -13.2498   20.4485 C   0  0  0  0  0  0  0  0  0  0  0  0
    8.0891  -14.7041   20.3388 C   0  0  2  0  0  0  0  0  0  0  0  0
    6.7367  -14.7849   19.8468 N   0  0  0  0  0  0  0  0  0  0  0  0
    8.1333  -15.2868   21.7051 C   0  0  0  0  0  0  0  0  0  0  0  0
    7.0672  -15.2426   22.4082 O   0  0  0  0  0  0  0  0  0  0  0  0
    9.3228  -15.8655   22.1920 N   0  0  0  0  0  0  0  0  0  0  0  0
    9.4653  -16.4949   23.4767 C   0  0  1  0  0  0  0  0  0  0  0  0
   10.3674  -17.6713   23.5253 C   0  0  0  0  0  0  0  0  0  0  0  0
   10.4296  -18.3317   24.8829 C   0  0  0  0  0  0  0  0  0  0  0  0
   11.4215  -19.4507   24.8728 C   0  0  0  0  0  0  0  0  0  0  0  0
   11.0739  -20.5875   25.2844 O   0  0  0  0  0  0  0  0  0  0  0  0
    9.6860  -15.5152   24.5938 C   0  0  0  0  0  0  0  0  0  0  0  0
   10.7047  -14.7900   24.6221 O   0  0  0  0  0  0  0  0  0  0  0  0
   12.7117  -19.2424   24.4163 O   0  0  0  0  0  0  0  0  0  0  0  0
    7.6140  -11.9374   25.7215 C   0  0  0  0  0  0  0  0  0  0  0  0
    6.8966  -13.1251   26.2886 C   0  0  2  0  0  0  0  0  0  0  0  0
    5.5251  -12.8217   26.8007 C   0  0  0  0  0  0  0  0  0  0  0  0
    7.7110  -13.9535   27.2022 C   0  0  0  0  0  0  0  0  0  0  0  0
    9.0395  -14.4333   26.7854 C   0  0  2  0  0  0  0  0  0  0  0  0
    8.7685  -15.3665   25.6514 N   0  0  0  0  0  0  0  0  0  0  0  0
    9.7699  -15.1343   27.8319 C   0  0  0  0  0  0  0  0  0  0  0  0
    9.7662  -16.4111   27.7906 O   0  0  0  0  0  0  0  0  0  0  0  0
   10.4761  -14.5857   28.8668 O   0  0  0  0  0  0  0  0  0  0  0  0
  2  3  1  0
  2  1  1  0
  3  4  1  1
  5  3  1  0
  5  6  2  0
  7  5  1  0
  8  7  1  0
  8 13  1  0
  8  9  1  6
 10  9  1  0
 10 11  1  0
 11 12  2  0
 13 21  1  0
 14 13  2  0
 15 11  1  0
 17 18  1  1
 17 16  1  0
 19 17  1  0
 20 19  1  1
 21 20  1  0
 22 24  1  0
 22 20  1  0
 23 22  2  0
M  END
$$$$
