SEL.pdb
     RDKit          3D

 24 23  0  0  1  0  0  0  0  0999 V2000
   10.1401  -12.2616   18.1622 O   0  0  0  0  0  0  0  0  0  0  0  0
    9.4910  -12.7379   19.2996 C   0  0  0  0  0  0  0  0  0  0  0  0
    8.6704  -13.9443   18.8961 C   0  0  2  0  0  0  0  0  0  0  0  0
    7.4703  -13.5028   18.2310 N   0  0  0  0  0  0  0  0  0  0  0  0
    8.2878  -14.6631   20.1391 C   0  0  0  0  0  0  0  0  0  0  0  0
    7.2011  -14.3200   20.7173 O   0  0  0  0  0  0  0  0  0  0  0  0
    9.1107  -15.6881   20.6485 N   0  0  0  0  0  0  0  0  0  0  0  0
    8.8634  -16.4130   21.8650 C   0  0  1  0  0  0  0  0  0  0  0  0
    9.4343  -17.7804   21.9318 C   0  0  0  0  0  0  0  0  0  0  0  0
    9.2582  -18.4458   23.2769 C   0  0  0  0  0  0  0  0  0  0  0  0
    9.8859  -19.8030   23.2728 C   0  0  0  0  0  0  0  0  0  0  0  0
   11.1360  -19.9047   23.1739 O   0  0  0  0  0  0  0  0  0  0  0  0
    9.1053  -15.5942   23.1009 C   0  0  0  0  0  0  0  0  0  0  0  0
   10.2290  -15.0966   23.3335 O   0  0  0  0  0  0  0  0  0  0  0  0
    9.1031  -20.9401   23.3760 O   0  0  0  0  0  0  0  0  0  0  0  0
    5.5171  -12.4958   26.9593 C   0  0  0  0  0  0  0  0  0  0  0  0
    6.9280  -12.9001   26.6547 C   0  0  2  0  0  0  0  0  0  0  0  0
    7.9001  -11.7642   26.6488 C   0  0  0  0  0  0  0  0  0  0  0  0
    7.0671  -13.8179   25.5047 C   0  0  0  0  0  0  0  0  0  0  0  0
    8.3456  -14.5036   25.2514 C   0  0  2  0  0  0  0  0  0  0  0  0
    8.0918  -15.3492   24.0470 N   0  0  0  0  0  0  0  0  0  0  0  0
    8.7942  -15.3435   26.3530 C   0  0  0  0  0  0  0  0  0  0  0  0
    9.7051  -14.8704   27.1135 O   0  0  0  0  0  0  0  0  0  0  0  0
    8.3491  -16.5938   26.6833 O   0  0  0  0  0  0  0  0  0  0  0  0
  2  3  1  0
  2  1  1  0
  3  4  1  1
  5  3  1  0
  5  6  2  0
  7  5  1  0
  8  7  1  0
  8 13  1  0
  8  9  1  1
 10  9  1  0
 10 11  1  0
 11 12  2  0
 13 21  1  0
 14 13  2  0
 15 11  1  0
 17 18  1  6
 17 16  1  0
 19 17  1  0
 20 19  1  1
 21 20  1  0
 22 24  1  0
 22 20  1  0
 23 22  2  0
M  END
$$$$
