SEL.pdb
     RDKit          3D

 24 23  0  0  1  0  0  0  0  0999 V2000
    6.7130  -14.1061   20.8921 O   0  0  0  0  0  0  0  0  0  0  0  0
    7.4221  -14.1299   19.6927 C   0  0  0  0  0  0  0  0  0  0  0  0
    7.8548  -15.5578   19.4364 C   0  0  2  0  0  0  0  0  0  0  0  0
    6.7383  -16.3078   18.9183 N   0  0  0  0  0  0  0  0  0  0  0  0
    8.2581  -16.1455   20.7403 C   0  0  0  0  0  0  0  0  0  0  0  0
    7.3701  -16.7703   21.4141 O   0  0  0  0  0  0  0  0  0  0  0  0
    9.5828  -16.0076   21.2020 N   0  0  0  0  0  0  0  0  0  0  0  0
   10.1016  -16.6045   22.4025 C   0  0  1  0  0  0  0  0  0  0  0  0
   11.3784  -17.3455   22.2581 C   0  0  0  0  0  0  0  0  0  0  0  0
   11.7800  -18.1086   23.4988 C   0  0  0  0  0  0  0  0  0  0  0  0
   13.1130  -18.7572   23.3027 C   0  0  0  0  0  0  0  0  0  0  0  0
   13.3556  -19.3554   22.2229 O   0  0  0  0  0  0  0  0  0  0  0  0
   10.0685  -15.6788   23.5851 C   0  0  0  0  0  0  0  0  0  0  0  0
   10.3657  -14.4699   23.4647 O   0  0  0  0  0  0  0  0  0  0  0  0
   14.0744  -18.7032   24.2974 O   0  0  0  0  0  0  0  0  0  0  0  0
    6.1011  -13.1699   25.9558 C   0  0  0  0  0  0  0  0  0  0  0  0
    7.5433  -13.3946   26.2968 C   0  0  2  0  0  0  0  0  0  0  0  0
    8.3212  -12.1368   26.5162 C   0  0  0  0  0  0  0  0  0  0  0  0
    8.2282  -14.3844   25.4392 C   0  0  0  0  0  0  0  0  0  0  0  0
    9.3737  -15.1510   25.9579 C   0  0  2  0  0  0  0  0  0  0  0  0
    9.7057  -16.1207   24.8718 N   0  0  0  0  0  0  0  0  0  0  0  0
    9.0918  -15.8741   27.1898 C   0  0  0  0  0  0  0  0  0  0  0  0
    9.3281  -15.2677   28.2891 O   0  0  0  0  0  0  0  0  0  0  0  0
    8.5912  -17.1404   27.3177 O   0  0  0  0  0  0  0  0  0  0  0  0
  2  3  1  0
  2  1  1  0
  3  4  1  1
  5  3  1  0
  5  6  2  0
  7  5  1  0
  8  7  1  0
  8 13  1  0
  8  9  1  6
 10  9  1  0
 10 11  1  0
 11 12  2  0
 13 21  1  0
 14 13  2  0
 15 11  1  0
 17 18  1  6
 17 16  1  0
 19 17  1  0
 20 19  1  6
 21 20  1  0
 22 24  1  0
 22 20  1  0
 23 22  2  0
M  END
$$$$
