FKP.pdb
     RDKit          3D

 28 29  0  0  1  0  0  0  0  0999 V2000
    5.7992  -17.9161   26.2149 N   0  0  0  0  0  0  0  0  0  0  0  0
    6.3294  -16.6509   25.8242 C   0  0  1  0  0  0  0  0  0  0  0  0
    6.9898  -15.9504   26.9911 C   0  0  0  0  0  0  0  0  0  0  0  0
    7.0622  -14.4943   26.8010 C   0  0  0  0  0  0  0  0  0  0  0  0
    8.3031  -13.9213   26.6462 C   0  0  0  0  0  0  0  0  0  0  0  0
    8.4834  -12.5642   26.4615 C   0  0  0  0  0  0  0  0  0  0  0  0
    7.3617  -11.7762   26.4350 C   0  0  0  0  0  0  0  0  0  0  0  0
    6.1068  -12.3254   26.5877 C   0  0  0  0  0  0  0  0  0  0  0  0
    5.9572  -13.6731   26.7692 C   0  0  0  0  0  0  0  0  0  0  0  0
    7.2387  -16.7336   24.6526 C   0  0  0  0  0  0  0  0  0  0  0  0
    8.1216  -17.6569   24.7166 O   0  0  0  0  0  0  0  0  0  0  0  0
    7.1553  -15.8707   23.5407 N   0  0  0  0  0  0  0  0  0  0  0  0
    8.1213  -15.9938   22.4577 C   0  0  1  0  0  0  0  0  0  0  0  0
    7.6633  -15.0528   21.3886 C   0  0  0  0  0  0  0  0  0  0  0  0
    8.4184  -15.0579   20.1133 C   0  0  0  0  0  0  0  0  0  0  0  0
    7.8349  -14.1444   19.0613 C   0  0  0  0  0  0  0  0  0  0  0  0
    8.7482  -12.9709   18.7680 C   0  0  0  0  0  0  0  0  0  0  0  0
    8.0584  -12.1498   17.7694 N   0  0  0  0  0  0  0  0  0  0  0  0
    9.5118  -15.8522   22.8662 C   0  0  0  0  0  0  0  0  0  0  0  0
    9.7319  -14.9859   23.7911 O   0  0  0  0  0  0  0  0  0  0  0  0
   10.6572  -16.5302   22.3930 N   0  0  0  0  0  0  0  0  0  0  0  0
   10.6131  -17.4891   21.2611 C   0  0  0  0  0  0  0  0  0  0  0  0
   11.7995  -18.3929   21.4184 C   0  0  0  0  0  0  0  0  0  0  0  0
   12.3792  -18.0159   22.7630 C   0  0  0  0  0  0  0  0  0  0  0  0
   12.0444  -16.5120   22.7699 C   0  0  1  0  0  0  0  0  0  0  0  0
   12.9013  -15.8829   21.7464 C   0  0  0  0  0  0  0  0  0  0  0  0
   12.4927  -15.7431   20.5704 O   0  0  0  0  0  0  0  0  0  0  0  0
   14.1598  -15.4361   22.0475 O   0  0  0  0  0  0  0  0  0  0  0  0
  2  1  1  1
  3  2  1  0
  4  3  1  0
  4  9  1  0
  5  4  2  0
  6  5  1  0
  6  7  2  0
  7  8  1  0
  8  9  2  0
 10  2  1  0
 10 11  2  0
 12 10  1  0
 13 12  1  0
 13 14  1  6
 15 14  1  0
 16 15  1  0
 17 16  1  0
 18 17  1  0
 19 13  1  0
 20 19  2  0
 21 25  1  0
 21 19  1  0
 22 21  1  0
 23 22  1  0
 23 24  1  0
 24 25  1  0
 25 26  1  6
 26 27  2  0
 26 28  1  0
M  END
$$$$
