FKP.pdb
     RDKit          3D

 28 29  0  0  1  0  0  0  0  0999 V2000
    7.7130  -17.8337   26.6801 N   0  0  0  0  0  0  0  0  0  0  0  0
    8.0099  -16.6084   26.0130 C   0  0  1  0  0  0  0  0  0  0  0  0
    9.4436  -16.1888   26.2518 C   0  0  0  0  0  0  0  0  0  0  0  0
    9.5951  -15.3857   27.4740 C   0  0  0  0  0  0  0  0  0  0  0  0
   10.3044  -15.9259   28.5214 C   0  0  0  0  0  0  0  0  0  0  0  0
   10.5060  -15.2570   29.7131 C   0  0  0  0  0  0  0  0  0  0  0  0
    9.9660  -14.0023   29.8321 C   0  0  0  0  0  0  0  0  0  0  0  0
    9.2511  -13.4382   28.7975 C   0  0  0  0  0  0  0  0  0  0  0  0
    9.0666  -14.1233   27.6278 C   0  0  0  0  0  0  0  0  0  0  0  0
    7.6843  -16.6366   24.5641 C   0  0  0  0  0  0  0  0  0  0  0  0
    7.6750  -17.8005   24.0338 O   0  0  0  0  0  0  0  0  0  0  0  0
    7.4028  -15.4807   23.8074 N   0  0  0  0  0  0  0  0  0  0  0  0
    7.6192  -15.4906   22.3672 C   0  0  1  0  0  0  0  0  0  0  0  0
    7.1808  -14.1473   21.8758 C   0  0  0  0  0  0  0  0  0  0  0  0
    7.0149  -13.9829   20.4121 C   0  0  0  0  0  0  0  0  0  0  0  0
    8.2354  -13.4175   19.7249 C   0  0  0  0  0  0  0  0  0  0  0  0
    7.9938  -13.1949   18.2452 C   0  0  0  0  0  0  0  0  0  0  0  0
    9.1747  -12.4938   17.7344 N   0  0  0  0  0  0  0  0  0  0  0  0
    8.9535  -15.9052   21.9572 C   0  0  0  0  0  0  0  0  0  0  0  0
    9.9185  -15.4634   22.6838 O   0  0  0  0  0  0  0  0  0  0  0  0
    9.3429  -16.7247   20.8745 N   0  0  0  0  0  0  0  0  0  0  0  0
    8.3905  -17.1909   19.8361 C   0  0  0  0  0  0  0  0  0  0  0  0
    8.9839  -18.4302   19.2354 C   0  0  0  0  0  0  0  0  0  0  0  0
   10.1879  -18.7242   20.1014 C   0  0  0  0  0  0  0  0  0  0  0  0
   10.6005  -17.2833   20.4582 C   0  0  1  0  0  0  0  0  0  0  0  0
   11.1100  -16.6693   19.2168 C   0  0  0  0  0  0  0  0  0  0  0  0
   10.3650  -15.9562   18.5054 O   0  0  0  0  0  0  0  0  0  0  0  0
   12.4024  -16.8583   18.8068 O   0  0  0  0  0  0  0  0  0  0  0  0
  2  1  1  6
  3  2  1  0
  4  3  1  0
  4  9  1  0
  5  4  2  0
  6  5  1  0
  6  7  2  0
  7  8  1  0
  8  9  2  0
 10  2  1  0
 10 11  2  0
 12 10  1  0
 13 12  1  0
 13 14  1  1
 15 14  1  0
 16 15  1  0
 17 16  1  0
 18 17  1  0
 19 13  1  0
 20 19  2  0
 21 25  1  0
 21 19  1  0
 22 21  1  0
 23 22  1  0
 23 24  1  0
 24 25  1  0
 25 26  1  6
 26 27  2  0
 26 28  1  0
M  END
$$$$
