FKP.pdb
     RDKit          3D

 28 29  0  0  1  0  0  0  0  0999 V2000
    6.1917  -17.4829   26.4548 N   0  0  0  0  0  0  0  0  0  0  0  0
    6.7068  -16.2899   25.8666 C   0  0  1  0  0  0  0  0  0  0  0  0
    7.5925  -15.5397   26.8369 C   0  0  0  0  0  0  0  0  0  0  0  0
    7.2725  -14.1057   26.8922 C   0  0  0  0  0  0  0  0  0  0  0  0
    5.9869  -13.7161   26.5964 C   0  0  0  0  0  0  0  0  0  0  0  0
    5.5808  -12.3960   26.6185 C   0  0  0  0  0  0  0  0  0  0  0  0
    6.5180  -11.4526   26.9527 C   0  0  0  0  0  0  0  0  0  0  0  0
    7.8130  -11.8166   27.2534 C   0  0  0  0  0  0  0  0  0  0  0  0
    8.1881  -13.1319   27.2237 C   0  0  0  0  0  0  0  0  0  0  0  0
    7.3943  -16.5252   24.5712 C   0  0  0  0  0  0  0  0  0  0  0  0
    8.0713  -17.6085   24.5064 O   0  0  0  0  0  0  0  0  0  0  0  0
    7.3216  -15.6363   23.4791 N   0  0  0  0  0  0  0  0  0  0  0  0
    8.2702  -15.7629   22.3813 C   0  0  1  0  0  0  0  0  0  0  0  0
    7.9055  -14.6968   21.3971 C   0  0  0  0  0  0  0  0  0  0  0  0
    8.6382  -14.6855   20.1088 C   0  0  0  0  0  0  0  0  0  0  0  0
    8.1573  -13.6230   19.1489 C   0  0  0  0  0  0  0  0  0  0  0  0
    8.8639  -13.7140   17.8111 C   0  0  0  0  0  0  0  0  0  0  0  0
    8.1483  -12.8131   16.9036 N   0  0  0  0  0  0  0  0  0  0  0  0
    9.6681  -15.7915   22.7879 C   0  0  0  0  0  0  0  0  0  0  0  0
    9.9851  -14.9849   23.7383 O   0  0  0  0  0  0  0  0  0  0  0  0
   10.7295  -16.5787   22.2888 N   0  0  0  0  0  0  0  0  0  0  0  0
   10.5688  -17.5143   21.1478 C   0  0  0  0  0  0  0  0  0  0  0  0
   11.6572  -18.5379   21.2761 C   0  0  0  0  0  0  0  0  0  0  0  0
   12.2936  -18.2391   22.6147 C   0  0  0  0  0  0  0  0  0  0  0  0
   12.1168  -16.7089   22.6428 C   0  0  1  0  0  0  0  0  0  0  0  0
   13.0185  -16.1597   21.6118 C   0  0  0  0  0  0  0  0  0  0  0  0
   14.2412  -16.0164   21.8444 O   0  0  0  0  0  0  0  0  0  0  0  0
   12.5509  -15.7924   20.3787 O   0  0  0  0  0  0  0  0  0  0  0  0
  2  1  1  1
  3  2  1  0
  4  3  1  0
  4  9  1  0
  5  4  2  0
  6  5  1  0
  6  7  2  0
  7  8  1  0
  8  9  2  0
 10  2  1  0
 10 11  2  0
 12 10  1  0
 13 12  1  0
 13 14  1  6
 15 14  1  0
 16 15  1  0
 17 16  1  0
 18 17  1  0
 19 13  1  0
 20 19  2  0
 21 25  1  0
 21 19  1  0
 22 21  1  0
 23 22  1  0
 23 24  1  0
 24 25  1  0
 25 26  1  6
 26 27  2  0
 26 28  1  0
M  END
$$$$
