FKP.pdb
     RDKit          3D

 28 29  0  0  1  0  0  0  0  0999 V2000
    5.9868  -18.0165   25.9237 N   0  0  0  0  0  0  0  0  0  0  0  0
    6.3899  -16.6659   25.7044 C   0  0  1  0  0  0  0  0  0  0  0  0
    6.9705  -16.0573   26.9619 C   0  0  0  0  0  0  0  0  0  0  0  0
    6.9793  -14.5876   26.9192 C   0  0  0  0  0  0  0  0  0  0  0  0
    5.7705  -13.9313   26.9227 C   0  0  0  0  0  0  0  0  0  0  0  0
    5.6660  -12.5544   26.8850 C   0  0  0  0  0  0  0  0  0  0  0  0
    6.8316  -11.8337   26.8425 C   0  0  0  0  0  0  0  0  0  0  0  0
    8.0558  -12.4670   26.8381 C   0  0  0  0  0  0  0  0  0  0  0  0
    8.1301  -13.8325   26.8761 C   0  0  0  0  0  0  0  0  0  0  0  0
    7.3093  -16.5095   24.5484 C   0  0  0  0  0  0  0  0  0  0  0  0
    8.2993  -17.3192   24.5305 O   0  0  0  0  0  0  0  0  0  0  0  0
    7.1264  -15.5480   23.5335 N   0  0  0  0  0  0  0  0  0  0  0  0
    8.0319  -15.5213   22.3932 C   0  0  1  0  0  0  0  0  0  0  0  0
    7.6250  -14.3388   21.5720 C   0  0  0  0  0  0  0  0  0  0  0  0
    8.3761  -14.0949   20.3177 C   0  0  0  0  0  0  0  0  0  0  0  0
    7.8363  -12.9426   19.5039 C   0  0  0  0  0  0  0  0  0  0  0  0
    8.5324  -12.8282   18.1624 C   0  0  0  0  0  0  0  0  0  0  0  0
    8.0539  -13.9509   17.3514 N   0  0  0  0  0  0  0  0  0  0  0  0
    9.4447  -15.5904   22.7388 C   0  0  0  0  0  0  0  0  0  0  0  0
    9.7982  -14.9008   23.7654 O   0  0  0  0  0  0  0  0  0  0  0  0
   10.4864  -16.3070   22.1088 N   0  0  0  0  0  0  0  0  0  0  0  0
   10.2948  -17.0559   20.8418 C   0  0  0  0  0  0  0  0  0  0  0  0
   11.3684  -18.1018   20.7954 C   0  0  0  0  0  0  0  0  0  0  0  0
   12.0282  -18.0187   22.1533 C   0  0  0  0  0  0  0  0  0  0  0  0
   11.8763  -16.5083   22.4162 C   0  0  1  0  0  0  0  0  0  0  0  0
   12.7720  -15.8211   21.4660 C   0  0  0  0  0  0  0  0  0  0  0  0
   12.3553  -15.4664   20.3389 O   0  0  0  0  0  0  0  0  0  0  0  0
   14.0761  -15.5518   21.7836 O   0  0  0  0  0  0  0  0  0  0  0  0
  2  1  1  1
  3  2  1  0
  4  3  1  0
  4  9  1  0
  5  4  2  0
  6  5  1  0
  6  7  2  0
  7  8  1  0
  8  9  2  0
 10  2  1  0
 10 11  2  0
 12 10  1  0
 13 12  1  0
 13 14  1  1
 15 14  1  0
 16 15  1  0
 17 16  1  0
 18 17  1  0
 19 13  1  0
 20 19  2  0
 21 25  1  0
 21 19  1  0
 22 21  1  0
 23 22  1  0
 23 24  1  0
 24 25  1  0
 25 26  1  6
 26 27  2  0
 26 28  1  0
M  END
$$$$
