FKP.pdb
     RDKit          3D

 28 29  0  0  1  0  0  0  0  0999 V2000
    5.8760  -18.0141   25.5776 N   0  0  0  0  0  0  0  0  0  0  0  0
    6.2633  -16.6544   25.3884 C   0  0  1  0  0  0  0  0  0  0  0  0
    6.8391  -16.0678   26.6585 C   0  0  0  0  0  0  0  0  0  0  0  0
    6.7724  -14.5991   26.6765 C   0  0  0  0  0  0  0  0  0  0  0  0
    7.9498  -13.8977   26.7942 C   0  0  0  0  0  0  0  0  0  0  0  0
    7.9996  -12.5175   26.8212 C   0  0  0  0  0  0  0  0  0  0  0  0
    6.8110  -11.8409   26.7249 C   0  0  0  0  0  0  0  0  0  0  0  0
    5.6174  -12.5198   26.6061 C   0  0  0  0  0  0  0  0  0  0  0  0
    5.5972  -13.8875   26.5820 C   0  0  0  0  0  0  0  0  0  0  0  0
    7.1788  -16.4613   24.2349 C   0  0  0  0  0  0  0  0  0  0  0  0
    8.1158  -17.3263   24.1365 O   0  0  0  0  0  0  0  0  0  0  0  0
    7.0460  -15.4109   23.3037 N   0  0  0  0  0  0  0  0  0  0  0  0
    7.9940  -15.2974   22.2039 C   0  0  1  0  0  0  0  0  0  0  0  0
    7.6802  -14.0034   21.5218 C   0  0  0  0  0  0  0  0  0  0  0  0
    8.6031  -13.5624   20.4491 C   0  0  0  0  0  0  0  0  0  0  0  0
    8.0782  -13.8192   19.0563 C   0  0  0  0  0  0  0  0  0  0  0  0
    9.0780  -13.4061   17.9947 C   0  0  0  0  0  0  0  0  0  0  0  0
    8.4354  -13.6565   16.7018 N   0  0  0  0  0  0  0  0  0  0  0  0
    9.3873  -15.4870   22.5822 C   0  0  0  0  0  0  0  0  0  0  0  0
    9.7399  -14.9379   23.6906 O   0  0  0  0  0  0  0  0  0  0  0  0
   10.4107  -16.1884   21.9068 N   0  0  0  0  0  0  0  0  0  0  0  0
   10.2197  -16.7939   20.5652 C   0  0  0  0  0  0  0  0  0  0  0  0
   11.2421  -17.8835   20.4372 C   0  0  0  0  0  0  0  0  0  0  0  0
   11.8654  -17.9728   21.8118 C   0  0  0  0  0  0  0  0  0  0  0  0
   11.7796  -16.4911   22.2250 C   0  0  1  0  0  0  0  0  0  0  0  0
   12.7350  -15.7578   21.3723 C   0  0  0  0  0  0  0  0  0  0  0  0
   13.9324  -15.6316   21.7184 O   0  0  0  0  0  0  0  0  0  0  0  0
   12.3457  -15.1968   20.1858 O   0  0  0  0  0  0  0  0  0  0  0  0
  2  1  1  1
  3  2  1  0
  4  3  1  0
  4  9  1  0
  5  4  2  0
  6  5  1  0
  6  7  2  0
  7  8  1  0
  8  9  2  0
 10  2  1  0
 10 11  2  0
 12 10  1  0
 13 12  1  0
 13 14  1  1
 15 14  1  0
 16 15  1  0
 17 16  1  0
 18 17  1  0
 19 13  1  0
 20 19  2  0
 21 25  1  0
 21 19  1  0
 22 21  1  0
 23 22  1  0
 23 24  1  0
 24 25  1  0
 25 26  1  6
 26 27  2  0
 26 28  1  0
M  END
$$$$
