FKP.pdb
     RDKit          3D

 28 29  0  0  1  0  0  0  0  0999 V2000
    5.8445  -17.9135   26.1157 N   0  0  0  0  0  0  0  0  0  0  0  0
    6.3870  -16.6149   25.8831 C   0  0  1  0  0  0  0  0  0  0  0  0
    7.0024  -16.0455   27.1424 C   0  0  0  0  0  0  0  0  0  0  0  0
    7.1830  -14.5883   27.0670 C   0  0  0  0  0  0  0  0  0  0  0  0
    6.0664  -13.7906   27.1607 C   0  0  0  0  0  0  0  0  0  0  0  0
    6.1243  -12.4117   27.1020 C   0  0  0  0  0  0  0  0  0  0  0  0
    7.3593  -11.8378   26.9432 C   0  0  0  0  0  0  0  0  0  0  0  0
    8.4939  -12.6146   26.8467 C   0  0  0  0  0  0  0  0  0  0  0  0
    8.4075  -13.9785   26.9080 C   0  0  0  0  0  0  0  0  0  0  0  0
    7.3395  -16.5736   24.7442 C   0  0  0  0  0  0  0  0  0  0  0  0
    8.2632  -17.4576   24.7784 O   0  0  0  0  0  0  0  0  0  0  0  0
    7.2533  -15.6395   23.6915 N   0  0  0  0  0  0  0  0  0  0  0  0
    8.2185  -15.6890   22.6020 C   0  0  1  0  0  0  0  0  0  0  0  0
    7.7978  -14.6316   21.6310 C   0  0  0  0  0  0  0  0  0  0  0  0
    8.5236  -14.5704   20.3401 C   0  0  0  0  0  0  0  0  0  0  0  0
    7.8863  -13.6443   19.3313 C   0  0  0  0  0  0  0  0  0  0  0  0
    8.5947  -13.6999   17.9925 C   0  0  0  0  0  0  0  0  0  0  0  0
    7.8423  -12.8242   17.0901 N   0  0  0  0  0  0  0  0  0  0  0  0
    9.6115  -15.6376   23.0230 C   0  0  0  0  0  0  0  0  0  0  0  0
    9.8736  -14.8080   23.9703 O   0  0  0  0  0  0  0  0  0  0  0  0
   10.7198  -16.3687   22.5408 N   0  0  0  0  0  0  0  0  0  0  0  0
   10.6206  -17.3280   21.4126 C   0  0  0  0  0  0  0  0  0  0  0  0
   11.7659  -18.2846   21.5612 C   0  0  0  0  0  0  0  0  0  0  0  0
   12.3757  -17.9306   22.8987 C   0  0  0  0  0  0  0  0  0  0  0  0
   12.1102  -16.4130   22.9038 C   0  0  1  0  0  0  0  0  0  0  0  0
   12.9846  -15.8268   21.8697 C   0  0  0  0  0  0  0  0  0  0  0  0
   14.1532  -15.4715   22.1488 O   0  0  0  0  0  0  0  0  0  0  0  0
   12.5497  -15.6540   20.5832 O   0  0  0  0  0  0  0  0  0  0  0  0
  2  1  1  1
  3  2  1  0
  4  3  1  0
  4  9  1  0
  5  4  2  0
  6  5  1  0
  6  7  2  0
  7  8  1  0
  8  9  2  0
 10  2  1  0
 10 11  2  0
 12 10  1  0
 13 12  1  0
 13 14  1  6
 15 14  1  0
 16 15  1  0
 17 16  1  0
 18 17  1  0
 19 13  1  0
 20 19  2  0
 21 25  1  0
 21 19  1  0
 22 21  1  0
 23 22  1  0
 23 24  1  0
 24 25  1  0
 25 26  1  6
 26 27  2  0
 26 28  1  0
M  END
$$$$
