FKP.pdb
     RDKit          3D

 28 29  0  0  1  0  0  0  0  0999 V2000
    6.9013  -17.3864   26.8167 N   0  0  0  0  0  0  0  0  0  0  0  0
    6.2778  -16.8342   25.6587 C   0  0  1  0  0  0  0  0  0  0  0  0
    5.6222  -15.5070   25.9707 C   0  0  0  0  0  0  0  0  0  0  0  0
    6.5917  -14.4955   26.4166 C   0  0  0  0  0  0  0  0  0  0  0  0
    6.8213  -13.4127   25.6000 C   0  0  0  0  0  0  0  0  0  0  0  0
    7.7106  -12.4064   25.9233 C   0  0  0  0  0  0  0  0  0  0  0  0
    8.3807  -12.5146   27.1146 C   0  0  0  0  0  0  0  0  0  0  0  0
    8.1688  -13.5895   27.9509 C   0  0  0  0  0  0  0  0  0  0  0  0
    7.2820  -14.5723   27.6057 C   0  0  0  0  0  0  0  0  0  0  0  0
    7.1937  -16.7294   24.4942 C   0  0  0  0  0  0  0  0  0  0  0  0
    8.1847  -17.5379   24.5102 O   0  0  0  0  0  0  0  0  0  0  0  0
    7.0066  -15.8154   23.4371 N   0  0  0  0  0  0  0  0  0  0  0  0
    7.9640  -15.7745   22.3404 C   0  0  1  0  0  0  0  0  0  0  0  0
    7.4516  -14.7439   21.3847 C   0  0  0  0  0  0  0  0  0  0  0  0
    8.1148  -14.6580   20.0620 C   0  0  0  0  0  0  0  0  0  0  0  0
    7.7777  -13.3999   19.2970 C   0  0  0  0  0  0  0  0  0  0  0  0
    8.3799  -13.4105   17.9061 C   0  0  0  0  0  0  0  0  0  0  0  0
    7.8336  -12.2423   17.2103 N   0  0  0  0  0  0  0  0  0  0  0  0
    9.3515  -15.6153   22.7523 C   0  0  0  0  0  0  0  0  0  0  0  0
    9.5665  -14.7037   23.6338 O   0  0  0  0  0  0  0  0  0  0  0  0
   10.4990  -16.3187   22.3231 N   0  0  0  0  0  0  0  0  0  0  0  0
   10.4689  -17.3063   21.2156 C   0  0  0  0  0  0  0  0  0  0  0  0
   11.6402  -18.2194   21.4234 C   0  0  0  0  0  0  0  0  0  0  0  0
   12.1939  -17.8142   22.7707 C   0  0  0  0  0  0  0  0  0  0  0  0
   11.8775  -16.3069   22.7311 C   0  0  1  0  0  0  0  0  0  0  0  0
   12.7650  -15.7147   21.7117 C   0  0  0  0  0  0  0  0  0  0  0  0
   13.9157  -15.3244   22.0167 O   0  0  0  0  0  0  0  0  0  0  0  0
   12.3618  -15.5743   20.4110 O   0  0  0  0  0  0  0  0  0  0  0  0
  2  1  1  1
  3  2  1  0
  4  3  1  0
  4  9  1  0
  5  4  2  0
  6  5  1  0
  6  7  2  0
  7  8  1  0
  8  9  2  0
 10  2  1  0
 10 11  2  0
 12 10  1  0
 13 12  1  0
 13 14  1  6
 15 14  1  0
 16 15  1  0
 17 16  1  0
 18 17  1  0
 19 13  1  0
 20 19  2  0
 21 25  1  0
 21 19  1  0
 22 21  1  0
 23 22  1  0
 23 24  1  0
 24 25  1  0
 25 26  1  6
 26 27  2  0
 26 28  1  0
M  END
$$$$
