FKP.pdb
     RDKit          3D

 28 29  0  0  1  0  0  0  0  0999 V2000
    6.0195  -16.4913   20.1570 N   0  0  0  0  0  0  0  0  0  0  0  0
    7.2167  -16.8093   20.8642 C   0  0  1  0  0  0  0  0  0  0  0  0
    8.3998  -16.0491   20.3065 C   0  0  0  0  0  0  0  0  0  0  0  0
    8.1309  -14.6089   20.1821 C   0  0  0  0  0  0  0  0  0  0  0  0
    8.4772  -13.7913   21.2325 C   0  0  0  0  0  0  0  0  0  0  0  0
    8.2687  -12.4258   21.2188 C   0  0  0  0  0  0  0  0  0  0  0  0
    7.6903  -11.8867   20.0986 C   0  0  0  0  0  0  0  0  0  0  0  0
    7.3340  -12.6840   19.0323 C   0  0  0  0  0  0  0  0  0  0  0  0
    7.5520  -14.0340   19.0727 C   0  0  0  0  0  0  0  0  0  0  0  0
    7.0951  -16.6270   22.3333 C   0  0  0  0  0  0  0  0  0  0  0  0
    6.2487  -15.7413   22.7008 O   0  0  0  0  0  0  0  0  0  0  0  0
    7.8453  -17.3630   23.2732 N   0  0  0  0  0  0  0  0  0  0  0  0
    7.7007  -17.0781   24.6941 C   0  0  1  0  0  0  0  0  0  0  0  0
    7.3970  -18.3890   25.3480 C   0  0  0  0  0  0  0  0  0  0  0  0
    7.3892  -18.4207   26.8298 C   0  0  0  0  0  0  0  0  0  0  0  0
    7.0997  -19.7875   27.4039 C   0  0  0  0  0  0  0  0  0  0  0  0
    7.0335  -19.7577   28.9179 C   0  0  0  0  0  0  0  0  0  0  0  0
    8.4094  -19.9202   29.3951 N   0  0  0  0  0  0  0  0  0  0  0  0
    8.8024  -16.3253   25.2769 C   0  0  0  0  0  0  0  0  0  0  0  0
    9.9647  -16.5743   24.7855 O   0  0  0  0  0  0  0  0  0  0  0  0
    8.7801  -15.3583   26.3065 N   0  0  0  0  0  0  0  0  0  0  0  0
    7.5305  -14.9406   26.9897 C   0  0  0  0  0  0  0  0  0  0  0  0
    7.7872  -13.5761   27.5564 C   0  0  0  0  0  0  0  0  0  0  0  0
    9.1412  -13.1920   27.0038 C   0  0  0  0  0  0  0  0  0  0  0  0
    9.8002  -14.5839   26.9595 C   0  0  1  0  0  0  0  0  0  0  0  0
   10.0144  -14.9956   28.3603 C   0  0  0  0  0  0  0  0  0  0  0  0
    9.2324  -15.8020   28.9150 O   0  0  0  0  0  0  0  0  0  0  0  0
   11.0659  -14.5128   29.0920 O   0  0  0  0  0  0  0  0  0  0  0  0
  2  1  1  6
  3  2  1  0
  4  3  1  0
  4  9  1  0
  5  4  2  0
  6  5  1  0
  6  7  2  0
  7  8  1  0
  8  9  2  0
 10  2  1  0
 10 11  2  0
 12 10  1  0
 13 12  1  0
 13 14  1  1
 15 14  1  0
 16 15  1  0
 17 16  1  0
 18 17  1  0
 19 13  1  0
 20 19  2  0
 21 25  1  0
 21 19  1  0
 22 21  1  0
 23 22  1  0
 23 24  1  0
 24 25  1  0
 25 26  1  1
 26 27  2  0
 26 28  1  0
M  END
$$$$
