FKP.pdb
     RDKit          3D

 28 29  0  0  1  0  0  0  0  0999 V2000
    5.8945  -18.0390   25.7062 N   0  0  0  0  0  0  0  0  0  0  0  0
    6.3393  -16.6964   25.5212 C   0  0  1  0  0  0  0  0  0  0  0  0
    6.9931  -16.1590   26.7752 C   0  0  0  0  0  0  0  0  0  0  0  0
    7.0171  -14.6892   26.8075 C   0  0  0  0  0  0  0  0  0  0  0  0
    8.2383  -14.0622   26.8944 C   0  0  0  0  0  0  0  0  0  0  0  0
    8.3734  -12.6879   26.9312 C   0  0  0  0  0  0  0  0  0  0  0  0
    7.2261  -11.9391   26.8775 C   0  0  0  0  0  0  0  0  0  0  0  0
    5.9901  -12.5427   26.7902 C   0  0  0  0  0  0  0  0  0  0  0  0
    5.8854  -13.9063   26.7554 C   0  0  0  0  0  0  0  0  0  0  0  0
    7.2164  -16.5282   24.3344 C   0  0  0  0  0  0  0  0  0  0  0  0
    8.1673  -17.3783   24.2390 O   0  0  0  0  0  0  0  0  0  0  0  0
    7.0351  -15.5153   23.3704 N   0  0  0  0  0  0  0  0  0  0  0  0
    7.9531  -15.4188   22.2438 C   0  0  1  0  0  0  0  0  0  0  0  0
    7.6058  -14.1464   21.5378 C   0  0  0  0  0  0  0  0  0  0  0  0
    8.5388  -13.6802   20.4846 C   0  0  0  0  0  0  0  0  0  0  0  0
    7.9835  -13.8068   19.0856 C   0  0  0  0  0  0  0  0  0  0  0  0
    9.0325  -13.5001   18.0355 C   0  0  0  0  0  0  0  0  0  0  0  0
    8.3508  -13.5614   16.7399 N   0  0  0  0  0  0  0  0  0  0  0  0
    9.3579  -15.5822   22.5904 C   0  0  0  0  0  0  0  0  0  0  0  0
    9.7164  -15.0608   23.7102 O   0  0  0  0  0  0  0  0  0  0  0  0
   10.3869  -16.2322   21.8734 N   0  0  0  0  0  0  0  0  0  0  0  0
   10.1940  -16.7761   20.5060 C   0  0  0  0  0  0  0  0  0  0  0  0
   11.2339  -17.8399   20.3170 C   0  0  0  0  0  0  0  0  0  0  0  0
   11.8714  -17.9839   21.6804 C   0  0  0  0  0  0  0  0  0  0  0  0
   11.7638  -16.5255   22.1651 C   0  0  1  0  0  0  0  0  0  0  0  0
   12.6983  -15.7354   21.3405 C   0  0  0  0  0  0  0  0  0  0  0  0
   12.3700  -15.3522   20.1938 O   0  0  0  0  0  0  0  0  0  0  0  0
   13.9436  -15.3991   21.7991 O   0  0  0  0  0  0  0  0  0  0  0  0
  2  1  1  1
  3  2  1  0
  4  3  1  0
  4  9  1  0
  5  4  2  0
  6  5  1  0
  6  7  2  0
  7  8  1  0
  8  9  2  0
 10  2  1  0
 10 11  2  0
 12 10  1  0
 13 12  1  0
 13 14  1  1
 15 14  1  0
 16 15  1  0
 17 16  1  0
 18 17  1  0
 19 13  1  0
 20 19  2  0
 21 25  1  0
 21 19  1  0
 22 21  1  0
 23 22  1  0
 23 24  1  0
 24 25  1  0
 25 26  1  6
 26 27  2  0
 26 28  1  0
M  END
$$$$
