FKP.pdb
     RDKit          3D

 28 29  0  0  1  0  0  0  0  0999 V2000
    7.0094  -17.8177   27.3096 N   0  0  0  0  0  0  0  0  0  0  0  0
    7.1872  -16.6742   26.4757 C   0  0  1  0  0  0  0  0  0  0  0  0
    7.8490  -15.5433   27.2318 C   0  0  0  0  0  0  0  0  0  0  0  0
    7.3749  -14.2231   26.7912 C   0  0  0  0  0  0  0  0  0  0  0  0
    8.3138  -13.2703   26.4710 C   0  0  0  0  0  0  0  0  0  0  0  0
    7.9767  -11.9998   26.0466 C   0  0  0  0  0  0  0  0  0  0  0  0
    6.6423  -11.7002   25.9487 C   0  0  0  0  0  0  0  0  0  0  0  0
    5.6814  -12.6368   26.2636 C   0  0  0  0  0  0  0  0  0  0  0  0
    6.0436  -13.8881   26.6815 C   0  0  0  0  0  0  0  0  0  0  0  0
    7.9044  -16.9774   25.2109 C   0  0  0  0  0  0  0  0  0  0  0  0
    9.0439  -17.5399   25.3561 O   0  0  0  0  0  0  0  0  0  0  0  0
    7.3890  -16.6777   23.9332 N   0  0  0  0  0  0  0  0  0  0  0  0
    8.1922  -16.9495   22.7492 C   0  0  1  0  0  0  0  0  0  0  0  0
    7.2858  -16.7345   21.5786 C   0  0  0  0  0  0  0  0  0  0  0  0
    7.8640  -16.9352   20.2287 C   0  0  0  0  0  0  0  0  0  0  0  0
    6.8556  -17.3901   19.2003 C   0  0  0  0  0  0  0  0  0  0  0  0
    7.4807  -17.5351   17.8271 C   0  0  0  0  0  0  0  0  0  0  0  0
    6.4123  -17.9878   16.9323 N   0  0  0  0  0  0  0  0  0  0  0  0
    9.4613  -16.2373   22.7006 C   0  0  0  0  0  0  0  0  0  0  0  0
    9.4142  -14.9977   23.0406 O   0  0  0  0  0  0  0  0  0  0  0  0
   10.7403  -16.7114   22.3335 N   0  0  0  0  0  0  0  0  0  0  0  0
   10.9937  -18.1211   21.9441 C   0  0  0  0  0  0  0  0  0  0  0  0
   12.4514  -18.3773   22.1858 C   0  0  0  0  0  0  0  0  0  0  0  0
   12.9373  -17.1297   22.8882 C   0  0  0  0  0  0  0  0  0  0  0  0
   12.0293  -16.0870   22.2086 C   0  0  1  0  0  0  0  0  0  0  0  0
   12.4765  -15.9863   20.8059 C   0  0  0  0  0  0  0  0  0  0  0  0
   11.9165  -16.6570   19.9081 O   0  0  0  0  0  0  0  0  0  0  0  0
   13.5093  -15.1636   20.4447 O   0  0  0  0  0  0  0  0  0  0  0  0
  2  1  1  1
  3  2  1  0
  4  3  1  0
  4  9  1  0
  5  4  2  0
  6  5  1  0
  6  7  2  0
  7  8  1  0
  8  9  2  0
 10  2  1  0
 10 11  2  0
 12 10  1  0
 13 12  1  0
 13 14  1  6
 15 14  1  0
 16 15  1  0
 17 16  1  0
 18 17  1  0
 19 13  1  0
 20 19  2  0
 21 25  1  0
 21 19  1  0
 22 21  1  0
 23 22  1  0
 23 24  1  0
 24 25  1  0
 25 26  1  6
 26 27  2  0
 26 28  1  0
M  END
$$$$
