FKP.pdb
     RDKit          3D

 28 29  0  0  1  0  0  0  0  0999 V2000
    5.8076  -17.9468   26.0019 N   0  0  0  0  0  0  0  0  0  0  0  0
    6.2946  -16.6411   25.6973 C   0  0  1  0  0  0  0  0  0  0  0  0
    6.9265  -15.9960   26.9110 C   0  0  0  0  0  0  0  0  0  0  0  0
    7.1244  -14.5496   26.7362 C   0  0  0  0  0  0  0  0  0  0  0  0
    6.0107  -13.7438   26.6874 C   0  0  0  0  0  0  0  0  0  0  0  0
    6.0843  -12.3738   26.5264 C   0  0  0  0  0  0  0  0  0  0  0  0
    7.3323  -11.8176   26.4127 C   0  0  0  0  0  0  0  0  0  0  0  0
    8.4642  -12.6028   26.4584 C   0  0  0  0  0  0  0  0  0  0  0  0
    8.3622  -13.9576   26.6188 C   0  0  0  0  0  0  0  0  0  0  0  0
    7.2098  -16.6156   24.5278 C   0  0  0  0  0  0  0  0  0  0  0  0
    8.1402  -17.4931   24.5490 O   0  0  0  0  0  0  0  0  0  0  0  0
    7.0836  -15.7023   23.4610 N   0  0  0  0  0  0  0  0  0  0  0  0
    8.0839  -15.6864   22.4025 C   0  0  1  0  0  0  0  0  0  0  0  0
    7.6604  -14.6116   21.4520 C   0  0  0  0  0  0  0  0  0  0  0  0
    8.5133  -14.3865   20.2609 C   0  0  0  0  0  0  0  0  0  0  0  0
    7.8149  -13.6394   19.1494 C   0  0  0  0  0  0  0  0  0  0  0  0
    8.7269  -13.4248   17.9579 C   0  0  0  0  0  0  0  0  0  0  0  0
    8.0305  -12.4930   17.0669 N   0  0  0  0  0  0  0  0  0  0  0  0
    9.4605  -15.6055   22.8701 C   0  0  0  0  0  0  0  0  0  0  0  0
    9.6648  -14.8031   23.8544 O   0  0  0  0  0  0  0  0  0  0  0  0
   10.6073  -16.2822   22.3986 N   0  0  0  0  0  0  0  0  0  0  0  0
   10.5949  -17.1337   21.1830 C   0  0  0  0  0  0  0  0  0  0  0  0
   11.7394  -18.0931   21.3199 C   0  0  0  0  0  0  0  0  0  0  0  0
   12.2547  -17.8604   22.7222 C   0  0  0  0  0  0  0  0  0  0  0  0
   11.9709  -16.3514   22.8487 C   0  0  1  0  0  0  0  0  0  0  0  0
   12.9049  -15.6670   21.9340 C   0  0  0  0  0  0  0  0  0  0  0  0
   14.0622  -15.3688   22.3096 O   0  0  0  0  0  0  0  0  0  0  0  0
   12.5388  -15.3388   20.6564 O   0  0  0  0  0  0  0  0  0  0  0  0
  2  1  1  1
  3  2  1  0
  4  3  1  0
  4  9  1  0
  5  4  2  0
  6  5  1  0
  6  7  2  0
  7  8  1  0
  8  9  2  0
 10  2  1  0
 10 11  2  0
 12 10  1  0
 13 12  1  0
 13 14  1  6
 15 14  1  0
 16 15  1  0
 17 16  1  0
 18 17  1  0
 19 13  1  0
 20 19  2  0
 21 25  1  0
 21 19  1  0
 22 21  1  0
 23 22  1  0
 23 24  1  0
 24 25  1  0
 25 26  1  6
 26 27  2  0
 26 28  1  0
M  END
$$$$
