FKP.pdb
     RDKit          3D

 28 29  0  0  1  0  0  0  0  0999 V2000
    5.6610  -17.6047   25.7748 N   0  0  0  0  0  0  0  0  0  0  0  0
    6.3207  -16.3719   25.4927 C   0  0  1  0  0  0  0  0  0  0  0  0
    7.1056  -15.8848   26.6908 C   0  0  0  0  0  0  0  0  0  0  0  0
    7.2224  -14.4195   26.7246 C   0  0  0  0  0  0  0  0  0  0  0  0
    6.0762  -13.6814   26.9073 C   0  0  0  0  0  0  0  0  0  0  0  0
    6.0742  -12.3009   26.9546 C   0  0  0  0  0  0  0  0  0  0  0  0
    7.2791  -11.6625   26.8107 C   0  0  0  0  0  0  0  0  0  0  0  0
    8.4422  -12.3787   26.6264 C   0  0  0  0  0  0  0  0  0  0  0  0
    8.4152  -13.7458   26.5836 C   0  0  0  0  0  0  0  0  0  0  0  0
    7.1661  -16.4259   24.2726 C   0  0  0  0  0  0  0  0  0  0  0  0
    7.9509  -17.4334   24.2018 O   0  0  0  0  0  0  0  0  0  0  0  0
    7.1252  -15.4517   23.2541 N   0  0  0  0  0  0  0  0  0  0  0  0
    8.0560  -15.5360   22.1372 C   0  0  1  0  0  0  0  0  0  0  0  0
    7.7431  -14.3713   21.2518 C   0  0  0  0  0  0  0  0  0  0  0  0
    8.6117  -14.1682   20.0681 C   0  0  0  0  0  0  0  0  0  0  0  0
    7.8523  -13.7883   18.8189 C   0  0  0  0  0  0  0  0  0  0  0  0
    8.7667  -13.6911   17.6140 C   0  0  0  0  0  0  0  0  0  0  0  0
    7.9214  -13.2949   16.4845 N   0  0  0  0  0  0  0  0  0  0  0  0
    9.4535  -15.6759   22.5215 C   0  0  0  0  0  0  0  0  0  0  0  0
    9.8169  -14.9912   23.5479 O   0  0  0  0  0  0  0  0  0  0  0  0
   10.4708  -16.4568   21.9293 N   0  0  0  0  0  0  0  0  0  0  0  0
   10.2486  -17.2775   20.7127 C   0  0  0  0  0  0  0  0  0  0  0  0
   11.2951  -18.3516   20.7232 C   0  0  0  0  0  0  0  0  0  0  0  0
   11.9692  -18.2017   22.0683 C   0  0  0  0  0  0  0  0  0  0  0  0
   11.8579  -16.6745   22.2380 C   0  0  1  0  0  0  0  0  0  0  0  0
   12.7620  -16.0708   21.2402 C   0  0  0  0  0  0  0  0  0  0  0  0
   13.9929  -15.9923   21.4594 O   0  0  0  0  0  0  0  0  0  0  0  0
   12.2876  -15.5812   20.0530 O   0  0  0  0  0  0  0  0  0  0  0  0
  2  1  1  1
  3  2  1  0
  4  3  1  0
  4  9  1  0
  5  4  2  0
  6  5  1  0
  6  7  2  0
  7  8  1  0
  8  9  2  0
 10  2  1  0
 10 11  2  0
 12 10  1  0
 13 12  1  0
 13 14  1  1
 15 14  1  0
 16 15  1  0
 17 16  1  0
 18 17  1  0
 19 13  1  0
 20 19  2  0
 21 25  1  0
 21 19  1  0
 22 21  1  0
 23 22  1  0
 23 24  1  0
 24 25  1  0
 25 26  1  6
 26 27  2  0
 26 28  1  0
M  END
$$$$
