FKP.pdb
     RDKit          3D

 28 29  0  0  1  0  0  0  0  0999 V2000
    6.1235  -17.7550   26.3398 N   0  0  0  0  0  0  0  0  0  0  0  0
    6.6574  -16.5247   25.8543 C   0  0  1  0  0  0  0  0  0  0  0  0
    7.5101  -15.8463   26.9039 C   0  0  0  0  0  0  0  0  0  0  0  0
    7.3615  -14.3836   26.8853 C   0  0  0  0  0  0  0  0  0  0  0  0
    8.4988  -13.6150   26.9735 C   0  0  0  0  0  0  0  0  0  0  0  0
    8.4716  -12.2339   26.9649 C   0  0  0  0  0  0  0  0  0  0  0  0
    7.2463  -11.6272   26.8632 C   0  0  0  0  0  0  0  0  0  0  0  0
    6.0915  -12.3744   26.7735 C   0  0  0  0  0  0  0  0  0  0  0  0
    6.1476  -13.7413   26.7844 C   0  0  0  0  0  0  0  0  0  0  0  0
    7.3878  -16.6697   24.5691 C   0  0  0  0  0  0  0  0  0  0  0  0
    8.1623  -17.6852   24.4981 O   0  0  0  0  0  0  0  0  0  0  0  0
    7.2544  -15.7690   23.4926 N   0  0  0  0  0  0  0  0  0  0  0  0
    8.1717  -15.8521   22.3644 C   0  0  1  0  0  0  0  0  0  0  0  0
    7.7499  -14.7790   21.4111 C   0  0  0  0  0  0  0  0  0  0  0  0
    8.5117  -14.6604   20.1452 C   0  0  0  0  0  0  0  0  0  0  0  0
    7.9403  -13.6403   19.1889 C   0  0  0  0  0  0  0  0  0  0  0  0
    8.7248  -13.5846   17.8932 C   0  0  0  0  0  0  0  0  0  0  0  0
    8.1571  -12.4815   17.1134 N   0  0  0  0  0  0  0  0  0  0  0  0
    9.5817  -15.8514   22.7279 C   0  0  0  0  0  0  0  0  0  0  0  0
    9.8974  -15.0975   23.7210 O   0  0  0  0  0  0  0  0  0  0  0  0
   10.6562  -16.5606   22.1465 N   0  0  0  0  0  0  0  0  0  0  0  0
   10.5063  -17.3840   20.9208 C   0  0  0  0  0  0  0  0  0  0  0  0
   11.6193  -18.3888   20.9405 C   0  0  0  0  0  0  0  0  0  0  0  0
   12.2614  -18.2069   22.2972 C   0  0  0  0  0  0  0  0  0  0  0  0
   12.0495  -16.6913   22.4759 C   0  0  1  0  0  0  0  0  0  0  0  0
   12.9283  -16.0228   21.4970 C   0  0  0  0  0  0  0  0  0  0  0  0
   12.5815  -15.9143   20.2980 O   0  0  0  0  0  0  0  0  0  0  0  0
   14.1406  -15.5044   21.8653 O   0  0  0  0  0  0  0  0  0  0  0  0
  2  1  1  1
  3  2  1  0
  4  3  1  0
  4  9  1  0
  5  4  2  0
  6  5  1  0
  6  7  2  0
  7  8  1  0
  8  9  2  0
 10  2  1  0
 10 11  2  0
 12 10  1  0
 13 12  1  0
 13 14  1  6
 15 14  1  0
 16 15  1  0
 17 16  1  0
 18 17  1  0
 19 13  1  0
 20 19  2  0
 21 25  1  0
 21 19  1  0
 22 21  1  0
 23 22  1  0
 23 24  1  0
 24 25  1  0
 25 26  1  6
 26 27  2  0
 26 28  1  0
M  END
$$$$
