WHK.pdb
     RDKit          3D

 34 36  0  0  1  0  0  0  0  0999 V2000
    6.6585  -18.7184   24.9646 N   0  0  0  0  0  0  0  0  0  0  0  0
    6.6280  -17.2971   24.6880 C   0  0  1  0  0  0  0  0  0  0  0  0
    7.2776  -16.4600   25.7200 C   0  0  0  0  0  0  0  0  0  0  0  0
    6.6126  -15.2488   26.1720 C   0  0  0  0  0  0  0  0  0  0  0  0
    5.2187  -15.2300   26.3917 C   0  0  0  0  0  0  0  0  0  0  0  0
    4.8654  -14.0214   26.8045 N   0  0  0  0  0  0  0  0  0  0  0  0
    5.9331  -13.2052   26.8828 C   0  0  0  0  0  0  0  0  0  0  0  0
    6.0814  -11.8850   27.2503 C   0  0  0  0  0  0  0  0  0  0  0  0
    7.3410  -11.3198   27.2228 C   0  0  0  0  0  0  0  0  0  0  0  0
    8.4242  -12.0901   26.8276 C   0  0  0  0  0  0  0  0  0  0  0  0
    8.2849  -13.4138   26.4578 C   0  0  0  0  0  0  0  0  0  0  0  0
    7.0343  -13.9809   26.4834 C   0  0  0  0  0  0  0  0  0  0  0  0
    7.4330  -17.0835   23.4023 C   0  0  0  0  0  0  0  0  0  0  0  0
    8.1891  -18.0012   23.0534 O   0  0  0  0  0  0  0  0  0  0  0  0
    7.3372  -15.9084   22.6344 N   0  0  0  0  0  0  0  0  0  0  0  0
    7.9973  -15.7240   21.3796 C   0  0  1  0  0  0  0  0  0  0  0  0
    7.5918  -14.5093   20.6485 C   0  0  0  0  0  0  0  0  0  0  0  0
    8.1502  -14.3056   19.3088 C   0  0  0  0  0  0  0  0  0  0  0  0
    8.9514  -15.0245   18.4822 C   0  0  0  0  0  0  0  0  0  0  0  0
    9.1374  -14.3665   17.3274 N   0  0  0  0  0  0  0  0  0  0  0  0
    8.4506  -13.2297   17.4267 C   0  0  0  0  0  0  0  0  0  0  0  0
    7.8475  -13.1642   18.6040 N   0  0  0  0  0  0  0  0  0  0  0  0
    9.4890  -15.7274   21.5276 C   0  0  0  0  0  0  0  0  0  0  0  0
   10.1791  -15.5329   20.5059 O   0  0  0  0  0  0  0  0  0  0  0  0
   10.1492  -15.9377   22.7587 N   0  0  0  0  0  0  0  0  0  0  0  0
   11.6242  -15.9511   22.8733 C   0  0  1  0  0  0  0  0  0  0  0  0
   12.0211  -16.8420   24.0176 C   0  0  0  0  0  0  0  0  0  0  0  0
   11.4687  -16.3438   25.3049 C   0  0  0  0  0  0  0  0  0  0  0  0
   11.8811  -17.2154   26.4868 C   0  0  0  0  0  0  0  0  0  0  0  0
   11.2616  -16.7363   27.7651 C   0  0  0  0  0  0  0  0  0  0  0  0
   11.6791  -17.6079   28.8611 N   0  0  0  0  0  0  0  0  0  0  0  0
   12.1101  -16.4997   21.6043 C   0  0  0  0  0  0  0  0  0  0  0  0
   11.7169  -17.7337   21.1591 O   0  0  0  0  0  0  0  0  0  0  0  0
   12.9072  -15.8565   20.8825 O   0  0  0  0  0  0  0  0  0  0  0  0
  2  1  1  1
  2  3  1  0
  4  5  2  0
  4  3  1  0
  6  5  1  0
  7 12  2  0
  7  6  1  0
  8  7  1  0
  9 10  1  0
  9  8  2  0
 10 11  2  0
 11 12  1  0
 12  4  1  0
 13  2  1  0
 14 13  2  0
 15 13  1  0
 16 17  1  1
 16 15  1  0
 17 18  1  0
 18 22  1  0
 19 18  2  0
 19 20  1  0
 20 21  1  0
 22 21  2  0
 23 24  2  0
 23 16  1  0
 25 23  1  0
 26 27  1  1
 26 25  1  0
 27 28  1  0
 29 28  1  0
 30 29  1  0
 31 30  1  0
 32 26  1  0
 33 32  1  0
 34 32  2  0
M  END
$$$$
