WHK.pdb
     RDKit          3D

 34 36  0  0  1  0  0  0  0  0999 V2000
    6.5737  -17.4626   23.7499 N   0  0  0  0  0  0  0  0  0  0  0  0
    7.6712  -16.5526   23.4957 C   0  0  1  0  0  0  0  0  0  0  0  0
    8.1553  -15.8301   24.6922 C   0  0  0  0  0  0  0  0  0  0  0  0
    7.2916  -14.8456   25.3232 C   0  0  0  0  0  0  0  0  0  0  0  0
    6.1690  -15.2483   26.0778 C   0  0  0  0  0  0  0  0  0  0  0  0
    5.5594  -14.1703   26.5492 N   0  0  0  0  0  0  0  0  0  0  0  0
    6.1950  -13.0475   26.1646 C   0  0  0  0  0  0  0  0  0  0  0  0
    5.9567  -11.7089   26.3908 C   0  0  0  0  0  0  0  0  0  0  0  0
    6.8133  -10.7746   25.8428 C   0  0  0  0  0  0  0  0  0  0  0  0
    7.8896  -11.2024   25.0804 C   0  0  0  0  0  0  0  0  0  0  0  0
    8.1360  -12.5418   24.8487 C   0  0  0  0  0  0  0  0  0  0  0  0
    7.2872  -13.4752   25.3914 C   0  0  0  0  0  0  0  0  0  0  0  0
    8.8472  -17.4080   23.0141 C   0  0  0  0  0  0  0  0  0  0  0  0
    8.8213  -18.6129   23.3025 O   0  0  0  0  0  0  0  0  0  0  0  0
    9.9205  -16.8749   22.2768 N   0  0  0  0  0  0  0  0  0  0  0  0
   11.1477  -17.5710   22.0447 C   0  0  1  0  0  0  0  0  0  0  0  0
   11.9385  -17.0545   20.9123 C   0  0  0  0  0  0  0  0  0  0  0  0
   11.4092  -17.2672   19.5623 C   0  0  0  0  0  0  0  0  0  0  0  0
   10.4437  -18.0529   19.0213 C   0  0  0  0  0  0  0  0  0  0  0  0
   10.3486  -17.8297   17.7014 N   0  0  0  0  0  0  0  0  0  0  0  0
   11.2567  -16.9000   17.4100 C   0  0  0  0  0  0  0  0  0  0  0  0
   11.9089  -16.5424   18.5058 N   0  0  0  0  0  0  0  0  0  0  0  0
   12.0127  -17.6008   23.2686 C   0  0  0  0  0  0  0  0  0  0  0  0
   12.5100  -16.5251   23.6603 O   0  0  0  0  0  0  0  0  0  0  0  0
   12.2911  -18.7787   23.9972 N   0  0  0  0  0  0  0  0  0  0  0  0
   13.0810  -18.7671   25.2481 C   0  0  1  0  0  0  0  0  0  0  0  0
   12.6947  -19.9547   26.0854 C   0  0  0  0  0  0  0  0  0  0  0  0
   12.5774  -19.5864   27.5210 C   0  0  0  0  0  0  0  0  0  0  0  0
   12.1666  -20.7709   28.3899 C   0  0  0  0  0  0  0  0  0  0  0  0
   11.9228  -20.3528   29.8088 C   0  0  0  0  0  0  0  0  0  0  0  0
   11.5966  -21.5301   30.6105 N   0  0  0  0  0  0  0  0  0  0  0  0
   14.4809  -18.8701   24.8276 C   0  0  0  0  0  0  0  0  0  0  0  0
   15.4698  -18.1511   25.4446 O   0  0  0  0  0  0  0  0  0  0  0  0
   14.8210  -19.6206   23.8836 O   0  0  0  0  0  0  0  0  0  0  0  0
  2  1  1  1
  2  3  1  0
  4  5  2  0
  4  3  1  0
  6  5  1  0
  7 12  2  0
  7  6  1  0
  8  7  1  0
  9 10  1  0
  9  8  2  0
 10 11  2  0
 11 12  1  0
 12  4  1  0
 13  2  1  0
 14 13  2  0
 15 13  1  0
 16 17  1  6
 16 15  1  0
 17 18  1  0
 18 22  1  0
 19 18  2  0
 19 20  1  0
 20 21  1  0
 22 21  2  0
 23 24  2  0
 23 16  1  0
 25 23  1  0
 26 27  1  1
 26 25  1  0
 27 28  1  0
 29 28  1  0
 30 29  1  0
 31 30  1  0
 32 26  1  0
 33 32  1  0
 34 32  2  0
M  END
$$$$
