WHK.pdb
     RDKit          3D

 34 36  0  0  1  0  0  0  0  0999 V2000
    5.9477  -17.1871   23.3953 N   0  0  0  0  0  0  0  0  0  0  0  0
    6.9200  -16.1167   23.3142 C   0  0  1  0  0  0  0  0  0  0  0  0
    7.5957  -15.8072   24.5931 C   0  0  0  0  0  0  0  0  0  0  0  0
    6.9586  -14.8948   25.5285 C   0  0  0  0  0  0  0  0  0  0  0  0
    6.2686  -15.3845   26.6580 C   0  0  0  0  0  0  0  0  0  0  0  0
    5.7919  -14.3586   27.3481 N   0  0  0  0  0  0  0  0  0  0  0  0
    6.1122  -13.1899   26.7616 C   0  0  0  0  0  0  0  0  0  0  0  0
    5.8530  -11.8750   27.0840 C   0  0  0  0  0  0  0  0  0  0  0  0
    6.3294  -10.8767   26.2574 C   0  0  0  0  0  0  0  0  0  0  0  0
    7.0549  -11.2180   25.1261 C   0  0  0  0  0  0  0  0  0  0  0  0
    7.3194  -12.5330   24.7954 C   0  0  0  0  0  0  0  0  0  0  0  0
    6.8480  -13.5298   25.6141 C   0  0  0  0  0  0  0  0  0  0  0  0
    8.0192  -16.5946   22.3603 C   0  0  0  0  0  0  0  0  0  0  0  0
    8.0915  -17.8139   22.1515 O   0  0  0  0  0  0  0  0  0  0  0  0
    8.9189  -15.7105   21.7369 N   0  0  0  0  0  0  0  0  0  0  0  0
    9.8752  -16.1136   20.7534 C   0  0  1  0  0  0  0  0  0  0  0  0
   10.2491  -15.0567   19.7954 C   0  0  0  0  0  0  0  0  0  0  0  0
    9.2675  -14.6925   18.7698 C   0  0  0  0  0  0  0  0  0  0  0  0
    8.0477  -15.1578   18.3988 C   0  0  0  0  0  0  0  0  0  0  0  0
    7.5585  -14.4239   17.3873 N   0  0  0  0  0  0  0  0  0  0  0  0
    8.4728  -13.4929   17.1206 C   0  0  0  0  0  0  0  0  0  0  0  0
    9.5097  -13.6280   17.9335 N   0  0  0  0  0  0  0  0  0  0  0  0
   11.1205  -16.6659   21.3788 C   0  0  0  0  0  0  0  0  0  0  0  0
   11.5654  -16.0980   22.3974 O   0  0  0  0  0  0  0  0  0  0  0  0
   11.8115  -17.7910   20.8765 N   0  0  0  0  0  0  0  0  0  0  0  0
   13.0165  -18.3393   21.5370 C   0  0  1  0  0  0  0  0  0  0  0  0
   13.3381  -19.6810   20.9396 C   0  0  0  0  0  0  0  0  0  0  0  0
   14.6146  -20.2191   21.4792 C   0  0  0  0  0  0  0  0  0  0  0  0
   15.0169  -21.5307   20.8125 C   0  0  0  0  0  0  0  0  0  0  0  0
   16.3383  -22.0229   21.3216 C   0  0  0  0  0  0  0  0  0  0  0  0
   16.7591  -23.1798   20.5343 N   0  0  0  0  0  0  0  0  0  0  0  0
   14.0884  -17.3814   21.2526 C   0  0  0  0  0  0  0  0  0  0  0  0
   15.0598  -17.0974   22.1753 O   0  0  0  0  0  0  0  0  0  0  0  0
   14.1507  -16.7857   20.1520 O   0  0  0  0  0  0  0  0  0  0  0  0
  2  1  1  1
  2  3  1  0
  4  5  2  0
  4  3  1  0
  6  5  1  0
  7 12  2  0
  7  6  1  0
  8  7  1  0
  9 10  1  0
  9  8  2  0
 10 11  2  0
 11 12  1  0
 12  4  1  0
 13  2  1  0
 14 13  2  0
 15 13  1  0
 16 17  1  1
 16 15  1  0
 17 18  1  0
 18 22  1  0
 19 18  2  0
 19 20  1  0
 20 21  1  0
 22 21  2  0
 23 24  2  0
 23 16  1  0
 25 23  1  0
 26 27  1  6
 26 25  1  0
 27 28  1  0
 29 28  1  0
 30 29  1  0
 31 30  1  0
 32 26  1  0
 33 32  1  0
 34 32  2  0
M  END
$$$$
