WHK.pdb
     RDKit          3D

 34 36  0  0  1  0  0  0  0  0999 V2000
    6.4794  -17.4749   25.1295 N   0  0  0  0  0  0  0  0  0  0  0  0
    6.8436  -16.1417   24.6969 C   0  0  1  0  0  0  0  0  0  0  0  0
    8.0295  -15.5805   25.3801 C   0  0  0  0  0  0  0  0  0  0  0  0
    7.8403  -14.6073   26.4434 C   0  0  0  0  0  0  0  0  0  0  0  0
    8.3007  -14.8691   27.7515 C   0  0  0  0  0  0  0  0  0  0  0  0
    8.0157  -13.8300   28.5230 N   0  0  0  0  0  0  0  0  0  0  0  0
    7.3858  -12.8668   27.8245 C   0  0  0  0  0  0  0  0  0  0  0  0
    6.8944  -11.6258   28.1686 C   0  0  0  0  0  0  0  0  0  0  0  0
    6.2826  -10.8558   27.1992 C   0  0  0  0  0  0  0  0  0  0  0  0
    6.1768  -11.3464   25.9066 C   0  0  0  0  0  0  0  0  0  0  0  0
    6.6665  -12.5887   25.5529 C   0  0  0  0  0  0  0  0  0  0  0  0
    7.2759  -13.3587   26.5131 C   0  0  0  0  0  0  0  0  0  0  0  0
    7.2206  -16.2491   23.2160 C   0  0  0  0  0  0  0  0  0  0  0  0
    7.4878  -17.3796   22.7844 O   0  0  0  0  0  0  0  0  0  0  0  0
    7.2691  -15.1311   22.3631 N   0  0  0  0  0  0  0  0  0  0  0  0
    7.7311  -15.1834   21.0110 C   0  0  1  0  0  0  0  0  0  0  0  0
    7.4285  -13.9797   20.2148 C   0  0  0  0  0  0  0  0  0  0  0  0
    7.8556  -13.9685   18.8129 C   0  0  0  0  0  0  0  0  0  0  0  0
    8.6534  -13.1714   18.0577 C   0  0  0  0  0  0  0  0  0  0  0  0
    8.7262  -13.6419   16.8030 N   0  0  0  0  0  0  0  0  0  0  0  0
    7.9723  -14.7393   16.7678 C   0  0  0  0  0  0  0  0  0  0  0  0
    7.4367  -14.9614   17.9586 N   0  0  0  0  0  0  0  0  0  0  0  0
    9.2022  -15.4605   20.9339 C   0  0  0  0  0  0  0  0  0  0  0  0
    9.9311  -15.0099   21.8415 O   0  0  0  0  0  0  0  0  0  0  0  0
    9.8017  -16.2024   19.8919 N   0  0  0  0  0  0  0  0  0  0  0  0
   11.2080  -16.6579   19.9526 C   0  0  1  0  0  0  0  0  0  0  0  0
   11.2965  -17.8652   20.8444 C   0  0  0  0  0  0  0  0  0  0  0  0
   12.6723  -18.4286   20.8533 C   0  0  0  0  0  0  0  0  0  0  0  0
   12.7974  -19.6335   21.7803 C   0  0  0  0  0  0  0  0  0  0  0  0
   14.1756  -20.2220   21.7331 C   0  0  0  0  0  0  0  0  0  0  0  0
   14.3063  -21.2314   22.7815 N   0  0  0  0  0  0  0  0  0  0  0  0
   11.5646  -17.0106   18.5757 C   0  0  0  0  0  0  0  0  0  0  0  0
   12.7341  -16.5827   18.0057 O   0  0  0  0  0  0  0  0  0  0  0  0
   10.8069  -17.7162   17.8700 O   0  0  0  0  0  0  0  0  0  0  0  0
  2  1  1  1
  2  3  1  0
  4  5  2  0
  4  3  1  0
  6  5  1  0
  7 12  2  0
  7  6  1  0
  8  7  1  0
  9 10  1  0
  9  8  2  0
 10 11  2  0
 11 12  1  0
 12  4  1  0
 13  2  1  0
 14 13  2  0
 15 13  1  0
 16 17  1  1
 16 15  1  0
 17 18  1  0
 18 22  1  0
 19 18  2  0
 19 20  1  0
 20 21  1  0
 22 21  2  0
 23 24  2  0
 23 16  1  0
 25 23  1  0
 26 27  1  1
 26 25  1  0
 27 28  1  0
 29 28  1  0
 30 29  1  0
 31 30  1  0
 32 26  1  0
 33 32  1  0
 34 32  2  0
M  END
$$$$
