WHK.pdb
     RDKit          3D

 34 36  0  0  1  0  0  0  0  0999 V2000
    6.0854  -18.2006   23.7250 N   0  0  0  0  0  0  0  0  0  0  0  0
    6.4809  -16.8181   23.8973 C   0  0  1  0  0  0  0  0  0  0  0  0
    6.9591  -16.4845   25.2567 C   0  0  0  0  0  0  0  0  0  0  0  0
    6.5661  -15.2195   25.8556 C   0  0  0  0  0  0  0  0  0  0  0  0
    5.2498  -15.0209   26.3242 C   0  0  0  0  0  0  0  0  0  0  0  0
    5.1533  -13.7991   26.8283 N   0  0  0  0  0  0  0  0  0  0  0  0
    6.3251  -13.1430   26.7353 C   0  0  0  0  0  0  0  0  0  0  0  0
    6.7252  -11.8775   27.1072 C   0  0  0  0  0  0  0  0  0  0  0  0
    8.0290  -11.4904   26.8684 C   0  0  0  0  0  0  0  0  0  0  0  0
    8.9030  -12.3800   26.2622 C   0  0  0  0  0  0  0  0  0  0  0  0
    8.5108  -13.6500   25.8862 C   0  0  0  0  0  0  0  0  0  0  0  0
    7.2151  -14.0402   26.1215 C   0  0  0  0  0  0  0  0  0  0  0  0
    7.6705  -16.5827   22.9613 C   0  0  0  0  0  0  0  0  0  0  0  0
    8.3685  -17.5673   22.6805 O   0  0  0  0  0  0  0  0  0  0  0  0
    7.9787  -15.3163   22.4309 N   0  0  0  0  0  0  0  0  0  0  0  0
    9.1618  -15.0374   21.6781 C   0  0  1  0  0  0  0  0  0  0  0  0
    9.0990  -13.8012   20.8767 C   0  0  0  0  0  0  0  0  0  0  0  0
    8.4436  -13.8737   19.5679 C   0  0  0  0  0  0  0  0  0  0  0  0
    7.7254  -13.0122   18.8037 C   0  0  0  0  0  0  0  0  0  0  0  0
    7.3737  -13.5979   17.6486 N   0  0  0  0  0  0  0  0  0  0  0  0
    7.8725  -14.8323   17.6850 C   0  0  0  0  0  0  0  0  0  0  0  0
    8.5198  -15.0277   18.8238 N   0  0  0  0  0  0  0  0  0  0  0  0
   10.3803  -14.9905   22.5500 C   0  0  0  0  0  0  0  0  0  0  0  0
   10.3181  -14.3309   23.6078 O   0  0  0  0  0  0  0  0  0  0  0  0
   11.5884  -15.6523   22.2367 N   0  0  0  0  0  0  0  0  0  0  0  0
   12.4330  -16.2892   23.2711 C   0  0  1  0  0  0  0  0  0  0  0  0
   11.6772  -17.4331   23.8882 C   0  0  0  0  0  0  0  0  0  0  0  0
   12.5328  -18.1956   24.8352 C   0  0  0  0  0  0  0  0  0  0  0  0
   11.7494  -19.2654   25.5892 C   0  0  0  0  0  0  0  0  0  0  0  0
   12.6343  -20.0430   26.5164 C   0  0  0  0  0  0  0  0  0  0  0  0
   11.9780  -20.1729   27.8155 N   0  0  0  0  0  0  0  0  0  0  0  0
   13.6169  -16.7808   22.5611 C   0  0  0  0  0  0  0  0  0  0  0  0
   14.8769  -16.3540   22.8865 O   0  0  0  0  0  0  0  0  0  0  0  0
   13.5152  -17.6095   21.6268 O   0  0  0  0  0  0  0  0  0  0  0  0
  2  1  1  1
  2  3  1  0
  4  5  2  0
  4  3  1  0
  6  5  1  0
  7 12  2  0
  7  6  1  0
  8  7  1  0
  9 10  1  0
  9  8  2  0
 10 11  2  0
 11 12  1  0
 12  4  1  0
 13  2  1  0
 14 13  2  0
 15 13  1  0
 16 17  1  1
 16 15  1  0
 17 18  1  0
 18 22  1  0
 19 18  2  0
 19 20  1  0
 20 21  1  0
 22 21  2  0
 23 24  2  0
 23 16  1  0
 25 23  1  0
 26 27  1  6
 26 25  1  0
 27 28  1  0
 29 28  1  0
 30 29  1  0
 31 30  1  0
 32 26  1  0
 33 32  1  0
 34 32  2  0
M  END
$$$$
