WHK.pdb
     RDKit          3D

 34 36  0  0  1  0  0  0  0  0999 V2000
    5.9273  -16.9377   23.0091 N   0  0  0  0  0  0  0  0  0  0  0  0
    6.9850  -15.9576   22.8754 C   0  0  1  0  0  0  0  0  0  0  0  0
    7.7349  -15.6942   24.1228 C   0  0  0  0  0  0  0  0  0  0  0  0
    7.0964  -14.9374   25.1872 C   0  0  0  0  0  0  0  0  0  0  0  0
    6.1064  -15.5296   26.0002 C   0  0  0  0  0  0  0  0  0  0  0  0
    5.6942  -14.6400   26.8917 N   0  0  0  0  0  0  0  0  0  0  0  0
    6.3413  -13.4690   26.7420 C   0  0  0  0  0  0  0  0  0  0  0  0
    6.2686  -12.2639   27.4072 C   0  0  0  0  0  0  0  0  0  0  0  0
    7.0842  -11.2257   27.0026 C   0  0  0  0  0  0  0  0  0  0  0  0
    7.9546  -11.4180   25.9404 C   0  0  0  0  0  0  0  0  0  0  0  0
    8.0342  -12.6222   25.2682 C   0  0  0  0  0  0  0  0  0  0  0  0
    7.2252  -13.6582   25.6665 C   0  0  0  0  0  0  0  0  0  0  0  0
    8.0001  -16.5404   21.8872 C   0  0  0  0  0  0  0  0  0  0  0  0
    7.5481  -17.1967   20.9383 O   0  0  0  0  0  0  0  0  0  0  0  0
    9.3877  -16.3542   22.0277 N   0  0  0  0  0  0  0  0  0  0  0  0
   10.1893  -15.6248   21.0950 C   0  0  1  0  0  0  0  0  0  0  0  0
    9.6474  -14.3043   20.7250 C   0  0  0  0  0  0  0  0  0  0  0  0
    8.9249  -14.1994   19.4542 C   0  0  0  0  0  0  0  0  0  0  0  0
    8.2795  -13.2039   18.7950 C   0  0  0  0  0  0  0  0  0  0  0  0
    7.8037  -13.6544   17.6238 N   0  0  0  0  0  0  0  0  0  0  0  0
    8.1509  -14.9378   17.5447 C   0  0  0  0  0  0  0  0  0  0  0  0
    8.8248  -15.2941   18.6278 N   0  0  0  0  0  0  0  0  0  0  0  0
   11.5966  -15.4539   21.5823 C   0  0  0  0  0  0  0  0  0  0  0  0
   12.0519  -14.2944   21.6616 O   0  0  0  0  0  0  0  0  0  0  0  0
   12.4285  -16.5332   21.9548 N   0  0  0  0  0  0  0  0  0  0  0  0
   12.8192  -16.7827   23.3598 C   0  0  1  0  0  0  0  0  0  0  0  0
   11.5821  -17.0248   24.1793 C   0  0  0  0  0  0  0  0  0  0  0  0
   11.9243  -17.3400   25.5913 C   0  0  0  0  0  0  0  0  0  0  0  0
   10.6868  -17.6251   26.4363 C   0  0  0  0  0  0  0  0  0  0  0  0
   11.0520  -17.9463   27.8544 C   0  0  0  0  0  0  0  0  0  0  0  0
    9.8349  -18.2059   28.6201 N   0  0  0  0  0  0  0  0  0  0  0  0
   13.6548  -17.9860   23.3256 C   0  0  0  0  0  0  0  0  0  0  0  0
   14.7116  -18.1498   24.1811 O   0  0  0  0  0  0  0  0  0  0  0  0
   13.4311  -18.9079   22.5070 O   0  0  0  0  0  0  0  0  0  0  0  0
  2  1  1  1
  2  3  1  0
  4  5  2  0
  4  3  1  0
  6  5  1  0
  7 12  2  0
  7  6  1  0
  8  7  1  0
  9 10  1  0
  9  8  2  0
 10 11  2  0
 11 12  1  0
 12  4  1  0
 13  2  1  0
 14 13  2  0
 15 13  1  0
 16 17  1  1
 16 15  1  0
 17 18  1  0
 18 22  1  0
 19 18  2  0
 19 20  1  0
 20 21  1  0
 22 21  2  0
 23 24  2  0
 23 16  1  0
 25 23  1  0
 26 27  1  1
 26 25  1  0
 27 28  1  0
 29 28  1  0
 30 29  1  0
 31 30  1  0
 32 26  1  0
 33 32  1  0
 34 32  2  0
M  END
$$$$
