WHK.pdb
     RDKit          3D

 34 36  0  0  1  0  0  0  0  0999 V2000
    6.6444  -17.5799   21.3223 N   0  0  0  0  0  0  0  0  0  0  0  0
    7.2715  -16.3936   21.8670 C   0  0  1  0  0  0  0  0  0  0  0  0
    6.3962  -15.5896   22.7475 C   0  0  0  0  0  0  0  0  0  0  0  0
    6.8942  -14.3351   23.2877 C   0  0  0  0  0  0  0  0  0  0  0  0
    7.6281  -13.4417   22.4785 C   0  0  0  0  0  0  0  0  0  0  0  0
    7.9555  -12.3792   23.1997 N   0  0  0  0  0  0  0  0  0  0  0  0
    7.4908  -12.4868   24.4587 C   0  0  0  0  0  0  0  0  0  0  0  0
    7.5691  -11.6646   25.5623 C   0  0  0  0  0  0  0  0  0  0  0  0
    6.9755  -12.0690   26.7417 C   0  0  0  0  0  0  0  0  0  0  0  0
    6.3167  -13.2882   26.7891 C   0  0  0  0  0  0  0  0  0  0  0  0
    6.2333  -14.1183   25.6881 C   0  0  0  0  0  0  0  0  0  0  0  0
    6.8218  -13.7210   24.5125 C   0  0  0  0  0  0  0  0  0  0  0  0
    8.4291  -16.8748   22.7474 C   0  0  0  0  0  0  0  0  0  0  0  0
    8.2398  -17.9029   23.4128 O   0  0  0  0  0  0  0  0  0  0  0  0
    9.6612  -16.1986   22.8160 N   0  0  0  0  0  0  0  0  0  0  0  0
   10.7985  -16.6911   23.5288 C   0  0  1  0  0  0  0  0  0  0  0  0
   12.0648  -16.0075   23.2065 C   0  0  0  0  0  0  0  0  0  0  0  0
   12.4636  -15.9473   21.7975 C   0  0  0  0  0  0  0  0  0  0  0  0
   12.2142  -16.6988   20.6952 C   0  0  0  0  0  0  0  0  0  0  0  0
   12.8235  -16.1682   19.6236 N   0  0  0  0  0  0  0  0  0  0  0  0
   13.4584  -15.0787   20.0521 C   0  0  0  0  0  0  0  0  0  0  0  0
   13.2613  -14.9194   21.3521 N   0  0  0  0  0  0  0  0  0  0  0  0
   10.5880  -16.6509   25.0124 C   0  0  0  0  0  0  0  0  0  0  0  0
   10.1913  -15.5811   25.5186 O   0  0  0  0  0  0  0  0  0  0  0  0
   10.8141  -17.7570   25.8616 N   0  0  0  0  0  0  0  0  0  0  0  0
   10.5523  -17.7038   27.3168 C   0  0  1  0  0  0  0  0  0  0  0  0
    9.5516  -18.7669   27.6762 C   0  0  0  0  0  0  0  0  0  0  0  0
   10.1175  -20.1277   27.4806 C   0  0  0  0  0  0  0  0  0  0  0  0
    9.1323  -21.2250   27.8704 C   0  0  0  0  0  0  0  0  0  0  0  0
    9.6813  -22.5876   27.5713 C   0  0  0  0  0  0  0  0  0  0  0  0
    8.7468  -23.6020   28.0540 N   0  0  0  0  0  0  0  0  0  0  0  0
   11.8421  -17.9769   27.9564 C   0  0  0  0  0  0  0  0  0  0  0  0
   12.0140  -17.8456   29.3088 O   0  0  0  0  0  0  0  0  0  0  0  0
   12.8358  -18.3385   27.2842 O   0  0  0  0  0  0  0  0  0  0  0  0
  2  1  1  1
  2  3  1  0
  4  5  2  0
  4  3  1  0
  6  5  1  0
  7 12  2  0
  7  6  1  0
  8  7  1  0
  9 10  1  0
  9  8  2  0
 10 11  2  0
 11 12  1  0
 12  4  1  0
 13  2  1  0
 14 13  2  0
 15 13  1  0
 16 17  1  1
 16 15  1  0
 17 18  1  0
 18 22  1  0
 19 18  2  0
 19 20  1  0
 20 21  1  0
 22 21  2  0
 23 24  2  0
 23 16  1  0
 25 23  1  0
 26 27  1  6
 26 25  1  0
 27 28  1  0
 29 28  1  0
 30 29  1  0
 31 30  1  0
 32 26  1  0
 33 32  1  0
 34 32  2  0
M  END
$$$$
