WHK.pdb
     RDKit          3D

 34 36  0  0  1  0  0  0  0  0999 V2000
    6.2497  -17.4877   23.2675 N   0  0  0  0  0  0  0  0  0  0  0  0
    6.9688  -16.2313   23.2258 C   0  0  1  0  0  0  0  0  0  0  0  0
    7.6227  -15.8593   24.4994 C   0  0  0  0  0  0  0  0  0  0  0  0
    6.9495  -14.9364   25.3985 C   0  0  0  0  0  0  0  0  0  0  0  0
    5.9496  -15.3918   26.2843 C   0  0  0  0  0  0  0  0  0  0  0  0
    5.5048  -14.3650   26.9942 N   0  0  0  0  0  0  0  0  0  0  0  0
    6.1387  -13.2281   26.6506 C   0  0  0  0  0  0  0  0  0  0  0  0
    6.0339  -11.9252   27.0882 C   0  0  0  0  0  0  0  0  0  0  0  0
    6.8440  -10.9614   26.5210 C   0  0  0  0  0  0  0  0  0  0  0  0
    7.7410  -11.3244   25.5278 C   0  0  0  0  0  0  0  0  0  0  0  0
    7.8526  -12.6276   25.0832 C   0  0  0  0  0  0  0  0  0  0  0  0
    7.0494  -13.5902   25.6441 C   0  0  0  0  0  0  0  0  0  0  0  0
    8.0986  -16.4067   22.2062 C   0  0  0  0  0  0  0  0  0  0  0  0
    8.5436  -17.5528   22.0517 O   0  0  0  0  0  0  0  0  0  0  0  0
    8.6252  -15.3321   21.4662 N   0  0  0  0  0  0  0  0  0  0  0  0
    9.8009  -15.4254   20.6578 C   0  0  1  0  0  0  0  0  0  0  0  0
    9.9588  -14.3326   19.6804 C   0  0  0  0  0  0  0  0  0  0  0  0
    8.8914  -14.1454   18.6938 C   0  0  0  0  0  0  0  0  0  0  0  0
    7.9390  -13.2033   18.4755 C   0  0  0  0  0  0  0  0  0  0  0  0
    7.2180  -13.5151   17.3874 N   0  0  0  0  0  0  0  0  0  0  0  0
    7.7180  -14.6570   16.9184 C   0  0  0  0  0  0  0  0  0  0  0  0
    8.7232  -15.0601   17.6807 N   0  0  0  0  0  0  0  0  0  0  0  0
   11.0446  -15.5176   21.4896 C   0  0  0  0  0  0  0  0  0  0  0  0
   11.3627  -14.5267   22.1787 O   0  0  0  0  0  0  0  0  0  0  0  0
   11.8696  -16.6635   21.5331 N   0  0  0  0  0  0  0  0  0  0  0  0
   12.9613  -16.8155   22.5200 C   0  0  1  0  0  0  0  0  0  0  0  0
   12.3677  -16.9356   23.8962 C   0  0  0  0  0  0  0  0  0  0  0  0
   11.7481  -18.2715   24.1009 C   0  0  0  0  0  0  0  0  0  0  0  0
   11.2131  -18.4494   25.5182 C   0  0  0  0  0  0  0  0  0  0  0  0
   10.5296  -19.7733   25.6851 C   0  0  0  0  0  0  0  0  0  0  0  0
   10.2507  -19.9982   27.1017 N   0  0  0  0  0  0  0  0  0  0  0  0
   13.6531  -18.0533   22.1504 C   0  0  0  0  0  0  0  0  0  0  0  0
   13.1743  -18.8758   21.1656 O   0  0  0  0  0  0  0  0  0  0  0  0
   14.7087  -18.4034   22.7275 O   0  0  0  0  0  0  0  0  0  0  0  0
  2  1  1  1
  2  3  1  0
  4  5  2  0
  4  3  1  0
  6  5  1  0
  7 12  2  0
  7  6  1  0
  8  7  1  0
  9 10  1  0
  9  8  2  0
 10 11  2  0
 11 12  1  0
 12  4  1  0
 13  2  1  0
 14 13  2  0
 15 13  1  0
 16 17  1  6
 16 15  1  0
 17 18  1  0
 18 22  1  0
 19 18  2  0
 19 20  1  0
 20 21  1  0
 22 21  2  0
 23 24  2  0
 23 16  1  0
 25 23  1  0
 26 27  1  1
 26 25  1  0
 27 28  1  0
 29 28  1  0
 30 29  1  0
 31 30  1  0
 32 26  1  0
 33 32  1  0
 34 32  2  0
M  END
$$$$
