WHK.pdb
     RDKit          3D

 34 36  0  0  1  0  0  0  0  0999 V2000
    6.0475  -17.7228   23.6070 N   0  0  0  0  0  0  0  0  0  0  0  0
    6.8658  -16.5282   23.6332 C   0  0  1  0  0  0  0  0  0  0  0  0
    7.4972  -16.2491   24.9413 C   0  0  0  0  0  0  0  0  0  0  0  0
    6.9614  -15.1848   25.7742 C   0  0  0  0  0  0  0  0  0  0  0  0
    6.0192  -15.4657   26.7867 C   0  0  0  0  0  0  0  0  0  0  0  0
    5.6997  -14.3360   27.4012 N   0  0  0  0  0  0  0  0  0  0  0  0
    6.3658  -13.2922   26.8727 C   0  0  0  0  0  0  0  0  0  0  0  0
    6.3764  -11.9435   27.1570 C   0  0  0  0  0  0  0  0  0  0  0  0
    7.1878  -11.1091   26.4138 C   0  0  0  0  0  0  0  0  0  0  0  0
    7.9704  -11.6447   25.4022 C   0  0  0  0  0  0  0  0  0  0  0  0
    7.9661  -12.9949   25.1105 C   0  0  0  0  0  0  0  0  0  0  0  0
    7.1610  -13.8293   25.8466 C   0  0  0  0  0  0  0  0  0  0  0  0
    8.0167  -16.7638   22.6501 C   0  0  0  0  0  0  0  0  0  0  0  0
    8.3574  -17.9390   22.4544 O   0  0  0  0  0  0  0  0  0  0  0  0
    8.6742  -15.7115   21.9866 N   0  0  0  0  0  0  0  0  0  0  0  0
    9.7378  -15.9045   21.0507 C   0  0  1  0  0  0  0  0  0  0  0  0
    9.9550  -14.7729   20.1306 C   0  0  0  0  0  0  0  0  0  0  0  0
    8.9398  -14.5306   19.1016 C   0  0  0  0  0  0  0  0  0  0  0  0
    7.8226  -15.1776   18.6829 C   0  0  0  0  0  0  0  0  0  0  0  0
    7.2292  -14.4885   17.6960 N   0  0  0  0  0  0  0  0  0  0  0  0
    7.9746  -13.4037   17.4927 C   0  0  0  0  0  0  0  0  0  0  0  0
    9.0081  -13.4005   18.3210 N   0  0  0  0  0  0  0  0  0  0  0  0
   11.0312  -16.2305   21.7347 C   0  0  0  0  0  0  0  0  0  0  0  0
   11.2579  -15.7001   22.8417 O   0  0  0  0  0  0  0  0  0  0  0  0
   12.0007  -17.1035   21.1929 N   0  0  0  0  0  0  0  0  0  0  0  0
   13.0679  -17.7109   22.0181 C   0  0  1  0  0  0  0  0  0  0  0  0
   13.0535  -19.2015   21.8222 C   0  0  0  0  0  0  0  0  0  0  0  0
   14.1622  -19.8536   22.5679 C   0  0  0  0  0  0  0  0  0  0  0  0
   14.1484  -21.3711   22.4140 C   0  0  0  0  0  0  0  0  0  0  0  0
   15.2033  -22.0185   23.2600 C   0  0  0  0  0  0  0  0  0  0  0  0
   14.5644  -22.7684   24.3392 N   0  0  0  0  0  0  0  0  0  0  0  0
   14.3216  -17.1403   21.5179 C   0  0  0  0  0  0  0  0  0  0  0  0
   14.3646  -16.4054   20.3630 O   0  0  0  0  0  0  0  0  0  0  0  0
   15.4011  -17.3089   22.1312 O   0  0  0  0  0  0  0  0  0  0  0  0
  2  1  1  1
  2  3  1  0
  4  5  2  0
  4  3  1  0
  6  5  1  0
  7 12  2  0
  7  6  1  0
  8  7  1  0
  9 10  1  0
  9  8  2  0
 10 11  2  0
 11 12  1  0
 12  4  1  0
 13  2  1  0
 14 13  2  0
 15 13  1  0
 16 17  1  1
 16 15  1  0
 17 18  1  0
 18 22  1  0
 19 18  2  0
 19 20  1  0
 20 21  1  0
 22 21  2  0
 23 24  2  0
 23 16  1  0
 25 23  1  0
 26 27  1  6
 26 25  1  0
 27 28  1  0
 29 28  1  0
 30 29  1  0
 31 30  1  0
 32 26  1  0
 33 32  1  0
 34 32  2  0
M  END
$$$$
