WHK.pdb
     RDKit          3D

 34 36  0  0  1  0  0  0  0  0999 V2000
    6.8187  -18.2701   25.0652 N   0  0  0  0  0  0  0  0  0  0  0  0
    6.9627  -16.8583   24.7767 C   0  0  1  0  0  0  0  0  0  0  0  0
    7.4714  -16.0525   25.9080 C   0  0  0  0  0  0  0  0  0  0  0  0
    6.7928  -14.8157   26.2589 C   0  0  0  0  0  0  0  0  0  0  0  0
    5.4194  -14.8131   26.5837 C   0  0  0  0  0  0  0  0  0  0  0  0
    5.0486  -13.5739   26.8717 N   0  0  0  0  0  0  0  0  0  0  0  0
    6.0849  -12.7213   26.7648 C   0  0  0  0  0  0  0  0  0  0  0  0
    6.2059  -11.3614   26.9547 C   0  0  0  0  0  0  0  0  0  0  0  0
    7.4358  -10.7649   26.7588 C   0  0  0  0  0  0  0  0  0  0  0  0
    8.5173  -11.5444   26.3770 C   0  0  0  0  0  0  0  0  0  0  0  0
    8.4052  -12.9077   26.1846 C   0  0  0  0  0  0  0  0  0  0  0  0
    7.1842  -13.5060   26.3781 C   0  0  0  0  0  0  0  0  0  0  0  0
    8.0143  -16.7424   23.6688 C   0  0  0  0  0  0  0  0  0  0  0  0
    8.7250  -17.7363   23.4620 O   0  0  0  0  0  0  0  0  0  0  0  0
    8.1864  -15.5724   22.9063 N   0  0  0  0  0  0  0  0  0  0  0  0
    8.5733  -15.5715   21.5299 C   0  0  1  0  0  0  0  0  0  0  0  0
    7.7988  -14.6501   20.6780 C   0  0  0  0  0  0  0  0  0  0  0  0
    8.1488  -14.5846   19.2563 C   0  0  0  0  0  0  0  0  0  0  0  0
    9.1014  -15.1527   18.4740 C   0  0  0  0  0  0  0  0  0  0  0  0
    8.9503  -14.7607   17.1994 N   0  0  0  0  0  0  0  0  0  0  0  0
    7.8989  -13.9435   17.1786 C   0  0  0  0  0  0  0  0  0  0  0  0
    7.3964  -13.8181   18.3976 N   0  0  0  0  0  0  0  0  0  0  0  0
   10.0337  -15.2791   21.3605 C   0  0  0  0  0  0  0  0  0  0  0  0
   10.5087  -15.3188   20.2070 O   0  0  0  0  0  0  0  0  0  0  0  0
   10.8943  -14.9618   22.4349 N   0  0  0  0  0  0  0  0  0  0  0  0
   11.9636  -15.8779   22.8893 C   0  0  1  0  0  0  0  0  0  0  0  0
   11.3378  -17.1156   23.4699 C   0  0  0  0  0  0  0  0  0  0  0  0
   12.3554  -18.1731   23.7075 C   0  0  0  0  0  0  0  0  0  0  0  0
   11.7428  -19.4460   24.2829 C   0  0  0  0  0  0  0  0  0  0  0  0
   12.7840  -20.4987   24.5186 C   0  0  0  0  0  0  0  0  0  0  0  0
   12.1469  -21.6951   25.0643 N   0  0  0  0  0  0  0  0  0  0  0  0
   12.7327  -16.2084   21.6865 C   0  0  0  0  0  0  0  0  0  0  0  0
   12.5914  -15.4946   20.5263 O   0  0  0  0  0  0  0  0  0  0  0  0
   13.5466  -17.1610   21.6786 O   0  0  0  0  0  0  0  0  0  0  0  0
  2  1  1  1
  2  3  1  0
  4  5  2  0
  4  3  1  0
  6  5  1  0
  7 12  2  0
  7  6  1  0
  8  7  1  0
  9 10  1  0
  9  8  2  0
 10 11  2  0
 11 12  1  0
 12  4  1  0
 13  2  1  0
 14 13  2  0
 15 13  1  0
 16 17  1  6
 16 15  1  0
 17 18  1  0
 18 22  1  0
 19 18  2  0
 19 20  1  0
 20 21  1  0
 22 21  2  0
 23 24  2  0
 23 16  1  0
 25 23  1  0
 26 27  1  6
 26 25  1  0
 27 28  1  0
 29 28  1  0
 30 29  1  0
 31 30  1  0
 32 26  1  0
 33 32  1  0
 34 32  2  0
M  END
$$$$
