WHK.pdb
     RDKit          3D

 34 36  0  0  1  0  0  0  0  0999 V2000
    6.2951  -18.5105   25.0163 N   0  0  0  0  0  0  0  0  0  0  0  0
    6.2944  -17.0777   24.8051 C   0  0  1  0  0  0  0  0  0  0  0  0
    6.9135  -16.2987   25.8995 C   0  0  0  0  0  0  0  0  0  0  0  0
    6.3750  -14.9894   26.2300 C   0  0  0  0  0  0  0  0  0  0  0  0
    5.0300  -14.8425   26.6312 C   0  0  0  0  0  0  0  0  0  0  0  0
    4.7939  -13.5627   26.8814 N   0  0  0  0  0  0  0  0  0  0  0  0
    5.8966  -12.8179   26.6767 C   0  0  0  0  0  0  0  0  0  0  0  0
    6.1545  -11.4692   26.7957 C   0  0  0  0  0  0  0  0  0  0  0  0
    7.4204  -11.0013   26.5032 C   0  0  0  0  0  0  0  0  0  0  0  0
    8.3997  -11.8954   26.0980 C   0  0  0  0  0  0  0  0  0  0  0  0
    8.1501  -13.2486   25.9760 C   0  0  0  0  0  0  0  0  0  0  0  0
    6.8928  -13.7193   26.2657 C   0  0  0  0  0  0  0  0  0  0  0  0
    7.1527  -16.8174   23.5632 C   0  0  0  0  0  0  0  0  0  0  0  0
    8.0295  -17.6528   23.3006 O   0  0  0  0  0  0  0  0  0  0  0  0
    6.9746  -15.6892   22.7416 N   0  0  0  0  0  0  0  0  0  0  0  0
    7.7195  -15.4535   21.5441 C   0  0  1  0  0  0  0  0  0  0  0  0
    7.2480  -14.3061   20.7469 C   0  0  0  0  0  0  0  0  0  0  0  0
    8.0156  -13.9502   19.5502 C   0  0  0  0  0  0  0  0  0  0  0  0
    8.9448  -13.0078   19.2496 C   0  0  0  0  0  0  0  0  0  0  0  0
    9.3526  -13.1462   17.9786 N   0  0  0  0  0  0  0  0  0  0  0  0
    8.6785  -14.1796   17.4770 C   0  0  0  0  0  0  0  0  0  0  0  0
    7.8684  -14.6831   18.3959 N   0  0  0  0  0  0  0  0  0  0  0  0
    9.1831  -15.2849   21.8210 C   0  0  0  0  0  0  0  0  0  0  0  0
    9.5665  -14.1987   22.3018 O   0  0  0  0  0  0  0  0  0  0  0  0
   10.1446  -16.2882   21.5672 N   0  0  0  0  0  0  0  0  0  0  0  0
   11.5937  -16.0630   21.7630 C   0  0  1  0  0  0  0  0  0  0  0  0
   12.1677  -17.2072   22.5516 C   0  0  0  0  0  0  0  0  0  0  0  0
   11.6769  -18.5140   22.0398 C   0  0  0  0  0  0  0  0  0  0  0  0
   12.3279  -19.6952   22.7523 C   0  0  0  0  0  0  0  0  0  0  0  0
   11.9341  -20.9992   22.1261 C   0  0  0  0  0  0  0  0  0  0  0  0
   12.6521  -22.0881   22.7847 N   0  0  0  0  0  0  0  0  0  0  0  0
   12.1698  -16.0289   20.4160 C   0  0  0  0  0  0  0  0  0  0  0  0
   11.4504  -16.4204   19.3183 O   0  0  0  0  0  0  0  0  0  0  0  0
   13.3456  -15.6415   20.2231 O   0  0  0  0  0  0  0  0  0  0  0  0
  2  1  1  1
  2  3  1  0
  4  5  2  0
  4  3  1  0
  6  5  1  0
  7 12  2  0
  7  6  1  0
  8  7  1  0
  9 10  1  0
  9  8  2  0
 10 11  2  0
 11 12  1  0
 12  4  1  0
 13  2  1  0
 14 13  2  0
 15 13  1  0
 16 17  1  1
 16 15  1  0
 17 18  1  0
 18 22  1  0
 19 18  2  0
 19 20  1  0
 20 21  1  0
 22 21  2  0
 23 24  2  0
 23 16  1  0
 25 23  1  0
 26 27  1  1
 26 25  1  0
 27 28  1  0
 29 28  1  0
 30 29  1  0
 31 30  1  0
 32 26  1  0
 33 32  1  0
 34 32  2  0
M  END
$$$$
