WHK.pdb
     RDKit          3D

 34 36  0  0  1  0  0  0  0  0999 V2000
    6.4602  -18.4352   24.7642 N   0  0  0  0  0  0  0  0  0  0  0  0
    6.5519  -17.0158   24.4919 C   0  0  1  0  0  0  0  0  0  0  0  0
    7.3117  -16.2480   25.5024 C   0  0  0  0  0  0  0  0  0  0  0  0
    6.7599  -15.0014   26.0075 C   0  0  0  0  0  0  0  0  0  0  0  0
    5.6003  -14.9990   26.8117 C   0  0  0  0  0  0  0  0  0  0  0  0
    5.3119  -13.7495   27.1457 N   0  0  0  0  0  0  0  0  0  0  0  0
    6.2042  -12.8895   26.6195 C   0  0  0  0  0  0  0  0  0  0  0  0
    6.3330  -11.5183   26.6756 C   0  0  0  0  0  0  0  0  0  0  0  0
    7.3830  -10.9169   26.0102 C   0  0  0  0  0  0  0  0  0  0  0  0
    8.2805  -11.7027   25.3034 C   0  0  0  0  0  0  0  0  0  0  0  0
    8.1591  -13.0774   25.2419 C   0  0  0  0  0  0  0  0  0  0  0  0
    7.1167  -13.6808   25.9019 C   0  0  0  0  0  0  0  0  0  0  0  0
    7.3281  -16.8706   23.1793 C   0  0  0  0  0  0  0  0  0  0  0  0
    8.2551  -17.6692   22.9830 O   0  0  0  0  0  0  0  0  0  0  0  0
    7.0231  -15.8841   22.2235 N   0  0  0  0  0  0  0  0  0  0  0  0
    7.8117  -15.6388   21.0562 C   0  0  1  0  0  0  0  0  0  0  0  0
    7.2624  -14.6112   20.1525 C   0  0  0  0  0  0  0  0  0  0  0  0
    7.9749  -14.3616   18.8963 C   0  0  0  0  0  0  0  0  0  0  0  0
    9.0458  -14.9150   18.2726 C   0  0  0  0  0  0  0  0  0  0  0  0
    9.2663  -14.3041   17.0982 N   0  0  0  0  0  0  0  0  0  0  0  0
    8.3309  -13.3632   16.9814 C   0  0  0  0  0  0  0  0  0  0  0  0
    7.5410  -13.3731   18.0444 N   0  0  0  0  0  0  0  0  0  0  0  0
    9.2245  -15.2769   21.4028 C   0  0  0  0  0  0  0  0  0  0  0  0
    9.4088  -14.4486   22.3182 O   0  0  0  0  0  0  0  0  0  0  0  0
   10.3514  -15.8237   20.7495 N   0  0  0  0  0  0  0  0  0  0  0  0
   11.5947  -16.1698   21.4729 C   0  0  1  0  0  0  0  0  0  0  0  0
   11.3016  -17.2663   22.4590 C   0  0  0  0  0  0  0  0  0  0  0  0
   12.5549  -17.8287   23.0276 C   0  0  0  0  0  0  0  0  0  0  0  0
   12.2837  -18.8376   24.1390 C   0  0  0  0  0  0  0  0  0  0  0  0
   13.5587  -19.3554   24.7338 C   0  0  0  0  0  0  0  0  0  0  0  0
   13.2451  -20.2481   25.8473 N   0  0  0  0  0  0  0  0  0  0  0  0
   12.5270  -16.6406   20.4451 C   0  0  0  0  0  0  0  0  0  0  0  0
   12.1252  -17.4858   19.4453 O   0  0  0  0  0  0  0  0  0  0  0  0
   13.7289  -16.2862   20.4484 O   0  0  0  0  0  0  0  0  0  0  0  0
  2  1  1  1
  2  3  1  0
  4  5  2  0
  4  3  1  0
  6  5  1  0
  7 12  2  0
  7  6  1  0
  8  7  1  0
  9 10  1  0
  9  8  2  0
 10 11  2  0
 11 12  1  0
 12  4  1  0
 13  2  1  0
 14 13  2  0
 15 13  1  0
 16 17  1  1
 16 15  1  0
 17 18  1  0
 18 22  1  0
 19 18  2  0
 19 20  1  0
 20 21  1  0
 22 21  2  0
 23 24  2  0
 23 16  1  0
 25 23  1  0
 26 27  1  1
 26 25  1  0
 27 28  1  0
 29 28  1  0
 30 29  1  0
 31 30  1  0
 32 26  1  0
 33 32  1  0
 34 32  2  0
M  END
$$$$
