WHK.pdb
     RDKit          3D

 34 36  0  0  1  0  0  0  0  0999 V2000
    6.5497  -18.2580   25.2013 N   0  0  0  0  0  0  0  0  0  0  0  0
    6.6204  -16.8723   24.7865 C   0  0  1  0  0  0  0  0  0  0  0  0
    7.4101  -16.0047   25.6873 C   0  0  0  0  0  0  0  0  0  0  0  0
    6.8309  -14.7566   26.1568 C   0  0  0  0  0  0  0  0  0  0  0  0
    5.6383  -14.7533   26.9114 C   0  0  0  0  0  0  0  0  0  0  0  0
    5.3296  -13.5023   27.2208 N   0  0  0  0  0  0  0  0  0  0  0  0
    6.2386  -12.6423   26.7245 C   0  0  0  0  0  0  0  0  0  0  0  0
    6.3577  -11.2699   26.7727 C   0  0  0  0  0  0  0  0  0  0  0  0
    7.4315  -10.6687   26.1464 C   0  0  0  0  0  0  0  0  0  0  0  0
    8.3623  -11.4560   25.4856 C   0  0  0  0  0  0  0  0  0  0  0  0
    8.2509  -12.8319   25.4323 C   0  0  0  0  0  0  0  0  0  0  0  0
    7.1848  -13.4350   26.0536 C   0  0  0  0  0  0  0  0  0  0  0  0
    7.3476  -16.8549   23.4383 C   0  0  0  0  0  0  0  0  0  0  0  0
    8.0929  -17.8130   23.1892 O   0  0  0  0  0  0  0  0  0  0  0  0
    7.1941  -15.8108   22.5077 N   0  0  0  0  0  0  0  0  0  0  0  0
    8.0152  -15.6541   21.3477 C   0  0  1  0  0  0  0  0  0  0  0  0
    7.6289  -14.5319   20.4726 C   0  0  0  0  0  0  0  0  0  0  0  0
    8.3774  -14.3558   19.2249 C   0  0  0  0  0  0  0  0  0  0  0  0
    9.3738  -15.0316   18.5984 C   0  0  0  0  0  0  0  0  0  0  0  0
    9.6797  -14.4357   17.4356 N   0  0  0  0  0  0  0  0  0  0  0  0
    8.8730  -13.3814   17.3288 C   0  0  0  0  0  0  0  0  0  0  0  0
    8.0799  -13.3068   18.3868 N   0  0  0  0  0  0  0  0  0  0  0  0
    9.4647  -15.5164   21.7041 C   0  0  0  0  0  0  0  0  0  0  0  0
    9.7959  -14.5772   22.4565 O   0  0  0  0  0  0  0  0  0  0  0  0
   10.4690  -16.3919   21.2344 N   0  0  0  0  0  0  0  0  0  0  0  0
   11.8888  -16.2497   21.6254 C   0  0  1  0  0  0  0  0  0  0  0  0
   12.3856  -17.5632   22.1624 C   0  0  0  0  0  0  0  0  0  0  0  0
   11.8176  -17.8449   23.5072 C   0  0  0  0  0  0  0  0  0  0  0  0
   12.2160  -19.2229   24.0259 C   0  0  0  0  0  0  0  0  0  0  0  0
   11.6850  -19.4644   25.4070 C   0  0  0  0  0  0  0  0  0  0  0  0
   11.9979  -20.8329   25.8127 N   0  0  0  0  0  0  0  0  0  0  0  0
   12.6003  -15.8976   20.3936 C   0  0  0  0  0  0  0  0  0  0  0  0
   12.5916  -16.7218   19.2999 O   0  0  0  0  0  0  0  0  0  0  0  0
   13.2454  -14.8275   20.3005 O   0  0  0  0  0  0  0  0  0  0  0  0
  2  1  1  1
  2  3  1  0
  4  5  2  0
  4  3  1  0
  6  5  1  0
  7 12  2  0
  7  6  1  0
  8  7  1  0
  9 10  1  0
  9  8  2  0
 10 11  2  0
 11 12  1  0
 12  4  1  0
 13  2  1  0
 14 13  2  0
 15 13  1  0
 16 17  1  1
 16 15  1  0
 17 18  1  0
 18 22  1  0
 19 18  2  0
 19 20  1  0
 20 21  1  0
 22 21  2  0
 23 24  2  0
 23 16  1  0
 25 23  1  0
 26 27  1  6
 26 25  1  0
 27 28  1  0
 29 28  1  0
 30 29  1  0
 31 30  1  0
 32 26  1  0
 33 32  1  0
 34 32  2  0
M  END
$$$$
