WHK.pdb
     RDKit          3D

 34 36  0  0  1  0  0  0  0  0999 V2000
    6.3899  -18.5121   25.1245 N   0  0  0  0  0  0  0  0  0  0  0  0
    6.4543  -17.0976   24.8206 C   0  0  1  0  0  0  0  0  0  0  0  0
    7.2441  -16.3011   25.7847 C   0  0  0  0  0  0  0  0  0  0  0  0
    6.7250  -15.0219   26.2405 C   0  0  0  0  0  0  0  0  0  0  0  0
    5.4054  -14.9109   26.7281 C   0  0  0  0  0  0  0  0  0  0  0  0
    5.1836  -13.6540   27.0845 N   0  0  0  0  0  0  0  0  0  0  0  0
    6.2722  -12.8911   26.8716 C   0  0  0  0  0  0  0  0  0  0  0  0
    6.5359  -11.5534   27.0739 C   0  0  0  0  0  0  0  0  0  0  0  0
    7.7826  -11.0596   26.7440 C   0  0  0  0  0  0  0  0  0  0  0  0
    8.7374  -11.9171   26.2188 C   0  0  0  0  0  0  0  0  0  0  0  0
    8.4818  -13.2590   26.0128 C   0  0  0  0  0  0  0  0  0  0  0  0
    7.2435  -13.7554   26.3392 C   0  0  0  0  0  0  0  0  0  0  0  0
    7.1767  -16.9707   23.4757 C   0  0  0  0  0  0  0  0  0  0  0  0
    7.9382  -17.8950   23.1571 O   0  0  0  0  0  0  0  0  0  0  0  0
    7.0017  -15.8656   22.6225 N   0  0  0  0  0  0  0  0  0  0  0  0
    7.7147  -15.6889   21.3958 C   0  0  1  0  0  0  0  0  0  0  0  0
    7.3221  -14.4929   20.6276 C   0  0  0  0  0  0  0  0  0  0  0  0
    7.9723  -14.2750   19.3324 C   0  0  0  0  0  0  0  0  0  0  0  0
    8.9425  -14.9083   18.6255 C   0  0  0  0  0  0  0  0  0  0  0  0
    9.1439  -14.2870   17.4531 N   0  0  0  0  0  0  0  0  0  0  0  0
    8.2973  -13.2593   17.4211 C   0  0  0  0  0  0  0  0  0  0  0  0
    7.5807  -13.2257   18.5344 N   0  0  0  0  0  0  0  0  0  0  0  0
    9.1980  -15.6636   21.6108 C   0  0  0  0  0  0  0  0  0  0  0  0
    9.6625  -14.8030   22.3864 O   0  0  0  0  0  0  0  0  0  0  0  0
   10.0915  -16.5605   20.9838 N   0  0  0  0  0  0  0  0  0  0  0  0
   11.5491  -16.5303   21.2350 C   0  0  1  0  0  0  0  0  0  0  0  0
   11.9907  -17.8777   21.7349 C   0  0  0  0  0  0  0  0  0  0  0  0
   11.6760  -18.0466   23.1781 C   0  0  0  0  0  0  0  0  0  0  0  0
   12.1585  -19.3876   23.7219 C   0  0  0  0  0  0  0  0  0  0  0  0
   11.8876  -19.5140   25.1910 C   0  0  0  0  0  0  0  0  0  0  0  0
   12.3781  -20.8068   25.6634 N   0  0  0  0  0  0  0  0  0  0  0  0
   12.1637  -16.2386   19.9370 C   0  0  0  0  0  0  0  0  0  0  0  0
   13.4043  -15.6661   19.8434 O   0  0  0  0  0  0  0  0  0  0  0  0
   11.5708  -16.5018   18.8649 O   0  0  0  0  0  0  0  0  0  0  0  0
  2  1  1  1
  2  3  1  0
  4  5  2  0
  4  3  1  0
  6  5  1  0
  7 12  2  0
  7  6  1  0
  8  7  1  0
  9 10  1  0
  9  8  2  0
 10 11  2  0
 11 12  1  0
 12  4  1  0
 13  2  1  0
 14 13  2  0
 15 13  1  0
 16 17  1  1
 16 15  1  0
 17 18  1  0
 18 22  1  0
 19 18  2  0
 19 20  1  0
 20 21  1  0
 22 21  2  0
 23 24  2  0
 23 16  1  0
 25 23  1  0
 26 27  1  6
 26 25  1  0
 27 28  1  0
 29 28  1  0
 30 29  1  0
 31 30  1  0
 32 26  1  0
 33 32  1  0
 34 32  2  0
M  END
$$$$
