WHK.pdb
     RDKit          3D

 34 36  0  0  1  0  0  0  0  0999 V2000
    6.3972  -17.8168   23.8362 N   0  0  0  0  0  0  0  0  0  0  0  0
    7.0072  -16.5039   23.7982 C   0  0  1  0  0  0  0  0  0  0  0  0
    7.5461  -16.0431   25.0963 C   0  0  0  0  0  0  0  0  0  0  0  0
    6.8498  -14.9917   25.8197 C   0  0  0  0  0  0  0  0  0  0  0  0
    5.7488  -15.2938   26.6493 C   0  0  0  0  0  0  0  0  0  0  0  0
    5.3027  -14.1722   27.1961 N   0  0  0  0  0  0  0  0  0  0  0  0
    6.0309  -13.1140   26.7929 C   0  0  0  0  0  0  0  0  0  0  0  0
    5.9638  -11.7661   27.0730 C   0  0  0  0  0  0  0  0  0  0  0  0
    6.8772  -10.9138   26.4845 C   0  0  0  0  0  0  0  0  0  0  0  0
    7.8375  -11.4312   25.6284 C   0  0  0  0  0  0  0  0  0  0  0  0
    7.9121  -12.7806   25.3421 C   0  0  0  0  0  0  0  0  0  0  0  0
    7.0061  -13.6326   25.9248 C   0  0  0  0  0  0  0  0  0  0  0  0
    8.2092  -16.6064   22.8541 C   0  0  0  0  0  0  0  0  0  0  0  0
    8.8493  -17.6673   22.8718 O   0  0  0  0  0  0  0  0  0  0  0  0
    8.5907  -15.5584   21.9962 N   0  0  0  0  0  0  0  0  0  0  0  0
    9.8054  -15.5520   21.2420 C   0  0  1  0  0  0  0  0  0  0  0  0
    9.9276  -14.4327   20.2897 C   0  0  0  0  0  0  0  0  0  0  0  0
    8.9103  -14.3203   19.2407 C   0  0  0  0  0  0  0  0  0  0  0  0
    7.8658  -15.0831   18.8294 C   0  0  0  0  0  0  0  0  0  0  0  0
    7.2255  -14.4848   17.8130 N   0  0  0  0  0  0  0  0  0  0  0  0
    7.8684  -13.3412   17.5836 C   0  0  0  0  0  0  0  0  0  0  0  0
    8.8839  -13.2140   18.4243 N   0  0  0  0  0  0  0  0  0  0  0  0
   11.0136  -15.5700   22.1291 C   0  0  0  0  0  0  0  0  0  0  0  0
   10.9400  -14.9869   23.2303 O   0  0  0  0  0  0  0  0  0  0  0  0
   12.2242  -16.2109   21.7838 N   0  0  0  0  0  0  0  0  0  0  0  0
   13.0885  -16.8649   22.7908 C   0  0  1  0  0  0  0  0  0  0  0  0
   12.3088  -17.9515   23.4777 C   0  0  0  0  0  0  0  0  0  0  0  0
   13.1623  -18.7051   24.4338 C   0  0  0  0  0  0  0  0  0  0  0  0
   12.3665  -19.7304   25.2350 C   0  0  0  0  0  0  0  0  0  0  0  0
   13.2114  -20.3786   26.2903 C   0  0  0  0  0  0  0  0  0  0  0  0
   12.3798  -21.2711   27.0946 N   0  0  0  0  0  0  0  0  0  0  0  0
   14.2066  -17.4360   22.0349 C   0  0  0  0  0  0  0  0  0  0  0  0
   15.4274  -17.6547   22.6157 O   0  0  0  0  0  0  0  0  0  0  0  0
   14.0831  -17.7419   20.8261 O   0  0  0  0  0  0  0  0  0  0  0  0
  2  1  1  1
  2  3  1  0
  4  5  2  0
  4  3  1  0
  6  5  1  0
  7 12  2  0
  7  6  1  0
  8  7  1  0
  9 10  1  0
  9  8  2  0
 10 11  2  0
 11 12  1  0
 12  4  1  0
 13  2  1  0
 14 13  2  0
 15 13  1  0
 16 17  1  1
 16 15  1  0
 17 18  1  0
 18 22  1  0
 19 18  2  0
 19 20  1  0
 20 21  1  0
 22 21  2  0
 23 24  2  0
 23 16  1  0
 25 23  1  0
 26 27  1  6
 26 25  1  0
 27 28  1  0
 29 28  1  0
 30 29  1  0
 31 30  1  0
 32 26  1  0
 33 32  1  0
 34 32  2  0
M  END
$$$$
