WHK.pdb
     RDKit          3D

 34 36  0  0  1  0  0  0  0  0999 V2000
    6.2308  -17.5174   23.7575 N   0  0  0  0  0  0  0  0  0  0  0  0
    6.9087  -16.2575   23.5325 C   0  0  1  0  0  0  0  0  0  0  0  0
    7.5203  -15.6684   24.7436 C   0  0  0  0  0  0  0  0  0  0  0  0
    6.7550  -14.7174   25.5331 C   0  0  0  0  0  0  0  0  0  0  0  0
    5.6234  -15.1338   26.2664 C   0  0  0  0  0  0  0  0  0  0  0  0
    5.1146  -14.0879   26.9014 N   0  0  0  0  0  0  0  0  0  0  0  0
    5.8282  -12.9744   26.6496 C   0  0  0  0  0  0  0  0  0  0  0  0
    5.7041  -11.6655   27.0635 C   0  0  0  0  0  0  0  0  0  0  0  0
    6.6186  -10.7325   26.6164 C   0  0  0  0  0  0  0  0  0  0  0  0
    7.6373  -11.1317   25.7645 C   0  0  0  0  0  0  0  0  0  0  0  0
    7.7693  -12.4412   25.3447 C   0  0  0  0  0  0  0  0  0  0  0  0
    6.8624  -13.3732   25.7864 C   0  0  0  0  0  0  0  0  0  0  0  0
    8.0668  -16.5483   22.5729 C   0  0  0  0  0  0  0  0  0  0  0  0
    8.2622  -17.7340   22.2705 O   0  0  0  0  0  0  0  0  0  0  0  0
    8.8867  -15.5340   22.0450 N   0  0  0  0  0  0  0  0  0  0  0  0
    9.9375  -15.7713   21.1049 C   0  0  1  0  0  0  0  0  0  0  0  0
   10.1352  -14.6889   20.1232 C   0  0  0  0  0  0  0  0  0  0  0  0
    9.0041  -14.3431   19.2577 C   0  0  0  0  0  0  0  0  0  0  0  0
    8.0988  -13.3327   19.2173 C   0  0  0  0  0  0  0  0  0  0  0  0
    7.2721  -13.4911   18.1721 N   0  0  0  0  0  0  0  0  0  0  0  0
    7.6582  -14.6047   17.5517 C   0  0  0  0  0  0  0  0  0  0  0  0
    8.6951  -15.1385   18.1793 N   0  0  0  0  0  0  0  0  0  0  0  0
   11.2425  -16.0545   21.7860 C   0  0  0  0  0  0  0  0  0  0  0  0
   11.9156  -15.0835   22.1885 O   0  0  0  0  0  0  0  0  0  0  0  0
   11.7455  -17.3580   21.9948 N   0  0  0  0  0  0  0  0  0  0  0  0
   12.9483  -17.6199   22.8155 C   0  0  1  0  0  0  0  0  0  0  0  0
   12.9060  -19.0383   23.3125 C   0  0  0  0  0  0  0  0  0  0  0  0
   11.8376  -19.2210   24.3301 C   0  0  0  0  0  0  0  0  0  0  0  0
   11.6648  -20.6826   24.7309 C   0  0  0  0  0  0  0  0  0  0  0  0
   10.6820  -20.8319   25.8531 C   0  0  0  0  0  0  0  0  0  0  0  0
   10.4165  -22.2511   26.0776 N   0  0  0  0  0  0  0  0  0  0  0  0
   14.0869  -17.4267   21.9136 C   0  0  0  0  0  0  0  0  0  0  0  0
   13.9774  -17.6379   20.5649 O   0  0  0  0  0  0  0  0  0  0  0  0
   15.2043  -17.0629   22.3485 O   0  0  0  0  0  0  0  0  0  0  0  0
  2  1  1  1
  2  3  1  0
  4  5  2  0
  4  3  1  0
  6  5  1  0
  7 12  2  0
  7  6  1  0
  8  7  1  0
  9 10  1  0
  9  8  2  0
 10 11  2  0
 11 12  1  0
 12  4  1  0
 13  2  1  0
 14 13  2  0
 15 13  1  0
 16 17  1  6
 16 15  1  0
 17 18  1  0
 18 22  1  0
 19 18  2  0
 19 20  1  0
 20 21  1  0
 22 21  2  0
 23 24  2  0
 23 16  1  0
 25 23  1  0
 26 27  1  6
 26 25  1  0
 27 28  1  0
 29 28  1  0
 30 29  1  0
 31 30  1  0
 32 26  1  0
 33 32  1  0
 34 32  2  0
M  END
$$$$
