SFK.pdb
     RDKit          3D

 27 27  0  0  1  0  0  0  0  0999 V2000
    8.9250  -18.6422   20.7314 O   0  0  0  0  0  0  0  0  0  0  0  0
    8.3728  -17.8738   19.7101 C   0  0  0  0  0  0  0  0  0  0  0  0
    9.0478  -16.5024   19.6762 C   0  0  2  0  0  0  0  0  0  0  0  0
   10.3130  -16.5777   19.0208 N   0  0  0  0  0  0  0  0  0  0  0  0
    9.1378  -15.9286   21.0449 C   0  0  0  0  0  0  0  0  0  0  0  0
   10.2230  -15.9743   21.6834 O   0  0  0  0  0  0  0  0  0  0  0  0
    8.0309  -15.3131   21.6894 N   0  0  0  0  0  0  0  0  0  0  0  0
    8.1817  -14.7666   23.0008 C   0  0  1  0  0  0  0  0  0  0  0  0
    6.9674  -13.9760   23.4478 C   0  0  0  0  0  0  0  0  0  0  0  0
    7.1375  -13.3869   24.7884 C   0  0  0  0  0  0  0  0  0  0  0  0
    6.4816  -13.8581   25.9089 C   0  0  0  0  0  0  0  0  0  0  0  0
    6.6686  -13.2744   27.1580 C   0  0  0  0  0  0  0  0  0  0  0  0
    7.5172  -12.2011   27.3261 C   0  0  0  0  0  0  0  0  0  0  0  0
    8.1738  -11.7278   26.2100 C   0  0  0  0  0  0  0  0  0  0  0  0
    7.9833  -12.3117   24.9752 C   0  0  0  0  0  0  0  0  0  0  0  0
    8.3481  -15.8621   23.9874 C   0  0  0  0  0  0  0  0  0  0  0  0
    7.5741  -16.8427   23.9202 O   0  0  0  0  0  0  0  0  0  0  0  0
    9.3435  -15.8451   24.9994 N   0  0  0  0  0  0  0  0  0  0  0  0
    9.6280  -17.0063   25.8566 C   0  0  1  0  0  0  0  0  0  0  0  0
   10.8524  -17.7120   25.3983 C   0  0  0  0  0  0  0  0  0  0  0  0
   11.2133  -18.8313   26.3166 C   0  0  0  0  0  0  0  0  0  0  0  0
   12.4932  -19.5341   25.8599 C   0  0  0  0  0  0  0  0  0  0  0  0
   12.8567  -20.6710   26.7836 C   0  0  0  0  0  0  0  0  0  0  0  0
   14.1425  -21.2189   26.4326 N   0  0  0  0  0  0  0  0  0  0  0  0
    9.7689  -16.4982   27.2181 C   0  0  0  0  0  0  0  0  0  0  0  0
   10.2302  -15.3710   27.4576 O   0  0  0  0  0  0  0  0  0  0  0  0
    9.3853  -17.2729   28.2959 O   0  0  0  0  0  0  0  0  0  0  0  0
  2  1  1  0
  3  2  1  0
  3  4  1  1
  5  3  1  0
  5  7  1  0
  6  5  2  0
  8  7  1  0
  8  9  1  1
 10  9  1  0
 10 15  2  0
 11 10  1  0
 12 11  2  0
 12 13  1  0
 13 14  2  0
 14 15  1  0
 16  8  1  0
 17 16  2  0
 18 16  1  0
 19 20  1  6
 19 18  1  0
 21 20  1  0
 22 21  1  0
 23 22  1  0
 24 23  1  0
 25 19  1  0
 26 25  2  0
 27 25  1  0
M  END
$$$$
