SFK.pdb
     RDKit          3D

 27 27  0  0  1  0  0  0  0  0999 V2000
    8.9933  -18.7393   20.8863 O   0  0  0  0  0  0  0  0  0  0  0  0
    8.3663  -17.8310   20.0376 C   0  0  0  0  0  0  0  0  0  0  0  0
    9.1426  -16.5139   20.0305 C   0  0  2  0  0  0  0  0  0  0  0  0
   10.4411  -16.6953   19.4677 N   0  0  0  0  0  0  0  0  0  0  0  0
    9.1796  -15.9201   21.3932 C   0  0  0  0  0  0  0  0  0  0  0  0
   10.2235  -16.0017   22.0940 O   0  0  0  0  0  0  0  0  0  0  0  0
    8.0663  -15.2454   21.9629 N   0  0  0  0  0  0  0  0  0  0  0  0
    8.1667  -14.6809   23.2715 C   0  0  1  0  0  0  0  0  0  0  0  0
    6.9617  -13.8365   23.6378 C   0  0  0  0  0  0  0  0  0  0  0  0
    7.0991  -13.1969   24.9589 C   0  0  0  0  0  0  0  0  0  0  0  0
    8.0620  -12.2479   25.2418 C   0  0  0  0  0  0  0  0  0  0  0  0
    8.1596  -11.6669   26.5023 C   0  0  0  0  0  0  0  0  0  0  0  0
    7.2975  -12.0164   27.5197 C   0  0  0  0  0  0  0  0  0  0  0  0
    6.3349  -12.9633   27.2412 C   0  0  0  0  0  0  0  0  0  0  0  0
    6.2445  -13.5347   25.9893 C   0  0  0  0  0  0  0  0  0  0  0  0
    8.2365  -15.7634   24.2836 C   0  0  0  0  0  0  0  0  0  0  0  0
    7.4317  -16.7165   24.1882 O   0  0  0  0  0  0  0  0  0  0  0  0
    9.1729  -15.7637   25.3504 N   0  0  0  0  0  0  0  0  0  0  0  0
    9.4909  -16.9694   26.1310 C   0  0  1  0  0  0  0  0  0  0  0  0
   10.3491  -17.8940   25.3461 C   0  0  0  0  0  0  0  0  0  0  0  0
   10.7096  -19.1072   26.1362 C   0  0  0  0  0  0  0  0  0  0  0  0
   11.5507  -20.0803   25.3077 C   0  0  0  0  0  0  0  0  0  0  0  0
   11.8517  -21.3423   26.0786 C   0  0  0  0  0  0  0  0  0  0  0  0
   12.6360  -22.2501   25.2801 N   0  0  0  0  0  0  0  0  0  0  0  0
   10.1515  -16.5167   27.3518 C   0  0  0  0  0  0  0  0  0  0  0  0
   10.0243  -17.1149   28.4319 O   0  0  0  0  0  0  0  0  0  0  0  0
   10.9507  -15.3897   27.3367 O   0  0  0  0  0  0  0  0  0  0  0  0
  2  1  1  0
  3  2  1  0
  3  4  1  1
  5  3  1  0
  5  7  1  0
  6  5  2  0
  8  7  1  0
  8  9  1  1
 10  9  1  0
 10 15  2  0
 11 10  1  0
 12 11  2  0
 12 13  1  0
 13 14  2  0
 14 15  1  0
 16  8  1  0
 17 16  2  0
 18 16  1  0
 19 20  1  6
 19 18  1  0
 21 20  1  0
 22 21  1  0
 23 22  1  0
 24 23  1  0
 25 19  1  0
 26 25  2  0
 27 25  1  0
M  END
$$$$
