SFK.pdb
     RDKit          3D

 27 27  0  0  1  0  0  0  0  0999 V2000
    8.8568  -18.7375   20.6848 O   0  0  0  0  0  0  0  0  0  0  0  0
    7.9942  -17.9264   19.9524 C   0  0  0  0  0  0  0  0  0  0  0  0
    8.5946  -16.5268   19.8180 C   0  0  2  0  0  0  0  0  0  0  0  0
    9.8146  -16.5688   19.0792 N   0  0  0  0  0  0  0  0  0  0  0  0
    8.7478  -15.8917   21.1536 C   0  0  0  0  0  0  0  0  0  0  0  0
    9.8793  -15.8362   21.7051 O   0  0  0  0  0  0  0  0  0  0  0  0
    7.6523  -15.3275   21.8613 N   0  0  0  0  0  0  0  0  0  0  0  0
    7.8598  -14.7375   23.1458 C   0  0  1  0  0  0  0  0  0  0  0  0
    6.6289  -14.0204   23.6654 C   0  0  0  0  0  0  0  0  0  0  0  0
    6.8617  -13.3658   24.9656 C   0  0  0  0  0  0  0  0  0  0  0  0
    6.3063  -13.8157   26.1475 C   0  0  0  0  0  0  0  0  0  0  0  0
    6.5500  -13.1697   27.3556 C   0  0  0  0  0  0  0  0  0  0  0  0
    7.3567  -12.0537   27.4199 C   0  0  0  0  0  0  0  0  0  0  0  0
    7.9130  -11.6015   26.2423 C   0  0  0  0  0  0  0  0  0  0  0  0
    7.6667  -12.2472   25.0487 C   0  0  0  0  0  0  0  0  0  0  0  0
    8.1744  -15.7926   24.1403 C   0  0  0  0  0  0  0  0  0  0  0  0
    7.3994  -16.7704   24.2322 O   0  0  0  0  0  0  0  0  0  0  0  0
    9.3120  -15.7402   24.9878 N   0  0  0  0  0  0  0  0  0  0  0  0
    9.6944  -16.8476   25.8775 C   0  0  1  0  0  0  0  0  0  0  0  0
   10.9567  -17.4815   25.4171 C   0  0  0  0  0  0  0  0  0  0  0  0
   10.7030  -18.4865   24.3438 C   0  0  0  0  0  0  0  0  0  0  0  0
   12.0055  -19.1343   23.8700 C   0  0  0  0  0  0  0  0  0  0  0  0
   11.7545  -20.1310   22.7648 C   0  0  0  0  0  0  0  0  0  0  0  0
   12.9994  -20.5858   22.1990 N   0  0  0  0  0  0  0  0  0  0  0  0
    9.8251  -16.2831   27.2176 C   0  0  0  0  0  0  0  0  0  0  0  0
   10.0960  -15.0866   27.4064 O   0  0  0  0  0  0  0  0  0  0  0  0
    9.6471  -17.0806   28.3318 O   0  0  0  0  0  0  0  0  0  0  0  0
  2  1  1  0
  3  2  1  0
  3  4  1  1
  5  3  1  0
  5  7  1  0
  6  5  2  0
  8  7  1  0
  8  9  1  1
 10  9  1  0
 10 15  2  0
 11 10  1  0
 12 11  2  0
 12 13  1  0
 13 14  2  0
 14 15  1  0
 16  8  1  0
 17 16  2  0
 18 16  1  0
 19 20  1  6
 19 18  1  0
 21 20  1  0
 22 21  1  0
 23 22  1  0
 24 23  1  0
 25 19  1  0
 26 25  2  0
 27 25  1  0
M  END
$$$$
