SFK.pdb
     RDKit          3D

 27 27  0  0  1  0  0  0  0  0999 V2000
    7.5958  -15.0875   17.0733 O   0  0  0  0  0  0  0  0  0  0  0  0
    7.9878  -15.0586   18.4090 C   0  0  0  0  0  0  0  0  0  0  0  0
    7.6463  -13.6974   19.0156 C   0  0  2  0  0  0  0  0  0  0  0  0
    8.2238  -12.6425   18.2478 N   0  0  0  0  0  0  0  0  0  0  0  0
    8.0357  -13.6503   20.4498 C   0  0  0  0  0  0  0  0  0  0  0  0
    9.2113  -13.3390   20.7794 O   0  0  0  0  0  0  0  0  0  0  0  0
    7.1243  -13.9467   21.4989 N   0  0  0  0  0  0  0  0  0  0  0  0
    7.5411  -13.8316   22.8606 C   0  0  1  0  0  0  0  0  0  0  0  0
    6.4187  -13.3914   23.7802 C   0  0  0  0  0  0  0  0  0  0  0  0
    6.8688  -13.1977   25.1705 C   0  0  0  0  0  0  0  0  0  0  0  0
    7.6017  -12.1013   25.5811 C   0  0  0  0  0  0  0  0  0  0  0  0
    8.0085  -11.9546   26.9035 C   0  0  0  0  0  0  0  0  0  0  0  0
    7.6953  -12.8995   27.8573 C   0  0  0  0  0  0  0  0  0  0  0  0
    6.9638  -13.9954   27.4514 C   0  0  0  0  0  0  0  0  0  0  0  0
    6.5643  -14.1337   26.1387 C   0  0  0  0  0  0  0  0  0  0  0  0
    7.9933  -15.1524   23.3628 C   0  0  0  0  0  0  0  0  0  0  0  0
    7.2560  -16.1443   23.1686 O   0  0  0  0  0  0  0  0  0  0  0  0
    9.2210  -15.3376   24.0509 N   0  0  0  0  0  0  0  0  0  0  0  0
    9.7790  -16.6675   24.3409 C   0  0  1  0  0  0  0  0  0  0  0  0
   11.0853  -16.8512   23.6575 C   0  0  0  0  0  0  0  0  0  0  0  0
   11.0500  -18.0064   22.7138 C   0  0  0  0  0  0  0  0  0  0  0  0
   12.3652  -18.1345   21.9427 C   0  0  0  0  0  0  0  0  0  0  0  0
   12.3543  -19.3375   21.0314 C   0  0  0  0  0  0  0  0  0  0  0  0
   13.3137  -20.3178   21.4734 N   0  0  0  0  0  0  0  0  0  0  0  0
    9.9051  -16.7622   25.7924 C   0  0  0  0  0  0  0  0  0  0  0  0
    9.8427  -17.8478   26.3910 O   0  0  0  0  0  0  0  0  0  0  0  0
   10.1009  -15.6249   26.5521 O   0  0  0  0  0  0  0  0  0  0  0  0
  2  1  1  0
  3  2  1  0
  3  4  1  6
  5  3  1  0
  5  7  1  0
  6  5  2  0
  8  7  1  0
  8  9  1  1
 10  9  1  0
 10 15  2  0
 11 10  1  0
 12 11  2  0
 12 13  1  0
 13 14  2  0
 14 15  1  0
 16  8  1  0
 17 16  2  0
 18 16  1  0
 19 20  1  6
 19 18  1  0
 21 20  1  0
 22 21  1  0
 23 22  1  0
 24 23  1  0
 25 19  1  0
 26 25  2  0
 27 25  1  0
M  END
$$$$
