SFK.pdb
     RDKit          3D

 27 27  0  0  1  0  0  0  0  0999 V2000
    9.5811  -18.8308   21.0013 O   0  0  0  0  0  0  0  0  0  0  0  0
    8.5240  -18.3290   20.2468 C   0  0  0  0  0  0  0  0  0  0  0  0
    8.7774  -16.8566   19.9226 C   0  0  2  0  0  0  0  0  0  0  0  0
    9.8857  -16.7178   19.0347 N   0  0  0  0  0  0  0  0  0  0  0  0
    8.9326  -16.0642   21.1711 C   0  0  0  0  0  0  0  0  0  0  0  0
   10.0785  -15.7260   21.5710 O   0  0  0  0  0  0  0  0  0  0  0  0
    7.8232  -15.6566   21.9600 N   0  0  0  0  0  0  0  0  0  0  0  0
    8.0370  -14.9295   23.1711 C   0  0  1  0  0  0  0  0  0  0  0  0
    6.7735  -14.2688   23.6871 C   0  0  0  0  0  0  0  0  0  0  0  0
    7.0158  -13.4378   24.8803 C   0  0  0  0  0  0  0  0  0  0  0  0
    7.7686  -12.2800   24.8540 C   0  0  0  0  0  0  0  0  0  0  0  0
    7.9747  -11.5225   26.0027 C   0  0  0  0  0  0  0  0  0  0  0  0
    7.4347  -11.8987   27.2141 C   0  0  0  0  0  0  0  0  0  0  0  0
    6.6827  -13.0539   27.2445 C   0  0  0  0  0  0  0  0  0  0  0  0
    6.4828  -13.7994   26.1016 C   0  0  0  0  0  0  0  0  0  0  0  0
    8.4872  -15.8535   24.2411 C   0  0  0  0  0  0  0  0  0  0  0  0
    7.8008  -16.8740   24.4702 O   0  0  0  0  0  0  0  0  0  0  0  0
    9.6579  -15.6298   25.0121 N   0  0  0  0  0  0  0  0  0  0  0  0
   10.2441  -16.6572   25.8868 C   0  0  1  0  0  0  0  0  0  0  0  0
   11.7161  -16.7311   25.6996 C   0  0  0  0  0  0  0  0  0  0  0  0
   12.0710  -17.4500   24.4413 C   0  0  0  0  0  0  0  0  0  0  0  0
   13.5850  -17.4724   24.2221 C   0  0  0  0  0  0  0  0  0  0  0  0
   13.9408  -18.1102   22.9014 C   0  0  0  0  0  0  0  0  0  0  0  0
   15.3678  -18.0991   22.7003 N   0  0  0  0  0  0  0  0  0  0  0  0
    9.8860  -16.2969   27.2556 C   0  0  0  0  0  0  0  0  0  0  0  0
    9.4316  -15.1791   27.5466 O   0  0  0  0  0  0  0  0  0  0  0  0
   10.0463  -17.2076   28.2822 O   0  0  0  0  0  0  0  0  0  0  0  0
  2  1  1  0
  3  2  1  0
  3  4  1  6
  5  3  1  0
  5  7  1  0
  6  5  2  0
  8  7  1  0
  8  9  1  1
 10  9  1  0
 10 15  2  0
 11 10  1  0
 12 11  2  0
 12 13  1  0
 13 14  2  0
 14 15  1  0
 16  8  1  0
 17 16  2  0
 18 16  1  0
 19 20  1  1
 19 18  1  0
 21 20  1  0
 22 21  1  0
 23 22  1  0
 24 23  1  0
 25 19  1  0
 26 25  2  0
 27 25  1  0
M  END
$$$$
