SFK.pdb
     RDKit          3D

 27 27  0  0  1  0  0  0  0  0999 V2000
    8.1896  -18.2628   20.8223 O   0  0  0  0  0  0  0  0  0  0  0  0
    9.3641  -17.9449   20.1456 C   0  0  0  0  0  0  0  0  0  0  0  0
    9.4902  -16.4264   20.0203 C   0  0  2  0  0  0  0  0  0  0  0  0
   10.6480  -16.0759   19.2636 N   0  0  0  0  0  0  0  0  0  0  0  0
    9.4590  -15.7855   21.3616 C   0  0  0  0  0  0  0  0  0  0  0  0
   10.4862  -15.7875   22.0912 O   0  0  0  0  0  0  0  0  0  0  0  0
    8.2967  -15.1523   21.8788 N   0  0  0  0  0  0  0  0  0  0  0  0
    8.2988  -14.6330   23.2097 C   0  0  1  0  0  0  0  0  0  0  0  0
    7.0873  -13.7694   23.5022 C   0  0  0  0  0  0  0  0  0  0  0  0
    7.1108  -13.2031   24.8630 C   0  0  0  0  0  0  0  0  0  0  0  0
    8.0848  -12.3262   25.2992 C   0  0  0  0  0  0  0  0  0  0  0  0
    8.0725  -11.8132   26.5924 C   0  0  0  0  0  0  0  0  0  0  0  0
    7.0859  -12.1607   27.4904 C   0  0  0  0  0  0  0  0  0  0  0  0
    6.1118  -13.0358   27.0589 C   0  0  0  0  0  0  0  0  0  0  0  0
    6.1308  -13.5400   25.7754 C   0  0  0  0  0  0  0  0  0  0  0  0
    8.2568  -15.7490   24.1864 C   0  0  0  0  0  0  0  0  0  0  0  0
    7.5132  -16.7244   23.9399 O   0  0  0  0  0  0  0  0  0  0  0  0
    9.0208  -15.7571   25.3828 N   0  0  0  0  0  0  0  0  0  0  0  0
    9.4877  -16.9973   26.0215 C   0  0  1  0  0  0  0  0  0  0  0  0
   10.5010  -17.6772   25.1739 C   0  0  0  0  0  0  0  0  0  0  0  0
   11.0154  -18.9166   25.8264 C   0  0  0  0  0  0  0  0  0  0  0  0
   12.0372  -19.6291   24.9381 C   0  0  0  0  0  0  0  0  0  0  0  0
   12.5859  -20.8635   25.6110 C   0  0  0  0  0  0  0  0  0  0  0  0
   13.4036  -21.6194   24.6962 N   0  0  0  0  0  0  0  0  0  0  0  0
   10.0305  -16.6202   27.3234 C   0  0  0  0  0  0  0  0  0  0  0  0
    9.9077  -17.3437   28.3245 O   0  0  0  0  0  0  0  0  0  0  0  0
   10.7078  -15.4260   27.4783 O   0  0  0  0  0  0  0  0  0  0  0  0
  2  1  1  0
  3  2  1  0
  3  4  1  1
  5  3  1  0
  5  7  1  0
  6  5  2  0
  8  7  1  0
  8  9  1  6
 10  9  1  0
 10 15  2  0
 11 10  1  0
 12 11  2  0
 12 13  1  0
 13 14  2  0
 14 15  1  0
 16  8  1  0
 17 16  2  0
 18 16  1  0
 19 20  1  6
 19 18  1  0
 21 20  1  0
 22 21  1  0
 23 22  1  0
 24 23  1  0
 25 19  1  0
 26 25  2  0
 27 25  1  0
M  END
$$$$
