SFK.pdb
     RDKit          3D

 27 27  0  0  1  0  0  0  0  0999 V2000
    9.1428  -18.6890   20.4141 O   0  0  0  0  0  0  0  0  0  0  0  0
    8.1435  -17.9200   19.8236 C   0  0  0  0  0  0  0  0  0  0  0  0
    8.6364  -16.4834   19.6484 C   0  0  2  0  0  0  0  0  0  0  0  0
    9.8103  -16.4469   18.8382 N   0  0  0  0  0  0  0  0  0  0  0  0
    8.8243  -15.8290   20.9702 C   0  0  0  0  0  0  0  0  0  0  0  0
    9.9793  -15.6981   21.4563 O   0  0  0  0  0  0  0  0  0  0  0  0
    7.7370  -15.3286   21.7363 N   0  0  0  0  0  0  0  0  0  0  0  0
    7.9772  -14.7317   23.0118 C   0  0  1  0  0  0  0  0  0  0  0  0
    6.7620  -14.0063   23.5559 C   0  0  0  0  0  0  0  0  0  0  0  0
    6.9852  -13.4627   24.9079 C   0  0  0  0  0  0  0  0  0  0  0  0
    7.7206  -12.3188   25.1498 C   0  0  0  0  0  0  0  0  0  0  0  0
    7.9090  -11.8373   26.4416 C   0  0  0  0  0  0  0  0  0  0  0  0
    7.3682  -12.4843   27.5322 C   0  0  0  0  0  0  0  0  0  0  0  0
    6.6335  -13.6266   27.2948 C   0  0  0  0  0  0  0  0  0  0  0  0
    6.4511  -14.0976   26.0115 C   0  0  0  0  0  0  0  0  0  0  0  0
    8.3112  -15.7819   24.0051 C   0  0  0  0  0  0  0  0  0  0  0  0
    7.5861  -16.8000   24.0575 O   0  0  0  0  0  0  0  0  0  0  0  0
    9.4132  -15.6811   24.8943 N   0  0  0  0  0  0  0  0  0  0  0  0
    9.9597  -16.8382   25.6200 C   0  0  1  0  0  0  0  0  0  0  0  0
   11.3009  -17.2035   25.0955 C   0  0  0  0  0  0  0  0  0  0  0  0
   11.8763  -18.3672   25.8310 C   0  0  0  0  0  0  0  0  0  0  0  0
   13.2267  -18.7829   25.2443 C   0  0  0  0  0  0  0  0  0  0  0  0
   13.8234  -19.9427   26.0035 C   0  0  0  0  0  0  0  0  0  0  0  0
   15.0868  -20.3299   25.4284 N   0  0  0  0  0  0  0  0  0  0  0  0
   10.0093  -16.4638   27.0302 C   0  0  0  0  0  0  0  0  0  0  0  0
    9.9437  -17.3060   27.9396 O   0  0  0  0  0  0  0  0  0  0  0  0
   10.1330  -15.1373   27.3967 O   0  0  0  0  0  0  0  0  0  0  0  0
  2  1  1  0
  3  2  1  0
  3  4  1  1
  5  3  1  0
  5  7  1  0
  6  5  2  0
  8  7  1  0
  8  9  1  1
 10  9  1  0
 10 15  2  0
 11 10  1  0
 12 11  2  0
 12 13  1  0
 13 14  2  0
 14 15  1  0
 16  8  1  0
 17 16  2  0
 18 16  1  0
 19 20  1  6
 19 18  1  0
 21 20  1  0
 22 21  1  0
 23 22  1  0
 24 23  1  0
 25 19  1  0
 26 25  2  0
 27 25  1  0
M  END
$$$$
