SFK.pdb
     RDKit          3D

 27 27  0  0  1  0  0  0  0  0999 V2000
    8.8588  -18.8260   20.6859 O   0  0  0  0  0  0  0  0  0  0  0  0
    7.7348  -18.1413   20.2316 C   0  0  0  0  0  0  0  0  0  0  0  0
    8.1020  -16.6860   19.9409 C   0  0  2  0  0  0  0  0  0  0  0  0
    9.1780  -16.6129   19.0068 N   0  0  0  0  0  0  0  0  0  0  0  0
    8.3811  -15.9535   21.2044 C   0  0  0  0  0  0  0  0  0  0  0  0
    9.5651  -15.6636   21.5229 O   0  0  0  0  0  0  0  0  0  0  0  0
    7.3516  -15.5515   22.0976 N   0  0  0  0  0  0  0  0  0  0  0  0
    7.6855  -14.9087   23.3290 C   0  0  1  0  0  0  0  0  0  0  0  0
    6.4777  -14.3066   24.0204 C   0  0  0  0  0  0  0  0  0  0  0  0
    6.8396  -13.5381   25.2253 C   0  0  0  0  0  0  0  0  0  0  0  0
    7.4685  -12.3093   25.1764 C   0  0  0  0  0  0  0  0  0  0  0  0
    7.7941  -11.6145   26.3371 C   0  0  0  0  0  0  0  0  0  0  0  0
    7.5012  -12.1264   27.5832 C   0  0  0  0  0  0  0  0  0  0  0  0
    6.8735  -13.3528   27.6361 C   0  0  0  0  0  0  0  0  0  0  0  0
    6.5540  -14.0354   26.4812 C   0  0  0  0  0  0  0  0  0  0  0  0
    8.2537  -15.8987   24.2767 C   0  0  0  0  0  0  0  0  0  0  0  0
    7.6628  -16.9925   24.4160 O   0  0  0  0  0  0  0  0  0  0  0  0
    9.4337  -15.6587   25.0285 N   0  0  0  0  0  0  0  0  0  0  0  0
   10.0931  -16.7009   25.8305 C   0  0  1  0  0  0  0  0  0  0  0  0
   11.4707  -16.9542   25.3350 C   0  0  0  0  0  0  0  0  0  0  0  0
   11.4568  -17.6391   24.0095 C   0  0  0  0  0  0  0  0  0  0  0  0
   12.8764  -17.8661   23.4863 C   0  0  0  0  0  0  0  0  0  0  0  0
   12.8686  -18.6392   22.1902 C   0  0  0  0  0  0  0  0  0  0  0  0
   14.1829  -18.6529   21.5993 N   0  0  0  0  0  0  0  0  0  0  0  0
   10.0887  -16.2320   27.2131 C   0  0  0  0  0  0  0  0  0  0  0  0
   10.1306  -17.0145   28.1757 O   0  0  0  0  0  0  0  0  0  0  0  0
   10.0370  -14.8797   27.4918 O   0  0  0  0  0  0  0  0  0  0  0  0
  2  1  1  0
  3  2  1  0
  3  4  1  6
  5  3  1  0
  5  7  1  0
  6  5  2  0
  8  7  1  0
  8  9  1  1
 10  9  1  0
 10 15  2  0
 11 10  1  0
 12 11  2  0
 12 13  1  0
 13 14  2  0
 14 15  1  0
 16  8  1  0
 17 16  2  0
 18 16  1  0
 19 20  1  6
 19 18  1  0
 21 20  1  0
 22 21  1  0
 23 22  1  0
 24 23  1  0
 25 19  1  0
 26 25  2  0
 27 25  1  0
M  END
$$$$
