SFK.pdb
     RDKit          3D

 27 27  0  0  1  0  0  0  0  0999 V2000
    7.6555  -18.2819   20.6719 O   0  0  0  0  0  0  0  0  0  0  0  0
    8.1087  -17.4462   19.6547 C   0  0  0  0  0  0  0  0  0  0  0  0
    7.7111  -16.0019   19.9606 C   0  0  2  0  0  0  0  0  0  0  0  0
    8.1659  -15.1237   18.9321 N   0  0  0  0  0  0  0  0  0  0  0  0
    8.1832  -15.6036   21.3131 C   0  0  0  0  0  0  0  0  0  0  0  0
    9.3771  -15.2413   21.4886 O   0  0  0  0  0  0  0  0  0  0  0  0
    7.3329  -15.6105   22.4516 N   0  0  0  0  0  0  0  0  0  0  0  0
    7.8696  -15.3292   23.7454 C   0  0  1  0  0  0  0  0  0  0  0  0
    6.7956  -15.0103   24.7671 C   0  0  0  0  0  0  0  0  0  0  0  0
    6.9197  -13.6461   25.3120 C   0  0  0  0  0  0  0  0  0  0  0  0
    7.9715  -12.8043   25.0075 C   0  0  0  0  0  0  0  0  0  0  0  0
    8.0531  -11.5225   25.5426 C   0  0  0  0  0  0  0  0  0  0  0  0
    7.0855  -11.0420   26.3991 C   0  0  0  0  0  0  0  0  0  0  0  0
    6.0339  -11.8794   26.7055 C   0  0  0  0  0  0  0  0  0  0  0  0
    5.9601  -13.1486   26.1710 C   0  0  0  0  0  0  0  0  0  0  0  0
    8.5912  -16.5185   24.2613 C   0  0  0  0  0  0  0  0  0  0  0  0
    7.9836  -17.6116   24.2952 O   0  0  0  0  0  0  0  0  0  0  0  0
    9.9351  -16.4691   24.7158 N   0  0  0  0  0  0  0  0  0  0  0  0
   10.6795  -17.6674   25.1330 C   0  0  1  0  0  0  0  0  0  0  0  0
   12.0995  -17.5811   24.7047 C   0  0  0  0  0  0  0  0  0  0  0  0
   12.8672  -18.7939   25.1121 C   0  0  0  0  0  0  0  0  0  0  0  0
   14.3294  -18.7001   24.6717 C   0  0  0  0  0  0  0  0  0  0  0  0
   15.0686  -19.9885   24.9383 C   0  0  0  0  0  0  0  0  0  0  0  0
   16.3968  -19.9363   24.3817 N   0  0  0  0  0  0  0  0  0  0  0  0
   10.5525  -17.7558   26.5848 C   0  0  0  0  0  0  0  0  0  0  0  0
   10.8606  -18.7810   27.2132 O   0  0  0  0  0  0  0  0  0  0  0  0
   10.0773  -16.6808   27.3111 O   0  0  0  0  0  0  0  0  0  0  0  0
  2  1  1  0
  3  2  1  0
  3  4  1  6
  5  3  1  0
  5  7  1  0
  6  5  2  0
  8  7  1  0
  8  9  1  1
 10  9  1  0
 10 15  2  0
 11 10  1  0
 12 11  2  0
 12 13  1  0
 13 14  2  0
 14 15  1  0
 16  8  1  0
 17 16  2  0
 18 16  1  0
 19 20  1  1
 19 18  1  0
 21 20  1  0
 22 21  1  0
 23 22  1  0
 24 23  1  0
 25 19  1  0
 26 25  2  0
 27 25  1  0
M  END
$$$$
