SFK.pdb
     RDKit          3D

 27 27  0  0  1  0  0  0  0  0999 V2000
    9.4693  -18.8785   20.1928 O   0  0  0  0  0  0  0  0  0  0  0  0
    8.3699  -18.1592   19.7320 C   0  0  0  0  0  0  0  0  0  0  0  0
    8.7626  -16.6961   19.5258 C   0  0  2  0  0  0  0  0  0  0  0  0
    9.9057  -16.5941   18.6780 N   0  0  0  0  0  0  0  0  0  0  0  0
    8.9488  -16.0140   20.8337 C   0  0  0  0  0  0  0  0  0  0  0  0
   10.1076  -15.7771   21.2679 O   0  0  0  0  0  0  0  0  0  0  0  0
    7.8556  -15.6034   21.6435 N   0  0  0  0  0  0  0  0  0  0  0  0
    8.0969  -14.9483   22.8900 C   0  0  1  0  0  0  0  0  0  0  0  0
    6.8411  -14.3398   23.4832 C   0  0  0  0  0  0  0  0  0  0  0  0
    7.1007  -13.6238   24.7455 C   0  0  0  0  0  0  0  0  0  0  0  0
    7.8284  -12.4517   24.8128 C   0  0  0  0  0  0  0  0  0  0  0  0
    8.0520  -11.8054   26.0244 C   0  0  0  0  0  0  0  0  0  0  0  0
    7.5551  -12.3104   27.2070 C   0  0  0  0  0  0  0  0  0  0  0  0
    6.8281  -13.4802   27.1440 C   0  0  0  0  0  0  0  0  0  0  0  0
    6.6108  -14.1151   25.9391 C   0  0  0  0  0  0  0  0  0  0  0  0
    8.5924  -15.9288   23.8872 C   0  0  0  0  0  0  0  0  0  0  0  0
    8.0098  -17.0325   23.9730 O   0  0  0  0  0  0  0  0  0  0  0  0
    9.6940  -15.6689   24.7440 N   0  0  0  0  0  0  0  0  0  0  0  0
   10.3417  -16.7163   25.5487 C   0  0  1  0  0  0  0  0  0  0  0  0
   11.8187  -16.6582   25.3986 C   0  0  0  0  0  0  0  0  0  0  0  0
   12.4941  -17.6850   26.2446 C   0  0  0  0  0  0  0  0  0  0  0  0
   13.5316  -18.4718   25.4413 C   0  0  0  0  0  0  0  0  0  0  0  0
   14.1516  -19.5706   26.2695 C   0  0  0  0  0  0  0  0  0  0  0  0
   15.0922  -20.3291   25.4842 N   0  0  0  0  0  0  0  0  0  0  0  0
    9.9255  -16.5006   26.9314 C   0  0  0  0  0  0  0  0  0  0  0  0
    9.5134  -17.4259   27.6488 O   0  0  0  0  0  0  0  0  0  0  0  0
    9.9805  -15.2373   27.4884 O   0  0  0  0  0  0  0  0  0  0  0  0
  2  1  1  0
  3  2  1  0
  3  4  1  6
  5  3  1  0
  5  7  1  0
  6  5  2  0
  8  7  1  0
  8  9  1  1
 10  9  1  0
 10 15  2  0
 11 10  1  0
 12 11  2  0
 12 13  1  0
 13 14  2  0
 14 15  1  0
 16  8  1  0
 17 16  2  0
 18 16  1  0
 19 20  1  1
 19 18  1  0
 21 20  1  0
 22 21  1  0
 23 22  1  0
 24 23  1  0
 25 19  1  0
 26 25  2  0
 27 25  1  0
M  END
$$$$
