SFK.pdb
     RDKit          3D

 27 27  0  0  1  0  0  0  0  0999 V2000
    9.4123  -18.8293   20.7892 O   0  0  0  0  0  0  0  0  0  0  0  0
    8.4811  -18.1055   20.0495 C   0  0  0  0  0  0  0  0  0  0  0  0
    8.9767  -16.6715   19.8613 C   0  0  2  0  0  0  0  0  0  0  0  0
   10.2031  -16.6520   19.1322 N   0  0  0  0  0  0  0  0  0  0  0  0
    9.0700  -15.9731   21.1706 C   0  0  0  0  0  0  0  0  0  0  0  0
   10.1711  -15.9086   21.7796 O   0  0  0  0  0  0  0  0  0  0  0  0
    7.9491  -15.3566   21.7891 N   0  0  0  0  0  0  0  0  0  0  0  0
    8.0836  -14.7625   23.0814 C   0  0  1  0  0  0  0  0  0  0  0  0
    6.8597  -13.9654   23.4887 C   0  0  0  0  0  0  0  0  0  0  0  0
    6.9906  -13.3741   24.8327 C   0  0  0  0  0  0  0  0  0  0  0  0
    7.8841  -12.3633   25.1290 C   0  0  0  0  0  0  0  0  0  0  0  0
    7.9779  -11.8310   26.4111 C   0  0  0  0  0  0  0  0  0  0  0  0
    7.1814  -12.2925   27.4373 C   0  0  0  0  0  0  0  0  0  0  0  0
    6.2883  -13.3014   27.1455 C   0  0  0  0  0  0  0  0  0  0  0  0
    6.2011  -13.8239   25.8721 C   0  0  0  0  0  0  0  0  0  0  0  0
    8.2486  -15.8207   24.1080 C   0  0  0  0  0  0  0  0  0  0  0  0
    7.4093  -16.7478   24.1435 O   0  0  0  0  0  0  0  0  0  0  0  0
    9.3130  -15.8261   25.0472 N   0  0  0  0  0  0  0  0  0  0  0  0
    9.5381  -16.9327   25.9900 C   0  0  1  0  0  0  0  0  0  0  0  0
   10.4471  -17.9498   25.4012 C   0  0  0  0  0  0  0  0  0  0  0  0
   11.8149  -17.3963   25.1795 C   0  0  0  0  0  0  0  0  0  0  0  0
   12.7457  -18.4441   24.5661 C   0  0  0  0  0  0  0  0  0  0  0  0
   14.1242  -17.8805   24.3216 C   0  0  0  0  0  0  0  0  0  0  0  0
   15.0024  -18.8961   23.7981 N   0  0  0  0  0  0  0  0  0  0  0  0
   10.0938  -16.3428   27.2044 C   0  0  0  0  0  0  0  0  0  0  0  0
   10.3768  -15.1368   27.2827 O   0  0  0  0  0  0  0  0  0  0  0  0
   10.3235  -17.1259   28.3193 O   0  0  0  0  0  0  0  0  0  0  0  0
  2  1  1  0
  3  2  1  0
  3  4  1  1
  5  3  1  0
  5  7  1  0
  6  5  2  0
  8  7  1  0
  8  9  1  1
 10  9  1  0
 10 15  2  0
 11 10  1  0
 12 11  2  0
 12 13  1  0
 13 14  2  0
 14 15  1  0
 16  8  1  0
 17 16  2  0
 18 16  1  0
 19 20  1  6
 19 18  1  0
 21 20  1  0
 22 21  1  0
 23 22  1  0
 24 23  1  0
 25 19  1  0
 26 25  2  0
 27 25  1  0
M  END
$$$$
