SFK.pdb
     RDKit          3D

 27 27  0  0  1  0  0  0  0  0999 V2000
    7.9130  -16.4192   20.2334 O   0  0  0  0  0  0  0  0  0  0  0  0
    6.8279  -15.5557   20.3568 C   0  0  0  0  0  0  0  0  0  0  0  0
    7.3258  -14.1481   20.6854 C   0  0  2  0  0  0  0  0  0  0  0  0
    8.0230  -13.5862   19.5745 N   0  0  0  0  0  0  0  0  0  0  0  0
    8.1347  -14.1562   21.9329 C   0  0  0  0  0  0  0  0  0  0  0  0
    9.3826  -13.9900   21.8825 O   0  0  0  0  0  0  0  0  0  0  0  0
    7.5567  -14.3473   23.2169 N   0  0  0  0  0  0  0  0  0  0  0  0
    8.3951  -14.4548   24.3686 C   0  0  1  0  0  0  0  0  0  0  0  0
    7.6468  -14.1989   25.6624 C   0  0  0  0  0  0  0  0  0  0  0  0
    8.5257  -14.2514   26.8447 C   0  0  0  0  0  0  0  0  0  0  0  0
    9.2198  -13.1553   27.3187 C   0  0  0  0  0  0  0  0  0  0  0  0
   10.0404  -13.2453   28.4388 C   0  0  0  0  0  0  0  0  0  0  0  0
   10.1928  -14.4340   29.1203 C   0  0  0  0  0  0  0  0  0  0  0  0
    9.5016  -15.5304   28.6502 C   0  0  0  0  0  0  0  0  0  0  0  0
    8.6901  -15.4333   27.5392 C   0  0  0  0  0  0  0  0  0  0  0  0
    8.9381  -15.8318   24.4702 C   0  0  0  0  0  0  0  0  0  0  0  0
    8.1376  -16.7908   24.4024 O   0  0  0  0  0  0  0  0  0  0  0  0
   10.3204  -16.1060   24.6402 N   0  0  0  0  0  0  0  0  0  0  0  0
   10.8681  -17.4714   24.6366 C   0  0  1  0  0  0  0  0  0  0  0  0
   11.9582  -17.5991   23.6352 C   0  0  0  0  0  0  0  0  0  0  0  0
   11.5185  -18.3875   22.4472 C   0  0  0  0  0  0  0  0  0  0  0  0
   12.6069  -18.4268   21.3726 C   0  0  0  0  0  0  0  0  0  0  0  0
   12.1096  -19.0858   20.1092 C   0  0  0  0  0  0  0  0  0  0  0  0
   13.0855  -18.9650   19.0557 N   0  0  0  0  0  0  0  0  0  0  0  0
   11.3394  -17.7380   25.9925 C   0  0  0  0  0  0  0  0  0  0  0  0
   11.1146  -18.8134   26.5700 O   0  0  0  0  0  0  0  0  0  0  0  0
   12.0618  -16.7826   26.6813 O   0  0  0  0  0  0  0  0  0  0  0  0
  2  1  1  0
  3  2  1  0
  3  4  1  6
  5  3  1  0
  5  7  1  0
  6  5  2  0
  8  7  1  0
  8  9  1  1
 10  9  1  0
 10 15  2  0
 11 10  1  0
 12 11  2  0
 12 13  1  0
 13 14  2  0
 14 15  1  0
 16  8  1  0
 17 16  2  0
 18 16  1  0
 19 20  1  6
 19 18  1  0
 21 20  1  0
 22 21  1  0
 23 22  1  0
 24 23  1  0
 25 19  1  0
 26 25  2  0
 27 25  1  0
M  END
$$$$
