SFK.pdb
     RDKit          3D

 27 27  0  0  1  0  0  0  0  0999 V2000
    9.6965  -19.3405   20.7793 O   0  0  0  0  0  0  0  0  0  0  0  0
    8.3724  -18.9835   20.5393 C   0  0  0  0  0  0  0  0  0  0  0  0
    8.2923  -17.4907   20.2192 C   0  0  2  0  0  0  0  0  0  0  0  0
    9.1361  -17.1642   19.1159 N   0  0  0  0  0  0  0  0  0  0  0  0
    8.5825  -16.6787   21.4305 C   0  0  0  0  0  0  0  0  0  0  0  0
    9.7412  -16.2256   21.6295 O   0  0  0  0  0  0  0  0  0  0  0  0
    7.5920  -16.3782   22.4041 N   0  0  0  0  0  0  0  0  0  0  0  0
    7.9343  -15.6059   23.5562 C   0  0  1  0  0  0  0  0  0  0  0  0
    6.7176  -15.0462   24.2673 C   0  0  0  0  0  0  0  0  0  0  0  0
    7.0745  -14.1047   25.3441 C   0  0  0  0  0  0  0  0  0  0  0  0
    7.3102  -14.5011   26.6461 C   0  0  0  0  0  0  0  0  0  0  0  0
    7.6447  -13.5813   27.6350 C   0  0  0  0  0  0  0  0  0  0  0  0
    7.7542  -12.2362   27.3534 C   0  0  0  0  0  0  0  0  0  0  0  0
    7.5196  -11.8366   26.0549 C   0  0  0  0  0  0  0  0  0  0  0  0
    7.1885  -12.7544   25.0801 C   0  0  0  0  0  0  0  0  0  0  0  0
    8.6351  -16.4605   24.5460 C   0  0  0  0  0  0  0  0  0  0  0  0
    8.1083  -17.5486   24.8678 O   0  0  0  0  0  0  0  0  0  0  0  0
    9.8721  -16.0978   25.1406 N   0  0  0  0  0  0  0  0  0  0  0  0
   10.6743  -17.0331   25.9441 C   0  0  1  0  0  0  0  0  0  0  0  0
   12.1142  -16.9284   25.5929 C   0  0  0  0  0  0  0  0  0  0  0  0
   12.9581  -17.7669   26.4936 C   0  0  0  0  0  0  0  0  0  0  0  0
   14.2063  -18.2763   25.7704 C   0  0  0  0  0  0  0  0  0  0  0  0
   15.1051  -19.0515   26.7026 C   0  0  0  0  0  0  0  0  0  0  0  0
   16.2639  -19.5415   26.0000 N   0  0  0  0  0  0  0  0  0  0  0  0
   10.4292  -16.7003   27.3444 C   0  0  0  0  0  0  0  0  0  0  0  0
   10.5982  -17.5234   28.2579 O   0  0  0  0  0  0  0  0  0  0  0  0
    9.9947  -15.4368   27.6962 O   0  0  0  0  0  0  0  0  0  0  0  0
  2  1  1  0
  3  2  1  0
  3  4  1  6
  5  3  1  0
  5  7  1  0
  6  5  2  0
  8  7  1  0
  8  9  1  1
 10  9  1  0
 10 15  2  0
 11 10  1  0
 12 11  2  0
 12 13  1  0
 13 14  2  0
 14 15  1  0
 16  8  1  0
 17 16  2  0
 18 16  1  0
 19 20  1  6
 19 18  1  0
 21 20  1  0
 22 21  1  0
 23 22  1  0
 24 23  1  0
 25 19  1  0
 26 25  2  0
 27 25  1  0
M  END
$$$$
