SFK.pdb
     RDKit          3D

 27 27  0  0  1  0  0  0  0  0999 V2000
    4.2695  -17.7181   19.6721 O   0  0  0  0  0  0  0  0  0  0  0  0
    5.3829  -17.0845   20.2173 C   0  0  0  0  0  0  0  0  0  0  0  0
    5.9412  -17.9246   21.3662 C   0  0  2  0  0  0  0  0  0  0  0  0
    4.8958  -18.6375   22.0257 N   0  0  0  0  0  0  0  0  0  0  0  0
    6.7404  -17.0801   22.2928 C   0  0  0  0  0  0  0  0  0  0  0  0
    7.7240  -16.4202   21.8631 O   0  0  0  0  0  0  0  0  0  0  0  0
    6.4440  -16.9752   23.6786 N   0  0  0  0  0  0  0  0  0  0  0  0
    7.2764  -16.1847   24.5291 C   0  0  1  0  0  0  0  0  0  0  0  0
    6.5753  -15.7634   25.8058 C   0  0  0  0  0  0  0  0  0  0  0  0
    6.7542  -14.3309   26.1039 C   0  0  0  0  0  0  0  0  0  0  0  0
    5.7490  -13.3962   25.9493 C   0  0  0  0  0  0  0  0  0  0  0  0
    5.9574  -12.0519   26.2414 C   0  0  0  0  0  0  0  0  0  0  0  0
    7.1773  -11.5997   26.6972 C   0  0  0  0  0  0  0  0  0  0  0  0
    8.1832  -12.5295   26.8528 C   0  0  0  0  0  0  0  0  0  0  0  0
    7.9690  -13.8604   26.5611 C   0  0  0  0  0  0  0  0  0  0  0  0
    8.4614  -16.9727   24.9486 C   0  0  0  0  0  0  0  0  0  0  0  0
    8.2887  -18.1608   25.3003 O   0  0  0  0  0  0  0  0  0  0  0  0
    9.7765  -16.4385   24.9678 N   0  0  0  0  0  0  0  0  0  0  0  0
   10.9795  -17.2794   24.8681 C   0  0  1  0  0  0  0  0  0  0  0  0
   11.9099  -16.7479   23.8389 C   0  0  0  0  0  0  0  0  0  0  0  0
   13.1757  -17.5363   23.7882 C   0  0  0  0  0  0  0  0  0  0  0  0
   14.0514  -17.1062   22.6097 C   0  0  0  0  0  0  0  0  0  0  0  0
   15.3361  -17.8968   22.5609 C   0  0  0  0  0  0  0  0  0  0  0  0
   16.0826  -17.5794   21.3699 N   0  0  0  0  0  0  0  0  0  0  0  0
   11.5883  -17.2996   26.1950 C   0  0  0  0  0  0  0  0  0  0  0  0
   12.4033  -18.1722   26.5341 O   0  0  0  0  0  0  0  0  0  0  0  0
   11.2674  -16.3300   27.1255 O   0  0  0  0  0  0  0  0  0  0  0  0
  2  1  1  0
  3  2  1  0
  3  4  1  1
  5  3  1  0
  5  7  1  0
  6  5  2  0
  8  7  1  0
  8  9  1  1
 10  9  1  0
 10 15  2  0
 11 10  1  0
 12 11  2  0
 12 13  1  0
 13 14  2  0
 14 15  1  0
 16  8  1  0
 17 16  2  0
 18 16  1  0
 19 20  1  6
 19 18  1  0
 21 20  1  0
 22 21  1  0
 23 22  1  0
 24 23  1  0
 25 19  1  0
 26 25  2  0
 27 25  1  0
M  END
$$$$
