SFK.pdb
     RDKit          3D

 27 27  0  0  1  0  0  0  0  0999 V2000
    8.4301  -18.4244   20.9593 O   0  0  0  0  0  0  0  0  0  0  0  0
    7.4293  -17.5576   20.5287 C   0  0  0  0  0  0  0  0  0  0  0  0
    7.9990  -16.1463   20.3835 C   0  0  2  0  0  0  0  0  0  0  0  0
    9.0604  -16.1251   19.4302 N   0  0  0  0  0  0  0  0  0  0  0  0
    8.3998  -15.6040   21.7087 C   0  0  0  0  0  0  0  0  0  0  0  0
    9.6185  -15.5017   22.0115 O   0  0  0  0  0  0  0  0  0  0  0  0
    7.4519  -15.1828   22.6800 N   0  0  0  0  0  0  0  0  0  0  0  0
    7.8904  -14.7877   23.9811 C   0  0  1  0  0  0  0  0  0  0  0  0
    6.7831  -14.1604   24.8056 C   0  0  0  0  0  0  0  0  0  0  0  0
    7.2574  -13.6743   26.1140 C   0  0  0  0  0  0  0  0  0  0  0  0
    7.2599  -14.4546   27.2537 C   0  0  0  0  0  0  0  0  0  0  0  0
    7.7159  -13.9589   28.4712 C   0  0  0  0  0  0  0  0  0  0  0  0
    8.1837  -12.6673   28.5875 C   0  0  0  0  0  0  0  0  0  0  0  0
    8.1828  -11.8852   27.4521 C   0  0  0  0  0  0  0  0  0  0  0  0
    7.7293  -12.3838   26.2489 C   0  0  0  0  0  0  0  0  0  0  0  0
    8.3494  -15.9764   24.7411 C   0  0  0  0  0  0  0  0  0  0  0  0
    7.6228  -16.9948   24.7437 O   0  0  0  0  0  0  0  0  0  0  0  0
    9.5719  -16.0070   25.4618 N   0  0  0  0  0  0  0  0  0  0  0  0
   10.0927  -17.2283   26.0954 C   0  0  1  0  0  0  0  0  0  0  0  0
   11.0203  -17.9421   25.1802 C   0  0  0  0  0  0  0  0  0  0  0  0
   12.2712  -17.1611   24.9527 C   0  0  0  0  0  0  0  0  0  0  0  0
   13.2296  -17.9058   24.0214 C   0  0  0  0  0  0  0  0  0  0  0  0
   14.5363  -17.1659   23.8698 C   0  0  0  0  0  0  0  0  0  0  0  0
   15.4655  -17.9332   23.0796 N   0  0  0  0  0  0  0  0  0  0  0  0
   10.7559  -16.8116   27.3275 C   0  0  0  0  0  0  0  0  0  0  0  0
   11.2331  -17.6299   28.1296 O   0  0  0  0  0  0  0  0  0  0  0  0
   10.8722  -15.4706   27.6390 O   0  0  0  0  0  0  0  0  0  0  0  0
  2  1  1  0
  3  2  1  0
  3  4  1  6
  5  3  1  0
  5  7  1  0
  6  5  2  0
  8  7  1  0
  8  9  1  1
 10  9  1  0
 10 15  2  0
 11 10  1  0
 12 11  2  0
 12 13  1  0
 13 14  2  0
 14 15  1  0
 16  8  1  0
 17 16  2  0
 18 16  1  0
 19 20  1  6
 19 18  1  0
 21 20  1  0
 22 21  1  0
 23 22  1  0
 24 23  1  0
 25 19  1  0
 26 25  2  0
 27 25  1  0
M  END
$$$$
