ECC.pdb
     RDKit          3D

 22 21  0  0  1  0  0  0  0  0999 V2000
   20.9053  -13.3501  -16.5854 N   0  0  0  0  0  0  0  0  0  0  0  0
   20.2028  -12.1030  -16.6607 C   0  0  1  0  0  0  0  0  0  0  0  0
   18.8064  -12.1047  -16.1502 C   0  0  0  0  0  0  0  0  0  0  0  0
   17.8022  -12.9114  -16.8711 C   0  0  0  0  0  0  0  0  0  0  0  0
   16.9249  -13.7752  -16.0743 C   0  0  0  0  0  0  0  0  0  0  0  0
   16.9213  -15.0118  -16.2122 O   0  0  0  0  0  0  0  0  0  0  0  0
   21.0430  -11.0583  -16.0090 C   0  0  0  0  0  0  0  0  0  0  0  0
   21.2871  -11.1499  -14.7824 O   0  0  0  0  0  0  0  0  0  0  0  0
   16.0448  -13.2542  -15.1160 O   0  0  0  0  0  0  0  0  0  0  0  0
   21.5866   -9.9603  -16.6974 N   0  0  0  0  0  0  0  0  0  0  0  0
   22.5250   -8.9991  -16.0980 C   0  0  1  0  0  0  0  0  0  0  0  0
   23.6609   -8.9150  -17.1225 C   0  0  0  0  0  0  0  0  0  0  0  0
   24.7661  -10.3191  -17.0815 S   0  0  0  0  0  0  0  0  0  0  0  0
   21.9149   -7.6648  -15.9937 C   0  0  0  0  0  0  0  0  0  0  0  0
   21.4075   -7.1674  -17.0512 O   0  0  0  0  0  0  0  0  0  0  0  0
   21.8309   -6.8740  -14.8388 N   0  0  0  0  0  0  0  0  0  0  0  0
   21.1973   -5.5632  -14.7982 C   0  0  1  0  0  0  0  0  0  0  0  0
   20.2522   -5.4494  -13.6087 C   0  0  0  0  0  0  0  0  0  0  0  0
   18.9517   -6.6881  -13.7748 S   0  0  0  0  0  0  0  0  0  0  0  0
   22.2816   -4.5666  -14.5931 C   0  0  0  0  0  0  0  0  0  0  0  0
   22.0549   -3.1989  -14.6162 O   0  0  0  0  0  0  0  0  0  0  0  0
   23.4449   -4.9641  -14.3912 O   0  0  0  0  0  0  0  0  0  0  0  0
  2  1  1  1
  2  3  1  0
  3  4  1  0
  4  5  1  0
  5  9  1  0
  6  5  2  0
  7  2  1  0
  8  7  2  0
 10  7  1  0
 11 10  1  0
 11 14  1  0
 11 12  1  6
 13 12  1  0
 14 15  2  0
 14 16  1  0
 16 17  1  0
 17 20  1  0
 17 18  1  1
 19 18  1  0
 20 22  2  0
 20 21  1  0
M  END
$$$$
