ECC.pdb
     RDKit          3D

 22 21  0  0  1  0  0  0  0  0999 V2000
   28.3983  -21.6131  -15.7782 N   0  0  0  0  0  0  0  0  0  0  0  0
   27.9728  -20.5934  -14.8652 C   0  0  1  0  0  0  0  0  0  0  0  0
   27.6773  -19.2628  -15.4591 C   0  0  0  0  0  0  0  0  0  0  0  0
   26.6492  -19.1842  -16.5152 C   0  0  0  0  0  0  0  0  0  0  0  0
   26.4109  -17.8771  -17.1361 C   0  0  0  0  0  0  0  0  0  0  0  0
   25.5573  -17.7206  -18.0278 O   0  0  0  0  0  0  0  0  0  0  0  0
   26.8276  -21.1280  -14.0749 C   0  0  0  0  0  0  0  0  0  0  0  0
   26.0634  -21.9707  -14.6026 O   0  0  0  0  0  0  0  0  0  0  0  0
   27.1311  -16.7357  -16.7582 O   0  0  0  0  0  0  0  0  0  0  0  0
   26.5490  -20.7387  -12.7536 N   0  0  0  0  0  0  0  0  0  0  0  0
   25.4239  -21.2627  -11.9640 C   0  0  1  0  0  0  0  0  0  0  0  0
   25.6542  -20.6722  -10.5693 C   0  0  0  0  0  0  0  0  0  0  0  0
   24.3167  -20.9919   -9.4277 S   0  0  0  0  0  0  0  0  0  0  0  0
   24.1428  -20.7424  -12.4658 C   0  0  0  0  0  0  0  0  0  0  0  0
   24.0772  -19.4972  -12.7267 O   0  0  0  0  0  0  0  0  0  0  0  0
   22.9730  -21.4820  -12.6908 N   0  0  0  0  0  0  0  0  0  0  0  0
   21.7192  -20.8970  -13.1459 C   0  0  1  0  0  0  0  0  0  0  0  0
   20.8450  -21.9410  -13.8294 C   0  0  0  0  0  0  0  0  0  0  0  0
   19.2260  -21.2198  -14.1634 S   0  0  0  0  0  0  0  0  0  0  0  0
   20.9903  -20.4421  -11.9323 C   0  0  0  0  0  0  0  0  0  0  0  0
   20.2272  -19.2847  -11.9078 O   0  0  0  0  0  0  0  0  0  0  0  0
   21.0603  -21.1196  -10.8892 O   0  0  0  0  0  0  0  0  0  0  0  0
  2  1  1  6
  2  3  1  0
  3  4  1  0
  4  5  1  0
  5  9  1  0
  6  5  2  0
  7  2  1  0
  8  7  2  0
 10  7  1  0
 11 10  1  0
 11 14  1  0
 11 12  1  1
 13 12  1  0
 14 15  2  0
 14 16  1  0
 16 17  1  0
 17 20  1  0
 17 18  1  1
 19 18  1  0
 20 22  2  0
 20 21  1  0
M  END
$$$$
