ECC.pdb
     RDKit          3D

 22 21  0  0  1  0  0  0  0  0999 V2000
   17.2346  -11.7964  -16.6032 N   0  0  0  0  0  0  0  0  0  0  0  0
   18.3658  -11.3354  -15.8533 C   0  0  1  0  0  0  0  0  0  0  0  0
   19.7023  -11.6301  -16.4342 C   0  0  0  0  0  0  0  0  0  0  0  0
   19.7619  -12.1647  -17.8087 C   0  0  0  0  0  0  0  0  0  0  0  0
   21.0877  -12.3820  -18.3967 C   0  0  0  0  0  0  0  0  0  0  0  0
   21.4097  -13.4719  -18.9032 O   0  0  0  0  0  0  0  0  0  0  0  0
   18.1764   -9.8832  -15.5754 C   0  0  0  0  0  0  0  0  0  0  0  0
   17.4955   -9.1939  -16.3715 O   0  0  0  0  0  0  0  0  0  0  0  0
   22.0615  -11.3743  -18.4196 O   0  0  0  0  0  0  0  0  0  0  0  0
   18.7233   -9.2303  -14.4575 N   0  0  0  0  0  0  0  0  0  0  0  0
   18.5545   -7.7953  -14.1818 C   0  0  1  0  0  0  0  0  0  0  0  0
   17.7746   -7.7692  -12.8634 C   0  0  0  0  0  0  0  0  0  0  0  0
   18.5404   -8.7236  -11.5607 S   0  0  0  0  0  0  0  0  0  0  0  0
   19.8548   -7.1492  -13.9470 C   0  0  0  0  0  0  0  0  0  0  0  0
   20.8712   -7.9062  -13.8170 O   0  0  0  0  0  0  0  0  0  0  0  0
   20.0962   -5.7712  -13.8513 N   0  0  0  0  0  0  0  0  0  0  0  0
   21.4278   -5.1819  -13.8182 C   0  0  1  0  0  0  0  0  0  0  0  0
   22.1540   -5.3975  -15.1401 C   0  0  0  0  0  0  0  0  0  0  0  0
   23.7530   -4.5659  -15.0709 S   0  0  0  0  0  0  0  0  0  0  0  0
   21.2461   -3.7154  -13.6524 C   0  0  0  0  0  0  0  0  0  0  0  0
   22.1019   -2.9374  -12.8877 O   0  0  0  0  0  0  0  0  0  0  0  0
   20.2902   -3.1516  -14.2183 O   0  0  0  0  0  0  0  0  0  0  0  0
  2  1  1  6
  2  3  1  0
  3  4  1  0
  4  5  1  0
  5  9  1  0
  6  5  2  0
  7  2  1  0
  8  7  2  0
 10  7  1  0
 11 10  1  0
 11 14  1  0
 11 12  1  1
 13 12  1  0
 14 15  2  0
 14 16  1  0
 16 17  1  0
 17 20  1  0
 17 18  1  6
 19 18  1  0
 20 22  2  0
 20 21  1  0
M  END
$$$$
