ECC.pdb
     RDKit          3D

 22 21  0  0  1  0  0  0  0  0999 V2000
   20.0222  -11.7878  -15.1144 N   0  0  0  0  0  0  0  0  0  0  0  0
   19.8134  -10.7778  -16.1098 C   0  0  1  0  0  0  0  0  0  0  0  0
   18.5919  -10.9222  -16.9450 C   0  0  0  0  0  0  0  0  0  0  0  0
   18.4946  -12.0917  -17.8403 C   0  0  0  0  0  0  0  0  0  0  0  0
   17.3462  -12.1578  -18.7499 C   0  0  0  0  0  0  0  0  0  0  0  0
   16.1871  -11.9273  -18.3605 O   0  0  0  0  0  0  0  0  0  0  0  0
   19.8892   -9.4471  -15.4422 C   0  0  0  0  0  0  0  0  0  0  0  0
   19.1551   -9.2196  -14.4513 O   0  0  0  0  0  0  0  0  0  0  0  0
   17.4931  -12.4837  -20.1051 O   0  0  0  0  0  0  0  0  0  0  0  0
   20.7475   -8.4168  -15.8628 N   0  0  0  0  0  0  0  0  0  0  0  0
   20.8270   -7.0992  -15.2137 C   0  0  1  0  0  0  0  0  0  0  0  0
   22.2059   -7.1070  -14.5462 C   0  0  0  0  0  0  0  0  0  0  0  0
   22.5735   -5.6067  -13.6471 S   0  0  0  0  0  0  0  0  0  0  0  0
   20.8182   -6.0201  -16.2131 C   0  0  0  0  0  0  0  0  0  0  0  0
   21.6486   -6.1050  -17.1755 O   0  0  0  0  0  0  0  0  0  0  0  0
   19.9811   -4.8951  -16.2186 N   0  0  0  0  0  0  0  0  0  0  0  0
   20.0227   -3.8588  -17.2412 C   0  0  1  0  0  0  0  0  0  0  0  0
   18.6175   -3.4717  -17.6846 C   0  0  0  0  0  0  0  0  0  0  0  0
   17.8116   -4.9174  -18.4013 S   0  0  0  0  0  0  0  0  0  0  0  0
   20.6302   -2.6564  -16.6117 C   0  0  0  0  0  0  0  0  0  0  0  0
   20.8881   -2.5734  -15.2519 O   0  0  0  0  0  0  0  0  0  0  0  0
   20.9239   -1.6776  -17.3243 O   0  0  0  0  0  0  0  0  0  0  0  0
  2  1  1  1
  2  3  1  0
  3  4  1  0
  4  5  1  0
  5  9  1  0
  6  5  2  0
  7  2  1  0
  8  7  2  0
 10  7  1  0
 11 10  1  0
 11 14  1  0
 11 12  1  6
 13 12  1  0
 14 15  2  0
 14 16  1  0
 16 17  1  0
 17 20  1  0
 17 18  1  1
 19 18  1  0
 20 22  2  0
 20 21  1  0
M  END
$$$$
