ECC.pdb
     RDKit          3D

 22 21  0  0  1  0  0  0  0  0999 V2000
   19.3229  -11.9081  -18.6093 N   0  0  0  0  0  0  0  0  0  0  0  0
   20.3145  -11.1575  -17.8966 C   0  0  1  0  0  0  0  0  0  0  0  0
   21.5387  -10.7973  -18.6596 C   0  0  0  0  0  0  0  0  0  0  0  0
   22.2583  -11.8726  -19.3699 C   0  0  0  0  0  0  0  0  0  0  0  0
   23.4089  -11.4906  -20.1951 C   0  0  0  0  0  0  0  0  0  0  0  0
   23.4570  -11.7468  -21.4118 O   0  0  0  0  0  0  0  0  0  0  0  0
   19.6501   -9.9660  -17.2959 C   0  0  0  0  0  0  0  0  0  0  0  0
   18.7934   -9.3428  -17.9670 O   0  0  0  0  0  0  0  0  0  0  0  0
   24.5144  -10.8173  -19.6577 O   0  0  0  0  0  0  0  0  0  0  0  0
   19.9303   -9.4921  -16.0028 N   0  0  0  0  0  0  0  0  0  0  0  0
   19.2710   -8.3256  -15.3960 C   0  0  1  0  0  0  0  0  0  0  0  0
   18.4469   -8.9287  -14.2540 C   0  0  0  0  0  0  0  0  0  0  0  0
   16.9647   -9.7619  -14.8046 S   0  0  0  0  0  0  0  0  0  0  0  0
   20.2603   -7.4131  -14.8024 C   0  0  0  0  0  0  0  0  0  0  0  0
   21.3683   -7.9150  -14.4239 O   0  0  0  0  0  0  0  0  0  0  0  0
   20.1105   -6.0325  -14.6083 N   0  0  0  0  0  0  0  0  0  0  0  0
   21.1754   -5.1608  -14.1314 C   0  0  1  0  0  0  0  0  0  0  0  0
   22.3247   -5.1050  -15.1300 C   0  0  0  0  0  0  0  0  0  0  0  0
   23.5362   -3.8965  -14.5600 S   0  0  0  0  0  0  0  0  0  0  0  0
   20.6042   -3.7907  -14.0441 C   0  0  0  0  0  0  0  0  0  0  0  0
   19.4597   -3.4123  -14.7293 O   0  0  0  0  0  0  0  0  0  0  0  0
   21.1674   -2.9396  -13.3297 O   0  0  0  0  0  0  0  0  0  0  0  0
  2  1  1  6
  2  3  1  0
  3  4  1  0
  4  5  1  0
  5  9  1  0
  6  5  2  0
  7  2  1  0
  8  7  2  0
 10  7  1  0
 11 10  1  0
 11 14  1  0
 11 12  1  1
 13 12  1  0
 14 15  2  0
 14 16  1  0
 16 17  1  0
 17 20  1  0
 17 18  1  6
 19 18  1  0
 20 22  2  0
 20 21  1  0
M  END
$$$$
