ECC.pdb
     RDKit          3D

 22 21  0  0  1  0  0  0  0  0999 V2000
   22.6285  -13.2367  -17.9496 N   0  0  0  0  0  0  0  0  0  0  0  0
   22.5710  -11.8815  -18.4130 C   0  0  1  0  0  0  0  0  0  0  0  0
   21.3362  -11.4892  -19.1422 C   0  0  0  0  0  0  0  0  0  0  0  0
   21.1026  -12.0695  -20.4791 C   0  0  0  0  0  0  0  0  0  0  0  0
   21.6928  -11.3810  -21.6316 C   0  0  0  0  0  0  0  0  0  0  0  0
   21.0012  -10.7114  -22.4200 O   0  0  0  0  0  0  0  0  0  0  0  0
   22.8556  -10.9844  -17.2570 C   0  0  0  0  0  0  0  0  0  0  0  0
   22.3455  -11.2468  -16.1418 O   0  0  0  0  0  0  0  0  0  0  0  0
   23.0659  -11.4405  -21.9060 O   0  0  0  0  0  0  0  0  0  0  0  0
   23.6740   -9.8452  -17.3432 N   0  0  0  0  0  0  0  0  0  0  0  0
   24.0199   -8.9949  -16.1938 C   0  0  1  0  0  0  0  0  0  0  0  0
   25.5130   -8.7126  -16.3886 C   0  0  0  0  0  0  0  0  0  0  0  0
   26.5752   -9.9714  -15.6946 S   0  0  0  0  0  0  0  0  0  0  0  0
   23.3079   -7.7094  -16.2584 C   0  0  0  0  0  0  0  0  0  0  0  0
   23.2626   -7.1200  -17.3869 O   0  0  0  0  0  0  0  0  0  0  0  0
   22.6652   -7.0577  -15.1961 N   0  0  0  0  0  0  0  0  0  0  0  0
   21.9396   -5.8024  -15.3353 C   0  0  1  0  0  0  0  0  0  0  0  0
   20.4354   -6.0279  -15.2483 C   0  0  0  0  0  0  0  0  0  0  0  0
   19.9252   -7.0985  -16.6072 S   0  0  0  0  0  0  0  0  0  0  0  0
   22.3229   -4.9525  -14.1770 C   0  0  0  0  0  0  0  0  0  0  0  0
   21.9327   -3.6271  -14.0601 O   0  0  0  0  0  0  0  0  0  0  0  0
   23.0225   -5.4394  -13.2684 O   0  0  0  0  0  0  0  0  0  0  0  0
  2  1  1  1
  2  3  1  0
  3  4  1  0
  4  5  1  0
  5  9  1  0
  6  5  2  0
  7  2  1  0
  8  7  2  0
 10  7  1  0
 11 10  1  0
 11 14  1  0
 11 12  1  6
 13 12  1  0
 14 15  2  0
 14 16  1  0
 16 17  1  0
 17 20  1  0
 17 18  1  1
 19 18  1  0
 20 22  2  0
 20 21  1  0
M  END
$$$$
