ECC.pdb
     RDKit          3D

 22 21  0  0  1  0  0  0  0  0999 V2000
   21.9783  -10.3663  -19.7984 N   0  0  0  0  0  0  0  0  0  0  0  0
   21.8595  -11.0546  -18.5467 C   0  0  1  0  0  0  0  0  0  0  0  0
   22.4790  -12.4045  -18.4788 C   0  0  0  0  0  0  0  0  0  0  0  0
   23.7219  -12.6395  -19.2394 C   0  0  0  0  0  0  0  0  0  0  0  0
   24.3440  -13.9632  -19.1330 C   0  0  0  0  0  0  0  0  0  0  0  0
   25.5310  -14.1575  -19.4520 O   0  0  0  0  0  0  0  0  0  0  0  0
   22.3552  -10.1490  -17.4715 C   0  0  0  0  0  0  0  0  0  0  0  0
   22.2035  -10.4854  -16.2730 O   0  0  0  0  0  0  0  0  0  0  0  0
   23.6354  -15.0789  -18.6666 O   0  0  0  0  0  0  0  0  0  0  0  0
   22.9925   -8.9221  -17.7242 N   0  0  0  0  0  0  0  0  0  0  0  0
   23.5848   -8.0746  -16.6780 C   0  0  1  0  0  0  0  0  0  0  0  0
   24.5534   -7.1718  -17.4485 C   0  0  0  0  0  0  0  0  0  0  0  0
   23.7530   -6.1445  -18.6726 S   0  0  0  0  0  0  0  0  0  0  0  0
   22.5648   -7.2139  -16.0595 C   0  0  0  0  0  0  0  0  0  0  0  0
   21.5684   -6.8761  -16.7777 O   0  0  0  0  0  0  0  0  0  0  0  0
   22.5736   -6.7216  -14.7466 N   0  0  0  0  0  0  0  0  0  0  0  0
   21.5086   -5.9056  -14.1797 C   0  0  1  0  0  0  0  0  0  0  0  0
   21.2392   -6.2885  -12.7299 C   0  0  0  0  0  0  0  0  0  0  0  0
   20.6453   -7.9906  -12.6756 S   0  0  0  0  0  0  0  0  0  0  0  0
   21.9963   -4.5009  -14.1784 C   0  0  0  0  0  0  0  0  0  0  0  0
   21.1968   -3.4318  -13.8035 O   0  0  0  0  0  0  0  0  0  0  0  0
   23.1684   -4.2620  -14.5261 O   0  0  0  0  0  0  0  0  0  0  0  0
  2  1  1  6
  2  3  1  0
  3  4  1  0
  4  5  1  0
  5  9  1  0
  6  5  2  0
  7  2  1  0
  8  7  2  0
 10  7  1  0
 11 10  1  0
 11 14  1  0
 11 12  1  6
 13 12  1  0
 14 15  2  0
 14 16  1  0
 16 17  1  0
 17 20  1  0
 17 18  1  1
 19 18  1  0
 20 22  2  0
 20 21  1  0
M  END
$$$$
