ECC.pdb
     RDKit          3D

 22 21  0  0  1  0  0  0  0  0999 V2000
   16.1818  -11.7279  -18.1366 N   0  0  0  0  0  0  0  0  0  0  0  0
   16.7296  -11.1442  -16.9476 C   0  0  1  0  0  0  0  0  0  0  0  0
   17.3125  -12.0909  -15.9604 C   0  0  0  0  0  0  0  0  0  0  0  0
   16.5210  -13.2781  -15.5827 C   0  0  0  0  0  0  0  0  0  0  0  0
   17.1560  -14.2677  -14.7063 C   0  0  0  0  0  0  0  0  0  0  0  0
   18.3216  -14.1266  -14.2942 O   0  0  0  0  0  0  0  0  0  0  0  0
   17.6954  -10.0843  -17.3547 C   0  0  0  0  0  0  0  0  0  0  0  0
   18.1422  -10.0842  -18.5265 O   0  0  0  0  0  0  0  0  0  0  0  0
   16.4844  -15.4240  -14.2865 O   0  0  0  0  0  0  0  0  0  0  0  0
   18.1417   -9.0693  -16.4911 N   0  0  0  0  0  0  0  0  0  0  0  0
   19.0739   -8.0038  -16.8903 C   0  0  1  0  0  0  0  0  0  0  0  0
   18.2407   -7.1273  -17.8308 C   0  0  0  0  0  0  0  0  0  0  0  0
   16.6957   -6.5809  -17.1174 S   0  0  0  0  0  0  0  0  0  0  0  0
   19.4580   -7.1813  -15.7330 C   0  0  0  0  0  0  0  0  0  0  0  0
   18.5794   -6.9924  -14.8300 O   0  0  0  0  0  0  0  0  0  0  0  0
   20.7047   -6.5772  -15.5161 N   0  0  0  0  0  0  0  0  0  0  0  0
   21.0269   -5.7836  -14.3380 C   0  0  1  0  0  0  0  0  0  0  0  0
   22.2705   -6.3205  -13.6406 C   0  0  0  0  0  0  0  0  0  0  0  0
   22.7439   -5.1776  -12.3281 S   0  0  0  0  0  0  0  0  0  0  0  0
   21.3503   -4.4134  -14.8167 C   0  0  0  0  0  0  0  0  0  0  0  0
   21.1362   -3.2815  -14.0450 O   0  0  0  0  0  0  0  0  0  0  0  0
   21.8335   -4.2634  -15.9550 O   0  0  0  0  0  0  0  0  0  0  0  0
  2  1  1  6
  2  3  1  0
  3  4  1  0
  4  5  1  0
  5  9  1  0
  6  5  2  0
  7  2  1  0
  8  7  2  0
 10  7  1  0
 11 10  1  0
 11 14  1  0
 11 12  1  6
 13 12  1  0
 14 15  2  0
 14 16  1  0
 16 17  1  0
 17 20  1  0
 17 18  1  6
 19 18  1  0
 20 22  2  0
 20 21  1  0
M  END
$$$$
