ECC.pdb
     RDKit          3D

 22 21  0  0  1  0  0  0  0  0999 V2000
   19.3231  -11.2979  -16.6559 N   0  0  0  0  0  0  0  0  0  0  0  0
   18.2368  -10.9598  -15.7840 C   0  0  1  0  0  0  0  0  0  0  0  0
   17.3167  -12.0699  -15.4211 C   0  0  0  0  0  0  0  0  0  0  0  0
   16.4885  -12.6650  -16.4881 C   0  0  0  0  0  0  0  0  0  0  0  0
   15.5988  -13.7715  -16.1207 C   0  0  0  0  0  0  0  0  0  0  0  0
   15.7206  -14.9044  -16.6206 O   0  0  0  0  0  0  0  0  0  0  0  0
   18.8009  -10.2766  -14.5852 C   0  0  0  0  0  0  0  0  0  0  0  0
   20.0055  -10.4605  -14.2891 O   0  0  0  0  0  0  0  0  0  0  0  0
   14.5651  -13.6118  -15.1878 O   0  0  0  0  0  0  0  0  0  0  0  0
   18.0523   -9.4254  -13.7544 N   0  0  0  0  0  0  0  0  0  0  0  0
   18.6377   -8.5929  -12.6923 C   0  0  1  0  0  0  0  0  0  0  0  0
   19.5383   -7.6151  -13.4536 C   0  0  0  0  0  0  0  0  0  0  0  0
   20.1830   -6.2956  -12.4349 S   0  0  0  0  0  0  0  0  0  0  0  0
   17.5991   -7.8072  -12.0085 C   0  0  0  0  0  0  0  0  0  0  0  0
   16.8240   -7.1026  -12.7334 O   0  0  0  0  0  0  0  0  0  0  0  0
   17.3693   -7.7526  -10.6263 N   0  0  0  0  0  0  0  0  0  0  0  0
   16.2559   -7.0377  -10.0173 C   0  0  1  0  0  0  0  0  0  0  0  0
   15.9914   -7.5401   -8.6035 C   0  0  0  0  0  0  0  0  0  0  0  0
   14.6719   -6.5534   -7.8699 S   0  0  0  0  0  0  0  0  0  0  0  0
   16.6677   -5.6132   -9.9062 C   0  0  0  0  0  0  0  0  0  0  0  0
   15.7653   -4.5644   -9.9971 O   0  0  0  0  0  0  0  0  0  0  0  0
   17.8689   -5.3382   -9.7240 O   0  0  0  0  0  0  0  0  0  0  0  0
  2  1  1  1
  2  3  1  0
  3  4  1  0
  4  5  1  0
  5  9  1  0
  6  5  2  0
  7  2  1  0
  8  7  2  0
 10  7  1  0
 11 10  1  0
 11 14  1  0
 11 12  1  6
 13 12  1  0
 14 15  2  0
 14 16  1  0
 16 17  1  0
 17 20  1  0
 17 18  1  1
 19 18  1  0
 20 22  2  0
 20 21  1  0
M  END
$$$$
