ECC.pdb
     RDKit          3D

 22 21  0  0  1  0  0  0  0  0999 V2000
   21.3842  -13.0248  -18.5410 N   0  0  0  0  0  0  0  0  0  0  0  0
   22.2331  -11.9036  -18.2637 C   0  0  1  0  0  0  0  0  0  0  0  0
   23.1631  -11.5000  -19.3512 C   0  0  0  0  0  0  0  0  0  0  0  0
   23.5198  -12.5052  -20.3715 C   0  0  0  0  0  0  0  0  0  0  0  0
   24.8322  -13.1502  -20.2607 C   0  0  0  0  0  0  0  0  0  0  0  0
   24.9515  -14.3869  -20.1933 O   0  0  0  0  0  0  0  0  0  0  0  0
   21.3743  -10.7750  -17.8047 C   0  0  0  0  0  0  0  0  0  0  0  0
   20.5556  -10.2665  -18.6071 O   0  0  0  0  0  0  0  0  0  0  0  0
   26.0209  -12.4085  -20.2250 O   0  0  0  0  0  0  0  0  0  0  0  0
   21.4276  -10.2387  -16.5067 N   0  0  0  0  0  0  0  0  0  0  0  0
   20.5906   -9.1202  -16.0464 C   0  0  1  0  0  0  0  0  0  0  0  0
   19.8397   -9.7008  -14.8438 C   0  0  0  0  0  0  0  0  0  0  0  0
   18.4018  -10.6618  -15.2948 S   0  0  0  0  0  0  0  0  0  0  0  0
   21.4214   -8.0072  -15.5620 C   0  0  0  0  0  0  0  0  0  0  0  0
   22.5254   -8.3013  -14.9983 O   0  0  0  0  0  0  0  0  0  0  0  0
   21.1230   -6.6405  -15.6579 N   0  0  0  0  0  0  0  0  0  0  0  0
   22.0273   -5.5815  -15.2308 C   0  0  1  0  0  0  0  0  0  0  0  0
   21.7029   -4.2692  -15.9336 C   0  0  0  0  0  0  0  0  0  0  0  0
   22.6253   -2.9377  -15.1403 S   0  0  0  0  0  0  0  0  0  0  0  0
   21.7889   -5.3710  -13.7782 C   0  0  0  0  0  0  0  0  0  0  0  0
   22.7662   -4.8866  -12.9223 O   0  0  0  0  0  0  0  0  0  0  0  0
   20.6701   -5.6369  -13.2992 O   0  0  0  0  0  0  0  0  0  0  0  0
  2  1  1  6
  2  3  1  0
  3  4  1  0
  4  5  1  0
  5  9  1  0
  6  5  2  0
  7  2  1  0
  8  7  2  0
 10  7  1  0
 11 10  1  0
 11 14  1  0
 11 12  1  1
 13 12  1  0
 14 15  2  0
 14 16  1  0
 16 17  1  0
 17 20  1  0
 17 18  1  6
 19 18  1  0
 20 22  2  0
 20 21  1  0
M  END
$$$$
