ECC.pdb
     RDKit          3D

 22 21  0  0  1  0  0  0  0  0999 V2000
   17.3068  -13.1251  -15.6448 N   0  0  0  0  0  0  0  0  0  0  0  0
   17.5384  -11.7379  -15.3680 C   0  0  1  0  0  0  0  0  0  0  0  0
   17.3457  -10.8008  -16.5060 C   0  0  0  0  0  0  0  0  0  0  0  0
   18.4633  -10.6146  -17.4520 C   0  0  0  0  0  0  0  0  0  0  0  0
   19.4510   -9.5760  -17.1415 C   0  0  0  0  0  0  0  0  0  0  0  0
   19.3841   -8.8979  -16.1004 O   0  0  0  0  0  0  0  0  0  0  0  0
   16.7227  -11.3606  -14.1788 C   0  0  0  0  0  0  0  0  0  0  0  0
   15.5215  -11.7167  -14.1257 O   0  0  0  0  0  0  0  0  0  0  0  0
   20.5220   -9.2925  -18.0000 O   0  0  0  0  0  0  0  0  0  0  0  0
   17.2269  -10.6186  -13.0970 N   0  0  0  0  0  0  0  0  0  0  0  0
   16.4562  -10.3129  -11.8820 C   0  0  1  0  0  0  0  0  0  0  0  0
   17.0144  -11.2911  -10.8434 C   0  0  0  0  0  0  0  0  0  0  0  0
   15.9195  -12.6584  -10.4882 S   0  0  0  0  0  0  0  0  0  0  0  0
   16.7384   -8.9484  -11.4106 C   0  0  0  0  0  0  0  0  0  0  0  0
   17.9050   -8.4834  -11.6243 O   0  0  0  0  0  0  0  0  0  0  0  0
   15.8473   -8.0954  -10.7440 N   0  0  0  0  0  0  0  0  0  0  0  0
   16.1727   -6.7317  -10.3490 C   0  0  1  0  0  0  0  0  0  0  0  0
   15.2088   -5.7349  -10.9802 C   0  0  0  0  0  0  0  0  0  0  0  0
   15.5677   -4.0880  -10.3384 S   0  0  0  0  0  0  0  0  0  0  0  0
   15.9826   -6.6526   -8.8763 C   0  0  0  0  0  0  0  0  0  0  0  0
   16.5615   -5.6606   -8.0996 O   0  0  0  0  0  0  0  0  0  0  0  0
   15.2769   -7.5061   -8.3059 O   0  0  0  0  0  0  0  0  0  0  0  0
  2  1  1  6
  2  3  1  0
  3  4  1  0
  4  5  1  0
  5  9  1  0
  6  5  2  0
  7  2  1  0
  8  7  2  0
 10  7  1  0
 11 10  1  0
 11 14  1  0
 11 12  1  1
 13 12  1  0
 14 15  2  0
 14 16  1  0
 16 17  1  0
 17 20  1  0
 17 18  1  6
 19 18  1  0
 20 22  2  0
 20 21  1  0
M  END
$$$$
