ECC.pdb
     RDKit          3D

 22 21  0  0  1  0  0  0  0  0999 V2000
   22.7413  -10.5961  -17.9260 N   0  0  0  0  0  0  0  0  0  0  0  0
   23.7630   -9.5964  -17.8190 C   0  0  1  0  0  0  0  0  0  0  0  0
   24.6322   -9.4162  -19.0116 C   0  0  0  0  0  0  0  0  0  0  0  0
   25.4487  -10.5621  -19.4580 C   0  0  0  0  0  0  0  0  0  0  0  0
   26.2794  -10.3805  -20.6528 C   0  0  0  0  0  0  0  0  0  0  0  0
   26.2186  -11.1625  -21.6187 O   0  0  0  0  0  0  0  0  0  0  0  0
   23.1206   -8.3221  -17.3884 C   0  0  0  0  0  0  0  0  0  0  0  0
   21.9772   -8.0399  -17.8192 O   0  0  0  0  0  0  0  0  0  0  0  0
   27.1851   -9.3173  -20.7701 O   0  0  0  0  0  0  0  0  0  0  0  0
   23.7286   -7.4042  -16.5149 N   0  0  0  0  0  0  0  0  0  0  0  0
   23.1239   -6.1224  -16.1213 C   0  0  1  0  0  0  0  0  0  0  0  0
   23.1076   -6.1845  -14.5907 C   0  0  0  0  0  0  0  0  0  0  0  0
   22.7090   -4.6239  -13.8160 S   0  0  0  0  0  0  0  0  0  0  0  0
   23.9813   -4.9942  -16.5157 C   0  0  0  0  0  0  0  0  0  0  0  0
   25.2141   -5.0561  -16.2005 O   0  0  0  0  0  0  0  0  0  0  0  0
   23.5798   -3.8448  -17.2114 N   0  0  0  0  0  0  0  0  0  0  0  0
   24.4867   -2.7718  -17.5958 C   0  0  1  0  0  0  0  0  0  0  0  0
   24.0662   -2.1492  -18.9212 C   0  0  0  0  0  0  0  0  0  0  0  0
   24.3941   -3.3247  -20.2493 S   0  0  0  0  0  0  0  0  0  0  0  0
   24.3673   -1.7141  -16.5575 C   0  0  0  0  0  0  0  0  0  0  0  0
   25.3527   -0.7628  -16.3421 O   0  0  0  0  0  0  0  0  0  0  0  0
   23.3455   -1.6703  -15.8463 O   0  0  0  0  0  0  0  0  0  0  0  0
  2  1  1  6
  2  3  1  0
  3  4  1  0
  4  5  1  0
  5  9  1  0
  6  5  2  0
  7  2  1  0
  8  7  2  0
 10  7  1  0
 11 10  1  0
 11 14  1  0
 11 12  1  1
 13 12  1  0
 14 15  2  0
 14 16  1  0
 16 17  1  0
 17 20  1  0
 17 18  1  6
 19 18  1  0
 20 22  2  0
 20 21  1  0
M  END
$$$$
