ECC.pdb
     RDKit          3D

 22 21  0  0  1  0  0  0  0  0999 V2000
   30.1227  -22.9349  -17.1064 N   0  0  0  0  0  0  0  0  0  0  0  0
   28.8725  -22.2763  -17.3467 C   0  0  1  0  0  0  0  0  0  0  0  0
   28.0625  -22.7989  -18.4787 C   0  0  0  0  0  0  0  0  0  0  0  0
   28.6438  -22.7446  -19.8344 C   0  0  0  0  0  0  0  0  0  0  0  0
   29.1279  -21.4464  -20.3150 C   0  0  0  0  0  0  0  0  0  0  0  0
   30.2230  -21.3283  -20.8938 O   0  0  0  0  0  0  0  0  0  0  0  0
   28.1084  -22.2523  -16.0670 C   0  0  0  0  0  0  0  0  0  0  0  0
   28.6051  -22.7928  -15.0502 O   0  0  0  0  0  0  0  0  0  0  0  0
   28.3833  -20.2707  -20.1482 O   0  0  0  0  0  0  0  0  0  0  0  0
   26.8457  -21.6508  -15.9294 N   0  0  0  0  0  0  0  0  0  0  0  0
   26.1859  -21.4153  -14.6361 C   0  0  1  0  0  0  0  0  0  0  0  0
   27.0291  -20.3081  -13.9957 C   0  0  0  0  0  0  0  0  0  0  0  0
   27.0677  -18.7968  -14.9491 S   0  0  0  0  0  0  0  0  0  0  0  0
   24.8258  -20.8893  -14.8285 C   0  0  0  0  0  0  0  0  0  0  0  0
   24.6741  -19.9514  -15.6772 O   0  0  0  0  0  0  0  0  0  0  0  0
   23.6648  -21.3177  -14.1690 N   0  0  0  0  0  0  0  0  0  0  0  0
   22.3329  -20.8027  -14.4558 C   0  0  1  0  0  0  0  0  0  0  0  0
   21.2903  -21.9111  -14.3806 C   0  0  0  0  0  0  0  0  0  0  0  0
   21.8593  -23.3160  -15.3581 S   0  0  0  0  0  0  0  0  0  0  0  0
   22.0095  -19.8237  -13.3843 C   0  0  0  0  0  0  0  0  0  0  0  0
   20.8695  -19.0349  -13.4110 O   0  0  0  0  0  0  0  0  0  0  0  0
   22.7862  -19.6980  -12.4185 O   0  0  0  0  0  0  0  0  0  0  0  0
  2  1  1  1
  2  3  1  0
  3  4  1  0
  4  5  1  0
  5  9  1  0
  6  5  2  0
  7  2  1  0
  8  7  2  0
 10  7  1  0
 11 10  1  0
 11 14  1  0
 11 12  1  1
 13 12  1  0
 14 15  2  0
 14 16  1  0
 16 17  1  0
 17 20  1  0
 17 18  1  1
 19 18  1  0
 20 22  2  0
 20 21  1  0
M  END
$$$$
