MTQ.pdb
     RDKit          3D

 25 24  0  0  1  0  0  0  0  0999 V2000
    7.1783  -11.6353   26.0403 C   0  0  0  0  0  0  0  0  0  0  0  0
    6.8400  -13.0073   27.1207 S   0  0  0  0  0  0  0  0  0  0  0  0
    7.7148  -14.5123   26.8366 C   0  0  0  0  0  0  0  0  0  0  0  0
    6.9302  -15.7658   26.6321 C   0  0  0  0  0  0  0  0  0  0  0  0
    6.3442  -15.9981   25.2920 C   0  0  2  0  0  0  0  0  0  0  0  0
    5.5134  -17.2218   25.3035 N   0  0  0  0  0  0  0  0  0  0  0  0
    7.3872  -16.2851   24.2614 C   0  0  0  0  0  0  0  0  0  0  0  0
    8.1407  -17.2867   24.3105 O   0  0  0  0  0  0  0  0  0  0  0  0
    6.7871  -15.1618   20.5155 C   0  0  0  0  0  0  0  0  0  0  0  0
    8.2132  -14.8828   20.9097 C   0  0  1  0  0  0  0  0  0  0  0  0
    8.4622  -13.5372   21.0173 O   0  0  0  0  0  0  0  0  0  0  0  0
    8.6197  -15.6747   22.1471 C   0  0  2  0  0  0  0  0  0  0  0  0
    7.5895  -15.4148   23.1364 N   0  0  0  0  0  0  0  0  0  0  0  0
    9.9670  -15.2884   22.6357 C   0  0  0  0  0  0  0  0  0  0  0  0
   10.1182  -14.4669   23.5764 O   0  0  0  0  0  0  0  0  0  0  0  0
   11.0766  -18.9287   25.9916 N   0  0  0  0  0  0  0  0  0  0  0  0
   12.3414  -18.2675   25.9883 C   0  0  0  0  0  0  0  0  0  0  0  0
   12.9403  -18.0617   27.0604 O   0  0  0  0  0  0  0  0  0  0  0  0
   12.8974  -17.8456   24.6927 C   0  0  0  0  0  0  0  0  0  0  0  0
   11.8553  -17.2576   23.8028 C   0  0  0  0  0  0  0  0  0  0  0  0
   12.3220  -16.1843   22.8580 C   0  0  2  0  0  0  0  0  0  0  0  0
   11.1424  -15.8326   22.0592 N   0  0  0  0  0  0  0  0  0  0  0  0
   13.4034  -16.6967   22.0046 C   0  0  0  0  0  0  0  0  0  0  0  0
   13.2375  -17.6628   21.1985 O   0  0  0  0  0  0  0  0  0  0  0  0
   14.6573  -16.1257   22.0571 O   0  0  0  0  0  0  0  0  0  0  0  0
  2  3  1  0
  2  1  1  0
  4  5  1  0
  4  3  1  0
  5  7  1  0
  5  6  1  1
  7  8  2  0
  7 13  1  0
 10  9  1  1
 11 10  1  0
 12 10  1  0
 12 14  1  0
 12 13  1  1
 14 15  2  0
 16 17  1  0
 17 19  1  0
 18 17  2  0
 19 20  1  0
 21 20  1  1
 22 14  1  0
 22 21  1  0
 23 21  1  0
 23 25  1  0
 24 23  2  0
M  END
$$$$
