MTQ.pdb
     RDKit          3D

 25 24  0  0  1  0  0  0  0  0999 V2000
    7.4162  -11.1363   27.2659 C   0  0  0  0  0  0  0  0  0  0  0  0
    5.7332  -11.7122   27.2564 S   0  0  0  0  0  0  0  0  0  0  0  0
    5.4173  -13.3166   26.5952 C   0  0  0  0  0  0  0  0  0  0  0  0
    6.4807  -13.9739   25.7792 C   0  0  0  0  0  0  0  0  0  0  0  0
    6.1573  -15.2746   25.1491 C   0  0  2  0  0  0  0  0  0  0  0  0
    5.9557  -16.3085   26.1876 N   0  0  0  0  0  0  0  0  0  0  0  0
    7.2913  -15.8047   24.3336 C   0  0  0  0  0  0  0  0  0  0  0  0
    8.1544  -16.5915   24.7912 O   0  0  0  0  0  0  0  0  0  0  0  0
    8.0832  -13.8983   20.7503 C   0  0  0  0  0  0  0  0  0  0  0  0
    8.3661  -15.3770   20.7629 C   0  0  1  0  0  0  0  0  0  0  0  0
    9.3679  -15.7156   19.8877 O   0  0  0  0  0  0  0  0  0  0  0  0
    8.5985  -15.8929   22.1783 C   0  0  2  0  0  0  0  0  0  0  0  0
    7.4600  -15.4369   22.9551 N   0  0  0  0  0  0  0  0  0  0  0  0
    9.8835  -15.4087   22.7418 C   0  0  0  0  0  0  0  0  0  0  0  0
   10.0692  -14.1948   23.0153 O   0  0  0  0  0  0  0  0  0  0  0  0
   10.9310  -14.6378   28.3104 N   0  0  0  0  0  0  0  0  0  0  0  0
   11.4217  -15.8610   27.7630 C   0  0  0  0  0  0  0  0  0  0  0  0
   11.2027  -16.9382   28.3479 O   0  0  0  0  0  0  0  0  0  0  0  0
   12.1834  -15.7991   26.5055 C   0  0  0  0  0  0  0  0  0  0  0  0
   11.3175  -16.0402   25.3156 C   0  0  0  0  0  0  0  0  0  0  0  0
   12.0067  -16.0077   23.9792 C   0  0  2  0  0  0  0  0  0  0  0  0
   10.9573  -16.2988   22.9957 N   0  0  0  0  0  0  0  0  0  0  0  0
   13.0691  -17.0222   23.9329 C   0  0  0  0  0  0  0  0  0  0  0  0
   12.8858  -18.1814   23.4498 O   0  0  0  0  0  0  0  0  0  0  0  0
   14.3250  -16.7335   24.4236 O   0  0  0  0  0  0  0  0  0  0  0  0
  2  3  1  0
  2  1  1  0
  4  5  1  0
  4  3  1  0
  5  7  1  0
  5  6  1  1
  7  8  2  0
  7 13  1  0
 10  9  1  1
 11 10  1  0
 12 10  1  0
 12 14  1  0
 12 13  1  1
 14 15  2  0
 16 17  1  0
 17 19  1  0
 18 17  2  0
 19 20  1  0
 21 20  1  1
 22 14  1  0
 22 21  1  0
 23 21  1  0
 23 25  1  0
 24 23  2  0
M  END
$$$$
