MTQ.pdb
     RDKit          3D

 25 24  0  0  1  0  0  0  0  0999 V2000
    7.7890  -11.5641   21.0211 C   0  0  0  0  0  0  0  0  0  0  0  0
    7.6195  -12.2197   19.3763 S   0  0  0  0  0  0  0  0  0  0  0  0
    8.4497  -13.7308   19.0043 C   0  0  0  0  0  0  0  0  0  0  0  0
    8.7134  -14.6921   20.1156 C   0  0  0  0  0  0  0  0  0  0  0  0
    9.3414  -15.9876   19.7684 C   0  0  2  0  0  0  0  0  0  0  0  0
    8.4809  -16.7354   18.8258 N   0  0  0  0  0  0  0  0  0  0  0  0
    9.4510  -16.8967   20.9490 C   0  0  0  0  0  0  0  0  0  0  0  0
    8.4757  -17.5317   21.4168 O   0  0  0  0  0  0  0  0  0  0  0  0
   11.1796  -19.9506   21.3235 C   0  0  0  0  0  0  0  0  0  0  0  0
   11.7632  -19.0746   22.3999 C   0  0  1  0  0  0  0  0  0  0  0  0
   13.0198  -18.6286   22.0738 O   0  0  0  0  0  0  0  0  0  0  0  0
   10.8066  -17.9551   22.7940 C   0  0  2  0  0  0  0  0  0  0  0  0
   10.7016  -17.0984   21.6266 N   0  0  0  0  0  0  0  0  0  0  0  0
   11.2839  -17.2108   23.9863 C   0  0  0  0  0  0  0  0  0  0  0  0
   12.1293  -16.2840   23.8918 O   0  0  0  0  0  0  0  0  0  0  0  0
    9.0927  -13.6041   27.3744 N   0  0  0  0  0  0  0  0  0  0  0  0
    9.8483  -14.0891   28.4838 C   0  0  0  0  0  0  0  0  0  0  0  0
    9.9746  -13.3895   29.5060 O   0  0  0  0  0  0  0  0  0  0  0  0
   10.4615  -15.4222   28.3724 C   0  0  0  0  0  0  0  0  0  0  0  0
   10.2317  -16.0323   27.0312 C   0  0  0  0  0  0  0  0  0  0  0  0
   11.3467  -16.8869   26.4940 C   0  0  2  0  0  0  0  0  0  0  0  0
   10.8036  -17.5161   25.2848 N   0  0  0  0  0  0  0  0  0  0  0  0
   11.7322  -17.8991   27.4876 C   0  0  0  0  0  0  0  0  0  0  0  0
   11.3168  -19.0972   27.4383 O   0  0  0  0  0  0  0  0  0  0  0  0
   12.5780  -17.5657   28.5243 O   0  0  0  0  0  0  0  0  0  0  0  0
  2  3  1  0
  2  1  1  0
  4  5  1  0
  4  3  1  0
  5  7  1  0
  5  6  1  6
  7  8  2  0
  7 13  1  0
 10  9  1  6
 11 10  1  0
 12 10  1  0
 12 14  1  0
 12 13  1  6
 14 15  2  0
 16 17  1  0
 17 19  1  0
 18 17  2  0
 19 20  1  0
 21 20  1  1
 22 14  1  0
 22 21  1  0
 23 21  1  0
 23 25  1  0
 24 23  2  0
M  END
$$$$
