MTQ.pdb
     RDKit          3D

 25 24  0  0  1  0  0  0  0  0999 V2000
    7.4619  -11.3429   26.9898 C   0  0  0  0  0  0  0  0  0  0  0  0
    6.1984  -12.5938   27.0428 S   0  0  0  0  0  0  0  0  0  0  0  0
    5.8980  -13.5214   25.5730 C   0  0  0  0  0  0  0  0  0  0  0  0
    6.9988  -14.3696   25.0274 C   0  0  0  0  0  0  0  0  0  0  0  0
    6.6273  -15.6644   24.4120 C   0  0  2  0  0  0  0  0  0  0  0  0
    6.0423  -16.5640   25.4300 N   0  0  0  0  0  0  0  0  0  0  0  0
    7.8189  -16.4160   23.9147 C   0  0  0  0  0  0  0  0  0  0  0  0
    8.3113  -17.3974   24.5212 O   0  0  0  0  0  0  0  0  0  0  0  0
   11.0103  -16.9933   20.1185 C   0  0  0  0  0  0  0  0  0  0  0  0
    9.9131  -16.2286   20.8099 C   0  0  1  0  0  0  0  0  0  0  0  0
    8.7874  -16.1285   20.0308 O   0  0  0  0  0  0  0  0  0  0  0  0
    9.6372  -16.7783   22.2046 C   0  0  2  0  0  0  0  0  0  0  0  0
    8.4795  -16.0507   22.6923 N   0  0  0  0  0  0  0  0  0  0  0  0
   10.8079  -16.6238   23.1040 C   0  0  0  0  0  0  0  0  0  0  0  0
   11.0069  -15.5649   23.7535 O   0  0  0  0  0  0  0  0  0  0  0  0
    9.8440  -18.5347   27.5813 N   0  0  0  0  0  0  0  0  0  0  0  0
   11.2110  -18.4511   27.9828 C   0  0  0  0  0  0  0  0  0  0  0  0
   11.5106  -18.5026   29.1903 O   0  0  0  0  0  0  0  0  0  0  0  0
   12.2317  -18.3026   26.9332 C   0  0  0  0  0  0  0  0  0  0  0  0
   11.6236  -18.0644   25.5926 C   0  0  0  0  0  0  0  0  0  0  0  0
   12.5862  -17.7958   24.4686 C   0  0  2  0  0  0  0  0  0  0  0  0
   11.7526  -17.6682   23.2677 N   0  0  0  0  0  0  0  0  0  0  0  0
   13.5341  -18.9113   24.3367 C   0  0  0  0  0  0  0  0  0  0  0  0
   14.5928  -18.9935   25.0316 O   0  0  0  0  0  0  0  0  0  0  0  0
   13.2910  -19.9242   23.4333 O   0  0  0  0  0  0  0  0  0  0  0  0
  2  3  1  0
  2  1  1  0
  4  5  1  0
  4  3  1  0
  5  7  1  0
  5  6  1  1
  7  8  2  0
  7 13  1  0
 10  9  1  6
 11 10  1  0
 12 10  1  0
 12 14  1  0
 12 13  1  1
 14 15  2  0
 16 17  1  0
 17 19  1  0
 18 17  2  0
 19 20  1  0
 21 20  1  1
 22 14  1  0
 22 21  1  0
 23 21  1  0
 23 25  1  0
 24 23  2  0
M  END
$$$$
