MTQ.pdb
     RDKit          3D

 25 24  0  0  1  0  0  0  0  0999 V2000
    8.4089  -11.0829   19.2272 C   0  0  0  0  0  0  0  0  0  0  0  0
    7.7375  -12.4465   18.3032 S   0  0  0  0  0  0  0  0  0  0  0  0
    7.7316  -14.0351   19.0696 C   0  0  0  0  0  0  0  0  0  0  0  0
    7.8165  -14.1091   20.5582 C   0  0  0  0  0  0  0  0  0  0  0  0
    7.9233  -15.4518   21.1740 C   0  0  2  0  0  0  0  0  0  0  0  0
    6.6512  -16.1894   21.0134 N   0  0  0  0  0  0  0  0  0  0  0  0
    8.1100  -15.3811   22.6546 C   0  0  0  0  0  0  0  0  0  0  0  0
    7.5971  -14.4852   23.3672 O   0  0  0  0  0  0  0  0  0  0  0  0
    6.6795  -15.5416   24.9570 C   0  0  0  0  0  0  0  0  0  0  0  0
    7.6804  -16.5841   25.3794 C   0  0  1  0  0  0  0  0  0  0  0  0
    7.2319  -17.8573   25.1297 O   0  0  0  0  0  0  0  0  0  0  0  0
    9.0622  -16.3043   24.8000 C   0  0  2  0  0  0  0  0  0  0  0  0
    8.9012  -16.3522   23.3580 N   0  0  0  0  0  0  0  0  0  0  0  0
   10.0727  -17.2812   25.2774 C   0  0  0  0  0  0  0  0  0  0  0  0
   10.1056  -18.4622   24.8452 O   0  0  0  0  0  0  0  0  0  0  0  0
   14.4167  -17.3070   23.3521 N   0  0  0  0  0  0  0  0  0  0  0  0
   14.3701  -16.6087   24.5958 C   0  0  0  0  0  0  0  0  0  0  0  0
   14.2835  -15.3667   24.6108 O   0  0  0  0  0  0  0  0  0  0  0  0
   14.4294  -17.3998   25.8353 C   0  0  0  0  0  0  0  0  0  0  0  0
   13.3416  -17.0304   26.7861 C   0  0  0  0  0  0  0  0  0  0  0  0
   12.0837  -17.8506   26.7021 C   0  0  2  0  0  0  0  0  0  0  0  0
   11.0454  -16.9204   26.2436 N   0  0  0  0  0  0  0  0  0  0  0  0
   11.7509  -18.4034   28.0226 C   0  0  0  0  0  0  0  0  0  0  0  0
   10.8245  -17.9279   28.7482 O   0  0  0  0  0  0  0  0  0  0  0  0
   12.4525  -19.4813   28.5196 O   0  0  0  0  0  0  0  0  0  0  0  0
  2  3  1  0
  2  1  1  0
  4  5  1  0
  4  3  1  0
  5  7  1  0
  5  6  1  1
  7  8  2  0
  7 13  1  0
 10  9  1  6
 11 10  1  0
 12 10  1  0
 12 14  1  0
 12 13  1  6
 14 15  2  0
 16 17  1  0
 17 19  1  0
 18 17  2  0
 19 20  1  0
 21 20  1  1
 22 14  1  0
 22 21  1  0
 23 21  1  0
 23 25  1  0
 24 23  2  0
M  END
$$$$
