MTQ.pdb
     RDKit          3D

 25 24  0  0  1  0  0  0  0  0999 V2000
    8.5342  -11.3358   20.9091 C   0  0  0  0  0  0  0  0  0  0  0  0
    8.8433  -12.8990   20.1186 S   0  0  0  0  0  0  0  0  0  0  0  0
    7.5579  -13.5861   19.1253 C   0  0  0  0  0  0  0  0  0  0  0  0
    7.7725  -14.9293   18.5101 C   0  0  0  0  0  0  0  0  0  0  0  0
    8.8390  -15.7836   19.0811 C   0  0  2  0  0  0  0  0  0  0  0  0
    9.0344  -16.9854   18.2413 N   0  0  0  0  0  0  0  0  0  0  0  0
    8.4638  -16.3389   20.4164 C   0  0  0  0  0  0  0  0  0  0  0  0
    7.5809  -17.2167   20.5691 O   0  0  0  0  0  0  0  0  0  0  0  0
    8.6796  -18.7144   21.6662 C   0  0  0  0  0  0  0  0  0  0  0  0
    9.4029  -17.9578   22.7484 C   0  0  1  0  0  0  0  0  0  0  0  0
   10.7653  -18.0103   22.5889 O   0  0  0  0  0  0  0  0  0  0  0  0
    8.8650  -16.5395   22.8985 C   0  0  2  0  0  0  0  0  0  0  0  0
    9.1043  -15.8909   21.6218 N   0  0  0  0  0  0  0  0  0  0  0  0
    9.5154  -15.8146   24.0186 C   0  0  0  0  0  0  0  0  0  0  0  0
   10.6652  -15.3168   23.9044 O   0  0  0  0  0  0  0  0  0  0  0  0
    5.1278  -12.4951   26.2074 N   0  0  0  0  0  0  0  0  0  0  0  0
    6.4366  -12.5965   26.7673 C   0  0  0  0  0  0  0  0  0  0  0  0
    6.7115  -11.9963   27.8230 O   0  0  0  0  0  0  0  0  0  0  0  0
    7.4290  -13.4211   26.0597 C   0  0  0  0  0  0  0  0  0  0  0  0
    8.3295  -14.1437   27.0035 C   0  0  0  0  0  0  0  0  0  0  0  0
    9.4646  -14.9081   26.3794 C   0  0  2  0  0  0  0  0  0  0  0  0
    8.8638  -15.6534   25.2674 N   0  0  0  0  0  0  0  0  0  0  0  0
   10.0621  -15.8208   27.3645 C   0  0  0  0  0  0  0  0  0  0  0  0
   10.7390  -15.4078   28.3553 O   0  0  0  0  0  0  0  0  0  0  0  0
    9.8971  -17.1836   27.2359 O   0  0  0  0  0  0  0  0  0  0  0  0
  2  3  1  0
  2  1  1  0
  4  5  1  0
  4  3  1  0
  5  7  1  0
  5  6  1  6
  7  8  2  0
  7 13  1  0
 10  9  1  6
 11 10  1  0
 12 10  1  0
 12 14  1  0
 12 13  1  6
 14 15  2  0
 16 17  1  0
 17 19  1  0
 18 17  2  0
 19 20  1  0
 21 20  1  1
 22 14  1  0
 22 21  1  0
 23 21  1  0
 23 25  1  0
 24 23  2  0
M  END
$$$$
