MTQ.pdb
     RDKit          3D

 25 24  0  0  1  0  0  0  0  0999 V2000
    7.0743  -10.7483   26.6173 C   0  0  0  0  0  0  0  0  0  0  0  0
    6.5172  -12.0766   27.6609 S   0  0  0  0  0  0  0  0  0  0  0  0
    5.9924  -13.5694   26.8816 C   0  0  0  0  0  0  0  0  0  0  0  0
    6.8443  -14.1472   25.8003 C   0  0  0  0  0  0  0  0  0  0  0  0
    6.3754  -15.3911   25.1475 C   0  0  2  0  0  0  0  0  0  0  0  0
    6.3404  -16.4992   26.1266 N   0  0  0  0  0  0  0  0  0  0  0  0
    7.3252  -15.8715   24.0990 C   0  0  0  0  0  0  0  0  0  0  0  0
    7.9984  -16.9235   24.2156 O   0  0  0  0  0  0  0  0  0  0  0  0
    8.4332  -13.2954   20.9626 C   0  0  0  0  0  0  0  0  0  0  0  0
    8.1416  -14.7329   20.6228 C   0  0  1  0  0  0  0  0  0  0  0  0
    8.7996  -15.1358   19.4875 O   0  0  0  0  0  0  0  0  0  0  0  0
    8.3757  -15.6515   21.8165 C   0  0  2  0  0  0  0  0  0  0  0  0
    7.5244  -15.1430   22.8769 N   0  0  0  0  0  0  0  0  0  0  0  0
    9.8037  -15.6844   22.2203 C   0  0  0  0  0  0  0  0  0  0  0  0
   10.2264  -15.0293   23.2076 O   0  0  0  0  0  0  0  0  0  0  0  0
   15.0371  -14.4744   20.2678 N   0  0  0  0  0  0  0  0  0  0  0  0
   15.0102  -15.2122   21.4891 C   0  0  0  0  0  0  0  0  0  0  0  0
   15.8300  -16.1294   21.6818 O   0  0  0  0  0  0  0  0  0  0  0  0
   13.9936  -14.8538   22.4909 C   0  0  0  0  0  0  0  0  0  0  0  0
   12.6086  -15.0802   21.9868 C   0  0  0  0  0  0  0  0  0  0  0  0
   12.1690  -16.5149   21.8840 C   0  0  2  0  0  0  0  0  0  0  0  0
   10.7522  -16.4592   21.5062 N   0  0  0  0  0  0  0  0  0  0  0  0
   12.3440  -17.1917   23.1769 C   0  0  0  0  0  0  0  0  0  0  0  0
   11.3633  -17.5781   23.8836 O   0  0  0  0  0  0  0  0  0  0  0  0
   13.6100  -17.4323   23.6675 O   0  0  0  0  0  0  0  0  0  0  0  0
  2  3  1  0
  2  1  1  0
  4  5  1  0
  4  3  1  0
  5  7  1  0
  5  6  1  1
  7  8  2  0
  7 13  1  0
 10  9  1  1
 11 10  1  0
 12 10  1  0
 12 14  1  0
 12 13  1  1
 14 15  2  0
 16 17  1  0
 17 19  1  0
 18 17  2  0
 19 20  1  0
 21 20  1  1
 22 14  1  0
 22 21  1  0
 23 21  1  0
 23 25  1  0
 24 23  2  0
M  END
$$$$
