MTQ.pdb
     RDKit          3D

 25 24  0  0  1  0  0  0  0  0999 V2000
    8.2120  -11.3190   20.4616 C   0  0  0  0  0  0  0  0  0  0  0  0
    7.7850  -12.2485   19.0063 S   0  0  0  0  0  0  0  0  0  0  0  0
    8.1446  -13.9752   18.9991 C   0  0  0  0  0  0  0  0  0  0  0  0
    8.4582  -14.6439   20.2965 C   0  0  0  0  0  0  0  0  0  0  0  0
    8.7661  -16.0922   20.2657 C   0  0  2  0  0  0  0  0  0  0  0  0
    7.6417  -16.8401   19.6620 N   0  0  0  0  0  0  0  0  0  0  0  0
    8.8857  -16.6736   21.6368 C   0  0  0  0  0  0  0  0  0  0  0  0
    7.8972  -17.0616   22.3044 O   0  0  0  0  0  0  0  0  0  0  0  0
   11.1336  -19.4661   22.8072 C   0  0  0  0  0  0  0  0  0  0  0  0
   11.4248  -18.2697   23.6736 C   0  0  1  0  0  0  0  0  0  0  0  0
   12.6417  -17.7067   23.3794 O   0  0  0  0  0  0  0  0  0  0  0  0
   10.2747  -17.2695   23.6561 C   0  0  2  0  0  0  0  0  0  0  0  0
   10.1620  -16.8238   22.2790 N   0  0  0  0  0  0  0  0  0  0  0  0
   10.5090  -16.1376   24.5873 C   0  0  0  0  0  0  0  0  0  0  0  0
   10.8809  -15.0088   24.1748 O   0  0  0  0  0  0  0  0  0  0  0  0
    6.3821  -13.5691   25.9977 N   0  0  0  0  0  0  0  0  0  0  0  0
    7.0689  -12.9121   27.0623 C   0  0  0  0  0  0  0  0  0  0  0  0
    6.5477  -11.9351   27.6316 O   0  0  0  0  0  0  0  0  0  0  0  0
    8.3925  -13.4245   27.4512 C   0  0  0  0  0  0  0  0  0  0  0  0
    8.8442  -14.5348   26.5641 C   0  0  0  0  0  0  0  0  0  0  0  0
   10.1852  -15.1346   26.8866 C   0  0  2  0  0  0  0  0  0  0  0  0
   10.3217  -16.2841   25.9849 N   0  0  0  0  0  0  0  0  0  0  0  0
   10.2243  -15.5597   28.2930 C   0  0  0  0  0  0  0  0  0  0  0  0
    9.9373  -16.7410   28.6575 O   0  0  0  0  0  0  0  0  0  0  0  0
   10.5848  -14.6646   29.2779 O   0  0  0  0  0  0  0  0  0  0  0  0
  2  3  1  0
  2  1  1  0
  4  5  1  0
  4  3  1  0
  5  7  1  0
  5  6  1  6
  7  8  2  0
  7 13  1  0
 10  9  1  6
 11 10  1  0
 12 10  1  0
 12 14  1  0
 12 13  1  6
 14 15  2  0
 16 17  1  0
 17 19  1  0
 18 17  2  0
 19 20  1  0
 21 20  1  6
 22 14  1  0
 22 21  1  0
 23 21  1  0
 23 25  1  0
 24 23  2  0
M  END
$$$$
