MTQ.pdb
     RDKit          3D

 25 24  0  0  1  0  0  0  0  0999 V2000
    7.4885  -11.2971   26.6893 C   0  0  0  0  0  0  0  0  0  0  0  0
    6.3851  -12.5071   27.3838 S   0  0  0  0  0  0  0  0  0  0  0  0
    6.0682  -13.9658   26.4440 C   0  0  0  0  0  0  0  0  0  0  0  0
    6.9824  -14.2970   25.3112 C   0  0  0  0  0  0  0  0  0  0  0  0
    6.6481  -15.4775   24.4818 C   0  0  2  0  0  0  0  0  0  0  0  0
    5.8199  -16.4273   25.2563 N   0  0  0  0  0  0  0  0  0  0  0  0
    7.8589  -16.2741   24.1188 C   0  0  0  0  0  0  0  0  0  0  0  0
    8.3196  -17.1881   24.8438 O   0  0  0  0  0  0  0  0  0  0  0  0
    8.7028  -17.0488   20.3174 C   0  0  0  0  0  0  0  0  0  0  0  0
    9.9470  -16.6301   21.0547 C   0  0  1  0  0  0  0  0  0  0  0  0
   10.3787  -15.3858   20.6679 O   0  0  0  0  0  0  0  0  0  0  0  0
    9.7811  -16.7717   22.5633 C   0  0  2  0  0  0  0  0  0  0  0  0
    8.5763  -16.0338   22.8975 N   0  0  0  0  0  0  0  0  0  0  0  0
   10.9643  -16.2643   23.3021 C   0  0  0  0  0  0  0  0  0  0  0  0
   11.0579  -15.0596   23.6523 O   0  0  0  0  0  0  0  0  0  0  0  0
   10.2677  -15.8338   27.8010 N   0  0  0  0  0  0  0  0  0  0  0  0
   11.4870  -16.3765   28.3066 C   0  0  0  0  0  0  0  0  0  0  0  0
   11.8034  -16.1963   29.4973 O   0  0  0  0  0  0  0  0  0  0  0  0
   12.3392  -17.1409   27.3820 C   0  0  0  0  0  0  0  0  0  0  0  0
   11.7957  -17.1422   25.9933 C   0  0  0  0  0  0  0  0  0  0  0  0
   12.8026  -16.9708   24.8893 C   0  0  2  0  0  0  0  0  0  0  0  0
   12.0408  -17.1211   23.6443 N   0  0  0  0  0  0  0  0  0  0  0  0
   13.8488  -17.9977   24.9948 C   0  0  0  0  0  0  0  0  0  0  0  0
   13.6541  -19.2074   24.6642 O   0  0  0  0  0  0  0  0  0  0  0  0
   15.1014  -17.6652   25.4656 O   0  0  0  0  0  0  0  0  0  0  0  0
  2  3  1  0
  2  1  1  0
  4  5  1  0
  4  3  1  0
  5  7  1  0
  5  6  1  1
  7  8  2  0
  7 13  1  0
 10  9  1  6
 11 10  1  0
 12 10  1  0
 12 14  1  0
 12 13  1  1
 14 15  2  0
 16 17  1  0
 17 19  1  0
 18 17  2  0
 19 20  1  0
 21 20  1  1
 22 14  1  0
 22 21  1  0
 23 21  1  0
 23 25  1  0
 24 23  2  0
M  END
$$$$
