MTQ.pdb
     RDKit          3D

 25 24  0  0  1  0  0  0  0  0999 V2000
    8.4897  -11.4720   21.0232 C   0  0  0  0  0  0  0  0  0  0  0  0
    8.4302  -13.1105   20.3333 S   0  0  0  0  0  0  0  0  0  0  0  0
    7.8030  -13.2899   18.6946 C   0  0  0  0  0  0  0  0  0  0  0  0
    7.6350  -14.6665   18.1419 C   0  0  0  0  0  0  0  0  0  0  0  0
    8.6734  -15.6699   18.4708 C   0  0  2  0  0  0  0  0  0  0  0  0
    8.6639  -16.7605   17.4716 N   0  0  0  0  0  0  0  0  0  0  0  0
    8.3958  -16.3675   19.7626 C   0  0  0  0  0  0  0  0  0  0  0  0
    7.3237  -16.9754   19.9956 O   0  0  0  0  0  0  0  0  0  0  0  0
    9.2560  -19.2802   21.0556 C   0  0  0  0  0  0  0  0  0  0  0  0
    9.8197  -18.3397   22.0873 C   0  0  1  0  0  0  0  0  0  0  0  0
   11.1796  -18.1984   21.9648 O   0  0  0  0  0  0  0  0  0  0  0  0
    9.0721  -17.0115   22.1056 C   0  0  2  0  0  0  0  0  0  0  0  0
    9.3581  -16.3816   20.8292 N   0  0  0  0  0  0  0  0  0  0  0  0
    9.4831  -16.1586   23.2487 C   0  0  0  0  0  0  0  0  0  0  0  0
   10.5375  -15.4731   23.2161 O   0  0  0  0  0  0  0  0  0  0  0  0
    5.3560  -13.2633   26.3262 N   0  0  0  0  0  0  0  0  0  0  0  0
    6.4398  -12.3814   26.0359 C   0  0  0  0  0  0  0  0  0  0  0  0
    6.2529  -11.1506   26.0118 O   0  0  0  0  0  0  0  0  0  0  0  0
    7.7605  -12.9734   25.7697 C   0  0  0  0  0  0  0  0  0  0  0  0
    7.7310  -14.4623   25.8481 C   0  0  0  0  0  0  0  0  0  0  0  0
    9.0211  -15.1666   25.5292 C   0  0  2  0  0  0  0  0  0  0  0  0
    8.7001  -16.0819   24.4281 N   0  0  0  0  0  0  0  0  0  0  0  0
    9.4992  -15.9049   26.7066 C   0  0  0  0  0  0  0  0  0  0  0  0
    9.3564  -17.1600   26.8299 O   0  0  0  0  0  0  0  0  0  0  0  0
   10.1328  -15.2372   27.7332 O   0  0  0  0  0  0  0  0  0  0  0  0
  2  3  1  0
  2  1  1  0
  4  5  1  0
  4  3  1  0
  5  7  1  0
  5  6  1  6
  7  8  2  0
  7 13  1  0
 10  9  1  6
 11 10  1  0
 12 10  1  0
 12 14  1  0
 12 13  1  6
 14 15  2  0
 16 17  1  0
 17 19  1  0
 18 17  2  0
 19 20  1  0
 21 20  1  1
 22 14  1  0
 22 21  1  0
 23 21  1  0
 23 25  1  0
 24 23  2  0
M  END
$$$$
