MTQ.pdb
     RDKit          3D

 25 24  0  0  1  0  0  0  0  0999 V2000
    7.9486  -11.0822   20.2074 C   0  0  0  0  0  0  0  0  0  0  0  0
    8.2602  -12.7449   20.7572 S   0  0  0  0  0  0  0  0  0  0  0  0
    6.8766  -13.7188   21.2553 C   0  0  0  0  0  0  0  0  0  0  0  0
    7.1301  -15.0410   21.9004 C   0  0  0  0  0  0  0  0  0  0  0  0
    8.2164  -15.8796   21.3437 C   0  0  2  0  0  0  0  0  0  0  0  0
    7.6781  -16.7932   20.3123 N   0  0  0  0  0  0  0  0  0  0  0  0
    8.7999  -16.8001   22.3657 C   0  0  0  0  0  0  0  0  0  0  0  0
    8.1221  -17.6578   22.9808 O   0  0  0  0  0  0  0  0  0  0  0  0
   11.3143  -19.2995   21.9628 C   0  0  0  0  0  0  0  0  0  0  0  0
   11.8620  -18.4078   23.0453 C   0  0  1  0  0  0  0  0  0  0  0  0
   12.8945  -17.6250   22.5921 O   0  0  0  0  0  0  0  0  0  0  0  0
   10.7570  -17.6142   23.7327 C   0  0  2  0  0  0  0  0  0  0  0  0
   10.1945  -16.7538   22.7075 N   0  0  0  0  0  0  0  0  0  0  0  0
   11.2687  -16.8367   24.8889 C   0  0  0  0  0  0  0  0  0  0  0  0
   12.0654  -15.8748   24.7377 O   0  0  0  0  0  0  0  0  0  0  0  0
    8.2712  -12.5221   26.6667 N   0  0  0  0  0  0  0  0  0  0  0  0
    8.7662  -13.5991   27.4616 C   0  0  0  0  0  0  0  0  0  0  0  0
    8.2904  -13.8091   28.5929 O   0  0  0  0  0  0  0  0  0  0  0  0
    9.8414  -14.4336   26.9022 C   0  0  0  0  0  0  0  0  0  0  0  0
   10.2210  -15.5452   27.8210 C   0  0  0  0  0  0  0  0  0  0  0  0
   11.3740  -16.4037   27.3788 C   0  0  2  0  0  0  0  0  0  0  0  0
   10.8780  -17.1482   26.2157 N   0  0  0  0  0  0  0  0  0  0  0  0
   11.7690  -17.3169   28.4605 C   0  0  0  0  0  0  0  0  0  0  0  0
   11.4884  -18.5545   28.4459 O   0  0  0  0  0  0  0  0  0  0  0  0
   12.4743  -16.8417   29.5459 O   0  0  0  0  0  0  0  0  0  0  0  0
  2  3  1  0
  2  1  1  0
  4  5  1  0
  4  3  1  0
  5  7  1  0
  5  6  1  6
  7  8  2  0
  7 13  1  0
 10  9  1  6
 11 10  1  0
 12 10  1  0
 12 14  1  0
 12 13  1  6
 14 15  2  0
 16 17  1  0
 17 19  1  0
 18 17  2  0
 19 20  1  0
 21 20  1  1
 22 14  1  0
 22 21  1  0
 23 21  1  0
 23 25  1  0
 24 23  2  0
M  END
$$$$
