IKK.pdb
     RDKit          3D

 27 26  0  0  1  0  0  0  0  0999 V2000
   17.4794  -16.9889  -13.6938 C   0  0  0  0  0  0  0  0  0  0  0  0
   17.0928  -16.4451  -15.0301 C   0  0  0  0  0  0  0  0  0  0  0  0
   17.9635  -15.3118  -15.4922 C   0  0  2  0  0  0  0  0  0  0  0  0
   18.0463  -14.1795  -14.5104 C   0  0  0  0  0  0  0  0  0  0  0  0
   17.5143  -14.8344  -16.8798 C   0  0  2  0  0  0  0  0  0  0  0  0
   17.5461  -16.0051  -17.7319 N   0  0  0  0  0  0  0  0  0  0  0  0
   18.4974  -13.8547  -17.3545 C   0  0  0  0  0  0  0  0  0  0  0  0
   19.0004  -13.0264  -16.5522 O   0  0  0  0  0  0  0  0  0  0  0  0
   18.9387  -13.7717  -18.7079 N   0  0  0  0  0  0  0  0  0  0  0  0
   19.7564  -12.7278  -19.2351 C   0  0  1  0  0  0  0  0  0  0  0  0
   20.2602  -13.1810  -20.6141 C   0  0  0  0  0  0  0  0  0  0  0  0
   21.2785  -14.2561  -20.4962 C   0  0  0  0  0  0  0  0  0  0  0  0
   21.8927  -14.7215  -21.7790 C   0  0  0  0  0  0  0  0  0  0  0  0
   22.8205  -15.8733  -21.6603 C   0  0  0  0  0  0  0  0  0  0  0  0
   23.4246  -16.3105  -22.8874 N   0  0  0  0  0  0  0  0  0  0  0  0
   19.0825  -11.4282  -19.3281 C   0  0  0  0  0  0  0  0  0  0  0  0
   17.8529  -11.3944  -19.5825 O   0  0  0  0  0  0  0  0  0  0  0  0
   19.7830  -10.2254  -19.1388 N   0  0  0  0  0  0  0  0  0  0  0  0
   19.0500   -8.9649  -19.2363 C   0  0  1  0  0  0  0  0  0  0  0  0
   17.9559   -8.8847  -18.2387 C   0  0  0  0  0  0  0  0  0  0  0  0
   17.3154   -7.5296  -18.2304 C   0  0  0  0  0  0  0  0  0  0  0  0
   16.2828   -7.3666  -17.1375 C   0  0  0  0  0  0  0  0  0  0  0  0
   15.6162   -6.0135  -17.3249 C   0  0  0  0  0  0  0  0  0  0  0  0
   14.6914   -5.7632  -16.2235 N   0  0  0  0  0  0  0  0  0  0  0  0
   19.9871   -7.8230  -19.0626 C   0  0  0  0  0  0  0  0  0  0  0  0
   21.1574   -7.9180  -18.6528 O   0  0  0  0  0  0  0  0  0  0  0  0
   19.5697   -6.5129  -19.3706 O   0  0  0  0  0  0  0  0  0  0  0  0
  1  2  1  0
  3  2  1  0
  3  4  1  1
  5  6  1  6
  5  3  1  0
  7  5  1  0
  8  7  2  0
  9  7  1  0
 10  9  1  0
 10 11  1  6
 11 12  1  0
 12 13  1  0
 14 13  1  0
 15 14  1  0
 16 18  1  0
 16 10  1  0
 17 16  2  0
 19 18  1  0
 20 21  1  0
 19 20  1  1
 21 22  1  0
 22 23  1  0
 23 24  1  0
 25 27  1  0
 25 19  1  0
 26 25  2  0
M  END
$$$$
