IKK.pdb
     RDKit          3D

 27 26  0  0  1  0  0  0  0  0999 V2000
   24.2011  -10.5686  -15.0967 C   0  0  0  0  0  0  0  0  0  0  0  0
   22.8624  -11.0455  -14.6373 C   0  0  0  0  0  0  0  0  0  0  0  0
   21.8172   -9.9671  -14.6105 C   0  0  2  0  0  0  0  0  0  0  0  0
   22.2299   -8.7503  -13.8344 C   0  0  0  0  0  0  0  0  0  0  0  0
   20.4832  -10.5387  -14.1117 C   0  0  2  0  0  0  0  0  0  0  0  0
   20.2055  -11.6871  -14.9494 N   0  0  0  0  0  0  0  0  0  0  0  0
   19.4529   -9.5162  -14.3228 C   0  0  0  0  0  0  0  0  0  0  0  0
   19.1907   -9.1157  -15.4861 O   0  0  0  0  0  0  0  0  0  0  0  0
   18.7012   -8.9234  -13.2660 N   0  0  0  0  0  0  0  0  0  0  0  0
   17.6863   -7.9361  -13.4430 C   0  0  1  0  0  0  0  0  0  0  0  0
   16.7027   -8.0621  -12.2693 C   0  0  0  0  0  0  0  0  0  0  0  0
   15.8290   -9.2546  -12.4159 C   0  0  0  0  0  0  0  0  0  0  0  0
   14.9310   -9.5562  -11.2574 C   0  0  0  0  0  0  0  0  0  0  0  0
   14.2498  -10.8735  -11.3052 C   0  0  0  0  0  0  0  0  0  0  0  0
   13.4076  -11.1760  -10.1823 N   0  0  0  0  0  0  0  0  0  0  0  0
   18.1966   -6.5650  -13.5499 C   0  0  0  0  0  0  0  0  0  0  0  0
   19.3483   -6.3066  -13.1204 O   0  0  0  0  0  0  0  0  0  0  0  0
   17.4252   -5.5395  -14.1213 N   0  0  0  0  0  0  0  0  0  0  0  0
   18.0896   -4.2983  -14.5132 C   0  0  1  0  0  0  0  0  0  0  0  0
   19.1830   -4.5413  -15.4850 C   0  0  0  0  0  0  0  0  0  0  0  0
   19.7840   -3.2572  -15.9713 C   0  0  0  0  0  0  0  0  0  0  0  0
   20.9075   -3.4642  -16.9623 C   0  0  0  0  0  0  0  0  0  0  0  0
   21.4467   -2.0962  -17.3474 C   0  0  0  0  0  0  0  0  0  0  0  0
   22.5896   -2.2512  -18.2420 N   0  0  0  0  0  0  0  0  0  0  0  0
   17.0941   -3.3539  -15.0869 C   0  0  0  0  0  0  0  0  0  0  0  0
   15.9754   -3.6767  -15.5238 O   0  0  0  0  0  0  0  0  0  0  0  0
   17.3885   -1.9782  -15.1656 O   0  0  0  0  0  0  0  0  0  0  0  0
  1  2  1  0
  3  2  1  0
  3  4  1  1
  5  6  1  6
  5  3  1  0
  7  5  1  0
  8  7  2  0
  9  7  1  0
 10  9  1  0
 10 11  1  1
 11 12  1  0
 12 13  1  0
 14 13  1  0
 15 14  1  0
 16 18  1  0
 16 10  1  0
 17 16  2  0
 19 18  1  0
 20 21  1  0
 19 20  1  6
 21 22  1  0
 22 23  1  0
 23 24  1  0
 25 27  1  0
 25 19  1  0
 26 25  2  0
M  END
$$$$
