IKK.pdb
     RDKit          3D

 27 26  0  0  1  0  0  0  0  0999 V2000
   27.7886  -19.6081   -6.9470 C   0  0  0  0  0  0  0  0  0  0  0  0
   26.9935  -20.5876   -7.7466 C   0  0  0  0  0  0  0  0  0  0  0  0
   26.3482  -19.9870   -8.9627 C   0  0  2  0  0  0  0  0  0  0  0  0
   25.4862  -18.7964   -8.6587 C   0  0  0  0  0  0  0  0  0  0  0  0
   25.5809  -21.0658   -9.7390 C   0  0  2  0  0  0  0  0  0  0  0  0
   26.5475  -22.1018  -10.0391 N   0  0  0  0  0  0  0  0  0  0  0  0
   25.1038  -20.4625  -10.9880 C   0  0  0  0  0  0  0  0  0  0  0  0
   24.2399  -19.5486  -10.9572 O   0  0  0  0  0  0  0  0  0  0  0  0
   25.5660  -20.8520  -12.2794 N   0  0  0  0  0  0  0  0  0  0  0  0
   25.0803  -20.3222  -13.5121 C   0  0  1  0  0  0  0  0  0  0  0  0
   25.8992  -20.9556  -14.6474 C   0  0  0  0  0  0  0  0  0  0  0  0
   25.5416  -20.3750  -15.9672 C   0  0  0  0  0  0  0  0  0  0  0  0
   26.2446  -20.9580  -17.1526 C   0  0  0  0  0  0  0  0  0  0  0  0
   25.8796  -20.3676  -18.4639 C   0  0  0  0  0  0  0  0  0  0  0  0
   26.4220  -21.0330  -19.6149 N   0  0  0  0  0  0  0  0  0  0  0  0
   23.6441  -20.5285  -13.7282 C   0  0  0  0  0  0  0  0  0  0  0  0
   23.1181  -21.6050  -13.3511 O   0  0  0  0  0  0  0  0  0  0  0  0
   22.8489  -19.5493  -14.3463 N   0  0  0  0  0  0  0  0  0  0  0  0
   21.3972  -19.7170  -14.3366 C   0  0  1  0  0  0  0  0  0  0  0  0
   20.6973  -18.4889  -14.7846 C   0  0  0  0  0  0  0  0  0  0  0  0
   21.0513  -18.1369  -16.1979 C   0  0  0  0  0  0  0  0  0  0  0  0
   20.4006  -16.8570  -16.6729 C   0  0  0  0  0  0  0  0  0  0  0  0
   20.8568  -16.6046  -18.1006 C   0  0  0  0  0  0  0  0  0  0  0  0
   20.2028  -15.4086  -18.6226 N   0  0  0  0  0  0  0  0  0  0  0  0
   21.0177  -20.8674  -15.1996 C   0  0  0  0  0  0  0  0  0  0  0  0
   19.9054  -21.4235  -15.1967 O   0  0  0  0  0  0  0  0  0  0  0  0
   21.9501  -21.4077  -16.1074 O   0  0  0  0  0  0  0  0  0  0  0  0
  1  2  1  0
  3  2  1  0
  3  4  1  1
  5  6  1  6
  5  3  1  0
  7  5  1  0
  8  7  2  0
  9  7  1  0
 10  9  1  0
 10 11  1  6
 11 12  1  0
 12 13  1  0
 14 13  1  0
 15 14  1  0
 16 18  1  0
 16 10  1  0
 17 16  2  0
 19 18  1  0
 20 21  1  0
 19 20  1  6
 21 22  1  0
 22 23  1  0
 23 24  1  0
 25 27  1  0
 25 19  1  0
 26 25  2  0
M  END
$$$$
