IKK.pdb
     RDKit          3D

 27 26  0  0  1  0  0  0  0  0999 V2000
   29.5122  -23.0802  -18.7075 C   0  0  0  0  0  0  0  0  0  0  0  0
   28.6772  -21.9441  -18.2147 C   0  0  0  0  0  0  0  0  0  0  0  0
   27.7613  -22.3178  -17.0844 C   0  0  2  0  0  0  0  0  0  0  0  0
   26.9162  -23.5249  -17.3707 C   0  0  0  0  0  0  0  0  0  0  0  0
   26.9109  -21.1082  -16.6736 C   0  0  2  0  0  0  0  0  0  0  0  0
   27.8503  -20.0711  -16.3002 N   0  0  0  0  0  0  0  0  0  0  0  0
   26.1178  -21.4974  -15.5026 C   0  0  0  0  0  0  0  0  0  0  0  0
   25.1575  -22.3000  -15.6297 O   0  0  0  0  0  0  0  0  0  0  0  0
   26.3671  -21.0137  -14.1846 N   0  0  0  0  0  0  0  0  0  0  0  0
   25.4987  -21.2063  -13.0688 C   0  0  1  0  0  0  0  0  0  0  0  0
   26.2435  -20.7339  -11.8107 C   0  0  0  0  0  0  0  0  0  0  0  0
   25.4121  -20.8989  -10.5907 C   0  0  0  0  0  0  0  0  0  0  0  0
   26.0536  -20.4959   -9.3002 C   0  0  0  0  0  0  0  0  0  0  0  0
   25.2559  -20.7693   -8.0794 C   0  0  0  0  0  0  0  0  0  0  0  0
   25.8929  -20.4362   -6.8363 N   0  0  0  0  0  0  0  0  0  0  0  0
   24.2041  -20.5277  -13.1932 C   0  0  0  0  0  0  0  0  0  0  0  0
   24.1758  -19.2738  -13.2619 O   0  0  0  0  0  0  0  0  0  0  0  0
   23.0003  -21.2503  -13.2368 N   0  0  0  0  0  0  0  0  0  0  0  0
   21.7473  -20.5152  -13.3961 C   0  0  1  0  0  0  0  0  0  0  0  0
   21.1900  -20.6649  -14.7620 C   0  0  0  0  0  0  0  0  0  0  0  0
   21.1901  -22.0973  -15.2037 C   0  0  0  0  0  0  0  0  0  0  0  0
   20.7228  -22.2797  -16.6305 C   0  0  0  0  0  0  0  0  0  0  0  0
   20.7696  -23.7651  -16.9494 C   0  0  0  0  0  0  0  0  0  0  0  0
   20.3725  -23.9837  -18.3370 N   0  0  0  0  0  0  0  0  0  0  0  0
   20.7596  -20.9793  -12.3855 C   0  0  0  0  0  0  0  0  0  0  0  0
   19.6334  -20.4821  -12.2095 O   0  0  0  0  0  0  0  0  0  0  0  0
   21.0714  -22.0601  -11.5369 O   0  0  0  0  0  0  0  0  0  0  0  0
  1  2  1  0
  3  2  1  0
  3  4  1  6
  5  6  1  1
  5  3  1  0
  7  5  1  0
  8  7  2  0
  9  7  1  0
 10  9  1  0
 10 11  1  1
 11 12  1  0
 12 13  1  0
 14 13  1  0
 15 14  1  0
 16 18  1  0
 16 10  1  0
 17 16  2  0
 19 18  1  0
 20 21  1  0
 19 20  1  6
 21 22  1  0
 22 23  1  0
 23 24  1  0
 25 27  1  0
 25 19  1  0
 26 25  2  0
M  END
$$$$
