IKK.pdb
     RDKit          3D

 27 26  0  0  1  0  0  0  0  0999 V2000
   27.8513  -18.6770  -18.0066 C   0  0  0  0  0  0  0  0  0  0  0  0
   28.0429  -19.5409  -16.8034 C   0  0  0  0  0  0  0  0  0  0  0  0
   26.7602  -19.8900  -16.1042 C   0  0  2  0  0  0  0  0  0  0  0  0
   25.8803  -18.7037  -15.8366 C   0  0  0  0  0  0  0  0  0  0  0  0
   27.0569  -20.6828  -14.8241 C   0  0  2  0  0  0  0  0  0  0  0  0
   27.7675  -21.8711  -15.2490 N   0  0  0  0  0  0  0  0  0  0  0  0
   25.7723  -21.0654  -14.2283 C   0  0  0  0  0  0  0  0  0  0  0  0
   25.0174  -21.8764  -14.8240 O   0  0  0  0  0  0  0  0  0  0  0  0
   25.3021  -20.5657  -12.9783 N   0  0  0  0  0  0  0  0  0  0  0  0
   24.0986  -20.9832  -12.3353 C   0  0  1  0  0  0  0  0  0  0  0  0
   24.2603  -20.7250  -10.8293 C   0  0  0  0  0  0  0  0  0  0  0  0
   23.0856  -21.2146  -10.0630 C   0  0  0  0  0  0  0  0  0  0  0  0
   23.1110  -20.9585   -8.5889 C   0  0  0  0  0  0  0  0  0  0  0  0
   21.8750  -21.3291   -7.8564 C   0  0  0  0  0  0  0  0  0  0  0  0
   21.9287  -21.1682   -6.4305 N   0  0  0  0  0  0  0  0  0  0  0  0
   22.8885  -20.3320  -12.8483 C   0  0  0  0  0  0  0  0  0  0  0  0
   22.8557  -19.0788  -12.9270 O   0  0  0  0  0  0  0  0  0  0  0  0
   21.7699  -21.0799  -13.2517 N   0  0  0  0  0  0  0  0  0  0  0  0
   20.6109  -20.3717  -13.7910 C   0  0  1  0  0  0  0  0  0  0  0  0
   19.8828  -21.1879  -14.7922 C   0  0  0  0  0  0  0  0  0  0  0  0
   18.7252  -20.4377  -15.3785 C   0  0  0  0  0  0  0  0  0  0  0  0
   17.9541  -21.2399  -16.4028 C   0  0  0  0  0  0  0  0  0  0  0  0
   16.9093  -20.3249  -17.0204 C   0  0  0  0  0  0  0  0  0  0  0  0
   16.1531  -21.0541  -18.0339 N   0  0  0  0  0  0  0  0  0  0  0  0
   19.6975  -19.9843  -12.6829 C   0  0  0  0  0  0  0  0  0  0  0  0
   19.5813  -20.5985  -11.6078 O   0  0  0  0  0  0  0  0  0  0  0  0
   18.8792  -18.8440  -12.8074 O   0  0  0  0  0  0  0  0  0  0  0  0
  1  2  1  0
  3  2  1  0
  3  4  1  1
  5  6  1  6
  5  3  1  0
  7  5  1  0
  8  7  2  0
  9  7  1  0
 10  9  1  0
 10 11  1  1
 11 12  1  0
 12 13  1  0
 14 13  1  0
 15 14  1  0
 16 18  1  0
 16 10  1  0
 17 16  2  0
 19 18  1  0
 20 21  1  0
 19 20  1  6
 21 22  1  0
 22 23  1  0
 23 24  1  0
 25 27  1  0
 25 19  1  0
 26 25  2  0
M  END
$$$$
