IKK.pdb
     RDKit          3D

 27 26  0  0  1  0  0  0  0  0999 V2000
   28.5777  -19.7694  -13.4658 C   0  0  0  0  0  0  0  0  0  0  0  0
   27.6072  -20.9043  -13.4360 C   0  0  0  0  0  0  0  0  0  0  0  0
   26.2904  -20.5522  -12.8050 C   0  0  2  0  0  0  0  0  0  0  0  0
   26.4198  -19.9942  -11.4176 C   0  0  0  0  0  0  0  0  0  0  0  0
   25.3450  -21.7603  -12.8501 C   0  0  2  0  0  0  0  0  0  0  0  0
   25.5027  -22.3386  -14.1686 N   0  0  0  0  0  0  0  0  0  0  0  0
   23.9748  -21.2606  -12.6936 C   0  0  0  0  0  0  0  0  0  0  0  0
   23.5894  -20.8137  -11.5827 O   0  0  0  0  0  0  0  0  0  0  0  0
   23.0152  -21.2450  -13.7483 N   0  0  0  0  0  0  0  0  0  0  0  0
   21.6438  -20.8816  -13.5961 C   0  0  1  0  0  0  0  0  0  0  0  0
   21.1582  -20.3180  -14.9405 C   0  0  0  0  0  0  0  0  0  0  0  0
   21.9078  -19.0931  -15.3206 C   0  0  0  0  0  0  0  0  0  0  0  0
   22.7342  -19.1893  -16.5645 C   0  0  0  0  0  0  0  0  0  0  0  0
   21.9783  -19.1152  -17.8391 C   0  0  0  0  0  0  0  0  0  0  0  0
   22.7711  -19.1879  -19.0341 N   0  0  0  0  0  0  0  0  0  0  0  0
   20.7794  -21.9792  -13.1489 C   0  0  0  0  0  0  0  0  0  0  0  0
   20.9815  -23.1362  -13.5942 O   0  0  0  0  0  0  0  0  0  0  0  0
   19.7343  -21.7623  -12.2358 N   0  0  0  0  0  0  0  0  0  0  0  0
   19.0233  -22.9197  -11.6967 C   0  0  1  0  0  0  0  0  0  0  0  0
   19.0885  -22.9664  -10.2160 C   0  0  0  0  0  0  0  0  0  0  0  0
   18.4058  -24.1849   -9.6721 C   0  0  0  0  0  0  0  0  0  0  0  0
   18.3777  -24.2259   -8.1606 C   0  0  0  0  0  0  0  0  0  0  0  0
   17.6745  -25.5069   -7.7426 C   0  0  0  0  0  0  0  0  0  0  0  0
   17.8215  -25.7026   -6.3035 N   0  0  0  0  0  0  0  0  0  0  0  0
   17.6060  -22.8942  -12.1471 C   0  0  0  0  0  0  0  0  0  0  0  0
   16.9105  -21.8688  -12.2529 O   0  0  0  0  0  0  0  0  0  0  0  0
   16.9525  -24.0939  -12.4925 O   0  0  0  0  0  0  0  0  0  0  0  0
  1  2  1  0
  3  2  1  0
  3  4  1  1
  5  6  1  6
  5  3  1  0
  7  5  1  0
  8  7  2  0
  9  7  1  0
 10  9  1  0
 10 11  1  6
 11 12  1  0
 12 13  1  0
 14 13  1  0
 15 14  1  0
 16 18  1  0
 16 10  1  0
 17 16  2  0
 19 18  1  0
 20 21  1  0
 19 20  1  1
 21 22  1  0
 22 23  1  0
 23 24  1  0
 25 27  1  0
 25 19  1  0
 26 25  2  0
M  END
$$$$
