IKK.pdb
     RDKit          3D

 27 26  0  0  1  0  0  0  0  0999 V2000
   19.6703  -21.2149  -18.0040 C   0  0  0  0  0  0  0  0  0  0  0  0
   20.2561  -21.4621  -16.6526 C   0  0  0  0  0  0  0  0  0  0  0  0
   19.6386  -22.6278  -15.9343 C   0  0  2  0  0  0  0  0  0  0  0  0
   18.1454  -22.5354  -15.8128 C   0  0  0  0  0  0  0  0  0  0  0  0
   20.3128  -22.8227  -14.5695 C   0  0  2  0  0  0  0  0  0  0  0  0
   21.7183  -23.0342  -14.8478 N   0  0  0  0  0  0  0  0  0  0  0  0
   19.7457  -24.0304  -13.9601 C   0  0  0  0  0  0  0  0  0  0  0  0
   18.5011  -24.2136  -13.9632 O   0  0  0  0  0  0  0  0  0  0  0  0
   20.5325  -25.0470  -13.3429 N   0  0  0  0  0  0  0  0  0  0  0  0
   20.0047  -26.1688  -12.6366 C   0  0  1  0  0  0  0  0  0  0  0  0
   21.1919  -26.9804  -12.0956 C   0  0  0  0  0  0  0  0  0  0  0  0
   20.7459  -28.2624  -11.4919 C   0  0  0  0  0  0  0  0  0  0  0  0
   21.8242  -29.1286  -10.9206 C   0  0  0  0  0  0  0  0  0  0  0  0
   21.3775  -30.4475  -10.4081 C   0  0  0  0  0  0  0  0  0  0  0  0
   22.4247  -31.3339   -9.9845 N   0  0  0  0  0  0  0  0  0  0  0  0
   19.0800  -25.8143  -11.5545 C   0  0  0  0  0  0  0  0  0  0  0  0
   19.4266  -24.9473  -10.7142 O   0  0  0  0  0  0  0  0  0  0  0  0
   17.8193  -26.4231  -11.4401 N   0  0  0  0  0  0  0  0  0  0  0  0
   16.9190  -25.9763  -10.3793 C   0  0  1  0  0  0  0  0  0  0  0  0
   15.8208  -25.1315  -10.9075 C   0  0  0  0  0  0  0  0  0  0  0  0
   14.8809  -24.7056   -9.8204 C   0  0  0  0  0  0  0  0  0  0  0  0
   13.6675  -23.9667  -10.3390 C   0  0  0  0  0  0  0  0  0  0  0  0
   12.7487  -23.6945   -9.1592 C   0  0  0  0  0  0  0  0  0  0  0  0
   11.6394  -22.8461   -9.5841 N   0  0  0  0  0  0  0  0  0  0  0  0
   16.3608  -27.1545   -9.6634 C   0  0  0  0  0  0  0  0  0  0  0  0
   16.0162  -28.2196  -10.2051 O   0  0  0  0  0  0  0  0  0  0  0  0
   16.1879  -27.1155   -8.2655 O   0  0  0  0  0  0  0  0  0  0  0  0
  1  2  1  0
  3  2  1  0
  3  4  1  1
  5  6  1  6
  5  3  1  0
  7  5  1  0
  8  7  2  0
  9  7  1  0
 10  9  1  0
 10 11  1  1
 11 12  1  0
 12 13  1  0
 14 13  1  0
 15 14  1  0
 16 18  1  0
 16 10  1  0
 17 16  2  0
 19 18  1  0
 20 21  1  0
 19 20  1  6
 21 22  1  0
 22 23  1  0
 23 24  1  0
 25 27  1  0
 25 19  1  0
 26 25  2  0
M  END
$$$$
