IKK.pdb
     RDKit          3D

 27 26  0  0  1  0  0  0  0  0999 V2000
   18.6926   -9.8900  -17.7297 C   0  0  0  0  0  0  0  0  0  0  0  0
   18.6531  -10.5515  -16.3911 C   0  0  0  0  0  0  0  0  0  0  0  0
   17.8173   -9.8167  -15.3824 C   0  0  2  0  0  0  0  0  0  0  0  0
   18.2294   -8.3864  -15.1889 C   0  0  0  0  0  0  0  0  0  0  0  0
   17.7917  -10.5892  -14.0566 C   0  0  2  0  0  0  0  0  0  0  0  0
   17.4204  -11.9474  -14.3958 N   0  0  0  0  0  0  0  0  0  0  0  0
   16.7515   -9.9920  -13.2122 C   0  0  0  0  0  0  0  0  0  0  0  0
   15.7186   -9.5010  -13.7363 O   0  0  0  0  0  0  0  0  0  0  0  0
   16.8308   -9.9263  -11.7900 N   0  0  0  0  0  0  0  0  0  0  0  0
   15.8696   -9.2893  -10.9495 C   0  0  1  0  0  0  0  0  0  0  0  0
   15.5207  -10.2660   -9.8159 C   0  0  0  0  0  0  0  0  0  0  0  0
   14.4283   -9.7383   -8.9585 C   0  0  0  0  0  0  0  0  0  0  0  0
   13.0346  -10.0458   -9.4085 C   0  0  0  0  0  0  0  0  0  0  0  0
   11.9532   -9.4785   -8.5657 C   0  0  0  0  0  0  0  0  0  0  0  0
   10.6204   -9.6469   -9.0727 N   0  0  0  0  0  0  0  0  0  0  0  0
   16.3092   -7.9988  -10.4081 C   0  0  0  0  0  0  0  0  0  0  0  0
   17.4622   -7.9022   -9.9193 O   0  0  0  0  0  0  0  0  0  0  0  0
   15.4689   -6.8733  -10.4258 N   0  0  0  0  0  0  0  0  0  0  0  0
   15.9671   -5.6180   -9.8674 C   0  0  1  0  0  0  0  0  0  0  0  0
   15.6434   -4.4610  -10.7364 C   0  0  0  0  0  0  0  0  0  0  0  0
   16.0830   -3.1677  -10.1192 C   0  0  0  0  0  0  0  0  0  0  0  0
   15.8736   -1.9749  -11.0251 C   0  0  0  0  0  0  0  0  0  0  0  0
   16.4204   -0.7482  -10.3135 C   0  0  0  0  0  0  0  0  0  0  0  0
   16.2526    0.4285  -11.1610 N   0  0  0  0  0  0  0  0  0  0  0  0
   15.4009   -5.4124   -8.5075 C   0  0  0  0  0  0  0  0  0  0  0  0
   14.3238   -5.8863   -8.1052 O   0  0  0  0  0  0  0  0  0  0  0  0
   16.0955   -4.6301   -7.5636 O   0  0  0  0  0  0  0  0  0  0  0  0
  1  2  1  0
  3  2  1  0
  3  4  1  1
  5  6  1  6
  5  3  1  0
  7  5  1  0
  8  7  2  0
  9  7  1  0
 10  9  1  0
 10 11  1  1
 11 12  1  0
 12 13  1  0
 14 13  1  0
 15 14  1  0
 16 18  1  0
 16 10  1  0
 17 16  2  0
 19 18  1  0
 20 21  1  0
 19 20  1  6
 21 22  1  0
 22 23  1  0
 23 24  1  0
 25 27  1  0
 25 19  1  0
 26 25  2  0
M  END
$$$$
