IKK.pdb
     RDKit          3D

 27 26  0  0  1  0  0  0  0  0999 V2000
   23.1719  -18.0059  -19.5137 C   0  0  0  0  0  0  0  0  0  0  0  0
   23.3907  -17.7772  -18.0540 C   0  0  0  0  0  0  0  0  0  0  0  0
   22.8695  -18.8876  -17.1872 C   0  0  2  0  0  0  0  0  0  0  0  0
   21.4866  -19.3392  -17.5570 C   0  0  0  0  0  0  0  0  0  0  0  0
   22.9654  -18.4904  -15.7080 C   0  0  2  0  0  0  0  0  0  0  0  0
   24.3491  -18.1257  -15.4839 N   0  0  0  0  0  0  0  0  0  0  0  0
   22.6331  -19.6728  -14.9060 C   0  0  0  0  0  0  0  0  0  0  0  0
   22.8155  -20.8253  -15.3761 O   0  0  0  0  0  0  0  0  0  0  0  0
   22.0994  -19.6061  -13.5854 N   0  0  0  0  0  0  0  0  0  0  0  0
   21.8207  -20.7375  -12.7617 C   0  0  1  0  0  0  0  0  0  0  0  0
   22.2287  -20.3800  -11.3242 C   0  0  0  0  0  0  0  0  0  0  0  0
   23.6794  -20.0744  -11.2292 C   0  0  0  0  0  0  0  0  0  0  0  0
   24.5889  -21.2522  -11.0708 C   0  0  0  0  0  0  0  0  0  0  0  0
   26.0344  -20.9323  -10.9720 C   0  0  0  0  0  0  0  0  0  0  0  0
   26.9184  -22.0635  -10.9469 N   0  0  0  0  0  0  0  0  0  0  0  0
   20.4246  -21.1848  -12.8109 C   0  0  0  0  0  0  0  0  0  0  0  0
   19.5078  -20.3262  -12.8151 O   0  0  0  0  0  0  0  0  0  0  0  0
   20.0944  -22.5495  -12.8532 N   0  0  0  0  0  0  0  0  0  0  0  0
   18.6835  -22.9299  -12.8359 C   0  0  1  0  0  0  0  0  0  0  0  0
   18.5068  -24.3980  -12.9462 C   0  0  0  0  0  0  0  0  0  0  0  0
   17.0620  -24.7703  -13.0899 C   0  0  0  0  0  0  0  0  0  0  0  0
   16.8292  -26.2647  -13.0805 C   0  0  0  0  0  0  0  0  0  0  0  0
   15.3396  -26.5049  -13.2637 C   0  0  0  0  0  0  0  0  0  0  0  0
   15.0794  -27.9384  -13.3548 N   0  0  0  0  0  0  0  0  0  0  0  0
   18.0422  -22.4283  -11.5912 C   0  0  0  0  0  0  0  0  0  0  0  0
   18.5250  -22.5313  -10.4498 O   0  0  0  0  0  0  0  0  0  0  0  0
   16.7930  -21.7793  -11.6518 O   0  0  0  0  0  0  0  0  0  0  0  0
  1  2  1  0
  3  2  1  0
  3  4  1  6
  5  6  1  1
  5  3  1  0
  7  5  1  0
  8  7  2  0
  9  7  1  0
 10  9  1  0
 10 11  1  1
 11 12  1  0
 12 13  1  0
 14 13  1  0
 15 14  1  0
 16 18  1  0
 16 10  1  0
 17 16  2  0
 19 18  1  0
 20 21  1  0
 19 20  1  1
 21 22  1  0
 22 23  1  0
 23 24  1  0
 25 27  1  0
 25 19  1  0
 26 25  2  0
M  END
$$$$
