IKK.pdb
     RDKit          3D

 27 26  0  0  1  0  0  0  0  0999 V2000
   32.6032  -27.3716  -18.1947 C   0  0  0  0  0  0  0  0  0  0  0  0
   31.5168  -26.3469  -18.1720 C   0  0  0  0  0  0  0  0  0  0  0  0
   30.1784  -26.8992  -17.7723 C   0  0  2  0  0  0  0  0  0  0  0  0
   29.7433  -28.0748  -18.5979 C   0  0  0  0  0  0  0  0  0  0  0  0
   29.1269  -25.7814  -17.7693 C   0  0  2  0  0  0  0  0  0  0  0  0
   29.4583  -24.9278  -16.6472 N   0  0  0  0  0  0  0  0  0  0  0  0
   27.8169  -26.4018  -17.5444 C   0  0  0  0  0  0  0  0  0  0  0  0
   27.4779  -26.7574  -16.3863 O   0  0  0  0  0  0  0  0  0  0  0  0
   26.8674  -26.6388  -18.5815 N   0  0  0  0  0  0  0  0  0  0  0  0
   25.5563  -27.1648  -18.3805 C   0  0  1  0  0  0  0  0  0  0  0  0
   24.6975  -26.7509  -19.5855 C   0  0  0  0  0  0  0  0  0  0  0  0
   23.2673  -27.0960  -19.3799 C   0  0  0  0  0  0  0  0  0  0  0  0
   22.3190  -25.9413  -19.2988 C   0  0  0  0  0  0  0  0  0  0  0  0
   20.9041  -26.2965  -19.0279 C   0  0  0  0  0  0  0  0  0  0  0  0
   19.9909  -25.1907  -18.9568 N   0  0  0  0  0  0  0  0  0  0  0  0
   25.5171  -28.6184  -18.1879 C   0  0  0  0  0  0  0  0  0  0  0  0
   26.2759  -29.3464  -18.8750 O   0  0  0  0  0  0  0  0  0  0  0  0
   24.6510  -29.2098  -17.2534 N   0  0  0  0  0  0  0  0  0  0  0  0
   24.7417  -30.6509  -17.0280 C   0  0  1  0  0  0  0  0  0  0  0  0
   24.0507  -31.0585  -15.7809 C   0  0  0  0  0  0  0  0  0  0  0  0
   24.2101  -32.5253  -15.5164 C   0  0  0  0  0  0  0  0  0  0  0  0
   23.5958  -32.9633  -14.2057 C   0  0  0  0  0  0  0  0  0  0  0  0
   23.8146  -34.4610  -14.0665 C   0  0  0  0  0  0  0  0  0  0  0  0
   23.2985  -34.9167  -12.7793 N   0  0  0  0  0  0  0  0  0  0  0  0
   24.1706  -31.3793  -18.1923 C   0  0  0  0  0  0  0  0  0  0  0  0
   23.6581  -30.8395  -19.1886 O   0  0  0  0  0  0  0  0  0  0  0  0
   24.1852  -32.7880  -18.2211 O   0  0  0  0  0  0  0  0  0  0  0  0
  1  2  1  0
  3  2  1  0
  3  4  1  6
  5  6  1  1
  5  3  1  0
  7  5  1  0
  8  7  2  0
  9  7  1  0
 10  9  1  0
 10 11  1  6
 11 12  1  0
 12 13  1  0
 14 13  1  0
 15 14  1  0
 16 18  1  0
 16 10  1  0
 17 16  2  0
 19 18  1  0
 20 21  1  0
 19 20  1  1
 21 22  1  0
 22 23  1  0
 23 24  1  0
 25 27  1  0
 25 19  1  0
 26 25  2  0
M  END
$$$$
