IKK.pdb
     RDKit          3D

 27 26  0  0  1  0  0  0  0  0999 V2000
   25.6649  -20.9131   -9.3897 C   0  0  0  0  0  0  0  0  0  0  0  0
   24.9822  -20.5123  -10.6562 C   0  0  0  0  0  0  0  0  0  0  0  0
   25.1580  -21.5018  -11.7725 C   0  0  2  0  0  0  0  0  0  0  0  0
   26.5908  -21.8671  -12.0308 C   0  0  0  0  0  0  0  0  0  0  0  0
   24.4591  -20.9944  -13.0411 C   0  0  2  0  0  0  0  0  0  0  0  0
   25.0782  -19.7229  -13.3536 N   0  0  0  0  0  0  0  0  0  0  0  0
   23.0438  -20.7852  -12.7175 C   0  0  0  0  0  0  0  0  0  0  0  0
   22.6981  -19.8115  -11.9998 O   0  0  0  0  0  0  0  0  0  0  0  0
   21.9955  -21.6369  -13.1746 N   0  0  0  0  0  0  0  0  0  0  0  0
   20.6134  -21.4660  -12.8636 C   0  0  1  0  0  0  0  0  0  0  0  0
   19.8858  -21.0885  -14.1631 C   0  0  0  0  0  0  0  0  0  0  0  0
   20.3116  -19.7542  -14.6584 C   0  0  0  0  0  0  0  0  0  0  0  0
   19.7462  -19.3335  -15.9785 C   0  0  0  0  0  0  0  0  0  0  0  0
   20.2568  -18.0453  -16.5091 C   0  0  0  0  0  0  0  0  0  0  0  0
   19.7009  -17.6297  -17.7661 N   0  0  0  0  0  0  0  0  0  0  0  0
   19.9905  -22.6383  -12.2396 C   0  0  0  0  0  0  0  0  0  0  0  0
   20.1396  -23.7658  -12.7729 O   0  0  0  0  0  0  0  0  0  0  0  0
   19.2333  -22.5249  -11.0619 N   0  0  0  0  0  0  0  0  0  0  0  0
   18.7747  -23.7463  -10.4034 C   0  0  1  0  0  0  0  0  0  0  0  0
   18.5859  -23.5494   -8.9459 C   0  0  0  0  0  0  0  0  0  0  0  0
   18.1332  -24.8100   -8.2732 C   0  0  0  0  0  0  0  0  0  0  0  0
   17.9082  -24.6433   -6.7870 C   0  0  0  0  0  0  0  0  0  0  0  0
   17.5727  -26.0091   -6.2107 C   0  0  0  0  0  0  0  0  0  0  0  0
   17.4304  -25.9108   -4.7613 N   0  0  0  0  0  0  0  0  0  0  0  0
   17.5059  -24.2083  -11.0271 C   0  0  0  0  0  0  0  0  0  0  0  0
   17.1575  -25.3971  -11.1366 O   0  0  0  0  0  0  0  0  0  0  0  0
   16.5929  -23.2708  -11.5497 O   0  0  0  0  0  0  0  0  0  0  0  0
  1  2  1  0
  3  2  1  0
  3  4  1  6
  5  6  1  1
  5  3  1  0
  7  5  1  0
  8  7  2  0
  9  7  1  0
 10  9  1  0
 10 11  1  6
 11 12  1  0
 12 13  1  0
 14 13  1  0
 15 14  1  0
 16 18  1  0
 16 10  1  0
 17 16  2  0
 19 18  1  0
 20 21  1  0
 19 20  1  1
 21 22  1  0
 22 23  1  0
 23 24  1  0
 25 27  1  0
 25 19  1  0
 26 25  2  0
M  END
$$$$
