IKK.pdb
     RDKit          3D

 27 26  0  0  1  0  0  0  0  0999 V2000
   28.2526  -17.3243  -20.9445 C   0  0  0  0  0  0  0  0  0  0  0  0
   27.4407  -16.8664  -19.7774 C   0  0  0  0  0  0  0  0  0  0  0  0
   26.9378  -17.9906  -18.9175 C   0  0  2  0  0  0  0  0  0  0  0  0
   26.3105  -19.1089  -19.6978 C   0  0  0  0  0  0  0  0  0  0  0  0
   25.9929  -17.4458  -17.8379 C   0  0  2  0  0  0  0  0  0  0  0  0
   26.7602  -16.4663  -17.0966 N   0  0  0  0  0  0  0  0  0  0  0  0
   25.6353  -18.5606  -16.9542 C   0  0  0  0  0  0  0  0  0  0  0  0
   24.9913  -19.5422  -17.4062 O   0  0  0  0  0  0  0  0  0  0  0  0
   25.9777  -18.6123  -15.5709 N   0  0  0  0  0  0  0  0  0  0  0  0
   25.5169  -19.6043  -14.6546 C   0  0  1  0  0  0  0  0  0  0  0  0
   26.4716  -19.6071  -13.4507 C   0  0  0  0  0  0  0  0  0  0  0  0
   25.9974  -20.5223  -12.3809 C   0  0  0  0  0  0  0  0  0  0  0  0
   26.8192  -20.5515  -11.1307 C   0  0  0  0  0  0  0  0  0  0  0  0
   26.3470  -21.4861  -10.0794 C   0  0  0  0  0  0  0  0  0  0  0  0
   27.1035  -21.4783   -8.8590 N   0  0  0  0  0  0  0  0  0  0  0  0
   24.1290  -19.4179  -14.2181 C   0  0  0  0  0  0  0  0  0  0  0  0
   23.8176  -18.3675  -13.6036 O   0  0  0  0  0  0  0  0  0  0  0  0
   23.1451  -20.3875  -14.4730 N   0  0  0  0  0  0  0  0  0  0  0  0
   21.8200  -20.2136  -13.8816 C   0  0  1  0  0  0  0  0  0  0  0  0
   20.8325  -21.1606  -14.4532 C   0  0  0  0  0  0  0  0  0  0  0  0
   19.4280  -20.7699  -14.1045 C   0  0  0  0  0  0  0  0  0  0  0  0
   18.4007  -21.7888  -14.5443 C   0  0  0  0  0  0  0  0  0  0  0  0
   17.0260  -21.2490  -14.1849 C   0  0  0  0  0  0  0  0  0  0  0  0
   15.9979  -22.1874  -14.6246 N   0  0  0  0  0  0  0  0  0  0  0  0
   21.9008  -20.3852  -12.4064 C   0  0  0  0  0  0  0  0  0  0  0  0
   22.4697  -21.3284  -11.8291 O   0  0  0  0  0  0  0  0  0  0  0  0
   21.3053  -19.4370  -11.5510 O   0  0  0  0  0  0  0  0  0  0  0  0
  1  2  1  0
  3  2  1  0
  3  4  1  6
  5  6  1  1
  5  3  1  0
  7  5  1  0
  8  7  2  0
  9  7  1  0
 10  9  1  0
 10 11  1  1
 11 12  1  0
 12 13  1  0
 14 13  1  0
 15 14  1  0
 16 18  1  0
 16 10  1  0
 17 16  2  0
 19 18  1  0
 20 21  1  0
 19 20  1  6
 21 22  1  0
 22 23  1  0
 23 24  1  0
 25 27  1  0
 25 19  1  0
 26 25  2  0
M  END
$$$$
