WKN.pdb
     RDKit          3D

 32 33  0  0  1  0  0  0  0  0999 V2000
   24.6995  -21.4224   -8.9500 N   0  0  0  0  0  0  0  0  0  0  0  0
   25.6979  -20.4458   -9.3177 C   0  0  1  0  0  0  0  0  0  0  0  0
   27.0155  -20.7176   -8.6386 C   0  0  0  0  0  0  0  0  0  0  0  0
   27.0440  -20.6648   -7.1993 C   0  0  0  0  0  0  0  0  0  0  0  0
   26.1533  -21.3553   -6.3639 C   0  0  0  0  0  0  0  0  0  0  0  0
   26.4737  -21.1085   -5.0934 N   0  0  0  0  0  0  0  0  0  0  0  0
   27.5331  -20.2856   -5.0471 C   0  0  0  0  0  0  0  0  0  0  0  0
   28.1872  -19.7747   -3.9518 C   0  0  0  0  0  0  0  0  0  0  0  0
   29.2612  -18.9346   -4.1570 C   0  0  0  0  0  0  0  0  0  0  0  0
   29.6459  -18.6337   -5.4460 C   0  0  0  0  0  0  0  0  0  0  0  0
   28.9822  -19.1532   -6.5165 C   0  0  0  0  0  0  0  0  0  0  0  0
   27.9017  -19.9988   -6.3703 C   0  0  0  0  0  0  0  0  0  0  0  0
   25.8905  -20.2573  -10.7493 C   0  0  0  0  0  0  0  0  0  0  0  0
   26.6452  -19.3844  -11.2501 O   0  0  0  0  0  0  0  0  0  0  0  0
   25.2053  -21.0929  -11.7257 N   0  0  0  0  0  0  0  0  0  0  0  0
   25.3433  -20.9440  -13.1385 C   0  0  1  0  0  0  0  0  0  0  0  0
   26.0435  -21.9955  -13.9007 C   0  0  0  0  0  0  0  0  0  0  0  0
   26.2216  -21.8226  -15.3488 C   0  0  0  0  0  0  0  0  0  0  0  0
   26.9650  -22.8923  -16.0798 C   0  0  0  0  0  0  0  0  0  0  0  0
   27.1020  -22.4720  -17.5624 C   0  0  0  0  0  0  0  0  0  0  0  0
   28.0550  -21.3912  -17.6290 N   0  0  0  0  0  0  0  0  0  0  0  0
   23.9223  -20.8125  -13.6710 C   0  0  0  0  0  0  0  0  0  0  0  0
   22.9944  -21.5737  -13.3137 O   0  0  0  0  0  0  0  0  0  0  0  0
   20.2666  -16.6935  -16.4103 N   0  0  0  0  0  0  0  0  0  0  0  0
   20.6547  -17.9661  -15.8854 C   0  0  0  0  0  0  0  0  0  0  0  0
   19.7638  -18.8357  -15.7474 O   0  0  0  0  0  0  0  0  0  0  0  0
   22.0683  -18.2062  -15.5342 C   0  0  0  0  0  0  0  0  0  0  0  0
   22.2065  -19.6522  -15.0840 C   0  0  2  0  0  0  0  0  0  0  0  0
   23.5801  -19.8054  -14.6083 N   0  0  0  0  0  0  0  0  0  0  0  0
   21.9137  -20.6075  -16.1743 C   0  0  0  0  0  0  0  0  0  0  0  0
   22.7718  -20.8336  -17.0634 O   0  0  0  0  0  0  0  0  0  0  0  0
   20.7071  -21.2915  -16.2751 O   0  0  0  0  0  0  0  0  0  0  0  0
  2  3  1  0
  2  1  1  6
  3  4  1  0
  4  5  2  0
  6  5  1  0
  7  6  1  0
  8  7  2  0
  9  8  1  0
 10  9  2  0
 10 11  1  0
 11 12  2  0
 12  7  1  0
 12  4  1  0
 13  2  1  0
 13 14  2  0
 15 13  1  0
 16 22  1  0
 16 15  1  0
 16 17  1  6
 18 17  1  0
 19 18  1  0
 20 21  1  0
 20 19  1  0
 22 29  1  0
 23 22  2  0
 24 25  1  0
 25 26  2  0
 27 25  1  0
 28 27  1  6
 28 30  1  0
 29 28  1  0
 30 31  2  0
 30 32  1  0
M  END
$$$$
