WKN.pdb
     RDKit          3D

 32 33  0  0  1  0  0  0  0  0999 V2000
   22.6203  -16.4827  -17.9051 N   0  0  0  0  0  0  0  0  0  0  0  0
   22.5410  -16.8419  -16.5085 C   0  0  1  0  0  0  0  0  0  0  0  0
   21.1336  -16.7188  -15.9837 C   0  0  0  0  0  0  0  0  0  0  0  0
   20.5470  -15.4033  -15.9586 C   0  0  0  0  0  0  0  0  0  0  0  0
   20.7096  -14.4445  -16.9697 C   0  0  0  0  0  0  0  0  0  0  0  0
   20.0157  -13.3532  -16.6453 N   0  0  0  0  0  0  0  0  0  0  0  0
   19.4029  -13.5423  -15.4662 C   0  0  0  0  0  0  0  0  0  0  0  0
   18.5943  -12.6831  -14.7613 C   0  0  0  0  0  0  0  0  0  0  0  0
   18.0771  -13.1044  -13.5546 C   0  0  0  0  0  0  0  0  0  0  0  0
   18.3829  -14.3667  -13.0931 C   0  0  0  0  0  0  0  0  0  0  0  0
   19.1862  -15.2013  -13.8103 C   0  0  0  0  0  0  0  0  0  0  0  0
   19.7309  -14.8327  -15.0232 C   0  0  0  0  0  0  0  0  0  0  0  0
   23.1024  -18.1413  -16.1644 C   0  0  0  0  0  0  0  0  0  0  0  0
   22.8255  -19.2106  -16.7662 O   0  0  0  0  0  0  0  0  0  0  0  0
   24.0524  -18.2942  -15.0711 N   0  0  0  0  0  0  0  0  0  0  0  0
   24.5528  -19.5527  -14.6206 C   0  0  1  0  0  0  0  0  0  0  0  0
   25.8725  -19.6005  -13.9624 C   0  0  0  0  0  0  0  0  0  0  0  0
   26.7859  -20.7054  -14.2839 C   0  0  0  0  0  0  0  0  0  0  0  0
   27.2851  -20.7945  -15.6889 C   0  0  0  0  0  0  0  0  0  0  0  0
   28.2936  -21.9641  -15.7804 C   0  0  0  0  0  0  0  0  0  0  0  0
   28.6939  -22.0955  -17.1601 N   0  0  0  0  0  0  0  0  0  0  0  0
   23.5009  -20.0826  -13.6547 C   0  0  0  0  0  0  0  0  0  0  0  0
   22.8608  -19.3372  -12.8782 O   0  0  0  0  0  0  0  0  0  0  0  0
   18.5957  -21.3977  -14.4804 N   0  0  0  0  0  0  0  0  0  0  0  0
   19.5244  -21.1520  -13.4209 C   0  0  0  0  0  0  0  0  0  0  0  0
   19.1122  -21.2751  -12.2445 O   0  0  0  0  0  0  0  0  0  0  0  0
   20.9132  -20.7716  -13.7462 C   0  0  0  0  0  0  0  0  0  0  0  0
   21.8253  -21.9233  -13.3536 C   0  0  2  0  0  0  0  0  0  0  0  0
   23.1926  -21.4649  -13.5914 N   0  0  0  0  0  0  0  0  0  0  0  0
   21.5369  -23.1523  -14.1241 C   0  0  0  0  0  0  0  0  0  0  0  0
   20.8150  -24.0534  -13.6291 O   0  0  0  0  0  0  0  0  0  0  0  0
   22.0331  -23.3750  -15.4040 O   0  0  0  0  0  0  0  0  0  0  0  0
  2  3  1  0
  2  1  1  6
  3  4  1  0
  4  5  2  0
  6  5  1  0
  7  6  1  0
  8  7  2  0
  9  8  1  0
 10  9  2  0
 10 11  1  0
 11 12  2  0
 12  7  1  0
 12  4  1  0
 13  2  1  0
 13 14  2  0
 15 13  1  0
 16 22  1  0
 16 15  1  0
 16 17  1  1
 18 17  1  0
 19 18  1  0
 20 21  1  0
 20 19  1  0
 22 29  1  0
 23 22  2  0
 24 25  1  0
 25 26  2  0
 27 25  1  0
 28 27  1  6
 28 30  1  0
 29 28  1  0
 30 31  2  0
 30 32  1  0
M  END
$$$$
