WKN.pdb
     RDKit          3D

 32 33  0  0  1  0  0  0  0  0999 V2000
   28.9773  -21.5800  -10.4763 N   0  0  0  0  0  0  0  0  0  0  0  0
   27.6524  -21.0994  -10.1606 C   0  0  1  0  0  0  0  0  0  0  0  0
   27.6926  -19.9993   -9.1313 C   0  0  0  0  0  0  0  0  0  0  0  0
   28.5487  -20.1901   -7.9886 C   0  0  0  0  0  0  0  0  0  0  0  0
   29.8540  -20.6999   -8.0536 C   0  0  0  0  0  0  0  0  0  0  0  0
   30.3709  -20.7207   -6.8247 N   0  0  0  0  0  0  0  0  0  0  0  0
   29.4695  -20.2511   -5.9482 C   0  0  0  0  0  0  0  0  0  0  0  0
   29.5800  -20.1018   -4.5865 C   0  0  0  0  0  0  0  0  0  0  0  0
   28.5038  -19.5958   -3.8887 C   0  0  0  0  0  0  0  0  0  0  0  0
   27.3559  -19.2559   -4.5720 C   0  0  0  0  0  0  0  0  0  0  0  0
   27.2702  -19.4121   -5.9227 C   0  0  0  0  0  0  0  0  0  0  0  0
   28.3154  -19.9131   -6.6713 C   0  0  0  0  0  0  0  0  0  0  0  0
   26.8437  -20.6995  -11.3043 C   0  0  0  0  0  0  0  0  0  0  0  0
   27.2679  -19.9941  -12.2555 O   0  0  0  0  0  0  0  0  0  0  0  0
   25.4500  -21.1037  -11.4292 N   0  0  0  0  0  0  0  0  0  0  0  0
   24.6735  -20.9310  -12.6142 C   0  0  1  0  0  0  0  0  0  0  0  0
   24.7898  -21.9298  -13.6941 C   0  0  0  0  0  0  0  0  0  0  0  0
   24.0190  -21.7321  -14.9291 C   0  0  0  0  0  0  0  0  0  0  0  0
   24.7314  -21.1195  -16.0903 C   0  0  0  0  0  0  0  0  0  0  0  0
   23.7121  -20.8981  -17.2328 C   0  0  0  0  0  0  0  0  0  0  0  0
   23.4054  -22.1854  -17.8070 N   0  0  0  0  0  0  0  0  0  0  0  0
   23.2257  -20.8800  -12.1439 C   0  0  0  0  0  0  0  0  0  0  0  0
   22.7736  -21.6498  -11.2657 O   0  0  0  0  0  0  0  0  0  0  0  0
   18.3832  -19.5348  -11.5163 N   0  0  0  0  0  0  0  0  0  0  0  0
   18.9171  -18.5327  -12.3859 C   0  0  0  0  0  0  0  0  0  0  0  0
   18.1630  -17.5906  -12.7214 O   0  0  0  0  0  0  0  0  0  0  0  0
   20.3154  -18.6411  -12.8465 C   0  0  0  0  0  0  0  0  0  0  0  0
   20.9234  -19.8906  -12.2285 C   0  0  2  0  0  0  0  0  0  0  0  0
   22.3106  -19.9426  -12.6859 N   0  0  0  0  0  0  0  0  0  0  0  0
   20.1921  -21.1171  -12.6134 C   0  0  0  0  0  0  0  0  0  0  0  0
   20.4543  -21.6947  -13.6976 O   0  0  0  0  0  0  0  0  0  0  0  0
   19.2014  -21.6858  -11.8203 O   0  0  0  0  0  0  0  0  0  0  0  0
  2  3  1  0
  2  1  1  6
  3  4  1  0
  4  5  2  0
  6  5  1  0
  7  6  1  0
  8  7  2  0
  9  8  1  0
 10  9  2  0
 10 11  1  0
 11 12  2  0
 12  7  1  0
 12  4  1  0
 13  2  1  0
 13 14  2  0
 15 13  1  0
 16 22  1  0
 16 15  1  0
 16 17  1  6
 18 17  1  0
 19 18  1  0
 20 21  1  0
 20 19  1  0
 22 29  1  0
 23 22  2  0
 24 25  1  0
 25 26  2  0
 27 25  1  0
 28 27  1  6
 28 30  1  0
 29 28  1  0
 30 31  2  0
 30 32  1  0
M  END
$$$$
