WKN.pdb
     RDKit          3D

 32 33  0  0  1  0  0  0  0  0999 V2000
   26.0005  -18.6413  -12.2491 N   0  0  0  0  0  0  0  0  0  0  0  0
   26.5340  -19.9774  -12.3757 C   0  0  1  0  0  0  0  0  0  0  0  0
   25.9464  -20.9085  -11.3467 C   0  0  0  0  0  0  0  0  0  0  0  0
   26.0881  -20.5414   -9.9610 C   0  0  0  0  0  0  0  0  0  0  0  0
   25.0372  -20.0850   -9.1515 C   0  0  0  0  0  0  0  0  0  0  0  0
   25.5046  -19.8611   -7.9230 N   0  0  0  0  0  0  0  0  0  0  0  0
   26.8157  -20.1452   -7.8805 C   0  0  0  0  0  0  0  0  0  0  0  0
   27.6890  -20.0547   -6.8231 C   0  0  0  0  0  0  0  0  0  0  0  0
   29.0081  -20.4017   -7.0252 C   0  0  0  0  0  0  0  0  0  0  0  0
   29.4105  -20.8270   -8.2730 C   0  0  0  0  0  0  0  0  0  0  0  0
   28.5261  -20.9094   -9.3061 C   0  0  0  0  0  0  0  0  0  0  0  0
   27.1951  -20.5755   -9.1611 C   0  0  0  0  0  0  0  0  0  0  0  0
   26.4427  -20.5634  -13.7062 C   0  0  0  0  0  0  0  0  0  0  0  0
   25.4805  -20.3759  -14.4945 O   0  0  0  0  0  0  0  0  0  0  0  0
   27.4909  -21.4282  -14.2303 N   0  0  0  0  0  0  0  0  0  0  0  0
   27.5510  -21.8769  -15.5839 C   0  0  1  0  0  0  0  0  0  0  0  0
   28.7795  -22.5405  -16.0606 C   0  0  0  0  0  0  0  0  0  0  0  0
   28.8444  -22.9951  -17.4562 C   0  0  0  0  0  0  0  0  0  0  0  0
   30.1209  -23.6212  -17.9139 C   0  0  0  0  0  0  0  0  0  0  0  0
   31.3035  -22.8056  -17.3397 C   0  0  0  0  0  0  0  0  0  0  0  0
   32.5266  -23.4382  -17.7698 N   0  0  0  0  0  0  0  0  0  0  0  0
   26.3789  -22.8365  -15.7431 C   0  0  0  0  0  0  0  0  0  0  0  0
   26.2409  -23.8576  -15.0315 O   0  0  0  0  0  0  0  0  0  0  0  0
   22.0949  -25.0475  -17.2381 N   0  0  0  0  0  0  0  0  0  0  0  0
   21.8594  -23.7242  -16.7493 C   0  0  0  0  0  0  0  0  0  0  0  0
   20.6736  -23.3882  -16.5253 O   0  0  0  0  0  0  0  0  0  0  0  0
   23.0032  -22.8180  -16.5268 C   0  0  0  0  0  0  0  0  0  0  0  0
   24.2766  -23.5597  -16.9024 C   0  0  2  0  0  0  0  0  0  0  0  0
   25.3742  -22.6124  -16.7180 N   0  0  0  0  0  0  0  0  0  0  0  0
   24.2402  -24.0645  -18.2921 C   0  0  0  0  0  0  0  0  0  0  0  0
   23.7836  -25.2089  -18.5367 O   0  0  0  0  0  0  0  0  0  0  0  0
   24.6953  -23.3229  -19.3770 O   0  0  0  0  0  0  0  0  0  0  0  0
  2  3  1  0
  2  1  1  6
  3  4  1  0
  4  5  2  0
  6  5  1  0
  7  6  1  0
  8  7  2  0
  9  8  1  0
 10  9  2  0
 10 11  1  0
 11 12  2  0
 12  7  1  0
 12  4  1  0
 13  2  1  0
 13 14  2  0
 15 13  1  0
 16 22  1  0
 16 15  1  0
 16 17  1  1
 18 17  1  0
 19 18  1  0
 20 21  1  0
 20 19  1  0
 22 29  1  0
 23 22  2  0
 24 25  1  0
 25 26  2  0
 27 25  1  0
 28 27  1  6
 28 30  1  0
 29 28  1  0
 30 31  2  0
 30 32  1  0
M  END
$$$$
