WKN.pdb
     RDKit          3D

 32 33  0  0  1  0  0  0  0  0999 V2000
   24.6914  -19.2348   -9.1167 N   0  0  0  0  0  0  0  0  0  0  0  0
   25.8692  -19.8277   -9.7058 C   0  0  1  0  0  0  0  0  0  0  0  0
   26.3821  -20.9794   -8.8801 C   0  0  0  0  0  0  0  0  0  0  0  0
   26.5959  -20.7455   -7.4748 C   0  0  0  0  0  0  0  0  0  0  0  0
   25.6556  -21.0287   -6.4731 C   0  0  0  0  0  0  0  0  0  0  0  0
   26.1812  -20.7186   -5.2876 N   0  0  0  0  0  0  0  0  0  0  0  0
   27.4242  -20.2412   -5.4563 C   0  0  0  0  0  0  0  0  0  0  0  0
   28.3201  -19.8014   -4.5114 C   0  0  0  0  0  0  0  0  0  0  0  0
   29.5518  -19.3457   -4.9316 C   0  0  0  0  0  0  0  0  0  0  0  0
   29.8477  -19.3447   -6.2778 C   0  0  0  0  0  0  0  0  0  0  0  0
   28.9434  -19.7866   -7.1961 C   0  0  0  0  0  0  0  0  0  0  0  0
   27.6969  -20.2535   -6.8327 C   0  0  0  0  0  0  0  0  0  0  0  0
   25.7398  -20.2189  -11.1031 C   0  0  0  0  0  0  0  0  0  0  0  0
   24.6444  -20.4817  -11.6630 O   0  0  0  0  0  0  0  0  0  0  0  0
   26.9029  -20.3321  -11.9723 N   0  0  0  0  0  0  0  0  0  0  0  0
   26.8419  -20.2698  -13.3970 C   0  0  1  0  0  0  0  0  0  0  0  0
   28.0861  -20.0321  -14.1537 C   0  0  0  0  0  0  0  0  0  0  0  0
   28.0296  -20.0059  -15.6215 C   0  0  0  0  0  0  0  0  0  0  0  0
   29.0284  -20.8355  -16.3602 C   0  0  0  0  0  0  0  0  0  0  0  0
   28.8941  -20.5380  -17.8724 C   0  0  0  0  0  0  0  0  0  0  0  0
   29.9254  -21.2752  -18.5610 N   0  0  0  0  0  0  0  0  0  0  0  0
   26.2462  -21.6019  -13.8338 C   0  0  0  0  0  0  0  0  0  0  0  0
   26.6766  -22.7024  -13.4191 O   0  0  0  0  0  0  0  0  0  0  0  0
   23.5933  -25.8784  -14.0518 N   0  0  0  0  0  0  0  0  0  0  0  0
   22.9945  -24.6144  -14.3506 C   0  0  0  0  0  0  0  0  0  0  0  0
   21.8861  -24.6181  -14.9340 O   0  0  0  0  0  0  0  0  0  0  0  0
   23.6911  -23.3715  -13.9642 C   0  0  0  0  0  0  0  0  0  0  0  0
   24.5637  -22.9342  -15.1304 C   0  0  2  0  0  0  0  0  0  0  0  0
   25.1593  -21.6571  -14.7423 N   0  0  0  0  0  0  0  0  0  0  0  0
   23.7932  -22.7999  -16.3856 C   0  0  0  0  0  0  0  0  0  0  0  0
   23.1634  -21.7408  -16.6299 O   0  0  0  0  0  0  0  0  0  0  0  0
   23.7238  -23.8084  -17.3405 O   0  0  0  0  0  0  0  0  0  0  0  0
  2  3  1  0
  2  1  1  1
  3  4  1  0
  4  5  2  0
  6  5  1  0
  7  6  1  0
  8  7  2  0
  9  8  1  0
 10  9  2  0
 10 11  1  0
 11 12  2  0
 12  7  1  0
 12  4  1  0
 13  2  1  0
 13 14  2  0
 15 13  1  0
 16 22  1  0
 16 15  1  0
 16 17  1  6
 18 17  1  0
 19 18  1  0
 20 21  1  0
 20 19  1  0
 22 29  1  0
 23 22  2  0
 24 25  1  0
 25 26  2  0
 27 25  1  0
 28 27  1  1
 28 30  1  0
 29 28  1  0
 30 31  2  0
 30 32  1  0
M  END
$$$$
