WKN.pdb
     RDKit          3D

 32 33  0  0  1  0  0  0  0  0999 V2000
   25.3766  -29.3269  -21.2159 N   0  0  0  0  0  0  0  0  0  0  0  0
   25.1456  -29.7023  -19.8406 C   0  0  1  0  0  0  0  0  0  0  0  0
   23.7416  -30.2089  -19.6327 C   0  0  0  0  0  0  0  0  0  0  0  0
   22.6621  -29.2784  -19.8426 C   0  0  0  0  0  0  0  0  0  0  0  0
   22.0396  -29.0539  -21.0796 C   0  0  0  0  0  0  0  0  0  0  0  0
   21.0679  -28.1555  -20.9171 N   0  0  0  0  0  0  0  0  0  0  0  0
   21.0184  -27.7723  -19.6317 C   0  0  0  0  0  0  0  0  0  0  0  0
   20.1778  -26.8679  -19.0280 C   0  0  0  0  0  0  0  0  0  0  0  0
   20.3223  -26.6325  -17.6772 C   0  0  0  0  0  0  0  0  0  0  0  0
   21.2985  -27.3067  -16.9753 C   0  0  0  0  0  0  0  0  0  0  0  0
   22.1196  -28.1996  -17.5954 C   0  0  0  0  0  0  0  0  0  0  0  0
   22.0199  -28.4744  -18.9439 C   0  0  0  0  0  0  0  0  0  0  0  0
   26.1133  -30.6332  -19.2758 C   0  0  0  0  0  0  0  0  0  0  0  0
   26.5114  -31.6753  -19.8573 O   0  0  0  0  0  0  0  0  0  0  0  0
   26.7051  -30.4125  -17.9634 N   0  0  0  0  0  0  0  0  0  0  0  0
   27.6513  -31.2929  -17.3578 C   0  0  1  0  0  0  0  0  0  0  0  0
   28.8741  -30.7228  -16.7604 C   0  0  0  0  0  0  0  0  0  0  0  0
   29.9203  -30.1994  -17.6492 C   0  0  0  0  0  0  0  0  0  0  0  0
   30.0220  -28.7156  -17.7876 C   0  0  0  0  0  0  0  0  0  0  0  0
   31.1101  -28.3922  -18.8388 C   0  0  0  0  0  0  0  0  0  0  0  0
   31.1265  -26.9627  -19.0322 N   0  0  0  0  0  0  0  0  0  0  0  0
   26.8762  -32.0373  -16.2784 C   0  0  0  0  0  0  0  0  0  0  0  0
   26.0339  -31.4743  -15.5423 O   0  0  0  0  0  0  0  0  0  0  0  0
   26.3699  -32.9904  -11.8937 N   0  0  0  0  0  0  0  0  0  0  0  0
   27.1649  -33.0826  -13.0789 C   0  0  0  0  0  0  0  0  0  0  0  0
   27.8340  -32.0772  -13.4114 O   0  0  0  0  0  0  0  0  0  0  0  0
   27.1710  -34.3393  -13.8533 C   0  0  0  0  0  0  0  0  0  0  0  0
   26.2785  -34.1515  -15.0702 C   0  0  2  0  0  0  0  0  0  0  0  0
   27.0748  -33.4233  -16.0560 N   0  0  0  0  0  0  0  0  0  0  0  0
   25.0370  -33.4167  -14.7447 C   0  0  0  0  0  0  0  0  0  0  0  0
   24.8502  -32.2601  -15.1981 O   0  0  0  0  0  0  0  0  0  0  0  0
   24.0334  -33.9481  -13.9420 O   0  0  0  0  0  0  0  0  0  0  0  0
  2  3  1  0
  2  1  1  6
  3  4  1  0
  4  5  2  0
  6  5  1  0
  7  6  1  0
  8  7  2  0
  9  8  1  0
 10  9  2  0
 10 11  1  0
 11 12  2  0
 12  7  1  0
 12  4  1  0
 13  2  1  0
 13 14  2  0
 15 13  1  0
 16 22  1  0
 16 15  1  0
 16 17  1  1
 18 17  1  0
 19 18  1  0
 20 21  1  0
 20 19  1  0
 22 29  1  0
 23 22  2  0
 24 25  1  0
 25 26  2  0
 27 25  1  0
 28 27  1  1
 28 30  1  0
 29 28  1  0
 30 31  2  0
 30 32  1  0
M  END
$$$$
