WKN.pdb
     RDKit          3D

 32 33  0  0  1  0  0  0  0  0999 V2000
   27.5867  -22.4613  -12.9759 N   0  0  0  0  0  0  0  0  0  0  0  0
   26.4058  -21.9203  -12.3446 C   0  0  1  0  0  0  0  0  0  0  0  0
   26.7052  -20.6334  -11.6196 C   0  0  0  0  0  0  0  0  0  0  0  0
   27.7209  -20.6673  -10.5987 C   0  0  0  0  0  0  0  0  0  0  0  0
   29.0916  -20.8275  -10.8507 C   0  0  0  0  0  0  0  0  0  0  0  0
   29.7510  -20.7875   -9.6925 N   0  0  0  0  0  0  0  0  0  0  0  0
   28.8822  -20.6106   -8.6848 C   0  0  0  0  0  0  0  0  0  0  0  0
   29.1264  -20.5159   -7.3356 C   0  0  0  0  0  0  0  0  0  0  0  0
   28.0579  -20.3376   -6.4826 C   0  0  0  0  0  0  0  0  0  0  0  0
   26.7842  -20.2593   -7.0036 C   0  0  0  0  0  0  0  0  0  0  0  0
   26.5669  -20.3549   -8.3451 C   0  0  0  0  0  0  0  0  0  0  0  0
   27.5979  -20.5333   -9.2447 C   0  0  0  0  0  0  0  0  0  0  0  0
   25.2497  -21.7585  -13.2159 C   0  0  0  0  0  0  0  0  0  0  0  0
   25.2062  -20.9623  -14.1889 O   0  0  0  0  0  0  0  0  0  0  0  0
   24.0321  -22.5323  -13.0161 N   0  0  0  0  0  0  0  0  0  0  0  0
   22.9949  -22.6513  -13.9894 C   0  0  1  0  0  0  0  0  0  0  0  0
   22.5253  -23.9975  -14.3692 C   0  0  0  0  0  0  0  0  0  0  0  0
   23.5013  -24.9735  -14.8724 C   0  0  0  0  0  0  0  0  0  0  0  0
   24.2648  -24.6066  -16.1027 C   0  0  0  0  0  0  0  0  0  0  0  0
   25.1882  -25.7889  -16.4806 C   0  0  0  0  0  0  0  0  0  0  0  0
   26.0125  -25.3694  -17.5877 N   0  0  0  0  0  0  0  0  0  0  0  0
   21.8211  -21.8602  -13.4268 C   0  0  0  0  0  0  0  0  0  0  0  0
   21.3801  -22.0386  -12.2684 O   0  0  0  0  0  0  0  0  0  0  0  0
   19.5034  -18.4951  -11.7043 N   0  0  0  0  0  0  0  0  0  0  0  0
   19.8107  -17.8847  -12.9606 C   0  0  0  0  0  0  0  0  0  0  0  0
   19.8289  -16.6333  -13.0114 O   0  0  0  0  0  0  0  0  0  0  0  0
   20.0938  -18.7371  -14.1321 C   0  0  0  0  0  0  0  0  0  0  0  0
   19.9709  -20.1907  -13.7024 C   0  0  2  0  0  0  0  0  0  0  0  0
   21.1658  -20.8694  -14.2004 N   0  0  0  0  0  0  0  0  0  0  0  0
   18.7430  -20.8267  -14.2268 C   0  0  0  0  0  0  0  0  0  0  0  0
   18.6851  -21.1946  -15.4265 O   0  0  0  0  0  0  0  0  0  0  0  0
   17.6145  -21.0484  -13.4449 O   0  0  0  0  0  0  0  0  0  0  0  0
  2  3  1  0
  2  1  1  6
  3  4  1  0
  4  5  2  0
  6  5  1  0
  7  6  1  0
  8  7  2  0
  9  8  1  0
 10  9  2  0
 10 11  1  0
 11 12  2  0
 12  7  1  0
 12  4  1  0
 13  2  1  0
 13 14  2  0
 15 13  1  0
 16 22  1  0
 16 15  1  0
 16 17  1  1
 18 17  1  0
 19 18  1  0
 20 21  1  0
 20 19  1  0
 22 29  1  0
 23 22  2  0
 24 25  1  0
 25 26  2  0
 27 25  1  0
 28 27  1  6
 28 30  1  0
 29 28  1  0
 30 31  2  0
 30 32  1  0
M  END
$$$$
