WKN.pdb
     RDKit          3D

 32 33  0  0  1  0  0  0  0  0999 V2000
   27.5662  -19.6228  -17.3689 N   0  0  0  0  0  0  0  0  0  0  0  0
   26.7085  -18.9481  -16.4229 C   0  0  1  0  0  0  0  0  0  0  0  0
   25.7299  -18.0349  -17.1155 C   0  0  0  0  0  0  0  0  0  0  0  0
   26.2179  -16.7556  -17.5631 C   0  0  0  0  0  0  0  0  0  0  0  0
   26.3181  -16.3732  -18.9091 C   0  0  0  0  0  0  0  0  0  0  0  0
   26.7798  -15.1239  -18.9697 N   0  0  0  0  0  0  0  0  0  0  0  0
   26.9924  -14.6609  -17.7280 C   0  0  0  0  0  0  0  0  0  0  0  0
   27.4648  -13.4335  -17.3290 C   0  0  0  0  0  0  0  0  0  0  0  0
   27.6051  -13.1872  -15.9796 C   0  0  0  0  0  0  0  0  0  0  0  0
   27.2691  -14.1719  -15.0754 C   0  0  0  0  0  0  0  0  0  0  0  0
   26.8018  -15.3810  -15.4949 C   0  0  0  0  0  0  0  0  0  0  0  0
   26.6413  -15.6820  -16.8319 C   0  0  0  0  0  0  0  0  0  0  0  0
   26.0174  -19.8143  -15.4774 C   0  0  0  0  0  0  0  0  0  0  0  0
   25.4676  -20.9018  -15.7895 O   0  0  0  0  0  0  0  0  0  0  0  0
   25.9164  -19.4719  -14.0654 N   0  0  0  0  0  0  0  0  0  0  0  0
   25.2049  -20.2523  -13.1052 C   0  0  1  0  0  0  0  0  0  0  0  0
   25.5088  -20.0703  -11.6729 C   0  0  0  0  0  0  0  0  0  0  0  0
   24.8418  -20.9356  -10.6907 C   0  0  0  0  0  0  0  0  0  0  0  0
   25.1623  -20.7094   -9.2494 C   0  0  0  0  0  0  0  0  0  0  0  0
   24.5479  -21.8624   -8.4210 C   0  0  0  0  0  0  0  0  0  0  0  0
   24.8736  -21.6327   -7.0345 N   0  0  0  0  0  0  0  0  0  0  0  0
   23.7332  -19.9378  -13.3406 C   0  0  0  0  0  0  0  0  0  0  0  0
   23.3338  -18.8071  -13.7015 O   0  0  0  0  0  0  0  0  0  0  0  0
   19.1840  -21.0664  -16.2671 N   0  0  0  0  0  0  0  0  0  0  0  0
   19.8327  -20.2120  -15.3212 C   0  0  0  0  0  0  0  0  0  0  0  0
   19.1624  -19.2778  -14.8243 O   0  0  0  0  0  0  0  0  0  0  0  0
   21.2444  -20.4597  -14.9677 C   0  0  0  0  0  0  0  0  0  0  0  0
   21.3309  -20.6459  -13.4609 C   0  0  2  0  0  0  0  0  0  0  0  0
   22.7335  -20.9269  -13.1609 N   0  0  0  0  0  0  0  0  0  0  0  0
   20.4573  -21.7388  -12.9817 C   0  0  0  0  0  0  0  0  0  0  0  0
   19.3423  -21.4762  -12.4661 O   0  0  0  0  0  0  0  0  0  0  0  0
   20.8090  -23.0812  -13.0720 O   0  0  0  0  0  0  0  0  0  0  0  0
  2  3  1  0
  2  1  1  6
  3  4  1  0
  4  5  2  0
  6  5  1  0
  7  6  1  0
  8  7  2  0
  9  8  1  0
 10  9  2  0
 10 11  1  0
 11 12  2  0
 12  7  1  0
 12  4  1  0
 13  2  1  0
 13 14  2  0
 15 13  1  0
 16 22  1  0
 16 15  1  0
 16 17  1  1
 18 17  1  0
 19 18  1  0
 20 21  1  0
 20 19  1  0
 22 29  1  0
 23 22  2  0
 24 25  1  0
 25 26  2  0
 27 25  1  0
 28 27  1  6
 28 30  1  0
 29 28  1  0
 30 31  2  0
 30 32  1  0
M  END
$$$$
