WKN.pdb
     RDKit          3D

 32 33  0  0  1  0  0  0  0  0999 V2000
   28.2152  -21.8029  -10.2752 N   0  0  0  0  0  0  0  0  0  0  0  0
   26.9079  -21.2402  -10.0296 C   0  0  1  0  0  0  0  0  0  0  0  0
   26.9884  -20.0074   -9.1665 C   0  0  0  0  0  0  0  0  0  0  0  0
   27.9260  -20.0225   -8.0729 C   0  0  0  0  0  0  0  0  0  0  0  0
   29.3179  -20.1105   -8.2246 C   0  0  0  0  0  0  0  0  0  0  0  0
   29.8867  -20.0726   -7.0193 N   0  0  0  0  0  0  0  0  0  0  0  0
   28.9378  -19.9659   -6.0760 C   0  0  0  0  0  0  0  0  0  0  0  0
   29.0762  -19.8986   -4.7103 C   0  0  0  0  0  0  0  0  0  0  0  0
   27.9399  -19.7955   -3.9362 C   0  0  0  0  0  0  0  0  0  0  0  0
   26.7060  -19.7625   -4.5497 C   0  0  0  0  0  0  0  0  0  0  0  0
   26.5939  -19.8298   -5.9059 C   0  0  0  0  0  0  0  0  0  0  0  0
   27.6963  -19.9334   -6.7291 C   0  0  0  0  0  0  0  0  0  0  0  0
   26.1059  -20.9805  -11.2176 C   0  0  0  0  0  0  0  0  0  0  0  0
   26.4751  -20.2472  -12.1708 O   0  0  0  0  0  0  0  0  0  0  0  0
   24.7860  -21.5717  -11.3888 N   0  0  0  0  0  0  0  0  0  0  0  0
   24.0837  -21.6068  -12.6309 C   0  0  1  0  0  0  0  0  0  0  0  0
   24.0312  -22.8743  -13.3842 C   0  0  0  0  0  0  0  0  0  0  0  0
   25.1274  -23.1966  -14.3078 C   0  0  0  0  0  0  0  0  0  0  0  0
   24.9975  -24.4465  -15.1153 C   0  0  0  0  0  0  0  0  0  0  0  0
   26.1865  -24.5215  -16.1022 C   0  0  0  0  0  0  0  0  0  0  0  0
   26.0732  -25.7575  -16.8374 N   0  0  0  0  0  0  0  0  0  0  0  0
   22.6621  -21.1691  -12.3029 C   0  0  0  0  0  0  0  0  0  0  0  0
   22.0673  -21.5315  -11.2621 O   0  0  0  0  0  0  0  0  0  0  0  0
   20.4250  -17.8655  -11.3007 N   0  0  0  0  0  0  0  0  0  0  0  0
   20.2647  -17.5812  -12.6931 C   0  0  0  0  0  0  0  0  0  0  0  0
   20.1377  -16.3820  -13.0321 O   0  0  0  0  0  0  0  0  0  0  0  0
   20.2580  -18.6923  -13.6650 C   0  0  0  0  0  0  0  0  0  0  0  0
   20.5384  -19.9834  -12.9120 C   0  0  2  0  0  0  0  0  0  0  0  0
   21.9373  -20.3167  -13.1735 N   0  0  0  0  0  0  0  0  0  0  0  0
   19.6439  -21.0826  -13.3347 C   0  0  0  0  0  0  0  0  0  0  0  0
   18.4352  -21.0804  -12.9926 O   0  0  0  0  0  0  0  0  0  0  0  0
   20.0760  -22.1508  -14.1132 O   0  0  0  0  0  0  0  0  0  0  0  0
  2  3  1  0
  2  1  1  6
  3  4  1  0
  4  5  2  0
  6  5  1  0
  7  6  1  0
  8  7  2  0
  9  8  1  0
 10  9  2  0
 10 11  1  0
 11 12  2  0
 12  7  1  0
 12  4  1  0
 13  2  1  0
 13 14  2  0
 15 13  1  0
 16 22  1  0
 16 15  1  0
 16 17  1  1
 18 17  1  0
 19 18  1  0
 20 21  1  0
 20 19  1  0
 22 29  1  0
 23 22  2  0
 24 25  1  0
 25 26  2  0
 27 25  1  0
 28 27  1  6
 28 30  1  0
 29 28  1  0
 30 31  2  0
 30 32  1  0
M  END
$$$$
