WKN.pdb
     RDKit          3D

 32 33  0  0  1  0  0  0  0  0999 V2000
   25.8389  -18.8555  -11.1167 N   0  0  0  0  0  0  0  0  0  0  0  0
   26.1794  -20.1911  -11.5483 C   0  0  1  0  0  0  0  0  0  0  0  0
   25.9927  -21.1958  -10.4407 C   0  0  0  0  0  0  0  0  0  0  0  0
   26.3946  -20.8040   -9.1140 C   0  0  0  0  0  0  0  0  0  0  0  0
   25.5090  -20.3858   -8.1096 C   0  0  0  0  0  0  0  0  0  0  0  0
   26.2044  -20.1241   -7.0025 N   0  0  0  0  0  0  0  0  0  0  0  0
   27.5090  -20.3469   -7.2261 C   0  0  0  0  0  0  0  0  0  0  0  0
   28.5731  -20.2021   -6.3685 C   0  0  0  0  0  0  0  0  0  0  0  0
   29.8389  -20.4905   -6.8329 C   0  0  0  0  0  0  0  0  0  0  0  0
   29.9999  -20.9135   -8.1349 C   0  0  0  0  0  0  0  0  0  0  0  0
   28.9295  -21.0504   -8.9665 C   0  0  0  0  0  0  0  0  0  0  0  0
   27.6411  -20.7763   -8.5554 C   0  0  0  0  0  0  0  0  0  0  0  0
   25.5172  -20.6428  -12.7646 C   0  0  0  0  0  0  0  0  0  0  0  0
   24.3448  -20.3228  -13.0893 O   0  0  0  0  0  0  0  0  0  0  0  0
   26.1881  -21.5178  -13.7161 N   0  0  0  0  0  0  0  0  0  0  0  0
   25.6689  -21.8392  -15.0061 C   0  0  1  0  0  0  0  0  0  0  0  0
   26.5563  -22.4886  -15.9899 C   0  0  0  0  0  0  0  0  0  0  0  0
   27.7817  -21.7938  -16.4071 C   0  0  0  0  0  0  0  0  0  0  0  0
   28.7110  -22.5301  -17.3156 C   0  0  0  0  0  0  0  0  0  0  0  0
   29.9302  -21.6252  -17.6123 C   0  0  0  0  0  0  0  0  0  0  0  0
   30.8778  -22.3976  -18.3781 N   0  0  0  0  0  0  0  0  0  0  0  0
   24.4741  -22.7473  -14.7452 C   0  0  0  0  0  0  0  0  0  0  0  0
   24.5367  -23.7455  -13.9917 O   0  0  0  0  0  0  0  0  0  0  0  0
   20.2101  -24.8100  -13.3490 N   0  0  0  0  0  0  0  0  0  0  0  0
   20.1037  -23.4056  -13.5976 C   0  0  0  0  0  0  0  0  0  0  0  0
   18.9647  -22.8879  -13.5379 O   0  0  0  0  0  0  0  0  0  0  0  0
   21.3202  -22.6288  -13.9073 C   0  0  0  0  0  0  0  0  0  0  0  0
   22.0528  -23.3265  -15.0427 C   0  0  2  0  0  0  0  0  0  0  0  0
   23.2170  -22.4985  -15.3515 N   0  0  0  0  0  0  0  0  0  0  0  0
   21.1965  -23.5027  -16.2356 C   0  0  0  0  0  0  0  0  0  0  0  0
   20.6630  -24.6152  -16.4715 O   0  0  0  0  0  0  0  0  0  0  0  0
   20.9392  -22.4768  -17.1386 O   0  0  0  0  0  0  0  0  0  0  0  0
  2  3  1  0
  2  1  1  1
  3  4  1  0
  4  5  2  0
  6  5  1  0
  7  6  1  0
  8  7  2  0
  9  8  1  0
 10  9  2  0
 10 11  1  0
 11 12  2  0
 12  7  1  0
 12  4  1  0
 13  2  1  0
 13 14  2  0
 15 13  1  0
 16 22  1  0
 16 15  1  0
 16 17  1  6
 18 17  1  0
 19 18  1  0
 20 21  1  0
 20 19  1  0
 22 29  1  0
 23 22  2  0
 24 25  1  0
 25 26  2  0
 27 25  1  0
 28 27  1  1
 28 30  1  0
 29 28  1  0
 30 31  2  0
 30 32  1  0
M  END
$$$$
