WKN.pdb
     RDKit          3D

 32 33  0  0  1  0  0  0  0  0999 V2000
   27.5756  -21.7707  -10.6391 N   0  0  0  0  0  0  0  0  0  0  0  0
   26.7394  -21.1147   -9.6613 C   0  0  1  0  0  0  0  0  0  0  0  0
   27.3569  -19.8276   -9.1781 C   0  0  0  0  0  0  0  0  0  0  0  0
   28.4839  -19.9256   -8.2863 C   0  0  0  0  0  0  0  0  0  0  0  0
   29.7776  -20.2956   -8.6831 C   0  0  0  0  0  0  0  0  0  0  0  0
   30.5818  -20.2601   -7.6202 N   0  0  0  0  0  0  0  0  0  0  0  0
   29.8821  -19.8863   -6.5376 C   0  0  0  0  0  0  0  0  0  0  0  0
   30.3102  -19.7239   -5.2417 C   0  0  0  0  0  0  0  0  0  0  0  0
   29.3942  -19.3325   -4.2883 C   0  0  0  0  0  0  0  0  0  0  0  0
   28.0845  -19.1160   -4.6595 C   0  0  0  0  0  0  0  0  0  0  0  0
   27.6837  -19.2826   -5.9509 C   0  0  0  0  0  0  0  0  0  0  0  0
   28.5568  -19.6724   -6.9458 C   0  0  0  0  0  0  0  0  0  0  0  0
   25.3570  -20.8975  -10.0660 C   0  0  0  0  0  0  0  0  0  0  0  0
   24.9970  -20.6649  -11.2487 O   0  0  0  0  0  0  0  0  0  0  0  0
   24.2663  -20.9395   -9.1017 N   0  0  0  0  0  0  0  0  0  0  0  0
   22.9562  -21.4203   -9.4011 C   0  0  1  0  0  0  0  0  0  0  0  0
   22.1809  -22.0858   -8.3367 C   0  0  0  0  0  0  0  0  0  0  0  0
   20.8460  -22.6110   -8.6541 C   0  0  0  0  0  0  0  0  0  0  0  0
   20.0952  -23.2841   -7.5521 C   0  0  0  0  0  0  0  0  0  0  0  0
   18.7380  -23.7755   -8.1089 C   0  0  0  0  0  0  0  0  0  0  0  0
   17.9815  -24.3230   -7.0094 N   0  0  0  0  0  0  0  0  0  0  0  0
   22.1811  -20.2026   -9.8875 C   0  0  0  0  0  0  0  0  0  0  0  0
   22.5497  -19.0292   -9.6516 O   0  0  0  0  0  0  0  0  0  0  0  0
   20.6002  -18.0710  -14.0535 N   0  0  0  0  0  0  0  0  0  0  0  0
   21.7325  -18.9407  -13.9699 C   0  0  0  0  0  0  0  0  0  0  0  0
   22.5358  -18.9454  -14.9310 O   0  0  0  0  0  0  0  0  0  0  0  0
   21.9126  -19.7852  -12.7726 C   0  0  0  0  0  0  0  0  0  0  0  0
   20.7470  -19.5279  -11.8304 C   0  0  2  0  0  0  0  0  0  0  0  0
   20.9898  -20.3445  -10.6428 N   0  0  0  0  0  0  0  0  0  0  0  0
   19.4452  -19.8634  -12.4470 C   0  0  0  0  0  0  0  0  0  0  0  0
   19.0530  -21.0561  -12.4850 O   0  0  0  0  0  0  0  0  0  0  0  0
   18.6043  -18.9058  -13.0037 O   0  0  0  0  0  0  0  0  0  0  0  0
  2  3  1  0
  2  1  1  6
  3  4  1  0
  4  5  2  0
  6  5  1  0
  7  6  1  0
  8  7  2  0
  9  8  1  0
 10  9  2  0
 10 11  1  0
 11 12  2  0
 12  7  1  0
 12  4  1  0
 13  2  1  0
 13 14  2  0
 15 13  1  0
 16 22  1  0
 16 15  1  0
 16 17  1  1
 18 17  1  0
 19 18  1  0
 20 21  1  0
 20 19  1  0
 22 29  1  0
 23 22  2  0
 24 25  1  0
 25 26  2  0
 27 25  1  0
 28 27  1  6
 28 30  1  0
 29 28  1  0
 30 31  2  0
 30 32  1  0
M  END
$$$$
