WKN.pdb
     RDKit          3D

 32 33  0  0  1  0  0  0  0  0999 V2000
   27.4022  -21.9767  -10.3497 N   0  0  0  0  0  0  0  0  0  0  0  0
   26.4962  -20.9981   -9.7951 C   0  0  1  0  0  0  0  0  0  0  0  0
   27.2401  -19.8587   -9.1474 C   0  0  0  0  0  0  0  0  0  0  0  0
   28.2909  -20.1932   -8.2206 C   0  0  0  0  0  0  0  0  0  0  0  0
   29.5096  -20.7845   -8.5853 C   0  0  0  0  0  0  0  0  0  0  0  0
   30.2609  -20.9334   -7.4939 N   0  0  0  0  0  0  0  0  0  0  0  0
   29.5970  -20.4709   -6.4229 C   0  0  0  0  0  0  0  0  0  0  0  0
   29.9925  -20.4328   -5.1073 C   0  0  0  0  0  0  0  0  0  0  0  0
   29.1250  -19.9086   -4.1724 C   0  0  0  0  0  0  0  0  0  0  0  0
   27.8947  -19.4405   -4.5812 C   0  0  0  0  0  0  0  0  0  0  0  0
   27.5250  -19.4880   -5.8916 C   0  0  0  0  0  0  0  0  0  0  0  0
   28.3524  -20.0012   -6.8693 C   0  0  0  0  0  0  0  0  0  0  0  0
   25.4849  -20.4917  -10.7130 C   0  0  0  0  0  0  0  0  0  0  0  0
   24.5888  -19.6697  -10.3909 O   0  0  0  0  0  0  0  0  0  0  0  0
   25.4436  -20.9120  -12.1069 N   0  0  0  0  0  0  0  0  0  0  0  0
   24.5009  -20.4212  -13.0595 C   0  0  1  0  0  0  0  0  0  0  0  0
   24.8472  -20.4664  -14.4930 C   0  0  0  0  0  0  0  0  0  0  0  0
   23.8849  -19.9432  -15.4722 C   0  0  0  0  0  0  0  0  0  0  0  0
   24.0692  -18.5323  -15.9269 C   0  0  0  0  0  0  0  0  0  0  0  0
   22.9537  -18.1925  -16.9435 C   0  0  0  0  0  0  0  0  0  0  0  0
   23.0762  -16.7959  -17.2835 N   0  0  0  0  0  0  0  0  0  0  0  0
   23.2354  -21.2379  -12.8322 C   0  0  0  0  0  0  0  0  0  0  0  0
   23.2496  -22.4836  -12.7047 O   0  0  0  0  0  0  0  0  0  0  0  0
   18.8108  -22.5558  -10.0972 N   0  0  0  0  0  0  0  0  0  0  0  0
   18.8154  -21.4817  -11.0416 C   0  0  0  0  0  0  0  0  0  0  0  0
   17.7355  -21.2025  -11.6116 O   0  0  0  0  0  0  0  0  0  0  0  0
   20.0708  -20.7507  -11.3038 C   0  0  0  0  0  0  0  0  0  0  0  0
   20.7554  -21.3962  -12.4985 C   0  0  2  0  0  0  0  0  0  0  0  0
   21.9645  -20.6149  -12.7515 N   0  0  0  0  0  0  0  0  0  0  0  0
   19.8841  -21.4260  -13.6931 C   0  0  0  0  0  0  0  0  0  0  0  0
   19.8475  -20.4418  -14.4729 O   0  0  0  0  0  0  0  0  0  0  0  0
   19.0789  -22.5136  -14.0135 O   0  0  0  0  0  0  0  0  0  0  0  0
  2  3  1  0
  2  1  1  6
  3  4  1  0
  4  5  2  0
  6  5  1  0
  7  6  1  0
  8  7  2  0
  9  8  1  0
 10  9  2  0
 10 11  1  0
 11 12  2  0
 12  7  1  0
 12  4  1  0
 13  2  1  0
 13 14  2  0
 15 13  1  0
 16 22  1  0
 16 15  1  0
 16 17  1  6
 18 17  1  0
 19 18  1  0
 20 21  1  0
 20 19  1  0
 22 29  1  0
 23 22  2  0
 24 25  1  0
 25 26  2  0
 27 25  1  0
 28 27  1  1
 28 30  1  0
 29 28  1  0
 30 31  2  0
 30 32  1  0
M  END
$$$$
