WKN.pdb
     RDKit          3D

 32 33  0  0  1  0  0  0  0  0999 V2000
   18.9467  -10.2890  -19.2719 N   0  0  0  0  0  0  0  0  0  0  0  0
   18.8938   -9.9682  -17.8647 C   0  0  1  0  0  0  0  0  0  0  0  0
   20.0917  -10.5094  -17.1275 C   0  0  0  0  0  0  0  0  0  0  0  0
   20.4164  -11.8998  -17.3183 C   0  0  0  0  0  0  0  0  0  0  0  0
   21.6214  -12.3633  -17.8671 C   0  0  0  0  0  0  0  0  0  0  0  0
   21.6068  -13.6965  -17.8764 N   0  0  0  0  0  0  0  0  0  0  0  0
   20.4485  -14.1385  -17.3619 C   0  0  0  0  0  0  0  0  0  0  0  0
   20.0144  -15.4306  -17.1865 C   0  0  0  0  0  0  0  0  0  0  0  0
   18.7682  -15.6389  -16.6344 C   0  0  0  0  0  0  0  0  0  0  0  0
   17.9988  -14.5527  -16.2762 C   0  0  0  0  0  0  0  0  0  0  0  0
   18.4510  -13.2806  -16.4590 C   0  0  0  0  0  0  0  0  0  0  0  0
   19.6891  -13.0135  -17.0062 C   0  0  0  0  0  0  0  0  0  0  0  0
   18.6952   -8.5594  -17.5518 C   0  0  0  0  0  0  0  0  0  0  0  0
   19.3797   -7.6250  -18.0425 O   0  0  0  0  0  0  0  0  0  0  0  0
   17.6587   -8.1245  -16.6257 N   0  0  0  0  0  0  0  0  0  0  0  0
   17.3576   -6.7564  -16.3522 C   0  0  1  0  0  0  0  0  0  0  0  0
   15.9942   -6.4006  -15.9145 C   0  0  0  0  0  0  0  0  0  0  0  0
   14.8499   -6.8645  -16.7105 C   0  0  0  0  0  0  0  0  0  0  0  0
   13.4871   -6.4633  -16.2491 C   0  0  0  0  0  0  0  0  0  0  0  0
   12.4379   -7.1521  -17.1536 C   0  0  0  0  0  0  0  0  0  0  0  0
   11.1330   -6.6894  -16.7481 N   0  0  0  0  0  0  0  0  0  0  0  0
   18.3475   -6.3332  -15.2746 C   0  0  0  0  0  0  0  0  0  0  0  0
   18.6462   -7.0686  -14.3060 O   0  0  0  0  0  0  0  0  0  0  0  0
   22.3302   -5.9135  -12.2745 N   0  0  0  0  0  0  0  0  0  0  0  0
   22.2231   -5.3403  -13.5804 C   0  0  0  0  0  0  0  0  0  0  0  0
   23.0949   -4.5096  -13.9254 O   0  0  0  0  0  0  0  0  0  0  0  0
   21.1095   -5.7439  -14.4614 C   0  0  0  0  0  0  0  0  0  0  0  0
   20.0078   -4.7025  -14.3414 C   0  0  2  0  0  0  0  0  0  0  0  0
   18.9869   -5.0688  -15.3211 N   0  0  0  0  0  0  0  0  0  0  0  0
   20.5062   -3.3312  -14.5829 C   0  0  0  0  0  0  0  0  0  0  0  0
   20.4829   -2.8455  -15.7411 O   0  0  0  0  0  0  0  0  0  0  0  0
   21.0139   -2.5232  -13.5712 O   0  0  0  0  0  0  0  0  0  0  0  0
  2  3  1  0
  2  1  1  6
  3  4  1  0
  4  5  2  0
  6  5  1  0
  7  6  1  0
  8  7  2  0
  9  8  1  0
 10  9  2  0
 10 11  1  0
 11 12  2  0
 12  7  1  0
 12  4  1  0
 13  2  1  0
 13 14  2  0
 15 13  1  0
 16 22  1  0
 16 15  1  0
 16 17  1  1
 18 17  1  0
 19 18  1  0
 20 21  1  0
 20 19  1  0
 22 29  1  0
 23 22  2  0
 24 25  1  0
 25 26  2  0
 27 25  1  0
 28 27  1  6
 28 30  1  0
 29 28  1  0
 30 31  2  0
 30 32  1  0
M  END
$$$$
