AKV.pdb
     RDKit          3D

 22 21  0  0  1  0  0  0  0  0999 V2000
   21.0223  -17.6328  -14.5566 C   0  0  0  0  0  0  0  0  0  0  0  0
   21.4604  -18.5651  -15.6718 C   0  0  2  0  0  0  0  0  0  0  0  0
   20.3924  -19.4359  -16.0802 N   0  0  0  0  0  0  0  0  0  0  0  0
   22.6317  -19.3703  -15.2772 C   0  0  0  0  0  0  0  0  0  0  0  0
   22.5076  -20.4000  -14.5471 O   0  0  0  0  0  0  0  0  0  0  0  0
   23.9144  -18.9993  -15.7124 N   0  0  0  0  0  0  0  0  0  0  0  0
   25.1081  -19.7356  -15.3127 C   0  0  1  0  0  0  0  0  0  0  0  0
   26.2349  -19.2428  -16.1651 C   0  0  0  0  0  0  0  0  0  0  0  0
   27.5479  -19.9119  -15.9534 C   0  0  0  0  0  0  0  0  0  0  0  0
   27.5441  -21.3152  -16.5280 C   0  0  0  0  0  0  0  0  0  0  0  0
   28.8850  -21.9894  -16.4182 C   0  0  0  0  0  0  0  0  0  0  0  0
   28.8450  -23.3305  -16.9863 N   0  0  0  0  0  0  0  0  0  0  0  0
   25.3942  -19.4977  -13.8620 C   0  0  0  0  0  0  0  0  0  0  0  0
   25.4398  -18.3391  -13.3823 O   0  0  0  0  0  0  0  0  0  0  0  0
   23.5778  -20.6236  -10.8647 C   0  0  0  0  0  0  0  0  0  0  0  0
   25.0233  -21.0224  -10.6475 C   0  0  2  0  0  0  0  0  0  0  0  0
   25.4136  -20.6109   -9.2460 C   0  0  0  0  0  0  0  0  0  0  0  0
   25.9477  -20.3122  -11.6073 C   0  0  2  0  0  0  0  0  0  0  0  0
   25.6239  -20.6050  -12.9847 N   0  0  0  0  0  0  0  0  0  0  0  0
   27.3298  -20.7620  -11.3111 C   0  0  0  0  0  0  0  0  0  0  0  0
   28.0894  -21.5536  -12.1356 O   0  0  0  0  0  0  0  0  0  0  0  0
   27.8522  -20.3975  -10.2294 O   0  0  0  0  0  0  0  0  0  0  0  0
  2  1  1  1
  2  4  1  0
  3  2  1  0
  4  6  1  0
  4  5  2  0
  6  7  1  0
  7 13  1  0
  7  8  1  6
  8  9  1  0
  9 10  1  0
 10 11  1  0
 11 12  1  0
 13 14  2  0
 16 15  1  6
 16 18  1  0
 16 17  1  0
 19 13  1  0
 18 19  1  6
 20 18  1  0
 20 21  1  0
 22 20  2  0
M  END
$$$$
