AKV.pdb
     RDKit          3D

 22 21  0  0  1  0  0  0  0  0999 V2000
   28.2728  -19.4235  -15.1842 C   0  0  0  0  0  0  0  0  0  0  0  0
   28.3438  -20.3512  -13.9845 C   0  0  2  0  0  0  0  0  0  0  0  0
   27.9102  -21.6799  -14.3198 N   0  0  0  0  0  0  0  0  0  0  0  0
   27.5440  -19.8401  -12.8553 C   0  0  0  0  0  0  0  0  0  0  0  0
   27.6568  -18.6410  -12.4575 O   0  0  0  0  0  0  0  0  0  0  0  0
   26.6366  -20.6885  -12.2000 N   0  0  0  0  0  0  0  0  0  0  0  0
   25.7587  -20.2081  -11.1393 C   0  0  1  0  0  0  0  0  0  0  0  0
   24.3740  -20.6668  -11.4729 C   0  0  0  0  0  0  0  0  0  0  0  0
   23.6703  -19.8880  -12.5287 C   0  0  0  0  0  0  0  0  0  0  0  0
   22.2721  -20.4262  -12.7632 C   0  0  0  0  0  0  0  0  0  0  0  0
   21.5696  -19.7362  -13.9012 C   0  0  0  0  0  0  0  0  0  0  0  0
   20.2269  -20.2699  -14.0884 N   0  0  0  0  0  0  0  0  0  0  0  0
   26.1999  -20.7620   -9.8197 C   0  0  0  0  0  0  0  0  0  0  0  0
   26.4792  -21.9770   -9.6770 O   0  0  0  0  0  0  0  0  0  0  0  0
   28.6761  -18.9131   -7.2059 C   0  0  0  0  0  0  0  0  0  0  0  0
   27.4379  -19.4858   -6.5466 C   0  0  2  0  0  0  0  0  0  0  0  0
   27.8713  -20.2065   -5.2902 C   0  0  0  0  0  0  0  0  0  0  0  0
   26.7474  -20.4917   -7.4363 C   0  0  2  0  0  0  0  0  0  0  0  0
   26.3123  -19.9017   -8.6814 N   0  0  0  0  0  0  0  0  0  0  0  0
   25.5750  -21.0142   -6.6929 C   0  0  0  0  0  0  0  0  0  0  0  0
   25.6405  -21.9176   -5.6618 O   0  0  0  0  0  0  0  0  0  0  0  0
   24.4345  -20.6068   -7.0235 O   0  0  0  0  0  0  0  0  0  0  0  0
  2  1  1  6
  2  4  1  0
  3  2  1  0
  4  6  1  0
  4  5  2  0
  6  7  1  0
  7 13  1  0
  7  8  1  6
  8  9  1  0
  9 10  1  0
 10 11  1  0
 11 12  1  0
 13 14  2  0
 16 15  1  6
 16 18  1  0
 16 17  1  0
 19 13  1  0
 18 19  1  6
 20 18  1  0
 20 21  1  0
 22 20  2  0
M  END
$$$$
