AKV.pdb
     RDKit          3D

 22 21  0  0  1  0  0  0  0  0999 V2000
   25.2830  -12.3236  -15.3028 C   0  0  0  0  0  0  0  0  0  0  0  0
   24.1715  -12.8484  -16.1938 C   0  0  2  0  0  0  0  0  0  0  0  0
   24.6936  -13.4298  -17.4001 N   0  0  0  0  0  0  0  0  0  0  0  0
   23.2031  -11.7890  -16.5341 C   0  0  0  0  0  0  0  0  0  0  0  0
   23.4478  -10.9406  -17.4447 O   0  0  0  0  0  0  0  0  0  0  0  0
   21.9830  -11.7082  -15.8434 N   0  0  0  0  0  0  0  0  0  0  0  0
   20.9977  -10.6734  -16.1354 C   0  0  1  0  0  0  0  0  0  0  0  0
   19.6481  -11.3138  -16.0475 C   0  0  0  0  0  0  0  0  0  0  0  0
   19.2868  -12.2204  -17.1718 C   0  0  0  0  0  0  0  0  0  0  0  0
   17.9802  -12.9386  -16.8952 C   0  0  0  0  0  0  0  0  0  0  0  0
   17.6256  -13.9297  -17.9706 C   0  0  0  0  0  0  0  0  0  0  0  0
   16.5131  -14.7751  -17.5576 N   0  0  0  0  0  0  0  0  0  0  0  0
   21.1220   -9.5550  -15.1472 C   0  0  0  0  0  0  0  0  0  0  0  0
   21.3050   -9.7746  -13.9254 O   0  0  0  0  0  0  0  0  0  0  0  0
   22.4301   -5.0399  -14.0229 C   0  0  0  0  0  0  0  0  0  0  0  0
   22.2712   -6.1564  -15.0348 C   0  0  2  0  0  0  0  0  0  0  0  0
   21.8024   -5.5426  -16.3345 C   0  0  0  0  0  0  0  0  0  0  0  0
   21.2291   -7.1588  -14.5996 C   0  0  2  0  0  0  0  0  0  0  0  0
   21.0327   -8.1957  -15.5865 N   0  0  0  0  0  0  0  0  0  0  0  0
   19.9599   -6.4203  -14.3896 C   0  0  0  0  0  0  0  0  0  0  0  0
   18.8752   -6.4727  -15.2288 O   0  0  0  0  0  0  0  0  0  0  0  0
   19.8604   -5.6908  -13.3728 O   0  0  0  0  0  0  0  0  0  0  0  0
  2  1  1  6
  2  4  1  0
  3  2  1  0
  4  6  1  0
  4  5  2  0
  6  7  1  0
  7 13  1  0
  7  8  1  1
  8  9  1  0
  9 10  1  0
 10 11  1  0
 11 12  1  0
 13 14  2  0
 16 15  1  1
 16 18  1  0
 16 17  1  0
 19 13  1  0
 18 19  1  6
 20 18  1  0
 20 21  1  0
 22 20  2  0
M  END
$$$$
