AKV.pdb
     RDKit          3D

 22 21  0  0  1  0  0  0  0  0999 V2000
   15.8804  -13.7400  -14.6167 C   0  0  0  0  0  0  0  0  0  0  0  0
   15.8883  -13.1895  -16.0315 C   0  0  2  0  0  0  0  0  0  0  0  0
   16.0128  -14.2398  -17.0047 N   0  0  0  0  0  0  0  0  0  0  0  0
   16.9699  -12.2053  -16.2248 C   0  0  0  0  0  0  0  0  0  0  0  0
   18.1513  -12.5715  -16.5058 O   0  0  0  0  0  0  0  0  0  0  0  0
   16.6985  -10.8333  -16.0978 N   0  0  0  0  0  0  0  0  0  0  0  0
   17.6863   -9.8161  -16.4388 C   0  0  1  0  0  0  0  0  0  0  0  0
   16.9520   -8.5201  -16.5810 C   0  0  0  0  0  0  0  0  0  0  0  0
   17.8011   -7.3119  -16.7705 C   0  0  0  0  0  0  0  0  0  0  0  0
   17.5977   -6.7127  -18.1486 C   0  0  0  0  0  0  0  0  0  0  0  0
   18.4286   -5.4780  -18.3714 C   0  0  0  0  0  0  0  0  0  0  0  0
   18.0546   -4.8118  -19.6120 N   0  0  0  0  0  0  0  0  0  0  0  0
   18.7215   -9.7263  -15.3604 C   0  0  0  0  0  0  0  0  0  0  0  0
   18.4200   -9.8446  -14.1481 O   0  0  0  0  0  0  0  0  0  0  0  0
   23.1468  -10.5251  -13.7068 C   0  0  0  0  0  0  0  0  0  0  0  0
   22.2112  -10.4310  -14.8948 C   0  0  2  0  0  0  0  0  0  0  0  0
   22.9936   -9.8675  -16.0593 C   0  0  0  0  0  0  0  0  0  0  0  0
   21.0574   -9.4956  -14.6229 C   0  0  2  0  0  0  0  0  0  0  0  0
   20.0936   -9.5005  -15.6994 N   0  0  0  0  0  0  0  0  0  0  0  0
   21.6177   -8.1320  -14.4585 C   0  0  0  0  0  0  0  0  0  0  0  0
   22.2072   -7.6603  -13.3124 O   0  0  0  0  0  0  0  0  0  0  0  0
   21.5527   -7.3435  -15.4333 O   0  0  0  0  0  0  0  0  0  0  0  0
  2  1  1  1
  2  4  1  0
  3  2  1  0
  4  6  1  0
  4  5  2  0
  6  7  1  0
  7 13  1  0
  7  8  1  1
  8  9  1  0
  9 10  1  0
 10 11  1  0
 11 12  1  0
 13 14  2  0
 16 15  1  1
 16 18  1  0
 16 17  1  0
 19 13  1  0
 18 19  1  6
 20 18  1  0
 20 21  1  0
 22 20  2  0
M  END
$$$$
