AKV.pdb
     RDKit          3D

 22 21  0  0  1  0  0  0  0  0999 V2000
   18.5632  -15.6521  -18.8433 C   0  0  0  0  0  0  0  0  0  0  0  0
   18.9153  -15.0785  -17.4825 C   0  0  2  0  0  0  0  0  0  0  0  0
   17.8444  -15.2604  -16.5413 N   0  0  0  0  0  0  0  0  0  0  0  0
   19.2594  -13.6468  -17.5697 C   0  0  0  0  0  0  0  0  0  0  0  0
   20.2845  -13.2530  -18.2043 O   0  0  0  0  0  0  0  0  0  0  0  0
   18.4434  -12.6916  -16.9418 N   0  0  0  0  0  0  0  0  0  0  0  0
   18.7424  -11.2653  -16.9963 C   0  0  1  0  0  0  0  0  0  0  0  0
   17.4327  -10.5419  -17.0197 C   0  0  0  0  0  0  0  0  0  0  0  0
   17.5133   -9.0554  -17.0036 C   0  0  0  0  0  0  0  0  0  0  0  0
   16.1311   -8.4335  -17.0507 C   0  0  0  0  0  0  0  0  0  0  0  0
   16.1716   -6.9296  -17.0169 C   0  0  0  0  0  0  0  0  0  0  0  0
   14.8406   -6.3656  -17.1995 N   0  0  0  0  0  0  0  0  0  0  0  0
   19.5503  -10.8657  -15.8003 C   0  0  0  0  0  0  0  0  0  0  0  0
   19.2393  -11.2373  -14.6428 O   0  0  0  0  0  0  0  0  0  0  0  0
   22.9409  -11.8485  -15.1162 C   0  0  0  0  0  0  0  0  0  0  0  0
   22.9309  -10.3400  -14.9750 C   0  0  2  0  0  0  0  0  0  0  0  0
   23.7206   -9.9837  -13.7360 C   0  0  0  0  0  0  0  0  0  0  0  0
   21.5299   -9.8064  -14.7941 C   0  0  2  0  0  0  0  0  0  0  0  0
   20.7087  -10.0404  -15.9597 N   0  0  0  0  0  0  0  0  0  0  0  0
   21.6367   -8.3488  -14.5411 C   0  0  0  0  0  0  0  0  0  0  0  0
   21.8030   -7.7787  -13.3038 O   0  0  0  0  0  0  0  0  0  0  0  0
   21.5713   -7.5707  -15.5241 O   0  0  0  0  0  0  0  0  0  0  0  0
  2  1  1  6
  2  4  1  0
  3  2  1  0
  4  6  1  0
  4  5  2  0
  6  7  1  0
  7 13  1  0
  7  8  1  1
  8  9  1  0
  9 10  1  0
 10 11  1  0
 11 12  1  0
 13 14  2  0
 16 15  1  1
 16 18  1  0
 16 17  1  0
 19 13  1  0
 18 19  1  6
 20 18  1  0
 20 21  1  0
 22 20  2  0
M  END
$$$$
