AKV.pdb
     RDKit          3D

 22 21  0  0  1  0  0  0  0  0999 V2000
   25.7703  -15.0453  -14.7515 C   0  0  0  0  0  0  0  0  0  0  0  0
   26.0257  -16.1464  -15.7649 C   0  0  2  0  0  0  0  0  0  0  0  0
   25.2340  -15.9648  -16.9506 N   0  0  0  0  0  0  0  0  0  0  0  0
   25.7627  -17.4809  -15.1941 C   0  0  0  0  0  0  0  0  0  0  0  0
   24.5820  -17.8664  -14.9370 O   0  0  0  0  0  0  0  0  0  0  0  0
   26.8325  -18.3504  -14.9258 N   0  0  0  0  0  0  0  0  0  0  0  0
   26.6189  -19.7261  -14.4918 C   0  0  1  0  0  0  0  0  0  0  0  0
   27.6219  -20.5742  -15.2086 C   0  0  0  0  0  0  0  0  0  0  0  0
   27.4207  -20.7139  -16.6771 C   0  0  0  0  0  0  0  0  0  0  0  0
   28.4000  -21.7085  -17.2698 C   0  0  0  0  0  0  0  0  0  0  0  0
   28.3372  -21.7574  -18.7725 C   0  0  0  0  0  0  0  0  0  0  0  0
   29.2604  -22.7518  -19.3033 N   0  0  0  0  0  0  0  0  0  0  0  0
   26.7978  -19.8284  -13.0085 C   0  0  0  0  0  0  0  0  0  0  0  0
   27.7934  -19.3292  -12.4304 O   0  0  0  0  0  0  0  0  0  0  0  0
   23.7303  -20.7720  -10.2955 C   0  0  0  0  0  0  0  0  0  0  0  0
   25.1211  -20.3458   -9.8716 C   0  0  2  0  0  0  0  0  0  0  0  0
   25.1602  -18.8345   -9.8575 C   0  0  0  0  0  0  0  0  0  0  0  0
   26.1713  -20.8219  -10.8465 C   0  0  2  0  0  0  0  0  0  0  0  0
   25.8212  -20.5078  -12.2127 N   0  0  0  0  0  0  0  0  0  0  0  0
   26.2955  -22.2913  -10.6864 C   0  0  0  0  0  0  0  0  0  0  0  0
   26.8577  -22.9162   -9.6015 O   0  0  0  0  0  0  0  0  0  0  0  0
   25.8575  -23.0262  -11.6051 O   0  0  0  0  0  0  0  0  0  0  0  0
  2  1  1  1
  2  4  1  0
  3  2  1  0
  4  6  1  0
  4  5  2  0
  6  7  1  0
  7 13  1  0
  7  8  1  6
  8  9  1  0
  9 10  1  0
 10 11  1  0
 11 12  1  0
 13 14  2  0
 16 15  1  6
 16 18  1  0
 16 17  1  0
 19 13  1  0
 18 19  1  6
 20 18  1  0
 20 21  1  0
 22 20  2  0
M  END
$$$$
