AKV.pdb
     RDKit          3D

 22 21  0  0  1  0  0  0  0  0999 V2000
   25.4416  -13.0937  -15.8914 C   0  0  0  0  0  0  0  0  0  0  0  0
   26.5354  -14.1455  -15.8467 C   0  0  2  0  0  0  0  0  0  0  0  0
   27.5664  -13.8744  -16.8107 N   0  0  0  0  0  0  0  0  0  0  0  0
   25.9950  -15.5001  -16.0682 C   0  0  0  0  0  0  0  0  0  0  0  0
   25.7266  -15.9197  -17.2346 O   0  0  0  0  0  0  0  0  0  0  0  0
   25.7692  -16.3509  -14.9738 N   0  0  0  0  0  0  0  0  0  0  0  0
   25.2099  -17.6877  -15.1378 C   0  0  1  0  0  0  0  0  0  0  0  0
   25.7504  -18.5301  -14.0254 C   0  0  0  0  0  0  0  0  0  0  0  0
   25.2428  -19.9284  -13.9664 C   0  0  0  0  0  0  0  0  0  0  0  0
   25.9463  -20.7188  -12.8802 C   0  0  0  0  0  0  0  0  0  0  0  0
   25.4172  -22.1216  -12.7502 C   0  0  0  0  0  0  0  0  0  0  0  0
   26.0472  -22.8178  -11.6361 N   0  0  0  0  0  0  0  0  0  0  0  0
   23.7146  -17.6271  -15.0820 C   0  0  0  0  0  0  0  0  0  0  0  0
   23.1156  -16.9844  -14.1861 O   0  0  0  0  0  0  0  0  0  0  0  0
   21.2883  -16.8180  -18.0656 C   0  0  0  0  0  0  0  0  0  0  0  0
   20.8571  -18.0795  -17.3458 C   0  0  2  0  0  0  0  0  0  0  0  0
   19.3595  -18.0136  -17.1487 C   0  0  0  0  0  0  0  0  0  0  0  0
   21.4941  -18.1880  -15.9811 C   0  0  2  0  0  0  0  0  0  0  0  0
   22.9313  -18.3120  -16.0648 N   0  0  0  0  0  0  0  0  0  0  0  0
   20.9259  -19.3867  -15.3173 C   0  0  0  0  0  0  0  0  0  0  0  0
   21.3188  -20.6785  -15.5633 O   0  0  0  0  0  0  0  0  0  0  0  0
   20.0182  -19.2182  -14.4666 O   0  0  0  0  0  0  0  0  0  0  0  0
  2  1  1  6
  2  4  1  0
  3  2  1  0
  4  6  1  0
  4  5  2  0
  6  7  1  0
  7 13  1  0
  7  8  1  1
  8  9  1  0
  9 10  1  0
 10 11  1  0
 11 12  1  0
 13 14  2  0
 16 15  1  1
 16 18  1  0
 16 17  1  0
 19 13  1  0
 18 19  1  6
 20 18  1  0
 20 21  1  0
 22 20  2  0
M  END
$$$$
