AKV.pdb
     RDKit          3D

 22 21  0  0  1  0  0  0  0  0999 V2000
   17.9273  -22.0252  -17.6543 C   0  0  0  0  0  0  0  0  0  0  0  0
   18.9013  -20.8663  -17.7687 C   0  0  2  0  0  0  0  0  0  0  0  0
   20.2582  -21.2974  -17.5715 N   0  0  0  0  0  0  0  0  0  0  0  0
   18.5800  -19.7909  -16.8115 C   0  0  0  0  0  0  0  0  0  0  0  0
   19.0882  -19.7696  -15.6496 O   0  0  0  0  0  0  0  0  0  0  0  0
   17.6954  -18.7652  -17.1826 N   0  0  0  0  0  0  0  0  0  0  0  0
   17.2338  -17.7618  -16.2303 C   0  0  1  0  0  0  0  0  0  0  0  0
   17.2620  -16.4416  -16.9341 C   0  0  0  0  0  0  0  0  0  0  0  0
   16.8011  -15.2721  -16.1362 C   0  0  0  0  0  0  0  0  0  0  0  0
   16.8496  -13.9982  -16.9573 C   0  0  0  0  0  0  0  0  0  0  0  0
   16.3815  -12.7940  -16.1856 C   0  0  0  0  0  0  0  0  0  0  0  0
   16.4538  -11.5888  -17.0011 N   0  0  0  0  0  0  0  0  0  0  0  0
   15.8468  -18.0914  -15.7717 C   0  0  0  0  0  0  0  0  0  0  0  0
   14.9226  -18.3248  -16.5877 O   0  0  0  0  0  0  0  0  0  0  0  0
   14.5198  -20.8796  -13.6089 C   0  0  0  0  0  0  0  0  0  0  0  0
   14.0988  -19.5602  -12.9944 C   0  0  2  0  0  0  0  0  0  0  0  0
   12.6546  -19.6870  -12.5653 C   0  0  0  0  0  0  0  0  0  0  0  0
   14.1827  -18.4291  -13.9912 C   0  0  2  0  0  0  0  0  0  0  0  0
   15.5472  -18.1466  -14.3732 N   0  0  0  0  0  0  0  0  0  0  0  0
   13.5816  -17.2303  -13.3574 C   0  0  0  0  0  0  0  0  0  0  0  0
   12.2517  -16.8964  -13.4171 O   0  0  0  0  0  0  0  0  0  0  0  0
   14.3360  -16.4577  -12.7172 O   0  0  0  0  0  0  0  0  0  0  0  0
  2  1  1  1
  2  4  1  0
  3  2  1  0
  4  6  1  0
  4  5  2  0
  6  7  1  0
  7 13  1  0
  7  8  1  6
  8  9  1  0
  9 10  1  0
 10 11  1  0
 11 12  1  0
 13 14  2  0
 16 15  1  6
 16 18  1  0
 16 17  1  0
 19 13  1  0
 18 19  1  1
 20 18  1  0
 20 21  1  0
 22 20  2  0
M  END
$$$$
