AKV.pdb
     RDKit          3D

 22 21  0  0  1  0  0  0  0  0999 V2000
   16.3270  -12.5894  -11.1956 C   0  0  0  0  0  0  0  0  0  0  0  0
   15.2776  -11.6267  -10.6696 C   0  0  2  0  0  0  0  0  0  0  0  0
   13.9577  -12.0008  -11.0983 N   0  0  0  0  0  0  0  0  0  0  0  0
   15.5576  -10.2391  -11.0844 C   0  0  0  0  0  0  0  0  0  0  0  0
   15.3437   -9.8507  -12.2727 O   0  0  0  0  0  0  0  0  0  0  0  0
   16.0714   -9.3209  -10.1541 N   0  0  0  0  0  0  0  0  0  0  0  0
   16.3266   -7.9283  -10.5041 C   0  0  1  0  0  0  0  0  0  0  0  0
   15.8009   -7.0894   -9.3821 C   0  0  0  0  0  0  0  0  0  0  0  0
   16.0318   -5.6238   -9.5058 C   0  0  0  0  0  0  0  0  0  0  0  0
   15.3854   -4.8709   -8.3591 C   0  0  0  0  0  0  0  0  0  0  0  0
   15.7040   -3.4003   -8.3797 C   0  0  0  0  0  0  0  0  0  0  0  0
   14.9581   -2.6884   -7.3502 N   0  0  0  0  0  0  0  0  0  0  0  0
   17.7962   -7.7085  -10.6902 C   0  0  0  0  0  0  0  0  0  0  0  0
   18.6271   -8.0395   -9.8101 O   0  0  0  0  0  0  0  0  0  0  0  0
   21.7422   -8.0111  -13.1568 C   0  0  0  0  0  0  0  0  0  0  0  0
   20.2372   -8.0897  -13.0001 C   0  0  2  0  0  0  0  0  0  0  0  0
   19.6154   -7.8523  -14.3576 C   0  0  0  0  0  0  0  0  0  0  0  0
   19.7176   -7.0233  -12.0658 C   0  0  2  0  0  0  0  0  0  0  0  0
   18.2855   -7.1079  -11.8937 N   0  0  0  0  0  0  0  0  0  0  0  0
   20.0752   -5.7068  -12.6483 C   0  0  0  0  0  0  0  0  0  0  0  0
   21.3292   -5.1501  -12.6147 O   0  0  0  0  0  0  0  0  0  0  0  0
   19.1718   -5.0452  -13.2157 O   0  0  0  0  0  0  0  0  0  0  0  0
  2  1  1  6
  2  4  1  0
  3  2  1  0
  4  6  1  0
  4  5  2  0
  6  7  1  0
  7 13  1  0
  7  8  1  1
  8  9  1  0
  9 10  1  0
 10 11  1  0
 11 12  1  0
 13 14  2  0
 16 15  1  6
 16 18  1  0
 16 17  1  0
 19 13  1  0
 18 19  1  6
 20 18  1  0
 20 21  1  0
 22 20  2  0
M  END
$$$$
