AKV.pdb
     RDKit          3D

 22 21  0  0  1  0  0  0  0  0999 V2000
   28.1415  -18.8032  -15.2890 C   0  0  0  0  0  0  0  0  0  0  0  0
   27.8317  -20.1633  -14.6901 C   0  0  2  0  0  0  0  0  0  0  0  0
   28.5565  -21.2100  -15.3572 N   0  0  0  0  0  0  0  0  0  0  0  0
   26.3870  -20.4582  -14.7315 C   0  0  0  0  0  0  0  0  0  0  0  0
   25.8819  -21.1477  -15.6687 O   0  0  0  0  0  0  0  0  0  0  0  0
   25.5442  -19.9715  -13.7190 N   0  0  0  0  0  0  0  0  0  0  0  0
   24.1050  -20.2066  -13.7330 C   0  0  1  0  0  0  0  0  0  0  0  0
   23.6321  -20.1252  -12.3157 C   0  0  0  0  0  0  0  0  0  0  0  0
   22.1734  -20.3368  -12.1064 C   0  0  0  0  0  0  0  0  0  0  0  0
   21.8250  -20.3138  -10.6307 C   0  0  0  0  0  0  0  0  0  0  0  0
   20.4006  -20.7206  -10.3659 C   0  0  0  0  0  0  0  0  0  0  0  0
   20.2102  -22.1456  -10.6022 N   0  0  0  0  0  0  0  0  0  0  0  0
   23.4264  -19.1755  -14.5810 C   0  0  0  0  0  0  0  0  0  0  0  0
   23.6953  -17.9546  -14.4728 O   0  0  0  0  0  0  0  0  0  0  0  0
   23.5093  -18.7250  -18.1851 C   0  0  0  0  0  0  0  0  0  0  0  0
   22.0397  -18.7566  -17.8178 C   0  0  2  0  0  0  0  0  0  0  0  0
   21.3521  -17.6292  -18.5540 C   0  0  0  0  0  0  0  0  0  0  0  0
   21.8297  -18.5332  -16.3393 C   0  0  2  0  0  0  0  0  0  0  0  0
   22.4443  -19.5713  -15.5441 N   0  0  0  0  0  0  0  0  0  0  0  0
   20.3669  -18.5143  -16.0941 C   0  0  0  0  0  0  0  0  0  0  0  0
   19.5862  -17.3855  -16.0998 O   0  0  0  0  0  0  0  0  0  0  0  0
   19.7909  -19.6057  -15.8633 O   0  0  0  0  0  0  0  0  0  0  0  0
  2  1  1  6
  2  4  1  0
  3  2  1  0
  4  6  1  0
  4  5  2  0
  6  7  1  0
  7 13  1  0
  7  8  1  1
  8  9  1  0
  9 10  1  0
 10 11  1  0
 11 12  1  0
 13 14  2  0
 16 15  1  1
 16 18  1  0
 16 17  1  0
 19 13  1  0
 18 19  1  1
 20 18  1  0
 20 21  1  0
 22 20  2  0
M  END
$$$$
