AKV.pdb
     RDKit          3D

 22 21  0  0  1  0  0  0  0  0999 V2000
   22.7076  -11.1310  -21.8247 C   0  0  0  0  0  0  0  0  0  0  0  0
   22.2278  -12.0594  -20.7235 C   0  0  2  0  0  0  0  0  0  0  0  0
   21.5728  -13.2202  -21.2615 N   0  0  0  0  0  0  0  0  0  0  0  0
   21.3204  -11.3684  -19.7882 C   0  0  0  0  0  0  0  0  0  0  0  0
   20.4540  -10.5395  -20.2021 O   0  0  0  0  0  0  0  0  0  0  0  0
   21.4079  -11.6250  -18.4102 N   0  0  0  0  0  0  0  0  0  0  0  0
   20.5157  -10.9884  -17.4482 C   0  0  1  0  0  0  0  0  0  0  0  0
   20.1129  -12.0378  -16.4605 C   0  0  0  0  0  0  0  0  0  0  0  0
   19.2224  -13.1108  -16.9822 C   0  0  0  0  0  0  0  0  0  0  0  0
   19.0021  -14.1913  -15.9412 C   0  0  0  0  0  0  0  0  0  0  0  0
   18.0851  -15.2822  -16.4244 C   0  0  0  0  0  0  0  0  0  0  0  0
   18.0510  -16.3932  -15.4823 N   0  0  0  0  0  0  0  0  0  0  0  0
   21.2218   -9.8577  -16.7659 C   0  0  0  0  0  0  0  0  0  0  0  0
   22.4181   -9.9550  -16.3996 O   0  0  0  0  0  0  0  0  0  0  0  0
   19.9664   -5.8935  -17.1698 C   0  0  0  0  0  0  0  0  0  0  0  0
   21.3358   -6.3200  -16.6816 C   0  0  2  0  0  0  0  0  0  0  0  0
   22.1876   -6.6235  -17.8933 C   0  0  0  0  0  0  0  0  0  0  0  0
   21.2636   -7.5759  -15.8465 C   0  0  2  0  0  0  0  0  0  0  0  0
   20.5336   -8.6279  -16.5161 N   0  0  0  0  0  0  0  0  0  0  0  0
   20.5855   -7.2274  -14.5740 C   0  0  0  0  0  0  0  0  0  0  0  0
   19.3597   -7.7050  -14.1833 O   0  0  0  0  0  0  0  0  0  0  0  0
   21.1671   -6.4381  -13.7899 O   0  0  0  0  0  0  0  0  0  0  0  0
  2  1  1  6
  2  4  1  0
  3  2  1  0
  4  6  1  0
  4  5  2  0
  6  7  1  0
  7 13  1  0
  7  8  1  1
  8  9  1  0
  9 10  1  0
 10 11  1  0
 11 12  1  0
 13 14  2  0
 16 15  1  6
 16 18  1  0
 16 17  1  0
 19 13  1  0
 18 19  1  6
 20 18  1  0
 20 21  1  0
 22 20  2  0
M  END
$$$$
