AKV.pdb
     RDKit          3D

 22 21  0  0  1  0  0  0  0  0999 V2000
   24.8089  -13.5139  -16.1997 C   0  0  0  0  0  0  0  0  0  0  0  0
   25.6219  -14.6603  -16.7737 C   0  0  2  0  0  0  0  0  0  0  0  0
   26.2198  -14.3041  -18.0312 N   0  0  0  0  0  0  0  0  0  0  0  0
   24.8029  -15.8755  -16.9420 C   0  0  0  0  0  0  0  0  0  0  0  0
   23.8783  -15.9321  -17.8085 O   0  0  0  0  0  0  0  0  0  0  0  0
   25.0422  -16.9982  -16.1328 N   0  0  0  0  0  0  0  0  0  0  0  0
   24.2325  -18.2071  -16.2308 C   0  0  1  0  0  0  0  0  0  0  0  0
   25.0568  -19.3335  -15.6917 C   0  0  0  0  0  0  0  0  0  0  0  0
   26.1865  -19.7795  -16.5528 C   0  0  0  0  0  0  0  0  0  0  0  0
   27.0055  -20.8545  -15.8650 C   0  0  0  0  0  0  0  0  0  0  0  0
   28.2515  -21.2110  -16.6297 C   0  0  0  0  0  0  0  0  0  0  0  0
   29.0809  -22.1414  -15.8752 N   0  0  0  0  0  0  0  0  0  0  0  0
   22.9714  -18.0438  -15.4398 C   0  0  0  0  0  0  0  0  0  0  0  0
   22.9909  -17.6808  -14.2388 O   0  0  0  0  0  0  0  0  0  0  0  0
   20.1428  -15.8117  -16.4034 C   0  0  0  0  0  0  0  0  0  0  0  0
   19.5402  -17.1540  -16.0416 C   0  0  2  0  0  0  0  0  0  0  0  0
   18.3499  -16.9024  -15.1440 C   0  0  0  0  0  0  0  0  0  0  0  0
   20.5166  -18.0151  -15.2766 C   0  0  2  0  0  0  0  0  0  0  0  0
   21.7028  -18.3032  -16.0497 N   0  0  0  0  0  0  0  0  0  0  0  0
   19.8223  -19.2805  -14.9342 C   0  0  0  0  0  0  0  0  0  0  0  0
   19.1968  -19.5320  -13.7388 O   0  0  0  0  0  0  0  0  0  0  0  0
   19.7997  -20.1950  -15.7939 O   0  0  0  0  0  0  0  0  0  0  0  0
  2  1  1  6
  2  4  1  0
  3  2  1  0
  4  6  1  0
  4  5  2  0
  6  7  1  0
  7 13  1  0
  7  8  1  1
  8  9  1  0
  9 10  1  0
 10 11  1  0
 11 12  1  0
 13 14  2  0
 16 15  1  1
 16 18  1  0
 16 17  1  0
 19 13  1  0
 18 19  1  6
 20 18  1  0
 20 21  1  0
 22 20  2  0
M  END
$$$$
