AKV.pdb
     RDKit          3D

 22 21  0  0  1  0  0  0  0  0999 V2000
   25.8633  -22.9494  -14.0599 C   0  0  0  0  0  0  0  0  0  0  0  0
   25.7396  -21.6693  -13.2533 C   0  0  2  0  0  0  0  0  0  0  0  0
   26.2134  -21.8468  -11.9079 N   0  0  0  0  0  0  0  0  0  0  0  0
   24.3494  -21.1767  -13.2270 C   0  0  0  0  0  0  0  0  0  0  0  0
   23.5818  -21.4220  -12.2476 O   0  0  0  0  0  0  0  0  0  0  0  0
   23.8548  -20.4202  -14.3020 N   0  0  0  0  0  0  0  0  0  0  0  0
   22.4821  -19.9290  -14.3333 C   0  0  1  0  0  0  0  0  0  0  0  0
   22.4780  -18.6875  -15.1685 C   0  0  0  0  0  0  0  0  0  0  0  0
   21.1634  -18.0019  -15.3035 C   0  0  0  0  0  0  0  0  0  0  0  0
   21.2873  -16.7445  -16.1421 C   0  0  0  0  0  0  0  0  0  0  0  0
   19.9840  -16.0033  -16.2701 C   0  0  0  0  0  0  0  0  0  0  0  0
   20.1887  -14.6786  -16.8413 N   0  0  0  0  0  0  0  0  0  0  0  0
   21.5796  -20.9696  -14.9212 C   0  0  0  0  0  0  0  0  0  0  0  0
   21.8518  -21.5392  -16.0057 O   0  0  0  0  0  0  0  0  0  0  0  0
   18.7844  -23.1282  -12.6501 C   0  0  0  0  0  0  0  0  0  0  0  0
   19.2610  -23.5097  -14.0368 C   0  0  2  0  0  0  0  0  0  0  0  0
   20.5768  -24.2401  -13.8916 C   0  0  0  0  0  0  0  0  0  0  0  0
   19.5054  -22.2927  -14.8966 C   0  0  2  0  0  0  0  0  0  0  0  0
   20.3726  -21.3376  -14.2457 N   0  0  0  0  0  0  0  0  0  0  0  0
   18.1882  -21.6679  -15.1704 C   0  0  0  0  0  0  0  0  0  0  0  0
   17.7752  -20.4591  -14.6686 O   0  0  0  0  0  0  0  0  0  0  0  0
   17.3848  -22.2818  -15.9144 O   0  0  0  0  0  0  0  0  0  0  0  0
  2  1  1  6
  2  4  1  0
  3  2  1  0
  4  6  1  0
  4  5  2  0
  6  7  1  0
  7 13  1  0
  7  8  1  6
  8  9  1  0
  9 10  1  0
 10 11  1  0
 11 12  1  0
 13 14  2  0
 16 15  1  1
 16 18  1  0
 16 17  1  0
 19 13  1  0
 18 19  1  1
 20 18  1  0
 20 21  1  0
 22 20  2  0
M  END
$$$$
