YDY.pdb
     RDKit          3D

 33 34  0  0  1  0  0  0  0  0999 V2000
    6.7908  -12.8673   15.9718 O   0  0  0  0  0  0  0  0  0  0  0  0
    7.0556  -13.4605   17.2007 C   0  0  0  0  0  0  0  0  0  0  0  0
    6.7899  -14.8050   17.3561 C   0  0  0  0  0  0  0  0  0  0  0  0
    7.0469  -15.3944   18.5584 C   0  0  0  0  0  0  0  0  0  0  0  0
    7.5714  -14.6987   19.6533 C   0  0  0  0  0  0  0  0  0  0  0  0
    7.8345  -15.3832   20.9424 C   0  0  0  0  0  0  0  0  0  0  0  0
    9.3297  -15.4431   21.1721 C   0  0  2  0  0  0  0  0  0  0  0  0
    9.9770  -15.4489   19.8761 N   0  0  0  0  0  0  0  0  0  0  0  0
    9.7429  -16.6319   21.9180 C   0  0  0  0  0  0  0  0  0  0  0  0
    9.1607  -16.9467   22.9793 O   0  0  0  0  0  0  0  0  0  0  0  0
    7.8230  -13.3565   19.4568 C   0  0  0  0  0  0  0  0  0  0  0  0
    7.5741  -12.7268   18.2500 C   0  0  0  0  0  0  0  0  0  0  0  0
   10.8036  -17.4934   21.5078 N   0  0  0  0  0  0  0  0  0  0  0  0
   11.1936  -18.6550   22.2442 C   0  0  1  0  0  0  0  0  0  0  0  0
   12.0628  -19.6065   21.4780 C   0  0  0  0  0  0  0  0  0  0  0  0
   12.3981  -20.8313   22.2064 C   0  0  0  0  0  0  0  0  0  0  0  0
   11.9521  -21.9357   21.8390 O   0  0  0  0  0  0  0  0  0  0  0  0
   11.8078  -18.2742   23.5398 C   0  0  0  0  0  0  0  0  0  0  0  0
   12.7969  -17.5006   23.5272 O   0  0  0  0  0  0  0  0  0  0  0  0
   13.2119  -20.7967   23.3128 O   0  0  0  0  0  0  0  0  0  0  0  0
    9.6938  -13.5479   30.3897 O   0  0  0  0  0  0  0  0  0  0  0  0
    9.9360  -14.2975   29.2346 C   0  0  0  0  0  0  0  0  0  0  0  0
    9.5293  -13.8904   27.9895 C   0  0  0  0  0  0  0  0  0  0  0  0
    9.7391  -14.5845   26.8213 C   0  0  0  0  0  0  0  0  0  0  0  0
   10.4210  -15.8041   26.9012 C   0  0  0  0  0  0  0  0  0  0  0  0
   10.6550  -16.5938   25.6724 C   0  0  0  0  0  0  0  0  0  0  0  0
   11.2963  -17.9230   25.9719 C   0  0  2  0  0  0  0  0  0  0  0  0
   11.2944  -18.7689   24.7661 N   0  0  0  0  0  0  0  0  0  0  0  0
   10.6014  -18.6655   27.0455 C   0  0  0  0  0  0  0  0  0  0  0  0
   10.8975  -18.4388   28.2413 O   0  0  0  0  0  0  0  0  0  0  0  0
   10.8445  -16.2397   28.1570 C   0  0  0  0  0  0  0  0  0  0  0  0
   10.6133  -15.5121   29.3031 C   0  0  0  0  0  0  0  0  0  0  0  0
    9.6222  -19.6162   26.7959 O   0  0  0  0  0  0  0  0  0  0  0  0
  2  1  1  0
  3  2  2  0
  4  3  1  0
  5 11  1  0
  5  4  2  0
  6  5  1  0
  7  9  1  0
  7  6  1  0
  7  8  1  6
  9 10  2  0
 11 12  2  0
 12  2  1  0
 13 14  1  0
 13  9  1  0
 14 15  1  6
 15 16  1  0
 16 20  1  0
 17 16  2  0
 18 14  1  0
 19 18  2  0
 22 23  2  0
 22 21  1  0
 24 23  1  0
 25 24  2  0
 27 26  1  6
 26 25  1  0
 27 28  1  0
 28 18  1  0
 29 27  1  0
 29 33  1  0
 30 29  2  0
 31 25  1  0
 31 32  2  0
 32 22  1  0
M  END
$$$$
