YDY.pdb
     RDKit          3D

 33 34  0  0  1  0  0  0  0  0999 V2000
    7.6773  -12.0504   17.8681 O   0  0  0  0  0  0  0  0  0  0  0  0
    7.5715  -12.8299   19.0142 C   0  0  0  0  0  0  0  0  0  0  0  0
    8.1371  -12.3655   20.1833 C   0  0  0  0  0  0  0  0  0  0  0  0
    8.0376  -13.1241   21.3119 C   0  0  0  0  0  0  0  0  0  0  0  0
    7.3850  -14.3614   21.3453 C   0  0  0  0  0  0  0  0  0  0  0  0
    7.3023  -15.1513   22.5977 C   0  0  0  0  0  0  0  0  0  0  0  0
    7.7154  -16.5787   22.3079 C   0  0  2  0  0  0  0  0  0  0  0  0
    6.5113  -17.3796   22.2226 N   0  0  0  0  0  0  0  0  0  0  0  0
    8.5892  -17.1379   23.3394 C   0  0  0  0  0  0  0  0  0  0  0  0
    8.1077  -17.7978   24.2867 O   0  0  0  0  0  0  0  0  0  0  0  0
    6.8330  -14.7897   20.1556 C   0  0  0  0  0  0  0  0  0  0  0  0
    6.9154  -14.0453   18.9921 C   0  0  0  0  0  0  0  0  0  0  0  0
   10.0072  -16.9800   23.3449 N   0  0  0  0  0  0  0  0  0  0  0  0
   10.8380  -17.4340   24.4162 C   0  0  1  0  0  0  0  0  0  0  0  0
   12.2844  -17.5854   24.0516 C   0  0  0  0  0  0  0  0  0  0  0  0
   12.5111  -18.1081   22.7030 C   0  0  0  0  0  0  0  0  0  0  0  0
   12.0099  -19.1918   22.3452 O   0  0  0  0  0  0  0  0  0  0  0  0
   10.6621  -16.5796   25.6160 C   0  0  0  0  0  0  0  0  0  0  0  0
   10.8764  -15.3470   25.5079 O   0  0  0  0  0  0  0  0  0  0  0  0
   13.2810  -17.4197   21.7971 O   0  0  0  0  0  0  0  0  0  0  0  0
    7.2577  -11.5829   25.0639 O   0  0  0  0  0  0  0  0  0  0  0  0
    7.6608  -12.6333   25.8939 C   0  0  0  0  0  0  0  0  0  0  0  0
    8.5508  -12.4629   26.9236 C   0  0  0  0  0  0  0  0  0  0  0  0
    8.9825  -13.4566   27.7703 C   0  0  0  0  0  0  0  0  0  0  0  0
    8.4778  -14.7469   27.5717 C   0  0  0  0  0  0  0  0  0  0  0  0
    8.9265  -15.8512   28.4478 C   0  0  0  0  0  0  0  0  0  0  0  0
   10.3091  -16.3278   28.0883 C   0  0  2  0  0  0  0  0  0  0  0  0
   10.2616  -17.1360   26.8578 N   0  0  0  0  0  0  0  0  0  0  0  0
   10.9236  -17.1553   29.1487 C   0  0  0  0  0  0  0  0  0  0  0  0
   11.0552  -16.6809   30.3005 O   0  0  0  0  0  0  0  0  0  0  0  0
    7.5710  -14.9453   26.5304 C   0  0  0  0  0  0  0  0  0  0  0  0
    7.1650  -13.9205   25.7050 C   0  0  0  0  0  0  0  0  0  0  0  0
   11.3702  -18.4510   28.9333 O   0  0  0  0  0  0  0  0  0  0  0  0
  2  1  1  0
  3  2  2  0
  4  3  1  0
  5 11  1  0
  5  4  2  0
  6  5  1  0
  7  9  1  0
  7  6  1  0
  7  8  1  1
  9 10  2  0
 11 12  2  0
 12  2  1  0
 13 14  1  0
 13  9  1  0
 14 15  1  6
 15 16  1  0
 16 20  1  0
 17 16  2  0
 18 14  1  0
 19 18  2  0
 22 23  2  0
 22 21  1  0
 24 23  1  0
 25 24  2  0
 27 26  1  1
 26 25  1  0
 27 28  1  0
 28 18  1  0
 29 27  1  0
 29 33  1  0
 30 29  2  0
 31 25  1  0
 31 32  2  0
 32 22  1  0
M  END
$$$$
