YDY.pdb
     RDKit          3D

 33 34  0  0  1  0  0  0  0  0999 V2000
    6.5612  -12.3294   15.9466 O   0  0  0  0  0  0  0  0  0  0  0  0
    7.1698  -13.0018   17.0000 C   0  0  0  0  0  0  0  0  0  0  0  0
    6.6080  -12.9079   18.2562 C   0  0  0  0  0  0  0  0  0  0  0  0
    7.1989  -13.5645   19.2948 C   0  0  0  0  0  0  0  0  0  0  0  0
    8.3573  -14.3361   19.1504 C   0  0  0  0  0  0  0  0  0  0  0  0
    8.9644  -15.0326   20.3104 C   0  0  0  0  0  0  0  0  0  0  0  0
    8.9170  -16.5263   20.0681 C   0  0  2  0  0  0  0  0  0  0  0  0
    7.5286  -16.9378   20.1089 N   0  0  0  0  0  0  0  0  0  0  0  0
    9.6706  -17.2878   21.0643 C   0  0  0  0  0  0  0  0  0  0  0  0
    9.1060  -17.7102   22.0974 O   0  0  0  0  0  0  0  0  0  0  0  0
    8.8876  -14.4043   17.8785 C   0  0  0  0  0  0  0  0  0  0  0  0
    8.3136  -13.7507   16.8024 C   0  0  0  0  0  0  0  0  0  0  0  0
   11.0579  -17.5968   20.9395 N   0  0  0  0  0  0  0  0  0  0  0  0
   11.7947  -18.2952   21.9462 C   0  0  1  0  0  0  0  0  0  0  0  0
   13.1236  -18.8155   21.4866 C   0  0  0  0  0  0  0  0  0  0  0  0
   13.7897  -19.6928   22.4508 C   0  0  0  0  0  0  0  0  0  0  0  0
   14.0973  -19.2785   23.5855 O   0  0  0  0  0  0  0  0  0  0  0  0
   11.9241  -17.4686   23.1712 C   0  0  0  0  0  0  0  0  0  0  0  0
   12.6794  -16.4660   23.1380 O   0  0  0  0  0  0  0  0  0  0  0  0
   14.0935  -20.9942   22.1318 O   0  0  0  0  0  0  0  0  0  0  0  0
   10.5485  -14.0713   31.2341 O   0  0  0  0  0  0  0  0  0  0  0  0
   10.4318  -14.7399   30.0118 C   0  0  0  0  0  0  0  0  0  0  0  0
   10.3186  -14.0795   28.8150 C   0  0  0  0  0  0  0  0  0  0  0  0
   10.2012  -14.6829   27.5851 C   0  0  0  0  0  0  0  0  0  0  0  0
   10.1962  -16.0819   27.5433 C   0  0  0  0  0  0  0  0  0  0  0  0
   10.0552  -16.7749   26.2439 C   0  0  0  0  0  0  0  0  0  0  0  0
   11.3873  -16.9957   25.5771 C   0  0  2  0  0  0  0  0  0  0  0  0
   11.2140  -17.7980   24.3541 N   0  0  0  0  0  0  0  0  0  0  0  0
   12.3535  -17.7007   26.4468 C   0  0  0  0  0  0  0  0  0  0  0  0
   12.3377  -18.9523   26.4956 O   0  0  0  0  0  0  0  0  0  0  0  0
   10.3099  -16.7762   28.7479 C   0  0  0  0  0  0  0  0  0  0  0  0
   10.4256  -16.1313   29.9591 C   0  0  0  0  0  0  0  0  0  0  0  0
   13.2928  -17.0397   27.2250 O   0  0  0  0  0  0  0  0  0  0  0  0
  2  1  1  0
  3  2  2  0
  4  3  1  0
  5 11  1  0
  5  4  2  0
  6  5  1  0
  7  9  1  0
  7  6  1  0
  7  8  1  1
  9 10  2  0
 11 12  2  0
 12  2  1  0
 13 14  1  0
 13  9  1  0
 14 15  1  6
 15 16  1  0
 16 20  1  0
 17 16  2  0
 18 14  1  0
 19 18  2  0
 22 23  2  0
 22 21  1  0
 24 23  1  0
 25 24  2  0
 27 26  1  1
 26 25  1  0
 27 28  1  0
 28 18  1  0
 29 27  1  0
 29 33  1  0
 30 29  2  0
 31 25  1  0
 31 32  2  0
 32 22  1  0
M  END
$$$$
