YDY.pdb
     RDKit          3D

 33 34  0  0  1  0  0  0  0  0999 V2000
    6.8857  -11.6717   17.9912 O   0  0  0  0  0  0  0  0  0  0  0  0
    7.2523  -12.4531   19.0808 C   0  0  0  0  0  0  0  0  0  0  0  0
    8.5934  -12.5941   19.3710 C   0  0  0  0  0  0  0  0  0  0  0  0
    8.9613  -13.3589   20.4382 C   0  0  0  0  0  0  0  0  0  0  0  0
    8.0395  -14.0143   21.2619 C   0  0  0  0  0  0  0  0  0  0  0  0
    8.4876  -14.8360   22.4123 C   0  0  0  0  0  0  0  0  0  0  0  0
    9.2326  -16.0469   21.8922 C   0  0  2  0  0  0  0  0  0  0  0  0
    8.2876  -16.8698   21.1651 N   0  0  0  0  0  0  0  0  0  0  0  0
    9.8377  -16.8436   22.9596 C   0  0  0  0  0  0  0  0  0  0  0  0
    9.1899  -17.7625   23.5078 O   0  0  0  0  0  0  0  0  0  0  0  0
    6.7088  -13.8479   20.9378 C   0  0  0  0  0  0  0  0  0  0  0  0
    6.3006  -13.0790   19.8621 C   0  0  0  0  0  0  0  0  0  0  0  0
   11.1655  -16.6419   23.4408 N   0  0  0  0  0  0  0  0  0  0  0  0
   11.7448  -17.4294   24.4840 C   0  0  1  0  0  0  0  0  0  0  0  0
   13.2091  -17.7002   24.3100 C   0  0  0  0  0  0  0  0  0  0  0  0
   13.5602  -18.2889   23.0163 C   0  0  0  0  0  0  0  0  0  0  0  0
   13.0010  -19.3278   22.6142 O   0  0  0  0  0  0  0  0  0  0  0  0
   11.4511  -16.8391   25.8129 C   0  0  0  0  0  0  0  0  0  0  0  0
   12.0733  -15.8040   26.1571 O   0  0  0  0  0  0  0  0  0  0  0  0
   14.5138  -17.7134   22.2120 O   0  0  0  0  0  0  0  0  0  0  0  0
    7.0452  -12.1849   25.1915 O   0  0  0  0  0  0  0  0  0  0  0  0
    7.4786  -13.2759   25.9509 C   0  0  0  0  0  0  0  0  0  0  0  0
    8.5090  -13.1877   26.8519 C   0  0  0  0  0  0  0  0  0  0  0  0
    8.9770  -14.2245   27.6243 C   0  0  0  0  0  0  0  0  0  0  0  0
    8.3575  -15.4719   27.4856 C   0  0  0  0  0  0  0  0  0  0  0  0
    8.8382  -16.6208   28.2839 C   0  0  0  0  0  0  0  0  0  0  0  0
   10.2974  -16.9029   28.0412 C   0  0  2  0  0  0  0  0  0  0  0  0
   10.4918  -17.4252   26.6778 N   0  0  0  0  0  0  0  0  0  0  0  0
   10.8549  -17.8928   28.9879 C   0  0  0  0  0  0  0  0  0  0  0  0
   11.1643  -19.0337   28.5736 O   0  0  0  0  0  0  0  0  0  0  0  0
    7.3070  -15.5867   26.5750 C   0  0  0  0  0  0  0  0  0  0  0  0
    6.8694  -14.5211   25.8205 C   0  0  0  0  0  0  0  0  0  0  0  0
   11.0572  -17.6218   30.3334 O   0  0  0  0  0  0  0  0  0  0  0  0
  2  1  1  0
  3  2  2  0
  4  3  1  0
  5 11  1  0
  5  4  2  0
  6  5  1  0
  7  9  1  0
  7  6  1  0
  7  8  1  1
  9 10  2  0
 11 12  2  0
 12  2  1  0
 13 14  1  0
 13  9  1  0
 14 15  1  6
 15 16  1  0
 16 20  1  0
 17 16  2  0
 18 14  1  0
 19 18  2  0
 22 23  2  0
 22 21  1  0
 24 23  1  0
 25 24  2  0
 27 26  1  1
 26 25  1  0
 27 28  1  0
 28 18  1  0
 29 27  1  0
 29 33  1  0
 30 29  2  0
 31 25  1  0
 31 32  2  0
 32 22  1  0
M  END
$$$$
