YDY.pdb
     RDKit          3D

 33 34  0  0  1  0  0  0  0  0999 V2000
    8.0708  -12.6643   15.7137 O   0  0  0  0  0  0  0  0  0  0  0  0
    8.0770  -13.1606   17.0121 C   0  0  0  0  0  0  0  0  0  0  0  0
    6.8762  -13.2753   17.6811 C   0  0  0  0  0  0  0  0  0  0  0  0
    6.8737  -13.7612   18.9550 C   0  0  0  0  0  0  0  0  0  0  0  0
    8.0379  -14.1533   19.6251 C   0  0  0  0  0  0  0  0  0  0  0  0
    7.9854  -14.6763   21.0118 C   0  0  0  0  0  0  0  0  0  0  0  0
    8.2540  -16.1660   20.9868 C   0  0  2  0  0  0  0  0  0  0  0  0
    7.1937  -16.7945   20.2255 N   0  0  0  0  0  0  0  0  0  0  0  0
    8.2978  -16.7581   22.3239 C   0  0  0  0  0  0  0  0  0  0  0  0
    7.2461  -16.9071   22.9845 O   0  0  0  0  0  0  0  0  0  0  0  0
    9.2174  -14.0228   18.9214 C   0  0  0  0  0  0  0  0  0  0  0  0
    9.2560  -13.5335   17.6276 C   0  0  0  0  0  0  0  0  0  0  0  0
    9.4999  -17.1957   22.9556 N   0  0  0  0  0  0  0  0  0  0  0  0
    9.5275  -17.7756   24.2621 C   0  0  1  0  0  0  0  0  0  0  0  0
    9.2819  -19.2545   24.2844 C   0  0  0  0  0  0  0  0  0  0  0  0
   10.1523  -20.0202   23.3904 C   0  0  0  0  0  0  0  0  0  0  0  0
   10.6122  -19.5066   22.3519 O   0  0  0  0  0  0  0  0  0  0  0  0
   10.7816  -17.4179   24.9693 C   0  0  0  0  0  0  0  0  0  0  0  0
   11.5312  -18.3458   25.3618 O   0  0  0  0  0  0  0  0  0  0  0  0
   10.4852  -21.3232   23.6712 O   0  0  0  0  0  0  0  0  0  0  0  0
    5.4177  -11.3628   27.8268 O   0  0  0  0  0  0  0  0  0  0  0  0
    6.2953  -12.2261   27.1639 C   0  0  0  0  0  0  0  0  0  0  0  0
    7.6375  -11.9693   27.0457 C   0  0  0  0  0  0  0  0  0  0  0  0
    8.5460  -12.7799   26.4068 C   0  0  0  0  0  0  0  0  0  0  0  0
    8.0706  -13.9626   25.8287 C   0  0  0  0  0  0  0  0  0  0  0  0
    9.0086  -14.8576   25.1163 C   0  0  0  0  0  0  0  0  0  0  0  0
   10.2239  -15.1745   25.9471 C   0  0  2  0  0  0  0  0  0  0  0  0
   11.1305  -16.0624   25.1993 N   0  0  0  0  0  0  0  0  0  0  0  0
    9.8876  -15.8429   27.2227 C   0  0  0  0  0  0  0  0  0  0  0  0
   10.1209  -15.2565   28.3047 O   0  0  0  0  0  0  0  0  0  0  0  0
    6.7088  -14.2457   25.9355 C   0  0  0  0  0  0  0  0  0  0  0  0
    5.8328  -13.4050   26.5852 C   0  0  0  0  0  0  0  0  0  0  0  0
    9.3178  -17.1062   27.2871 O   0  0  0  0  0  0  0  0  0  0  0  0
  2  1  1  0
  3  2  2  0
  4  3  1  0
  5 11  1  0
  5  4  2  0
  6  5  1  0
  7  9  1  0
  7  6  1  0
  7  8  1  6
  9 10  2  0
 11 12  2  0
 12  2  1  0
 13 14  1  0
 13  9  1  0
 14 15  1  6
 15 16  1  0
 16 20  1  0
 17 16  2  0
 18 14  1  0
 19 18  2  0
 22 23  2  0
 22 21  1  0
 24 23  1  0
 25 24  2  0
 27 26  1  6
 26 25  1  0
 27 28  1  0
 28 18  1  0
 29 27  1  0
 29 33  1  0
 30 29  2  0
 31 25  1  0
 31 32  2  0
 32 22  1  0
M  END
$$$$
