YDY.pdb
     RDKit          3D

 33 34  0  0  1  0  0  0  0  0999 V2000
   10.0779  -18.1972   30.9614 O   0  0  0  0  0  0  0  0  0  0  0  0
    9.4759  -18.0039   29.7235 C   0  0  0  0  0  0  0  0  0  0  0  0
    8.1500  -18.3525   29.5721 C   0  0  0  0  0  0  0  0  0  0  0  0
    7.5522  -18.1660   28.3609 C   0  0  0  0  0  0  0  0  0  0  0  0
    8.2211  -17.6341   27.2530 C   0  0  0  0  0  0  0  0  0  0  0  0
    7.5284  -17.4496   25.9548 C   0  0  0  0  0  0  0  0  0  0  0  0
    7.2167  -18.8088   25.3653 C   0  0  2  0  0  0  0  0  0  0  0  0
    8.2586  -19.7234   25.7856 N   0  0  0  0  0  0  0  0  0  0  0  0
    7.1550  -18.7938   23.9037 C   0  0  0  0  0  0  0  0  0  0  0  0
    8.0930  -19.2687   23.2261 O   0  0  0  0  0  0  0  0  0  0  0  0
    9.5453  -17.2985   27.4460 C   0  0  0  0  0  0  0  0  0  0  0  0
   10.1829  -17.4744   28.6614 C   0  0  0  0  0  0  0  0  0  0  0  0
    6.0599  -18.2558   23.1642 N   0  0  0  0  0  0  0  0  0  0  0  0
    6.1313  -17.9639   21.7665 C   0  0  1  0  0  0  0  0  0  0  0  0
    4.8003  -17.7267   21.1184 C   0  0  0  0  0  0  0  0  0  0  0  0
    3.8998  -18.8802   21.1591 C   0  0  0  0  0  0  0  0  0  0  0  0
    4.3456  -20.0337   21.3144 O   0  0  0  0  0  0  0  0  0  0  0  0
    7.0722  -16.8459   21.5106 C   0  0  0  0  0  0  0  0  0  0  0  0
    7.3810  -16.5856   20.3215 O   0  0  0  0  0  0  0  0  0  0  0  0
    2.5413  -18.7228   21.0272 O   0  0  0  0  0  0  0  0  0  0  0  0
    7.2351  -13.5216   28.4139 O   0  0  0  0  0  0  0  0  0  0  0  0
    7.4280  -13.5684   27.0299 C   0  0  0  0  0  0  0  0  0  0  0  0
    8.6292  -13.2688   26.4396 C   0  0  0  0  0  0  0  0  0  0  0  0
    8.8766  -13.2977   25.0874 C   0  0  0  0  0  0  0  0  0  0  0  0
    7.8237  -13.6609   24.2398 C   0  0  0  0  0  0  0  0  0  0  0  0
    8.0386  -13.6898   22.7764 C   0  0  0  0  0  0  0  0  0  0  0  0
    8.5878  -15.0138   22.3148 C   0  0  2  0  0  0  0  0  0  0  0  0
    7.6128  -16.0857   22.5792 N   0  0  0  0  0  0  0  0  0  0  0  0
    9.8522  -15.3766   22.9905 C   0  0  0  0  0  0  0  0  0  0  0  0
   10.8526  -14.6335   22.8638 O   0  0  0  0  0  0  0  0  0  0  0  0
    6.5918  -13.9701   24.8167 C   0  0  0  0  0  0  0  0  0  0  0  0
    6.3872  -13.9284   26.1778 C   0  0  0  0  0  0  0  0  0  0  0  0
    9.9931  -16.5152   23.7705 O   0  0  0  0  0  0  0  0  0  0  0  0
  2  1  1  0
  3  2  2  0
  4  3  1  0
  5 11  1  0
  5  4  2  0
  6  5  1  0
  7  9  1  0
  7  6  1  0
  7  8  1  6
  9 10  2  0
 11 12  2  0
 12  2  1  0
 13 14  1  0
 13  9  1  0
 14 15  1  1
 15 16  1  0
 16 20  1  0
 17 16  2  0
 18 14  1  0
 19 18  2  0
 22 23  2  0
 22 21  1  0
 24 23  1  0
 25 24  2  0
 27 26  1  1
 26 25  1  0
 27 28  1  0
 28 18  1  0
 29 27  1  0
 29 33  1  0
 30 29  2  0
 31 25  1  0
 31 32  2  0
 32 22  1  0
M  END
$$$$
