YDY.pdb
     RDKit          3D

 33 34  0  0  1  0  0  0  0  0999 V2000
    6.3700  -12.2513   17.7206 O   0  0  0  0  0  0  0  0  0  0  0  0
    7.1101  -12.9951   18.6324 C   0  0  0  0  0  0  0  0  0  0  0  0
    8.4855  -12.9871   18.5296 C   0  0  0  0  0  0  0  0  0  0  0  0
    9.2187  -13.7141   19.4201 C   0  0  0  0  0  0  0  0  0  0  0  0
    8.6419  -14.4752   20.4428 C   0  0  0  0  0  0  0  0  0  0  0  0
    9.4810  -15.2504   21.3885 C   0  0  0  0  0  0  0  0  0  0  0  0
   10.2311  -16.3178   20.6204 C   0  0  2  0  0  0  0  0  0  0  0  0
    9.2524  -17.1856   19.9977 N   0  0  0  0  0  0  0  0  0  0  0  0
   11.1082  -17.1206   21.4726 C   0  0  0  0  0  0  0  0  0  0  0  0
   10.6358  -17.7744   22.4287 O   0  0  0  0  0  0  0  0  0  0  0  0
    7.2640  -14.4565   20.5112 C   0  0  0  0  0  0  0  0  0  0  0  0
    6.4896  -13.7299   19.6240 C   0  0  0  0  0  0  0  0  0  0  0  0
   12.5194  -17.2169   21.2864 N   0  0  0  0  0  0  0  0  0  0  0  0
   13.3916  -17.8297   22.2392 C   0  0  1  0  0  0  0  0  0  0  0  0
   14.8266  -17.8919   21.8092 C   0  0  0  0  0  0  0  0  0  0  0  0
   15.0429  -18.5942   20.5430 C   0  0  0  0  0  0  0  0  0  0  0  0
   14.5804  -19.7369   20.3590 O   0  0  0  0  0  0  0  0  0  0  0  0
   13.2459  -17.1923   23.5709 C   0  0  0  0  0  0  0  0  0  0  0  0
   13.3995  -15.9490   23.6577 O   0  0  0  0  0  0  0  0  0  0  0  0
   15.7605  -18.0139   19.5252 O   0  0  0  0  0  0  0  0  0  0  0  0
    9.6475  -14.0786   30.6785 O   0  0  0  0  0  0  0  0  0  0  0  0
   10.0852  -14.6329   29.4719 C   0  0  0  0  0  0  0  0  0  0  0  0
    9.5019  -15.7408   28.9118 C   0  0  0  0  0  0  0  0  0  0  0  0
    9.8890  -16.3283   27.7305 C   0  0  0  0  0  0  0  0  0  0  0  0
   10.9627  -15.7558   27.0390 C   0  0  0  0  0  0  0  0  0  0  0  0
   11.4250  -16.3636   25.7719 C   0  0  0  0  0  0  0  0  0  0  0  0
   12.5807  -17.3044   25.9885 C   0  0  2  0  0  0  0  0  0  0  0  0
   12.9406  -17.9636   24.7214 N   0  0  0  0  0  0  0  0  0  0  0  0
   12.2811  -18.3615   26.9784 C   0  0  0  0  0  0  0  0  0  0  0  0
   12.3442  -18.0953   28.2007 O   0  0  0  0  0  0  0  0  0  0  0  0
   11.5727  -14.6281   27.5888 C   0  0  0  0  0  0  0  0  0  0  0  0
   11.1525  -14.0713   28.7761 C   0  0  0  0  0  0  0  0  0  0  0  0
   11.9280  -19.6545   26.6204 O   0  0  0  0  0  0  0  0  0  0  0  0
  2  1  1  0
  3  2  2  0
  4  3  1  0
  5 11  1  0
  5  4  2  0
  6  5  1  0
  7  9  1  0
  7  6  1  0
  7  8  1  1
  9 10  2  0
 11 12  2  0
 12  2  1  0
 13 14  1  0
 13  9  1  0
 14 15  1  6
 15 16  1  0
 16 20  1  0
 17 16  2  0
 18 14  1  0
 19 18  2  0
 22 23  2  0
 22 21  1  0
 24 23  1  0
 25 24  2  0
 27 26  1  6
 26 25  1  0
 27 28  1  0
 28 18  1  0
 29 27  1  0
 29 33  1  0
 30 29  2  0
 31 25  1  0
 31 32  2  0
 32 22  1  0
M  END
$$$$
