YDY.pdb
     RDKit          3D

 33 34  0  0  1  0  0  0  0  0999 V2000
    8.5412  -12.8756   16.5873 O   0  0  0  0  0  0  0  0  0  0  0  0
    8.0503  -13.7196   17.5767 C   0  0  0  0  0  0  0  0  0  0  0  0
    7.3129  -14.8221   17.1983 C   0  0  0  0  0  0  0  0  0  0  0  0
    6.8278  -15.6549   18.1627 C   0  0  0  0  0  0  0  0  0  0  0  0
    7.0417  -15.4467   19.5298 C   0  0  0  0  0  0  0  0  0  0  0  0
    6.4937  -16.3808   20.5428 C   0  0  0  0  0  0  0  0  0  0  0  0
    6.8264  -15.8594   21.9247 C   0  0  2  0  0  0  0  0  0  0  0  0
    7.0794  -14.4374   21.8124 N   0  0  0  0  0  0  0  0  0  0  0  0
    7.9993  -16.5088   22.5099 C   0  0  0  0  0  0  0  0  0  0  0  0
    7.9142  -17.6655   22.9782 O   0  0  0  0  0  0  0  0  0  0  0  0
    7.7838  -14.3332   19.8662 C   0  0  0  0  0  0  0  0  0  0  0  0
    8.2909  -13.4674   18.9133 C   0  0  0  0  0  0  0  0  0  0  0  0
    9.2851  -15.8955   22.5894 N   0  0  0  0  0  0  0  0  0  0  0  0
   10.3799  -16.4701   23.3072 C   0  0  1  0  0  0  0  0  0  0  0  0
   11.7281  -16.1426   22.7388 C   0  0  0  0  0  0  0  0  0  0  0  0
   12.0327  -16.8313   21.4834 C   0  0  0  0  0  0  0  0  0  0  0  0
   11.5202  -17.9366   21.2203 O   0  0  0  0  0  0  0  0  0  0  0  0
   10.2971  -16.1334   24.7496 C   0  0  0  0  0  0  0  0  0  0  0  0
   10.5461  -14.9544   25.1028 O   0  0  0  0  0  0  0  0  0  0  0  0
   12.8903  -16.2791   20.5630 O   0  0  0  0  0  0  0  0  0  0  0  0
    6.1059  -11.5680   25.9197 O   0  0  0  0  0  0  0  0  0  0  0  0
    6.6156  -12.8205   26.2754 C   0  0  0  0  0  0  0  0  0  0  0  0
    7.7628  -12.9704   27.0122 C   0  0  0  0  0  0  0  0  0  0  0  0
    8.3097  -14.1739   27.3906 C   0  0  0  0  0  0  0  0  0  0  0  0
    7.6488  -15.3429   26.9963 C   0  0  0  0  0  0  0  0  0  0  0  0
    8.2093  -16.6610   27.3662 C   0  0  0  0  0  0  0  0  0  0  0  0
    9.6916  -16.7334   27.1104 C   0  0  2  0  0  0  0  0  0  0  0  0
    9.9455  -17.1155   25.7108 N   0  0  0  0  0  0  0  0  0  0  0  0
   10.3754  -17.7164   27.9782 C   0  0  0  0  0  0  0  0  0  0  0  0
   10.8003  -18.7849   27.4812 O   0  0  0  0  0  0  0  0  0  0  0  0
    6.4797  -15.2161   26.2458 C   0  0  0  0  0  0  0  0  0  0  0  0
    5.9660  -13.9895   25.8882 C   0  0  0  0  0  0  0  0  0  0  0  0
   10.5753  -17.5161   29.3363 O   0  0  0  0  0  0  0  0  0  0  0  0
  2  1  1  0
  3  2  2  0
  4  3  1  0
  5 11  1  0
  5  4  2  0
  6  5  1  0
  7  9  1  0
  7  6  1  0
  7  8  1  6
  9 10  2  0
 11 12  2  0
 12  2  1  0
 13 14  1  0
 13  9  1  0
 14 15  1  6
 15 16  1  0
 16 20  1  0
 17 16  2  0
 18 14  1  0
 19 18  2  0
 22 23  2  0
 22 21  1  0
 24 23  1  0
 25 24  2  0
 27 26  1  1
 26 25  1  0
 27 28  1  0
 28 18  1  0
 29 27  1  0
 29 33  1  0
 30 29  2  0
 31 25  1  0
 31 32  2  0
 32 22  1  0
M  END
$$$$
