YDY.pdb
     RDKit          3D

 33 34  0  0  1  0  0  0  0  0999 V2000
    4.8645  -10.4080   26.5215 O   0  0  0  0  0  0  0  0  0  0  0  0
    5.6488  -11.4953   26.1543 C   0  0  0  0  0  0  0  0  0  0  0  0
    6.7422  -11.2769   25.3423 C   0  0  0  0  0  0  0  0  0  0  0  0
    7.5166  -12.3382   24.9776 C   0  0  0  0  0  0  0  0  0  0  0  0
    7.2566  -13.6502   25.3888 C   0  0  0  0  0  0  0  0  0  0  0  0
    8.1280  -14.7732   24.9661 C   0  0  0  0  0  0  0  0  0  0  0  0
    7.4180  -15.5707   23.8928 C   0  0  2  0  0  0  0  0  0  0  0  0
    6.3890  -16.3616   24.5365 N   0  0  0  0  0  0  0  0  0  0  0  0
    8.3165  -16.4618   23.1588 C   0  0  0  0  0  0  0  0  0  0  0  0
    8.5530  -17.6135   23.5858 O   0  0  0  0  0  0  0  0  0  0  0  0
    6.1544  -13.8259   26.1997 C   0  0  0  0  0  0  0  0  0  0  0  0
    5.3473  -12.7714   26.5888 C   0  0  0  0  0  0  0  0  0  0  0  0
    8.9693  -16.0997   21.9429 N   0  0  0  0  0  0  0  0  0  0  0  0
   10.2678  -16.5776   21.5830 C   0  0  1  0  0  0  0  0  0  0  0  0
   10.7226  -16.1550   20.2182 C   0  0  0  0  0  0  0  0  0  0  0  0
   10.8098  -17.2496   19.2499 C   0  0  0  0  0  0  0  0  0  0  0  0
   10.9859  -17.0180   18.0379 O   0  0  0  0  0  0  0  0  0  0  0  0
   11.2640  -16.2276   22.6251 C   0  0  0  0  0  0  0  0  0  0  0  0
   11.5913  -15.0226   22.7575 O   0  0  0  0  0  0  0  0  0  0  0  0
   10.6998  -18.5593   19.6501 O   0  0  0  0  0  0  0  0  0  0  0  0
   11.3612  -15.5547   31.1171 O   0  0  0  0  0  0  0  0  0  0  0  0
   11.2154  -15.8153   29.7512 C   0  0  0  0  0  0  0  0  0  0  0  0
   11.2400  -14.8252   28.8023 C   0  0  0  0  0  0  0  0  0  0  0  0
   11.1022  -15.0218   27.4484 C   0  0  0  0  0  0  0  0  0  0  0  0
   10.9221  -16.3337   26.9953 C   0  0  0  0  0  0  0  0  0  0  0  0
   10.7526  -16.5917   25.5485 C   0  0  0  0  0  0  0  0  0  0  0  0
   12.0522  -16.9713   24.8891 C   0  0  2  0  0  0  0  0  0  0  0  0
   11.8361  -17.2259   23.4546 N   0  0  0  0  0  0  0  0  0  0  0  0
   12.6599  -18.1847   25.4767 C   0  0  0  0  0  0  0  0  0  0  0  0
   13.5844  -18.0661   26.3135 O   0  0  0  0  0  0  0  0  0  0  0  0
   10.8934  -17.3582   27.9417 C   0  0  0  0  0  0  0  0  0  0  0  0
   11.0357  -17.1166   29.2899 C   0  0  0  0  0  0  0  0  0  0  0  0
   12.2546  -19.4695   25.1457 O   0  0  0  0  0  0  0  0  0  0  0  0
  2  1  1  0
  3  2  2  0
  4  3  1  0
  5 11  1  0
  5  4  2  0
  6  5  1  0
  7  9  1  0
  7  6  1  0
  7  8  1  1
  9 10  2  0
 11 12  2  0
 12  2  1  0
 13 14  1  0
 13  9  1  0
 14 15  1  6
 15 16  1  0
 16 20  1  0
 17 16  2  0
 18 14  1  0
 19 18  2  0
 22 23  2  0
 22 21  1  0
 24 23  1  0
 25 24  2  0
 27 26  1  1
 26 25  1  0
 27 28  1  0
 28 18  1  0
 29 27  1  0
 29 33  1  0
 30 29  2  0
 31 25  1  0
 31 32  2  0
 32 22  1  0
M  END
$$$$
