YDY.pdb
     RDKit          3D

 33 34  0  0  1  0  0  0  0  0999 V2000
   14.4462  -21.8225    4.7446 O   0  0  0  0  0  0  0  0  0  0  0  0
   14.6835  -21.3055    6.0129 C   0  0  0  0  0  0  0  0  0  0  0  0
   15.5822  -20.2676    6.1456 C   0  0  0  0  0  0  0  0  0  0  0  0
   15.8205  -19.7549    7.3863 C   0  0  0  0  0  0  0  0  0  0  0  0
   15.1942  -20.2320    8.5430 C   0  0  0  0  0  0  0  0  0  0  0  0
   15.4857  -19.6420    9.8720 C   0  0  0  0  0  0  0  0  0  0  0  0
   14.3777  -18.6768   10.2362 C   0  0  2  0  0  0  0  0  0  0  0  0
   14.5599  -17.4753    9.4474 N   0  0  0  0  0  0  0  0  0  0  0  0
   14.3773  -18.3213   11.6553 C   0  0  0  0  0  0  0  0  0  0  0  0
   15.0184  -17.3257   12.0581 O   0  0  0  0  0  0  0  0  0  0  0  0
   14.3026  -21.2702    8.3673 C   0  0  0  0  0  0  0  0  0  0  0  0
   14.0373  -21.8141    7.1229 C   0  0  0  0  0  0  0  0  0  0  0  0
   13.6712  -19.0559   12.6540 N   0  0  0  0  0  0  0  0  0  0  0  0
   13.6867  -18.7018   14.0391 C   0  0  1  0  0  0  0  0  0  0  0  0
   12.4835  -19.1631   14.8057 C   0  0  0  0  0  0  0  0  0  0  0  0
   11.2964  -18.3273   14.6176 C   0  0  0  0  0  0  0  0  0  0  0  0
   11.3319  -17.3236   13.8794 O   0  0  0  0  0  0  0  0  0  0  0  0
   14.9483  -19.1457   14.6809 C   0  0  0  0  0  0  0  0  0  0  0  0
   15.4045  -20.2768   14.3820 O   0  0  0  0  0  0  0  0  0  0  0  0
   10.1131  -18.6260   15.2486 O   0  0  0  0  0  0  0  0  0  0  0  0
   19.5354  -17.9241   10.4419 O   0  0  0  0  0  0  0  0  0  0  0  0
   19.1567  -17.8753   11.7869 C   0  0  0  0  0  0  0  0  0  0  0  0
   19.2267  -18.9662   12.6154 C   0  0  0  0  0  0  0  0  0  0  0  0
   18.8689  -18.9771   13.9430 C   0  0  0  0  0  0  0  0  0  0  0  0
   18.3948  -17.7838   14.5000 C   0  0  0  0  0  0  0  0  0  0  0  0
   17.9823  -17.7522   15.9203 C   0  0  0  0  0  0  0  0  0  0  0  0
   16.8975  -18.7549   16.2132 C   0  0  2  0  0  0  0  0  0  0  0  0
   15.6272  -18.3165   15.6102 N   0  0  0  0  0  0  0  0  0  0  0  0
   16.6683  -18.9442   17.6618 C   0  0  0  0  0  0  0  0  0  0  0  0
   16.8590  -20.0719   18.1726 O   0  0  0  0  0  0  0  0  0  0  0  0
   18.3143  -16.6603   13.6771 C   0  0  0  0  0  0  0  0  0  0  0  0
   18.6837  -16.6934   12.3509 C   0  0  0  0  0  0  0  0  0  0  0  0
   16.2461  -17.9228   18.5005 O   0  0  0  0  0  0  0  0  0  0  0  0
  2  1  1  0
  3  2  2  0
  4  3  1  0
  5 11  1  0
  5  4  2  0
  6  5  1  0
  7  9  1  0
  7  6  1  0
  7  8  1  6
  9 10  2  0
 11 12  2  0
 12  2  1  0
 13 14  1  0
 13  9  1  0
 14 15  1  1
 15 16  1  0
 16 20  1  0
 17 16  2  0
 18 14  1  0
 19 18  2  0
 22 23  2  0
 22 21  1  0
 24 23  1  0
 25 24  2  0
 27 26  1  1
 26 25  1  0
 27 28  1  0
 28 18  1  0
 29 27  1  0
 29 33  1  0
 30 29  2  0
 31 25  1  0
 31 32  2  0
 32 22  1  0
M  END
$$$$
