YDY.pdb
     RDKit          3D

 33 34  0  0  1  0  0  0  0  0999 V2000
    7.1924  -14.3330   15.0968 O   0  0  0  0  0  0  0  0  0  0  0  0
    7.2386  -14.2266   16.4819 C   0  0  0  0  0  0  0  0  0  0  0  0
    7.7847  -13.0892   17.0392 C   0  0  0  0  0  0  0  0  0  0  0  0
    7.8337  -12.9771   18.3971 C   0  0  0  0  0  0  0  0  0  0  0  0
    7.3538  -13.9661   19.2628 C   0  0  0  0  0  0  0  0  0  0  0  0
    7.4287  -13.7994   20.7345 C   0  0  0  0  0  0  0  0  0  0  0  0
    8.8686  -13.9555   21.1753 C   0  0  2  0  0  0  0  0  0  0  0  0
    9.7130  -13.7183   20.0222 N   0  0  0  0  0  0  0  0  0  0  0  0
    9.1572  -15.2849   21.7136 C   0  0  0  0  0  0  0  0  0  0  0  0
    8.4834  -15.7429   22.6627 O   0  0  0  0  0  0  0  0  0  0  0  0
    6.8156  -15.0875   18.6658 C   0  0  0  0  0  0  0  0  0  0  0  0
    6.7502  -15.2337   17.2914 C   0  0  0  0  0  0  0  0  0  0  0  0
   10.1921  -16.1316   21.2160 N   0  0  0  0  0  0  0  0  0  0  0  0
   10.6070  -17.3280   21.8796 C   0  0  1  0  0  0  0  0  0  0  0  0
   11.2577  -18.3363   20.9807 C   0  0  0  0  0  0  0  0  0  0  0  0
   10.8591  -18.2325   19.5759 C   0  0  0  0  0  0  0  0  0  0  0  0
    9.8119  -17.6397   19.2509 O   0  0  0  0  0  0  0  0  0  0  0  0
   11.4578  -17.0103   23.0527 C   0  0  0  0  0  0  0  0  0  0  0  0
   12.1065  -15.9352   23.0461 O   0  0  0  0  0  0  0  0  0  0  0  0
   11.6271  -18.7846   18.5794 O   0  0  0  0  0  0  0  0  0  0  0  0
    9.6759  -14.1685   30.7991 O   0  0  0  0  0  0  0  0  0  0  0  0
    9.9106  -14.6337   29.5017 C   0  0  0  0  0  0  0  0  0  0  0  0
   10.6929  -15.7293   29.2386 C   0  0  0  0  0  0  0  0  0  0  0  0
   10.9581  -16.2311   27.9862 C   0  0  0  0  0  0  0  0  0  0  0  0
   10.3880  -15.5772   26.8879 C   0  0  0  0  0  0  0  0  0  0  0  0
   10.6591  -16.0713   25.5201 C   0  0  0  0  0  0  0  0  0  0  0  0
   11.3849  -17.3907   25.5326 C   0  0  2  0  0  0  0  0  0  0  0  0
   11.5400  -17.8958   24.1577 N   0  0  0  0  0  0  0  0  0  0  0  0
   10.6781  -18.4261   26.3171 C   0  0  0  0  0  0  0  0  0  0  0  0
   10.5069  -18.2565   27.5462 O   0  0  0  0  0  0  0  0  0  0  0  0
    9.5885  -14.4600   27.1300 C   0  0  0  0  0  0  0  0  0  0  0  0
    9.3485  -13.9905   28.4022 C   0  0  0  0  0  0  0  0  0  0  0  0
   10.1860  -19.5955   25.7557 O   0  0  0  0  0  0  0  0  0  0  0  0
  2  1  1  0
  3  2  2  0
  4  3  1  0
  5 11  1  0
  5  4  2  0
  6  5  1  0
  7  9  1  0
  7  6  1  0
  7  8  1  6
  9 10  2  0
 11 12  2  0
 12  2  1  0
 13 14  1  0
 13  9  1  0
 14 15  1  6
 15 16  1  0
 16 20  1  0
 17 16  2  0
 18 14  1  0
 19 18  2  0
 22 23  2  0
 22 21  1  0
 24 23  1  0
 25 24  2  0
 27 26  1  6
 26 25  1  0
 27 28  1  0
 28 18  1  0
 29 27  1  0
 29 33  1  0
 30 29  2  0
 31 25  1  0
 31 32  2  0
 32 22  1  0
M  END
$$$$
