DLR.pdb
     RDKit          3D

 28 27  0  0  1  0  0  0  0  0999 V2000
   22.0025  -13.4004  -17.5992 N   0  0  0  0  0  0  0  0  0  0  0  0
   21.1680  -12.6115  -16.7544 C   0  0  1  0  0  0  0  0  0  0  0  0
   20.4481  -13.4143  -15.6936 C   0  0  0  0  0  0  0  0  0  0  0  0
   19.5669  -14.3938  -16.3778 C   0  0  0  0  0  0  0  0  0  0  0  0
   19.2012  -14.2635  -17.5602 O   0  0  0  0  0  0  0  0  0  0  0  0
   21.8173  -11.4078  -16.1884 C   0  0  0  0  0  0  0  0  0  0  0  0
   21.2355  -10.7805  -15.2820 O   0  0  0  0  0  0  0  0  0  0  0  0
   19.1008  -15.5337  -15.6992 O   0  0  0  0  0  0  0  0  0  0  0  0
   27.4059  -11.1295  -16.4353 C   0  0  0  0  0  0  0  0  0  0  0  0
   25.9829  -11.0626  -15.9602 C   0  0  1  0  0  0  0  0  0  0  0  0
   26.0343  -11.0847  -14.4259 C   0  0  0  0  0  0  0  0  0  0  0  0
   25.2176   -9.8600  -16.4395 C   0  0  0  0  0  0  0  0  0  0  0  0
   23.7910   -9.8059  -16.0856 C   0  0  2  0  0  0  0  0  0  0  0  0
   23.0557  -10.9472  -16.6301 N   0  0  0  0  0  0  0  0  0  0  0  0
   23.0664   -8.5532  -16.2257 C   0  0  0  0  0  0  0  0  0  0  0  0
   22.8285   -8.1536  -17.4217 O   0  0  0  0  0  0  0  0  0  0  0  0
   15.0799   -6.1449  -15.4580 N   0  0  0  0  0  0  0  0  0  0  0  0
   15.7320   -4.9343  -15.8685 C   0  0  0  0  0  0  0  0  0  0  0  0
   15.0400   -3.8826  -16.1835 N   0  0  0  0  0  0  0  0  0  0  0  0
   17.1316   -4.8665  -15.9358 N   0  0  0  0  0  0  0  0  0  0  0  0
   17.9805   -5.9993  -15.6391 C   0  0  0  0  0  0  0  0  0  0  0  0
   19.4564   -5.6595  -15.6806 C   0  0  0  0  0  0  0  0  0  0  0  0
   20.3203   -6.8484  -15.3972 C   0  0  0  0  0  0  0  0  0  0  0  0
   21.7667   -6.5213  -15.4752 C   0  0  2  0  0  0  0  0  0  0  0  0
   22.5860   -7.7130  -15.2081 N   0  0  0  0  0  0  0  0  0  0  0  0
   22.1106   -5.4448  -14.5423 C   0  0  0  0  0  0  0  0  0  0  0  0
   22.5566   -5.7857  -13.3867 O   0  0  0  0  0  0  0  0  0  0  0  0
   22.0185   -4.0945  -14.7467 O   0  0  0  0  0  0  0  0  0  0  0  0
  2  1  1  1
  2  3  1  0
  3  4  1  0
  4  5  2  0
  6  7  2  0
  6  2  1  0
  8  4  1  0
 10  9  1  6
 10 12  1  0
 11 10  1  0
 13 12  1  6
 13 14  1  0
 14  6  1  0
 15 13  1  0
 16 15  2  0
 18 17  1  0
 19 18  2  0
 20 18  1  0
 21 20  1  0
 22 21  1  0
 23 22  1  0
 24 23  1  1
 24 25  1  0
 25 15  1  0
 26 24  1  0
 26 28  1  0
 27 26  2  0
M  END
$$$$
