DLR.pdb
     RDKit          3D

 28 27  0  0  1  0  0  0  0  0999 V2000
   20.8650  -21.6996  -16.3280 N   0  0  0  0  0  0  0  0  0  0  0  0
   21.8400  -21.9163  -15.3107 C   0  0  1  0  0  0  0  0  0  0  0  0
   23.1667  -21.2457  -15.5904 C   0  0  0  0  0  0  0  0  0  0  0  0
   23.6701  -21.7486  -16.8934 C   0  0  0  0  0  0  0  0  0  0  0  0
   23.0464  -22.5730  -17.5863 O   0  0  0  0  0  0  0  0  0  0  0  0
   21.3691  -21.6529  -13.9325 C   0  0  0  0  0  0  0  0  0  0  0  0
   22.1523  -21.8456  -12.9821 O   0  0  0  0  0  0  0  0  0  0  0  0
   24.9006  -21.3017  -17.4063 O   0  0  0  0  0  0  0  0  0  0  0  0
   19.1643  -17.0135  -12.3413 C   0  0  0  0  0  0  0  0  0  0  0  0
   19.8531  -18.3479  -12.3345 C   0  0  1  0  0  0  0  0  0  0  0  0
   20.7585  -18.3647  -11.0948 C   0  0  0  0  0  0  0  0  0  0  0  0
   18.9261  -19.5320  -12.3198 C   0  0  0  0  0  0  0  0  0  0  0  0
   19.5577  -20.8603  -12.3317 C   0  0  2  0  0  0  0  0  0  0  0  0
   20.0821  -21.1972  -13.6549 N   0  0  0  0  0  0  0  0  0  0  0  0
   18.8823  -21.9790  -11.6944 C   0  0  0  0  0  0  0  0  0  0  0  0
   18.1603  -22.7245  -12.4491 O   0  0  0  0  0  0  0  0  0  0  0  0
   16.3183  -26.4228   -4.9220 N   0  0  0  0  0  0  0  0  0  0  0  0
   17.2216  -27.3674   -5.5144 C   0  0  0  0  0  0  0  0  0  0  0  0
   17.0609  -28.6423   -5.3322 N   0  0  0  0  0  0  0  0  0  0  0  0
   18.2956  -26.9283   -6.3028 N   0  0  0  0  0  0  0  0  0  0  0  0
   18.5319  -25.5298   -6.5862 C   0  0  0  0  0  0  0  0  0  0  0  0
   17.9749  -25.0955   -7.9266 C   0  0  0  0  0  0  0  0  0  0  0  0
   18.6982  -23.9096   -8.4840 C   0  0  0  0  0  0  0  0  0  0  0  0
   18.1685  -23.5027   -9.8102 C   0  0  2  0  0  0  0  0  0  0  0  0
   18.9188  -22.3550  -10.3417 N   0  0  0  0  0  0  0  0  0  0  0  0
   16.7400  -23.1859   -9.7281 C   0  0  0  0  0  0  0  0  0  0  0  0
   16.4194  -21.9662   -9.4828 O   0  0  0  0  0  0  0  0  0  0  0  0
   15.6801  -24.0380   -9.8837 O   0  0  0  0  0  0  0  0  0  0  0  0
  2  1  1  6
  2  3  1  0
  3  4  1  0
  4  5  2  0
  6  7  2  0
  6  2  1  0
  8  4  1  0
 10  9  1  1
 10 12  1  0
 11 10  1  0
 13 12  1  6
 13 14  1  0
 14  6  1  0
 15 13  1  0
 16 15  2  0
 18 17  1  0
 19 18  2  0
 20 18  1  0
 21 20  1  0
 22 21  1  0
 23 22  1  0
 24 23  1  1
 24 25  1  0
 25 15  1  0
 26 24  1  0
 26 28  1  0
 27 26  2  0
M  END
$$$$
