DLR.pdb
     RDKit          3D

 28 27  0  0  1  0  0  0  0  0999 V2000
   26.6076  -23.5052  -16.9512 N   0  0  0  0  0  0  0  0  0  0  0  0
   25.6883  -22.4163  -16.9104 C   0  0  1  0  0  0  0  0  0  0  0  0
   25.0081  -22.1479  -18.2346 C   0  0  0  0  0  0  0  0  0  0  0  0
   26.0580  -21.8245  -19.2332 C   0  0  0  0  0  0  0  0  0  0  0  0
   26.0409  -22.2627  -20.3979 O   0  0  0  0  0  0  0  0  0  0  0  0
   24.7192  -22.4627  -15.7926 C   0  0  0  0  0  0  0  0  0  0  0  0
   23.9236  -23.4198  -15.7256 O   0  0  0  0  0  0  0  0  0  0  0  0
   27.1377  -20.9907  -18.8926 O   0  0  0  0  0  0  0  0  0  0  0  0
   26.1170  -20.6845  -10.7724 C   0  0  0  0  0  0  0  0  0  0  0  0
   25.4858  -21.4439  -11.9039 C   0  0  1  0  0  0  0  0  0  0  0  0
   25.0985  -22.8195  -11.3429 C   0  0  0  0  0  0  0  0  0  0  0  0
   24.2872  -20.7740  -12.5171 C   0  0  0  0  0  0  0  0  0  0  0  0
   23.7072  -21.4233  -13.7027 C   0  0  2  0  0  0  0  0  0  0  0  0
   24.6611  -21.4763  -14.8104 N   0  0  0  0  0  0  0  0  0  0  0  0
   22.3670  -21.0600  -14.1333 C   0  0  0  0  0  0  0  0  0  0  0  0
   22.2313  -19.9154  -14.6975 O   0  0  0  0  0  0  0  0  0  0  0  0
   15.9696  -26.4815  -13.3837 N   0  0  0  0  0  0  0  0  0  0  0  0
   15.6959  -25.1087  -13.0676 C   0  0  0  0  0  0  0  0  0  0  0  0
   14.4893  -24.7204  -12.7891 N   0  0  0  0  0  0  0  0  0  0  0  0
   16.7302  -24.1611  -13.0536 N   0  0  0  0  0  0  0  0  0  0  0  0
   18.1088  -24.5101  -13.3176 C   0  0  0  0  0  0  0  0  0  0  0  0
   19.0463  -23.3229  -13.2326 C   0  0  0  0  0  0  0  0  0  0  0  0
   18.8409  -22.3564  -14.3566 C   0  0  0  0  0  0  0  0  0  0  0  0
   19.8604  -21.2768  -14.3606 C   0  0  2  0  0  0  0  0  0  0  0  0
   21.1858  -21.8098  -14.0111 N   0  0  0  0  0  0  0  0  0  0  0  0
   19.4843  -20.1988  -13.4419 C   0  0  0  0  0  0  0  0  0  0  0  0
   18.3642  -19.6065  -13.6544 O   0  0  0  0  0  0  0  0  0  0  0  0
   20.1850  -19.7319  -12.3627 O   0  0  0  0  0  0  0  0  0  0  0  0
  2  1  1  6
  2  3  1  0
  3  4  1  0
  4  5  2  0
  6  7  2  0
  6  2  1  0
  8  4  1  0
 10  9  1  1
 10 12  1  0
 11 10  1  0
 13 12  1  1
 13 14  1  0
 14  6  1  0
 15 13  1  0
 16 15  2  0
 18 17  1  0
 19 18  2  0
 20 18  1  0
 21 20  1  0
 22 21  1  0
 23 22  1  0
 24 23  1  1
 24 25  1  0
 25 15  1  0
 26 24  1  0
 26 28  1  0
 27 26  2  0
M  END
$$$$
