DLR.pdb
     RDKit          3D

 28 27  0  0  1  0  0  0  0  0999 V2000
   26.5433  -19.0586  -15.3606 N   0  0  0  0  0  0  0  0  0  0  0  0
   25.4768  -19.8419  -15.8914 C   0  0  1  0  0  0  0  0  0  0  0  0
   25.9016  -20.7616  -17.0146 C   0  0  0  0  0  0  0  0  0  0  0  0
   26.6021  -19.9448  -18.0375 C   0  0  0  0  0  0  0  0  0  0  0  0
   27.7268  -20.2377  -18.4823 O   0  0  0  0  0  0  0  0  0  0  0  0
   24.6615  -20.5490  -14.8786 C   0  0  0  0  0  0  0  0  0  0  0  0
   24.0809  -21.6032  -15.2031 O   0  0  0  0  0  0  0  0  0  0  0  0
   26.0067  -18.7808  -18.5549 O   0  0  0  0  0  0  0  0  0  0  0  0
   26.2529  -20.3742   -9.6179 C   0  0  0  0  0  0  0  0  0  0  0  0
   25.7011  -20.8065  -10.9460 C   0  0  1  0  0  0  0  0  0  0  0  0
   25.8623  -22.3320  -11.0090 C   0  0  0  0  0  0  0  0  0  0  0  0
   24.2667  -20.4229  -11.1840 C   0  0  0  0  0  0  0  0  0  0  0  0
   23.7228  -20.7119  -12.5197 C   0  0  2  0  0  0  0  0  0  0  0  0
   24.5168  -20.0817  -13.5741 N   0  0  0  0  0  0  0  0  0  0  0  0
   22.2919  -20.5960  -12.7497 C   0  0  0  0  0  0  0  0  0  0  0  0
   21.8364  -19.4181  -12.9769 O   0  0  0  0  0  0  0  0  0  0  0  0
   15.3589  -25.8899  -14.9796 N   0  0  0  0  0  0  0  0  0  0  0  0
   14.8826  -24.5362  -14.9875 C   0  0  0  0  0  0  0  0  0  0  0  0
   13.6830  -24.2580  -15.3972 N   0  0  0  0  0  0  0  0  0  0  0  0
   15.7068  -23.4884  -14.5510 N   0  0  0  0  0  0  0  0  0  0  0  0
   17.0690  -23.7007  -14.1134 C   0  0  0  0  0  0  0  0  0  0  0  0
   17.7733  -22.4160  -13.7272 C   0  0  0  0  0  0  0  0  0  0  0  0
   19.2175  -22.6366  -13.4023 C   0  0  0  0  0  0  0  0  0  0  0  0
   19.9048  -21.3767  -13.0211 C   0  0  2  0  0  0  0  0  0  0  0  0
   21.3308  -21.6201  -12.7564 N   0  0  0  0  0  0  0  0  0  0  0  0
   19.2652  -20.7647  -11.8532 C   0  0  0  0  0  0  0  0  0  0  0  0
   19.6988  -21.1104  -10.6943 O   0  0  0  0  0  0  0  0  0  0  0  0
   18.2455  -19.8517  -11.8358 O   0  0  0  0  0  0  0  0  0  0  0  0
  2  1  1  1
  2  3  1  0
  3  4  1  0
  4  5  2  0
  6  7  2  0
  6  2  1  0
  8  4  1  0
 10  9  1  1
 10 12  1  0
 11 10  1  0
 13 12  1  1
 13 14  1  0
 14  6  1  0
 15 13  1  0
 16 15  2  0
 18 17  1  0
 19 18  2  0
 20 18  1  0
 21 20  1  0
 22 21  1  0
 23 22  1  0
 24 23  1  1
 24 25  1  0
 25 15  1  0
 26 24  1  0
 26 28  1  0
 27 26  2  0
M  END
$$$$
