DLR.pdb
     RDKit          3D

 28 27  0  0  1  0  0  0  0  0999 V2000
   16.4048  -12.2750    4.7137 N   0  0  0  0  0  0  0  0  0  0  0  0
   16.6704  -12.3298    6.1133 C   0  0  1  0  0  0  0  0  0  0  0  0
   15.5150  -12.8669    6.9285 C   0  0  0  0  0  0  0  0  0  0  0  0
   14.4782  -11.8074    7.0097 C   0  0  0  0  0  0  0  0  0  0  0  0
   13.3007  -11.9849    6.6480 O   0  0  0  0  0  0  0  0  0  0  0  0
   17.9503  -12.9776    6.4780 C   0  0  0  0  0  0  0  0  0  0  0  0
   18.3468  -13.9481    5.8038 O   0  0  0  0  0  0  0  0  0  0  0  0
   14.7950  -10.5324    7.5106 O   0  0  0  0  0  0  0  0  0  0  0  0
   23.3751  -12.5904    8.0257 C   0  0  0  0  0  0  0  0  0  0  0  0
   22.2449  -12.5815    9.0146 C   0  0  1  0  0  0  0  0  0  0  0  0
   22.6950  -11.6928   10.1827 C   0  0  0  0  0  0  0  0  0  0  0  0
   20.9333  -12.0944    8.4634 C   0  0  0  0  0  0  0  0  0  0  0  0
   20.0059  -13.1238    7.9696 C   0  0  2  0  0  0  0  0  0  0  0  0
   18.7309  -12.5444    7.5476 N   0  0  0  0  0  0  0  0  0  0  0  0
   19.8403  -14.3571    8.7215 C   0  0  0  0  0  0  0  0  0  0  0  0
   19.0766  -14.3081    9.7516 O   0  0  0  0  0  0  0  0  0  0  0  0
   15.6188  -20.5281    6.1407 N   0  0  0  0  0  0  0  0  0  0  0  0
   15.0723  -19.4064    6.8496 C   0  0  0  0  0  0  0  0  0  0  0  0
   13.7900  -19.2123    6.8958 N   0  0  0  0  0  0  0  0  0  0  0  0
   15.9165  -18.4990    7.5067 N   0  0  0  0  0  0  0  0  0  0  0  0
   17.3387  -18.7215    7.6477 C   0  0  0  0  0  0  0  0  0  0  0  0
   18.0375  -17.6161    8.4127 C   0  0  0  0  0  0  0  0  0  0  0  0
   19.5061  -17.8665    8.5564 C   0  0  0  0  0  0  0  0  0  0  0  0
   20.1867  -16.7876    9.3165 C   0  0  2  0  0  0  0  0  0  0  0  0
   20.4148  -15.6122    8.4625 N   0  0  0  0  0  0  0  0  0  0  0  0
   21.4529  -17.2635    9.8801 C   0  0  0  0  0  0  0  0  0  0  0  0
   22.5242  -17.0180    9.2146 O   0  0  0  0  0  0  0  0  0  0  0  0
   21.6476  -17.9486   11.0490 O   0  0  0  0  0  0  0  0  0  0  0  0
  2  1  1  6
  2  3  1  0
  3  4  1  0
  4  5  2  0
  6  7  2  0
  6  2  1  0
  8  4  1  0
 10  9  1  6
 10 12  1  0
 11 10  1  0
 13 12  1  1
 13 14  1  0
 14  6  1  0
 15 13  1  0
 16 15  2  0
 18 17  1  0
 19 18  2  0
 20 18  1  0
 21 20  1  0
 22 21  1  0
 23 22  1  0
 24 23  1  6
 24 25  1  0
 25 15  1  0
 26 24  1  0
 26 28  1  0
 27 26  2  0
M  END
$$$$
