DLR.pdb
     RDKit          3D

 28 27  0  0  1  0  0  0  0  0999 V2000
   27.7851  -20.5763  -17.4281 N   0  0  0  0  0  0  0  0  0  0  0  0
   27.4933  -21.9554  -17.2143 C   0  0  1  0  0  0  0  0  0  0  0  0
   28.6991  -22.8581  -17.3524 C   0  0  0  0  0  0  0  0  0  0  0  0
   29.5320  -22.3447  -18.4691 C   0  0  0  0  0  0  0  0  0  0  0  0
   29.2616  -22.5543  -19.6657 O   0  0  0  0  0  0  0  0  0  0  0  0
   26.7269  -22.2445  -15.9815 C   0  0  0  0  0  0  0  0  0  0  0  0
   26.4485  -23.4287  -15.7101 O   0  0  0  0  0  0  0  0  0  0  0  0
   30.6857  -21.5837  -18.2108 O   0  0  0  0  0  0  0  0  0  0  0  0
   26.0540  -22.1275  -10.5145 C   0  0  0  0  0  0  0  0  0  0  0  0
   25.7044  -20.9391  -11.3634 C   0  0  1  0  0  0  0  0  0  0  0  0
   26.0845  -19.6947  -10.5486 C   0  0  0  0  0  0  0  0  0  0  0  0
   26.3781  -20.9087  -12.7075 C   0  0  0  0  0  0  0  0  0  0  0  0
   25.6091  -21.4477  -13.8396 C   0  0  2  0  0  0  0  0  0  0  0  0
   26.3035  -21.2428  -15.1106 N   0  0  0  0  0  0  0  0  0  0  0  0
   24.1834  -21.1770  -13.9292 C   0  0  0  0  0  0  0  0  0  0  0  0
   23.8063  -19.9757  -13.6816 O   0  0  0  0  0  0  0  0  0  0  0  0
   18.8406  -24.7522   -9.0415 N   0  0  0  0  0  0  0  0  0  0  0  0
   18.3256  -24.6258  -10.3749 C   0  0  0  0  0  0  0  0  0  0  0  0
   17.4660  -25.4812  -10.8373 N   0  0  0  0  0  0  0  0  0  0  0  0
   18.7426  -23.5731  -11.2029 N   0  0  0  0  0  0  0  0  0  0  0  0
   19.8010  -22.6612  -10.8285 C   0  0  0  0  0  0  0  0  0  0  0  0
   20.1904  -21.7157  -11.9465 C   0  0  0  0  0  0  0  0  0  0  0  0
   21.6089  -21.9078  -12.3835 C   0  0  0  0  0  0  0  0  0  0  0  0
   21.7517  -21.8577  -13.8607 C   0  0  2  0  0  0  0  0  0  0  0  0
   23.1517  -22.0718  -14.2568 N   0  0  0  0  0  0  0  0  0  0  0  0
   21.2595  -20.5833  -14.3909 C   0  0  0  0  0  0  0  0  0  0  0  0
   21.8311  -19.5108  -13.9743 O   0  0  0  0  0  0  0  0  0  0  0  0
   20.2497  -20.3825  -15.2929 O   0  0  0  0  0  0  0  0  0  0  0  0
  2  1  1  1
  2  3  1  0
  3  4  1  0
  4  5  2  0
  6  7  2  0
  6  2  1  0
  8  4  1  0
 10  9  1  1
 10 12  1  0
 11 10  1  0
 13 12  1  1
 13 14  1  0
 14  6  1  0
 15 13  1  0
 16 15  2  0
 18 17  1  0
 19 18  2  0
 20 18  1  0
 21 20  1  0
 22 21  1  0
 23 22  1  0
 24 23  1  1
 24 25  1  0
 25 15  1  0
 26 24  1  0
 26 28  1  0
 27 26  2  0
M  END
$$$$
