DLR.pdb
     RDKit          3D

 28 27  0  0  1  0  0  0  0  0999 V2000
   17.3146  -10.7999  -15.4707 N   0  0  0  0  0  0  0  0  0  0  0  0
   17.7025   -9.4534  -15.2081 C   0  0  1  0  0  0  0  0  0  0  0  0
   16.7691   -8.4260  -15.8090 C   0  0  0  0  0  0  0  0  0  0  0  0
   16.9206   -8.4751  -17.2851 C   0  0  0  0  0  0  0  0  0  0  0  0
   16.9319   -9.5404  -17.9283 O   0  0  0  0  0  0  0  0  0  0  0  0
   18.0059   -9.1594  -13.7896 C   0  0  0  0  0  0  0  0  0  0  0  0
   17.3186   -9.7019  -12.9026 O   0  0  0  0  0  0  0  0  0  0  0  0
   17.0604   -7.2910  -18.0303 O   0  0  0  0  0  0  0  0  0  0  0  0
   23.1893   -8.4129  -12.1018 C   0  0  0  0  0  0  0  0  0  0  0  0
   21.7326   -8.7751  -12.1453 C   0  0  1  0  0  0  0  0  0  0  0  0
   21.5291   -9.8881  -11.1076 C   0  0  0  0  0  0  0  0  0  0  0  0
   20.7938   -7.6318  -11.8754 C   0  0  0  0  0  0  0  0  0  0  0  0
   19.3581   -7.9097  -12.0341 C   0  0  2  0  0  0  0  0  0  0  0  0
   19.0316   -8.2981  -13.4060 N   0  0  0  0  0  0  0  0  0  0  0  0
   18.3848   -6.9924  -11.4640 C   0  0  0  0  0  0  0  0  0  0  0  0
   18.1151   -5.9388  -12.1452 O   0  0  0  0  0  0  0  0  0  0  0  0
   10.9494   -8.4567   -8.8009 N   0  0  0  0  0  0  0  0  0  0  0  0
   11.9004   -8.2831   -7.7402 C   0  0  0  0  0  0  0  0  0  0  0  0
   11.6686   -8.7635   -6.5571 N   0  0  0  0  0  0  0  0  0  0  0  0
   13.0994   -7.5906   -7.9647 N   0  0  0  0  0  0  0  0  0  0  0  0
   13.1429   -6.3034   -8.6229 C   0  0  0  0  0  0  0  0  0  0  0  0
   14.5416   -5.7264   -8.7023 C   0  0  0  0  0  0  0  0  0  0  0  0
   15.5453   -6.7342   -9.1681 C   0  0  0  0  0  0  0  0  0  0  0  0
   16.7460   -6.0952   -9.7639 C   0  0  2  0  0  0  0  0  0  0  0  0
   17.6916   -7.1119  -10.2485 N   0  0  0  0  0  0  0  0  0  0  0  0
   17.3998   -5.2079   -8.7981 C   0  0  0  0  0  0  0  0  0  0  0  0
   18.4295   -5.6648   -8.1802 O   0  0  0  0  0  0  0  0  0  0  0  0
   17.0503   -3.9277   -8.4626 O   0  0  0  0  0  0  0  0  0  0  0  0
  2  1  1  1
  2  3  1  0
  3  4  1  0
  4  5  2  0
  6  7  2  0
  6  2  1  0
  8  4  1  0
 10  9  1  1
 10 12  1  0
 11 10  1  0
 13 12  1  6
 13 14  1  0
 14  6  1  0
 15 13  1  0
 16 15  2  0
 18 17  1  0
 19 18  2  0
 20 18  1  0
 21 20  1  0
 22 21  1  0
 23 22  1  0
 24 23  1  1
 24 25  1  0
 25 15  1  0
 26 24  1  0
 26 28  1  0
 27 26  2  0
M  END
$$$$
