DLR.pdb
     RDKit          3D

 28 27  0  0  1  0  0  0  0  0999 V2000
   14.8439  -21.8826    0.7486 N   0  0  0  0  0  0  0  0  0  0  0  0
   14.4836  -20.8219    1.6304 C   0  0  1  0  0  0  0  0  0  0  0  0
   13.4020  -21.1969    2.6190 C   0  0  0  0  0  0  0  0  0  0  0  0
   12.2169  -21.6558    1.8514 C   0  0  0  0  0  0  0  0  0  0  0  0
   11.6914  -20.9776    0.9500 O   0  0  0  0  0  0  0  0  0  0  0  0
   15.6241  -20.1482    2.2907 C   0  0  0  0  0  0  0  0  0  0  0  0
   16.4445  -20.8385    2.9263 O   0  0  0  0  0  0  0  0  0  0  0  0
   11.6291  -22.9045    2.1204 O   0  0  0  0  0  0  0  0  0  0  0  0
   19.5937  -16.4423    3.1151 C   0  0  0  0  0  0  0  0  0  0  0  0
   18.2178  -15.8887    2.8797 C   0  0  1  0  0  0  0  0  0  0  0  0
   18.3993  -14.6066    2.0549 C   0  0  0  0  0  0  0  0  0  0  0  0
   17.2744  -16.8291    2.1818 C   0  0  0  0  0  0  0  0  0  0  0  0
   16.8495  -18.0155    2.9404 C   0  0  2  0  0  0  0  0  0  0  0  0
   15.8172  -18.7698    2.2298 N   0  0  0  0  0  0  0  0  0  0  0  0
   16.5766  -17.8946    4.3633 C   0  0  0  0  0  0  0  0  0  0  0  0
   15.4649  -17.3458    4.6942 O   0  0  0  0  0  0  0  0  0  0  0  0
   14.3995  -22.5693    8.8376 N   0  0  0  0  0  0  0  0  0  0  0  0
   15.7048  -22.9504    8.3790 C   0  0  0  0  0  0  0  0  0  0  0  0
   15.8713  -24.0268    7.6734 N   0  0  0  0  0  0  0  0  0  0  0  0
   16.8253  -22.1640    8.6855 N   0  0  0  0  0  0  0  0  0  0  0  0
   16.7276  -20.9262    9.4274 C   0  0  0  0  0  0  0  0  0  0  0  0
   16.3055  -19.7526    8.5671 C   0  0  0  0  0  0  0  0  0  0  0  0
   17.4038  -19.2886    7.6624 C   0  0  0  0  0  0  0  0  0  0  0  0
   16.9985  -18.1178    6.8440 C   0  0  2  0  0  0  0  0  0  0  0  0
   17.3826  -18.3069    5.4370 N   0  0  0  0  0  0  0  0  0  0  0  0
   17.5838  -16.8825    7.3721 C   0  0  0  0  0  0  0  0  0  0  0  0
   16.8629  -16.1838    8.1738 O   0  0  0  0  0  0  0  0  0  0  0  0
   18.8258  -16.3659    7.1187 O   0  0  0  0  0  0  0  0  0  0  0  0
  2  1  1  1
  2  3  1  0
  3  4  1  0
  4  5  2  0
  6  7  2  0
  6  2  1  0
  8  4  1  0
 10  9  1  6
 10 12  1  0
 11 10  1  0
 13 12  1  6
 13 14  1  0
 14  6  1  0
 15 13  1  0
 16 15  2  0
 18 17  1  0
 19 18  2  0
 20 18  1  0
 21 20  1  0
 22 21  1  0
 23 22  1  0
 24 23  1  1
 24 25  1  0
 25 15  1  0
 26 24  1  0
 26 28  1  0
 27 26  2  0
M  END
$$$$
