DLR.pdb
     RDKit          3D

 28 27  0  0  1  0  0  0  0  0999 V2000
   24.6759  -21.3506  -14.4107 N   0  0  0  0  0  0  0  0  0  0  0  0
   24.3993  -20.4148  -13.3714 C   0  0  1  0  0  0  0  0  0  0  0  0
   23.0701  -19.7101  -13.5288 C   0  0  0  0  0  0  0  0  0  0  0  0
   23.0571  -19.0450  -14.8561 C   0  0  0  0  0  0  0  0  0  0  0  0
   24.0244  -18.3986  -15.2978 O   0  0  0  0  0  0  0  0  0  0  0  0
   24.5872  -20.9365  -11.9991 C   0  0  0  0  0  0  0  0  0  0  0  0
   24.3883  -22.1480  -11.7837 O   0  0  0  0  0  0  0  0  0  0  0  0
   21.9236  -19.1221  -15.6845 O   0  0  0  0  0  0  0  0  0  0  0  0
   26.7463  -21.4151   -6.9694 C   0  0  0  0  0  0  0  0  0  0  0  0
   26.1406  -20.0835   -7.3090 C   0  0  1  0  0  0  0  0  0  0  0  0
   27.0031  -19.0219   -6.6119 C   0  0  0  0  0  0  0  0  0  0  0  0
   26.0464  -19.7948   -8.7818 C   0  0  0  0  0  0  0  0  0  0  0  0
   24.9971  -20.5090   -9.5250 C   0  0  2  0  0  0  0  0  0  0  0  0
   24.9782  -20.1250  -10.9363 N   0  0  0  0  0  0  0  0  0  0  0  0
   23.6640  -20.6164   -8.9549 C   0  0  0  0  0  0  0  0  0  0  0  0
   22.9274  -19.5668   -9.0052 O   0  0  0  0  0  0  0  0  0  0  0  0
   16.7067  -23.0712  -10.9349 N   0  0  0  0  0  0  0  0  0  0  0  0
   18.0593  -23.5032  -11.1422 C   0  0  0  0  0  0  0  0  0  0  0  0
   18.5221  -23.6804  -12.3416 N   0  0  0  0  0  0  0  0  0  0  0  0
   18.9065  -23.7413  -10.0497 N   0  0  0  0  0  0  0  0  0  0  0  0
   18.4888  -23.5310   -8.6810 C   0  0  0  0  0  0  0  0  0  0  0  0
   19.4352  -22.6385   -7.9042 C   0  0  0  0  0  0  0  0  0  0  0  0
   20.7893  -22.5607   -8.5369 C   0  0  0  0  0  0  0  0  0  0  0  0
   21.7220  -21.7046   -7.7609 C   0  0  2  0  0  0  0  0  0  0  0  0
   23.0696  -21.7353   -8.3489 N   0  0  0  0  0  0  0  0  0  0  0  0
   21.7674  -22.1201   -6.3563 C   0  0  0  0  0  0  0  0  0  0  0  0
   22.7094  -22.9216   -6.0084 O   0  0  0  0  0  0  0  0  0  0  0  0
   20.9202  -21.7563   -5.3447 O   0  0  0  0  0  0  0  0  0  0  0  0
  2  1  1  6
  2  3  1  0
  3  4  1  0
  4  5  2  0
  6  7  2  0
  6  2  1  0
  8  4  1  0
 10  9  1  6
 10 12  1  0
 11 10  1  0
 13 12  1  1
 13 14  1  0
 14  6  1  0
 15 13  1  0
 16 15  2  0
 18 17  1  0
 19 18  2  0
 20 18  1  0
 21 20  1  0
 22 21  1  0
 23 22  1  0
 24 23  1  6
 24 25  1  0
 25 15  1  0
 26 24  1  0
 26 28  1  0
 27 26  2  0
M  END
$$$$
