DLR.pdb
     RDKit          3D

 28 27  0  0  1  0  0  0  0  0999 V2000
   25.4764  -20.5014   -9.0875 N   0  0  0  0  0  0  0  0  0  0  0  0
   24.4044  -20.8274   -9.9690 C   0  0  1  0  0  0  0  0  0  0  0  0
   23.0382  -20.5003   -9.4083 C   0  0  0  0  0  0  0  0  0  0  0  0
   23.0221  -20.8958   -7.9774 C   0  0  0  0  0  0  0  0  0  0  0  0
   23.8947  -21.6214   -7.4668 O   0  0  0  0  0  0  0  0  0  0  0  0
   24.5653  -20.3297  -11.3536 C   0  0  0  0  0  0  0  0  0  0  0  0
   23.8463  -19.3885  -11.7419 O   0  0  0  0  0  0  0  0  0  0  0  0
   21.9953  -20.4547   -7.1241 O   0  0  0  0  0  0  0  0  0  0  0  0
   28.4152  -19.0526  -14.5437 C   0  0  0  0  0  0  0  0  0  0  0  0
   27.7503  -20.2549  -15.1499 C   0  0  1  0  0  0  0  0  0  0  0  0
   28.8704  -21.1150  -15.7521 C   0  0  0  0  0  0  0  0  0  0  0  0
   26.9275  -21.0678  -14.1888 C   0  0  0  0  0  0  0  0  0  0  0  0
   25.7557  -20.4009  -13.6008 C   0  0  2  0  0  0  0  0  0  0  0  0
   25.4907  -20.8732  -12.2421 N   0  0  0  0  0  0  0  0  0  0  0  0
   24.5438  -20.2563  -14.3909 C   0  0  0  0  0  0  0  0  0  0  0  0
   23.7848  -21.2872  -14.4793 O   0  0  0  0  0  0  0  0  0  0  0  0
   19.4033  -13.6977  -17.8172 N   0  0  0  0  0  0  0  0  0  0  0  0
   18.7364  -14.9411  -18.0789 C   0  0  0  0  0  0  0  0  0  0  0  0
   17.5607  -14.9599  -18.6282 N   0  0  0  0  0  0  0  0  0  0  0  0
   19.3453  -16.1601  -17.7457 N   0  0  0  0  0  0  0  0  0  0  0  0
   20.5698  -16.2343  -16.9794 C   0  0  0  0  0  0  0  0  0  0  0  0
   21.0491  -17.6556  -16.7662 C   0  0  0  0  0  0  0  0  0  0  0  0
   22.3194  -17.7134  -15.9767 C   0  0  0  0  0  0  0  0  0  0  0  0
   22.8393  -19.0988  -15.8524 C   0  0  2  0  0  0  0  0  0  0  0  0
   24.0896  -19.1191  -15.0786 N   0  0  0  0  0  0  0  0  0  0  0  0
   23.0452  -19.7006  -17.1726 C   0  0  0  0  0  0  0  0  0  0  0  0
   24.1747  -19.4896  -17.7475 O   0  0  0  0  0  0  0  0  0  0  0  0
   22.1732  -20.4764  -17.8876 O   0  0  0  0  0  0  0  0  0  0  0  0
  2  1  1  1
  2  3  1  0
  3  4  1  0
  4  5  2  0
  6  7  2  0
  6  2  1  0
  8  4  1  0
 10  9  1  1
 10 12  1  0
 11 10  1  0
 13 12  1  6
 13 14  1  0
 14  6  1  0
 15 13  1  0
 16 15  2  0
 18 17  1  0
 19 18  2  0
 20 18  1  0
 21 20  1  0
 22 21  1  0
 23 22  1  0
 24 23  1  6
 24 25  1  0
 25 15  1  0
 26 24  1  0
 26 28  1  0
 27 26  2  0
M  END
$$$$
