CPW.pdb
     RDKit          3D

 28 30  0  0  1  0  0  0  0  0999 V2000
   24.9612  -18.4801  -17.7250 N   0  0  0  0  0  0  0  0  0  0  0  0
   25.9738  -18.2889  -16.6892 C   0  0  1  0  0  0  0  0  0  0  0  0
   25.6583  -16.9430  -16.0362 C   0  0  0  0  0  0  0  0  0  0  0  0
   27.1897  -16.0093  -15.7873 S   0  0  0  0  0  0  0  0  0  0  0  0
   25.8895  -19.3806  -15.6901 C   0  0  0  0  0  0  0  0  0  0  0  0
   24.7356  -19.6993  -15.2400 O   0  0  0  0  0  0  0  0  0  0  0  0
   27.0290  -20.0802  -15.2178 N   0  0  0  0  0  0  0  0  0  0  0  0
   28.3684  -20.0079  -15.7506 C   0  0  0  0  0  0  0  0  0  0  0  0
   28.8687  -21.4163  -15.4973 C   0  0  0  0  0  0  0  0  0  0  0  0
   28.4398  -21.5651  -14.0283 C   0  0  0  0  0  0  0  0  0  0  0  0
   27.0557  -20.9980  -14.1009 C   0  0  1  0  0  0  0  0  0  0  0  0
   26.6424  -20.3169  -12.8499 C   0  0  0  0  0  0  0  0  0  0  0  0
   26.8561  -19.0819  -12.6943 O   0  0  0  0  0  0  0  0  0  0  0  0
   26.0002  -20.9960  -11.7853 N   0  0  0  0  0  0  0  0  0  0  0  0
   25.7632  -20.3527  -10.4952 C   0  0  1  0  0  0  0  0  0  0  0  0
   24.6052  -19.4160  -10.6953 C   0  0  0  0  0  0  0  0  0  0  0  0
   23.3543  -20.0756  -11.0680 C   0  0  0  0  0  0  0  0  0  0  0  0
   22.4798  -20.6938  -10.1895 C   0  0  0  0  0  0  0  0  0  0  0  0
   21.4457  -21.1761  -10.9033 N   0  0  0  0  0  0  0  0  0  0  0  0
   21.5975  -20.9034  -12.2227 C   0  0  0  0  0  0  0  0  0  0  0  0
   20.8550  -21.1645  -13.3542 C   0  0  0  0  0  0  0  0  0  0  0  0
   21.3200  -20.7319  -14.5742 C   0  0  0  0  0  0  0  0  0  0  0  0
   22.5077  -20.0429  -14.7083 C   0  0  0  0  0  0  0  0  0  0  0  0
   23.2313  -19.7952  -13.5558 C   0  0  0  0  0  0  0  0  0  0  0  0
   22.8020  -20.2111  -12.3115 C   0  0  0  0  0  0  0  0  0  0  0  0
   25.4391  -21.3726   -9.4610 C   0  0  0  0  0  0  0  0  0  0  0  0
   25.3849  -22.7191   -9.7484 O   0  0  0  0  0  0  0  0  0  0  0  0
   25.2092  -20.9847   -8.2926 O   0  0  0  0  0  0  0  0  0  0  0  0
  2  3  1  0
  2  1  1  6
  4  3  1  0
  5  2  1  0
  5  6  2  0
  7  5  1  0
  8  7  1  0
  9  8  1  0
 10  9  1  0
 10 11  1  0
 11  7  1  0
 12 13  2  0
 11 12  1  1
 14 12  1  0
 15 16  1  6
 15 14  1  0
 16 17  1  0
 17 18  2  0
 19 18  1  0
 20 19  1  0
 21 20  2  0
 22 21  1  0
 23 22  2  0
 23 24  1  0
 24 25  2  0
 25 20  1  0
 25 17  1  0
 26 15  1  0
 27 26  1  0
 28 26  2  0
M  END
$$$$
