CPW.pdb
     RDKit          3D

 28 30  0  0  1  0  0  0  0  0999 V2000
   23.1915  -21.4013  -15.6953 N   0  0  0  0  0  0  0  0  0  0  0  0
   24.2766  -20.5150  -15.2806 C   0  0  1  0  0  0  0  0  0  0  0  0
   23.6763  -19.1098  -15.2318 C   0  0  0  0  0  0  0  0  0  0  0  0
   24.9131  -17.9365  -14.6217 S   0  0  0  0  0  0  0  0  0  0  0  0
   24.7719  -20.9124  -13.9413 C   0  0  0  0  0  0  0  0  0  0  0  0
   23.9116  -21.2161  -13.0451 O   0  0  0  0  0  0  0  0  0  0  0  0
   26.1514  -20.9688  -13.6174 N   0  0  0  0  0  0  0  0  0  0  0  0
   27.2543  -20.5963  -14.4705 C   0  0  0  0  0  0  0  0  0  0  0  0
   28.3234  -21.5733  -14.0228 C   0  0  0  0  0  0  0  0  0  0  0  0
   28.1979  -21.3892  -12.5015 C   0  0  0  0  0  0  0  0  0  0  0  0
   26.7074  -21.4092  -12.3574 C   0  0  1  0  0  0  0  0  0  0  0  0
   26.2218  -20.5605  -11.2423 C   0  0  0  0  0  0  0  0  0  0  0  0
   25.2816  -19.7379  -11.4281 O   0  0  0  0  0  0  0  0  0  0  0  0
   26.7710  -20.6230   -9.9380 N   0  0  0  0  0  0  0  0  0  0  0  0
   26.3388  -19.7155   -8.8778 C   0  0  1  0  0  0  0  0  0  0  0  0
   25.3545  -20.4817   -8.0395 C   0  0  0  0  0  0  0  0  0  0  0  0
   25.9050  -21.0014   -6.7882 C   0  0  0  0  0  0  0  0  0  0  0  0
   25.3595  -22.0290   -6.0365 C   0  0  0  0  0  0  0  0  0  0  0  0
   26.1493  -22.2238   -4.9643 N   0  0  0  0  0  0  0  0  0  0  0  0
   27.1992  -21.3660   -4.9725 C   0  0  0  0  0  0  0  0  0  0  0  0
   28.2717  -21.1449   -4.1355 C   0  0  0  0  0  0  0  0  0  0  0  0
   29.1767  -20.1593   -4.4539 C   0  0  0  0  0  0  0  0  0  0  0  0
   29.0506  -19.3801   -5.5854 C   0  0  0  0  0  0  0  0  0  0  0  0
   27.9646  -19.6248   -6.4065 C   0  0  0  0  0  0  0  0  0  0  0  0
   27.0326  -20.6033   -6.1251 C   0  0  0  0  0  0  0  0  0  0  0  0
   27.5041  -19.2875   -8.0569 C   0  0  0  0  0  0  0  0  0  0  0  0
   27.5539  -18.0582   -7.4364 O   0  0  0  0  0  0  0  0  0  0  0  0
   28.4675  -20.0777   -7.9315 O   0  0  0  0  0  0  0  0  0  0  0  0
  2  3  1  0
  2  1  1  1
  4  3  1  0
  5  2  1  0
  5  6  2  0
  7  5  1  0
  8  7  1  0
  9  8  1  0
 10  9  1  0
 10 11  1  0
 11  7  1  0
 12 13  2  0
 11 12  1  1
 14 12  1  0
 15 16  1  1
 15 14  1  0
 16 17  1  0
 17 18  2  0
 19 18  1  0
 20 19  1  0
 21 20  2  0
 22 21  1  0
 23 22  2  0
 23 24  1  0
 24 25  2  0
 25 20  1  0
 25 17  1  0
 26 15  1  0
 27 26  1  0
 28 26  2  0
M  END
$$$$
