CPW.pdb
     RDKit          3D

 28 30  0  0  1  0  0  0  0  0999 V2000
   24.4747  -18.0845  -17.4195 N   0  0  0  0  0  0  0  0  0  0  0  0
   25.5397  -17.9237  -16.4323 C   0  0  1  0  0  0  0  0  0  0  0  0
   25.2719  -16.5878  -15.7388 C   0  0  0  0  0  0  0  0  0  0  0  0
   26.7825  -16.0053  -14.9277 S   0  0  0  0  0  0  0  0  0  0  0  0
   25.4935  -19.0339  -15.4513 C   0  0  0  0  0  0  0  0  0  0  0  0
   24.3708  -19.3103  -14.9048 O   0  0  0  0  0  0  0  0  0  0  0  0
   26.6363  -19.7956  -15.0979 N   0  0  0  0  0  0  0  0  0  0  0  0
   27.9430  -19.7247  -15.7067 C   0  0  0  0  0  0  0  0  0  0  0  0
   28.4120  -21.1605  -15.5789 C   0  0  0  0  0  0  0  0  0  0  0  0
   28.0674  -21.3971  -14.0992 C   0  0  0  0  0  0  0  0  0  0  0  0
   26.7004  -20.7878  -14.0482 C   0  0  1  0  0  0  0  0  0  0  0  0
   26.3848  -20.1824  -12.7316 C   0  0  0  0  0  0  0  0  0  0  0  0
   26.4799  -18.9343  -12.5631 O   0  0  0  0  0  0  0  0  0  0  0  0
   25.9690  -20.9504  -11.6162 N   0  0  0  0  0  0  0  0  0  0  0  0
   25.7523  -20.3454  -10.3041 C   0  0  1  0  0  0  0  0  0  0  0  0
   24.5875  -19.4081  -10.4570 C   0  0  0  0  0  0  0  0  0  0  0  0
   23.2931  -20.0740  -10.5977 C   0  0  0  0  0  0  0  0  0  0  0  0
   22.4547  -20.4286   -9.5537 C   0  0  0  0  0  0  0  0  0  0  0  0
   21.3611  -21.0117  -10.0786 N   0  0  0  0  0  0  0  0  0  0  0  0
   21.4386  -21.0593  -11.4314 C   0  0  0  0  0  0  0  0  0  0  0  0
   20.6171  -21.5383  -12.4292 C   0  0  0  0  0  0  0  0  0  0  0  0
   21.0188  -21.4230  -13.7395 C   0  0  0  0  0  0  0  0  0  0  0  0
   22.2192  -20.8427  -14.0943 C   0  0  0  0  0  0  0  0  0  0  0  0
   23.0226  -20.3709  -13.0719 C   0  0  0  0  0  0  0  0  0  0  0  0
   22.6587  -20.4662  -11.7438 C   0  0  0  0  0  0  0  0  0  0  0  0
   25.4502  -21.3958   -9.2941 C   0  0  0  0  0  0  0  0  0  0  0  0
   25.3880  -22.7330   -9.6208 O   0  0  0  0  0  0  0  0  0  0  0  0
   25.2469  -21.0432   -8.1098 O   0  0  0  0  0  0  0  0  0  0  0  0
  2  3  1  0
  2  1  1  6
  4  3  1  0
  5  2  1  0
  5  6  2  0
  7  5  1  0
  8  7  1  0
  9  8  1  0
 10  9  1  0
 10 11  1  0
 11  7  1  0
 12 13  2  0
 11 12  1  1
 14 12  1  0
 15 16  1  6
 15 14  1  0
 16 17  1  0
 17 18  2  0
 19 18  1  0
 20 19  1  0
 21 20  2  0
 22 21  1  0
 23 22  2  0
 23 24  1  0
 24 25  2  0
 25 20  1  0
 25 17  1  0
 26 15  1  0
 27 26  1  0
 28 26  2  0
M  END
$$$$
