CPW.pdb
     RDKit          3D

 28 30  0  0  1  0  0  0  0  0999 V2000
   27.1928  -24.3529  -15.1795 N   0  0  0  0  0  0  0  0  0  0  0  0
   26.9761  -22.9245  -14.9622 C   0  0  1  0  0  0  0  0  0  0  0  0
   26.8697  -22.2990  -16.3532 C   0  0  0  0  0  0  0  0  0  0  0  0
   26.3683  -20.5651  -16.2082 S   0  0  0  0  0  0  0  0  0  0  0  0
   25.7213  -22.7118  -14.2024 C   0  0  0  0  0  0  0  0  0  0  0  0
   24.6674  -23.3209  -14.5947 O   0  0  0  0  0  0  0  0  0  0  0  0
   25.6443  -21.8663  -13.0666 N   0  0  0  0  0  0  0  0  0  0  0  0
   26.7399  -21.1788  -12.4263 C   0  0  0  0  0  0  0  0  0  0  0  0
   26.2926  -21.1843  -10.9780 C   0  0  0  0  0  0  0  0  0  0  0  0
   24.8479  -20.6938  -11.1688 C   0  0  0  0  0  0  0  0  0  0  0  0
   24.4394  -21.5323  -12.3404 C   0  0  1  0  0  0  0  0  0  0  0  0
   23.4622  -20.8536  -13.2259 C   0  0  0  0  0  0  0  0  0  0  0  0
   23.8608  -20.1351  -14.1851 O   0  0  0  0  0  0  0  0  0  0  0  0
   22.0613  -20.9699  -13.0506 N   0  0  0  0  0  0  0  0  0  0  0  0
   21.1174  -20.2625  -13.9126 C   0  0  1  0  0  0  0  0  0  0  0  0
   21.1926  -20.9274  -15.2583 C   0  0  0  0  0  0  0  0  0  0  0  0
   20.7458  -22.3199  -15.2680 C   0  0  0  0  0  0  0  0  0  0  0  0
   19.4714  -22.7566  -14.9459 C   0  0  0  0  0  0  0  0  0  0  0  0
   19.4456  -24.0958  -15.0773 N   0  0  0  0  0  0  0  0  0  0  0  0
   20.6530  -24.5679  -15.4742 C   0  0  0  0  0  0  0  0  0  0  0  0
   21.1573  -25.8213  -15.7471 C   0  0  0  0  0  0  0  0  0  0  0  0
   22.4709  -25.9439  -16.1358 C   0  0  0  0  0  0  0  0  0  0  0  0
   23.3067  -24.8538  -16.2635 C   0  0  0  0  0  0  0  0  0  0  0  0
   22.7732  -23.6088  -15.9832 C   0  0  0  0  0  0  0  0  0  0  0  0
   21.4608  -23.4401  -15.5900 C   0  0  0  0  0  0  0  0  0  0  0  0
   19.7397  -20.3574  -13.3579 C   0  0  0  0  0  0  0  0  0  0  0  0
   19.4516  -21.0909  -12.2276 O   0  0  0  0  0  0  0  0  0  0  0  0
   18.8173  -19.7466  -13.9448 O   0  0  0  0  0  0  0  0  0  0  0  0
  2  3  1  0
  2  1  1  6
  4  3  1  0
  5  2  1  0
  5  6  2  0
  7  5  1  0
  8  7  1  0
  9  8  1  0
 10  9  1  0
 10 11  1  0
 11  7  1  0
 12 13  2  0
 11 12  1  6
 14 12  1  0
 15 16  1  6
 15 14  1  0
 16 17  1  0
 17 18  2  0
 19 18  1  0
 20 19  1  0
 21 20  2  0
 22 21  1  0
 23 22  2  0
 23 24  1  0
 24 25  2  0
 25 20  1  0
 25 17  1  0
 26 15  1  0
 27 26  1  0
 28 26  2  0
M  END
$$$$
