CPW.pdb
     RDKit          3D

 28 30  0  0  1  0  0  0  0  0999 V2000
   29.0378  -22.5836  -18.3872 N   0  0  0  0  0  0  0  0  0  0  0  0
   28.1294  -21.4774  -18.0943 C   0  0  1  0  0  0  0  0  0  0  0  0
   26.7450  -21.9382  -18.5509 C   0  0  0  0  0  0  0  0  0  0  0  0
   26.4847  -21.4729  -20.2814 S   0  0  0  0  0  0  0  0  0  0  0  0
   28.1265  -21.1954  -16.6391 C   0  0  0  0  0  0  0  0  0  0  0  0
   28.3809  -22.1585  -15.8370 O   0  0  0  0  0  0  0  0  0  0  0  0
   27.8550  -19.9098  -16.1058 N   0  0  0  0  0  0  0  0  0  0  0  0
   27.5502  -18.7125  -16.8518 C   0  0  0  0  0  0  0  0  0  0  0  0
   28.1682  -17.6445  -15.9712 C   0  0  0  0  0  0  0  0  0  0  0  0
   27.5954  -18.0876  -14.6149 C   0  0  0  0  0  0  0  0  0  0  0  0
   27.8288  -19.5643  -14.7020 C   0  0  1  0  0  0  0  0  0  0  0  0
   26.8010  -20.3566  -13.9840 C   0  0  0  0  0  0  0  0  0  0  0  0
   25.7459  -20.7198  -14.5755 O   0  0  0  0  0  0  0  0  0  0  0  0
   26.9411  -20.7416  -12.6279 N   0  0  0  0  0  0  0  0  0  0  0  0
   25.9815  -21.6315  -11.9785 C   0  0  1  0  0  0  0  0  0  0  0  0
   26.6225  -22.0822  -10.6960 C   0  0  0  0  0  0  0  0  0  0  0  0
   26.6026  -21.0825   -9.6289 C   0  0  0  0  0  0  0  0  0  0  0  0
   25.5093  -20.3105   -9.2720 C   0  0  0  0  0  0  0  0  0  0  0  0
   25.8773  -19.5168   -8.2492 N   0  0  0  0  0  0  0  0  0  0  0  0
   27.1728  -19.7300   -7.9112 C   0  0  0  0  0  0  0  0  0  0  0  0
   28.0236  -19.1996   -6.9653 C   0  0  0  0  0  0  0  0  0  0  0  0
   29.3185  -19.6584   -6.8978 C   0  0  0  0  0  0  0  0  0  0  0  0
   29.7999  -20.6346   -7.7456 C   0  0  0  0  0  0  0  0  0  0  0  0
   28.9235  -21.1483   -8.6844 C   0  0  0  0  0  0  0  0  0  0  0  0
   27.6163  -20.7169   -8.7871 C   0  0  0  0  0  0  0  0  0  0  0  0
   24.7105  -20.9082  -11.7026 C   0  0  0  0  0  0  0  0  0  0  0  0
   23.5193  -21.5689  -11.4948 O   0  0  0  0  0  0  0  0  0  0  0  0
   24.7338  -19.6568  -11.6598 O   0  0  0  0  0  0  0  0  0  0  0  0
  2  3  1  0
  2  1  1  1
  4  3  1  0
  5  2  1  0
  5  6  2  0
  7  5  1  0
  8  7  1  0
  9  8  1  0
 10  9  1  0
 10 11  1  0
 11  7  1  0
 12 13  2  0
 11 12  1  1
 14 12  1  0
 15 16  1  1
 15 14  1  0
 16 17  1  0
 17 18  2  0
 19 18  1  0
 20 19  1  0
 21 20  2  0
 22 21  1  0
 23 22  2  0
 23 24  1  0
 24 25  2  0
 25 20  1  0
 25 17  1  0
 26 15  1  0
 27 26  1  0
 28 26  2  0
M  END
$$$$
