CPW.pdb
     RDKit          3D

 28 30  0  0  1  0  0  0  0  0999 V2000
   28.9500  -22.7033  -17.0347 N   0  0  0  0  0  0  0  0  0  0  0  0
   27.8857  -21.7714  -16.6691 C   0  0  1  0  0  0  0  0  0  0  0  0
   26.5796  -22.5568  -16.7898 C   0  0  0  0  0  0  0  0  0  0  0  0
   26.0521  -22.6057  -18.5214 S   0  0  0  0  0  0  0  0  0  0  0  0
   28.0795  -21.3013  -15.2768 C   0  0  0  0  0  0  0  0  0  0  0  0
   28.5962  -22.1111  -14.4326 O   0  0  0  0  0  0  0  0  0  0  0  0
   27.7175  -19.9990  -14.8477 N   0  0  0  0  0  0  0  0  0  0  0  0
   27.2249  -18.9235  -15.6746 C   0  0  0  0  0  0  0  0  0  0  0  0
   27.7966  -17.7126  -14.9641 C   0  0  0  0  0  0  0  0  0  0  0  0
   27.3899  -18.0629  -13.5232 C   0  0  0  0  0  0  0  0  0  0  0  0
   27.7720  -19.5105  -13.4880 C   0  0  1  0  0  0  0  0  0  0  0  0
   26.8986  -20.3187  -12.6029 C   0  0  0  0  0  0  0  0  0  0  0  0
   25.9351  -20.9778  -13.0850 O   0  0  0  0  0  0  0  0  0  0  0  0
   27.0908  -20.3956  -11.2014 N   0  0  0  0  0  0  0  0  0  0  0  0
   26.2471  -21.2357  -10.3548 C   0  0  1  0  0  0  0  0  0  0  0  0
   27.0635  -21.5647   -9.1367 C   0  0  0  0  0  0  0  0  0  0  0  0
   27.1825  -20.4677   -8.1770 C   0  0  0  0  0  0  0  0  0  0  0  0
   26.6053  -19.2159   -8.3127 C   0  0  0  0  0  0  0  0  0  0  0  0
   26.9346  -18.4871   -7.2301 N   0  0  0  0  0  0  0  0  0  0  0  0
   27.7085  -19.2046   -6.3790 C   0  0  0  0  0  0  0  0  0  0  0  0
   28.3038  -18.9447   -5.1634 C   0  0  0  0  0  0  0  0  0  0  0  0
   29.0472  -19.9309   -4.5580 C   0  0  0  0  0  0  0  0  0  0  0  0
   29.2199  -21.1768   -5.1247 C   0  0  0  0  0  0  0  0  0  0  0  0
   28.6108  -21.4089   -6.3447 C   0  0  0  0  0  0  0  0  0  0  0  0
   27.8563  -20.4480   -6.9873 C   0  0  0  0  0  0  0  0  0  0  0  0
   25.0079  -20.5053   -9.9730 C   0  0  0  0  0  0  0  0  0  0  0  0
   23.9529  -21.1278   -9.3420 O   0  0  0  0  0  0  0  0  0  0  0  0
   24.9302  -19.2838  -10.2380 O   0  0  0  0  0  0  0  0  0  0  0  0
  2  3  1  0
  2  1  1  1
  4  3  1  0
  5  2  1  0
  5  6  2  0
  7  5  1  0
  8  7  1  0
  9  8  1  0
 10  9  1  0
 10 11  1  0
 11  7  1  0
 12 13  2  0
 11 12  1  1
 14 12  1  0
 15 16  1  1
 15 14  1  0
 16 17  1  0
 17 18  2  0
 19 18  1  0
 20 19  1  0
 21 20  2  0
 22 21  1  0
 23 22  2  0
 23 24  1  0
 24 25  2  0
 25 20  1  0
 25 17  1  0
 26 15  1  0
 27 26  1  0
 28 26  2  0
M  END
$$$$
