CPW.pdb
     RDKit          3D

 28 30  0  0  1  0  0  0  0  0999 V2000
   27.8194  -22.1027  -17.2143 N   0  0  0  0  0  0  0  0  0  0  0  0
   26.8083  -21.2551  -16.5867 C   0  0  1  0  0  0  0  0  0  0  0  0
   25.5170  -22.0734  -16.5831 C   0  0  0  0  0  0  0  0  0  0  0  0
   24.1159  -21.0082  -17.0090 S   0  0  0  0  0  0  0  0  0  0  0  0
   27.2143  -20.9238  -15.2001 C   0  0  0  0  0  0  0  0  0  0  0  0
   27.8300  -21.8161  -14.5217 O   0  0  0  0  0  0  0  0  0  0  0  0
   26.9488  -19.6661  -14.6010 N   0  0  0  0  0  0  0  0  0  0  0  0
   26.3525  -18.5158  -15.2368 C   0  0  0  0  0  0  0  0  0  0  0  0
   27.0515  -17.3792  -14.5174 C   0  0  0  0  0  0  0  0  0  0  0  0
   26.8701  -17.8616  -13.0687 C   0  0  0  0  0  0  0  0  0  0  0  0
   27.2257  -19.3076  -13.2279 C   0  0  1  0  0  0  0  0  0  0  0  0
   26.4874  -20.1919  -12.2938 C   0  0  0  0  0  0  0  0  0  0  0  0
   25.3995  -20.7277  -12.6465 O   0  0  0  0  0  0  0  0  0  0  0  0
   26.9492  -20.4787  -10.9856 N   0  0  0  0  0  0  0  0  0  0  0  0
   26.2006  -21.3461  -10.0792 C   0  0  1  0  0  0  0  0  0  0  0  0
   27.1114  -21.6327   -8.9186 C   0  0  0  0  0  0  0  0  0  0  0  0
   27.2921  -20.5072   -8.0025 C   0  0  0  0  0  0  0  0  0  0  0  0
   26.7914  -19.2296   -8.1915 C   0  0  0  0  0  0  0  0  0  0  0  0
   27.1595  -18.4790   -7.1367 N   0  0  0  0  0  0  0  0  0  0  0  0
   27.8858  -19.2067   -6.2529 C   0  0  0  0  0  0  0  0  0  0  0  0
   28.4909  -18.9343   -5.0448 C   0  0  0  0  0  0  0  0  0  0  0  0
   29.1714  -19.9381   -4.3960 C   0  0  0  0  0  0  0  0  0  0  0  0
   29.2715  -21.2138   -4.9117 C   0  0  0  0  0  0  0  0  0  0  0  0
   28.6543  -21.4578   -6.1253 C   0  0  0  0  0  0  0  0  0  0  0  0
   27.9612  -20.4801   -6.8103 C   0  0  0  0  0  0  0  0  0  0  0  0
   24.9616  -20.6638   -9.6165 C   0  0  0  0  0  0  0  0  0  0  0  0
   24.7211  -19.3298   -9.8642 O   0  0  0  0  0  0  0  0  0  0  0  0
   24.1145  -21.3325   -8.9811 O   0  0  0  0  0  0  0  0  0  0  0  0
  2  3  1  0
  2  1  1  1
  4  3  1  0
  5  2  1  0
  5  6  2  0
  7  5  1  0
  8  7  1  0
  9  8  1  0
 10  9  1  0
 10 11  1  0
 11  7  1  0
 12 13  2  0
 11 12  1  1
 14 12  1  0
 15 16  1  1
 15 14  1  0
 16 17  1  0
 17 18  2  0
 19 18  1  0
 20 19  1  0
 21 20  2  0
 22 21  1  0
 23 22  2  0
 23 24  1  0
 24 25  2  0
 25 20  1  0
 25 17  1  0
 26 15  1  0
 27 26  1  0
 28 26  2  0
M  END
$$$$
