CPW.pdb
     RDKit          3D

 28 30  0  0  1  0  0  0  0  0999 V2000
   29.3137  -22.6288  -16.5533 N   0  0  0  0  0  0  0  0  0  0  0  0
   28.0272  -21.9426  -16.4598 C   0  0  1  0  0  0  0  0  0  0  0  0
   26.9607  -23.0209  -16.6519 C   0  0  0  0  0  0  0  0  0  0  0  0
   25.8366  -22.5392  -17.9873 S   0  0  0  0  0  0  0  0  0  0  0  0
   27.8868  -21.3080  -15.1276 C   0  0  0  0  0  0  0  0  0  0  0  0
   28.3186  -21.9457  -14.1066 O   0  0  0  0  0  0  0  0  0  0  0  0
   27.2971  -20.0317  -14.9423 N   0  0  0  0  0  0  0  0  0  0  0  0
   26.7857  -19.1594  -15.9722 C   0  0  0  0  0  0  0  0  0  0  0  0
   27.0848  -17.7942  -15.3851 C   0  0  0  0  0  0  0  0  0  0  0  0
   26.5309  -18.0135  -13.9676 C   0  0  0  0  0  0  0  0  0  0  0  0
   27.0946  -19.3693  -13.6732 C   0  0  1  0  0  0  0  0  0  0  0  0
   26.2220  -20.1801  -12.7896 C   0  0  0  0  0  0  0  0  0  0  0  0
   25.4399  -21.0419  -13.2803 O   0  0  0  0  0  0  0  0  0  0  0  0
   26.2164  -20.0376  -11.3801 N   0  0  0  0  0  0  0  0  0  0  0  0
   25.3226  -20.8223  -10.5318 C   0  0  1  0  0  0  0  0  0  0  0  0
   25.6732  -20.4754   -9.1121 C   0  0  0  0  0  0  0  0  0  0  0  0
   27.0692  -20.7283   -8.7573 C   0  0  0  0  0  0  0  0  0  0  0  0
   27.9650  -21.4752   -9.5045 C   0  0  0  0  0  0  0  0  0  0  0  0
   29.1461  -21.4747   -8.8592 N   0  0  0  0  0  0  0  0  0  0  0  0
   29.0717  -20.7567   -7.7114 C   0  0  0  0  0  0  0  0  0  0  0  0
   29.9634  -20.4466   -6.7072 C   0  0  0  0  0  0  0  0  0  0  0  0
   29.5401  -19.6725   -5.6521 C   0  0  0  0  0  0  0  0  0  0  0  0
   28.2500  -19.1923   -5.5610 C   0  0  0  0  0  0  0  0  0  0  0  0
   27.3775  -19.5194   -6.5833 C   0  0  0  0  0  0  0  0  0  0  0  0
   27.7600  -20.2934   -7.6603 C   0  0  0  0  0  0  0  0  0  0  0  0
   23.9034  -20.4791  -10.8195 C   0  0  0  0  0  0  0  0  0  0  0  0
   22.8580  -21.2861  -10.4262 O   0  0  0  0  0  0  0  0  0  0  0  0
   23.6605  -19.4191  -11.4406 O   0  0  0  0  0  0  0  0  0  0  0  0
  2  3  1  0
  2  1  1  1
  4  3  1  0
  5  2  1  0
  5  6  2  0
  7  5  1  0
  8  7  1  0
  9  8  1  0
 10  9  1  0
 10 11  1  0
 11  7  1  0
 12 13  2  0
 11 12  1  1
 14 12  1  0
 15 16  1  1
 15 14  1  0
 16 17  1  0
 17 18  2  0
 19 18  1  0
 20 19  1  0
 21 20  2  0
 22 21  1  0
 23 22  2  0
 23 24  1  0
 24 25  2  0
 25 20  1  0
 25 17  1  0
 26 15  1  0
 27 26  1  0
 28 26  2  0
M  END
$$$$
