CPW.pdb
     RDKit          3D

 28 30  0  0  1  0  0  0  0  0999 V2000
   29.3070  -26.6693  -19.5019 N   0  0  0  0  0  0  0  0  0  0  0  0
   28.6485  -26.7330  -18.1992 C   0  0  1  0  0  0  0  0  0  0  0  0
   28.4300  -25.2828  -17.7673 C   0  0  0  0  0  0  0  0  0  0  0  0
   27.5822  -25.2415  -16.1678 S   0  0  0  0  0  0  0  0  0  0  0  0
   27.3500  -27.4373  -18.3215 C   0  0  0  0  0  0  0  0  0  0  0  0
   26.5704  -27.1043  -19.2791 O   0  0  0  0  0  0  0  0  0  0  0  0
   26.9415  -28.4577  -17.4255 N   0  0  0  0  0  0  0  0  0  0  0  0
   27.7194  -29.0241  -16.3497 C   0  0  0  0  0  0  0  0  0  0  0  0
   27.2187  -30.4548  -16.3382 C   0  0  0  0  0  0  0  0  0  0  0  0
   25.7059  -30.1823  -16.3722 C   0  0  0  0  0  0  0  0  0  0  0  0
   25.6553  -29.1181  -17.4247 C   0  0  1  0  0  0  0  0  0  0  0  0
   24.5616  -28.1402  -17.2074 C   0  0  0  0  0  0  0  0  0  0  0  0
   24.7737  -27.0786  -16.5567 O   0  0  0  0  0  0  0  0  0  0  0  0
   23.2499  -28.3362  -17.7052 N   0  0  0  0  0  0  0  0  0  0  0  0
   22.2123  -27.3181  -17.5594 C   0  0  1  0  0  0  0  0  0  0  0  0
   22.5936  -26.1903  -18.4766 C   0  0  0  0  0  0  0  0  0  0  0  0
   21.6957  -25.0374  -18.4192 C   0  0  0  0  0  0  0  0  0  0  0  0
   21.8877  -23.9080  -17.6405 C   0  0  0  0  0  0  0  0  0  0  0  0
   20.8575  -23.0707  -17.8619 N   0  0  0  0  0  0  0  0  0  0  0  0
   19.9870  -23.5983  -18.7575 C   0  0  0  0  0  0  0  0  0  0  0  0
   18.8018  -23.1727  -19.3177 C   0  0  0  0  0  0  0  0  0  0  0  0
   18.1580  -23.9869  -20.2201 C   0  0  0  0  0  0  0  0  0  0  0  0
   18.6567  -25.2196  -20.5874 C   0  0  0  0  0  0  0  0  0  0  0  0
   19.8476  -25.6202  -20.0091 C   0  0  0  0  0  0  0  0  0  0  0  0
   20.5268  -24.8351  -19.0993 C   0  0  0  0  0  0  0  0  0  0  0  0
   20.8850  -27.8749  -17.9378 C   0  0  0  0  0  0  0  0  0  0  0  0
   19.7129  -27.4371  -17.3606 O   0  0  0  0  0  0  0  0  0  0  0  0
   20.8416  -28.7713  -18.8113 O   0  0  0  0  0  0  0  0  0  0  0  0
  2  3  1  0
  2  1  1  6
  4  3  1  0
  5  2  1  0
  5  6  2  0
  7  5  1  0
  8  7  1  0
  9  8  1  0
 10  9  1  0
 10 11  1  0
 11  7  1  0
 12 13  2  0
 11 12  1  1
 14 12  1  0
 15 16  1  6
 15 14  1  0
 16 17  1  0
 17 18  2  0
 19 18  1  0
 20 19  1  0
 21 20  2  0
 22 21  1  0
 23 22  2  0
 23 24  1  0
 24 25  2  0
 25 20  1  0
 25 17  1  0
 26 15  1  0
 27 26  1  0
 28 26  2  0
M  END
$$$$
