CPW.pdb
     RDKit          3D

 28 30  0  0  1  0  0  0  0  0999 V2000
   29.4993  -22.5162  -17.2276 N   0  0  0  0  0  0  0  0  0  0  0  0
   28.2753  -21.7902  -16.8964 C   0  0  1  0  0  0  0  0  0  0  0  0
   27.1293  -22.7801  -17.1072 C   0  0  0  0  0  0  0  0  0  0  0  0
   25.5578  -22.0029  -16.6541 S   0  0  0  0  0  0  0  0  0  0  0  0
   28.3181  -21.3420  -15.4842 C   0  0  0  0  0  0  0  0  0  0  0  0
   28.7677  -22.1557  -14.6059 O   0  0  0  0  0  0  0  0  0  0  0  0
   27.8837  -20.0565  -15.0721 N   0  0  0  0  0  0  0  0  0  0  0  0
   27.4211  -18.9874  -15.9242 C   0  0  0  0  0  0  0  0  0  0  0  0
   27.8988  -17.7676  -15.1616 C   0  0  0  0  0  0  0  0  0  0  0  0
   27.3958  -18.1466  -13.7589 C   0  0  0  0  0  0  0  0  0  0  0  0
   27.8197  -19.5820  -13.7078 C   0  0  1  0  0  0  0  0  0  0  0  0
   26.9080  -20.4268  -12.8988 C   0  0  0  0  0  0  0  0  0  0  0  0
   25.9561  -21.0482  -13.4492 O   0  0  0  0  0  0  0  0  0  0  0  0
   27.0496  -20.5811  -11.4977 N   0  0  0  0  0  0  0  0  0  0  0  0
   26.1510  -21.4341  -10.7236 C   0  0  1  0  0  0  0  0  0  0  0  0
   26.8785  -21.7729   -9.4530 C   0  0  0  0  0  0  0  0  0  0  0  0
   26.9964  -20.6601   -8.5114 C   0  0  0  0  0  0  0  0  0  0  0  0
   26.2985  -19.4661   -8.5879 C   0  0  0  0  0  0  0  0  0  0  0  0
   26.6704  -18.7000   -7.5456 N   0  0  0  0  0  0  0  0  0  0  0  0
   27.5886  -19.3373   -6.7781 C   0  0  0  0  0  0  0  0  0  0  0  0
   28.2797  -19.0132   -5.6305 C   0  0  0  0  0  0  0  0  0  0  0  0
   29.1666  -19.9232   -5.1041 C   0  0  0  0  0  0  0  0  0  0  0  0
   29.3912  -21.1544   -5.6846 C   0  0  0  0  0  0  0  0  0  0  0  0
   28.6835  -21.4520   -6.8352 C   0  0  0  0  0  0  0  0  0  0  0  0
   27.7841  -20.5686   -7.3974 C   0  0  0  0  0  0  0  0  0  0  0  0
   24.8836  -20.7134  -10.4251 C   0  0  0  0  0  0  0  0  0  0  0  0
   23.7632  -21.3619   -9.9529 O   0  0  0  0  0  0  0  0  0  0  0  0
   24.8432  -19.4758  -10.6125 O   0  0  0  0  0  0  0  0  0  0  0  0
  2  3  1  0
  2  1  1  1
  4  3  1  0
  5  2  1  0
  5  6  2  0
  7  5  1  0
  8  7  1  0
  9  8  1  0
 10  9  1  0
 10 11  1  0
 11  7  1  0
 12 13  2  0
 11 12  1  1
 14 12  1  0
 15 16  1  1
 15 14  1  0
 16 17  1  0
 17 18  2  0
 19 18  1  0
 20 19  1  0
 21 20  2  0
 22 21  1  0
 23 22  2  0
 23 24  1  0
 24 25  2  0
 25 20  1  0
 25 17  1  0
 26 15  1  0
 27 26  1  0
 28 26  2  0
M  END
$$$$
