CPW.pdb
     RDKit          3D

 28 30  0  0  1  0  0  0  0  0999 V2000
   24.6778  -18.6165  -17.8155 N   0  0  0  0  0  0  0  0  0  0  0  0
   25.7552  -18.2572  -16.8964 C   0  0  1  0  0  0  0  0  0  0  0  0
   25.3744  -16.8959  -16.3140 C   0  0  0  0  0  0  0  0  0  0  0  0
   26.5934  -16.3993  -15.0705 S   0  0  0  0  0  0  0  0  0  0  0  0
   25.8609  -19.2693  -15.8187 C   0  0  0  0  0  0  0  0  0  0  0  0
   24.7971  -19.5908  -15.1859 O   0  0  0  0  0  0  0  0  0  0  0  0
   27.0857  -19.8903  -15.4648 N   0  0  0  0  0  0  0  0  0  0  0  0
   28.3666  -19.6983  -16.1016 C   0  0  0  0  0  0  0  0  0  0  0  0
   28.9916  -21.0697  -15.9385 C   0  0  0  0  0  0  0  0  0  0  0  0
   28.6995  -21.2930  -14.4455 C   0  0  0  0  0  0  0  0  0  0  0  0
   27.2751  -20.8343  -14.3861 C   0  0  1  0  0  0  0  0  0  0  0  0
   26.9172  -20.2233  -13.0829 C   0  0  0  0  0  0  0  0  0  0  0  0
   27.1301  -18.9962  -12.8727 O   0  0  0  0  0  0  0  0  0  0  0  0
   26.3308  -20.9628  -12.0265 N   0  0  0  0  0  0  0  0  0  0  0  0
   26.0559  -20.3582  -10.7252 C   0  0  1  0  0  0  0  0  0  0  0  0
   24.9180  -19.3993  -10.9355 C   0  0  0  0  0  0  0  0  0  0  0  0
   23.6577  -20.0347  -11.3182 C   0  0  0  0  0  0  0  0  0  0  0  0
   22.8713  -20.8206  -10.4921 C   0  0  0  0  0  0  0  0  0  0  0  0
   21.7955  -21.2172  -11.1969 N   0  0  0  0  0  0  0  0  0  0  0  0
   21.8349  -20.7262  -12.4601 C   0  0  0  0  0  0  0  0  0  0  0  0
   21.0109  -20.8255  -13.5606 C   0  0  0  0  0  0  0  0  0  0  0  0
   21.3665  -20.1816  -14.7228 C   0  0  0  0  0  0  0  0  0  0  0  0
   22.5226  -19.4364  -14.8287 C   0  0  0  0  0  0  0  0  0  0  0  0
   23.3297  -19.3546  -13.7084 C   0  0  0  0  0  0  0  0  0  0  0  0
   23.0113  -19.9846  -12.5222 C   0  0  0  0  0  0  0  0  0  0  0  0
   25.6816  -21.4063   -9.7371 C   0  0  0  0  0  0  0  0  0  0  0  0
   25.3917  -21.1077   -8.4235 O   0  0  0  0  0  0  0  0  0  0  0  0
   25.6310  -22.5971  -10.1214 O   0  0  0  0  0  0  0  0  0  0  0  0
  2  3  1  0
  2  1  1  6
  4  3  1  0
  5  2  1  0
  5  6  2  0
  7  5  1  0
  8  7  1  0
  9  8  1  0
 10  9  1  0
 10 11  1  0
 11  7  1  0
 12 13  2  0
 11 12  1  1
 14 12  1  0
 15 16  1  6
 15 14  1  0
 16 17  1  0
 17 18  2  0
 19 18  1  0
 20 19  1  0
 21 20  2  0
 22 21  1  0
 23 22  2  0
 23 24  1  0
 24 25  2  0
 25 20  1  0
 25 17  1  0
 26 15  1  0
 27 26  1  0
 28 26  2  0
M  END
$$$$
