CPW.pdb
     RDKit          3D

 28 30  0  0  1  0  0  0  0  0999 V2000
   28.7714  -22.7834  -17.2794 N   0  0  0  0  0  0  0  0  0  0  0  0
   27.6837  -21.8720  -16.9318 C   0  0  1  0  0  0  0  0  0  0  0  0
   26.3897  -22.6463  -17.1837 C   0  0  0  0  0  0  0  0  0  0  0  0
   24.9641  -21.5977  -16.8003 S   0  0  0  0  0  0  0  0  0  0  0  0
   27.7842  -21.4834  -15.5049 C   0  0  0  0  0  0  0  0  0  0  0  0
   28.1003  -22.3849  -14.6546 O   0  0  0  0  0  0  0  0  0  0  0  0
   27.5457  -20.1618  -15.0494 N   0  0  0  0  0  0  0  0  0  0  0  0
   27.1141  -19.0387  -15.8465 C   0  0  0  0  0  0  0  0  0  0  0  0
   27.8079  -17.8881  -15.1446 C   0  0  0  0  0  0  0  0  0  0  0  0
   27.4252  -18.2233  -13.6937 C   0  0  0  0  0  0  0  0  0  0  0  0
   27.6881  -19.6976  -13.6875 C   0  0  1  0  0  0  0  0  0  0  0  0
   26.7832  -20.4436  -12.7797 C   0  0  0  0  0  0  0  0  0  0  0  0
   25.7073  -20.9403  -13.2166 O   0  0  0  0  0  0  0  0  0  0  0  0
   27.0673  -20.6369  -11.4053 N   0  0  0  0  0  0  0  0  0  0  0  0
   26.1667  -21.3858  -10.5322 C   0  0  1  0  0  0  0  0  0  0  0  0
   26.9467  -21.6972   -9.2859 C   0  0  0  0  0  0  0  0  0  0  0  0
   27.1894  -20.5418   -8.4229 C   0  0  0  0  0  0  0  0  0  0  0  0
   26.5900  -19.3001   -8.5558 C   0  0  0  0  0  0  0  0  0  0  0  0
   27.0606  -18.5048   -7.5773 N   0  0  0  0  0  0  0  0  0  0  0  0
   27.9500  -19.1682   -6.7982 C   0  0  0  0  0  0  0  0  0  0  0  0
   28.7059  -18.8328   -5.6955 C   0  0  0  0  0  0  0  0  0  0  0  0
   29.5329  -19.7799   -5.1380 C   0  0  0  0  0  0  0  0  0  0  0  0
   29.6345  -21.0595   -5.6437 C   0  0  0  0  0  0  0  0  0  0  0  0
   28.8642  -21.3673   -6.7505 C   0  0  0  0  0  0  0  0  0  0  0  0
   28.0212  -20.4479   -7.3416 C   0  0  0  0  0  0  0  0  0  0  0  0
   24.9647  -20.5704  -10.2077 C   0  0  0  0  0  0  0  0  0  0  0  0
   23.8058  -21.1325   -9.7182 O   0  0  0  0  0  0  0  0  0  0  0  0
   25.0176  -19.3324  -10.3886 O   0  0  0  0  0  0  0  0  0  0  0  0
  2  3  1  0
  2  1  1  1
  4  3  1  0
  5  2  1  0
  5  6  2  0
  7  5  1  0
  8  7  1  0
  9  8  1  0
 10  9  1  0
 10 11  1  0
 11  7  1  0
 12 13  2  0
 11 12  1  1
 14 12  1  0
 15 16  1  1
 15 14  1  0
 16 17  1  0
 17 18  2  0
 19 18  1  0
 20 19  1  0
 21 20  2  0
 22 21  1  0
 23 22  2  0
 23 24  1  0
 24 25  2  0
 25 20  1  0
 25 17  1  0
 26 15  1  0
 27 26  1  0
 28 26  2  0
M  END
$$$$
