CPW.pdb
     RDKit          3D

 28 30  0  0  1  0  0  0  0  0999 V2000
   25.4096  -21.6675  -18.7989 N   0  0  0  0  0  0  0  0  0  0  0  0
   25.2159  -20.4582  -18.0021 C   0  0  1  0  0  0  0  0  0  0  0  0
   23.7067  -20.3276  -17.7964 C   0  0  0  0  0  0  0  0  0  0  0  0
   23.0085  -19.2358  -19.0611 S   0  0  0  0  0  0  0  0  0  0  0  0
   25.9057  -20.5949  -16.6972 C   0  0  0  0  0  0  0  0  0  0  0  0
   25.9901  -21.7607  -16.1782 O   0  0  0  0  0  0  0  0  0  0  0  0
   26.4713  -19.4925  -16.0074 N   0  0  0  0  0  0  0  0  0  0  0  0
   26.5885  -18.1384  -16.4930 C   0  0  0  0  0  0  0  0  0  0  0  0
   27.8791  -17.6938  -15.8337 C   0  0  0  0  0  0  0  0  0  0  0  0
   27.5924  -18.1644  -14.3982 C   0  0  0  0  0  0  0  0  0  0  0  0
   27.0336  -19.5258  -14.6758 C   0  0  1  0  0  0  0  0  0  0  0  0
   26.0141  -19.9466  -13.6842 C   0  0  0  0  0  0  0  0  0  0  0  0
   24.7871  -19.9300  -13.9831 O   0  0  0  0  0  0  0  0  0  0  0  0
   26.3503  -20.3806  -12.3783 N   0  0  0  0  0  0  0  0  0  0  0  0
   25.3721  -21.0288  -11.5080 C   0  0  1  0  0  0  0  0  0  0  0  0
   26.1296  -22.0487  -10.7052 C   0  0  0  0  0  0  0  0  0  0  0  0
   27.2801  -21.5110   -9.9800 C   0  0  0  0  0  0  0  0  0  0  0  0
   28.5961  -21.5640  -10.4090 C   0  0  0  0  0  0  0  0  0  0  0  0
   29.3607  -20.9620   -9.4792 N   0  0  0  0  0  0  0  0  0  0  0  0
   28.6053  -20.5104   -8.4479 C   0  0  0  0  0  0  0  0  0  0  0  0
   28.8764  -19.8452   -7.2715 C   0  0  0  0  0  0  0  0  0  0  0  0
   27.8384  -19.5334   -6.4247 C   0  0  0  0  0  0  0  0  0  0  0  0
   26.5295  -19.8632   -6.7102 C   0  0  0  0  0  0  0  0  0  0  0  0
   26.2878  -20.5302   -7.8976 C   0  0  0  0  0  0  0  0  0  0  0  0
   27.2992  -20.8627   -8.7762 C   0  0  0  0  0  0  0  0  0  0  0  0
   24.7332  -20.0267  -10.6122 C   0  0  0  0  0  0  0  0  0  0  0  0
   23.5707  -20.2935   -9.9222 O   0  0  0  0  0  0  0  0  0  0  0  0
   25.2774  -18.9057  -10.4874 O   0  0  0  0  0  0  0  0  0  0  0  0
  2  3  1  0
  2  1  1  6
  4  3  1  0
  5  2  1  0
  5  6  2  0
  7  5  1  0
  8  7  1  0
  9  8  1  0
 10  9  1  0
 10 11  1  0
 11  7  1  0
 12 13  2  0
 11 12  1  1
 14 12  1  0
 15 16  1  1
 15 14  1  0
 16 17  1  0
 17 18  2  0
 19 18  1  0
 20 19  1  0
 21 20  2  0
 22 21  1  0
 23 22  2  0
 23 24  1  0
 24 25  2  0
 25 20  1  0
 25 17  1  0
 26 15  1  0
 27 26  1  0
 28 26  2  0
M  END
$$$$
