CPW.pdb
     RDKit          3D

 28 30  0  0  1  0  0  0  0  0999 V2000
   26.8981  -22.7125  -17.2027 N   0  0  0  0  0  0  0  0  0  0  0  0
   26.2851  -21.6589  -16.3972 C   0  0  1  0  0  0  0  0  0  0  0  0
   24.7954  -21.9957  -16.3278 C   0  0  0  0  0  0  0  0  0  0  0  0
   23.9293  -20.7421  -15.3493 S   0  0  0  0  0  0  0  0  0  0  0  0
   26.8771  -21.6504  -15.0383 C   0  0  0  0  0  0  0  0  0  0  0  0
   26.9568  -22.7601  -14.4075 O   0  0  0  0  0  0  0  0  0  0  0  0
   27.3549  -20.4695  -14.4153 N   0  0  0  0  0  0  0  0  0  0  0  0
   27.4493  -19.1576  -15.0095 C   0  0  0  0  0  0  0  0  0  0  0  0
   28.6778  -18.6019  -14.3166 C   0  0  0  0  0  0  0  0  0  0  0  0
   28.3204  -18.9613  -12.8649 C   0  0  0  0  0  0  0  0  0  0  0  0
   27.8337  -20.3648  -13.0549 C   0  0  1  0  0  0  0  0  0  0  0  0
   26.7714  -20.7448  -12.0923 C   0  0  0  0  0  0  0  0  0  0  0  0
   25.5542  -20.6670  -12.4204 O   0  0  0  0  0  0  0  0  0  0  0  0
   27.0545  -21.2053  -10.7829 N   0  0  0  0  0  0  0  0  0  0  0  0
   25.9912  -21.5076   -9.8277 C   0  0  1  0  0  0  0  0  0  0  0  0
   26.6639  -21.7362   -8.5033 C   0  0  0  0  0  0  0  0  0  0  0  0
   27.0761  -20.5119   -7.8178 C   0  0  0  0  0  0  0  0  0  0  0  0
   26.6412  -19.2335   -8.1263 C   0  0  0  0  0  0  0  0  0  0  0  0
   27.2349  -18.3760   -7.2756 N   0  0  0  0  0  0  0  0  0  0  0  0
   28.0482  -19.0335   -6.4127 C   0  0  0  0  0  0  0  0  0  0  0  0
   28.8674  -18.6473   -5.3737 C   0  0  0  0  0  0  0  0  0  0  0  0
   29.5766  -19.6064   -4.6889 C   0  0  0  0  0  0  0  0  0  0  0  0
   29.4979  -20.9471   -5.0044 C   0  0  0  0  0  0  0  0  0  0  0  0
   28.6678  -21.3049   -6.0513 C   0  0  0  0  0  0  0  0  0  0  0  0
   27.9384  -20.3757   -6.7654 C   0  0  0  0  0  0  0  0  0  0  0  0
   25.0361  -20.3696   -9.7403 C   0  0  0  0  0  0  0  0  0  0  0  0
   23.7325  -20.5347   -9.3254 O   0  0  0  0  0  0  0  0  0  0  0  0
   25.4395  -19.2270  -10.0565 O   0  0  0  0  0  0  0  0  0  0  0  0
  2  3  1  0
  2  1  1  6
  4  3  1  0
  5  2  1  0
  5  6  2  0
  7  5  1  0
  8  7  1  0
  9  8  1  0
 10  9  1  0
 10 11  1  0
 11  7  1  0
 12 13  2  0
 11 12  1  1
 14 12  1  0
 15 16  1  1
 15 14  1  0
 16 17  1  0
 17 18  2  0
 19 18  1  0
 20 19  1  0
 21 20  2  0
 22 21  1  0
 23 22  2  0
 23 24  1  0
 24 25  2  0
 25 20  1  0
 25 17  1  0
 26 15  1  0
 27 26  1  0
 28 26  2  0
M  END
$$$$
