DEP.pdb
     RDKit          3D

 25 25  0  0  1  0  0  0  0  0999 V2000
   17.6258  -13.3371  -17.4948 N   0  0  0  0  0  0  0  0  0  0  0  0
   17.8592  -12.5945  -16.2800 C   0  0  1  0  0  0  0  0  0  0  0  0
   18.7574  -13.4108  -15.3862 C   0  0  0  0  0  0  0  0  0  0  0  0
   17.9982  -14.5763  -14.9006 C   0  0  0  0  0  0  0  0  0  0  0  0
   16.8804  -14.4208  -14.3746 O   0  0  0  0  0  0  0  0  0  0  0  0
   18.3862  -11.2766  -16.5984 C   0  0  0  0  0  0  0  0  0  0  0  0
   19.1629  -11.0251  -17.5586 O   0  0  0  0  0  0  0  0  0  0  0  0
   18.5004  -15.8623  -15.0151 O   0  0  0  0  0  0  0  0  0  0  0  0
   18.0035  -10.1599  -15.7652 N   0  0  0  0  0  0  0  0  0  0  0  0
   18.4563   -8.8247  -16.1321 C   0  0  1  0  0  0  0  0  0  0  0  0
   17.2953   -7.8996  -15.8624 C   0  0  0  0  0  0  0  0  0  0  0  0
   17.5618   -6.4561  -16.1885 C   0  0  0  0  0  0  0  0  0  0  0  0
   16.3070   -5.6994  -15.8377 C   0  0  0  0  0  0  0  0  0  0  0  0
   16.2241   -4.9996  -14.8207 O   0  0  0  0  0  0  0  0  0  0  0  0
   19.6663   -8.4578  -15.3965 C   0  0  0  0  0  0  0  0  0  0  0  0
   19.5559   -8.5596  -14.1226 O   0  0  0  0  0  0  0  0  0  0  0  0
   15.2350   -5.8429  -16.7438 O   0  0  0  0  0  0  0  0  0  0  0  0
   20.9077   -8.0143  -15.8961 N   0  0  0  0  0  0  0  0  0  0  0  0
   21.3683   -8.0110  -17.2799 C   0  0  0  0  0  0  0  0  0  0  0  0
   22.7740   -7.4886  -17.2342 C   0  0  0  0  0  0  0  0  0  0  0  0
   22.7747   -6.6483  -15.9986 C   0  0  0  0  0  0  0  0  0  0  0  0
   21.9788   -7.5320  -15.0218 C   0  0  1  0  0  0  0  0  0  0  0  0
   21.4540   -6.6625  -13.9334 C   0  0  0  0  0  0  0  0  0  0  0  0
   22.2653   -6.4084  -12.9983 O   0  0  0  0  0  0  0  0  0  0  0  0
   20.2053   -6.1226  -13.8581 O   0  0  0  0  0  0  0  0  0  0  0  0
  2  1  1  6
  2  3  1  0
  3  4  1  0
  4  8  1  0
  5  4  2  0
  6  2  1  0
  7  6  2  0
  9  6  1  0
 10 11  1  1
 10  9  1  0
 11 12  1  0
 13 12  1  0
 13 17  1  0
 14 13  2  0
 15 10  1  0
 16 15  2  0
 18 15  1  0
 18 22  1  0
 19 18  1  0
 20 19  1  0
 20 21  1  0
 21 22  1  0
 22 23  1  1
 23 25  1  0
 24 23  2  0
M  END
$$$$
