DEP.pdb
     RDKit          3D

 25 25  0  0  1  0  0  0  0  0999 V2000
   17.8664  -12.7784  -15.6847 N   0  0  0  0  0  0  0  0  0  0  0  0
   17.8971  -11.4095  -16.1393 C   0  0  1  0  0  0  0  0  0  0  0  0
   16.6137  -10.7384  -15.7212 C   0  0  0  0  0  0  0  0  0  0  0  0
   15.4920  -11.4157  -16.3948 C   0  0  0  0  0  0  0  0  0  0  0  0
   15.4449  -11.4637  -17.6380 O   0  0  0  0  0  0  0  0  0  0  0  0
   19.0948  -10.7495  -15.6434 C   0  0  0  0  0  0  0  0  0  0  0  0
   19.4945  -10.7866  -14.4487 O   0  0  0  0  0  0  0  0  0  0  0  0
   14.4714  -12.0116  -15.6721 O   0  0  0  0  0  0  0  0  0  0  0  0
   19.9000   -9.9904  -16.5725 N   0  0  0  0  0  0  0  0  0  0  0  0
   21.0998   -9.3269  -16.0799 C   0  0  1  0  0  0  0  0  0  0  0  0
   22.1994   -9.6721  -17.0536 C   0  0  0  0  0  0  0  0  0  0  0  0
   23.5316   -9.0535  -16.7319 C   0  0  0  0  0  0  0  0  0  0  0  0
   23.7901   -8.0173  -17.7947 C   0  0  0  0  0  0  0  0  0  0  0  0
   24.2135   -6.8872  -17.5217 O   0  0  0  0  0  0  0  0  0  0  0  0
   20.8863   -7.8863  -15.9414 C   0  0  0  0  0  0  0  0  0  0  0  0
   20.4736   -7.3128  -17.0119 O   0  0  0  0  0  0  0  0  0  0  0  0
   23.5167   -8.4206  -19.1188 O   0  0  0  0  0  0  0  0  0  0  0  0
   21.0744   -7.0666  -14.8100 N   0  0  0  0  0  0  0  0  0  0  0  0
   21.4439   -7.4734  -13.4590 C   0  0  0  0  0  0  0  0  0  0  0  0
   21.4496   -6.2118  -12.6470 C   0  0  0  0  0  0  0  0  0  0  0  0
   21.7313   -5.1606  -13.6709 C   0  0  0  0  0  0  0  0  0  0  0  0
   20.8436   -5.6209  -14.8408 C   0  0  1  0  0  0  0  0  0  0  0  0
   21.3680   -5.0045  -16.0902 C   0  0  0  0  0  0  0  0  0  0  0  0
   22.4236   -5.5225  -16.5534 O   0  0  0  0  0  0  0  0  0  0  0  0
   20.8214   -3.9569  -16.7686 O   0  0  0  0  0  0  0  0  0  0  0  0
  2  1  1  1
  2  3  1  0
  3  4  1  0
  4  8  1  0
  5  4  2  0
  6  2  1  0
  7  6  2  0
  9  6  1  0
 10 11  1  6
 10  9  1  0
 11 12  1  0
 13 12  1  0
 13 17  1  0
 14 13  2  0
 15 10  1  0
 16 15  2  0
 18 15  1  0
 18 22  1  0
 19 18  1  0
 20 19  1  0
 20 21  1  0
 21 22  1  0
 22 23  1  6
 23 25  1  0
 24 23  2  0
M  END
$$$$
