DEP.pdb
     RDKit          3D

 25 25  0  0  1  0  0  0  0  0999 V2000
   15.2726  -11.7333  -15.3004 N   0  0  0  0  0  0  0  0  0  0  0  0
   15.4446  -10.3052  -15.4119 C   0  0  1  0  0  0  0  0  0  0  0  0
   14.7870   -9.6505  -14.2241 C   0  0  0  0  0  0  0  0  0  0  0  0
   13.3278   -9.6752  -14.4261 C   0  0  0  0  0  0  0  0  0  0  0  0
   12.8537   -9.6198  -15.5760 O   0  0  0  0  0  0  0  0  0  0  0  0
   16.8568   -9.9858  -15.5528 C   0  0  0  0  0  0  0  0  0  0  0  0
   17.8028  -10.7108  -15.1431 O   0  0  0  0  0  0  0  0  0  0  0  0
   12.4533   -9.7607  -13.3551 O   0  0  0  0  0  0  0  0  0  0  0  0
   17.2236   -8.7512  -16.2078 N   0  0  0  0  0  0  0  0  0  0  0  0
   18.6363   -8.4600  -16.4126 C   0  0  1  0  0  0  0  0  0  0  0  0
   18.7773   -8.0671  -17.8626 C   0  0  0  0  0  0  0  0  0  0  0  0
   19.0821   -9.2109  -18.7898 C   0  0  0  0  0  0  0  0  0  0  0  0
   19.6063   -8.6010  -20.0639 C   0  0  0  0  0  0  0  0  0  0  0  0
   20.7687   -8.1896  -20.1660 O   0  0  0  0  0  0  0  0  0  0  0  0
   19.1004   -7.4248  -15.4891 C   0  0  0  0  0  0  0  0  0  0  0  0
   18.3639   -6.3748  -15.4664 O   0  0  0  0  0  0  0  0  0  0  0  0
   18.6847   -8.5294  -21.1299 O   0  0  0  0  0  0  0  0  0  0  0  0
   20.2281   -7.4317  -14.6432 N   0  0  0  0  0  0  0  0  0  0  0  0
   21.0886   -8.5596  -14.3048 C   0  0  0  0  0  0  0  0  0  0  0  0
   22.0929   -8.0201  -13.3293 C   0  0  0  0  0  0  0  0  0  0  0  0
   22.1498   -6.5691  -13.6815 C   0  0  0  0  0  0  0  0  0  0  0  0
   20.6618   -6.2448  -13.9033 C   0  0  1  0  0  0  0  0  0  0  0  0
   20.5753   -5.0133  -14.7350 C   0  0  0  0  0  0  0  0  0  0  0  0
   20.5291   -3.9243  -14.0953 O   0  0  0  0  0  0  0  0  0  0  0  0
   20.5473   -4.9545  -16.0960 O   0  0  0  0  0  0  0  0  0  0  0  0
  2  1  1  1
  2  3  1  0
  3  4  1  0
  4  8  1  0
  5  4  2  0
  6  2  1  0
  7  6  2  0
  9  6  1  0
 10 11  1  6
 10  9  1  0
 11 12  1  0
 13 12  1  0
 13 17  1  0
 14 13  2  0
 15 10  1  0
 16 15  2  0
 18 15  1  0
 18 22  1  0
 19 18  1  0
 20 19  1  0
 20 21  1  0
 21 22  1  0
 22 23  1  6
 23 25  1  0
 24 23  2  0
M  END
$$$$
