DEP.pdb
     RDKit          3D

 25 25  0  0  1  0  0  0  0  0999 V2000
   20.3592   -5.9285  -14.5206 N   0  0  0  0  0  0  0  0  0  0  0  0
   21.6656   -6.1428  -15.0941 C   0  0  1  0  0  0  0  0  0  0  0  0
   22.6238   -5.1526  -14.4831 C   0  0  0  0  0  0  0  0  0  0  0  0
   22.2007   -3.7950  -14.8682 C   0  0  0  0  0  0  0  0  0  0  0  0
   22.0412   -3.5055  -16.0686 O   0  0  0  0  0  0  0  0  0  0  0  0
   22.0623   -7.5312  -14.9180 C   0  0  0  0  0  0  0  0  0  0  0  0
   21.5474   -8.3267  -14.0871 O   0  0  0  0  0  0  0  0  0  0  0  0
   21.9704   -2.8148  -13.9168 O   0  0  0  0  0  0  0  0  0  0  0  0
   23.1226   -8.0570  -15.7469 N   0  0  0  0  0  0  0  0  0  0  0  0
   23.3344   -9.4979  -15.7829 C   0  0  1  0  0  0  0  0  0  0  0  0
   22.0332  -10.1011  -16.2516 C   0  0  0  0  0  0  0  0  0  0  0  0
   22.0152  -11.6046  -16.2682 C   0  0  0  0  0  0  0  0  0  0  0  0
   20.6290  -12.0113  -16.6963 C   0  0  0  0  0  0  0  0  0  0  0  0
   20.2568  -11.9377  -17.8740 O   0  0  0  0  0  0  0  0  0  0  0  0
   24.4690   -9.8427  -16.6394 C   0  0  0  0  0  0  0  0  0  0  0  0
   24.3032   -9.5409  -17.8750 O   0  0  0  0  0  0  0  0  0  0  0  0
   19.7856  -12.4794  -15.6667 O   0  0  0  0  0  0  0  0  0  0  0  0
   25.6910  -10.4525  -16.2898 N   0  0  0  0  0  0  0  0  0  0  0  0
   26.1424  -10.8620  -14.9648 C   0  0  0  0  0  0  0  0  0  0  0  0
   27.5294  -11.3994  -15.1612 C   0  0  0  0  0  0  0  0  0  0  0  0
   27.5087  -11.8566  -16.5836 C   0  0  0  0  0  0  0  0  0  0  0  0
   26.7503  -10.7059  -17.2686 C   0  0  1  0  0  0  0  0  0  0  0  0
   26.2024  -11.2143  -18.5560 C   0  0  0  0  0  0  0  0  0  0  0  0
   26.9508  -11.0677  -19.5638 O   0  0  0  0  0  0  0  0  0  0  0  0
   24.9940  -11.8157  -18.7417 O   0  0  0  0  0  0  0  0  0  0  0  0
  2  1  1  1
  2  3  1  0
  3  4  1  0
  4  8  1  0
  5  4  2  0
  6  2  1  0
  7  6  2  0
  9  6  1  0
 10 11  1  6
 10  9  1  0
 11 12  1  0
 13 12  1  0
 13 17  1  0
 14 13  2  0
 15 10  1  0
 16 15  2  0
 18 15  1  0
 18 22  1  0
 19 18  1  0
 20 19  1  0
 20 21  1  0
 21 22  1  0
 22 23  1  6
 23 25  1  0
 24 23  2  0
M  END
$$$$
