DEP.pdb
     RDKit          3D

 25 25  0  0  1  0  0  0  0  0999 V2000
   15.4641  -21.9725    0.7832 N   0  0  0  0  0  0  0  0  0  0  0  0
   15.2018  -21.5640    2.1418 C   0  0  1  0  0  0  0  0  0  0  0  0
   14.9105  -22.7941    2.9628 C   0  0  0  0  0  0  0  0  0  0  0  0
   13.6736  -23.4124    2.4544 C   0  0  0  0  0  0  0  0  0  0  0  0
   13.6946  -24.5697    1.9958 O   0  0  0  0  0  0  0  0  0  0  0  0
   16.3130  -20.7709    2.6440 C   0  0  0  0  0  0  0  0  0  0  0  0
   17.5250  -20.9713    2.3626 O   0  0  0  0  0  0  0  0  0  0  0  0
   12.4672  -22.7318    2.4732 O   0  0  0  0  0  0  0  0  0  0  0  0
   16.0281  -19.6673    3.5321 N   0  0  0  0  0  0  0  0  0  0  0  0
   17.1024  -18.7416    3.8659 C   0  0  1  0  0  0  0  0  0  0  0  0
   16.5006  -17.3596    3.7988 C   0  0  0  0  0  0  0  0  0  0  0  0
   17.4725  -16.2445    4.0688 C   0  0  0  0  0  0  0  0  0  0  0  0
   16.7430  -14.9599    3.7730 C   0  0  0  0  0  0  0  0  0  0  0  0
   17.2954  -13.8559    3.8572 O   0  0  0  0  0  0  0  0  0  0  0  0
   17.6802  -19.0539    5.1729 C   0  0  0  0  0  0  0  0  0  0  0  0
   16.8135  -19.3441    6.0729 O   0  0  0  0  0  0  0  0  0  0  0  0
   15.3907  -15.0996    3.3954 O   0  0  0  0  0  0  0  0  0  0  0  0
   19.0352  -19.0734    5.5618 N   0  0  0  0  0  0  0  0  0  0  0  0
   20.2119  -18.8734    4.7237 C   0  0  0  0  0  0  0  0  0  0  0  0
   21.3897  -19.0541    5.6354 C   0  0  0  0  0  0  0  0  0  0  0  0
   20.8309  -18.6933    6.9734 C   0  0  0  0  0  0  0  0  0  0  0  0
   19.4547  -19.3808    6.9307 C   0  0  1  0  0  0  0  0  0  0  0  0
   18.5775  -18.7235    7.9379 C   0  0  0  0  0  0  0  0  0  0  0  0
   18.5711  -19.2534    9.0853 O   0  0  0  0  0  0  0  0  0  0  0  0
   17.8006  -17.6217    7.7405 O   0  0  0  0  0  0  0  0  0  0  0  0
  2  1  1  6
  2  3  1  0
  3  4  1  0
  4  8  1  0
  5  4  2  0
  6  2  1  0
  7  6  2  0
  9  6  1  0
 10 11  1  1
 10  9  1  0
 11 12  1  0
 13 12  1  0
 13 17  1  0
 14 13  2  0
 15 10  1  0
 16 15  2  0
 18 15  1  0
 18 22  1  0
 19 18  1  0
 20 19  1  0
 20 21  1  0
 21 22  1  0
 22 23  1  1
 23 25  1  0
 24 23  2  0
M  END
$$$$
