DEP.pdb
     RDKit          3D

 25 25  0  0  1  0  0  0  0  0999 V2000
   28.4650  -33.7308   -5.0085 N   0  0  0  0  0  0  0  0  0  0  0  0
   29.2534  -34.6978   -4.2841 C   0  0  1  0  0  0  0  0  0  0  0  0
   30.7079  -34.4630   -4.6021 C   0  0  0  0  0  0  0  0  0  0  0  0
   31.1989  -35.5962   -5.4055 C   0  0  0  0  0  0  0  0  0  0  0  0
   30.4317  -36.5295   -5.7065 O   0  0  0  0  0  0  0  0  0  0  0  0
   28.9426  -34.6273   -2.8648 C   0  0  0  0  0  0  0  0  0  0  0  0
   28.7217  -33.5618   -2.2287 O   0  0  0  0  0  0  0  0  0  0  0  0
   32.5118  -35.6537   -5.8437 O   0  0  0  0  0  0  0  0  0  0  0  0
   28.8771  -35.8577   -2.1101 N   0  0  0  0  0  0  0  0  0  0  0  0
   28.3686  -35.8161   -0.7455 C   0  0  1  0  0  0  0  0  0  0  0  0
   26.9148  -35.4265   -0.8516 C   0  0  0  0  0  0  0  0  0  0  0  0
   26.2091  -35.2922    0.4693 C   0  0  0  0  0  0  0  0  0  0  0  0
   24.8098  -34.8259    0.1615 C   0  0  0  0  0  0  0  0  0  0  0  0
   24.5828  -33.7251   -0.3559 O   0  0  0  0  0  0  0  0  0  0  0  0
   28.5724  -37.0963   -0.0677 C   0  0  0  0  0  0  0  0  0  0  0  0
   28.0522  -38.0991   -0.6752 O   0  0  0  0  0  0  0  0  0  0  0  0
   23.7782  -35.7258    0.5029 O   0  0  0  0  0  0  0  0  0  0  0  0
   29.2486  -37.3625    1.1403 N   0  0  0  0  0  0  0  0  0  0  0  0
   29.9660  -36.4215    1.9929 C   0  0  0  0  0  0  0  0  0  0  0  0
   30.5359  -37.2454    3.1098 C   0  0  0  0  0  0  0  0  0  0  0  0
   29.5960  -38.4049    3.1786 C   0  0  0  0  0  0  0  0  0  0  0  0
   29.3757  -38.7149    1.6873 C   0  0  1  0  0  0  0  0  0  0  0  0
   28.1083  -39.4847    1.5569 C   0  0  0  0  0  0  0  0  0  0  0  0
   27.1318  -38.8501    1.0659 O   0  0  0  0  0  0  0  0  0  0  0  0
   27.9108  -40.7866    1.9070 O   0  0  0  0  0  0  0  0  0  0  0  0
  2  1  1  6
  2  3  1  0
  3  4  1  0
  4  8  1  0
  5  4  2  0
  6  2  1  0
  7  6  2  0
  9  6  1  0
 10 11  1  6
 10  9  1  0
 11 12  1  0
 13 12  1  0
 13 17  1  0
 14 13  2  0
 15 10  1  0
 16 15  2  0
 18 15  1  0
 18 22  1  0
 19 18  1  0
 20 19  1  0
 20 21  1  0
 21 22  1  0
 22 23  1  1
 23 25  1  0
 24 23  2  0
M  END
$$$$
