DEP.pdb
     RDKit          3D

 25 25  0  0  1  0  0  0  0  0999 V2000
   17.8552  -14.5156  -16.7372 N   0  0  0  0  0  0  0  0  0  0  0  0
   17.5299  -13.1233  -16.5443 C   0  0  1  0  0  0  0  0  0  0  0  0
   16.6216  -13.0063  -15.3471 C   0  0  0  0  0  0  0  0  0  0  0  0
   15.3620  -13.7095  -15.6463 C   0  0  0  0  0  0  0  0  0  0  0  0
   14.9132  -14.5562  -14.8515 O   0  0  0  0  0  0  0  0  0  0  0  0
   18.7506  -12.3397  -16.4356 C   0  0  0  0  0  0  0  0  0  0  0  0
   19.7915  -12.7098  -15.8289 O   0  0  0  0  0  0  0  0  0  0  0  0
   14.6500  -13.4504  -16.8061 O   0  0  0  0  0  0  0  0  0  0  0  0
   18.7942  -11.0385  -17.0624 N   0  0  0  0  0  0  0  0  0  0  0  0
   20.0321  -10.2728  -17.0013 C   0  0  1  0  0  0  0  0  0  0  0  0
   20.1139   -9.5046  -18.2973 C   0  0  0  0  0  0  0  0  0  0  0  0
   21.3642   -8.6845  -18.4560 C   0  0  0  0  0  0  0  0  0  0  0  0
   21.2361   -7.9587  -19.7702 C   0  0  0  0  0  0  0  0  0  0  0  0
   21.6309   -8.4513  -20.8342 O   0  0  0  0  0  0  0  0  0  0  0  0
   20.0611   -9.4110  -15.8197 C   0  0  0  0  0  0  0  0  0  0  0  0
   19.0084   -8.6940  -15.6684 O   0  0  0  0  0  0  0  0  0  0  0  0
   20.6382   -6.6824  -19.7061 O   0  0  0  0  0  0  0  0  0  0  0  0
   21.0750   -9.2687  -14.8505 N   0  0  0  0  0  0  0  0  0  0  0  0
   22.2986  -10.0499  -14.7110 C   0  0  0  0  0  0  0  0  0  0  0  0
   22.9805   -9.5133  -13.4871 C   0  0  0  0  0  0  0  0  0  0  0  0
   22.4736   -8.1095  -13.4146 C   0  0  0  0  0  0  0  0  0  0  0  0
   20.9852   -8.2988  -13.7571 C   0  0  1  0  0  0  0  0  0  0  0  0
   20.4473   -6.9909  -14.2218 C   0  0  0  0  0  0  0  0  0  0  0  0
   20.0315   -6.2174  -13.3129 O   0  0  0  0  0  0  0  0  0  0  0  0
   20.3687   -6.5588  -15.5116 O   0  0  0  0  0  0  0  0  0  0  0  0
  2  1  1  1
  2  3  1  0
  3  4  1  0
  4  8  1  0
  5  4  2  0
  6  2  1  0
  7  6  2  0
  9  6  1  0
 10 11  1  6
 10  9  1  0
 11 12  1  0
 13 12  1  0
 13 17  1  0
 14 13  2  0
 15 10  1  0
 16 15  2  0
 18 15  1  0
 18 22  1  0
 19 18  1  0
 20 19  1  0
 20 21  1  0
 21 22  1  0
 22 23  1  6
 23 25  1  0
 24 23  2  0
M  END
$$$$
