DEP.pdb
     RDKit          3D

 25 25  0  0  1  0  0  0  0  0999 V2000
   15.1294  -10.9830  -14.6730 N   0  0  0  0  0  0  0  0  0  0  0  0
   16.4540  -10.8431  -14.1186 C   0  0  1  0  0  0  0  0  0  0  0  0
   17.4129  -11.6406  -14.9650 C   0  0  0  0  0  0  0  0  0  0  0  0
   17.2105  -13.0713  -14.6775 C   0  0  0  0  0  0  0  0  0  0  0  0
   16.0829  -13.5828  -14.8077 O   0  0  0  0  0  0  0  0  0  0  0  0
   16.7985   -9.4341  -14.0079 C   0  0  0  0  0  0  0  0  0  0  0  0
   16.4653   -8.5448  -14.8365 O   0  0  0  0  0  0  0  0  0  0  0  0
   18.2568  -13.8776  -14.2603 O   0  0  0  0  0  0  0  0  0  0  0  0
   17.5793   -9.0012  -12.8719 N   0  0  0  0  0  0  0  0  0  0  0  0
   17.8978   -7.5858  -12.7394 C   0  0  1  0  0  0  0  0  0  0  0  0
   17.6969   -7.2455  -11.2833 C   0  0  0  0  0  0  0  0  0  0  0  0
   16.2999   -6.8136  -10.9328 C   0  0  0  0  0  0  0  0  0  0  0  0
   16.3041   -6.5073   -9.4575 C   0  0  0  0  0  0  0  0  0  0  0  0
   15.2723   -6.2018   -8.8468 O   0  0  0  0  0  0  0  0  0  0  0  0
   19.2526   -7.3037  -13.2138 C   0  0  0  0  0  0  0  0  0  0  0  0
   20.1553   -8.0543  -12.6971 O   0  0  0  0  0  0  0  0  0  0  0  0
   17.5604   -6.5910   -8.8209 O   0  0  0  0  0  0  0  0  0  0  0  0
   19.6833   -6.3336  -14.1416 N   0  0  0  0  0  0  0  0  0  0  0  0
   18.8709   -5.5630  -15.0760 C   0  0  0  0  0  0  0  0  0  0  0  0
   19.8412   -4.7262  -15.8565 C   0  0  0  0  0  0  0  0  0  0  0  0
   20.9902   -4.5841  -14.9119 C   0  0  0  0  0  0  0  0  0  0  0  0
   21.0975   -6.0078  -14.3373 C   0  0  1  0  0  0  0  0  0  0  0  0
   21.8306   -5.9309  -13.0440 C   0  0  0  0  0  0  0  0  0  0  0  0
   21.1077   -5.8894  -12.0081 O   0  0  0  0  0  0  0  0  0  0  0  0
   23.1828   -5.9069  -12.8788 O   0  0  0  0  0  0  0  0  0  0  0  0
  2  1  1  6
  2  3  1  0
  3  4  1  0
  4  8  1  0
  5  4  2  0
  6  2  1  0
  7  6  2  0
  9  6  1  0
 10 11  1  1
 10  9  1  0
 11 12  1  0
 13 12  1  0
 13 17  1  0
 14 13  2  0
 15 10  1  0
 16 15  2  0
 18 15  1  0
 18 22  1  0
 19 18  1  0
 20 19  1  0
 20 21  1  0
 21 22  1  0
 22 23  1  1
 23 25  1  0
 24 23  2  0
M  END
$$$$
