DEP.pdb
     RDKit          3D

 25 25  0  0  1  0  0  0  0  0999 V2000
   20.7922  -13.1849  -18.2801 N   0  0  0  0  0  0  0  0  0  0  0  0
   21.5774  -12.4694  -17.3039 C   0  0  1  0  0  0  0  0  0  0  0  0
   23.0361  -12.7312  -17.5791 C   0  0  0  0  0  0  0  0  0  0  0  0
   23.3117  -14.1550  -17.3196 C   0  0  0  0  0  0  0  0  0  0  0  0
   22.6160  -14.7893  -16.5049 O   0  0  0  0  0  0  0  0  0  0  0  0
   21.2198  -11.0594  -17.3175 C   0  0  0  0  0  0  0  0  0  0  0  0
   21.2151  -10.3283  -18.3441 O   0  0  0  0  0  0  0  0  0  0  0  0
   24.3397  -14.8199  -17.9679 O   0  0  0  0  0  0  0  0  0  0  0  0
   20.8387  -10.4315  -16.0733 N   0  0  0  0  0  0  0  0  0  0  0  0
   20.3019   -9.0776  -16.1077 C   0  0  1  0  0  0  0  0  0  0  0  0
   18.9556   -9.1433  -15.4297 C   0  0  0  0  0  0  0  0  0  0  0  0
   17.8679   -9.7594  -16.2654 C   0  0  0  0  0  0  0  0  0  0  0  0
   16.6152   -9.7271  -15.4288 C   0  0  0  0  0  0  0  0  0  0  0  0
   16.4441  -10.4925  -14.4719 O   0  0  0  0  0  0  0  0  0  0  0  0
   21.2189   -8.1306  -15.4736 C   0  0  0  0  0  0  0  0  0  0  0  0
   21.6995   -8.5356  -14.3554 O   0  0  0  0  0  0  0  0  0  0  0  0
   15.6523   -8.7688  -15.8095 O   0  0  0  0  0  0  0  0  0  0  0  0
   21.6302   -6.8588  -15.9218 N   0  0  0  0  0  0  0  0  0  0  0  0
   21.5226   -6.3034  -17.2661 C   0  0  0  0  0  0  0  0  0  0  0  0
   22.1618   -4.9480  -17.1931 C   0  0  0  0  0  0  0  0  0  0  0  0
   21.9876   -4.5770  -15.7562 C   0  0  0  0  0  0  0  0  0  0  0  0
   22.3184   -5.9041  -15.0505 C   0  0  1  0  0  0  0  0  0  0  0  0
   21.7177   -5.8666  -13.6890 C   0  0  0  0  0  0  0  0  0  0  0  0
   20.5726   -6.3907  -13.5826 O   0  0  0  0  0  0  0  0  0  0  0  0
   22.2813   -5.3339  -12.5687 O   0  0  0  0  0  0  0  0  0  0  0  0
  2  1  1  6
  2  3  1  0
  3  4  1  0
  4  8  1  0
  5  4  2  0
  6  2  1  0
  7  6  2  0
  9  6  1  0
 10 11  1  1
 10  9  1  0
 11 12  1  0
 13 12  1  0
 13 17  1  0
 14 13  2  0
 15 10  1  0
 16 15  2  0
 18 15  1  0
 18 22  1  0
 19 18  1  0
 20 19  1  0
 20 21  1  0
 21 22  1  0
 22 23  1  1
 23 25  1  0
 24 23  2  0
M  END
$$$$
