MPM.pdb
     RDKit          3D

 24 24  0  0  1  0  0  0  0  0999 V2000
   22.3003  -23.1448   -5.9296 C   0  0  0  0  0  0  0  0  0  0  0  0
   21.2827  -22.8284   -7.3856 S   0  0  0  0  0  0  0  0  0  0  0  0
   21.6437  -21.1750   -8.0968 C   0  0  0  0  0  0  0  0  0  0  0  0
   23.1173  -20.9763   -8.0611 C   0  0  0  0  0  0  0  0  0  0  0  0
   23.6076  -19.6592   -8.6013 C   0  0  2  0  0  0  0  0  0  0  0  0
   22.7531  -19.2978   -9.6868 N   0  0  0  0  0  0  0  0  0  0  0  0
   25.0471  -19.6008   -8.8696 C   0  0  0  0  0  0  0  0  0  0  0  0
   25.3961  -19.2672  -10.0614 O   0  0  0  0  0  0  0  0  0  0  0  0
   26.0974  -19.8705   -7.9637 N   0  0  0  0  0  0  0  0  0  0  0  0
   26.1122  -20.3927   -6.6152 C   0  0  0  0  0  0  0  0  0  0  0  0
   27.0865  -19.4322   -5.9294 C   0  0  0  0  0  0  0  0  0  0  0  0
   28.1906  -19.3238   -6.9575 C   0  0  0  0  0  0  0  0  0  0  0  0
   27.5041  -19.6510   -8.2630 C   0  0  1  0  0  0  0  0  0  0  0  0
   28.1421  -20.8474   -8.8441 C   0  0  0  0  0  0  0  0  0  0  0  0
   27.9621  -21.9380   -8.2278 O   0  0  0  0  0  0  0  0  0  0  0  0
   24.7411  -19.9427  -13.5211 C   0  0  0  0  0  0  0  0  0  0  0  0
   24.8455  -21.6863  -13.0796 S   0  0  0  0  0  0  0  0  0  0  0  0
   26.5880  -22.1146  -12.6947 C   0  0  0  0  0  0  0  0  0  0  0  0
   27.0326  -21.4180  -11.4418 C   0  0  0  0  0  0  0  0  0  0  0  0
   28.4946  -21.6422  -11.2000 C   0  0  2  0  0  0  0  0  0  0  0  0
   28.9239  -20.8692  -10.0139 N   0  0  0  0  0  0  0  0  0  0  0  0
   29.2967  -21.2488  -12.3673 C   0  0  0  0  0  0  0  0  0  0  0  0
   29.9418  -22.2607  -13.1161 O   0  0  0  0  0  0  0  0  0  0  0  0
   29.4891  -20.0969  -12.7983 O   0  0  0  0  0  0  0  0  0  0  0  0
  1  2  1  0
  3  4  1  0
  3  2  1  0
  5  4  1  0
  5  6  1  6
  7  5  1  0
  8  7  2  0
  9 10  1  0
  9  7  1  0
 11 10  1  0
 12 13  1  0
 12 11  1  0
 13  9  1  0
 14 21  1  0
 13 14  1  1
 15 14  2  0
 17 16  1  0
 18 17  1  0
 19 18  1  0
 20 19  1  6
 20 21  1  0
 22 20  1  0
 22 23  1  0
 24 22  2  0
M  END
$$$$
