MPM.pdb
     RDKit          3D

 24 24  0  0  1  0  0  0  0  0999 V2000
   20.1158  -14.4179  -22.2792 C   0  0  0  0  0  0  0  0  0  0  0  0
   19.7104  -13.2735  -20.9445 S   0  0  0  0  0  0  0  0  0  0  0  0
   21.0426  -13.2327  -19.6823 C   0  0  0  0  0  0  0  0  0  0  0  0
   20.6675  -12.2222  -18.6574 C   0  0  0  0  0  0  0  0  0  0  0  0
   20.4986  -12.7499  -17.2574 C   0  0  2  0  0  0  0  0  0  0  0  0
   19.2210  -13.3841  -17.1909 N   0  0  0  0  0  0  0  0  0  0  0  0
   20.7928  -11.7841  -16.1952 C   0  0  0  0  0  0  0  0  0  0  0  0
   19.7845  -11.3180  -15.5475 O   0  0  0  0  0  0  0  0  0  0  0  0
   22.0629  -11.3062  -15.8017 N   0  0  0  0  0  0  0  0  0  0  0  0
   23.4031  -11.6179  -16.2470 C   0  0  0  0  0  0  0  0  0  0  0  0
   24.1376  -11.7694  -14.9130 C   0  0  0  0  0  0  0  0  0  0  0  0
   23.6076  -10.5881  -14.1311 C   0  0  0  0  0  0  0  0  0  0  0  0
   22.2683  -10.3020  -14.7692 C   0  0  1  0  0  0  0  0  0  0  0  0
   22.2917   -8.9341  -15.3209 C   0  0  0  0  0  0  0  0  0  0  0  0
   22.8637   -8.7872  -16.4402 O   0  0  0  0  0  0  0  0  0  0  0  0
   16.3700   -6.1001  -15.2115 C   0  0  0  0  0  0  0  0  0  0  0  0
   17.8182   -5.9605  -16.2741 S   0  0  0  0  0  0  0  0  0  0  0  0
   19.3304   -6.3015  -15.2918 C   0  0  0  0  0  0  0  0  0  0  0  0
   20.5453   -6.2616  -16.1723 C   0  0  0  0  0  0  0  0  0  0  0  0
   21.7915   -6.4737  -15.3673 C   0  0  2  0  0  0  0  0  0  0  0  0
   21.7349   -7.7966  -14.7075 N   0  0  0  0  0  0  0  0  0  0  0  0
   21.9614   -5.4203  -14.3561 C   0  0  0  0  0  0  0  0  0  0  0  0
   22.2722   -4.1104  -14.7903 O   0  0  0  0  0  0  0  0  0  0  0  0
   21.8635   -5.5363  -13.1205 O   0  0  0  0  0  0  0  0  0  0  0  0
  1  2  1  0
  3  4  1  0
  3  2  1  0
  5  4  1  0
  5  6  1  6
  7  5  1  0
  8  7  2  0
  9 10  1  0
  9  7  1  0
 11 10  1  0
 12 13  1  0
 12 11  1  0
 13  9  1  0
 14 21  1  0
 13 14  1  6
 15 14  2  0
 17 16  1  0
 18 17  1  0
 19 18  1  0
 20 19  1  1
 20 21  1  0
 22 20  1  0
 22 23  1  0
 24 22  2  0
M  END
$$$$
