MPM.pdb
     RDKit          3D

 24 24  0  0  1  0  0  0  0  0999 V2000
   20.9722  -17.1985  -13.8477 C   0  0  0  0  0  0  0  0  0  0  0  0
   20.6320  -16.8643  -15.5879 S   0  0  0  0  0  0  0  0  0  0  0  0
   21.7663  -17.8123  -16.6762 C   0  0  0  0  0  0  0  0  0  0  0  0
   22.5664  -18.7241  -15.8155 C   0  0  0  0  0  0  0  0  0  0  0  0
   23.5557  -19.5980  -16.5398 C   0  0  2  0  0  0  0  0  0  0  0  0
   22.8105  -20.5722  -17.2708 N   0  0  0  0  0  0  0  0  0  0  0  0
   24.6463  -20.1142  -15.7082 C   0  0  0  0  0  0  0  0  0  0  0  0
   24.4323  -21.2318  -15.1093 O   0  0  0  0  0  0  0  0  0  0  0  0
   25.9097  -19.5205  -15.4897 N   0  0  0  0  0  0  0  0  0  0  0  0
   26.5432  -18.3439  -16.0427 C   0  0  0  0  0  0  0  0  0  0  0  0
   27.9436  -18.8742  -16.3586 C   0  0  0  0  0  0  0  0  0  0  0  0
   28.2610  -19.6726  -15.1138 C   0  0  0  0  0  0  0  0  0  0  0  0
   26.9033  -20.0432  -14.5643 C   0  0  1  0  0  0  0  0  0  0  0  0
   26.7662  -19.4624  -13.2152 C   0  0  0  0  0  0  0  0  0  0  0  0
   26.0841  -18.4002  -13.1252 O   0  0  0  0  0  0  0  0  0  0  0  0
   21.5289  -19.7228   -9.8637 C   0  0  0  0  0  0  0  0  0  0  0  0
   22.6417  -21.1103  -10.1507 S   0  0  0  0  0  0  0  0  0  0  0  0
   24.3652  -20.5949   -9.7875 C   0  0  0  0  0  0  0  0  0  0  0  0
   25.1655  -20.5183  -11.0550 C   0  0  0  0  0  0  0  0  0  0  0  0
   26.5535  -20.0259  -10.7774 C   0  0  2  0  0  0  0  0  0  0  0  0
   27.3271  -19.9908  -12.0378 N   0  0  0  0  0  0  0  0  0  0  0  0
   27.2385  -20.8803   -9.7968 C   0  0  0  0  0  0  0  0  0  0  0  0
   27.7376  -22.1331  -10.2239 O   0  0  0  0  0  0  0  0  0  0  0  0
   27.4440  -20.6348   -8.5938 O   0  0  0  0  0  0  0  0  0  0  0  0
  1  2  1  0
  3  4  1  0
  3  2  1  0
  5  4  1  0
  5  6  1  1
  7  5  1  0
  8  7  2  0
  9 10  1  0
  9  7  1  0
 11 10  1  0
 12 13  1  0
 12 11  1  0
 13  9  1  0
 14 21  1  0
 13 14  1  1
 15 14  2  0
 17 16  1  0
 18 17  1  0
 19 18  1  0
 20 19  1  6
 20 21  1  0
 22 20  1  0
 22 23  1  0
 24 22  2  0
M  END
$$$$
