MPM.pdb
     RDKit          3D

 24 24  0  0  1  0  0  0  0  0999 V2000
   20.1396  -16.4542  -14.0004 C   0  0  0  0  0  0  0  0  0  0  0  0
   20.5990  -17.4485  -15.4342 S   0  0  0  0  0  0  0  0  0  0  0  0
   22.1466  -18.3845  -15.1201 C   0  0  0  0  0  0  0  0  0  0  0  0
   22.1601  -18.7724  -13.6842 C   0  0  0  0  0  0  0  0  0  0  0  0
   22.0996  -20.2519  -13.4113 C   0  0  2  0  0  0  0  0  0  0  0  0
   20.7238  -20.6028  -13.2604 N   0  0  0  0  0  0  0  0  0  0  0  0
   23.0021  -20.7212  -12.3564 C   0  0  0  0  0  0  0  0  0  0  0  0
   22.5019  -20.8232  -11.1761 O   0  0  0  0  0  0  0  0  0  0  0  0
   24.3634  -21.0752  -12.4905 N   0  0  0  0  0  0  0  0  0  0  0  0
   25.2788  -21.0241  -13.6089 C   0  0  0  0  0  0  0  0  0  0  0  0
   25.9490  -22.3967  -13.5145 C   0  0  0  0  0  0  0  0  0  0  0  0
   26.2114  -22.5122  -12.0294 C   0  0  0  0  0  0  0  0  0  0  0  0
   25.1746  -21.6071  -11.4062 C   0  0  1  0  0  0  0  0  0  0  0  0
   25.8678  -20.5424  -10.6566 C   0  0  0  0  0  0  0  0  0  0  0  0
   26.3223  -19.5775  -11.3378 O   0  0  0  0  0  0  0  0  0  0  0  0
   27.2520  -20.7720   -4.2050 C   0  0  0  0  0  0  0  0  0  0  0  0
   28.2819  -19.3895   -4.7284 S   0  0  0  0  0  0  0  0  0  0  0  0
   28.4338  -19.4005   -6.5573 C   0  0  0  0  0  0  0  0  0  0  0  0
   27.1873  -19.9566   -7.1816 C   0  0  0  0  0  0  0  0  0  0  0  0
   27.2956  -19.9539   -8.6764 C   0  0  2  0  0  0  0  0  0  0  0  0
   26.0598  -20.5173   -9.2628 N   0  0  0  0  0  0  0  0  0  0  0  0
   28.4596  -20.7284   -9.1303 C   0  0  0  0  0  0  0  0  0  0  0  0
   29.6806  -20.0483   -9.3483 O   0  0  0  0  0  0  0  0  0  0  0  0
   28.5117  -21.9515   -9.3561 O   0  0  0  0  0  0  0  0  0  0  0  0
  1  2  1  0
  3  4  1  0
  3  2  1  0
  5  4  1  0
  5  6  1  1
  7  5  1  0
  8  7  2  0
  9 10  1  0
  9  7  1  0
 11 10  1  0
 12 13  1  0
 12 11  1  0
 13  9  1  0
 14 21  1  0
 13 14  1  6
 15 14  2  0
 17 16  1  0
 18 17  1  0
 19 18  1  0
 20 19  1  1
 20 21  1  0
 22 20  1  0
 22 23  1  0
 24 22  2  0
M  END
$$$$
