MPM.pdb
     RDKit          3D

 24 24  0  0  1  0  0  0  0  0999 V2000
   20.5153  -21.5800  -17.3040 C   0  0  0  0  0  0  0  0  0  0  0  0
   20.7174  -19.9778  -16.4991 S   0  0  0  0  0  0  0  0  0  0  0  0
   22.4931  -19.5476  -16.3212 C   0  0  0  0  0  0  0  0  0  0  0  0
   23.1100  -20.5354  -15.3960 C   0  0  0  0  0  0  0  0  0  0  0  0
   24.4164  -21.1266  -15.8554 C   0  0  2  0  0  0  0  0  0  0  0  0
   24.1101  -22.2531  -16.6776 N   0  0  0  0  0  0  0  0  0  0  0  0
   25.3972  -21.3555  -14.7909 C   0  0  0  0  0  0  0  0  0  0  0  0
   25.6273  -22.5807  -14.4757 O   0  0  0  0  0  0  0  0  0  0  0  0
   26.1203  -20.3788  -14.0699 N   0  0  0  0  0  0  0  0  0  0  0  0
   26.1230  -18.9335  -14.1191 C   0  0  0  0  0  0  0  0  0  0  0  0
   27.6236  -18.6331  -14.1094 C   0  0  0  0  0  0  0  0  0  0  0  0
   28.1236  -19.5849  -13.0456 C   0  0  0  0  0  0  0  0  0  0  0  0
   27.0930  -20.6895  -13.0335 C   0  0  1  0  0  0  0  0  0  0  0  0
   26.4785  -20.7462  -11.6935 C   0  0  0  0  0  0  0  0  0  0  0  0
   25.2805  -20.3478  -11.6053 O   0  0  0  0  0  0  0  0  0  0  0  0
   29.0580  -20.2993   -5.3547 C   0  0  0  0  0  0  0  0  0  0  0  0
   27.7494  -19.1501   -5.8161 S   0  0  0  0  0  0  0  0  0  0  0  0
   26.6132  -19.9652   -7.0048 C   0  0  0  0  0  0  0  0  0  0  0  0
   27.3365  -20.2913   -8.2789 C   0  0  0  0  0  0  0  0  0  0  0  0
   26.4550  -21.0744   -9.2041 C   0  0  2  0  0  0  0  0  0  0  0  0
   27.1125  -21.2025  -10.5231 N   0  0  0  0  0  0  0  0  0  0  0  0
   25.1418  -20.4333   -9.3628 C   0  0  0  0  0  0  0  0  0  0  0  0
   24.0126  -21.0514   -8.7766 O   0  0  0  0  0  0  0  0  0  0  0  0
   24.8853  -19.3769   -9.9694 O   0  0  0  0  0  0  0  0  0  0  0  0
  1  2  1  0
  3  4  1  0
  3  2  1  0
  5  4  1  0
  5  6  1  1
  7  5  1  0
  8  7  2  0
  9 10  1  0
  9  7  1  0
 11 10  1  0
 12 13  1  0
 12 11  1  0
 13  9  1  0
 14 21  1  0
 13 14  1  1
 15 14  2  0
 17 16  1  0
 18 17  1  0
 19 18  1  0
 20 19  1  1
 20 21  1  0
 22 20  1  0
 22 23  1  0
 24 22  2  0
M  END
$$$$
