MPM.pdb
     RDKit          3D

 24 24  0  0  1  0  0  0  0  0999 V2000
   20.6578  -13.0143    4.0018 C   0  0  0  0  0  0  0  0  0  0  0  0
   19.3397  -11.8363    4.3631 S   0  0  0  0  0  0  0  0  0  0  0  0
   17.6899  -12.5689    4.0297 C   0  0  0  0  0  0  0  0  0  0  0  0
   17.7780  -14.0293    4.2978 C   0  0  0  0  0  0  0  0  0  0  0  0
   16.4909  -14.7956    4.1454 C   0  0  2  0  0  0  0  0  0  0  0  0
   15.5179  -14.1672    4.9804 N   0  0  0  0  0  0  0  0  0  0  0  0
   16.6184  -16.2485    4.2882 C   0  0  0  0  0  0  0  0  0  0  0  0
   16.2061  -16.7551    5.3959 O   0  0  0  0  0  0  0  0  0  0  0  0
   17.1446  -17.1577    3.3433 N   0  0  0  0  0  0  0  0  0  0  0  0
   17.6601  -16.9826    2.0035 C   0  0  0  0  0  0  0  0  0  0  0  0
   16.9749  -18.1332    1.2628 C   0  0  0  0  0  0  0  0  0  0  0  0
   17.1397  -19.2742    2.2419 C   0  0  0  0  0  0  0  0  0  0  0  0
   17.2801  -18.5869    3.5799 C   0  0  1  0  0  0  0  0  0  0  0  0
   18.5950  -18.9333    4.1521 C   0  0  0  0  0  0  0  0  0  0  0  0
   19.5804  -18.2430    3.7596 O   0  0  0  0  0  0  0  0  0  0  0  0
   22.6594  -16.8193    9.5861 C   0  0  0  0  0  0  0  0  0  0  0  0
   21.1630  -16.9515    8.5914 S   0  0  0  0  0  0  0  0  0  0  0  0
   21.1808  -18.5393    7.6714 C   0  0  0  0  0  0  0  0  0  0  0  0
   20.0496  -18.5847    6.6859 C   0  0  0  0  0  0  0  0  0  0  0  0
   20.0106  -19.9078    5.9830 C   0  0  2  0  0  0  0  0  0  0  0  0
   18.8345  -19.9573    5.0871 N   0  0  0  0  0  0  0  0  0  0  0  0
   19.9536  -21.0213    6.9409 C   0  0  0  0  0  0  0  0  0  0  0  0
   21.1247  -21.7834    7.1618 O   0  0  0  0  0  0  0  0  0  0  0  0
   18.9711  -21.3946    7.6080 O   0  0  0  0  0  0  0  0  0  0  0  0
  1  2  1  0
  3  4  1  0
  3  2  1  0
  5  4  1  0
  5  6  1  1
  7  5  1  0
  8  7  2  0
  9 10  1  0
  9  7  1  0
 11 10  1  0
 12 13  1  0
 12 11  1  0
 13  9  1  0
 14 21  1  0
 13 14  1  6
 15 14  2  0
 17 16  1  0
 18 17  1  0
 19 18  1  0
 20 19  1  1
 20 21  1  0
 22 20  1  0
 22 23  1  0
 24 22  2  0
M  END
$$$$
