MPM.pdb
     RDKit          3D

 24 24  0  0  1  0  0  0  0  0999 V2000
   20.8866  -19.0518  -14.3111 C   0  0  0  0  0  0  0  0  0  0  0  0
   21.3607  -17.8026  -15.5236 S   0  0  0  0  0  0  0  0  0  0  0  0
   23.0494  -18.1178  -16.1706 C   0  0  0  0  0  0  0  0  0  0  0  0
   23.7922  -18.8958  -15.1434 C   0  0  0  0  0  0  0  0  0  0  0  0
   24.6875  -19.9834  -15.6752 C   0  0  2  0  0  0  0  0  0  0  0  0
   23.9121  -20.7718  -16.5785 N   0  0  0  0  0  0  0  0  0  0  0  0
   25.4322  -20.7233  -14.6527 C   0  0  0  0  0  0  0  0  0  0  0  0
   24.9726  -21.8808  -14.3325 O   0  0  0  0  0  0  0  0  0  0  0  0
   26.6013  -20.3069  -13.9773 N   0  0  0  0  0  0  0  0  0  0  0  0
   27.4176  -19.1178  -14.0830 C   0  0  0  0  0  0  0  0  0  0  0  0
   28.8255  -19.7176  -14.0990 C   0  0  0  0  0  0  0  0  0  0  0  0
   28.7326  -20.7562  -13.0034 C   0  0  0  0  0  0  0  0  0  0  0  0
   27.2594  -21.0846  -12.9385 C   0  0  1  0  0  0  0  0  0  0  0  0
   26.7603  -20.7479  -11.5918 C   0  0  0  0  0  0  0  0  0  0  0  0
   26.3995  -19.5489  -11.4076 O   0  0  0  0  0  0  0  0  0  0  0  0
   29.3042  -19.6578   -6.5892 C   0  0  0  0  0  0  0  0  0  0  0  0
   27.7216  -18.8466   -6.3010 S   0  0  0  0  0  0  0  0  0  0  0  0
   26.4282  -19.6524   -7.3237 C   0  0  0  0  0  0  0  0  0  0  0  0
   27.0309  -20.2205   -8.5755 C   0  0  0  0  0  0  0  0  0  0  0  0
   26.0995  -21.2065   -9.2129 C   0  0  2  0  0  0  0  0  0  0  0  0
   26.6559  -21.6440  -10.5119 N   0  0  0  0  0  0  0  0  0  0  0  0
   24.7631  -20.6280   -9.4137 C   0  0  0  0  0  0  0  0  0  0  0  0
   24.2093  -20.6415  -10.7153 O   0  0  0  0  0  0  0  0  0  0  0  0
   24.0280  -20.1082   -8.5540 O   0  0  0  0  0  0  0  0  0  0  0  0
  1  2  1  0
  3  4  1  0
  3  2  1  0
  5  4  1  0
  5  6  1  1
  7  5  1  0
  8  7  2  0
  9 10  1  0
  9  7  1  0
 11 10  1  0
 12 13  1  0
 12 11  1  0
 13  9  1  0
 14 21  1  0
 13 14  1  1
 15 14  2  0
 17 16  1  0
 18 17  1  0
 19 18  1  0
 20 19  1  6
 20 21  1  0
 22 20  1  0
 22 23  1  0
 24 22  2  0
M  END
$$$$
