MPM.pdb
     RDKit          3D

 24 24  0  0  1  0  0  0  0  0999 V2000
   17.2268  -13.6494  -15.8127 C   0  0  0  0  0  0  0  0  0  0  0  0
   16.6687  -13.1530  -17.4552 S   0  0  0  0  0  0  0  0  0  0  0  0
   18.0930  -12.8560  -18.5746 C   0  0  0  0  0  0  0  0  0  0  0  0
   18.9362  -11.7928  -17.9656 C   0  0  0  0  0  0  0  0  0  0  0  0
   20.2612  -11.5506  -18.6385 C   0  0  2  0  0  0  0  0  0  0  0  0
   20.9916  -12.7770  -18.5981 N   0  0  0  0  0  0  0  0  0  0  0  0
   20.9788  -10.3597  -18.1755 C   0  0  0  0  0  0  0  0  0  0  0  0
   22.0817  -10.5622  -17.5461 O   0  0  0  0  0  0  0  0  0  0  0  0
   20.5942   -9.0105  -18.3433 N   0  0  0  0  0  0  0  0  0  0  0  0
   19.4696   -8.3927  -19.0103 C   0  0  0  0  0  0  0  0  0  0  0  0
   20.1581   -7.2656  -19.7835 C   0  0  0  0  0  0  0  0  0  0  0  0
   21.1133   -6.7170  -18.7470 C   0  0  0  0  0  0  0  0  0  0  0  0
   21.3414   -7.8811  -17.8114 C   0  0  1  0  0  0  0  0  0  0  0  0
   20.8844   -7.4980  -16.4621 C   0  0  0  0  0  0  0  0  0  0  0  0
   19.8797   -8.1203  -16.0093 O   0  0  0  0  0  0  0  0  0  0  0  0
   21.5200  -10.7059  -12.5639 C   0  0  0  0  0  0  0  0  0  0  0  0
   21.9540   -9.4069  -11.3934 S   0  0  0  0  0  0  0  0  0  0  0  0
   21.5081   -7.7738  -12.1020 C   0  0  0  0  0  0  0  0  0  0  0  0
   21.6971   -7.7813  -13.5910 C   0  0  0  0  0  0  0  0  0  0  0  0
   21.2378   -6.4869  -14.1909 C   0  0  2  0  0  0  0  0  0  0  0  0
   21.4710   -6.5086  -15.6516 N   0  0  0  0  0  0  0  0  0  0  0  0
   21.9377   -5.3413  -13.5923 C   0  0  0  0  0  0  0  0  0  0  0  0
   21.5241   -4.8871  -12.3181 O   0  0  0  0  0  0  0  0  0  0  0  0
   22.8831   -4.6946  -14.0800 O   0  0  0  0  0  0  0  0  0  0  0  0
  1  2  1  0
  3  4  1  0
  3  2  1  0
  5  4  1  0
  5  6  1  1
  7  5  1  0
  8  7  2  0
  9 10  1  0
  9  7  1  0
 11 10  1  0
 12 13  1  0
 12 11  1  0
 13  9  1  0
 14 21  1  0
 13 14  1  1
 15 14  2  0
 17 16  1  0
 18 17  1  0
 19 18  1  0
 20 19  1  1
 20 21  1  0
 22 20  1  0
 22 23  1  0
 24 22  2  0
M  END
$$$$
