MPM.pdb
     RDKit          3D

 24 24  0  0  1  0  0  0  0  0999 V2000
   22.8734  -18.2534  -14.8960 C   0  0  0  0  0  0  0  0  0  0  0  0
   21.8729  -19.4315  -13.9650 S   0  0  0  0  0  0  0  0  0  0  0  0
   22.8680  -20.8895  -13.4611 C   0  0  0  0  0  0  0  0  0  0  0  0
   24.0188  -21.0003  -14.3969 C   0  0  0  0  0  0  0  0  0  0  0  0
   24.9547  -22.1516  -14.1408 C   0  0  2  0  0  0  0  0  0  0  0  0
   24.2483  -23.3535  -14.4499 N   0  0  0  0  0  0  0  0  0  0  0  0
   25.6299  -22.1193  -12.8406 C   0  0  0  0  0  0  0  0  0  0  0  0
   25.1738  -22.9120  -11.9367 O   0  0  0  0  0  0  0  0  0  0  0  0
   26.7287  -21.3130  -12.4676 N   0  0  0  0  0  0  0  0  0  0  0  0
   27.4878  -20.3089  -13.1795 C   0  0  0  0  0  0  0  0  0  0  0  0
   28.9227  -20.7085  -12.8279 C   0  0  0  0  0  0  0  0  0  0  0  0
   28.8109  -20.9947  -11.3469 C   0  0  0  0  0  0  0  0  0  0  0  0
   27.3554  -21.3516  -11.1551 C   0  0  1  0  0  0  0  0  0  0  0  0
   26.7513  -20.3820  -10.2219 C   0  0  0  0  0  0  0  0  0  0  0  0
   25.4936  -20.2534  -10.2783 O   0  0  0  0  0  0  0  0  0  0  0  0
   28.3016  -22.9997   -5.1997 C   0  0  0  0  0  0  0  0  0  0  0  0
   26.6566  -22.3080   -4.9512 S   0  0  0  0  0  0  0  0  0  0  0  0
   26.5456  -20.6813   -5.7935 C   0  0  0  0  0  0  0  0  0  0  0  0
   27.0433  -20.7890   -7.2054 C   0  0  0  0  0  0  0  0  0  0  0  0
   26.9719  -19.4609   -7.8962 C   0  0  2  0  0  0  0  0  0  0  0  0
   27.4555  -19.6005   -9.2873 N   0  0  0  0  0  0  0  0  0  0  0  0
   27.7698  -18.4473   -7.1914 C   0  0  0  0  0  0  0  0  0  0  0  0
   27.0951  -17.3847   -6.5461 O   0  0  0  0  0  0  0  0  0  0  0  0
   29.0093  -18.4014   -7.0850 O   0  0  0  0  0  0  0  0  0  0  0  0
  1  2  1  0
  3  4  1  0
  3  2  1  0
  5  4  1  0
  5  6  1  1
  7  5  1  0
  8  7  2  0
  9 10  1  0
  9  7  1  0
 11 10  1  0
 12 13  1  0
 12 11  1  0
 13  9  1  0
 14 21  1  0
 13 14  1  1
 15 14  2  0
 17 16  1  0
 18 17  1  0
 19 18  1  0
 20 19  1  1
 20 21  1  0
 22 20  1  0
 22 23  1  0
 24 22  2  0
M  END
$$$$
