MPM.pdb
     RDKit          3D

 24 24  0  0  1  0  0  0  0  0999 V2000
   17.3935  -24.2727    3.5132 C   0  0  0  0  0  0  0  0  0  0  0  0
   15.5940  -24.1567    3.4516 S   0  0  0  0  0  0  0  0  0  0  0  0
   15.0596  -22.5293    2.7916 C   0  0  0  0  0  0  0  0  0  0  0  0
   15.7895  -21.4724    3.5414 C   0  0  0  0  0  0  0  0  0  0  0  0
   15.7470  -20.0968    2.9306 C   0  0  2  0  0  0  0  0  0  0  0  0
   16.2503  -20.2047    1.5987 N   0  0  0  0  0  0  0  0  0  0  0  0
   16.3344  -19.0378    3.7559 C   0  0  0  0  0  0  0  0  0  0  0  0
   17.3519  -18.4242    3.2641 O   0  0  0  0  0  0  0  0  0  0  0  0
   15.9076  -18.6141    5.0344 N   0  0  0  0  0  0  0  0  0  0  0  0
   14.8732  -19.0916    5.9252 C   0  0  0  0  0  0  0  0  0  0  0  0
   14.2130  -17.7790    6.3534 C   0  0  0  0  0  0  0  0  0  0  0  0
   15.4145  -16.8994    6.6186 C   0  0  0  0  0  0  0  0  0  0  0  0
   16.5027  -17.5037    5.7623 C   0  0  1  0  0  0  0  0  0  0  0  0
   17.6048  -17.9412    6.6399 C   0  0  0  0  0  0  0  0  0  0  0  0
   17.5990  -19.1578    6.9885 O   0  0  0  0  0  0  0  0  0  0  0  0
   22.9418  -14.4704    8.8896 C   0  0  0  0  0  0  0  0  0  0  0  0
   23.5038  -16.1598    8.6136 S   0  0  0  0  0  0  0  0  0  0  0  0
   22.0672  -17.2996    8.6846 C   0  0  0  0  0  0  0  0  0  0  0  0
   20.9317  -16.7604    7.8644 C   0  0  0  0  0  0  0  0  0  0  0  0
   19.7560  -17.6887    7.9105 C   0  0  2  0  0  0  0  0  0  0  0  0
   18.6468  -17.1220    7.1123 N   0  0  0  0  0  0  0  0  0  0  0  0
   19.3084  -17.9176    9.2918 C   0  0  0  0  0  0  0  0  0  0  0  0
   19.9364  -18.9366   10.0457 O   0  0  0  0  0  0  0  0  0  0  0  0
   18.4146  -17.3078    9.9073 O   0  0  0  0  0  0  0  0  0  0  0  0
  1  2  1  0
  3  4  1  0
  3  2  1  0
  5  4  1  0
  5  6  1  6
  7  5  1  0
  8  7  2  0
  9 10  1  0
  9  7  1  0
 11 10  1  0
 12 13  1  0
 12 11  1  0
 13  9  1  0
 14 21  1  0
 13 14  1  1
 15 14  2  0
 17 16  1  0
 18 17  1  0
 19 18  1  0
 20 19  1  1
 20 21  1  0
 22 20  1  0
 22 23  1  0
 24 22  2  0
M  END
$$$$
