MPM.pdb
     RDKit          3D

 24 24  0  0  1  0  0  0  0  0999 V2000
   25.5390  -15.0967  -13.8705 C   0  0  0  0  0  0  0  0  0  0  0  0
   25.8231  -14.6338  -15.5911 S   0  0  0  0  0  0  0  0  0  0  0  0
   26.2844  -16.0959  -16.6006 C   0  0  0  0  0  0  0  0  0  0  0  0
   25.7697  -17.3075  -15.9083 C   0  0  0  0  0  0  0  0  0  0  0  0
   26.0295  -18.6147  -16.6090 C   0  0  2  0  0  0  0  0  0  0  0  0
   25.1121  -18.7048  -17.6995 N   0  0  0  0  0  0  0  0  0  0  0  0
   26.0968  -19.7835  -15.7275 C   0  0  0  0  0  0  0  0  0  0  0  0
   25.0612  -20.5454  -15.7038 O   0  0  0  0  0  0  0  0  0  0  0  0
   27.1744  -20.1683  -14.8986 N   0  0  0  0  0  0  0  0  0  0  0  0
   28.3877  -19.4905  -14.4986 C   0  0  0  0  0  0  0  0  0  0  0  0
   29.4295  -20.5944  -14.6941 C   0  0  0  0  0  0  0  0  0  0  0  0
   28.7267  -21.7934  -14.0972 C   0  0  0  0  0  0  0  0  0  0  0  0
   27.2599  -21.4539  -14.2228 C   0  0  1  0  0  0  0  0  0  0  0  0
   26.6684  -21.4124  -12.8721 C   0  0  0  0  0  0  0  0  0  0  0  0
   27.3415  -21.9501  -11.9449 O   0  0  0  0  0  0  0  0  0  0  0  0
   27.8578  -20.1644   -7.2923 C   0  0  0  0  0  0  0  0  0  0  0  0
   26.5643  -19.0288   -7.8244 S   0  0  0  0  0  0  0  0  0  0  0  0
   25.3641  -19.9253   -8.8846 C   0  0  0  0  0  0  0  0  0  0  0  0
   25.9012  -20.0641  -10.2793 C   0  0  0  0  0  0  0  0  0  0  0  0
   24.9436  -20.8274  -11.1433 C   0  0  2  0  0  0  0  0  0  0  0  0
   25.4314  -20.8296  -12.5399 N   0  0  0  0  0  0  0  0  0  0  0  0
   23.5940  -20.2474  -11.0886 C   0  0  0  0  0  0  0  0  0  0  0  0
   22.8328  -20.4170   -9.9085 O   0  0  0  0  0  0  0  0  0  0  0  0
   23.0125  -19.6019  -11.9801 O   0  0  0  0  0  0  0  0  0  0  0  0
  1  2  1  0
  3  4  1  0
  3  2  1  0
  5  4  1  0
  5  6  1  6
  7  5  1  0
  8  7  2  0
  9 10  1  0
  9  7  1  0
 11 10  1  0
 12 13  1  0
 12 11  1  0
 13  9  1  0
 14 21  1  0
 13 14  1  1
 15 14  2  0
 17 16  1  0
 18 17  1  0
 19 18  1  0
 20 19  1  1
 20 21  1  0
 22 20  1  0
 22 23  1  0
 24 22  2  0
M  END
$$$$
