MPM.pdb
     RDKit          3D

 24 24  0  0  1  0  0  0  0  0999 V2000
   19.5414  -16.2807  -12.9255 C   0  0  0  0  0  0  0  0  0  0  0  0
   20.2551  -17.8177  -13.5449 S   0  0  0  0  0  0  0  0  0  0  0  0
   20.4587  -17.7633  -15.3685 C   0  0  0  0  0  0  0  0  0  0  0  0
   20.7632  -16.3584  -15.7505 C   0  0  0  0  0  0  0  0  0  0  0  0
   20.9460  -16.1120  -17.2246 C   0  0  2  0  0  0  0  0  0  0  0  0
   21.8609  -17.0940  -17.7119 N   0  0  0  0  0  0  0  0  0  0  0  0
   21.2421  -14.7227  -17.5850 C   0  0  0  0  0  0  0  0  0  0  0  0
   22.4287  -14.4822  -18.0182 O   0  0  0  0  0  0  0  0  0  0  0  0
   20.3683  -13.6150  -17.5097 N   0  0  0  0  0  0  0  0  0  0  0  0
   18.9967  -13.4827  -17.0708 C   0  0  0  0  0  0  0  0  0  0  0  0
   18.4020  -12.6251  -18.1901 C   0  0  0  0  0  0  0  0  0  0  0  0
   19.4795  -11.5822  -18.3876 C   0  0  0  0  0  0  0  0  0  0  0  0
   20.7368  -12.2623  -17.8986 C   0  0  1  0  0  0  0  0  0  0  0  0
   21.2824  -11.4879  -16.7678 C   0  0  0  0  0  0  0  0  0  0  0  0
   21.0729  -11.9559  -15.6107 O   0  0  0  0  0  0  0  0  0  0  0  0
   26.8936  -12.0048  -15.4540 C   0  0  0  0  0  0  0  0  0  0  0  0
   26.8462  -10.2501  -15.0482 S   0  0  0  0  0  0  0  0  0  0  0  0
   25.1040   -9.7281  -14.8021 C   0  0  0  0  0  0  0  0  0  0  0  0
   24.2591  -10.1639  -15.9636 C   0  0  0  0  0  0  0  0  0  0  0  0
   22.8243   -9.7894  -15.7463 C   0  0  2  0  0  0  0  0  0  0  0  0
   22.0072  -10.2865  -16.8748 N   0  0  0  0  0  0  0  0  0  0  0  0
   22.6643   -8.3337  -15.6195 C   0  0  0  0  0  0  0  0  0  0  0  0
   22.6543   -7.7651  -14.3242 O   0  0  0  0  0  0  0  0  0  0  0  0
   22.5313   -7.5053  -16.5391 O   0  0  0  0  0  0  0  0  0  0  0  0
  1  2  1  0
  3  4  1  0
  3  2  1  0
  5  4  1  0
  5  6  1  1
  7  5  1  0
  8  7  2  0
  9 10  1  0
  9  7  1  0
 11 10  1  0
 12 13  1  0
 12 11  1  0
 13  9  1  0
 14 21  1  0
 13 14  1  1
 15 14  2  0
 17 16  1  0
 18 17  1  0
 19 18  1  0
 20 19  1  6
 20 21  1  0
 22 20  1  0
 22 23  1  0
 24 22  2  0
M  END
$$$$
