MPM.pdb
     RDKit          3D

 24 24  0  0  1  0  0  0  0  0999 V2000
   15.9272   -7.2707  -17.5171 C   0  0  0  0  0  0  0  0  0  0  0  0
   16.1772   -9.0006  -17.9649 S   0  0  0  0  0  0  0  0  0  0  0  0
   17.7903   -9.6172  -17.3425 C   0  0  0  0  0  0  0  0  0  0  0  0
   17.7977   -9.4591  -15.8636 C   0  0  0  0  0  0  0  0  0  0  0  0
   19.0504   -9.9217  -15.1680 C   0  0  2  0  0  0  0  0  0  0  0  0
   19.1672  -11.3277  -15.3882 N   0  0  0  0  0  0  0  0  0  0  0  0
   19.1842   -9.4755  -13.7785 C   0  0  0  0  0  0  0  0  0  0  0  0
   18.8950  -10.3366  -12.8684 O   0  0  0  0  0  0  0  0  0  0  0  0
   19.5963   -8.2023  -13.3253 N   0  0  0  0  0  0  0  0  0  0  0  0
   20.0319   -7.0126  -14.0228 C   0  0  0  0  0  0  0  0  0  0  0  0
   21.2613   -6.6142  -13.2030 C   0  0  0  0  0  0  0  0  0  0  0  0
   20.7637   -6.8010  -11.7869 C   0  0  0  0  0  0  0  0  0  0  0  0
   19.6567   -7.8201  -11.9227 C   0  0  1  0  0  0  0  0  0  0  0  0
   18.3960   -7.2114  -11.4577 C   0  0  0  0  0  0  0  0  0  0  0  0
   17.7676   -6.5041  -12.2983 O   0  0  0  0  0  0  0  0  0  0  0  0
   11.7683   -7.9372   -7.4337 C   0  0  0  0  0  0  0  0  0  0  0  0
   13.3625   -8.6212   -7.9200 S   0  0  0  0  0  0  0  0  0  0  0  0
   14.3698   -7.3115   -8.7189 C   0  0  0  0  0  0  0  0  0  0  0  0
   15.7031   -7.8597   -9.1364 C   0  0  0  0  0  0  0  0  0  0  0  0
   16.5054   -6.8161   -9.8529 C   0  0  2  0  0  0  0  0  0  0  0  0
   17.8462   -7.3546  -10.1703 N   0  0  0  0  0  0  0  0  0  0  0  0
   16.6381   -5.5950   -9.0454 C   0  0  0  0  0  0  0  0  0  0  0  0
   15.5869   -4.6488   -9.0733 O   0  0  0  0  0  0  0  0  0  0  0  0
   17.5918   -5.2737   -8.3127 O   0  0  0  0  0  0  0  0  0  0  0  0
  1  2  1  0
  3  4  1  0
  3  2  1  0
  5  4  1  0
  5  6  1  1
  7  5  1  0
  8  7  2  0
  9 10  1  0
  9  7  1  0
 11 10  1  0
 12 13  1  0
 12 11  1  0
 13  9  1  0
 14 21  1  0
 13 14  1  6
 15 14  2  0
 17 16  1  0
 18 17  1  0
 19 18  1  0
 20 19  1  1
 20 21  1  0
 22 20  1  0
 22 23  1  0
 24 22  2  0
M  END
$$$$
