MPM.pdb
     RDKit          3D

 24 24  0  0  1  0  0  0  0  0999 V2000
   21.1692  -16.8805  -15.2784 C   0  0  0  0  0  0  0  0  0  0  0  0
   21.5921  -16.6744  -17.0203 S   0  0  0  0  0  0  0  0  0  0  0  0
   23.1908  -17.4869  -17.4122 C   0  0  0  0  0  0  0  0  0  0  0  0
   23.4038  -18.5743  -16.4199 C   0  0  0  0  0  0  0  0  0  0  0  0
   24.4723  -19.5746  -16.7730 C   0  0  2  0  0  0  0  0  0  0  0  0
   23.9201  -20.4656  -17.7426 N   0  0  0  0  0  0  0  0  0  0  0  0
   25.1318  -20.2027  -15.6249 C   0  0  0  0  0  0  0  0  0  0  0  0
   24.5214  -21.1977  -15.0856 O   0  0  0  0  0  0  0  0  0  0  0  0
   26.3661  -19.8371  -15.0424 N   0  0  0  0  0  0  0  0  0  0  0  0
   27.3442  -18.8276  -15.3827 C   0  0  0  0  0  0  0  0  0  0  0  0
   28.6486  -19.6201  -15.2707 C   0  0  0  0  0  0  0  0  0  0  0  0
   28.4332  -20.3923  -13.9881 C   0  0  0  0  0  0  0  0  0  0  0  0
   26.9299  -20.4791  -13.8649 C   0  0  1  0  0  0  0  0  0  0  0  0
   26.5199  -19.8089  -12.6163 C   0  0  0  0  0  0  0  0  0  0  0  0
   26.2019  -18.5876  -12.7101 O   0  0  0  0  0  0  0  0  0  0  0  0
   19.9724  -20.1763   -9.7238 C   0  0  0  0  0  0  0  0  0  0  0  0
   21.3174  -20.6564  -10.8223 S   0  0  0  0  0  0  0  0  0  0  0  0
   22.9211  -20.1842  -10.0652 C   0  0  0  0  0  0  0  0  0  0  0  0
   24.0436  -20.4110  -11.0354 C   0  0  0  0  0  0  0  0  0  0  0  0
   25.3640  -20.0876  -10.4045 C   0  0  2  0  0  0  0  0  0  0  0  0
   26.4560  -20.4142  -11.3476 N   0  0  0  0  0  0  0  0  0  0  0  0
   25.5530  -20.8281   -9.1488 C   0  0  0  0  0  0  0  0  0  0  0  0
   25.8822  -22.2021   -9.2174 O   0  0  0  0  0  0  0  0  0  0  0  0
   25.4571  -20.3858   -7.9891 O   0  0  0  0  0  0  0  0  0  0  0  0
  1  2  1  0
  3  4  1  0
  3  2  1  0
  5  4  1  0
  5  6  1  6
  7  5  1  0
  8  7  2  0
  9 10  1  0
  9  7  1  0
 11 10  1  0
 12 13  1  0
 12 11  1  0
 13  9  1  0
 14 21  1  0
 13 14  1  1
 15 14  2  0
 17 16  1  0
 18 17  1  0
 19 18  1  0
 20 19  1  6
 20 21  1  0
 22 20  1  0
 22 23  1  0
 24 22  2  0
M  END
$$$$
