MIT.pdb
     RDKit          3D

 24 23  0  0  1  0  0  0  0  0999 V2000
   16.4559  -22.6189  -12.6918 C   0  0  0  0  0  0  0  0  0  0  0  0
   17.2844  -24.0360  -11.9797 S   0  0  0  0  0  0  0  0  0  0  0  0
   18.5096  -23.5513  -10.7530 C   0  0  0  0  0  0  0  0  0  0  0  0
   19.3678  -22.4293  -11.3213 C   0  0  0  0  0  0  0  0  0  0  0  0
   20.3836  -21.9664  -10.3047 C   0  0  2  0  0  0  0  0  0  0  0  0
   19.8156  -21.3669   -9.1441 N   0  0  0  0  0  0  0  0  0  0  0  0
   21.2964  -20.9642  -10.9746 C   0  0  0  0  0  0  0  0  0  0  0  0
   21.0344  -19.7562  -10.7667 O   0  0  0  0  0  0  0  0  0  0  0  0
   26.3579  -21.2285  -10.3261 C   0  0  0  0  0  0  0  0  0  0  0  0
   24.9730  -20.7997  -10.7300 C   0  0  0  0  0  0  0  0  0  0  0  0
   24.6943  -21.0183  -12.1911 C   0  0  2  0  0  0  0  0  0  0  0  0
   25.7872  -20.2237  -12.9232 C   0  0  0  0  0  0  0  0  0  0  0  0
   23.3013  -20.5947  -12.5382 C   0  0  2  0  0  0  0  0  0  0  0  0
   22.3631  -21.3884  -11.7740 N   0  0  0  0  0  0  0  0  0  0  0  0
   22.9609  -20.6307  -13.9704 C   0  0  0  0  0  0  0  0  0  0  0  0
   23.0255  -21.7508  -14.6057 O   0  0  0  0  0  0  0  0  0  0  0  0
   19.7001  -19.8921  -15.5860 C   0  0  0  0  0  0  0  0  0  0  0  0
   20.7175  -18.9635  -16.2133 C   0  0  1  0  0  0  0  0  0  0  0  0
   20.5072  -17.6743  -15.7667 O   0  0  0  0  0  0  0  0  0  0  0  0
   22.1137  -19.4450  -16.0183 C   0  0  2  0  0  0  0  0  0  0  0  0
   22.5645  -19.4589  -14.6454 N   0  0  0  0  0  0  0  0  0  0  0  0
   23.0989  -18.7985  -16.9551 C   0  0  0  0  0  0  0  0  0  0  0  0
   22.9649  -18.7563  -18.3217 O   0  0  0  0  0  0  0  0  0  0  0  0
   24.1025  -18.2702  -16.3730 O   0  0  0  0  0  0  0  0  0  0  0  0
  1  2  1  0
  2  3  1  0
  4  3  1  0
  5  4  1  0
  5  6  1  1
  7 14  1  0
  7  5  1  0
  8  7  2  0
 10  9  1  0
 10 11  1  0
 11 12  1  6
 11 13  1  0
 13 14  1  1
 15 13  1  0
 15 21  1  0
 16 15  2  0
 18 17  1  1
 18 20  1  0
 19 18  1  0
 20 21  1  1
 20 22  1  0
 22 23  1  0
 24 22  2  0
M  END
$$$$
