MIT.pdb
     RDKit          3D

 24 23  0  0  1  0  0  0  0  0999 V2000
   26.0104  -16.5312  -16.1330 C   0  0  0  0  0  0  0  0  0  0  0  0
   27.7902  -16.5546  -16.3168 S   0  0  0  0  0  0  0  0  0  0  0  0
   28.5080  -18.0896  -15.7093 C   0  0  0  0  0  0  0  0  0  0  0  0
   27.4041  -18.9583  -15.1216 C   0  0  0  0  0  0  0  0  0  0  0  0
   27.9894  -20.1234  -14.3603 C   0  0  2  0  0  0  0  0  0  0  0  0
   28.7369  -21.0298  -15.1656 N   0  0  0  0  0  0  0  0  0  0  0  0
   26.8531  -20.8756  -13.7051 C   0  0  0  0  0  0  0  0  0  0  0  0
   26.4465  -21.8951  -14.3106 O   0  0  0  0  0  0  0  0  0  0  0  0
   26.6677  -20.6415   -8.3491 C   0  0  0  0  0  0  0  0  0  0  0  0
   26.4061  -21.1459   -9.7426 C   0  0  0  0  0  0  0  0  0  0  0  0
   25.1926  -20.5222  -10.3738 C   0  0  2  0  0  0  0  0  0  0  0  0
   24.0087  -21.0274   -9.5340 C   0  0  0  0  0  0  0  0  0  0  0  0
   25.1024  -20.8787  -11.8247 C   0  0  2  0  0  0  0  0  0  0  0  0
   26.3069  -20.4370  -12.4943 N   0  0  0  0  0  0  0  0  0  0  0  0
   23.9087  -20.3840  -12.5310 C   0  0  0  0  0  0  0  0  0  0  0  0
   23.7400  -19.1135  -12.6703 O   0  0  0  0  0  0  0  0  0  0  0  0
   22.8777  -21.0834  -16.0410 C   0  0  0  0  0  0  0  0  0  0  0  0
   21.6927  -21.4483  -15.1729 C   0  0  1  0  0  0  0  0  0  0  0  0
   21.5150  -22.8172  -15.1809 O   0  0  0  0  0  0  0  0  0  0  0  0
   21.7967  -20.8656  -13.8059 C   0  0  2  0  0  0  0  0  0  0  0  0
   22.9586  -21.2833  -13.0550 N   0  0  0  0  0  0  0  0  0  0  0  0
   20.5178  -20.9709  -13.0188 C   0  0  0  0  0  0  0  0  0  0  0  0
   19.3154  -20.4315  -13.4068 O   0  0  0  0  0  0  0  0  0  0  0  0
   20.6288  -21.6216  -11.9281 O   0  0  0  0  0  0  0  0  0  0  0  0
  1  2  1  0
  2  3  1  0
  4  3  1  0
  5  4  1  0
  5  6  1  6
  7 14  1  0
  7  5  1  0
  8  7  2  0
 10  9  1  0
 10 11  1  0
 11 12  1  1
 11 13  1  0
 13 14  1  6
 15 13  1  0
 15 21  1  0
 16 15  2  0
 18 17  1  6
 18 20  1  0
 19 18  1  0
 20 21  1  1
 20 22  1  0
 22 23  1  0
 24 22  2  0
M  END
$$$$
