MIT.pdb
     RDKit          3D

 24 23  0  0  1  0  0  0  0  0999 V2000
   26.3018  -15.6812  -15.1773 C   0  0  0  0  0  0  0  0  0  0  0  0
   27.6394  -16.2006  -16.2463 S   0  0  0  0  0  0  0  0  0  0  0  0
   28.4133  -17.7184  -15.6646 C   0  0  0  0  0  0  0  0  0  0  0  0
   27.3407  -18.6422  -15.1039 C   0  0  0  0  0  0  0  0  0  0  0  0
   27.9660  -19.8409  -14.4319 C   0  0  2  0  0  0  0  0  0  0  0  0
   28.7115  -20.6788  -15.3101 N   0  0  0  0  0  0  0  0  0  0  0  0
   26.8602  -20.6565  -13.8008 C   0  0  0  0  0  0  0  0  0  0  0  0
   26.4580  -21.6428  -14.4616 O   0  0  0  0  0  0  0  0  0  0  0  0
   26.6649  -20.6708   -8.3707 C   0  0  0  0  0  0  0  0  0  0  0  0
   26.4647  -21.0912   -9.8019 C   0  0  0  0  0  0  0  0  0  0  0  0
   25.2408  -20.4814  -10.4265 C   0  0  2  0  0  0  0  0  0  0  0  0
   24.0653  -21.0195   -9.5955 C   0  0  0  0  0  0  0  0  0  0  0  0
   25.1592  -20.8197  -11.8823 C   0  0  2  0  0  0  0  0  0  0  0  0
   26.3355  -20.3078  -12.5518 N   0  0  0  0  0  0  0  0  0  0  0  0
   23.9375  -20.3752  -12.5738 C   0  0  0  0  0  0  0  0  0  0  0  0
   23.7108  -19.1126  -12.7040 O   0  0  0  0  0  0  0  0  0  0  0  0
   22.8977  -21.0638  -16.0920 C   0  0  0  0  0  0  0  0  0  0  0  0
   21.7581  -21.5230  -15.2080 C   0  0  1  0  0  0  0  0  0  0  0  0
   21.6836  -22.9014  -15.2248 O   0  0  0  0  0  0  0  0  0  0  0  0
   21.8409  -20.9440  -13.8379 C   0  0  2  0  0  0  0  0  0  0  0  0
   23.0232  -21.3131  -13.0937 N   0  0  0  0  0  0  0  0  0  0  0  0
   20.5710  -21.1115  -13.0470 C   0  0  0  0  0  0  0  0  0  0  0  0
   19.3412  -20.6377  -13.4348 O   0  0  0  0  0  0  0  0  0  0  0  0
   20.7183  -21.7494  -11.9530 O   0  0  0  0  0  0  0  0  0  0  0  0
  1  2  1  0
  2  3  1  0
  4  3  1  0
  5  4  1  0
  5  6  1  6
  7 14  1  0
  7  5  1  0
  8  7  2  0
 10  9  1  0
 10 11  1  0
 11 12  1  1
 11 13  1  0
 13 14  1  6
 15 13  1  0
 15 21  1  0
 16 15  2  0
 18 17  1  6
 18 20  1  0
 19 18  1  0
 20 21  1  1
 20 22  1  0
 22 23  1  0
 24 22  2  0
M  END
$$$$
