MIT.pdb
     RDKit          3D

 24 23  0  0  1  0  0  0  0  0999 V2000
   26.9552  -17.8626  -18.6831 C   0  0  0  0  0  0  0  0  0  0  0  0
   28.3190  -18.9251  -18.2218 S   0  0  0  0  0  0  0  0  0  0  0  0
   27.7592  -20.5691  -17.7481 C   0  0  0  0  0  0  0  0  0  0  0  0
   26.8723  -20.4583  -16.5154 C   0  0  0  0  0  0  0  0  0  0  0  0
   27.3352  -21.4084  -15.4372 C   0  0  2  0  0  0  0  0  0  0  0  0
   27.9463  -22.5969  -15.9301 N   0  0  0  0  0  0  0  0  0  0  0  0
   26.1358  -21.7881  -14.5983 C   0  0  0  0  0  0  0  0  0  0  0  0
   25.5555  -22.8523  -14.9176 O   0  0  0  0  0  0  0  0  0  0  0  0
   26.6151  -20.6790   -9.4252 C   0  0  0  0  0  0  0  0  0  0  0  0
   26.1222  -21.3143  -10.6973 C   0  0  0  0  0  0  0  0  0  0  0  0
   24.9499  -20.5901  -11.2984 C   0  0  2  0  0  0  0  0  0  0  0  0
   23.8299  -20.7196  -10.2540 C   0  0  0  0  0  0  0  0  0  0  0  0
   24.5993  -21.1603  -12.6372 C   0  0  2  0  0  0  0  0  0  0  0  0
   25.7204  -20.9804  -13.5343 N   0  0  0  0  0  0  0  0  0  0  0  0
   23.3624  -20.6441  -13.2472 C   0  0  0  0  0  0  0  0  0  0  0  0
   23.2771  -19.3902  -13.5347 O   0  0  0  0  0  0  0  0  0  0  0  0
   21.8814  -21.1583  -16.4513 C   0  0  0  0  0  0  0  0  0  0  0  0
   20.7849  -21.5603  -15.4884 C   0  0  1  0  0  0  0  0  0  0  0  0
   20.5831  -22.9241  -15.5573 O   0  0  0  0  0  0  0  0  0  0  0  0
   21.0380  -21.0609  -14.1079 C   0  0  2  0  0  0  0  0  0  0  0  0
   22.2810  -21.5055  -13.5203 N   0  0  0  0  0  0  0  0  0  0  0  0
   19.8575  -21.2345  -13.1901 C   0  0  0  0  0  0  0  0  0  0  0  0
   18.6203  -20.6734  -13.3945 O   0  0  0  0  0  0  0  0  0  0  0  0
   20.0907  -21.9674  -12.1734 O   0  0  0  0  0  0  0  0  0  0  0  0
  1  2  1  0
  2  3  1  0
  4  3  1  0
  5  4  1  0
  5  6  1  6
  7 14  1  0
  7  5  1  0
  8  7  2  0
 10  9  1  0
 10 11  1  0
 11 12  1  1
 11 13  1  0
 13 14  1  6
 15 13  1  0
 15 21  1  0
 16 15  2  0
 18 17  1  6
 18 20  1  0
 19 18  1  0
 20 21  1  1
 20 22  1  0
 22 23  1  0
 24 22  2  0
M  END
$$$$
