MIT.pdb
     RDKit          3D

 24 23  0  0  1  0  0  0  0  0999 V2000
   22.3485  -22.7531  -17.9435 C   0  0  0  0  0  0  0  0  0  0  0  0
   22.8410  -21.0348  -17.8606 S   0  0  0  0  0  0  0  0  0  0  0  0
   24.5802  -20.8546  -17.4325 C   0  0  0  0  0  0  0  0  0  0  0  0
   25.3256  -22.1215  -17.8296 C   0  0  0  0  0  0  0  0  0  0  0  0
   26.7633  -22.0608  -17.3726 C   0  0  2  0  0  0  0  0  0  0  0  0
   27.4986  -20.9630  -17.9046 N   0  0  0  0  0  0  0  0  0  0  0  0
   27.4422  -23.3479  -17.7835 C   0  0  0  0  0  0  0  0  0  0  0  0
   27.9187  -23.3730  -18.9427 O   0  0  0  0  0  0  0  0  0  0  0  0
   31.5655  -25.1962  -15.7947 C   0  0  0  0  0  0  0  0  0  0  0  0
   30.3399  -25.0368  -16.6534 C   0  0  0  0  0  0  0  0  0  0  0  0
   29.2350  -25.9854  -16.2801 C   0  0  2  0  0  0  0  0  0  0  0  0
   29.8531  -27.3852  -16.4234 C   0  0  0  0  0  0  0  0  0  0  0  0
   28.0288  -25.7646  -17.1385 C   0  0  2  0  0  0  0  0  0  0  0  0
   27.5195  -24.4310  -16.9016 N   0  0  0  0  0  0  0  0  0  0  0  0
   26.9532  -26.7603  -16.9969 C   0  0  0  0  0  0  0  0  0  0  0  0
   26.1197  -26.6531  -16.0192 O   0  0  0  0  0  0  0  0  0  0  0  0
   23.9980  -27.4548  -19.0601 C   0  0  0  0  0  0  0  0  0  0  0  0
   24.8222  -28.7242  -19.0475 C   0  0  1  0  0  0  0  0  0  0  0  0
   25.4512  -28.8818  -20.2662 O   0  0  0  0  0  0  0  0  0  0  0  0
   25.7493  -28.7811  -17.8828 C   0  0  2  0  0  0  0  0  0  0  0  0
   26.8273  -27.8194  -17.9181 N   0  0  0  0  0  0  0  0  0  0  0  0
   26.2154  -30.1768  -17.5650 C   0  0  0  0  0  0  0  0  0  0  0  0
   25.3917  -31.2061  -17.1787 O   0  0  0  0  0  0  0  0  0  0  0  0
   27.4731  -30.3468  -17.6859 O   0  0  0  0  0  0  0  0  0  0  0  0
  1  2  1  0
  2  3  1  0
  4  3  1  0
  5  4  1  0
  5  6  1  6
  7 14  1  0
  7  5  1  0
  8  7  2  0
 10  9  1  0
 10 11  1  0
 11 12  1  6
 11 13  1  0
 13 14  1  1
 15 13  1  0
 15 21  1  0
 16 15  2  0
 18 17  1  6
 18 20  1  0
 19 18  1  0
 20 21  1  6
 20 22  1  0
 22 23  1  0
 24 22  2  0
M  END
$$$$
