MIT.pdb
     RDKit          3D

 24 23  0  0  1  0  0  0  0  0999 V2000
   16.6622  -11.5184  -20.5672 C   0  0  0  0  0  0  0  0  0  0  0  0
   16.4240  -13.2758  -20.3290 S   0  0  0  0  0  0  0  0  0  0  0  0
   17.8585  -14.0506  -19.5658 C   0  0  0  0  0  0  0  0  0  0  0  0
   18.3895  -13.1425  -18.4650 C   0  0  0  0  0  0  0  0  0  0  0  0
   19.6284  -13.7334  -17.8362 C   0  0  2  0  0  0  0  0  0  0  0  0
   19.4434  -15.0396  -17.2988 N   0  0  0  0  0  0  0  0  0  0  0  0
   20.0799  -12.8092  -16.7279 C   0  0  0  0  0  0  0  0  0  0  0  0
   19.4094  -12.8502  -15.6696 O   0  0  0  0  0  0  0  0  0  0  0  0
   24.9376  -12.9222  -15.1440 C   0  0  0  0  0  0  0  0  0  0  0  0
   23.4718  -12.5952  -15.2409 C   0  0  0  0  0  0  0  0  0  0  0  0
   23.2112  -11.2439  -15.8459 C   0  0  2  0  0  0  0  0  0  0  0  0
   23.9241  -10.2514  -14.9139 C   0  0  0  0  0  0  0  0  0  0  0  0
   21.7417  -10.9958  -15.9858 C   0  0  2  0  0  0  0  0  0  0  0  0
   21.1845  -11.9685  -16.9009 N   0  0  0  0  0  0  0  0  0  0  0  0
   21.3597   -9.6315  -16.3874 C   0  0  0  0  0  0  0  0  0  0  0  0
   21.7690   -9.1698  -17.5195 O   0  0  0  0  0  0  0  0  0  0  0  0
   18.1991   -8.1745  -17.2424 C   0  0  0  0  0  0  0  0  0  0  0  0
   18.7074   -7.2913  -16.1233 C   0  0  1  0  0  0  0  0  0  0  0  0
   17.9247   -7.4680  -15.0000 O   0  0  0  0  0  0  0  0  0  0  0  0
   20.1639   -7.4810  -15.8747 C   0  0  2  0  0  0  0  0  0  0  0  0
   20.5528   -8.8346  -15.5510 N   0  0  0  0  0  0  0  0  0  0  0  0
   20.7409   -6.4606  -14.9303 C   0  0  0  0  0  0  0  0  0  0  0  0
   20.7238   -5.1033  -15.1416 O   0  0  0  0  0  0  0  0  0  0  0  0
   21.2637   -6.9592  -13.8798 O   0  0  0  0  0  0  0  0  0  0  0  0
  1  2  1  0
  2  3  1  0
  4  3  1  0
  5  4  1  0
  5  6  1  1
  7 14  1  0
  7  5  1  0
  8  7  2  0
 10  9  1  0
 10 11  1  0
 11 12  1  1
 11 13  1  0
 13 14  1  6
 15 13  1  0
 15 21  1  0
 16 15  2  0
 18 17  1  6
 18 20  1  0
 19 18  1  0
 20 21  1  1
 20 22  1  0
 22 23  1  0
 24 22  2  0
M  END
$$$$
