MIT.pdb
     RDKit          3D

 24 23  0  0  1  0  0  0  0  0999 V2000
   25.9496  -17.4309  -17.4531 C   0  0  0  0  0  0  0  0  0  0  0  0
   27.6970  -17.7264  -17.7001 S   0  0  0  0  0  0  0  0  0  0  0  0
   28.3510  -18.9149  -16.5166 C   0  0  0  0  0  0  0  0  0  0  0  0
   27.1922  -19.5968  -15.8020 C   0  0  0  0  0  0  0  0  0  0  0  0
   27.7001  -20.5168  -14.7181 C   0  0  2  0  0  0  0  0  0  0  0  0
   28.5182  -21.5818  -15.1930 N   0  0  0  0  0  0  0  0  0  0  0  0
   26.5052  -21.1023  -13.9999 C   0  0  0  0  0  0  0  0  0  0  0  0
   26.0015  -22.1279  -14.5153 O   0  0  0  0  0  0  0  0  0  0  0  0
   26.6162  -20.8107   -8.6459 C   0  0  0  0  0  0  0  0  0  0  0  0
   26.2651  -21.2465  -10.0430 C   0  0  0  0  0  0  0  0  0  0  0  0
   25.0966  -20.4938  -10.6157 C   0  0  2  0  0  0  0  0  0  0  0  0
   23.9230  -20.8158   -9.6771 C   0  0  0  0  0  0  0  0  0  0  0  0
   24.8573  -20.8832  -12.0410 C   0  0  2  0  0  0  0  0  0  0  0  0
   26.0120  -20.5132  -12.8309 N   0  0  0  0  0  0  0  0  0  0  0  0
   23.6251  -20.3541  -12.6494 C   0  0  0  0  0  0  0  0  0  0  0  0
   23.5806  -19.1169  -13.0092 O   0  0  0  0  0  0  0  0  0  0  0  0
   21.7743  -22.5916  -15.3444 C   0  0  0  0  0  0  0  0  0  0  0  0
   21.4948  -21.1243  -15.0999 C   0  0  1  0  0  0  0  0  0  0  0  0
   20.4089  -20.7263  -15.8536 O   0  0  0  0  0  0  0  0  0  0  0  0
   21.3647  -20.8108  -13.6494 C   0  0  2  0  0  0  0  0  0  0  0  0
   22.5039  -21.1856  -12.8432 N   0  0  0  0  0  0  0  0  0  0  0  0
   20.0538  -21.2610  -13.0619 C   0  0  0  0  0  0  0  0  0  0  0  0
   18.8196  -20.9611  -13.5853 O   0  0  0  0  0  0  0  0  0  0  0  0
   20.1704  -21.9686  -12.0078 O   0  0  0  0  0  0  0  0  0  0  0  0
  1  2  1  0
  2  3  1  0
  4  3  1  0
  5  4  1  0
  5  6  1  6
  7 14  1  0
  7  5  1  0
  8  7  2  0
 10  9  1  0
 10 11  1  0
 11 12  1  1
 11 13  1  0
 13 14  1  6
 15 13  1  0
 15 21  1  0
 16 15  2  0
 18 17  1  1
 18 20  1  0
 19 18  1  0
 20 21  1  1
 20 22  1  0
 22 23  1  0
 24 22  2  0
M  END
$$$$
