MIT.pdb
     RDKit          3D

 24 23  0  0  1  0  0  0  0  0999 V2000
   27.7997  -19.1353  -17.5479 C   0  0  0  0  0  0  0  0  0  0  0  0
   29.4234  -19.1208  -18.2996 S   0  0  0  0  0  0  0  0  0  0  0  0
   30.2952  -20.6751  -18.0453 C   0  0  0  0  0  0  0  0  0  0  0  0
   29.4227  -21.8225  -18.5358 C   0  0  0  0  0  0  0  0  0  0  0  0
   30.0409  -23.1534  -18.1805 C   0  0  2  0  0  0  0  0  0  0  0  0
   31.3075  -23.3888  -18.7880 N   0  0  0  0  0  0  0  0  0  0  0  0
   29.0850  -24.2448  -18.6063 C   0  0  0  0  0  0  0  0  0  0  0  0
   29.2127  -24.6605  -19.7819 O   0  0  0  0  0  0  0  0  0  0  0  0
   26.6279  -28.9153  -17.7951 C   0  0  0  0  0  0  0  0  0  0  0  0
   26.1996  -27.8242  -16.8511 C   0  0  0  0  0  0  0  0  0  0  0  0
   27.2180  -26.7257  -16.7240 C   0  0  2  0  0  0  0  0  0  0  0  0
   26.8811  -26.0284  -15.3965 C   0  0  0  0  0  0  0  0  0  0  0  0
   27.1756  -25.8179  -17.9134 C   0  0  2  0  0  0  0  0  0  0  0  0
   28.1242  -24.7425  -17.7196 N   0  0  0  0  0  0  0  0  0  0  0  0
   25.8492  -25.2798  -18.2591 C   0  0  0  0  0  0  0  0  0  0  0  0
   25.4392  -24.1988  -17.6884 O   0  0  0  0  0  0  0  0  0  0  0  0
   24.2992  -24.9832  -21.9964 C   0  0  0  0  0  0  0  0  0  0  0  0
   23.3828  -25.7069  -21.0333 C   0  0  1  0  0  0  0  0  0  0  0  0
   23.3418  -27.0496  -21.3513 O   0  0  0  0  0  0  0  0  0  0  0  0
   23.7364  -25.4383  -19.6114 C   0  0  2  0  0  0  0  0  0  0  0  0
   25.0326  -25.9312  -19.2050 N   0  0  0  0  0  0  0  0  0  0  0  0
   22.6386  -25.8056  -18.6490 C   0  0  0  0  0  0  0  0  0  0  0  0
   22.7590  -26.7355  -17.6450 O   0  0  0  0  0  0  0  0  0  0  0  0
   21.5492  -25.1694  -18.8332 O   0  0  0  0  0  0  0  0  0  0  0  0
  1  2  1  0
  2  3  1  0
  4  3  1  0
  5  4  1  0
  5  6  1  6
  7 14  1  0
  7  5  1  0
  8  7  2  0
 10  9  1  0
 10 11  1  0
 11 12  1  1
 11 13  1  0
 13 14  1  1
 15 13  1  0
 15 21  1  0
 16 15  2  0
 18 17  1  6
 18 20  1  0
 19 18  1  0
 20 21  1  1
 20 22  1  0
 22 23  1  0
 24 22  2  0
M  END
$$$$
