MIT.pdb
     RDKit          3D

 24 23  0  0  1  0  0  0  0  0999 V2000
   28.5609  -18.2307  -15.1015 C   0  0  0  0  0  0  0  0  0  0  0  0
   27.9813  -18.4814  -16.7757 S   0  0  0  0  0  0  0  0  0  0  0  0
   26.6575  -19.6990  -16.8529 C   0  0  0  0  0  0  0  0  0  0  0  0
   27.2449  -21.0510  -17.2344 C   0  0  0  0  0  0  0  0  0  0  0  0
   27.6554  -21.8218  -16.0028 C   0  0  2  0  0  0  0  0  0  0  0  0
   28.1640  -23.1246  -16.2728 N   0  0  0  0  0  0  0  0  0  0  0  0
   26.4476  -21.9465  -15.1017 C   0  0  0  0  0  0  0  0  0  0  0  0
   25.5071  -22.6520  -15.5363 O   0  0  0  0  0  0  0  0  0  0  0  0
   25.5660  -20.8564   -9.0503 C   0  0  0  0  0  0  0  0  0  0  0  0
   24.9828  -21.1182  -10.4128 C   0  0  0  0  0  0  0  0  0  0  0  0
   26.0049  -21.0422  -11.5126 C   0  0  2  0  0  0  0  0  0  0  0  0
   26.5868  -19.6234  -11.4115 C   0  0  0  0  0  0  0  0  0  0  0  0
   25.3851  -21.3502  -12.8398 C   0  0  2  0  0  0  0  0  0  0  0  0
   26.4093  -21.3015  -13.8609 N   0  0  0  0  0  0  0  0  0  0  0  0
   24.2377  -20.5089  -13.2194 C   0  0  0  0  0  0  0  0  0  0  0  0
   24.4503  -19.3776  -13.8002 O   0  0  0  0  0  0  0  0  0  0  0  0
   23.0461  -20.1608  -15.7103 C   0  0  0  0  0  0  0  0  0  0  0  0
   21.7124  -20.4777  -15.0684 C   0  0  1  0  0  0  0  0  0  0  0  0
   21.2695  -21.7111  -15.5021 O   0  0  0  0  0  0  0  0  0  0  0  0
   21.7564  -20.3442  -13.5854 C   0  0  2  0  0  0  0  0  0  0  0  0
   22.9187  -20.9303  -12.9578 N   0  0  0  0  0  0  0  0  0  0  0  0
   20.4657  -20.7365  -12.9173 C   0  0  0  0  0  0  0  0  0  0  0  0
   20.3462  -21.7211  -11.9668 O   0  0  0  0  0  0  0  0  0  0  0  0
   19.4530  -20.0662  -13.3052 O   0  0  0  0  0  0  0  0  0  0  0  0
  1  2  1  0
  2  3  1  0
  4  3  1  0
  5  4  1  0
  5  6  1  6
  7 14  1  0
  7  5  1  0
  8  7  2  0
 10  9  1  0
 10 11  1  0
 11 12  1  6
 11 13  1  0
 13 14  1  6
 15 13  1  0
 15 21  1  0
 16 15  2  0
 18 17  1  1
 18 20  1  0
 19 18  1  0
 20 21  1  1
 20 22  1  0
 22 23  1  0
 24 22  2  0
M  END
$$$$
