MIT.pdb
     RDKit          3D

 24 23  0  0  1  0  0  0  0  0999 V2000
   12.7701  -11.6826  -19.1302 C   0  0  0  0  0  0  0  0  0  0  0  0
   12.0912  -13.3379  -19.1025 S   0  0  0  0  0  0  0  0  0  0  0  0
   13.2237  -14.5158  -18.3469 C   0  0  0  0  0  0  0  0  0  0  0  0
   14.2553  -13.7577  -17.5226 C   0  0  0  0  0  0  0  0  0  0  0  0
   15.2935  -14.7023  -16.9664 C   0  0  2  0  0  0  0  0  0  0  0  0
   14.7548  -15.7749  -16.1995 N   0  0  0  0  0  0  0  0  0  0  0  0
   16.2364  -13.9043  -16.0945 C   0  0  0  0  0  0  0  0  0  0  0  0
   15.9430  -13.8447  -14.8773 O   0  0  0  0  0  0  0  0  0  0  0  0
   21.2027  -15.0321  -16.2011 C   0  0  0  0  0  0  0  0  0  0  0  0
   19.8804  -14.4208  -15.8231 C   0  0  0  0  0  0  0  0  0  0  0  0
   19.7228  -13.0108  -16.3202 C   0  0  2  0  0  0  0  0  0  0  0  0
   20.8800  -12.2337  -15.6730 C   0  0  0  0  0  0  0  0  0  0  0  0
   18.3674  -12.4735  -15.9815 C   0  0  2  0  0  0  0  0  0  0  0  0
   17.3626  -13.2796  -16.6408 N   0  0  0  0  0  0  0  0  0  0  0  0
   18.1555  -11.0456  -16.2721 C   0  0  0  0  0  0  0  0  0  0  0  0
   18.3436  -10.6117  -17.4716 O   0  0  0  0  0  0  0  0  0  0  0  0
   15.1894   -8.9213  -16.1952 C   0  0  0  0  0  0  0  0  0  0  0  0
   16.1734   -8.2507  -15.2608 C   0  0  1  0  0  0  0  0  0  0  0  0
   15.7302   -8.3663  -13.9586 O   0  0  0  0  0  0  0  0  0  0  0  0
   17.5657   -8.7392  -15.4656 C   0  0  2  0  0  0  0  0  0  0  0  0
   17.7479  -10.1574  -15.2567 N   0  0  0  0  0  0  0  0  0  0  0  0
   18.5968   -7.9023  -14.7566 C   0  0  0  0  0  0  0  0  0  0  0  0
   19.5116   -8.3890  -13.8546 O   0  0  0  0  0  0  0  0  0  0  0  0
   18.5650   -6.6653  -15.0633 O   0  0  0  0  0  0  0  0  0  0  0  0
  1  2  1  0
  2  3  1  0
  4  3  1  0
  5  4  1  0
  5  6  1  1
  7 14  1  0
  7  5  1  0
  8  7  2  0
 10  9  1  0
 10 11  1  0
 11 12  1  1
 11 13  1  0
 13 14  1  6
 15 13  1  0
 15 21  1  0
 16 15  2  0
 18 17  1  6
 18 20  1  0
 19 18  1  0
 20 21  1  1
 20 22  1  0
 22 23  1  0
 24 22  2  0
M  END
$$$$
