MIT.pdb
     RDKit          3D

 24 23  0  0  1  0  0  0  0  0999 V2000
   26.4377  -17.0323  -17.9225 C   0  0  0  0  0  0  0  0  0  0  0  0
   28.1298  -16.7679  -17.4042 S   0  0  0  0  0  0  0  0  0  0  0  0
   28.7699  -18.1631  -16.4636 C   0  0  0  0  0  0  0  0  0  0  0  0
   27.6076  -19.0412  -16.0204 C   0  0  0  0  0  0  0  0  0  0  0  0
   28.0983  -20.1867  -15.1679 C   0  0  2  0  0  0  0  0  0  0  0  0
   28.9609  -21.0928  -15.8489 N   0  0  0  0  0  0  0  0  0  0  0  0
   26.8930  -20.9469  -14.6625 C   0  0  0  0  0  0  0  0  0  0  0  0
   26.6206  -22.0111  -15.2662 O   0  0  0  0  0  0  0  0  0  0  0  0
   25.6638  -20.1957   -9.3046 C   0  0  0  0  0  0  0  0  0  0  0  0
   25.4792  -20.0010  -10.7855 C   0  0  0  0  0  0  0  0  0  0  0  0
   25.2396  -21.2901  -11.5210 C   0  0  2  0  0  0  0  0  0  0  0  0
   26.5024  -22.1284  -11.2672 C   0  0  0  0  0  0  0  0  0  0  0  0
   24.9624  -21.0348  -12.9696 C   0  0  2  0  0  0  0  0  0  0  0  0
   26.1440  -20.4673  -13.5827 N   0  0  0  0  0  0  0  0  0  0  0  0
   23.7818  -20.2028  -13.2569 C   0  0  0  0  0  0  0  0  0  0  0  0
   23.8167  -18.9433  -12.9837 O   0  0  0  0  0  0  0  0  0  0  0  0
   22.1611  -19.1079  -16.3136 C   0  0  0  0  0  0  0  0  0  0  0  0
   21.0991  -19.8777  -15.5582 C   0  0  1  0  0  0  0  0  0  0  0  0
   20.8613  -21.0823  -16.1892 O   0  0  0  0  0  0  0  0  0  0  0  0
   21.4255  -20.0134  -14.1111 C   0  0  2  0  0  0  0  0  0  0  0  0
   22.6244  -20.7688  -13.8278 N   0  0  0  0  0  0  0  0  0  0  0  0
   20.2483  -20.4423  -13.2765 C   0  0  0  0  0  0  0  0  0  0  0  0
   19.0578  -19.7614  -13.1974 O   0  0  0  0  0  0  0  0  0  0  0  0
   20.4362  -21.5224  -12.6258 O   0  0  0  0  0  0  0  0  0  0  0  0
  1  2  1  0
  2  3  1  0
  4  3  1  0
  5  4  1  0
  5  6  1  6
  7 14  1  0
  7  5  1  0
  8  7  2  0
 10  9  1  0
 10 11  1  0
 11 12  1  6
 11 13  1  0
 13 14  1  1
 15 13  1  0
 15 21  1  0
 16 15  2  0
 18 17  1  6
 18 20  1  0
 19 18  1  0
 20 21  1  6
 20 22  1  0
 22 23  1  0
 24 22  2  0
M  END
$$$$
