MIT.pdb
     RDKit          3D

 24 23  0  0  1  0  0  0  0  0999 V2000
   27.1259  -15.6677  -15.3751 C   0  0  0  0  0  0  0  0  0  0  0  0
   27.6637  -16.6505  -16.7703 S   0  0  0  0  0  0  0  0  0  0  0  0
   28.0355  -18.3462  -16.2938 C   0  0  0  0  0  0  0  0  0  0  0  0
   27.7510  -18.5208  -14.8082 C   0  0  0  0  0  0  0  0  0  0  0  0
   28.1321  -19.9083  -14.3508 C   0  0  2  0  0  0  0  0  0  0  0  0
   28.7741  -20.6958  -15.3492 N   0  0  0  0  0  0  0  0  0  0  0  0
   26.8742  -20.6182  -13.9035 C   0  0  0  0  0  0  0  0  0  0  0  0
   26.4408  -21.5075  -14.6731 O   0  0  0  0  0  0  0  0  0  0  0  0
   26.4354  -20.6714   -8.5601 C   0  0  0  0  0  0  0  0  0  0  0  0
   26.2007  -21.1951   -9.9514 C   0  0  0  0  0  0  0  0  0  0  0  0
   25.0433  -20.5284  -10.6414 C   0  0  2  0  0  0  0  0  0  0  0  0
   23.7966  -21.0433   -9.9049 C   0  0  0  0  0  0  0  0  0  0  0  0
   25.0495  -20.8307  -12.1073 C   0  0  2  0  0  0  0  0  0  0  0  0
   26.2517  -20.2817  -12.6967 N   0  0  0  0  0  0  0  0  0  0  0  0
   23.8603  -20.3897  -12.8554 C   0  0  0  0  0  0  0  0  0  0  0  0
   23.6492  -19.1281  -13.0168 O   0  0  0  0  0  0  0  0  0  0  0  0
   20.4614  -21.2471  -16.2629 C   0  0  0  0  0  0  0  0  0  0  0  0
   21.7210  -21.6269  -15.5145 C   0  0  1  0  0  0  0  0  0  0  0  0
   22.8226  -21.4035  -16.3159 O   0  0  0  0  0  0  0  0  0  0  0  0
   21.8048  -20.9650  -14.1826 C   0  0  2  0  0  0  0  0  0  0  0  0
   22.9602  -21.3301  -13.3953 N   0  0  0  0  0  0  0  0  0  0  0  0
   20.5172  -21.0337  -13.4056 C   0  0  0  0  0  0  0  0  0  0  0  0
   19.4966  -20.1192  -13.5032 O   0  0  0  0  0  0  0  0  0  0  0  0
   20.4328  -22.0370  -12.6237 O   0  0  0  0  0  0  0  0  0  0  0  0
  1  2  1  0
  2  3  1  0
  4  3  1  0
  5  4  1  0
  5  6  1  6
  7 14  1  0
  7  5  1  0
  8  7  2  0
 10  9  1  0
 10 11  1  0
 11 12  1  1
 11 13  1  0
 13 14  1  6
 15 13  1  0
 15 21  1  0
 16 15  2  0
 18 17  1  6
 18 20  1  0
 19 18  1  0
 20 21  1  1
 20 22  1  0
 22 23  1  0
 24 22  2  0
M  END
$$$$
