MIT.pdb
     RDKit          3D

 24 23  0  0  1  0  0  0  0  0999 V2000
   21.1864  -18.9953  -20.3141 C   0  0  0  0  0  0  0  0  0  0  0  0
   21.4788  -20.5629  -19.5024 S   0  0  0  0  0  0  0  0  0  0  0  0
   22.5622  -20.3886  -18.0754 C   0  0  0  0  0  0  0  0  0  0  0  0
   22.5503  -18.9376  -17.6142 C   0  0  0  0  0  0  0  0  0  0  0  0
   23.5231  -18.7300  -16.4784 C   0  0  2  0  0  0  0  0  0  0  0  0
   23.3196  -19.6008  -15.3697 N   0  0  0  0  0  0  0  0  0  0  0  0
   23.3956  -17.2996  -16.0053 C   0  0  0  0  0  0  0  0  0  0  0  0
   22.6043  -17.1032  -15.0532 O   0  0  0  0  0  0  0  0  0  0  0  0
   27.8862  -14.8259  -15.4496 C   0  0  0  0  0  0  0  0  0  0  0  0
   26.4211  -15.1539  -15.3454 C   0  0  0  0  0  0  0  0  0  0  0  0
   25.5774  -14.3868  -16.3250 C   0  0  2  0  0  0  0  0  0  0  0  0
   25.7472  -12.9137  -15.9215 C   0  0  0  0  0  0  0  0  0  0  0  0
   24.1588  -14.8636  -16.2961 C   0  0  2  0  0  0  0  0  0  0  0  0
   24.1295  -16.2753  -16.6129 N   0  0  0  0  0  0  0  0  0  0  0  0
   23.2184  -14.1228  -17.1536 C   0  0  0  0  0  0  0  0  0  0  0  0
   23.3157  -14.2294  -18.4348 O   0  0  0  0  0  0  0  0  0  0  0  0
   18.8312  -12.0190  -17.7456 C   0  0  0  0  0  0  0  0  0  0  0  0
   19.8156  -12.8385  -16.9392 C   0  0  1  0  0  0  0  0  0  0  0  0
   19.4387  -14.1663  -16.9565 O   0  0  0  0  0  0  0  0  0  0  0  0
   21.2233  -12.6094  -17.3696 C   0  0  2  0  0  0  0  0  0  0  0  0
   22.2180  -13.3075  -16.5876 N   0  0  0  0  0  0  0  0  0  0  0  0
   21.5501  -11.1543  -17.5746 C   0  0  0  0  0  0  0  0  0  0  0  0
   21.4075  -10.4821  -18.7642 O   0  0  0  0  0  0  0  0  0  0  0  0
   21.9816  -10.5645  -16.5300 O   0  0  0  0  0  0  0  0  0  0  0  0
  1  2  1  0
  2  3  1  0
  4  3  1  0
  5  4  1  0
  5  6  1  1
  7 14  1  0
  7  5  1  0
  8  7  2  0
 10  9  1  0
 10 11  1  0
 11 12  1  1
 11 13  1  0
 13 14  1  6
 15 13  1  0
 15 21  1  0
 16 15  2  0
 18 17  1  6
 18 20  1  0
 19 18  1  0
 20 21  1  1
 20 22  1  0
 22 23  1  0
 24 22  2  0
M  END
$$$$
