MIT.pdb
     RDKit          3D

 24 23  0  0  1  0  0  0  0  0999 V2000
   15.7610  -13.9354  -21.9436 C   0  0  0  0  0  0  0  0  0  0  0  0
   16.5253  -12.9389  -20.6691 S   0  0  0  0  0  0  0  0  0  0  0  0
   17.5780  -13.9217  -19.5890 C   0  0  0  0  0  0  0  0  0  0  0  0
   18.1936  -13.0148  -18.5322 C   0  0  0  0  0  0  0  0  0  0  0  0
   19.1612  -13.7845  -17.6656 C   0  0  2  0  0  0  0  0  0  0  0  0
   18.5817  -14.8970  -16.9907 N   0  0  0  0  0  0  0  0  0  0  0  0
   19.7314  -12.8332  -16.6378 C   0  0  0  0  0  0  0  0  0  0  0  0
   18.9876  -12.5627  -15.6658 O   0  0  0  0  0  0  0  0  0  0  0  0
   24.7390  -13.7027  -15.3732 C   0  0  0  0  0  0  0  0  0  0  0  0
   23.3184  -13.2068  -15.3446 C   0  0  0  0  0  0  0  0  0  0  0  0
   23.1754  -11.8063  -15.8721 C   0  0  2  0  0  0  0  0  0  0  0  0
   24.0385  -10.9439  -14.9377 C   0  0  0  0  0  0  0  0  0  0  0  0
   21.7363  -11.3972  -15.9176 C   0  0  2  0  0  0  0  0  0  0  0  0
   21.0165  -12.3014  -16.7883 N   0  0  0  0  0  0  0  0  0  0  0  0
   21.4818   -9.9987  -16.3021 C   0  0  0  0  0  0  0  0  0  0  0  0
   21.9280   -9.5641  -17.4310 O   0  0  0  0  0  0  0  0  0  0  0  0
   18.5472   -8.2458  -17.2827 C   0  0  0  0  0  0  0  0  0  0  0  0
   19.0402   -7.4725  -16.0786 C   0  0  1  0  0  0  0  0  0  0  0  0
   18.1906   -7.6835  -15.0112 O   0  0  0  0  0  0  0  0  0  0  0  0
   20.4696   -7.7598  -15.7726 C   0  0  2  0  0  0  0  0  0  0  0  0
   20.7561   -9.1396  -15.4529 N   0  0  0  0  0  0  0  0  0  0  0  0
   21.0709   -6.7906  -14.7901 C   0  0  0  0  0  0  0  0  0  0  0  0
   21.5477   -7.1327  -13.5480 O   0  0  0  0  0  0  0  0  0  0  0  0
   21.1124   -5.5858  -15.2050 O   0  0  0  0  0  0  0  0  0  0  0  0
  1  2  1  0
  2  3  1  0
  4  3  1  0
  5  4  1  0
  5  6  1  1
  7 14  1  0
  7  5  1  0
  8  7  2  0
 10  9  1  0
 10 11  1  0
 11 12  1  1
 11 13  1  0
 13 14  1  6
 15 13  1  0
 15 21  1  0
 16 15  2  0
 18 17  1  6
 18 20  1  0
 19 18  1  0
 20 21  1  1
 20 22  1  0
 22 23  1  0
 24 22  2  0
M  END
$$$$
