MIT.pdb
     RDKit          3D

 24 23  0  0  1  0  0  0  0  0999 V2000
   25.9451  -18.1325  -18.2158 C   0  0  0  0  0  0  0  0  0  0  0  0
   27.7324  -18.2067  -18.1730 S   0  0  0  0  0  0  0  0  0  0  0  0
   28.3254  -19.4483  -17.0122 C   0  0  0  0  0  0  0  0  0  0  0  0
   27.1429  -20.0083  -16.2334 C   0  0  0  0  0  0  0  0  0  0  0  0
   27.6147  -20.9371  -15.1406 C   0  0  2  0  0  0  0  0  0  0  0  0
   28.3035  -22.0910  -15.6129 N   0  0  0  0  0  0  0  0  0  0  0  0
   26.4069  -21.3807  -14.3464 C   0  0  0  0  0  0  0  0  0  0  0  0
   25.8126  -22.3993  -14.7712 O   0  0  0  0  0  0  0  0  0  0  0  0
   26.8987  -20.8291   -9.0984 C   0  0  0  0  0  0  0  0  0  0  0  0
   26.4265  -21.2836  -10.4531 C   0  0  0  0  0  0  0  0  0  0  0  0
   25.2292  -20.5183  -10.9439 C   0  0  2  0  0  0  0  0  0  0  0  0
   24.1291  -20.8028   -9.9092 C   0  0  0  0  0  0  0  0  0  0  0  0
   24.8698  -20.9260  -12.3386 C   0  0  2  0  0  0  0  0  0  0  0  0
   25.9992  -20.6768  -13.2083 N   0  0  0  0  0  0  0  0  0  0  0  0
   23.6495  -20.3125  -12.8889 C   0  0  0  0  0  0  0  0  0  0  0  0
   23.5632  -19.0276  -12.9518 O   0  0  0  0  0  0  0  0  0  0  0  0
   22.2114  -20.5924  -16.2505 C   0  0  0  0  0  0  0  0  0  0  0  0
   21.0893  -20.9814  -15.3121 C   0  0  1  0  0  0  0  0  0  0  0  0
   20.8075  -22.3251  -15.4568 O   0  0  0  0  0  0  0  0  0  0  0  0
   21.3660  -20.5752  -13.9059 C   0  0  2  0  0  0  0  0  0  0  0  0
   22.5850  -21.1141  -13.3474 N   0  0  0  0  0  0  0  0  0  0  0  0
   20.1777  -20.7421  -12.9969 C   0  0  0  0  0  0  0  0  0  0  0  0
   20.1383  -21.5804  -11.9092 O   0  0  0  0  0  0  0  0  0  0  0  0
   19.1734  -20.0239  -13.3142 O   0  0  0  0  0  0  0  0  0  0  0  0
  1  2  1  0
  2  3  1  0
  4  3  1  0
  5  4  1  0
  5  6  1  6
  7 14  1  0
  7  5  1  0
  8  7  2  0
 10  9  1  0
 10 11  1  0
 11 12  1  1
 11 13  1  0
 13 14  1  6
 15 13  1  0
 15 21  1  0
 16 15  2  0
 18 17  1  6
 18 20  1  0
 19 18  1  0
 20 21  1  1
 20 22  1  0
 22 23  1  0
 24 22  2  0
M  END
$$$$
