MIT.pdb
     RDKit          3D

 24 23  0  0  1  0  0  0  0  0999 V2000
   29.1517  -16.4074  -17.0156 C   0  0  0  0  0  0  0  0  0  0  0  0
   28.2473  -15.1173  -16.1674 S   0  0  0  0  0  0  0  0  0  0  0  0
   26.8130  -15.7656  -15.2937 C   0  0  0  0  0  0  0  0  0  0  0  0
   26.8113  -17.2848  -15.3960 C   0  0  0  0  0  0  0  0  0  0  0  0
   25.4333  -17.8371  -15.1207 C   0  0  2  0  0  0  0  0  0  0  0  0
   24.7522  -17.1966  -14.0461 N   0  0  0  0  0  0  0  0  0  0  0  0
   25.5714  -19.3089  -14.8027 C   0  0  0  0  0  0  0  0  0  0  0  0
   26.0592  -20.0244  -15.7090 O   0  0  0  0  0  0  0  0  0  0  0  0
   25.6770  -20.6140   -9.3473 C   0  0  0  0  0  0  0  0  0  0  0  0
   25.0386  -20.5560  -10.7089 C   0  0  0  0  0  0  0  0  0  0  0  0
   25.8497  -21.2509  -11.7668 C   0  0  2  0  0  0  0  0  0  0  0  0
   27.2174  -20.5506  -11.7374 C   0  0  0  0  0  0  0  0  0  0  0  0
   25.1633  -21.1848  -13.0953 C   0  0  2  0  0  0  0  0  0  0  0  0
   25.1702  -19.8150  -13.5618 N   0  0  0  0  0  0  0  0  0  0  0  0
   23.7989  -21.7372  -13.1374 C   0  0  0  0  0  0  0  0  0  0  0  0
   23.6155  -22.9850  -12.8698 O   0  0  0  0  0  0  0  0  0  0  0  0
   20.7504  -21.5567  -11.1554 C   0  0  0  0  0  0  0  0  0  0  0  0
   20.4229  -20.9404  -12.4985 C   0  0  1  0  0  0  0  0  0  0  0  0
   20.3625  -19.5666  -12.3769 O   0  0  0  0  0  0  0  0  0  0  0  0
   21.3452  -21.4071  -13.5711 C   0  0  2  0  0  0  0  0  0  0  0  0
   22.7001  -20.9167  -13.4620 N   0  0  0  0  0  0  0  0  0  0  0  0
   20.7719  -21.2504  -14.9542 C   0  0  0  0  0  0  0  0  0  0  0  0
   19.5314  -21.6969  -15.3405 O   0  0  0  0  0  0  0  0  0  0  0  0
   21.5425  -20.6501  -15.7733 O   0  0  0  0  0  0  0  0  0  0  0  0
  1  2  1  0
  2  3  1  0
  4  3  1  0
  5  4  1  0
  5  6  1  1
  7 14  1  0
  7  5  1  0
  8  7  2  0
 10  9  1  0
 10 11  1  0
 11 12  1  6
 11 13  1  0
 13 14  1  1
 15 13  1  0
 15 21  1  0
 16 15  2  0
 18 17  1  1
 18 20  1  0
 19 18  1  0
 20 21  1  6
 20 22  1  0
 22 23  1  0
 24 22  2  0
M  END
$$$$
