NHE.pdb
     RDKit          3D

 28 28  0  0  1  0  0  0  0  0999 V2000
    9.6338  -18.9129   15.2786 N   0  0  0  0  0  0  0  0  0  0  0  0
    9.6292  -17.4720   15.1446 C   0  0  0  0  0  0  0  0  0  0  0  0
    9.3941  -17.0105   13.9983 O   0  0  0  0  0  0  0  0  0  0  0  0
    9.8907  -16.6172   16.3077 C   0  0  0  0  0  0  0  0  0  0  0  0
   10.2678  -17.4043   17.5260 C   0  0  2  0  0  0  0  0  0  0  0  0
    9.1352  -18.2879   17.8296 N   0  0  0  0  0  0  0  0  0  0  0  0
   10.4263  -16.5273   18.7367 C   0  0  0  0  0  0  0  0  0  0  0  0
   11.3425  -15.6725   18.7843 O   0  0  0  0  0  0  0  0  0  0  0  0
    9.5574  -16.6370   19.8488 N   0  0  0  0  0  0  0  0  0  0  0  0
    9.7284  -15.9608   21.0853 C   0  0  1  0  0  0  0  0  0  0  0  0
    8.4882  -15.2792   21.6119 C   0  0  0  0  0  0  0  0  0  0  0  0
    7.9545  -14.2952   20.6186 C   0  0  0  0  0  0  0  0  0  0  0  0
    8.2051  -12.9441   20.5383 C   0  0  0  0  0  0  0  0  0  0  0  0
    7.5090  -12.4540   19.4789 N   0  0  0  0  0  0  0  0  0  0  0  0
    6.8336  -13.4511   18.8961 C   0  0  0  0  0  0  0  0  0  0  0  0
    7.1123  -14.5703   19.5991 N   0  0  0  0  0  0  0  0  0  0  0  0
   10.3260  -16.7997   22.1790 C   0  0  0  0  0  0  0  0  0  0  0  0
   10.1092  -18.0357   22.2057 O   0  0  0  0  0  0  0  0  0  0  0  0
   11.1276  -16.2612   23.1873 N   0  0  0  0  0  0  0  0  0  0  0  0
   12.1008  -17.0651   23.9790 C   0  0  1  0  0  0  0  0  0  0  0  0
   13.4330  -16.4737   23.6690 C   0  0  0  0  0  0  0  0  0  0  0  0
   14.6490  -17.0025   24.2899 C   0  0  0  0  0  0  0  0  0  0  0  0
   15.9354  -16.4135   23.9748 C   0  0  0  0  0  0  0  0  0  0  0  0
   16.1516  -15.4841   23.1699 O   0  0  0  0  0  0  0  0  0  0  0  0
   11.7146  -16.9907   25.3685 C   0  0  0  0  0  0  0  0  0  0  0  0
   10.9268  -16.1168   25.8492 O   0  0  0  0  0  0  0  0  0  0  0  0
   17.0696  -16.9313   24.6357 O   0  0  0  0  0  0  0  0  0  0  0  0
   12.2058  -17.9086   26.2821 O   0  0  0  0  0  0  0  0  0  0  0  0
  2  1  1  0
  2  3  2  0
  4  2  1  0
  5  4  1  0
  5  6  1  1
  7  5  1  0
  7  8  2  0
  9  7  1  0
 10 17  1  0
 10  9  1  0
 10 11  1  1
 12 11  1  0
 12 16  1  0
 13 14  1  0
 13 12  2  0
 14 15  1  0
 15 16  2  0
 17 19  1  0
 18 17  2  0
 19 20  1  0
 20 25  1  0
 20 21  1  1
 22 21  1  0
 23 22  1  0
 24 23  2  0
 25 26  2  0
 25 28  1  0
 27 23  1  0
M  END
$$$$
