NHE.pdb
     RDKit          3D

 28 28  0  0  1  0  0  0  0  0999 V2000
   12.2223  -20.9061   18.5394 N   0  0  0  0  0  0  0  0  0  0  0  0
   12.0548  -19.9717   17.4470 C   0  0  0  0  0  0  0  0  0  0  0  0
   13.1045  -19.5002   16.9391 O   0  0  0  0  0  0  0  0  0  0  0  0
   10.7127  -19.6107   16.9777 C   0  0  0  0  0  0  0  0  0  0  0  0
   10.5592  -18.1367   16.7547 C   0  0  2  0  0  0  0  0  0  0  0  0
   11.6455  -17.7266   15.8559 N   0  0  0  0  0  0  0  0  0  0  0  0
   10.7684  -17.3506   18.0189 C   0  0  0  0  0  0  0  0  0  0  0  0
   11.8703  -16.7969   18.2457 O   0  0  0  0  0  0  0  0  0  0  0  0
    9.7410  -17.2120   18.9827 N   0  0  0  0  0  0  0  0  0  0  0  0
    9.8872  -16.5742   20.2426 C   0  0  1  0  0  0  0  0  0  0  0  0
    8.5932  -16.1333   20.8838 C   0  0  0  0  0  0  0  0  0  0  0  0
    8.0536  -14.9080   20.2151 C   0  0  0  0  0  0  0  0  0  0  0  0
    8.6153  -14.1779   19.1923 C   0  0  0  0  0  0  0  0  0  0  0  0
    7.7739  -13.1503   18.9037 N   0  0  0  0  0  0  0  0  0  0  0  0
    6.7081  -13.2138   19.7100 C   0  0  0  0  0  0  0  0  0  0  0  0
    6.8885  -14.2898   20.5062 N   0  0  0  0  0  0  0  0  0  0  0  0
   10.6900  -17.3510   21.2471 C   0  0  0  0  0  0  0  0  0  0  0  0
   11.3218  -18.3730   20.8840 O   0  0  0  0  0  0  0  0  0  0  0  0
   10.7699  -16.9843   22.5917 N   0  0  0  0  0  0  0  0  0  0  0  0
   11.6024  -17.7099   23.5921 C   0  0  1  0  0  0  0  0  0  0  0  0
   12.9906  -17.6533   23.0533 C   0  0  0  0  0  0  0  0  0  0  0  0
   13.7771  -16.4214   23.1403 C   0  0  0  0  0  0  0  0  0  0  0  0
   15.1454  -16.4032   22.6621 C   0  0  0  0  0  0  0  0  0  0  0  0
   16.1778  -16.5148   23.3549 O   0  0  0  0  0  0  0  0  0  0  0  0
   11.4237  -17.0658   24.8722 C   0  0  0  0  0  0  0  0  0  0  0  0
   10.7401  -16.0103   25.0560 O   0  0  0  0  0  0  0  0  0  0  0  0
   15.3497  -16.2434   21.2750 O   0  0  0  0  0  0  0  0  0  0  0  0
   12.0145  -17.5917   26.0092 O   0  0  0  0  0  0  0  0  0  0  0  0
  2  1  1  0
  2  3  2  0
  4  2  1  0
  5  4  1  0
  5  6  1  6
  7  5  1  0
  7  8  2  0
  9  7  1  0
 10 17  1  0
 10  9  1  0
 10 11  1  1
 12 11  1  0
 12 16  1  0
 13 14  1  0
 13 12  2  0
 14 15  1  0
 15 16  2  0
 17 19  1  0
 18 17  2  0
 19 20  1  0
 20 25  1  0
 20 21  1  6
 22 21  1  0
 23 22  1  0
 24 23  2  0
 25 26  2  0
 25 28  1  0
 27 23  1  0
M  END
$$$$
