NHE.pdb
     RDKit          3D

 28 28  0  0  1  0  0  0  0  0999 V2000
   12.0921  -17.1535   13.5534 N   0  0  0  0  0  0  0  0  0  0  0  0
   12.4083  -15.7693   13.8335 C   0  0  0  0  0  0  0  0  0  0  0  0
   12.7814  -15.0654   12.8601 O   0  0  0  0  0  0  0  0  0  0  0  0
   12.2905  -15.2419   15.1972 C   0  0  0  0  0  0  0  0  0  0  0  0
   12.0608  -16.3203   16.2123 C   0  0  2  0  0  0  0  0  0  0  0  0
   10.6982  -16.8235   15.9983 N   0  0  0  0  0  0  0  0  0  0  0  0
   12.0727  -15.7839   17.6167 C   0  0  0  0  0  0  0  0  0  0  0  0
   13.1013  -15.2329   18.0758 O   0  0  0  0  0  0  0  0  0  0  0  0
   10.9373  -15.8826   18.4563 N   0  0  0  0  0  0  0  0  0  0  0  0
   10.8900  -15.4694   19.8136 C   0  0  1  0  0  0  0  0  0  0  0  0
    9.4996  -15.3293   20.3855 C   0  0  0  0  0  0  0  0  0  0  0  0
    8.7813  -14.1693   19.7704 C   0  0  0  0  0  0  0  0  0  0  0  0
    9.2753  -13.2267   18.8975 C   0  0  0  0  0  0  0  0  0  0  0  0
    8.2672  -12.3642   18.6021 N   0  0  0  0  0  0  0  0  0  0  0  0
    7.1628  -12.7356   19.2597 C   0  0  0  0  0  0  0  0  0  0  0  0
    7.4871  -13.8380   19.9696 N   0  0  0  0  0  0  0  0  0  0  0  0
   11.7212  -16.3004   20.7493 C   0  0  0  0  0  0  0  0  0  0  0  0
   11.7409  -17.5492   20.6236 O   0  0  0  0  0  0  0  0  0  0  0  0
   12.4890  -15.7406   21.7721 N   0  0  0  0  0  0  0  0  0  0  0  0
   13.4379  -16.5267   22.6101 C   0  0  1  0  0  0  0  0  0  0  0  0
   14.7320  -15.7933   22.5196 C   0  0  0  0  0  0  0  0  0  0  0  0
   15.8920  -16.2238   23.3024 C   0  0  0  0  0  0  0  0  0  0  0  0
   17.1381  -15.4891   23.2101 C   0  0  0  0  0  0  0  0  0  0  0  0
   17.5532  -14.6240   24.0087 O   0  0  0  0  0  0  0  0  0  0  0  0
   12.8864  -16.6183   23.9416 C   0  0  0  0  0  0  0  0  0  0  0  0
   13.2445  -17.4744   24.8099 O   0  0  0  0  0  0  0  0  0  0  0  0
   17.9797  -15.7670   22.1121 O   0  0  0  0  0  0  0  0  0  0  0  0
   11.8986  -15.7387   24.3525 O   0  0  0  0  0  0  0  0  0  0  0  0
  2  1  1  0
  2  3  2  0
  4  2  1  0
  5  4  1  0
  5  6  1  6
  7  5  1  0
  7  8  2  0
  9  7  1  0
 10 17  1  0
 10  9  1  0
 10 11  1  1
 12 11  1  0
 12 16  1  0
 13 14  1  0
 13 12  2  0
 14 15  1  0
 15 16  2  0
 17 19  1  0
 18 17  2  0
 19 20  1  0
 20 25  1  0
 20 21  1  1
 22 21  1  0
 23 22  1  0
 24 23  2  0
 25 26  2  0
 25 28  1  0
 27 23  1  0
M  END
$$$$
