NHE.pdb
     RDKit          3D

 28 28  0  0  1  0  0  0  0  0999 V2000
    6.0915  -12.5229   17.5379 N   0  0  0  0  0  0  0  0  0  0  0  0
    7.4646  -12.9256   17.7535 C   0  0  0  0  0  0  0  0  0  0  0  0
    8.1649  -13.1226   16.7273 O   0  0  0  0  0  0  0  0  0  0  0  0
    7.9856  -13.0889   19.1150 C   0  0  0  0  0  0  0  0  0  0  0  0
    9.3432  -13.7233   19.1384 C   0  0  2  0  0  0  0  0  0  0  0  0
    9.5297  -14.3783   17.8377 N   0  0  0  0  0  0  0  0  0  0  0  0
    9.4327  -14.8252   20.1572 C   0  0  0  0  0  0  0  0  0  0  0  0
    9.0742  -14.6236   21.3418 O   0  0  0  0  0  0  0  0  0  0  0  0
    9.9190  -16.1102   19.8166 N   0  0  0  0  0  0  0  0  0  0  0  0
   10.0878  -17.1849   20.7288 C   0  0  1  0  0  0  0  0  0  0  0  0
   10.2755  -18.5383   20.0860 C   0  0  0  0  0  0  0  0  0  0  0  0
    9.0605  -18.9352   19.3076 C   0  0  0  0  0  0  0  0  0  0  0  0
    7.7806  -18.4400   19.4142 C   0  0  0  0  0  0  0  0  0  0  0  0
    7.0050  -19.0932   18.5092 N   0  0  0  0  0  0  0  0  0  0  0  0
    7.7557  -19.9775   17.8424 C   0  0  0  0  0  0  0  0  0  0  0  0
    9.0082  -19.8732   18.3371 N   0  0  0  0  0  0  0  0  0  0  0  0
   11.1704  -16.9746   21.7489 C   0  0  0  0  0  0  0  0  0  0  0  0
   12.1838  -16.2962   21.4517 O   0  0  0  0  0  0  0  0  0  0  0  0
   11.1031  -17.5070   23.0378 N   0  0  0  0  0  0  0  0  0  0  0  0
   12.1870  -17.3499   24.0481 C   0  0  1  0  0  0  0  0  0  0  0  0
   11.6686  -18.0138   25.2774 C   0  0  0  0  0  0  0  0  0  0  0  0
   12.5662  -18.3373   26.3880 C   0  0  0  0  0  0  0  0  0  0  0  0
   12.0554  -19.0413   27.5475 C   0  0  0  0  0  0  0  0  0  0  0  0
   10.8647  -19.3422   27.7710 O   0  0  0  0  0  0  0  0  0  0  0  0
   13.3904  -17.9358   23.5059 C   0  0  0  0  0  0  0  0  0  0  0  0
   14.5563  -17.4543   23.6602 O   0  0  0  0  0  0  0  0  0  0  0  0
   12.9847  -19.4337   28.5343 O   0  0  0  0  0  0  0  0  0  0  0  0
   13.3273  -19.1012   22.7600 O   0  0  0  0  0  0  0  0  0  0  0  0
  2  1  1  0
  2  3  2  0
  4  2  1  0
  5  4  1  0
  5  6  1  6
  7  5  1  0
  7  8  2  0
  9  7  1  0
 10 17  1  0
 10  9  1  0
 10 11  1  6
 12 11  1  0
 12 16  1  0
 13 14  1  0
 13 12  2  0
 14 15  1  0
 15 16  2  0
 17 19  1  0
 18 17  2  0
 19 20  1  0
 20 25  1  0
 20 21  1  1
 22 21  1  0
 23 22  1  0
 24 23  2  0
 25 26  2  0
 25 28  1  0
 27 23  1  0
M  END
$$$$
