NHE.pdb
     RDKit          3D

 28 28  0  0  1  0  0  0  0  0999 V2000
   13.8716  -15.2415   13.5473 N   0  0  0  0  0  0  0  0  0  0  0  0
   12.5302  -15.2481   14.0906 C   0  0  0  0  0  0  0  0  0  0  0  0
   11.6222  -15.7085   13.3520 O   0  0  0  0  0  0  0  0  0  0  0  0
   12.2733  -14.7349   15.4406 C   0  0  0  0  0  0  0  0  0  0  0  0
   12.4729  -15.7770   16.4990 C   0  0  2  0  0  0  0  0  0  0  0  0
   11.4031  -16.7680   16.3279 N   0  0  0  0  0  0  0  0  0  0  0  0
   12.2832  -15.2190   17.8820 C   0  0  0  0  0  0  0  0  0  0  0  0
   13.0241  -14.2981   18.3008 O   0  0  0  0  0  0  0  0  0  0  0  0
   11.2747  -15.7093   18.7460 N   0  0  0  0  0  0  0  0  0  0  0  0
   11.1340  -15.3588   20.1145 C   0  0  1  0  0  0  0  0  0  0  0  0
    9.7137  -15.3628   20.6270 C   0  0  0  0  0  0  0  0  0  0  0  0
    8.8646  -14.3975   19.8609 C   0  0  0  0  0  0  0  0  0  0  0  0
    8.0681  -14.6455   18.7661 C   0  0  0  0  0  0  0  0  0  0  0  0
    7.4815  -13.4741   18.4042 N   0  0  0  0  0  0  0  0  0  0  0  0
    7.8839  -12.5050   19.2343 C   0  0  0  0  0  0  0  0  0  0  0  0
    8.7275  -13.0788   20.1194 N   0  0  0  0  0  0  0  0  0  0  0  0
   11.9946  -16.1538   21.0549 C   0  0  0  0  0  0  0  0  0  0  0  0
   12.0392  -17.4040   20.9531 O   0  0  0  0  0  0  0  0  0  0  0  0
   12.7633  -15.5581   22.0566 N   0  0  0  0  0  0  0  0  0  0  0  0
   13.8238  -16.2793   22.8152 C   0  0  1  0  0  0  0  0  0  0  0  0
   15.0927  -15.5816   22.4633 C   0  0  0  0  0  0  0  0  0  0  0  0
   16.3647  -15.9982   23.0568 C   0  0  0  0  0  0  0  0  0  0  0  0
   17.5895  -15.3133   22.6936 C   0  0  0  0  0  0  0  0  0  0  0  0
   18.3911  -15.6468   21.7966 O   0  0  0  0  0  0  0  0  0  0  0  0
   13.4779  -16.2352   24.2166 C   0  0  0  0  0  0  0  0  0  0  0  0
   12.6232  -15.4411   24.7208 O   0  0  0  0  0  0  0  0  0  0  0  0
   17.9256  -14.1495   23.4174 O   0  0  0  0  0  0  0  0  0  0  0  0
   14.0877  -17.0941   25.1159 O   0  0  0  0  0  0  0  0  0  0  0  0
  2  1  1  0
  2  3  2  0
  4  2  1  0
  5  4  1  0
  5  6  1  6
  7  5  1  0
  7  8  2  0
  9  7  1  0
 10 17  1  0
 10  9  1  0
 10 11  1  1
 12 11  1  0
 12 16  1  0
 13 14  1  0
 13 12  2  0
 14 15  1  0
 15 16  2  0
 17 19  1  0
 18 17  2  0
 19 20  1  0
 20 25  1  0
 20 21  1  1
 22 21  1  0
 23 22  1  0
 24 23  2  0
 25 26  2  0
 25 28  1  0
 27 23  1  0
M  END
$$$$
