NHE.pdb
     RDKit          3D

 28 28  0  0  1  0  0  0  0  0999 V2000
    9.5977  -20.0078   15.5416 N   0  0  0  0  0  0  0  0  0  0  0  0
   10.0773  -18.6613   15.3153 C   0  0  0  0  0  0  0  0  0  0  0  0
   10.1878  -18.2933   14.1176 O   0  0  0  0  0  0  0  0  0  0  0  0
   10.4111  -17.7916   16.4484 C   0  0  0  0  0  0  0  0  0  0  0  0
   10.3648  -18.5143   17.7605 C   0  0  2  0  0  0  0  0  0  0  0  0
    8.9706  -18.9229   17.9727 N   0  0  0  0  0  0  0  0  0  0  0  0
   10.6960  -17.6093   18.9143 C   0  0  0  0  0  0  0  0  0  0  0  0
   11.8754  -17.2264   19.1010 O   0  0  0  0  0  0  0  0  0  0  0  0
    9.6996  -17.1657   19.8166 N   0  0  0  0  0  0  0  0  0  0  0  0
    9.9329  -16.3311   20.9411 C   0  0  1  0  0  0  0  0  0  0  0  0
    8.7008  -15.6592   21.4983 C   0  0  0  0  0  0  0  0  0  0  0  0
    8.1859  -14.6170   20.5557 C   0  0  0  0  0  0  0  0  0  0  0  0
    8.7209  -14.2172   19.3522 C   0  0  0  0  0  0  0  0  0  0  0  0
    7.9183  -13.2463   18.8419 N   0  0  0  0  0  0  0  0  0  0  0  0
    6.9023  -13.0268   19.6842 C   0  0  0  0  0  0  0  0  0  0  0  0
    7.0748  -13.8681   20.7267 N   0  0  0  0  0  0  0  0  0  0  0  0
   10.6795  -16.9912   22.0653 C   0  0  0  0  0  0  0  0  0  0  0  0
   10.3005  -18.1083   22.4941 O   0  0  0  0  0  0  0  0  0  0  0  0
   11.7974  -16.4116   22.6683 N   0  0  0  0  0  0  0  0  0  0  0  0
   12.6801  -17.1347   23.6266 C   0  0  1  0  0  0  0  0  0  0  0  0
   14.0285  -16.5274   23.4437 C   0  0  0  0  0  0  0  0  0  0  0  0
   15.1451  -16.9103   24.3098 C   0  0  0  0  0  0  0  0  0  0  0  0
   16.4352  -16.2688   24.1506 C   0  0  0  0  0  0  0  0  0  0  0  0
   16.9081  -15.3604   24.8644 O   0  0  0  0  0  0  0  0  0  0  0  0
   12.1220  -16.9813   24.9497 C   0  0  0  0  0  0  0  0  0  0  0  0
   11.2579  -16.1053   25.2676 O   0  0  0  0  0  0  0  0  0  0  0  0
   17.2526  -16.7027   23.0853 O   0  0  0  0  0  0  0  0  0  0  0  0
   12.5196  -17.8187   25.9788 O   0  0  0  0  0  0  0  0  0  0  0  0
  2  1  1  0
  2  3  2  0
  4  2  1  0
  5  4  1  0
  5  6  1  1
  7  5  1  0
  7  8  2  0
  9  7  1  0
 10 17  1  0
 10  9  1  0
 10 11  1  1
 12 11  1  0
 12 16  1  0
 13 14  1  0
 13 12  2  0
 14 15  1  0
 15 16  2  0
 17 19  1  0
 18 17  2  0
 19 20  1  0
 20 25  1  0
 20 21  1  1
 22 21  1  0
 23 22  1  0
 24 23  2  0
 25 26  2  0
 25 28  1  0
 27 23  1  0
M  END
$$$$
