NHE.pdb
     RDKit          3D

 28 28  0  0  1  0  0  0  0  0999 V2000
   16.3623  -13.5847   17.4287 N   0  0  0  0  0  0  0  0  0  0  0  0
   15.0081  -13.9131   17.0378 C   0  0  0  0  0  0  0  0  0  0  0  0
   14.8110  -14.1432   15.8170 O   0  0  0  0  0  0  0  0  0  0  0  0
   13.9381  -13.9662   18.0399 C   0  0  0  0  0  0  0  0  0  0  0  0
   13.7825  -15.3295   18.6425 C   0  0  2  0  0  0  0  0  0  0  0  0
   13.0822  -16.1559   17.6513 N   0  0  0  0  0  0  0  0  0  0  0  0
   12.8892  -15.3126   19.8515 C   0  0  0  0  0  0  0  0  0  0  0  0
   13.2486  -14.7201   20.8966 O   0  0  0  0  0  0  0  0  0  0  0  0
   11.6290  -15.9572   19.8496 N   0  0  0  0  0  0  0  0  0  0  0  0
   10.7591  -16.0476   20.9679 C   0  0  1  0  0  0  0  0  0  0  0  0
    9.2975  -15.8368   20.6528 C   0  0  0  0  0  0  0  0  0  0  0  0
    9.0688  -14.4870   20.0481 C   0  0  0  0  0  0  0  0  0  0  0  0
    9.9874  -13.4869   19.8237 C   0  0  0  0  0  0  0  0  0  0  0  0
    9.3327  -12.4404   19.2548 N   0  0  0  0  0  0  0  0  0  0  0  0
    8.0391  -12.7527   19.1167 C   0  0  0  0  0  0  0  0  0  0  0  0
    7.8885  -14.0035   19.6036 N   0  0  0  0  0  0  0  0  0  0  0  0
   10.9078  -17.3058   21.7753 C   0  0  0  0  0  0  0  0  0  0  0  0
   11.0135  -18.4121   21.1918 O   0  0  0  0  0  0  0  0  0  0  0  0
   10.9354  -17.3050   23.1711 N   0  0  0  0  0  0  0  0  0  0  0  0
   11.0229  -18.5463   23.9908 C   0  0  1  0  0  0  0  0  0  0  0  0
   12.1525  -18.3083   24.9331 C   0  0  0  0  0  0  0  0  0  0  0  0
   12.4570  -19.2703   25.9940 C   0  0  0  0  0  0  0  0  0  0  0  0
   13.5730  -19.0306   26.8874 C   0  0  0  0  0  0  0  0  0  0  0  0
   13.5069  -18.7301   28.0972 O   0  0  0  0  0  0  0  0  0  0  0  0
    9.7414  -18.7543   24.6231 C   0  0  0  0  0  0  0  0  0  0  0  0
    8.8618  -17.8502   24.7784 O   0  0  0  0  0  0  0  0  0  0  0  0
   14.8736  -19.1437   26.3518 O   0  0  0  0  0  0  0  0  0  0  0  0
    9.3957  -20.0037   25.1109 O   0  0  0  0  0  0  0  0  0  0  0  0
  2  1  1  0
  2  3  2  0
  4  2  1  0
  5  4  1  0
  5  6  1  6
  7  5  1  0
  7  8  2  0
  9  7  1  0
 10 17  1  0
 10  9  1  0
 10 11  1  6
 12 11  1  0
 12 16  1  0
 13 14  1  0
 13 12  2  0
 14 15  1  0
 15 16  2  0
 17 19  1  0
 18 17  2  0
 19 20  1  0
 20 25  1  0
 20 21  1  1
 22 21  1  0
 23 22  1  0
 24 23  2  0
 25 26  2  0
 25 28  1  0
 27 23  1  0
M  END
$$$$
