NHE.pdb
     RDKit          3D

 28 28  0  0  1  0  0  0  0  0999 V2000
   12.6695  -15.1237   13.6577 N   0  0  0  0  0  0  0  0  0  0  0  0
   13.6716  -15.5332   14.6182 C   0  0  0  0  0  0  0  0  0  0  0  0
   14.5927  -16.2771   14.1934 O   0  0  0  0  0  0  0  0  0  0  0  0
   13.5894  -15.0869   16.0131 C   0  0  0  0  0  0  0  0  0  0  0  0
   12.4206  -15.6813   16.7387 C   0  0  2  0  0  0  0  0  0  0  0  0
   11.2122  -15.2505   16.0246 N   0  0  0  0  0  0  0  0  0  0  0  0
   12.2809  -15.1290   18.1299 C   0  0  0  0  0  0  0  0  0  0  0  0
   13.0988  -14.2815   18.5603 O   0  0  0  0  0  0  0  0  0  0  0  0
   11.2346  -15.5429   18.9889 N   0  0  0  0  0  0  0  0  0  0  0  0
   11.0643  -15.1119   20.3307 C   0  0  1  0  0  0  0  0  0  0  0  0
    9.6334  -14.8502   20.7356 C   0  0  0  0  0  0  0  0  0  0  0  0
    8.9440  -13.9772   19.7345 C   0  0  0  0  0  0  0  0  0  0  0  0
    9.0100  -12.6081   19.6089 C   0  0  0  0  0  0  0  0  0  0  0  0
    8.2234  -12.2479   18.5606 N   0  0  0  0  0  0  0  0  0  0  0  0
    7.6698  -13.3435   18.0284 C   0  0  0  0  0  0  0  0  0  0  0  0
    8.1159  -14.3933   18.7518 N   0  0  0  0  0  0  0  0  0  0  0  0
   11.7081  -15.9986   21.3585 C   0  0  0  0  0  0  0  0  0  0  0  0
   11.5430  -17.2416   21.3008 O   0  0  0  0  0  0  0  0  0  0  0  0
   12.4975  -15.4979   22.3955 N   0  0  0  0  0  0  0  0  0  0  0  0
   13.4344  -16.3386   23.1928 C   0  0  1  0  0  0  0  0  0  0  0  0
   14.7465  -15.6369   23.1130 C   0  0  0  0  0  0  0  0  0  0  0  0
   15.9017  -16.1223   23.8704 C   0  0  0  0  0  0  0  0  0  0  0  0
   17.1650  -15.4157   23.7922 C   0  0  0  0  0  0  0  0  0  0  0  0
   17.6646  -14.8945   22.7738 O   0  0  0  0  0  0  0  0  0  0  0  0
   12.8957  -16.4640   24.5268 C   0  0  0  0  0  0  0  0  0  0  0  0
   12.9520  -17.5227   25.2276 O   0  0  0  0  0  0  0  0  0  0  0  0
   17.9200  -15.2958   24.9782 O   0  0  0  0  0  0  0  0  0  0  0  0
   12.2654  -15.3890   25.1315 O   0  0  0  0  0  0  0  0  0  0  0  0
  2  1  1  0
  2  3  2  0
  4  2  1  0
  5  4  1  0
  5  6  1  6
  7  5  1  0
  7  8  2  0
  9  7  1  0
 10 17  1  0
 10  9  1  0
 10 11  1  1
 12 11  1  0
 12 16  1  0
 13 14  1  0
 13 12  2  0
 14 15  1  0
 15 16  2  0
 17 19  1  0
 18 17  2  0
 19 20  1  0
 20 25  1  0
 20 21  1  1
 22 21  1  0
 23 22  1  0
 24 23  2  0
 25 26  2  0
 25 28  1  0
 27 23  1  0
M  END
$$$$
