NHE.pdb
     RDKit          3D

 28 28  0  0  1  0  0  0  0  0999 V2000
    8.5125  -17.1321   14.3102 N   0  0  0  0  0  0  0  0  0  0  0  0
    9.8319  -17.0948   14.9036 C   0  0  0  0  0  0  0  0  0  0  0  0
   10.7484  -17.6943   14.2849 O   0  0  0  0  0  0  0  0  0  0  0  0
   10.0581  -16.3846   16.1671 C   0  0  0  0  0  0  0  0  0  0  0  0
   10.7353  -17.2406   17.1940 C   0  0  2  0  0  0  0  0  0  0  0  0
    9.8004  -18.3214   17.5312 N   0  0  0  0  0  0  0  0  0  0  0  0
   10.9692  -16.4988   18.4805 C   0  0  0  0  0  0  0  0  0  0  0  0
   12.0234  -15.8411   18.6499 O   0  0  0  0  0  0  0  0  0  0  0  0
   10.0191  -16.5186   19.5295 N   0  0  0  0  0  0  0  0  0  0  0  0
   10.1171  -15.7688   20.7310 C   0  0  1  0  0  0  0  0  0  0  0  0
    8.8196  -15.1595   21.2056 C   0  0  0  0  0  0  0  0  0  0  0  0
    8.1951  -14.3245   20.1321 C   0  0  0  0  0  0  0  0  0  0  0  0
    8.2991  -12.9654   19.9406 C   0  0  0  0  0  0  0  0  0  0  0  0
    7.5672  -12.6428   18.8417 N   0  0  0  0  0  0  0  0  0  0  0  0
    7.0110  -13.7521   18.3416 C   0  0  0  0  0  0  0  0  0  0  0  0
    7.4003  -14.7726   19.1361 N   0  0  0  0  0  0  0  0  0  0  0  0
   10.7594  -16.5016   21.8745 C   0  0  0  0  0  0  0  0  0  0  0  0
   10.3612  -17.6522   22.1797 O   0  0  0  0  0  0  0  0  0  0  0  0
   11.7989  -15.9549   22.6291 N   0  0  0  0  0  0  0  0  0  0  0  0
   12.4324  -16.6553   23.7817 C   0  0  1  0  0  0  0  0  0  0  0  0
   13.8074  -16.0877   23.8704 C   0  0  0  0  0  0  0  0  0  0  0  0
   14.7340  -16.1922   22.7416 C   0  0  0  0  0  0  0  0  0  0  0  0
   16.0975  -15.7204   22.8807 C   0  0  0  0  0  0  0  0  0  0  0  0
   16.5617  -15.0544   23.8290 O   0  0  0  0  0  0  0  0  0  0  0  0
   11.6093  -16.4311   24.9469 C   0  0  0  0  0  0  0  0  0  0  0  0
   10.6579  -15.5903   25.0032 O   0  0  0  0  0  0  0  0  0  0  0  0
   17.0059  -16.0366   21.8481 O   0  0  0  0  0  0  0  0  0  0  0  0
   11.8273  -17.1539   26.1080 O   0  0  0  0  0  0  0  0  0  0  0  0
  2  1  1  0
  2  3  2  0
  4  2  1  0
  5  4  1  0
  5  6  1  1
  7  5  1  0
  7  8  2  0
  9  7  1  0
 10 17  1  0
 10  9  1  0
 10 11  1  1
 12 11  1  0
 12 16  1  0
 13 14  1  0
 13 12  2  0
 14 15  1  0
 15 16  2  0
 17 19  1  0
 18 17  2  0
 19 20  1  0
 20 25  1  0
 20 21  1  1
 22 21  1  0
 23 22  1  0
 24 23  2  0
 25 26  2  0
 25 28  1  0
 27 23  1  0
M  END
$$$$
