NHE.pdb
     RDKit          3D

 28 28  0  0  1  0  0  0  0  0999 V2000
   10.2679  -15.5788   13.3183 N   0  0  0  0  0  0  0  0  0  0  0  0
   11.5374  -15.3580   13.9771 C   0  0  0  0  0  0  0  0  0  0  0  0
   12.5730  -15.6255   13.3152 O   0  0  0  0  0  0  0  0  0  0  0  0
   11.5818  -14.8470   15.3514 C   0  0  0  0  0  0  0  0  0  0  0  0
   11.9575  -15.9038   16.3454 C   0  0  2  0  0  0  0  0  0  0  0  0
   10.8689  -16.8891   16.3514 N   0  0  0  0  0  0  0  0  0  0  0  0
   12.0154  -15.3638   17.7472 C   0  0  0  0  0  0  0  0  0  0  0  0
   12.9872  -14.6624   18.1163 O   0  0  0  0  0  0  0  0  0  0  0  0
   10.9878  -15.6266   18.6846 N   0  0  0  0  0  0  0  0  0  0  0  0
   10.9698  -15.1596   20.0251 C   0  0  1  0  0  0  0  0  0  0  0  0
    9.5945  -14.8698   20.5770 C   0  0  0  0  0  0  0  0  0  0  0  0
    8.8262  -13.9729   19.6578 C   0  0  0  0  0  0  0  0  0  0  0  0
    8.8902  -12.6018   19.5544 C   0  0  0  0  0  0  0  0  0  0  0  0
    8.0174  -12.2162   18.5866 N   0  0  0  0  0  0  0  0  0  0  0  0
    7.4117  -13.2977   18.0832 C   0  0  0  0  0  0  0  0  0  0  0  0
    7.9123  -14.3644   18.7435 N   0  0  0  0  0  0  0  0  0  0  0  0
   11.7138  -16.0280   20.9996 C   0  0  0  0  0  0  0  0  0  0  0  0
   11.5607  -17.2734   20.9676 O   0  0  0  0  0  0  0  0  0  0  0  0
   12.5851  -15.5073   21.9580 N   0  0  0  0  0  0  0  0  0  0  0  0
   13.3310  -16.3512   22.9336 C   0  0  1  0  0  0  0  0  0  0  0  0
   14.6723  -15.7127   23.0507 C   0  0  0  0  0  0  0  0  0  0  0  0
   15.6678  -15.8636   21.9877 C   0  0  0  0  0  0  0  0  0  0  0  0
   16.9673  -15.2353   22.1211 C   0  0  0  0  0  0  0  0  0  0  0  0
   17.2162  -14.0149   22.0377 O   0  0  0  0  0  0  0  0  0  0  0  0
   12.5710  -16.3913   24.1610 C   0  0  0  0  0  0  0  0  0  0  0  0
   11.5746  -15.6439   24.4135 O   0  0  0  0  0  0  0  0  0  0  0  0
   18.0748  -16.0735   22.3704 O   0  0  0  0  0  0  0  0  0  0  0  0
   12.9069  -17.2856   25.1638 O   0  0  0  0  0  0  0  0  0  0  0  0
  2  1  1  0
  2  3  2  0
  4  2  1  0
  5  4  1  0
  5  6  1  1
  7  5  1  0
  7  8  2  0
  9  7  1  0
 10 17  1  0
 10  9  1  0
 10 11  1  1
 12 11  1  0
 12 16  1  0
 13 14  1  0
 13 12  2  0
 14 15  1  0
 15 16  2  0
 17 19  1  0
 18 17  2  0
 19 20  1  0
 20 25  1  0
 20 21  1  1
 22 21  1  0
 23 22  1  0
 24 23  2  0
 25 26  2  0
 25 28  1  0
 27 23  1  0
M  END
$$$$
