KAI.pdb
     RDKit          3D

 23 22  0  0  1  0  0  0  0  0999 V2000
   17.1155  -13.2098  -14.8767 N   0  0  0  0  0  0  0  0  0  0  0  0
   18.0072  -12.8592  -15.9359 C   0  0  1  0  0  0  0  0  0  0  0  0
   17.6891  -13.4998  -17.2586 C   0  0  0  0  0  0  0  0  0  0  0  0
   16.9978  -14.8066  -17.1746 C   0  0  0  0  0  0  0  0  0  0  0  0
   15.6028  -14.7819  -16.6689 C   0  0  0  0  0  0  0  0  0  0  0  0
   14.8933  -16.1070  -16.7482 C   0  0  0  0  0  0  0  0  0  0  0  0
   13.5362  -15.8783  -16.2290 N   0  0  0  0  0  0  0  0  0  0  0  0
   18.1231  -11.3872  -16.0354 C   0  0  0  0  0  0  0  0  0  0  0  0
   18.9558  -10.8320  -16.8316 O   0  0  0  0  0  0  0  0  0  0  0  0
   16.0541   -8.4007  -15.0516 C   0  0  0  0  0  0  0  0  0  0  0  0
   17.3456   -9.0538  -15.4485 C   0  0  2  0  0  0  0  0  0  0  0  0
   17.3308  -10.4920  -15.2663 N   0  0  0  0  0  0  0  0  0  0  0  0
   18.5325   -8.4327  -14.8119 C   0  0  0  0  0  0  0  0  0  0  0  0
   18.7443   -8.6274  -13.5822 O   0  0  0  0  0  0  0  0  0  0  0  0
   23.1898   -9.1885  -16.7711 C   0  0  0  0  0  0  0  0  0  0  0  0
   21.9742   -8.9538  -15.9024 C   0  0  0  0  0  0  0  0  0  0  0  0
   21.8130   -7.4674  -15.7162 C   0  0  2  0  0  0  0  0  0  0  0  0
   23.0732   -6.8367  -15.1498 C   0  0  0  0  0  0  0  0  0  0  0  0
   20.6582   -7.0694  -14.8693 C   0  0  2  0  0  0  0  0  0  0  0  0
   19.4521   -7.6239  -15.5155 N   0  0  0  0  0  0  0  0  0  0  0  0
   20.5661   -5.6124  -14.7492 C   0  0  0  0  0  0  0  0  0  0  0  0
   19.9496   -4.8513  -15.7088 O   0  0  0  0  0  0  0  0  0  0  0  0
   21.0621   -5.0448  -13.7475 O   0  0  0  0  0  0  0  0  0  0  0  0
  2  1  1  1
  2  3  1  0
  3  4  1  0
  5  4  1  0
  6  7  1  0
  6  5  1  0
  8  2  1  0
  9  8  2  0
 11 10  1  1
 11 13  1  0
 11 12  1  0
 12  8  1  0
 13 20  1  0
 14 13  2  0
 16 15  1  0
 17 16  1  0
 17 18  1  1
 19 17  1  0
 19 21  1  0
 19 20  1  6
 21 23  2  0
 21 22  1  0
M  END
$$$$
