KAI.pdb
     RDKit          3D

 23 22  0  0  1  0  0  0  0  0999 V2000
   17.4851  -14.1210  -17.5778 N   0  0  0  0  0  0  0  0  0  0  0  0
   16.8611  -12.9289  -17.0990 C   0  0  1  0  0  0  0  0  0  0  0  0
   16.1416  -13.0834  -15.7876 C   0  0  0  0  0  0  0  0  0  0  0  0
   14.8980  -13.8852  -15.8431 C   0  0  0  0  0  0  0  0  0  0  0  0
   15.0138  -15.3083  -15.4385 C   0  0  0  0  0  0  0  0  0  0  0  0
   13.7252  -16.0816  -15.5232 C   0  0  0  0  0  0  0  0  0  0  0  0
   14.0667  -17.4825  -15.2329 N   0  0  0  0  0  0  0  0  0  0  0  0
   17.8382  -11.8176  -17.0788 C   0  0  0  0  0  0  0  0  0  0  0  0
   19.0381  -11.9865  -16.6700 O   0  0  0  0  0  0  0  0  0  0  0  0
   17.9749   -8.2038  -18.2662 C   0  0  0  0  0  0  0  0  0  0  0  0
   18.4957   -9.4253  -17.5671 C   0  0  2  0  0  0  0  0  0  0  0  0
   17.5231  -10.4987  -17.5051 N   0  0  0  0  0  0  0  0  0  0  0  0
   19.0738   -9.1315  -16.2333 C   0  0  0  0  0  0  0  0  0  0  0  0
   18.3144   -9.1093  -15.2244 O   0  0  0  0  0  0  0  0  0  0  0  0
   24.2097  -10.5343  -14.8933 C   0  0  0  0  0  0  0  0  0  0  0  0
   23.2003   -9.5116  -15.3651 C   0  0  0  0  0  0  0  0  0  0  0  0
   22.0485   -9.5094  -14.3939 C   0  0  2  0  0  0  0  0  0  0  0  0
   21.4159  -10.8850  -14.2763 C   0  0  0  0  0  0  0  0  0  0  0  0
   20.9828   -8.5185  -14.6969 C   0  0  2  0  0  0  0  0  0  0  0  0
   20.4466   -8.8713  -16.0265 N   0  0  0  0  0  0  0  0  0  0  0  0
   21.5116   -7.1525  -14.6901 C   0  0  0  0  0  0  0  0  0  0  0  0
   21.6583   -6.4346  -15.8491 O   0  0  0  0  0  0  0  0  0  0  0  0
   21.8393   -6.6247  -13.6013 O   0  0  0  0  0  0  0  0  0  0  0  0
  2  1  1  1
  2  3  1  0
  3  4  1  0
  5  4  1  0
  6  7  1  0
  6  5  1  0
  8  2  1  0
  9  8  2  0
 11 10  1  1
 11 13  1  0
 11 12  1  0
 12  8  1  0
 13 20  1  0
 14 13  2  0
 16 15  1  0
 17 16  1  0
 17 18  1  6
 19 17  1  0
 19 21  1  0
 19 20  1  6
 21 23  2  0
 21 22  1  0
M  END
$$$$
