KAI.pdb
     RDKit          3D

 23 22  0  0  1  0  0  0  0  0999 V2000
   24.7276  -16.9189  -15.3681 N   0  0  0  0  0  0  0  0  0  0  0  0
   24.0816  -15.9412  -16.1845 C   0  0  1  0  0  0  0  0  0  0  0  0
   22.7097  -16.3320  -16.6605 C   0  0  0  0  0  0  0  0  0  0  0  0
   22.6721  -17.0318  -17.9649 C   0  0  0  0  0  0  0  0  0  0  0  0
   21.3293  -17.4123  -18.4692 C   0  0  0  0  0  0  0  0  0  0  0  0
   21.3478  -18.1457  -19.7834 C   0  0  0  0  0  0  0  0  0  0  0  0
   19.9481  -18.4807  -20.0870 N   0  0  0  0  0  0  0  0  0  0  0  0
   24.0895  -14.6267  -15.5046 C   0  0  0  0  0  0  0  0  0  0  0  0
   23.1447  -14.2718  -14.7193 O   0  0  0  0  0  0  0  0  0  0  0  0
   26.4743  -11.7238  -15.0030 C   0  0  0  0  0  0  0  0  0  0  0  0
   25.1161  -12.3598  -15.0563 C   0  0  2  0  0  0  0  0  0  0  0  0
   25.1310  -13.6734  -15.6696 N   0  0  0  0  0  0  0  0  0  0  0  0
   24.0853  -11.4830  -15.6632 C   0  0  0  0  0  0  0  0  0  0  0  0
   23.9429  -11.4774  -16.9180 O   0  0  0  0  0  0  0  0  0  0  0  0
   18.6251  -10.1772  -16.1634 C   0  0  0  0  0  0  0  0  0  0  0  0
   19.9195   -9.3949  -16.1633 C   0  0  0  0  0  0  0  0  0  0  0  0
   20.9974  -10.2752  -15.5863 C   0  0  2  0  0  0  0  0  0  0  0  0
   20.6351  -10.7598  -14.1933 C   0  0  0  0  0  0  0  0  0  0  0  0
   22.3471   -9.6543  -15.5393 C   0  0  2  0  0  0  0  0  0  0  0  0
   23.2422  -10.6418  -14.9040 N   0  0  0  0  0  0  0  0  0  0  0  0
   22.3277   -8.4005  -14.7823 C   0  0  0  0  0  0  0  0  0  0  0  0
   21.9279   -7.2217  -15.3573 O   0  0  0  0  0  0  0  0  0  0  0  0
   22.6852   -8.4014  -13.5807 O   0  0  0  0  0  0  0  0  0  0  0  0
  2  1  1  1
  2  3  1  0
  3  4  1  0
  5  4  1  0
  6  7  1  0
  6  5  1  0
  8  2  1  0
  9  8  2  0
 11 10  1  6
 11 13  1  0
 11 12  1  0
 12  8  1  0
 13 20  1  0
 14 13  2  0
 16 15  1  0
 17 16  1  0
 17 18  1  1
 19 17  1  0
 19 21  1  0
 19 20  1  1
 21 23  2  0
 21 22  1  0
M  END
$$$$
