KAI.pdb
     RDKit          3D

 23 22  0  0  1  0  0  0  0  0999 V2000
   24.0428  -20.9530  -10.1555 N   0  0  0  0  0  0  0  0  0  0  0  0
   23.6742  -21.0219  -11.5336 C   0  0  1  0  0  0  0  0  0  0  0  0
   22.3697  -20.3520  -11.8660 C   0  0  0  0  0  0  0  0  0  0  0  0
   21.1573  -21.1100  -11.4810 C   0  0  0  0  0  0  0  0  0  0  0  0
   20.7889  -22.2509  -12.3557 C   0  0  0  0  0  0  0  0  0  0  0  0
   19.5257  -22.9601  -11.9471 C   0  0  0  0  0  0  0  0  0  0  0  0
   19.3179  -24.0309  -12.9338 N   0  0  0  0  0  0  0  0  0  0  0  0
   24.7876  -20.5405  -12.3815 C   0  0  0  0  0  0  0  0  0  0  0  0
   25.2266  -19.3425  -12.2959 O   0  0  0  0  0  0  0  0  0  0  0  0
   27.3359  -21.9817  -14.7832 C   0  0  0  0  0  0  0  0  0  0  0  0
   26.4898  -20.8773  -14.2206 C   0  0  2  0  0  0  0  0  0  0  0  0
   25.4436  -21.3594  -13.3404 N   0  0  0  0  0  0  0  0  0  0  0  0
   25.9545  -19.9656  -15.2607 C   0  0  0  0  0  0  0  0  0  0  0  0
   24.8702  -20.2591  -15.8378 O   0  0  0  0  0  0  0  0  0  0  0  0
   28.1588  -15.0820  -16.6298 C   0  0  0  0  0  0  0  0  0  0  0  0
   27.6240  -16.1598  -15.7134 C   0  0  0  0  0  0  0  0  0  0  0  0
   26.2151  -16.4796  -16.1409 C   0  0  2  0  0  0  0  0  0  0  0  0
   25.2225  -16.2335  -15.0181 C   0  0  0  0  0  0  0  0  0  0  0  0
   26.0207  -17.8605  -16.6553 C   0  0  2  0  0  0  0  0  0  0  0  0
   26.5999  -18.7701  -15.6469 N   0  0  0  0  0  0  0  0  0  0  0  0
   26.6700  -18.0379  -17.9562 C   0  0  0  0  0  0  0  0  0  0  0  0
   27.7766  -18.8342  -18.1028 O   0  0  0  0  0  0  0  0  0  0  0  0
   26.2064  -17.4488  -18.9610 O   0  0  0  0  0  0  0  0  0  0  0  0
  2  1  1  1
  2  3  1  0
  3  4  1  0
  5  4  1  0
  6  7  1  0
  6  5  1  0
  8  2  1  0
  9  8  2  0
 11 10  1  6
 11 13  1  0
 11 12  1  0
 12  8  1  0
 13 20  1  0
 14 13  2  0
 16 15  1  0
 17 16  1  0
 17 18  1  1
 19 17  1  0
 19 21  1  0
 19 20  1  1
 21 23  2  0
 21 22  1  0
M  END
$$$$
