KAI.pdb
     RDKit          3D

 23 22  0  0  1  0  0  0  0  0999 V2000
   26.0863  -20.9502   -9.8343 N   0  0  0  0  0  0  0  0  0  0  0  0
   25.2572  -20.8391  -10.9919 C   0  0  1  0  0  0  0  0  0  0  0  0
   23.9375  -20.1592  -10.7526 C   0  0  0  0  0  0  0  0  0  0  0  0
   22.9067  -20.9983  -10.0999 C   0  0  0  0  0  0  0  0  0  0  0  0
   22.9604  -21.0735   -8.6186 C   0  0  0  0  0  0  0  0  0  0  0  0
   21.8662  -21.9031   -8.0021 C   0  0  0  0  0  0  0  0  0  0  0  0
   20.6052  -21.2067   -8.2996 N   0  0  0  0  0  0  0  0  0  0  0  0
   26.0162  -20.2222  -12.1025 C   0  0  0  0  0  0  0  0  0  0  0  0
   26.3604  -18.9908  -12.0775 O   0  0  0  0  0  0  0  0  0  0  0  0
   28.0671  -21.4036  -15.0249 C   0  0  0  0  0  0  0  0  0  0  0  0
   27.2470  -20.3726  -14.3062 C   0  0  2  0  0  0  0  0  0  0  0  0
   26.4145  -20.9395  -13.2634 N   0  0  0  0  0  0  0  0  0  0  0  0
   26.4651  -19.5075  -15.2225 C   0  0  0  0  0  0  0  0  0  0  0  0
   25.2550  -19.7874  -15.4508 O   0  0  0  0  0  0  0  0  0  0  0  0
   26.6893  -14.3229  -14.8785 C   0  0  0  0  0  0  0  0  0  0  0  0
   26.0121  -15.6397  -15.1862 C   0  0  0  0  0  0  0  0  0  0  0  0
   26.5346  -16.1358  -16.5094 C   0  0  2  0  0  0  0  0  0  0  0  0
   26.0448  -15.2747  -17.6604 C   0  0  0  0  0  0  0  0  0  0  0  0
   26.2181  -17.5570  -16.8085 C   0  0  2  0  0  0  0  0  0  0  0  0
   27.0073  -18.3714  -15.8631 N   0  0  0  0  0  0  0  0  0  0  0  0
   26.5501  -17.8936  -18.1948 C   0  0  0  0  0  0  0  0  0  0  0  0
   25.6198  -17.8010  -19.1979 O   0  0  0  0  0  0  0  0  0  0  0  0
   27.7107  -18.2764  -18.4743 O   0  0  0  0  0  0  0  0  0  0  0  0
  2  1  1  1
  2  3  1  0
  3  4  1  0
  5  4  1  0
  6  7  1  0
  6  5  1  0
  8  2  1  0
  9  8  2  0
 11 10  1  6
 11 13  1  0
 11 12  1  0
 12  8  1  0
 13 20  1  0
 14 13  2  0
 16 15  1  0
 17 16  1  0
 17 18  1  6
 19 17  1  0
 19 21  1  0
 19 20  1  1
 21 23  2  0
 21 22  1  0
M  END
$$$$
