KAI.pdb
     RDKit          3D

 23 22  0  0  1  0  0  0  0  0999 V2000
   28.0079  -20.5276  -15.5656 N   0  0  0  0  0  0  0  0  0  0  0  0
   28.1588  -19.3014  -14.8493 C   0  0  1  0  0  0  0  0  0  0  0  0
   28.0826  -18.0655  -15.7025 C   0  0  0  0  0  0  0  0  0  0  0  0
   28.5310  -18.2394  -17.1029 C   0  0  0  0  0  0  0  0  0  0  0  0
   28.3969  -17.0562  -17.9887 C   0  0  0  0  0  0  0  0  0  0  0  0
   28.7659  -17.3146  -19.4249 C   0  0  0  0  0  0  0  0  0  0  0  0
   28.5121  -16.0585  -20.1469 N   0  0  0  0  0  0  0  0  0  0  0  0
   27.2148  -19.2595  -13.7102 C   0  0  0  0  0  0  0  0  0  0  0  0
   27.1304  -18.2376  -12.9460 O   0  0  0  0  0  0  0  0  0  0  0  0
   24.0632  -20.8696  -12.6339 C   0  0  0  0  0  0  0  0  0  0  0  0
   25.4033  -20.2937  -12.2811 C   0  0  2  0  0  0  0  0  0  0  0  0
   26.3438  -20.3343  -13.3836 N   0  0  0  0  0  0  0  0  0  0  0  0
   25.9811  -20.8764  -11.0457 C   0  0  0  0  0  0  0  0  0  0  0  0
   26.5100  -22.0222  -11.0943 O   0  0  0  0  0  0  0  0  0  0  0  0
   28.7698  -19.3823   -5.9798 C   0  0  0  0  0  0  0  0  0  0  0  0
   27.9123  -20.4714   -6.5849 C   0  0  0  0  0  0  0  0  0  0  0  0
   27.2768  -19.9242   -7.8366 C   0  0  2  0  0  0  0  0  0  0  0  0
   26.4930  -18.6544   -7.5545 C   0  0  0  0  0  0  0  0  0  0  0  0
   26.3935  -20.8808   -8.5536 C   0  0  2  0  0  0  0  0  0  0  0  0
   25.9722  -20.2108   -9.7999 N   0  0  0  0  0  0  0  0  0  0  0  0
   25.2339  -21.2460   -7.7366 C   0  0  0  0  0  0  0  0  0  0  0  0
   25.3448  -22.1150   -6.6817 O   0  0  0  0  0  0  0  0  0  0  0  0
   24.1122  -20.7550   -8.0057 O   0  0  0  0  0  0  0  0  0  0  0  0
  2  1  1  6
  2  3  1  0
  3  4  1  0
  5  4  1  0
  6  7  1  0
  6  5  1  0
  8  2  1  0
  9  8  2  0
 11 10  1  6
 11 13  1  0
 11 12  1  0
 12  8  1  0
 13 20  1  0
 14 13  2  0
 16 15  1  0
 17 16  1  0
 17 18  1  1
 19 17  1  0
 19 21  1  0
 19 20  1  6
 21 23  2  0
 21 22  1  0
M  END
$$$$
