KAI.pdb
     RDKit          3D

 23 22  0  0  1  0  0  0  0  0999 V2000
   27.0685  -19.0214  -17.7376 N   0  0  0  0  0  0  0  0  0  0  0  0
   27.1978  -18.3617  -16.4775 C   0  0  1  0  0  0  0  0  0  0  0  0
   26.1674  -17.2971  -16.2206 C   0  0  0  0  0  0  0  0  0  0  0  0
   26.4338  -15.9939  -16.8713 C   0  0  0  0  0  0  0  0  0  0  0  0
   27.3395  -16.0180  -18.0467 C   0  0  0  0  0  0  0  0  0  0  0  0
   27.6345  -14.6610  -18.6273 C   0  0  0  0  0  0  0  0  0  0  0  0
   28.5604  -14.8859  -19.7480 N   0  0  0  0  0  0  0  0  0  0  0  0
   27.2618  -19.3596  -15.3864 C   0  0  0  0  0  0  0  0  0  0  0  0
   26.2851  -20.1472  -15.1394 O   0  0  0  0  0  0  0  0  0  0  0  0
   29.7188  -20.3492  -12.6445 C   0  0  0  0  0  0  0  0  0  0  0  0
   28.3817  -20.3012  -13.3242 C   0  0  2  0  0  0  0  0  0  0  0  0
   28.3953  -19.5164  -14.5432 N   0  0  0  0  0  0  0  0  0  0  0  0
   27.2820  -19.8885  -12.4186 C   0  0  0  0  0  0  0  0  0  0  0  0
   27.0885  -18.6588  -12.2057 O   0  0  0  0  0  0  0  0  0  0  0  0
   21.6632  -20.4437  -11.2332 C   0  0  0  0  0  0  0  0  0  0  0  0
   22.9475  -20.1565  -10.4879 C   0  0  0  0  0  0  0  0  0  0  0  0
   24.0998  -20.5681  -11.3669 C   0  0  2  0  0  0  0  0  0  0  0  0
   23.9676  -22.0117  -11.8197 C   0  0  0  0  0  0  0  0  0  0  0  0
   25.4428  -20.3801  -10.7584 C   0  0  2  0  0  0  0  0  0  0  0  0
   26.4272  -20.8084  -11.7720 N   0  0  0  0  0  0  0  0  0  0  0  0
   25.5818  -21.1633   -9.5284 C   0  0  0  0  0  0  0  0  0  0  0  0
   25.0815  -20.7157   -8.3328 O   0  0  0  0  0  0  0  0  0  0  0  0
   26.1722  -22.2686   -9.5659 O   0  0  0  0  0  0  0  0  0  0  0  0
  2  1  1  6
  2  3  1  0
  3  4  1  0
  5  4  1  0
  6  7  1  0
  6  5  1  0
  8  2  1  0
  9  8  2  0
 11 10  1  1
 11 13  1  0
 11 12  1  0
 12  8  1  0
 13 20  1  0
 14 13  2  0
 16 15  1  0
 17 16  1  0
 17 18  1  1
 19 17  1  0
 19 21  1  0
 19 20  1  6
 21 23  2  0
 21 22  1  0
M  END
$$$$
