KAI.pdb
     RDKit          3D

 23 22  0  0  1  0  0  0  0  0999 V2000
   16.4671  -11.6520  -13.9835 N   0  0  0  0  0  0  0  0  0  0  0  0
   17.0298  -11.1764  -15.2070 C   0  0  1  0  0  0  0  0  0  0  0  0
   16.0578  -11.0932  -16.3513 C   0  0  0  0  0  0  0  0  0  0  0  0
   15.5858  -12.3966  -16.8718 C   0  0  0  0  0  0  0  0  0  0  0  0
   14.3285  -12.9234  -16.2851 C   0  0  0  0  0  0  0  0  0  0  0  0
   13.8163  -14.1759  -16.9443 C   0  0  0  0  0  0  0  0  0  0  0  0
   12.6367  -14.5941  -16.1715 N   0  0  0  0  0  0  0  0  0  0  0  0
   17.7401   -9.8988  -14.9763 C   0  0  0  0  0  0  0  0  0  0  0  0
   17.1522   -8.8885  -14.4573 O   0  0  0  0  0  0  0  0  0  0  0  0
   21.3064   -8.6096  -15.1422 C   0  0  0  0  0  0  0  0  0  0  0  0
   19.8153   -8.4571  -15.0690 C   0  0  2  0  0  0  0  0  0  0  0  0
   19.1078   -9.6997  -15.3083 N   0  0  0  0  0  0  0  0  0  0  0  0
   19.2992   -7.3591  -15.9222 C   0  0  0  0  0  0  0  0  0  0  0  0
   19.0372   -7.5932  -17.1352 O   0  0  0  0  0  0  0  0  0  0  0  0
   15.0536   -4.9160  -16.6214 C   0  0  0  0  0  0  0  0  0  0  0  0
   16.2392   -5.5292  -15.9102 C   0  0  0  0  0  0  0  0  0  0  0  0
   17.3309   -4.4930  -15.8434 C   0  0  2  0  0  0  0  0  0  0  0  0
   16.9442   -3.2270  -16.5878 C   0  0  0  0  0  0  0  0  0  0  0  0
   18.6544   -4.9527  -16.3396 C   0  0  2  0  0  0  0  0  0  0  0  0
   19.0815   -6.0474  -15.4457 N   0  0  0  0  0  0  0  0  0  0  0  0
   19.6308   -3.8608  -16.3351 C   0  0  0  0  0  0  0  0  0  0  0  0
   20.3848   -3.5775  -15.2254 O   0  0  0  0  0  0  0  0  0  0  0  0
   19.7825   -3.1666  -17.3679 O   0  0  0  0  0  0  0  0  0  0  0  0
  2  1  1  1
  2  3  1  0
  3  4  1  0
  5  4  1  0
  6  7  1  0
  6  5  1  0
  8  2  1  0
  9  8  2  0
 11 10  1  6
 11 13  1  0
 11 12  1  0
 12  8  1  0
 13 20  1  0
 14 13  2  0
 16 15  1  0
 17 16  1  0
 17 18  1  6
 19 17  1  0
 19 21  1  0
 19 20  1  1
 21 23  2  0
 21 22  1  0
M  END
$$$$
