KAI.pdb
     RDKit          3D

 23 22  0  0  1  0  0  0  0  0999 V2000
   15.6086  -24.6276   -8.6385 N   0  0  0  0  0  0  0  0  0  0  0  0
   16.8177  -25.2806   -8.2494 C   0  0  1  0  0  0  0  0  0  0  0  0
   17.9934  -24.3613   -8.0656 C   0  0  0  0  0  0  0  0  0  0  0  0
   18.3902  -23.5989   -9.2713 C   0  0  0  0  0  0  0  0  0  0  0  0
   19.1134  -24.3579  -10.3217 C   0  0  0  0  0  0  0  0  0  0  0  0
   19.4593  -23.5477  -11.5421 C   0  0  0  0  0  0  0  0  0  0  0  0
   20.0350  -24.4914  -12.5124 N   0  0  0  0  0  0  0  0  0  0  0  0
   16.5759  -26.1312   -7.0627 C   0  0  0  0  0  0  0  0  0  0  0  0
   15.8918  -25.7138   -6.0661 O   0  0  0  0  0  0  0  0  0  0  0  0
   17.1195  -29.7442   -6.0410 C   0  0  0  0  0  0  0  0  0  0  0  0
   16.8553  -28.2907   -5.7773 C   0  0  2  0  0  0  0  0  0  0  0  0
   17.0773  -27.4558   -6.9416 N   0  0  0  0  0  0  0  0  0  0  0  0
   17.5739  -27.7743   -4.5871 C   0  0  0  0  0  0  0  0  0  0  0  0
   18.6780  -27.1815   -4.7437 O   0  0  0  0  0  0  0  0  0  0  0  0
   16.0603  -25.9870    1.0155 C   0  0  0  0  0  0  0  0  0  0  0  0
   17.2480  -26.3773    0.1643 C   0  0  0  0  0  0  0  0  0  0  0  0
   16.7289  -26.9034   -1.1487 C   0  0  2  0  0  0  0  0  0  0  0  0
   15.7709  -28.0640   -0.9446 C   0  0  0  0  0  0  0  0  0  0  0  0
   17.7827  -27.3183   -2.1114 C   0  0  2  0  0  0  0  0  0  0  0  0
   17.0843  -27.9110   -3.2694 N   0  0  0  0  0  0  0  0  0  0  0  0
   18.7046  -28.2818   -1.5055 C   0  0  0  0  0  0  0  0  0  0  0  0
   19.7784  -27.8737   -0.7566 O   0  0  0  0  0  0  0  0  0  0  0  0
   18.5111  -29.5089   -1.6741 O   0  0  0  0  0  0  0  0  0  0  0  0
  2  1  1  1
  2  3  1  0
  3  4  1  0
  5  4  1  0
  6  7  1  0
  6  5  1  0
  8  2  1  0
  9  8  2  0
 11 10  1  6
 11 13  1  0
 11 12  1  0
 12  8  1  0
 13 20  1  0
 14 13  2  0
 16 15  1  0
 17 16  1  0
 17 18  1  1
 19 17  1  0
 19 21  1  0
 19 20  1  6
 21 23  2  0
 21 22  1  0
M  END
$$$$
