KAI.pdb
     RDKit          3D

 23 22  0  0  1  0  0  0  0  0999 V2000
   25.1088  -22.2427  -10.6502 N   0  0  0  0  0  0  0  0  0  0  0  0
   25.1667  -20.8287  -10.4585 C   0  0  1  0  0  0  0  0  0  0  0  0
   25.5910  -20.4015   -9.0806 C   0  0  0  0  0  0  0  0  0  0  0  0
   24.4984  -20.3138   -8.0850 C   0  0  0  0  0  0  0  0  0  0  0  0
   23.5761  -21.4745   -8.0159 C   0  0  0  0  0  0  0  0  0  0  0  0
   22.4365  -21.3014   -7.0480 C   0  0  0  0  0  0  0  0  0  0  0  0
   21.5510  -22.4593   -7.2444 N   0  0  0  0  0  0  0  0  0  0  0  0
   25.9884  -20.2058  -11.5201 C   0  0  0  0  0  0  0  0  0  0  0  0
   26.2395  -18.9519  -11.5254 O   0  0  0  0  0  0  0  0  0  0  0  0
   28.1705  -21.3053  -14.4141 C   0  0  0  0  0  0  0  0  0  0  0  0
   27.3002  -20.3290  -13.6783 C   0  0  2  0  0  0  0  0  0  0  0  0
   26.5524  -20.9415  -12.5978 N   0  0  0  0  0  0  0  0  0  0  0  0
   26.4211  -19.5406  -14.5756 C   0  0  0  0  0  0  0  0  0  0  0  0
   25.2668  -19.9763  -14.8453 O   0  0  0  0  0  0  0  0  0  0  0  0
   23.4800  -15.4925  -15.7290 C   0  0  0  0  0  0  0  0  0  0  0  0
   24.9160  -15.1971  -16.1005 C   0  0  0  0  0  0  0  0  0  0  0  0
   25.7986  -16.1737  -15.3674 C   0  0  2  0  0  0  0  0  0  0  0  0
   27.2028  -15.6257  -15.1821 C   0  0  0  0  0  0  0  0  0  0  0  0
   25.8901  -17.5186  -15.9935 C   0  0  2  0  0  0  0  0  0  0  0  0
   26.8095  -18.3117  -15.1534 N   0  0  0  0  0  0  0  0  0  0  0  0
   26.3823  -17.4301  -17.3703 C   0  0  0  0  0  0  0  0  0  0  0  0
   25.5238  -17.3037  -18.4320 O   0  0  0  0  0  0  0  0  0  0  0  0
   27.6164  -17.4712  -17.5867 O   0  0  0  0  0  0  0  0  0  0  0  0
  2  1  1  1
  2  3  1  0
  3  4  1  0
  5  4  1  0
  6  7  1  0
  6  5  1  0
  8  2  1  0
  9  8  2  0
 11 10  1  6
 11 13  1  0
 11 12  1  0
 12  8  1  0
 13 20  1  0
 14 13  2  0
 16 15  1  0
 17 16  1  0
 17 18  1  6
 19 17  1  0
 19 21  1  0
 19 20  1  1
 21 23  2  0
 21 22  1  0
M  END
$$$$
