KAI.pdb
     RDKit          3D

 23 22  0  0  1  0  0  0  0  0999 V2000
   15.6699  -11.2378  -17.8796 N   0  0  0  0  0  0  0  0  0  0  0  0
   16.3442  -11.0659  -16.6324 C   0  0  1  0  0  0  0  0  0  0  0  0
   17.1620  -12.2497  -16.1955 C   0  0  0  0  0  0  0  0  0  0  0  0
   16.4081  -13.5159  -16.0505 C   0  0  0  0  0  0  0  0  0  0  0  0
   17.2062  -14.7233  -15.7225 C   0  0  0  0  0  0  0  0  0  0  0  0
   16.3989  -15.9899  -15.6247 C   0  0  0  0  0  0  0  0  0  0  0  0
   17.3475  -17.0553  -15.2660 N   0  0  0  0  0  0  0  0  0  0  0  0
   17.1307   -9.8123  -16.6493 C   0  0  0  0  0  0  0  0  0  0  0  0
   17.9072   -9.5205  -17.6226 O   0  0  0  0  0  0  0  0  0  0  0  0
   16.9804   -6.3997  -15.4478 C   0  0  0  0  0  0  0  0  0  0  0  0
   17.8423   -7.6166  -15.6170 C   0  0  2  0  0  0  0  0  0  0  0  0
   17.0844   -8.8523  -15.6020 N   0  0  0  0  0  0  0  0  0  0  0  0
   18.9813   -7.6604  -14.6681 C   0  0  0  0  0  0  0  0  0  0  0  0
   18.7796   -8.0415  -13.4811 O   0  0  0  0  0  0  0  0  0  0  0  0
   24.0125  -10.2434  -14.2761 C   0  0  0  0  0  0  0  0  0  0  0  0
   23.3791   -8.9989  -13.6952 C   0  0  0  0  0  0  0  0  0  0  0  0
   22.2375   -8.5940  -14.5911 C   0  0  2  0  0  0  0  0  0  0  0  0
   22.7178   -8.2746  -15.9961 C   0  0  0  0  0  0  0  0  0  0  0  0
   21.4315   -7.4497  -14.0909 C   0  0  2  0  0  0  0  0  0  0  0  0
   20.2981   -7.2940  -15.0242 N   0  0  0  0  0  0  0  0  0  0  0  0
   22.2318   -6.2245  -14.0286 C   0  0  0  0  0  0  0  0  0  0  0  0
   23.0672   -5.9664  -12.9723 O   0  0  0  0  0  0  0  0  0  0  0  0
   22.1531   -5.3898  -14.9607 O   0  0  0  0  0  0  0  0  0  0  0  0
  2  1  1  6
  2  3  1  0
  3  4  1  0
  5  4  1  0
  6  7  1  0
  6  5  1  0
  8  2  1  0
  9  8  2  0
 11 10  1  1
 11 13  1  0
 11 12  1  0
 12  8  1  0
 13 20  1  0
 14 13  2  0
 16 15  1  0
 17 16  1  0
 17 18  1  6
 19 17  1  0
 19 21  1  0
 19 20  1  6
 21 23  2  0
 21 22  1  0
M  END
$$$$
