KAI.pdb
     RDKit          3D

 23 22  0  0  1  0  0  0  0  0999 V2000
   26.3163  -18.8983  -16.1261 N   0  0  0  0  0  0  0  0  0  0  0  0
   26.9486  -19.7461  -15.1663 C   0  0  1  0  0  0  0  0  0  0  0  0
   28.4443  -19.6072  -15.0987 C   0  0  0  0  0  0  0  0  0  0  0  0
   29.2028  -20.5504  -15.9517 C   0  0  0  0  0  0  0  0  0  0  0  0
   28.5250  -21.8281  -16.2842 C   0  0  0  0  0  0  0  0  0  0  0  0
   29.3573  -22.7727  -17.1091 C   0  0  0  0  0  0  0  0  0  0  0  0
   28.5633  -24.0026  -17.2518 N   0  0  0  0  0  0  0  0  0  0  0  0
   26.3065  -19.5818  -13.8430 C   0  0  0  0  0  0  0  0  0  0  0  0
   26.6990  -18.6920  -13.0126 O   0  0  0  0  0  0  0  0  0  0  0  0
   23.0817  -20.5499  -12.1998 C   0  0  0  0  0  0  0  0  0  0  0  0
   24.5350  -20.1803  -12.1410 C   0  0  2  0  0  0  0  0  0  0  0  0
   25.2220  -20.3874  -13.4007 N   0  0  0  0  0  0  0  0  0  0  0  0
   25.2538  -20.8204  -11.0126 C   0  0  0  0  0  0  0  0  0  0  0  0
   25.8009  -21.9449  -11.1897 O   0  0  0  0  0  0  0  0  0  0  0  0
   28.4115  -19.5526   -6.0832 C   0  0  0  0  0  0  0  0  0  0  0  0
   27.5211  -20.6229   -6.6740 C   0  0  0  0  0  0  0  0  0  0  0  0
   26.7750  -20.0208   -7.8362 C   0  0  2  0  0  0  0  0  0  0  0  0
   25.9352  -18.8316   -7.4037 C   0  0  0  0  0  0  0  0  0  0  0  0
   25.9073  -20.9732   -8.5774 C   0  0  2  0  0  0  0  0  0  0  0  0
   25.3617  -20.2332   -9.7326 N   0  0  0  0  0  0  0  0  0  0  0  0
   24.8306  -21.4829   -7.7251 C   0  0  0  0  0  0  0  0  0  0  0  0
   23.5321  -21.0738   -7.8882 O   0  0  0  0  0  0  0  0  0  0  0  0
   25.0991  -22.3120   -6.8239 O   0  0  0  0  0  0  0  0  0  0  0  0
  2  1  1  6
  2  3  1  0
  3  4  1  0
  5  4  1  0
  6  7  1  0
  6  5  1  0
  8  2  1  0
  9  8  2  0
 11 10  1  6
 11 13  1  0
 11 12  1  0
 12  8  1  0
 13 20  1  0
 14 13  2  0
 16 15  1  0
 17 16  1  0
 17 18  1  1
 19 17  1  0
 19 21  1  0
 19 20  1  6
 21 23  2  0
 21 22  1  0
M  END
$$$$
