SNR.pdb
     RDKit          3D

 26 25  0  0  1  0  0  0  0  0999 V2000
   13.7668  -16.1244   20.5586 O   0  0  0  0  0  0  0  0  0  0  0  0
   13.6637  -16.3342   19.1775 C   0  0  0  0  0  0  0  0  0  0  0  0
   13.5622  -14.9710   18.5311 C   0  0  2  0  0  0  0  0  0  0  0  0
   14.8280  -14.2708   18.6939 N   0  0  0  0  0  0  0  0  0  0  0  0
   12.4521  -14.1683   19.0960 C   0  0  0  0  0  0  0  0  0  0  0  0
   12.4080  -12.9461   18.8724 O   0  0  0  0  0  0  0  0  0  0  0  0
    7.5653  -12.9122   20.4363 N   0  0  0  0  0  0  0  0  0  0  0  0
    7.9435  -13.4267   19.1943 C   0  0  0  0  0  0  0  0  0  0  0  0
    7.0669  -13.3672   18.2587 O   0  0  0  0  0  0  0  0  0  0  0  0
    9.2780  -14.0350   18.8725 C   0  0  0  0  0  0  0  0  0  0  0  0
   10.1281  -14.1379   20.1163 C   0  0  2  0  0  0  0  0  0  0  0  0
   11.4129  -14.7241   19.8939 N   0  0  0  0  0  0  0  0  0  0  0  0
    9.4031  -14.9712   21.1460 C   0  0  0  0  0  0  0  0  0  0  0  0
    9.0560  -16.1567   20.8584 O   0  0  0  0  0  0  0  0  0  0  0  0
   12.2254  -18.0667   28.5931 N   0  0  0  0  0  0  0  0  0  0  0  0
   11.4121  -16.9323   28.8905 C   0  0  0  0  0  0  0  0  0  0  0  0
   11.5896  -16.2924   29.9955 N   0  0  0  0  0  0  0  0  0  0  0  0
   10.3995  -16.4615   28.0194 N   0  0  0  0  0  0  0  0  0  0  0  0
   10.7471  -15.6863   26.8032 C   0  0  0  0  0  0  0  0  0  0  0  0
    9.4795  -15.3975   26.1078 C   0  0  0  0  0  0  0  0  0  0  0  0
    9.4698  -14.7691   24.7865 C   0  0  0  0  0  0  0  0  0  0  0  0
    8.8506  -15.3769   23.6097 C   0  0  2  0  0  0  0  0  0  0  0  0
    9.0975  -14.4788   22.4202 N   0  0  0  0  0  0  0  0  0  0  0  0
    7.3660  -15.5275   23.6685 C   0  0  0  0  0  0  0  0  0  0  0  0
    6.6345  -14.9343   22.6059 O   0  0  0  0  0  0  0  0  0  0  0  0
    6.6827  -16.0978   24.5095 O   0  0  0  0  0  0  0  0  0  0  0  0
  2  1  1  0
  3  2  1  0
  3  4  1  1
  5  6  2  0
  5  3  1  0
  7  8  1  0
  8 10  1  0
  9  8  2  0
 11 10  1  6
 11 12  1  0
 12  5  1  0
 13 11  1  0
 13 23  1  0
 14 13  2  0
 16 17  2  0
 16 15  1  0
 18 16  1  0
 19 18  1  0
 20 19  1  0
 22 21  1  1
 21 20  1  0
 22 23  1  0
 22 24  1  0
 24 25  1  0
 26 24  2  0
M  END
$$$$
