SNR.pdb
     RDKit          3D

 26 25  0  0  1  0  0  0  0  0999 V2000
    9.6658  -18.0586   13.4040 O   0  0  0  0  0  0  0  0  0  0  0  0
    9.6727  -17.6085   14.7303 C   0  0  0  0  0  0  0  0  0  0  0  0
    8.9861  -16.2612   14.7421 C   0  0  2  0  0  0  0  0  0  0  0  0
    9.1334  -15.6397   13.4341 N   0  0  0  0  0  0  0  0  0  0  0  0
    9.5227  -15.3723   15.7993 C   0  0  0  0  0  0  0  0  0  0  0  0
   10.5125  -14.6612   15.5537 O   0  0  0  0  0  0  0  0  0  0  0  0
    7.4911  -12.0338   18.9551 N   0  0  0  0  0  0  0  0  0  0  0  0
    7.4439  -13.4293   18.9340 C   0  0  0  0  0  0  0  0  0  0  0  0
    6.3496  -13.9592   18.5232 O   0  0  0  0  0  0  0  0  0  0  0  0
    8.5590  -14.3456   19.3483 C   0  0  0  0  0  0  0  0  0  0  0  0
    9.5210  -14.5616   18.2046 C   0  0  2  0  0  0  0  0  0  0  0  0
    8.9611  -15.2819   17.1038 N   0  0  0  0  0  0  0  0  0  0  0  0
   10.7232  -15.3267   18.7043 C   0  0  0  0  0  0  0  0  0  0  0  0
   10.6644  -16.5901   18.7989 O   0  0  0  0  0  0  0  0  0  0  0  0
   17.1642  -11.5696   16.6220 N   0  0  0  0  0  0  0  0  0  0  0  0
   17.8861  -12.7161   17.0706 C   0  0  0  0  0  0  0  0  0  0  0  0
   19.1685  -12.6568   17.1877 N   0  0  0  0  0  0  0  0  0  0  0  0
   17.2567  -13.9412   17.4010 N   0  0  0  0  0  0  0  0  0  0  0  0
   15.7847  -14.0901   17.2906 C   0  0  0  0  0  0  0  0  0  0  0  0
   15.3680  -14.9977   18.3753 C   0  0  0  0  0  0  0  0  0  0  0  0
   14.3125  -14.6168   19.3143 C   0  0  0  0  0  0  0  0  0  0  0  0
   13.1273  -15.4340   19.5692 C   0  0  2  0  0  0  0  0  0  0  0  0
   11.9130  -14.6865   19.0701 N   0  0  0  0  0  0  0  0  0  0  0  0
   12.8351  -15.7137   21.0068 C   0  0  0  0  0  0  0  0  0  0  0  0
   13.7394  -16.5839   21.6711 O   0  0  0  0  0  0  0  0  0  0  0  0
   11.9192  -15.2932   21.7023 O   0  0  0  0  0  0  0  0  0  0  0  0
  2  1  1  0
  3  2  1  0
  3  4  1  6
  5  6  2  0
  5  3  1  0
  7  8  1  0
  8 10  1  0
  9  8  2  0
 11 10  1  1
 11 12  1  0
 12  5  1  0
 13 11  1  0
 13 23  1  0
 14 13  2  0
 16 17  2  0
 16 15  1  0
 18 16  1  0
 19 18  1  0
 20 19  1  0
 22 21  1  1
 21 20  1  0
 22 23  1  0
 22 24  1  0
 24 25  1  0
 26 24  2  0
M  END
$$$$
