SNR.pdb
     RDKit          3D

 26 25  0  0  1  0  0  0  0  0999 V2000
   10.8329  -17.5573   17.4818 O   0  0  0  0  0  0  0  0  0  0  0  0
   11.5377  -18.5871   18.1180 C   0  0  0  0  0  0  0  0  0  0  0  0
   10.5094  -19.5305   18.7003 C   0  0  2  0  0  0  0  0  0  0  0  0
    9.1927  -18.9170   18.6070 N   0  0  0  0  0  0  0  0  0  0  0  0
   10.8142  -19.8871   20.1059 C   0  0  0  0  0  0  0  0  0  0  0  0
    9.8971  -20.2794   20.8481 O   0  0  0  0  0  0  0  0  0  0  0  0
   13.1968  -22.1886   24.2864 N   0  0  0  0  0  0  0  0  0  0  0  0
   14.0557  -21.5278   23.4056 C   0  0  0  0  0  0  0  0  0  0  0  0
   15.2267  -21.2473   23.8498 O   0  0  0  0  0  0  0  0  0  0  0  0
   13.7206  -21.1261   21.9981 C   0  0  0  0  0  0  0  0  0  0  0  0
   12.4932  -20.2467   21.9752 C   0  0  2  0  0  0  0  0  0  0  0  0
   12.1194  -19.8064   20.6674 N   0  0  0  0  0  0  0  0  0  0  0  0
   12.7406  -19.0261   22.8293 C   0  0  0  0  0  0  0  0  0  0  0  0
   12.9517  -19.1656   24.0721 O   0  0  0  0  0  0  0  0  0  0  0  0
    8.3939  -13.6879   18.5941 N   0  0  0  0  0  0  0  0  0  0  0  0
    8.0408  -13.3422   19.9330 C   0  0  0  0  0  0  0  0  0  0  0  0
    7.3681  -12.2657   20.1575 N   0  0  0  0  0  0  0  0  0  0  0  0
    8.3970  -14.1342   21.0519 N   0  0  0  0  0  0  0  0  0  0  0  0
    9.3360  -15.2735   20.9049 C   0  0  0  0  0  0  0  0  0  0  0  0
    9.4844  -15.8757   22.2425 C   0  0  0  0  0  0  0  0  0  0  0  0
   10.4870  -16.9105   22.4972 C   0  0  0  0  0  0  0  0  0  0  0  0
   11.8798  -16.6181   22.8320 C   0  0  2  0  0  0  0  0  0  0  0  0
   12.7464  -17.7326   22.2943 N   0  0  0  0  0  0  0  0  0  0  0  0
   12.1938  -16.5649   24.2911 C   0  0  0  0  0  0  0  0  0  0  0  0
   11.5985  -17.5718   25.0961 O   0  0  0  0  0  0  0  0  0  0  0  0
   12.9008  -15.7706   24.8981 O   0  0  0  0  0  0  0  0  0  0  0  0
  2  1  1  0
  3  2  1  0
  3  4  1  1
  5  6  2  0
  5  3  1  0
  7  8  1  0
  8 10  1  0
  9  8  2  0
 11 10  1  6
 11 12  1  0
 12  5  1  0
 13 11  1  0
 13 23  1  0
 14 13  2  0
 16 17  2  0
 16 15  1  0
 18 16  1  0
 19 18  1  0
 20 19  1  0
 22 21  1  1
 21 20  1  0
 22 23  1  0
 22 24  1  0
 24 25  1  0
 26 24  2  0
M  END
$$$$
