SNR.pdb
     RDKit          3D

 26 25  0  0  1  0  0  0  0  0999 V2000
    8.1628  -18.3177   19.7840 O   0  0  0  0  0  0  0  0  0  0  0  0
    7.2191  -17.7973   18.8893 C   0  0  0  0  0  0  0  0  0  0  0  0
    7.9195  -16.7266   18.0833 C   0  0  2  0  0  0  0  0  0  0  0  0
    8.5397  -17.3375   16.9166 N   0  0  0  0  0  0  0  0  0  0  0  0
    8.9318  -15.9995   18.8846 C   0  0  0  0  0  0  0  0  0  0  0  0
    9.9268  -15.5163   18.3169 O   0  0  0  0  0  0  0  0  0  0  0  0
    6.0844  -13.6567   19.7431 N   0  0  0  0  0  0  0  0  0  0  0  0
    7.0107  -13.5980   20.7866 C   0  0  0  0  0  0  0  0  0  0  0  0
    6.5436  -13.7273   21.9749 O   0  0  0  0  0  0  0  0  0  0  0  0
    8.4905  -13.3988   20.6283 C   0  0  0  0  0  0  0  0  0  0  0  0
    9.2389  -14.6523   21.0139 C   0  0  2  0  0  0  0  0  0  0  0  0
    8.8304  -15.8170   20.2924 N   0  0  0  0  0  0  0  0  0  0  0  0
    9.0383  -14.9175   22.4869 C   0  0  0  0  0  0  0  0  0  0  0  0
    9.0711  -13.9497   23.3060 O   0  0  0  0  0  0  0  0  0  0  0  0
   14.0689  -18.7875   19.1143 N   0  0  0  0  0  0  0  0  0  0  0  0
   14.0788  -19.8408   20.0774 C   0  0  0  0  0  0  0  0  0  0  0  0
   15.1735  -20.4797   20.3125 N   0  0  0  0  0  0  0  0  0  0  0  0
   12.9272  -20.2302   20.8040 N   0  0  0  0  0  0  0  0  0  0  0  0
   11.6445  -19.5038   20.6362 C   0  0  0  0  0  0  0  0  0  0  0  0
   11.4143  -18.7559   21.8857 C   0  0  0  0  0  0  0  0  0  0  0  0
   10.2077  -17.9492   22.0710 C   0  0  0  0  0  0  0  0  0  0  0  0
    9.9323  -17.1776   23.2820 C   0  0  2  0  0  0  0  0  0  0  0  0
    8.8141  -16.2055   22.9872 N   0  0  0  0  0  0  0  0  0  0  0  0
   11.0562  -16.3246   23.7715 C   0  0  0  0  0  0  0  0  0  0  0  0
   10.8266  -15.6233   24.9846 O   0  0  0  0  0  0  0  0  0  0  0  0
   12.1597  -16.1441   23.2725 O   0  0  0  0  0  0  0  0  0  0  0  0
  2  1  1  0
  3  2  1  0
  3  4  1  6
  5  6  2  0
  5  3  1  0
  7  8  1  0
  8 10  1  0
  9  8  2  0
 11 10  1  6
 11 12  1  0
 12  5  1  0
 13 11  1  0
 13 23  1  0
 14 13  2  0
 16 17  2  0
 16 15  1  0
 18 16  1  0
 19 18  1  0
 20 19  1  0
 22 21  1  6
 21 20  1  0
 22 23  1  0
 22 24  1  0
 24 25  1  0
 26 24  2  0
M  END
$$$$
