SNR.pdb
     RDKit          3D

 26 25  0  0  1  0  0  0  0  0999 V2000
   11.6920  -16.6140   16.6852 O   0  0  0  0  0  0  0  0  0  0  0  0
   12.2915  -17.8782   16.7487 C   0  0  0  0  0  0  0  0  0  0  0  0
   11.2909  -18.8084   17.3969 C   0  0  2  0  0  0  0  0  0  0  0  0
    9.9444  -18.3444   17.0961 N   0  0  0  0  0  0  0  0  0  0  0  0
   11.4884  -18.9045   18.8623 C   0  0  0  0  0  0  0  0  0  0  0  0
   10.5002  -19.0507   19.6025 O   0  0  0  0  0  0  0  0  0  0  0  0
   15.9173  -21.0245   20.0348 N   0  0  0  0  0  0  0  0  0  0  0  0
   14.8185  -20.6640   20.8177 C   0  0  0  0  0  0  0  0  0  0  0  0
   14.0608  -21.6202   21.2161 O   0  0  0  0  0  0  0  0  0  0  0  0
   14.4600  -19.2639   21.2247 C   0  0  0  0  0  0  0  0  0  0  0  0
   13.0190  -18.9653   20.8862 C   0  0  2  0  0  0  0  0  0  0  0  0
   12.7665  -18.8389   19.4847 N   0  0  0  0  0  0  0  0  0  0  0  0
   12.6082  -17.6758   21.5560 C   0  0  0  0  0  0  0  0  0  0  0  0
   12.6826  -16.5858   20.9117 O   0  0  0  0  0  0  0  0  0  0  0  0
    6.6945  -13.1570   19.7278 N   0  0  0  0  0  0  0  0  0  0  0  0
    8.0668  -13.0165   19.3618 C   0  0  0  0  0  0  0  0  0  0  0  0
    8.3973  -12.1868   18.4322 N   0  0  0  0  0  0  0  0  0  0  0  0
    9.1070  -13.7549   19.9773 N   0  0  0  0  0  0  0  0  0  0  0  0
    8.8045  -14.7572   21.0285 C   0  0  0  0  0  0  0  0  0  0  0  0
   10.1005  -15.2517   21.5280 C   0  0  0  0  0  0  0  0  0  0  0  0
   10.1661  -16.2919   22.5550 C   0  0  0  0  0  0  0  0  0  0  0  0
   11.3238  -16.4937   23.4249 C   0  0  2  0  0  0  0  0  0  0  0  0
   12.1425  -17.6383   22.8756 N   0  0  0  0  0  0  0  0  0  0  0  0
   11.0118  -16.8916   24.8301 C   0  0  0  0  0  0  0  0  0  0  0  0
   10.8363  -15.8299   25.7565 O   0  0  0  0  0  0  0  0  0  0  0  0
   10.8816  -18.0141   25.3016 O   0  0  0  0  0  0  0  0  0  0  0  0
  2  1  1  0
  3  2  1  0
  3  4  1  1
  5  6  2  0
  5  3  1  0
  7  8  1  0
  8 10  1  0
  9  8  2  0
 11 10  1  6
 11 12  1  0
 12  5  1  0
 13 11  1  0
 13 23  1  0
 14 13  2  0
 16 17  2  0
 16 15  1  0
 18 16  1  0
 19 18  1  0
 20 19  1  0
 22 21  1  6
 21 20  1  0
 22 23  1  0
 22 24  1  0
 24 25  1  0
 26 24  2  0
M  END
$$$$
