SNR.pdb
     RDKit          3D

 26 25  0  0  1  0  0  0  0  0999 V2000
    5.4190  -19.1035   21.8677 O   0  0  0  0  0  0  0  0  0  0  0  0
    4.7250  -18.7352   20.7081 C   0  0  0  0  0  0  0  0  0  0  0  0
    5.7629  -18.4253   19.6530 C   0  0  2  0  0  0  0  0  0  0  0  0
    6.4079  -19.6635   19.2407 N   0  0  0  0  0  0  0  0  0  0  0  0
    6.7723  -17.4529   20.1338 C   0  0  0  0  0  0  0  0  0  0  0  0
    7.8597  -17.8683   20.5705 O   0  0  0  0  0  0  0  0  0  0  0  0
    9.0746  -11.9256   19.8421 N   0  0  0  0  0  0  0  0  0  0  0  0
    8.2924  -12.7422   20.6616 C   0  0  0  0  0  0  0  0  0  0  0  0
    8.5335  -12.6888   21.9210 O   0  0  0  0  0  0  0  0  0  0  0  0
    7.2053  -13.6645   20.1903 C   0  0  0  0  0  0  0  0  0  0  0  0
    7.4497  -15.0698   20.6859 C   0  0  2  0  0  0  0  0  0  0  0  0
    6.5673  -16.0446   20.1246 N   0  0  0  0  0  0  0  0  0  0  0  0
    7.2913  -15.1017   22.1873 C   0  0  0  0  0  0  0  0  0  0  0  0
    6.1320  -15.0185   22.6951 O   0  0  0  0  0  0  0  0  0  0  0  0
    6.2748  -22.0269   26.2454 N   0  0  0  0  0  0  0  0  0  0  0  0
    6.7112  -21.1248   27.2616 C   0  0  0  0  0  0  0  0  0  0  0  0
    6.6741  -21.4899   28.4973 N   0  0  0  0  0  0  0  0  0  0  0  0
    7.1926  -19.8229   26.9800 N   0  0  0  0  0  0  0  0  0  0  0  0
    7.1364  -19.2764   25.6019 C   0  0  0  0  0  0  0  0  0  0  0  0
    7.6604  -17.9000   25.6700 C   0  0  0  0  0  0  0  0  0  0  0  0
    7.7799  -17.0775   24.4657 C   0  0  0  0  0  0  0  0  0  0  0  0
    8.2618  -15.6973   24.4771 C   0  0  2  0  0  0  0  0  0  0  0  0
    8.3882  -15.2218   23.0487 N   0  0  0  0  0  0  0  0  0  0  0  0
    9.6194  -15.4941   25.0652 C   0  0  0  0  0  0  0  0  0  0  0  0
   10.7185  -15.7261   24.1966 O   0  0  0  0  0  0  0  0  0  0  0  0
    9.9232  -15.1495   26.2002 O   0  0  0  0  0  0  0  0  0  0  0  0
  2  1  1  0
  3  2  1  0
  3  4  1  1
  5  6  2  0
  5  3  1  0
  7  8  1  0
  8 10  1  0
  9  8  2  0
 11 10  1  6
 11 12  1  0
 12  5  1  0
 13 11  1  0
 13 23  1  0
 14 13  2  0
 16 17  2  0
 16 15  1  0
 18 16  1  0
 19 18  1  0
 20 19  1  0
 22 21  1  6
 21 20  1  0
 22 23  1  0
 22 24  1  0
 24 25  1  0
 26 24  2  0
M  END
$$$$
