SNR.pdb
     RDKit          3D

 26 25  0  0  1  0  0  0  0  0999 V2000
    8.3562  -13.7474   17.0892 O   0  0  0  0  0  0  0  0  0  0  0  0
    8.5166  -14.5246   18.2434 C   0  0  0  0  0  0  0  0  0  0  0  0
    8.7623  -15.9453   17.7875 C   0  0  2  0  0  0  0  0  0  0  0  0
    7.5717  -16.4422   17.1133 N   0  0  0  0  0  0  0  0  0  0  0  0
    9.1272  -16.8361   18.9140 C   0  0  0  0  0  0  0  0  0  0  0  0
    8.3411  -17.7351   19.2599 O   0  0  0  0  0  0  0  0  0  0  0  0
   14.3664  -17.6369   20.6788 N   0  0  0  0  0  0  0  0  0  0  0  0
   13.1216  -17.6136   20.0461 C   0  0  0  0  0  0  0  0  0  0  0  0
   13.0027  -16.8193   19.0450 O   0  0  0  0  0  0  0  0  0  0  0  0
   11.9280  -18.4349   20.4401 C   0  0  0  0  0  0  0  0  0  0  0  0
   10.7454  -17.5441   20.7370 C   0  0  2  0  0  0  0  0  0  0  0  0
   10.3478  -16.7220   19.6370 N   0  0  0  0  0  0  0  0  0  0  0  0
   11.0824  -16.6421   21.9002 C   0  0  0  0  0  0  0  0  0  0  0  0
   12.2511  -16.6675   22.3923 O   0  0  0  0  0  0  0  0  0  0  0  0
    6.0717  -11.9521   25.1256 N   0  0  0  0  0  0  0  0  0  0  0  0
    6.5809  -12.2123   26.4333 C   0  0  0  0  0  0  0  0  0  0  0  0
    6.4376  -11.3287   27.3610 N   0  0  0  0  0  0  0  0  0  0  0  0
    7.2491  -13.4137   26.7741 N   0  0  0  0  0  0  0  0  0  0  0  0
    8.2659  -13.9984   25.8656 C   0  0  0  0  0  0  0  0  0  0  0  0
    7.5669  -14.9935   25.0318 C   0  0  0  0  0  0  0  0  0  0  0  0
    8.2758  -15.7354   23.9887 C   0  0  0  0  0  0  0  0  0  0  0  0
    9.7330  -15.8271   23.9138 C   0  0  2  0  0  0  0  0  0  0  0  0
   10.1431  -15.7688   22.4609 N   0  0  0  0  0  0  0  0  0  0  0  0
   10.3253  -17.0998   24.4234 C   0  0  0  0  0  0  0  0  0  0  0  0
   11.0081  -17.0186   25.6657 O   0  0  0  0  0  0  0  0  0  0  0  0
   10.3033  -18.2154   23.9191 O   0  0  0  0  0  0  0  0  0  0  0  0
  2  1  1  0
  3  2  1  0
  3  4  1  1
  5  6  2  0
  5  3  1  0
  7  8  1  0
  8 10  1  0
  9  8  2  0
 11 10  1  6
 11 12  1  0
 12  5  1  0
 13 11  1  0
 13 23  1  0
 14 13  2  0
 16 17  2  0
 16 15  1  0
 18 16  1  0
 19 18  1  0
 20 19  1  0
 22 21  1  6
 21 20  1  0
 22 23  1  0
 22 24  1  0
 24 25  1  0
 26 24  2  0
M  END
$$$$
