SNR.pdb
     RDKit          3D

 26 25  0  0  1  0  0  0  0  0999 V2000
    7.5884  -19.1824   17.0426 O   0  0  0  0  0  0  0  0  0  0  0  0
    8.5791  -18.1928   17.0777 C   0  0  0  0  0  0  0  0  0  0  0  0
    8.9194  -17.9613   18.5328 C   0  0  2  0  0  0  0  0  0  0  0  0
    7.6999  -18.0316   19.3246 N   0  0  0  0  0  0  0  0  0  0  0  0
    9.5986  -16.6617   18.7455 C   0  0  0  0  0  0  0  0  0  0  0  0
   10.7472  -16.4938   18.3001 O   0  0  0  0  0  0  0  0  0  0  0  0
    6.6673  -13.3611   17.6205 N   0  0  0  0  0  0  0  0  0  0  0  0
    8.0360  -13.3823   17.8976 C   0  0  0  0  0  0  0  0  0  0  0  0
    8.8166  -13.6297   16.9095 O   0  0  0  0  0  0  0  0  0  0  0  0
    8.6566  -13.1406   19.2433 C   0  0  0  0  0  0  0  0  0  0  0  0
    9.5802  -14.2765   19.6135 C   0  0  2  0  0  0  0  0  0  0  0  0
    9.0027  -15.5730   19.4420 N   0  0  0  0  0  0  0  0  0  0  0  0
    9.9905  -14.1321   21.0596 C   0  0  0  0  0  0  0  0  0  0  0  0
    9.9768  -12.9854   21.6013 O   0  0  0  0  0  0  0  0  0  0  0  0
    5.7425  -13.0911   27.4839 N   0  0  0  0  0  0  0  0  0  0  0  0
    6.6155  -12.6751   26.4342 C   0  0  0  0  0  0  0  0  0  0  0  0
    7.0396  -11.4582   26.4021 N   0  0  0  0  0  0  0  0  0  0  0  0
    7.0500  -13.5449   25.4044 N   0  0  0  0  0  0  0  0  0  0  0  0
    7.8535  -14.7512   25.7210 C   0  0  0  0  0  0  0  0  0  0  0  0
    7.7462  -15.6495   24.5568 C   0  0  0  0  0  0  0  0  0  0  0  0
    8.5060  -15.3926   23.3329 C   0  0  0  0  0  0  0  0  0  0  0  0
    9.9665  -15.4155   23.2713 C   0  0  2  0  0  0  0  0  0  0  0  0
   10.3888  -15.2289   21.8329 N   0  0  0  0  0  0  0  0  0  0  0  0
   10.6087  -16.6967   23.6912 C   0  0  0  0  0  0  0  0  0  0  0  0
   10.6901  -17.7099   22.6997 O   0  0  0  0  0  0  0  0  0  0  0  0
   11.0827  -17.0003   24.7786 O   0  0  0  0  0  0  0  0  0  0  0  0
  2  1  1  0
  3  2  1  0
  3  4  1  1
  5  6  2  0
  5  3  1  0
  7  8  1  0
  8 10  1  0
  9  8  2  0
 11 10  1  1
 11 12  1  0
 12  5  1  0
 13 11  1  0
 13 23  1  0
 14 13  2  0
 16 17  2  0
 16 15  1  0
 18 16  1  0
 19 18  1  0
 20 19  1  0
 22 21  1  6
 21 20  1  0
 22 23  1  0
 22 24  1  0
 24 25  1  0
 26 24  2  0
M  END
$$$$
