SNR.pdb
     RDKit          3D

 26 25  0  0  1  0  0  0  0  0999 V2000
   13.8216  -20.5625   20.9291 O   0  0  0  0  0  0  0  0  0  0  0  0
   14.0350  -19.3062   20.3478 C   0  0  0  0  0  0  0  0  0  0  0  0
   15.5223  -19.1791   20.1064 C   0  0  2  0  0  0  0  0  0  0  0  0
   15.9757  -20.3146   19.3164 N   0  0  0  0  0  0  0  0  0  0  0  0
   16.2864  -19.0935   21.3731 C   0  0  0  0  0  0  0  0  0  0  0  0
   17.0967  -19.9924   21.6583 O   0  0  0  0  0  0  0  0  0  0  0  0
   18.5281  -17.6315   25.8300 N   0  0  0  0  0  0  0  0  0  0  0  0
   18.1756  -16.5052   25.0834 C   0  0  0  0  0  0  0  0  0  0  0  0
   18.6505  -15.3817   25.4828 O   0  0  0  0  0  0  0  0  0  0  0  0
   17.2967  -16.5064   23.8660 C   0  0  0  0  0  0  0  0  0  0  0  0
   16.8292  -17.9072   23.5504 C   0  0  2  0  0  0  0  0  0  0  0  0
   16.1460  -18.0227   22.2999 N   0  0  0  0  0  0  0  0  0  0  0  0
   15.8964  -18.3772   24.6409 C   0  0  0  0  0  0  0  0  0  0  0  0
   14.8753  -17.6833   24.9315 O   0  0  0  0  0  0  0  0  0  0  0  0
   13.9955  -21.1511   30.7189 N   0  0  0  0  0  0  0  0  0  0  0  0
   15.0515  -21.0589   31.6746 C   0  0  0  0  0  0  0  0  0  0  0  0
   14.8374  -21.4076   32.8971 N   0  0  0  0  0  0  0  0  0  0  0  0
   16.3488  -20.5953   31.3459 N   0  0  0  0  0  0  0  0  0  0  0  0
   16.5471  -19.6124   30.2525 C   0  0  0  0  0  0  0  0  0  0  0  0
   15.9410  -20.1968   29.0422 C   0  0  0  0  0  0  0  0  0  0  0  0
   15.9931  -19.4963   27.7586 C   0  0  0  0  0  0  0  0  0  0  0  0
   15.3031  -19.9632   26.5571 C   0  0  2  0  0  0  0  0  0  0  0  0
   16.1187  -19.5635   25.3500 N   0  0  0  0  0  0  0  0  0  0  0  0
   13.9546  -19.3683   26.3167 C   0  0  0  0  0  0  0  0  0  0  0  0
   13.0371  -20.1717   25.5895 O   0  0  0  0  0  0  0  0  0  0  0  0
   13.5218  -18.2765   26.6633 O   0  0  0  0  0  0  0  0  0  0  0  0
  2  1  1  0
  3  2  1  0
  3  4  1  1
  5  6  2  0
  5  3  1  0
  7  8  1  0
  8 10  1  0
  9  8  2  0
 11 10  1  1
 11 12  1  0
 12  5  1  0
 13 11  1  0
 13 23  1  0
 14 13  2  0
 16 17  2  0
 16 15  1  0
 18 16  1  0
 19 18  1  0
 20 19  1  0
 22 21  1  1
 21 20  1  0
 22 23  1  0
 22 24  1  0
 24 25  1  0
 26 24  2  0
M  END
$$$$
