SNR.pdb
     RDKit          3D

 26 25  0  0  1  0  0  0  0  0999 V2000
    7.3093  -13.5497   16.1720 O   0  0  0  0  0  0  0  0  0  0  0  0
    7.1681  -14.2833   17.3568 C   0  0  0  0  0  0  0  0  0  0  0  0
    8.3801  -13.9815   18.2092 C   0  0  2  0  0  0  0  0  0  0  0  0
    9.5745  -14.0472   17.3797 N   0  0  0  0  0  0  0  0  0  0  0  0
    8.4978  -14.9099   19.3580 C   0  0  0  0  0  0  0  0  0  0  0  0
    7.5513  -15.0138   20.1575 O   0  0  0  0  0  0  0  0  0  0  0  0
   11.2188  -18.6744   18.0519 N   0  0  0  0  0  0  0  0  0  0  0  0
   10.5052  -18.5698   19.2478 C   0  0  0  0  0  0  0  0  0  0  0  0
    9.4493  -19.2922   19.3497 O   0  0  0  0  0  0  0  0  0  0  0  0
   10.8727  -17.6905   20.4081 C   0  0  0  0  0  0  0  0  0  0  0  0
    9.7949  -16.6627   20.6573 C   0  0  2  0  0  0  0  0  0  0  0  0
    9.6515  -15.7057   19.6049 N   0  0  0  0  0  0  0  0  0  0  0  0
   10.1057  -15.9160   21.9325 C   0  0  0  0  0  0  0  0  0  0  0  0
   10.6617  -14.7778   21.8703 O   0  0  0  0  0  0  0  0  0  0  0  0
    8.1204  -11.6551   27.2304 N   0  0  0  0  0  0  0  0  0  0  0  0
    6.7106  -11.6763   27.0093 C   0  0  0  0  0  0  0  0  0  0  0  0
    5.9639  -10.7865   27.5683 N   0  0  0  0  0  0  0  0  0  0  0  0
    6.0741  -12.6422   26.1921 N   0  0  0  0  0  0  0  0  0  0  0  0
    6.6746  -13.0545   24.8996 C   0  0  0  0  0  0  0  0  0  0  0  0
    7.7107  -14.0553   25.2137 C   0  0  0  0  0  0  0  0  0  0  0  0
    8.5756  -14.6002   24.1667 C   0  0  0  0  0  0  0  0  0  0  0  0
    9.6348  -15.5749   24.4228 C   0  0  2  0  0  0  0  0  0  0  0  0
    9.7987  -16.4387   23.1943 N   0  0  0  0  0  0  0  0  0  0  0  0
    9.3679  -16.5396   25.5311 C   0  0  0  0  0  0  0  0  0  0  0  0
    9.1599  -17.8909   25.1475 O   0  0  0  0  0  0  0  0  0  0  0  0
    9.3051  -16.3301   26.7358 O   0  0  0  0  0  0  0  0  0  0  0  0
  2  1  1  0
  3  2  1  0
  3  4  1  6
  5  6  2  0
  5  3  1  0
  7  8  1  0
  8 10  1  0
  9  8  2  0
 11 10  1  6
 11 12  1  0
 12  5  1  0
 13 11  1  0
 13 23  1  0
 14 13  2  0
 16 17  2  0
 16 15  1  0
 18 16  1  0
 19 18  1  0
 20 19  1  0
 22 21  1  6
 21 20  1  0
 22 23  1  0
 22 24  1  0
 24 25  1  0
 26 24  2  0
M  END
$$$$
