SNR.pdb
     RDKit          3D

 26 25  0  0  1  0  0  0  0  0999 V2000
   16.0634  -15.4569   16.6419 O   0  0  0  0  0  0  0  0  0  0  0  0
   16.1920  -16.6263   17.4021 C   0  0  0  0  0  0  0  0  0  0  0  0
   15.2158  -17.6313   16.8334 C   0  0  2  0  0  0  0  0  0  0  0  0
   15.0038  -17.3440   15.4222 N   0  0  0  0  0  0  0  0  0  0  0  0
   13.9248  -17.6263   17.5607 C   0  0  0  0  0  0  0  0  0  0  0  0
   12.8657  -17.7641   16.9242 O   0  0  0  0  0  0  0  0  0  0  0  0
   10.5796  -20.5017   20.4997 N   0  0  0  0  0  0  0  0  0  0  0  0
   11.9366  -20.2377   20.6975 C   0  0  0  0  0  0  0  0  0  0  0  0
   12.4197  -20.5505   21.8446 O   0  0  0  0  0  0  0  0  0  0  0  0
   12.8620  -19.6255   19.6858 C   0  0  0  0  0  0  0  0  0  0  0  0
   12.8698  -18.1211   19.8157 C   0  0  2  0  0  0  0  0  0  0  0  0
   13.8232  -17.4709   18.9717 N   0  0  0  0  0  0  0  0  0  0  0  0
   13.1767  -17.7475   21.2463 C   0  0  0  0  0  0  0  0  0  0  0  0
   13.5732  -18.6413   22.0541 O   0  0  0  0  0  0  0  0  0  0  0  0
    6.6587  -13.9023   18.7975 N   0  0  0  0  0  0  0  0  0  0  0  0
    7.8025  -13.2787   19.3806 C   0  0  0  0  0  0  0  0  0  0  0  0
    8.1068  -12.0699   19.0519 N   0  0  0  0  0  0  0  0  0  0  0  0
    8.6388  -13.9295   20.3202 N   0  0  0  0  0  0  0  0  0  0  0  0
    8.3029  -15.2848   20.8217 C   0  0  0  0  0  0  0  0  0  0  0  0
    9.3143  -15.6227   21.8398 C   0  0  0  0  0  0  0  0  0  0  0  0
   10.7053  -15.8799   21.4655 C   0  0  0  0  0  0  0  0  0  0  0  0
   11.8005  -15.9474   22.4316 C   0  0  2  0  0  0  0  0  0  0  0  0
   13.0392  -16.4370   21.7188 N   0  0  0  0  0  0  0  0  0  0  0  0
   11.6071  -16.9086   23.5581 C   0  0  0  0  0  0  0  0  0  0  0  0
   12.3640  -16.6561   24.7327 O   0  0  0  0  0  0  0  0  0  0  0  0
   10.8795  -17.8917   23.6150 O   0  0  0  0  0  0  0  0  0  0  0  0
  2  1  1  0
  3  2  1  0
  3  4  1  6
  5  6  2  0
  5  3  1  0
  7  8  1  0
  8 10  1  0
  9  8  2  0
 11 10  1  1
 11 12  1  0
 12  5  1  0
 13 11  1  0
 13 23  1  0
 14 13  2  0
 16 17  2  0
 16 15  1  0
 18 16  1  0
 19 18  1  0
 20 19  1  0
 22 21  1  6
 21 20  1  0
 22 23  1  0
 22 24  1  0
 24 25  1  0
 26 24  2  0
M  END
$$$$
