SNR.pdb
     RDKit          3D

 26 25  0  0  1  0  0  0  0  0999 V2000
   11.6120  -19.1061   18.2843 O   0  0  0  0  0  0  0  0  0  0  0  0
   10.3416  -19.3272   17.7375 C   0  0  0  0  0  0  0  0  0  0  0  0
    9.9753  -20.7628   18.0403 C   0  0  2  0  0  0  0  0  0  0  0  0
    8.6879  -21.0647   17.4317 N   0  0  0  0  0  0  0  0  0  0  0  0
    9.9331  -21.0311   19.4969 C   0  0  0  0  0  0  0  0  0  0  0  0
    8.8726  -20.8497   20.1199 O   0  0  0  0  0  0  0  0  0  0  0  0
   10.3752  -23.2624   24.4190 N   0  0  0  0  0  0  0  0  0  0  0  0
   11.4791  -23.2176   23.5646 C   0  0  0  0  0  0  0  0  0  0  0  0
   12.6350  -23.2792   24.1187 O   0  0  0  0  0  0  0  0  0  0  0  0
   11.4194  -23.1055   22.0685 C   0  0  0  0  0  0  0  0  0  0  0  0
   11.0960  -21.6896   21.6549 C   0  0  2  0  0  0  0  0  0  0  0  0
   11.0557  -21.4936   20.2393 N   0  0  0  0  0  0  0  0  0  0  0  0
   12.1334  -20.7549   22.2296 C   0  0  0  0  0  0  0  0  0  0  0  0
   13.2671  -20.6593   21.6689 O   0  0  0  0  0  0  0  0  0  0  0  0
   10.5229  -14.4702   19.9809 N   0  0  0  0  0  0  0  0  0  0  0  0
   11.9485  -14.5008   19.9205 C   0  0  0  0  0  0  0  0  0  0  0  0
   12.5518  -14.0618   18.8692 N   0  0  0  0  0  0  0  0  0  0  0  0
   12.7530  -14.9976   20.9749 N   0  0  0  0  0  0  0  0  0  0  0  0
   12.1343  -15.5171   22.2192 C   0  0  0  0  0  0  0  0  0  0  0  0
   12.7782  -16.8126   22.5039 C   0  0  0  0  0  0  0  0  0  0  0  0
   12.3579  -17.6302   23.6423 C   0  0  0  0  0  0  0  0  0  0  0  0
   12.8758  -18.9718   23.9056 C   0  0  2  0  0  0  0  0  0  0  0  0
   11.8875  -19.9810   23.3698 N   0  0  0  0  0  0  0  0  0  0  0  0
   13.0370  -19.3284   25.3469 C   0  0  0  0  0  0  0  0  0  0  0  0
   14.2504  -18.9193   25.9605 O   0  0  0  0  0  0  0  0  0  0  0  0
   12.2630  -19.9267   26.0833 O   0  0  0  0  0  0  0  0  0  0  0  0
  2  1  1  0
  3  2  1  0
  3  4  1  1
  5  6  2  0
  5  3  1  0
  7  8  1  0
  8 10  1  0
  9  8  2  0
 11 10  1  6
 11 12  1  0
 12  5  1  0
 13 11  1  0
 13 23  1  0
 14 13  2  0
 16 17  2  0
 16 15  1  0
 18 16  1  0
 19 18  1  0
 20 19  1  0
 22 21  1  1
 21 20  1  0
 22 23  1  0
 22 24  1  0
 24 25  1  0
 26 24  2  0
M  END
$$$$
