WMS.pdb
     RDKit          3D

 29 30  0  0  1  0  0  0  0  0999 V2000
   22.7685  -17.7421  -18.7106 N   0  0  0  0  0  0  0  0  0  0  0  0
   22.5133  -17.4520  -17.3295 C   0  0  1  0  0  0  0  0  0  0  0  0
   21.1690  -16.7264  -17.2557 C   0  0  0  0  0  0  0  0  0  0  0  0
   21.2072  -15.3822  -17.8255 C   0  0  0  0  0  0  0  0  0  0  0  0
   22.1415  -14.3916  -17.6293 C   0  0  0  0  0  0  0  0  0  0  0  0
   21.8053  -13.3118  -18.3382 N   0  0  0  0  0  0  0  0  0  0  0  0
   20.6527  -13.5454  -19.0195 C   0  0  0  0  0  0  0  0  0  0  0  0
   19.8835  -12.7790  -19.8841 C   0  0  0  0  0  0  0  0  0  0  0  0
   18.7400  -13.3567  -20.4063 C   0  0  0  0  0  0  0  0  0  0  0  0
   18.3388  -14.6420  -20.1085 C   0  0  0  0  0  0  0  0  0  0  0  0
   19.1248  -15.3761  -19.2468 C   0  0  0  0  0  0  0  0  0  0  0  0
   20.2821  -14.8475  -18.6933 C   0  0  0  0  0  0  0  0  0  0  0  0
   22.3447  -18.6933  -16.5317 C   0  0  0  0  0  0  0  0  0  0  0  0
   21.6275  -19.5908  -17.0326 O   0  0  0  0  0  0  0  0  0  0  0  0
   24.9062  -24.4781  -13.0299 C   0  0  0  0  0  0  0  0  0  0  0  0
   24.8086  -22.9448  -13.9715 S   0  0  0  0  0  0  0  0  0  0  0  0
   24.1826  -21.6101  -12.9297 C   0  0  0  0  0  0  0  0  0  0  0  0
   24.0531  -20.3142  -13.6271 C   0  0  0  0  0  0  0  0  0  0  0  0
   22.8731  -20.1338  -14.5361 C   0  0  2  0  0  0  0  0  0  0  0  0
   22.9485  -18.9025  -15.2534 N   0  0  0  0  0  0  0  0  0  0  0  0
   21.5837  -20.2947  -13.8151 C   0  0  0  0  0  0  0  0  0  0  0  0
   21.2298  -19.5383  -12.8727 O   0  0  0  0  0  0  0  0  0  0  0  0
   18.9924  -22.7231  -15.4911 O   0  0  0  0  0  0  0  0  0  0  0  0
   18.4068  -21.8580  -14.5544 C   0  0  0  0  0  0  0  0  0  0  0  0
   19.4298  -21.5555  -13.4782 C   0  0  2  0  0  0  0  0  0  0  0  0
   20.6962  -21.3290  -14.1777 N   0  0  0  0  0  0  0  0  0  0  0  0
   19.5365  -22.7898  -12.6366 C   0  0  0  0  0  0  0  0  0  0  0  0
   20.5620  -23.4869  -12.5944 O   0  0  0  0  0  0  0  0  0  0  0  0
   18.4232  -23.1386  -11.8858 O   0  0  0  0  0  0  0  0  0  0  0  0
  2  1  1  6
  2  3  1  0
  2 13  1  0
  3  4  1  0
  4 12  1  0
  4  5  2  0
  5  6  1  0
  7  8  2  0
  7  6  1  0
  9  8  1  0
 10  9  2  0
 11 10  1  0
 11 12  2  0
 12  7  1  0
 13 20  1  0
 14 13  2  0
 16 17  1  0
 16 15  1  0
 18 17  1  0
 19 18  1  1
 20 19  1  0
 21 22  2  0
 21 19  1  0
 23 24  1  0
 25 24  1  6
 25 27  1  0
 25 26  1  0
 26 21  1  0
 27 29  1  0
 28 27  2  0
M  END
$$$$
