WMS.pdb
     RDKit          3D

 29 30  0  0  1  0  0  0  0  0999 V2000
   19.5099  -26.7610  -10.3876 N   0  0  0  0  0  0  0  0  0  0  0  0
   18.8750  -25.5945   -9.8463 C   0  0  1  0  0  0  0  0  0  0  0  0
   18.1630  -24.8853  -10.9991 C   0  0  0  0  0  0  0  0  0  0  0  0
   19.0435  -24.0125  -11.7710 C   0  0  0  0  0  0  0  0  0  0  0  0
   19.3648  -22.6947  -11.5409 C   0  0  0  0  0  0  0  0  0  0  0  0
   20.2064  -22.2673  -12.4846 N   0  0  0  0  0  0  0  0  0  0  0  0
   20.4688  -23.2724  -13.3609 C   0  0  0  0  0  0  0  0  0  0  0  0
   21.2587  -23.3643  -14.4987 C   0  0  0  0  0  0  0  0  0  0  0  0
   21.2884  -24.5788  -15.1607 C   0  0  0  0  0  0  0  0  0  0  0  0
   20.5774  -25.6844  -14.7441 C   0  0  0  0  0  0  0  0  0  0  0  0
   19.8031  -25.5597  -13.6110 C   0  0  0  0  0  0  0  0  0  0  0  0
   19.7354  -24.3659  -12.9073 C   0  0  0  0  0  0  0  0  0  0  0  0
   17.8100  -25.9523   -8.8750 C   0  0  0  0  0  0  0  0  0  0  0  0
   17.0429  -26.8884   -9.2007 O   0  0  0  0  0  0  0  0  0  0  0  0
   19.8271  -27.6513   -2.8310 C   0  0  0  0  0  0  0  0  0  0  0  0
   18.5167  -26.4635   -3.1757 S   0  0  0  0  0  0  0  0  0  0  0  0
   18.0221  -26.5637   -4.9089 C   0  0  0  0  0  0  0  0  0  0  0  0
   16.9983  -25.5728   -5.2996 C   0  0  0  0  0  0  0  0  0  0  0  0
   16.5472  -25.5732   -6.7307 C   0  0  2  0  0  0  0  0  0  0  0  0
   17.6276  -25.2936   -7.6199 N   0  0  0  0  0  0  0  0  0  0  0  0
   15.3832  -24.6756   -6.9489 C   0  0  0  0  0  0  0  0  0  0  0  0
   15.5045  -23.4409   -7.1641 O   0  0  0  0  0  0  0  0  0  0  0  0
   11.9214  -26.4766   -6.6996 O   0  0  0  0  0  0  0  0  0  0  0  0
   11.7590  -25.3098   -7.4618 C   0  0  0  0  0  0  0  0  0  0  0  0
   12.8911  -24.3594   -7.1279 C   0  0  2  0  0  0  0  0  0  0  0  0
   14.0735  -25.1979   -6.9199 N   0  0  0  0  0  0  0  0  0  0  0  0
   12.5177  -23.6921   -5.8402 C   0  0  0  0  0  0  0  0  0  0  0  0
   13.1121  -23.9114   -4.7734 O   0  0  0  0  0  0  0  0  0  0  0  0
   11.4583  -22.7970   -5.8784 O   0  0  0  0  0  0  0  0  0  0  0  0
  2  1  1  6
  2  3  1  0
  2 13  1  0
  3  4  1  0
  4 12  1  0
  4  5  2  0
  5  6  1  0
  7  8  2  0
  7  6  1  0
  9  8  1  0
 10  9  2  0
 11 10  1  0
 11 12  2  0
 12  7  1  0
 13 20  1  0
 14 13  2  0
 16 17  1  0
 16 15  1  0
 18 17  1  0
 19 18  1  1
 20 19  1  0
 21 22  2  0
 21 19  1  0
 23 24  1  0
 25 24  1  1
 25 27  1  0
 25 26  1  0
 26 21  1  0
 27 29  1  0
 28 27  2  0
M  END
$$$$
