WMS.pdb
     RDKit          3D

 29 30  0  0  1  0  0  0  0  0999 V2000
   25.6881  -39.6059   -7.6547 N   0  0  0  0  0  0  0  0  0  0  0  0
   25.1637  -39.2163   -6.3780 C   0  0  1  0  0  0  0  0  0  0  0  0
   25.0304  -40.4839   -5.5327 C   0  0  0  0  0  0  0  0  0  0  0  0
   23.9394  -41.3532   -5.9651 C   0  0  0  0  0  0  0  0  0  0  0  0
   23.9491  -42.3255   -6.9384 C   0  0  0  0  0  0  0  0  0  0  0  0
   22.7425  -42.8905   -7.0195 N   0  0  0  0  0  0  0  0  0  0  0  0
   21.9026  -42.3206   -6.1157 C   0  0  0  0  0  0  0  0  0  0  0  0
   20.5694  -42.5278   -5.7894 C   0  0  0  0  0  0  0  0  0  0  0  0
   20.0258  -41.7420   -4.7888 C   0  0  0  0  0  0  0  0  0  0  0  0
   20.7419  -40.7769   -4.1126 C   0  0  0  0  0  0  0  0  0  0  0  0
   22.0631  -40.5964   -4.4607 C   0  0  0  0  0  0  0  0  0  0  0  0
   22.6603  -41.3558   -5.4566 C   0  0  0  0  0  0  0  0  0  0  0  0
   26.1104  -38.3399   -5.6421 C   0  0  0  0  0  0  0  0  0  0  0  0
   27.3281  -38.4856   -5.8998 O   0  0  0  0  0  0  0  0  0  0  0  0
   25.3284  -32.2354   -5.1429 C   0  0  0  0  0  0  0  0  0  0  0  0
   26.3680  -32.3427   -3.6751 S   0  0  0  0  0  0  0  0  0  0  0  0
   26.9903  -34.0250   -3.4714 C   0  0  0  0  0  0  0  0  0  0  0  0
   26.1147  -35.0637   -4.0521 C   0  0  0  0  0  0  0  0  0  0  0  0
   26.6084  -36.4802   -4.0204 C   0  0  2  0  0  0  0  0  0  0  0  0
   25.7035  -37.3647   -4.6799 N   0  0  0  0  0  0  0  0  0  0  0  0
   26.9367  -36.9257   -2.6412 C   0  0  0  0  0  0  0  0  0  0  0  0
   26.0569  -37.2563   -1.8033 O   0  0  0  0  0  0  0  0  0  0  0  0
   30.7255  -36.4363   -1.5218 O   0  0  0  0  0  0  0  0  0  0  0  0
   30.1663  -37.5526   -0.8816 C   0  0  0  0  0  0  0  0  0  0  0  0
   28.6599  -37.3887   -0.8640 C   0  0  2  0  0  0  0  0  0  0  0  0
   28.2816  -36.9921   -2.2219 N   0  0  0  0  0  0  0  0  0  0  0  0
   28.3671  -36.2677    0.0850 C   0  0  0  0  0  0  0  0  0  0  0  0
   27.9942  -35.1469   -0.2947 O   0  0  0  0  0  0  0  0  0  0  0  0
   28.5301  -36.5286    1.4379 O   0  0  0  0  0  0  0  0  0  0  0  0
  2  1  1  6
  2  3  1  0
  2 13  1  0
  3  4  1  0
  4 12  1  0
  4  5  2  0
  5  6  1  0
  7  8  2  0
  7  6  1  0
  9  8  1  0
 10  9  2  0
 11 10  1  0
 11 12  2  0
 12  7  1  0
 13 20  1  0
 14 13  2  0
 16 17  1  0
 16 15  1  0
 18 17  1  0
 19 18  1  1
 20 19  1  0
 21 22  2  0
 21 19  1  0
 23 24  1  0
 25 24  1  6
 25 27  1  0
 25 26  1  0
 26 21  1  0
 27 29  1  0
 28 27  2  0
M  END
$$$$
