WMS.pdb
     RDKit          3D

 29 30  0  0  1  0  0  0  0  0999 V2000
   26.7176  -21.6582  -14.2252 N   0  0  0  0  0  0  0  0  0  0  0  0
   26.9569  -20.6632  -13.2205 C   0  0  1  0  0  0  0  0  0  0  0  0
   26.0167  -19.4910  -13.5052 C   0  0  0  0  0  0  0  0  0  0  0  0
   26.3992  -18.7182  -14.6839 C   0  0  0  0  0  0  0  0  0  0  0  0
   25.5880  -18.1289  -15.6259 C   0  0  0  0  0  0  0  0  0  0  0  0
   26.3389  -17.5146  -16.5427 N   0  0  0  0  0  0  0  0  0  0  0  0
   27.6554  -17.6729  -16.2448 C   0  0  0  0  0  0  0  0  0  0  0  0
   28.8288  -17.2478  -16.8524 C   0  0  0  0  0  0  0  0  0  0  0  0
   30.0245  -17.6039  -16.2543 C   0  0  0  0  0  0  0  0  0  0  0  0
   30.0981  -18.3515  -15.0980 C   0  0  0  0  0  0  0  0  0  0  0  0
   28.9148  -18.7576  -14.5200 C   0  0  0  0  0  0  0  0  0  0  0  0
   27.6867  -18.4297  -15.0762 C   0  0  0  0  0  0  0  0  0  0  0  0
   26.5906  -21.1532  -11.8671 C   0  0  0  0  0  0  0  0  0  0  0  0
   25.7289  -22.0615  -11.8119 O   0  0  0  0  0  0  0  0  0  0  0  0
   27.5805  -20.3315   -3.9868 C   0  0  0  0  0  0  0  0  0  0  0  0
   28.2495  -20.0747   -5.6401 S   0  0  0  0  0  0  0  0  0  0  0  0
   27.0135  -20.4952   -6.8868 C   0  0  0  0  0  0  0  0  0  0  0  0
   27.5006  -20.3830   -8.2771 C   0  0  0  0  0  0  0  0  0  0  0  0
   26.5740  -20.8250   -9.3715 C   0  0  2  0  0  0  0  0  0  0  0  0
   27.1628  -20.6476  -10.6591 N   0  0  0  0  0  0  0  0  0  0  0  0
   25.2375  -20.1845   -9.2633 C   0  0  0  0  0  0  0  0  0  0  0  0
   25.0853  -18.9424   -9.1233 O   0  0  0  0  0  0  0  0  0  0  0  0
   22.3537  -21.6916  -11.0583 O   0  0  0  0  0  0  0  0  0  0  0  0
   22.0384  -20.4683  -10.4477 C   0  0  0  0  0  0  0  0  0  0  0  0
   22.7345  -20.4119   -9.1029 C   0  0  2  0  0  0  0  0  0  0  0  0
   24.0699  -20.9737   -9.3162 N   0  0  0  0  0  0  0  0  0  0  0  0
   21.9565  -21.3044   -8.1858 C   0  0  0  0  0  0  0  0  0  0  0  0
   22.4590  -22.2876   -7.6199 O   0  0  0  0  0  0  0  0  0  0  0  0
   20.6206  -20.9890   -7.9832 O   0  0  0  0  0  0  0  0  0  0  0  0
  2  1  1  6
  2  3  1  0
  2 13  1  0
  3  4  1  0
  4 12  1  0
  4  5  2  0
  5  6  1  0
  7  8  2  0
  7  6  1  0
  9  8  1  0
 10  9  2  0
 11 10  1  0
 11 12  2  0
 12  7  1  0
 13 20  1  0
 14 13  2  0
 16 17  1  0
 16 15  1  0
 18 17  1  0
 19 18  1  1
 20 19  1  0
 21 22  2  0
 21 19  1  0
 23 24  1  0
 25 24  1  6
 25 27  1  0
 25 26  1  0
 26 21  1  0
 27 29  1  0
 28 27  2  0
M  END
$$$$
