WMS.pdb
     RDKit          3D

 29 30  0  0  1  0  0  0  0  0999 V2000
   23.6265  -18.7822  -15.5183 N   0  0  0  0  0  0  0  0  0  0  0  0
   24.1934  -20.0072  -15.0337 C   0  0  1  0  0  0  0  0  0  0  0  0
   25.4750  -19.6507  -14.2792 C   0  0  0  0  0  0  0  0  0  0  0  0
   26.4486  -18.9370  -15.1013 C   0  0  0  0  0  0  0  0  0  0  0  0
   26.5580  -17.5839  -15.3243 C   0  0  0  0  0  0  0  0  0  0  0  0
   27.5879  -17.3458  -16.1392 N   0  0  0  0  0  0  0  0  0  0  0  0
   28.1888  -18.5161  -16.4802 C   0  0  0  0  0  0  0  0  0  0  0  0
   29.2766  -18.8317  -17.2827 C   0  0  0  0  0  0  0  0  0  0  0  0
   29.6152  -20.1675  -17.4054 C   0  0  0  0  0  0  0  0  0  0  0  0
   28.9281  -21.1825  -16.7737 C   0  0  0  0  0  0  0  0  0  0  0  0
   27.8532  -20.8354  -15.9843 C   0  0  0  0  0  0  0  0  0  0  0  0
   27.4686  -19.5118  -15.8251 C   0  0  0  0  0  0  0  0  0  0  0  0
   23.3089  -20.6627  -14.0369 C   0  0  0  0  0  0  0  0  0  0  0  0
   23.7164  -21.7417  -13.5467 O   0  0  0  0  0  0  0  0  0  0  0  0
   20.7711  -20.8080   -7.6646 C   0  0  0  0  0  0  0  0  0  0  0  0
   19.8741  -19.9110   -8.9444 S   0  0  0  0  0  0  0  0  0  0  0  0
   19.9955  -20.7825  -10.5206 C   0  0  0  0  0  0  0  0  0  0  0  0
   20.8843  -20.1273  -11.5022 C   0  0  0  0  0  0  0  0  0  0  0  0
   21.1230  -20.8395  -12.8011 C   0  0  2  0  0  0  0  0  0  0  0  0
   22.0483  -20.1307  -13.6242 N   0  0  0  0  0  0  0  0  0  0  0  0
   19.8535  -21.1501  -13.5085 C   0  0  0  0  0  0  0  0  0  0  0  0
   19.2952  -20.3410  -14.2954 O   0  0  0  0  0  0  0  0  0  0  0  0
   19.0490  -24.6992  -14.8645 O   0  0  0  0  0  0  0  0  0  0  0  0
   17.9772  -24.2798  -14.0620 C   0  0  0  0  0  0  0  0  0  0  0  0
   17.9864  -22.7656  -14.0052 C   0  0  2  0  0  0  0  0  0  0  0  0
   19.2220  -22.3956  -13.3116 N   0  0  0  0  0  0  0  0  0  0  0  0
   16.8066  -22.3659  -13.1738 C   0  0  0  0  0  0  0  0  0  0  0  0
   15.6506  -22.3288  -13.6228 O   0  0  0  0  0  0  0  0  0  0  0  0
   17.0532  -22.0295  -11.8505 O   0  0  0  0  0  0  0  0  0  0  0  0
  2  1  1  1
  2  3  1  0
  2 13  1  0
  3  4  1  0
  4 12  1  0
  4  5  2  0
  5  6  1  0
  7  8  2  0
  7  6  1  0
  9  8  1  0
 10  9  2  0
 11 10  1  0
 11 12  2  0
 12  7  1  0
 13 20  1  0
 14 13  2  0
 16 17  1  0
 16 15  1  0
 18 17  1  0
 19 18  1  1
 20 19  1  0
 21 22  2  0
 21 19  1  0
 23 24  1  0
 25 24  1  1
 25 27  1  0
 25 26  1  0
 26 21  1  0
 27 29  1  0
 28 27  2  0
M  END
$$$$
