WMS.pdb
     RDKit          3D

 29 30  0  0  1  0  0  0  0  0999 V2000
   27.8944  -20.4810  -10.8297 N   0  0  0  0  0  0  0  0  0  0  0  0
   26.6958  -21.0585  -10.2942 C   0  0  1  0  0  0  0  0  0  0  0  0
   26.6254  -20.6756   -8.8152 C   0  0  0  0  0  0  0  0  0  0  0  0
   27.9126  -20.7733   -8.1323 C   0  0  0  0  0  0  0  0  0  0  0  0
   29.0817  -21.3445   -8.5792 C   0  0  0  0  0  0  0  0  0  0  0  0
   30.0272  -21.2194   -7.6455 N   0  0  0  0  0  0  0  0  0  0  0  0
   29.5252  -20.5700   -6.5623 C   0  0  0  0  0  0  0  0  0  0  0  0
   30.0676  -20.1881   -5.3429 C   0  0  0  0  0  0  0  0  0  0  0  0
   29.2405  -19.5245   -4.4543 C   0  0  0  0  0  0  0  0  0  0  0  0
   27.9206  -19.2310   -4.7252 C   0  0  0  0  0  0  0  0  0  0  0  0
   27.4131  -19.6239   -5.9447 C   0  0  0  0  0  0  0  0  0  0  0  0
   28.1967  -20.2925   -6.8742 C   0  0  0  0  0  0  0  0  0  0  0  0
   25.4812  -20.4754  -10.9190 C   0  0  0  0  0  0  0  0  0  0  0  0
   25.1599  -19.3204  -10.5537 O   0  0  0  0  0  0  0  0  0  0  0  0
   26.3402  -19.2551  -17.0033 C   0  0  0  0  0  0  0  0  0  0  0  0
   24.8209  -19.9980  -16.3812 S   0  0  0  0  0  0  0  0  0  0  0  0
   24.8280  -20.0173  -14.5761 C   0  0  0  0  0  0  0  0  0  0  0  0
   23.6000  -20.5790  -13.9767 C   0  0  0  0  0  0  0  0  0  0  0  0
   23.5096  -20.6002  -12.4791 C   0  0  2  0  0  0  0  0  0  0  0  0
   24.6854  -21.1558  -11.8918 N   0  0  0  0  0  0  0  0  0  0  0  0
   22.2677  -21.2641  -12.0046 C   0  0  0  0  0  0  0  0  0  0  0  0
   22.2101  -21.9140  -10.9276 O   0  0  0  0  0  0  0  0  0  0  0  0
   18.4369  -19.6841  -10.8188 O   0  0  0  0  0  0  0  0  0  0  0  0
   19.6572  -19.7581  -11.5072 C   0  0  0  0  0  0  0  0  0  0  0  0
   19.7578  -21.1237  -12.1564 C   0  0  2  0  0  0  0  0  0  0  0  0
   21.0862  -21.1816  -12.7701 N   0  0  0  0  0  0  0  0  0  0  0  0
   18.7101  -21.1622  -13.2258 C   0  0  0  0  0  0  0  0  0  0  0  0
   18.8797  -20.6654  -14.3500 O   0  0  0  0  0  0  0  0  0  0  0  0
   17.5120  -21.7877  -12.9119 O   0  0  0  0  0  0  0  0  0  0  0  0
  2  1  1  6
  2  3  1  0
  2 13  1  0
  3  4  1  0
  4 12  1  0
  4  5  2  0
  5  6  1  0
  7  8  2  0
  7  6  1  0
  9  8  1  0
 10  9  2  0
 11 10  1  0
 11 12  2  0
 12  7  1  0
 13 20  1  0
 14 13  2  0
 16 17  1  0
 16 15  1  0
 18 17  1  0
 19 18  1  6
 20 19  1  0
 21 22  2  0
 21 19  1  0
 23 24  1  0
 25 24  1  6
 25 27  1  0
 25 26  1  0
 26 21  1  0
 27 29  1  0
 28 27  2  0
M  END
$$$$
