WMS.pdb
     RDKit          3D

 29 30  0  0  1  0  0  0  0  0999 V2000
   24.5318  -20.6652  -14.6980 N   0  0  0  0  0  0  0  0  0  0  0  0
   24.7211  -19.8749  -13.5163 C   0  0  1  0  0  0  0  0  0  0  0  0
   23.6059  -18.8288  -13.4826 C   0  0  0  0  0  0  0  0  0  0  0  0
   23.6480  -17.9046  -14.6126 C   0  0  0  0  0  0  0  0  0  0  0  0
   22.6188  -17.4994  -15.4306 C   0  0  0  0  0  0  0  0  0  0  0  0
   23.0825  -16.6436  -16.3440 N   0  0  0  0  0  0  0  0  0  0  0  0
   24.4165  -16.4542  -16.1660 C   0  0  0  0  0  0  0  0  0  0  0  0
   25.3668  -15.6845  -16.8227 C   0  0  0  0  0  0  0  0  0  0  0  0
   26.6678  -15.7378  -16.3553 C   0  0  0  0  0  0  0  0  0  0  0  0
   27.0539  -16.5114  -15.2810 C   0  0  0  0  0  0  0  0  0  0  0  0
   26.0861  -17.2636  -14.6512 C   0  0  0  0  0  0  0  0  0  0  0  0
   24.7657  -17.2489  -15.0771 C   0  0  0  0  0  0  0  0  0  0  0  0
   24.5501  -20.6850  -12.2833 C   0  0  0  0  0  0  0  0  0  0  0  0
   23.6462  -21.5529  -12.3013 O   0  0  0  0  0  0  0  0  0  0  0  0
   27.1322  -18.7454   -5.5810 C   0  0  0  0  0  0  0  0  0  0  0  0
   26.8975  -20.2998   -6.4617 S   0  0  0  0  0  0  0  0  0  0  0  0
   26.5693  -19.9851   -8.2086 C   0  0  0  0  0  0  0  0  0  0  0  0
   26.3248  -21.2064   -9.0033 C   0  0  0  0  0  0  0  0  0  0  0  0
   25.1143  -21.2229   -9.8898 C   0  0  2  0  0  0  0  0  0  0  0  0
   25.3499  -20.5219  -11.1102 N   0  0  0  0  0  0  0  0  0  0  0  0
   23.8986  -20.7428   -9.1829 C   0  0  0  0  0  0  0  0  0  0  0  0
   23.6942  -19.5274   -8.9253 O   0  0  0  0  0  0  0  0  0  0  0  0
   20.9362  -23.2787   -8.9340 O   0  0  0  0  0  0  0  0  0  0  0  0
   20.5556  -21.9617   -8.6352 C   0  0  0  0  0  0  0  0  0  0  0  0
   21.7358  -21.2557   -7.9988 C   0  0  2  0  0  0  0  0  0  0  0  0
   22.9125  -21.6626   -8.7697 N   0  0  0  0  0  0  0  0  0  0  0  0
   21.8439  -21.7863   -6.6025 C   0  0  0  0  0  0  0  0  0  0  0  0
   22.8348  -22.4138   -6.1976 O   0  0  0  0  0  0  0  0  0  0  0  0
   20.7730  -21.5479   -5.7532 O   0  0  0  0  0  0  0  0  0  0  0  0
  2  1  1  6
  2  3  1  0
  2 13  1  0
  3  4  1  0
  4 12  1  0
  4  5  2  0
  5  6  1  0
  7  8  2  0
  7  6  1  0
  9  8  1  0
 10  9  2  0
 11 10  1  0
 11 12  2  0
 12  7  1  0
 13 20  1  0
 14 13  2  0
 16 17  1  0
 16 15  1  0
 18 17  1  0
 19 18  1  1
 20 19  1  0
 21 22  2  0
 21 19  1  0
 23 24  1  0
 25 24  1  6
 25 27  1  0
 25 26  1  0
 26 21  1  0
 27 29  1  0
 28 27  2  0
M  END
$$$$
