WMS.pdb
     RDKit          3D

 29 30  0  0  1  0  0  0  0  0999 V2000
   20.1864  -21.0774  -11.8323 N   0  0  0  0  0  0  0  0  0  0  0  0
   19.9732  -22.1695  -12.7371 C   0  0  1  0  0  0  0  0  0  0  0  0
   21.1627  -22.2061  -13.6976 C   0  0  0  0  0  0  0  0  0  0  0  0
   21.3297  -20.9692  -14.4560 C   0  0  0  0  0  0  0  0  0  0  0  0
   21.9331  -19.7962  -14.0655 C   0  0  0  0  0  0  0  0  0  0  0  0
   21.8736  -18.9086  -15.0606 N   0  0  0  0  0  0  0  0  0  0  0  0
   21.2377  -19.4545  -16.1306 C   0  0  0  0  0  0  0  0  0  0  0  0
   20.9145  -18.9778  -17.3935 C   0  0  0  0  0  0  0  0  0  0  0  0
   20.2456  -19.8347  -18.2492 C   0  0  0  0  0  0  0  0  0  0  0  0
   19.8922  -21.1225  -17.9053 C   0  0  0  0  0  0  0  0  0  0  0  0
   20.2278  -21.5649  -16.6440 C   0  0  0  0  0  0  0  0  0  0  0  0
   20.8986  -20.7488  -15.7445 C   0  0  0  0  0  0  0  0  0  0  0  0
   19.9864  -23.4758  -12.0305 C   0  0  0  0  0  0  0  0  0  0  0  0
   21.0463  -23.7836  -11.4369 O   0  0  0  0  0  0  0  0  0  0  0  0
   20.6014  -22.9591   -6.2509 C   0  0  0  0  0  0  0  0  0  0  0  0
   19.1379  -23.0436   -7.2986 S   0  0  0  0  0  0  0  0  0  0  0  0
   19.4001  -24.2166   -8.6455 C   0  0  0  0  0  0  0  0  0  0  0  0
   18.3153  -24.2318   -9.6484 C   0  0  0  0  0  0  0  0  0  0  0  0
   18.4933  -25.1194  -10.8450 C   0  0  2  0  0  0  0  0  0  0  0  0
   18.8733  -24.3717  -11.9994 N   0  0  0  0  0  0  0  0  0  0  0  0
   17.3023  -25.9746  -11.0871 C   0  0  0  0  0  0  0  0  0  0  0  0
   16.2010  -25.5135  -11.4869 O   0  0  0  0  0  0  0  0  0  0  0  0
   17.8255  -29.5887   -9.9180 O   0  0  0  0  0  0  0  0  0  0  0  0
   16.7221  -29.6524  -10.7823 C   0  0  0  0  0  0  0  0  0  0  0  0
   16.2127  -28.2438  -11.0118 C   0  0  2  0  0  0  0  0  0  0  0  0
   17.3761  -27.3660  -10.8694 N   0  0  0  0  0  0  0  0  0  0  0  0
   15.2357  -27.9626   -9.9120 C   0  0  0  0  0  0  0  0  0  0  0  0
   15.4620  -27.1461   -9.0056 O   0  0  0  0  0  0  0  0  0  0  0  0
   14.0379  -28.6622   -9.9391 O   0  0  0  0  0  0  0  0  0  0  0  0
  2  1  1  1
  2  3  1  0
  2 13  1  0
  3  4  1  0
  4 12  1  0
  4  5  2  0
  5  6  1  0
  7  8  2  0
  7  6  1  0
  9  8  1  0
 10  9  2  0
 11 10  1  0
 11 12  2  0
 12  7  1  0
 13 20  1  0
 14 13  2  0
 16 17  1  0
 16 15  1  0
 18 17  1  0
 19 18  1  1
 20 19  1  0
 21 22  2  0
 21 19  1  0
 23 24  1  0
 25 24  1  1
 25 27  1  0
 25 26  1  0
 26 21  1  0
 27 29  1  0
 28 27  2  0
M  END
$$$$
