WMS.pdb
     RDKit          3D

 29 30  0  0  1  0  0  0  0  0999 V2000
   24.3875  -19.5776  -14.7259 N   0  0  0  0  0  0  0  0  0  0  0  0
   23.8050  -20.8538  -14.4275 C   0  0  1  0  0  0  0  0  0  0  0  0
   24.8941  -21.7142  -13.7851 C   0  0  0  0  0  0  0  0  0  0  0  0
   25.8095  -22.3061  -14.7571 C   0  0  0  0  0  0  0  0  0  0  0  0
   26.9116  -21.7404  -15.3553 C   0  0  0  0  0  0  0  0  0  0  0  0
   27.4746  -22.6229  -16.1834 N   0  0  0  0  0  0  0  0  0  0  0  0
   26.7753  -23.7881  -16.1634 C   0  0  0  0  0  0  0  0  0  0  0  0
   26.9249  -25.0019  -16.8200 C   0  0  0  0  0  0  0  0  0  0  0  0
   26.0000  -25.9945  -16.5488 C   0  0  0  0  0  0  0  0  0  0  0  0
   24.9523  -25.8309  -15.6672 C   0  0  0  0  0  0  0  0  0  0  0  0
   24.8323  -24.6139  -15.0319 C   0  0  0  0  0  0  0  0  0  0  0  0
   25.7307  -23.5828  -15.2657 C   0  0  0  0  0  0  0  0  0  0  0  0
   22.7298  -20.7397  -13.4093 C   0  0  0  0  0  0  0  0  0  0  0  0
   23.0770  -20.3694  -12.2635 O   0  0  0  0  0  0  0  0  0  0  0  0
   17.9097  -17.2958  -13.9773 C   0  0  0  0  0  0  0  0  0  0  0  0
   19.2020  -16.9662  -12.7656 S   0  0  0  0  0  0  0  0  0  0  0  0
   20.2332  -18.4302  -12.5375 C   0  0  0  0  0  0  0  0  0  0  0  0
   19.5299  -19.7052  -12.7877 C   0  0  0  0  0  0  0  0  0  0  0  0
   20.3315  -20.9690  -12.6800 C   0  0  2  0  0  0  0  0  0  0  0  0
   21.3546  -21.0260  -13.6729 N   0  0  0  0  0  0  0  0  0  0  0  0
   19.4685  -22.1788  -12.6814 C   0  0  0  0  0  0  0  0  0  0  0  0
   19.1803  -22.8101  -13.7321 O   0  0  0  0  0  0  0  0  0  0  0  0
   18.4782  -23.5106   -9.0895 O   0  0  0  0  0  0  0  0  0  0  0  0
   18.4740  -24.5253  -10.0585 C   0  0  0  0  0  0  0  0  0  0  0  0
   18.1516  -23.9023  -11.4017 C   0  0  2  0  0  0  0  0  0  0  0  0
   18.9337  -22.6661  -11.4709 N   0  0  0  0  0  0  0  0  0  0  0  0
   16.6915  -23.5701  -11.3747 C   0  0  0  0  0  0  0  0  0  0  0  0
   16.2684  -22.4038  -11.3651 O   0  0  0  0  0  0  0  0  0  0  0  0
   15.8031  -24.6358  -11.3605 O   0  0  0  0  0  0  0  0  0  0  0  0
  2  1  1  1
  2  3  1  0
  2 13  1  0
  3  4  1  0
  4 12  1  0
  4  5  2  0
  5  6  1  0
  7  8  2  0
  7  6  1  0
  9  8  1  0
 10  9  2  0
 11 10  1  0
 11 12  2  0
 12  7  1  0
 13 20  1  0
 14 13  2  0
 16 17  1  0
 16 15  1  0
 18 17  1  0
 19 18  1  6
 20 19  1  0
 21 22  2  0
 21 19  1  0
 23 24  1  0
 25 24  1  1
 25 27  1  0
 25 26  1  0
 26 21  1  0
 27 29  1  0
 28 27  2  0
M  END
$$$$
