WMS.pdb
     RDKit          3D

 29 30  0  0  1  0  0  0  0  0999 V2000
   26.2084  -23.0247  -11.6503 N   0  0  0  0  0  0  0  0  0  0  0  0
   25.6568  -21.7786  -11.2033 C   0  0  1  0  0  0  0  0  0  0  0  0
   26.7043  -20.6953  -11.4643 C   0  0  0  0  0  0  0  0  0  0  0  0
   27.8604  -20.7852  -10.5765 C   0  0  0  0  0  0  0  0  0  0  0  0
   29.1151  -21.2807  -10.8463 C   0  0  0  0  0  0  0  0  0  0  0  0
   29.8813  -21.1776   -9.7582 N   0  0  0  0  0  0  0  0  0  0  0  0
   29.1714  -20.6180   -8.7434 C   0  0  0  0  0  0  0  0  0  0  0  0
   29.4796  -20.2928   -7.4296 C   0  0  0  0  0  0  0  0  0  0  0  0
   28.4820  -19.7195   -6.6613 C   0  0  0  0  0  0  0  0  0  0  0  0
   27.2143  -19.4616   -7.1387 C   0  0  0  0  0  0  0  0  0  0  0  0
   26.9410  -19.7965   -8.4473 C   0  0  0  0  0  0  0  0  0  0  0  0
   27.9030  -20.3738   -9.2636 C   0  0  0  0  0  0  0  0  0  0  0  0
   24.4672  -21.3888  -12.0024 C   0  0  0  0  0  0  0  0  0  0  0  0
   24.4560  -21.7439  -13.2043 O   0  0  0  0  0  0  0  0  0  0  0  0
   19.4188  -23.2584   -7.9869 C   0  0  0  0  0  0  0  0  0  0  0  0
   19.4696  -21.7643   -8.9929 S   0  0  0  0  0  0  0  0  0  0  0  0
   20.8211  -21.8595  -10.1858 C   0  0  0  0  0  0  0  0  0  0  0  0
   20.9928  -20.6372  -10.9978 C   0  0  0  0  0  0  0  0  0  0  0  0
   22.0606  -20.6523  -12.0517 C   0  0  2  0  0  0  0  0  0  0  0  0
   23.3656  -20.6471  -11.4745 N   0  0  0  0  0  0  0  0  0  0  0  0
   21.8750  -19.5669  -13.0495 C   0  0  0  0  0  0  0  0  0  0  0  0
   22.1235  -18.3585  -12.7976 O   0  0  0  0  0  0  0  0  0  0  0  0
   22.9745  -19.6292  -16.7066 O   0  0  0  0  0  0  0  0  0  0  0  0
   21.5803  -19.4738  -16.6826 C   0  0  0  0  0  0  0  0  0  0  0  0
   21.1927  -18.8396  -15.3621 C   0  0  2  0  0  0  0  0  0  0  0  0
   21.4018  -19.8702  -14.3430 N   0  0  0  0  0  0  0  0  0  0  0  0
   19.7328  -18.5196  -15.4585 C   0  0  0  0  0  0  0  0  0  0  0  0
   18.8479  -19.2979  -15.0703 O   0  0  0  0  0  0  0  0  0  0  0  0
   19.3916  -17.2930  -16.0100 O   0  0  0  0  0  0  0  0  0  0  0  0
  2  1  1  6
  2  3  1  0
  2 13  1  0
  3  4  1  0
  4 12  1  0
  4  5  2  0
  5  6  1  0
  7  8  2  0
  7  6  1  0
  9  8  1  0
 10  9  2  0
 11 10  1  0
 11 12  2  0
 12  7  1  0
 13 20  1  0
 14 13  2  0
 16 17  1  0
 16 15  1  0
 18 17  1  0
 19 18  1  1
 20 19  1  0
 21 22  2  0
 21 19  1  0
 23 24  1  0
 25 24  1  6
 25 27  1  0
 25 26  1  0
 26 21  1  0
 27 29  1  0
 28 27  2  0
M  END
$$$$
