WMS.pdb
     RDKit          3D

 29 30  0  0  1  0  0  0  0  0999 V2000
   16.2509  -16.6527    3.7943 N   0  0  0  0  0  0  0  0  0  0  0  0
   17.3556  -16.8997    4.6749 C   0  0  1  0  0  0  0  0  0  0  0  0
   17.2188  -15.9417    5.8593 C   0  0  0  0  0  0  0  0  0  0  0  0
   17.6090  -14.5710    5.5403 C   0  0  0  0  0  0  0  0  0  0  0  0
   16.9414  -13.6432    4.7747 C   0  0  0  0  0  0  0  0  0  0  0  0
   17.6419  -12.5077    4.7346 N   0  0  0  0  0  0  0  0  0  0  0  0
   18.7822  -12.6411    5.4620 C   0  0  0  0  0  0  0  0  0  0  0  0
   19.8389  -11.7866    5.7448 C   0  0  0  0  0  0  0  0  0  0  0  0
   20.8593  -12.2728    6.5425 C   0  0  0  0  0  0  0  0  0  0  0  0
   20.8704  -13.5509    7.0602 C   0  0  0  0  0  0  0  0  0  0  0  0
   19.8064  -14.3739    6.7604 C   0  0  0  0  0  0  0  0  0  0  0  0
   18.7557  -13.9392    5.9654 C   0  0  0  0  0  0  0  0  0  0  0  0
   17.2986  -18.2661    5.2541 C   0  0  0  0  0  0  0  0  0  0  0  0
   16.4084  -19.0285    4.8104 O   0  0  0  0  0  0  0  0  0  0  0  0
   19.5411  -24.8884    4.0020 C   0  0  0  0  0  0  0  0  0  0  0  0
   19.2758  -23.1224    3.7618 S   0  0  0  0  0  0  0  0  0  0  0  0
   18.9101  -22.3248    5.3394 C   0  0  0  0  0  0  0  0  0  0  0  0
   18.7468  -20.8593    5.2479 C   0  0  0  0  0  0  0  0  0  0  0  0
   18.4453  -20.1173    6.5168 C   0  0  2  0  0  0  0  0  0  0  0  0
   18.1907  -18.7357    6.2671 N   0  0  0  0  0  0  0  0  0  0  0  0
   19.4951  -20.3257    7.5477 C   0  0  0  0  0  0  0  0  0  0  0  0
   20.6567  -19.8508    7.4445 O   0  0  0  0  0  0  0  0  0  0  0  0
   19.1509  -19.4750   10.9447 O   0  0  0  0  0  0  0  0  0  0  0  0
   19.4782  -20.8350   11.0544 C   0  0  0  0  0  0  0  0  0  0  0  0
   20.1832  -21.2610    9.7824 C   0  0  2  0  0  0  0  0  0  0  0  0
   19.2100  -21.0828    8.7028 N   0  0  0  0  0  0  0  0  0  0  0  0
   20.4961  -22.7172    9.9393 C   0  0  0  0  0  0  0  0  0  0  0  0
   19.8894  -23.6047    9.3198 O   0  0  0  0  0  0  0  0  0  0  0  0
   21.5127  -23.0517   10.8223 O   0  0  0  0  0  0  0  0  0  0  0  0
  2  1  1  6
  2  3  1  0
  2 13  1  0
  3  4  1  0
  4 12  1  0
  4  5  2  0
  5  6  1  0
  7  8  2  0
  7  6  1  0
  9  8  1  0
 10  9  2  0
 11 10  1  0
 11 12  2  0
 12  7  1  0
 13 20  1  0
 14 13  2  0
 16 17  1  0
 16 15  1  0
 18 17  1  0
 19 18  1  6
 20 19  1  0
 21 22  2  0
 21 19  1  0
 23 24  1  0
 25 24  1  1
 25 27  1  0
 25 26  1  0
 26 21  1  0
 27 29  1  0
 28 27  2  0
M  END
$$$$
