WMS.pdb
     RDKit          3D

 29 30  0  0  1  0  0  0  0  0999 V2000
   24.0772  -19.9333   -9.3974 N   0  0  0  0  0  0  0  0  0  0  0  0
   25.4705  -19.8817   -9.7334 C   0  0  1  0  0  0  0  0  0  0  0  0
   26.1523  -21.0607   -9.0375 C   0  0  0  0  0  0  0  0  0  0  0  0
   26.2093  -20.9185   -7.5851 C   0  0  0  0  0  0  0  0  0  0  0  0
   25.3516  -21.4269   -6.6372 C   0  0  0  0  0  0  0  0  0  0  0  0
   25.7632  -21.0649   -5.4202 N   0  0  0  0  0  0  0  0  0  0  0  0
   26.8921  -20.3145   -5.5173 C   0  0  0  0  0  0  0  0  0  0  0  0
   27.7118  -19.6988   -4.5814 C   0  0  0  0  0  0  0  0  0  0  0  0
   28.8071  -18.9974   -5.0530 C   0  0  0  0  0  0  0  0  0  0  0  0
   29.1138  -18.8863   -6.3928 C   0  0  0  0  0  0  0  0  0  0  0  0
   28.2798  -19.5094   -7.2958 C   0  0  0  0  0  0  0  0  0  0  0  0
   27.1672  -20.2262   -6.8795 C   0  0  0  0  0  0  0  0  0  0  0  0
   25.6908  -20.0906  -11.1872 C   0  0  0  0  0  0  0  0  0  0  0  0
   24.8017  -20.7209  -11.8060 O   0  0  0  0  0  0  0  0  0  0  0  0
   26.8162  -16.1850  -14.9229 C   0  0  0  0  0  0  0  0  0  0  0  0
   27.0489  -17.6546  -15.9394 S   0  0  0  0  0  0  0  0  0  0  0  0
   28.3332  -18.7073  -15.2316 C   0  0  0  0  0  0  0  0  0  0  0  0
   28.1925  -18.9316  -13.7781 C   0  0  0  0  0  0  0  0  0  0  0  0
   26.9825  -19.6848  -13.3093 C   0  0  2  0  0  0  0  0  0  0  0  0
   26.8408  -19.6168  -11.8910 N   0  0  0  0  0  0  0  0  0  0  0  0
   26.9632  -21.0812  -13.8171 C   0  0  0  0  0  0  0  0  0  0  0  0
   27.0683  -22.0834  -13.0622 O   0  0  0  0  0  0  0  0  0  0  0  0
   25.0342  -24.4667  -15.0220 O   0  0  0  0  0  0  0  0  0  0  0  0
   25.5396  -23.2347  -14.5798 C   0  0  0  0  0  0  0  0  0  0  0  0
   26.3095  -22.5974  -15.7188 C   0  0  2  0  0  0  0  0  0  0  0  0
   26.8226  -21.3284  -15.1985 N   0  0  0  0  0  0  0  0  0  0  0  0
   25.3135  -22.3275  -16.8042 C   0  0  0  0  0  0  0  0  0  0  0  0
   24.8006  -21.2118  -16.9824 O   0  0  0  0  0  0  0  0  0  0  0  0
   24.9734  -23.3922  -17.6263 O   0  0  0  0  0  0  0  0  0  0  0  0
  2  1  1  6
  2  3  1  0
  2 13  1  0
  3  4  1  0
  4 12  1  0
  4  5  2  0
  5  6  1  0
  7  8  2  0
  7  6  1  0
  9  8  1  0
 10  9  2  0
 11 10  1  0
 11 12  2  0
 12  7  1  0
 13 20  1  0
 14 13  2  0
 16 17  1  0
 16 15  1  0
 18 17  1  0
 19 18  1  1
 20 19  1  0
 21 22  2  0
 21 19  1  0
 23 24  1  0
 25 24  1  1
 25 27  1  0
 25 26  1  0
 26 21  1  0
 27 29  1  0
 28 27  2  0
M  END
$$$$
