WMS.pdb
     RDKit          3D

 29 30  0  0  1  0  0  0  0  0999 V2000
   28.2249  -21.2874   -9.8085 N   0  0  0  0  0  0  0  0  0  0  0  0
   26.8330  -21.2883   -9.4631 C   0  0  1  0  0  0  0  0  0  0  0  0
   26.6912  -20.5427   -8.1352 C   0  0  0  0  0  0  0  0  0  0  0  0
   27.9733  -20.2317   -7.5089 C   0  0  0  0  0  0  0  0  0  0  0  0
   29.2033  -20.0683   -8.1032 C   0  0  0  0  0  0  0  0  0  0  0  0
   30.1178  -19.7903   -7.1716 N   0  0  0  0  0  0  0  0  0  0  0  0
   29.5345  -19.7600   -5.9444 C   0  0  0  0  0  0  0  0  0  0  0  0
   30.0166  -19.5234   -4.6645 C   0  0  0  0  0  0  0  0  0  0  0  0
   29.1110  -19.5745   -3.6198 C   0  0  0  0  0  0  0  0  0  0  0  0
   27.7703  -19.8463   -3.7943 C   0  0  0  0  0  0  0  0  0  0  0  0
   27.3240  -20.0764   -5.0777 C   0  0  0  0  0  0  0  0  0  0  0  0
   28.1876  -20.0380   -6.1630 C   0  0  0  0  0  0  0  0  0  0  0  0
   26.0254  -20.5195  -10.4442 C   0  0  0  0  0  0  0  0  0  0  0  0
   26.5553  -19.4911  -10.9261 O   0  0  0  0  0  0  0  0  0  0  0  0
   25.4463  -23.1329  -17.1125 C   0  0  0  0  0  0  0  0  0  0  0  0
   25.7598  -23.2258  -15.3405 S   0  0  0  0  0  0  0  0  0  0  0  0
   24.7873  -21.9805  -14.4675 C   0  0  0  0  0  0  0  0  0  0  0  0
   25.0716  -21.9028  -13.0198 C   0  0  0  0  0  0  0  0  0  0  0  0
   24.2782  -20.9185  -12.2118 C   0  0  2  0  0  0  0  0  0  0  0  0
   24.7070  -20.8920  -10.8511 N   0  0  0  0  0  0  0  0  0  0  0  0
   22.8146  -21.1399  -12.3434 C   0  0  0  0  0  0  0  0  0  0  0  0
   22.1689  -21.9053  -11.5801 O   0  0  0  0  0  0  0  0  0  0  0  0
   19.4786  -18.3126  -12.1035 O   0  0  0  0  0  0  0  0  0  0  0  0
   20.7849  -18.7606  -12.3518 C   0  0  0  0  0  0  0  0  0  0  0  0
   20.7061  -20.0358  -13.1666 C   0  0  2  0  0  0  0  0  0  0  0  0
   22.0888  -20.4793  -13.3562 N   0  0  0  0  0  0  0  0  0  0  0  0
   20.1159  -19.6569  -14.4899 C   0  0  0  0  0  0  0  0  0  0  0  0
   20.7945  -19.1940  -15.4198 O   0  0  0  0  0  0  0  0  0  0  0  0
   18.7503  -19.8447  -14.6477 O   0  0  0  0  0  0  0  0  0  0  0  0
  2  1  1  6
  2  3  1  0
  2 13  1  0
  3  4  1  0
  4 12  1  0
  4  5  2  0
  5  6  1  0
  7  8  2  0
  7  6  1  0
  9  8  1  0
 10  9  2  0
 11 10  1  0
 11 12  2  0
 12  7  1  0
 13 20  1  0
 14 13  2  0
 16 17  1  0
 16 15  1  0
 18 17  1  0
 19 18  1  6
 20 19  1  0
 21 22  2  0
 21 19  1  0
 23 24  1  0
 25 24  1  1
 25 27  1  0
 25 26  1  0
 26 21  1  0
 27 29  1  0
 28 27  2  0
M  END
$$$$
