ATW.pdb
     RDKit          3D

 27 28  0  0  1  0  0  0  0  0999 V2000
    9.7897  -20.2332   20.4475 C   0  0  0  0  0  0  0  0  0  0  0  0
    8.8175  -19.1648   20.0359 C   0  0  2  0  0  0  0  0  0  0  0  0
    8.6399  -19.2299   18.5994 N   0  0  0  0  0  0  0  0  0  0  0  0
    9.2534  -17.7997   20.4363 C   0  0  0  0  0  0  0  0  0  0  0  0
   10.3598  -17.3192   20.0850 O   0  0  0  0  0  0  0  0  0  0  0  0
    7.0852  -14.7136   20.0254 C   0  0  0  0  0  0  0  0  0  0  0  0
    7.4108  -14.8730   21.5193 C   0  0  1  0  0  0  0  0  0  0  0  0
    6.3516  -15.6350   22.0297 O   0  0  0  0  0  0  0  0  0  0  0  0
    8.6973  -15.6216   21.5755 C   0  0  2  0  0  0  0  0  0  0  0  0
    8.3998  -17.0218   21.2344 N   0  0  0  0  0  0  0  0  0  0  0  0
    9.4172  -15.5436   22.8678 C   0  0  0  0  0  0  0  0  0  0  0  0
   10.0953  -14.5241   23.1466 O   0  0  0  0  0  0  0  0  0  0  0  0
    9.3863  -16.5795   23.8348 N   0  0  0  0  0  0  0  0  0  0  0  0
   10.1806  -16.5332   25.0857 C   0  0  1  0  0  0  0  0  0  0  0  0
    9.8187  -15.3267   25.8731 C   0  0  0  0  0  0  0  0  0  0  0  0
    8.4272  -14.9336   25.9542 C   0  0  0  0  0  0  0  0  0  0  0  0
    7.3516  -15.7973   25.8624 C   0  0  0  0  0  0  0  0  0  0  0  0
    6.2205  -15.0831   25.9489 N   0  0  0  0  0  0  0  0  0  0  0  0
    6.4926  -13.7743   26.0957 C   0  0  0  0  0  0  0  0  0  0  0  0
    5.7304  -12.6430   26.2424 C   0  0  0  0  0  0  0  0  0  0  0  0
    6.2648  -11.3835   26.3989 C   0  0  0  0  0  0  0  0  0  0  0  0
    7.6428  -11.2787   26.4053 C   0  0  0  0  0  0  0  0  0  0  0  0
    8.4069  -12.4038   26.2586 C   0  0  0  0  0  0  0  0  0  0  0  0
    7.8915  -13.6761   26.0997 C   0  0  0  0  0  0  0  0  0  0  0  0
    9.9415  -17.8036   25.7621 C   0  0  0  0  0  0  0  0  0  0  0  0
   10.6276  -18.1486   26.9057 O   0  0  0  0  0  0  0  0  0  0  0  0
    9.1010  -18.6128   25.3128 O   0  0  0  0  0  0  0  0  0  0  0  0
  2  1  1  6
  2  3  1  0
  4  2  1  0
  4  5  2  0
  7  6  1  6
  7  9  1  0
  8  7  1  0
  9 11  1  0
  9 10  1  1
 10  4  1  0
 11 13  1  0
 12 11  2  0
 13 14  1  0
 14 25  1  0
 14 15  1  1
 16 15  1  0
 16 17  2  0
 18 17  1  0
 19 18  1  0
 20 19  2  0
 21 20  1  0
 22 21  2  0
 22 23  1  0
 23 24  2  0
 24 19  1  0
 24 16  1  0
 25 27  2  0
 25 26  1  0
M  END
$$$$
