ATW.pdb
     RDKit          3D

 27 28  0  0  1  0  0  0  0  0999 V2000
    8.4500  -12.2074   19.6219 C   0  0  0  0  0  0  0  0  0  0  0  0
    8.5650  -13.6179   19.1187 C   0  0  2  0  0  0  0  0  0  0  0  0
    7.6728  -13.7799   17.9887 N   0  0  0  0  0  0  0  0  0  0  0  0
    8.2576  -14.6322   20.1630 C   0  0  0  0  0  0  0  0  0  0  0  0
    7.0930  -14.8156   20.5972 O   0  0  0  0  0  0  0  0  0  0  0  0
    8.5392  -17.8685   19.8834 C   0  0  0  0  0  0  0  0  0  0  0  0
    9.4166  -17.7461   21.1398 C   0  0  1  0  0  0  0  0  0  0  0  0
   10.7306  -17.7835   20.6549 O   0  0  0  0  0  0  0  0  0  0  0  0
    9.0920  -16.4187   21.7324 C   0  0  2  0  0  0  0  0  0  0  0  0
    9.3043  -15.4107   20.6816 N   0  0  0  0  0  0  0  0  0  0  0  0
    9.8569  -16.0674   22.9513 C   0  0  0  0  0  0  0  0  0  0  0  0
   10.9369  -15.4345   22.8525 O   0  0  0  0  0  0  0  0  0  0  0  0
    9.4314  -16.4131   24.2585 N   0  0  0  0  0  0  0  0  0  0  0  0
   10.2985  -16.2602   25.4512 C   0  0  1  0  0  0  0  0  0  0  0  0
    9.7170  -15.2543   26.3767 C   0  0  0  0  0  0  0  0  0  0  0  0
    8.3242  -14.8867   26.2275 C   0  0  0  0  0  0  0  0  0  0  0  0
    7.2995  -15.7641   25.9247 C   0  0  0  0  0  0  0  0  0  0  0  0
    6.1553  -15.0717   25.8357 N   0  0  0  0  0  0  0  0  0  0  0  0
    6.3693  -13.7643   26.0671 C   0  0  0  0  0  0  0  0  0  0  0  0
    5.5689  -12.6511   26.1138 C   0  0  0  0  0  0  0  0  0  0  0  0
    6.0407  -11.3891   26.3987 C   0  0  0  0  0  0  0  0  0  0  0  0
    7.3943  -11.2623   26.6468 C   0  0  0  0  0  0  0  0  0  0  0  0
    8.1966  -12.3693   26.6005 C   0  0  0  0  0  0  0  0  0  0  0  0
    7.7441  -13.6437   26.3162 C   0  0  0  0  0  0  0  0  0  0  0  0
   10.4503  -17.5979   26.0133 C   0  0  0  0  0  0  0  0  0  0  0  0
   11.3129  -17.8441   27.0587 O   0  0  0  0  0  0  0  0  0  0  0  0
    9.7942  -18.5574   25.5526 O   0  0  0  0  0  0  0  0  0  0  0  0
  2  1  1  1
  2  3  1  0
  4  2  1  0
  4  5  2  0
  7  6  1  6
  7  9  1  0
  8  7  1  0
  9 11  1  0
  9 10  1  6
 10  4  1  0
 11 13  1  0
 12 11  2  0
 13 14  1  0
 14 25  1  0
 14 15  1  1
 16 15  1  0
 16 17  2  0
 18 17  1  0
 19 18  1  0
 20 19  2  0
 21 20  1  0
 22 21  2  0
 22 23  1  0
 23 24  2  0
 24 19  1  0
 24 16  1  0
 25 27  2  0
 25 26  1  0
M  END
$$$$
