ATW.pdb
     RDKit          3D

 27 28  0  0  1  0  0  0  0  0999 V2000
    7.2081  -13.1379   18.7760 C   0  0  0  0  0  0  0  0  0  0  0  0
    8.3776  -13.3135   19.7019 C   0  0  2  0  0  0  0  0  0  0  0  0
    9.5736  -13.5014   18.9057 N   0  0  0  0  0  0  0  0  0  0  0  0
    8.2052  -14.4530   20.6431 C   0  0  0  0  0  0  0  0  0  0  0  0
    7.1709  -14.5945   21.3422 O   0  0  0  0  0  0  0  0  0  0  0  0
    9.0156  -17.9658   19.7514 C   0  0  0  0  0  0  0  0  0  0  0  0
    9.8261  -17.6936   21.0291 C   0  0  1  0  0  0  0  0  0  0  0  0
   11.1053  -17.3561   20.5676 O   0  0  0  0  0  0  0  0  0  0  0  0
    9.1623  -16.5357   21.6904 C   0  0  2  0  0  0  0  0  0  0  0  0
    9.2332  -15.4023   20.7547 N   0  0  0  0  0  0  0  0  0  0  0  0
    9.7209  -16.1565   23.0090 C   0  0  0  0  0  0  0  0  0  0  0  0
   10.5860  -15.2496   23.0855 O   0  0  0  0  0  0  0  0  0  0  0  0
    9.3270  -16.7735   24.2228 N   0  0  0  0  0  0  0  0  0  0  0  0
    9.9398  -16.4365   25.5299 C   0  0  1  0  0  0  0  0  0  0  0  0
    8.8846  -16.3054   26.5672 C   0  0  0  0  0  0  0  0  0  0  0  0
    7.7845  -15.3921   26.3369 C   0  0  0  0  0  0  0  0  0  0  0  0
    6.5215  -15.7615   25.9128 C   0  0  0  0  0  0  0  0  0  0  0  0
    5.7749  -14.6564   25.7783 N   0  0  0  0  0  0  0  0  0  0  0  0
    6.4849  -13.5592   26.0955 C   0  0  0  0  0  0  0  0  0  0  0  0
    6.2108  -12.2157   26.1442 C   0  0  0  0  0  0  0  0  0  0  0  0
    7.1314  -11.2674   26.5309 C   0  0  0  0  0  0  0  0  0  0  0  0
    8.3900  -11.7163   26.8838 C   0  0  0  0  0  0  0  0  0  0  0  0
    8.6682  -13.0548   26.8360 C   0  0  0  0  0  0  0  0  0  0  0  0
    7.7600  -14.0225   26.4505 C   0  0  0  0  0  0  0  0  0  0  0  0
   10.9319  -17.4742   25.7895 C   0  0  0  0  0  0  0  0  0  0  0  0
   11.8328  -17.3634   26.8256 O   0  0  0  0  0  0  0  0  0  0  0  0
   10.9850  -18.4949   25.0693 O   0  0  0  0  0  0  0  0  0  0  0  0
  2  1  1  6
  2  3  1  0
  4  2  1  0
  4  5  2  0
  7  6  1  6
  7  9  1  0
  8  7  1  0
  9 11  1  0
  9 10  1  6
 10  4  1  0
 11 13  1  0
 12 11  2  0
 13 14  1  0
 14 25  1  0
 14 15  1  1
 16 15  1  0
 16 17  2  0
 18 17  1  0
 19 18  1  0
 20 19  2  0
 21 20  1  0
 22 21  2  0
 22 23  1  0
 23 24  2  0
 24 19  1  0
 24 16  1  0
 25 27  2  0
 25 26  1  0
M  END
$$$$
