ATW.pdb
     RDKit          3D

 27 28  0  0  1  0  0  0  0  0999 V2000
    8.3518  -12.4217   19.4013 C   0  0  0  0  0  0  0  0  0  0  0  0
    8.4218  -13.7463   18.6967 C   0  0  2  0  0  0  0  0  0  0  0  0
    7.4440  -13.7535   17.6275 N   0  0  0  0  0  0  0  0  0  0  0  0
    8.1922  -14.8999   19.6079 C   0  0  0  0  0  0  0  0  0  0  0  0
    7.2369  -15.7002   19.4487 O   0  0  0  0  0  0  0  0  0  0  0  0
    8.7107  -17.2462   19.3073 C   0  0  0  0  0  0  0  0  0  0  0  0
    9.4519  -17.4530   20.6382 C   0  0  1  0  0  0  0  0  0  0  0  0
   10.8092  -17.3751   20.2994 O   0  0  0  0  0  0  0  0  0  0  0  0
    9.0419  -16.3174   21.5105 C   0  0  2  0  0  0  0  0  0  0  0  0
    9.0726  -15.1012   20.6827 N   0  0  0  0  0  0  0  0  0  0  0  0
    9.8576  -16.1342   22.7333 C   0  0  0  0  0  0  0  0  0  0  0  0
   11.0425  -15.7288   22.6411 O   0  0  0  0  0  0  0  0  0  0  0  0
    9.3676  -16.3969   24.0371 N   0  0  0  0  0  0  0  0  0  0  0  0
   10.1947  -16.2234   25.2552 C   0  0  1  0  0  0  0  0  0  0  0  0
    9.7063  -15.0603   26.0396 C   0  0  0  0  0  0  0  0  0  0  0  0
    8.2872  -14.7715   26.0558 C   0  0  0  0  0  0  0  0  0  0  0  0
    7.2839  -15.7121   25.9144 C   0  0  0  0  0  0  0  0  0  0  0  0
    6.1003  -15.0839   25.9480 N   0  0  0  0  0  0  0  0  0  0  0  0
    6.2675  -13.7590   26.1069 C   0  0  0  0  0  0  0  0  0  0  0  0
    5.4176  -12.6877   26.2177 C   0  0  0  0  0  0  0  0  0  0  0  0
    5.8494  -11.3926   26.3985 C   0  0  0  0  0  0  0  0  0  0  0  0
    7.2141  -11.1861   26.4690 C   0  0  0  0  0  0  0  0  0  0  0  0
    8.0654  -12.2511   26.3582 C   0  0  0  0  0  0  0  0  0  0  0  0
    7.6536  -13.5576   26.1759 C   0  0  0  0  0  0  0  0  0  0  0  0
   10.1506  -17.5012   25.9578 C   0  0  0  0  0  0  0  0  0  0  0  0
   10.9749  -17.7597   27.0308 O   0  0  0  0  0  0  0  0  0  0  0  0
    9.3560  -18.3964   25.5963 O   0  0  0  0  0  0  0  0  0  0  0  0
  2  1  1  1
  2  3  1  0
  4  2  1  0
  4  5  2  0
  7  6  1  6
  7  9  1  0
  8  7  1  0
  9 11  1  0
  9 10  1  6
 10  4  1  0
 11 13  1  0
 12 11  2  0
 13 14  1  0
 14 25  1  0
 14 15  1  1
 16 15  1  0
 16 17  2  0
 18 17  1  0
 19 18  1  0
 20 19  2  0
 21 20  1  0
 22 21  2  0
 22 23  1  0
 23 24  2  0
 24 19  1  0
 24 16  1  0
 25 27  2  0
 25 26  1  0
M  END
$$$$
