ATW.pdb
     RDKit          3D

 27 28  0  0  1  0  0  0  0  0999 V2000
    8.5541  -12.2148   19.4969 C   0  0  0  0  0  0  0  0  0  0  0  0
    8.5646  -13.6408   19.0254 C   0  0  2  0  0  0  0  0  0  0  0  0
    7.5428  -13.7997   18.0105 N   0  0  0  0  0  0  0  0  0  0  0  0
    8.3476  -14.6168   20.1273 C   0  0  0  0  0  0  0  0  0  0  0  0
    7.2031  -14.8806   20.5735 O   0  0  0  0  0  0  0  0  0  0  0  0
    9.2326  -17.7740   19.6661 C   0  0  0  0  0  0  0  0  0  0  0  0
    9.9611  -17.5725   21.0048 C   0  0  1  0  0  0  0  0  0  0  0  0
   11.2902  -17.3135   20.6452 O   0  0  0  0  0  0  0  0  0  0  0  0
    9.3256  -16.3825   21.6362 C   0  0  2  0  0  0  0  0  0  0  0  0
    9.4593  -15.2650   20.6882 N   0  0  0  0  0  0  0  0  0  0  0  0
    9.8679  -16.0064   22.9624 C   0  0  0  0  0  0  0  0  0  0  0  0
   10.7842  -15.1518   23.0451 O   0  0  0  0  0  0  0  0  0  0  0  0
    9.4021  -16.5693   24.1770 N   0  0  0  0  0  0  0  0  0  0  0  0
    9.9582  -16.1961   25.4995 C   0  0  1  0  0  0  0  0  0  0  0  0
    8.8851  -16.2181   26.5266 C   0  0  0  0  0  0  0  0  0  0  0  0
    7.6848  -15.4392   26.3034 C   0  0  0  0  0  0  0  0  0  0  0  0
    6.4735  -15.9519   25.8773 C   0  0  0  0  0  0  0  0  0  0  0  0
    5.6017  -14.9415   25.7510 N   0  0  0  0  0  0  0  0  0  0  0  0
    6.1779  -13.7706   26.0757 C   0  0  0  0  0  0  0  0  0  0  0  0
    5.7475  -12.4692   26.1341 C   0  0  0  0  0  0  0  0  0  0  0  0
    6.5505  -11.4217   26.5272 C   0  0  0  0  0  0  0  0  0  0  0  0
    7.8536  -11.7216   26.8762 C   0  0  0  0  0  0  0  0  0  0  0  0
    8.2875  -13.0176   26.8187 C   0  0  0  0  0  0  0  0  0  0  0  0
    7.4992  -14.0828   26.4268 C   0  0  0  0  0  0  0  0  0  0  0  0
   11.0641  -17.1152   25.7457 C   0  0  0  0  0  0  0  0  0  0  0  0
   11.9720  -16.8919   26.7574 O   0  0  0  0  0  0  0  0  0  0  0  0
   11.2117  -18.1340   25.0362 O   0  0  0  0  0  0  0  0  0  0  0  0
  2  1  1  1
  2  3  1  0
  4  2  1  0
  4  5  2  0
  7  6  1  6
  7  9  1  0
  8  7  1  0
  9 11  1  0
  9 10  1  6
 10  4  1  0
 11 13  1  0
 12 11  2  0
 13 14  1  0
 14 25  1  0
 14 15  1  1
 16 15  1  0
 16 17  2  0
 18 17  1  0
 19 18  1  0
 20 19  2  0
 21 20  1  0
 22 21  2  0
 22 23  1  0
 23 24  2  0
 24 19  1  0
 24 16  1  0
 25 27  2  0
 25 26  1  0
M  END
$$$$
