ATW.pdb
     RDKit          3D

 27 28  0  0  1  0  0  0  0  0999 V2000
    8.5615  -12.2144   19.1619 C   0  0  0  0  0  0  0  0  0  0  0  0
    8.5624  -13.6393   18.6869 C   0  0  2  0  0  0  0  0  0  0  0  0
    7.6155  -13.7641   17.5973 N   0  0  0  0  0  0  0  0  0  0  0  0
    8.2321  -14.6096   19.7655 C   0  0  0  0  0  0  0  0  0  0  0  0
    7.0774  -14.7044   20.2514 O   0  0  0  0  0  0  0  0  0  0  0  0
    8.3950  -17.8700   19.4780 C   0  0  0  0  0  0  0  0  0  0  0  0
    9.2693  -17.7808   20.7393 C   0  0  1  0  0  0  0  0  0  0  0  0
   10.5830  -17.8837   20.2633 O   0  0  0  0  0  0  0  0  0  0  0  0
    9.0043  -16.4356   21.3212 C   0  0  2  0  0  0  0  0  0  0  0  0
    9.2451  -15.4476   20.2576 N   0  0  0  0  0  0  0  0  0  0  0  0
    9.7958  -16.1028   22.5283 C   0  0  0  0  0  0  0  0  0  0  0  0
   10.8963  -15.5093   22.4119 O   0  0  0  0  0  0  0  0  0  0  0  0
    9.3742  -16.4235   23.8430 N   0  0  0  0  0  0  0  0  0  0  0  0
   10.2466  -16.2529   25.0294 C   0  0  1  0  0  0  0  0  0  0  0  0
    9.8042  -15.0759   25.8204 C   0  0  0  0  0  0  0  0  0  0  0  0
    8.3862  -14.8135   25.9540 C   0  0  0  0  0  0  0  0  0  0  0  0
    7.3854  -15.7509   25.7779 C   0  0  0  0  0  0  0  0  0  0  0  0
    6.2000  -15.1489   25.9495 N   0  0  0  0  0  0  0  0  0  0  0  0
    6.3639  -13.8449   26.2345 C   0  0  0  0  0  0  0  0  0  0  0  0
    5.5121  -12.8048   26.5081 C   0  0  0  0  0  0  0  0  0  0  0  0
    5.9416  -11.5283   26.7954 C   0  0  0  0  0  0  0  0  0  0  0  0
    7.3059  -11.3078   26.8026 C   0  0  0  0  0  0  0  0  0  0  0  0
    8.1590  -12.3417   26.5296 C   0  0  0  0  0  0  0  0  0  0  0  0
    7.7495  -13.6290   26.2384 C   0  0  0  0  0  0  0  0  0  0  0  0
   10.2079  -17.5240   25.7444 C   0  0  0  0  0  0  0  0  0  0  0  0
    9.3817  -18.5499   25.3413 O   0  0  0  0  0  0  0  0  0  0  0  0
   10.9308  -17.7095   26.7475 O   0  0  0  0  0  0  0  0  0  0  0  0
  2  1  1  1
  2  3  1  0
  4  2  1  0
  4  5  2  0
  7  6  1  6
  7  9  1  0
  8  7  1  0
  9 11  1  0
  9 10  1  6
 10  4  1  0
 11 13  1  0
 12 11  2  0
 13 14  1  0
 14 25  1  0
 14 15  1  1
 16 15  1  0
 16 17  2  0
 18 17  1  0
 19 18  1  0
 20 19  2  0
 21 20  1  0
 22 21  2  0
 22 23  1  0
 23 24  2  0
 24 19  1  0
 24 16  1  0
 25 27  2  0
 25 26  1  0
M  END
$$$$
