ATW.pdb
     RDKit          3D

 27 28  0  0  1  0  0  0  0  0999 V2000
    8.4129  -12.2624   19.3021 C   0  0  0  0  0  0  0  0  0  0  0  0
    8.5344  -13.6540   18.7500 C   0  0  2  0  0  0  0  0  0  0  0  0
    7.6279  -13.7868   17.6275 N   0  0  0  0  0  0  0  0  0  0  0  0
    8.2515  -14.7059   19.7635 C   0  0  0  0  0  0  0  0  0  0  0  0
    7.0872  -14.9540   20.1652 O   0  0  0  0  0  0  0  0  0  0  0  0
    8.8461  -17.9394   19.4228 C   0  0  0  0  0  0  0  0  0  0  0  0
    9.6094  -17.7672   20.7461 C   0  0  1  0  0  0  0  0  0  0  0  0
   10.9563  -17.6943   20.3670 O   0  0  0  0  0  0  0  0  0  0  0  0
    9.1350  -16.4781   21.3222 C   0  0  2  0  0  0  0  0  0  0  0  0
    9.3216  -15.4465   20.2896 N   0  0  0  0  0  0  0  0  0  0  0  0
    9.7913  -16.0722   22.5867 C   0  0  0  0  0  0  0  0  0  0  0  0
   10.7804  -15.2991   22.5590 O   0  0  0  0  0  0  0  0  0  0  0  0
    9.3582  -16.5170   23.8609 N   0  0  0  0  0  0  0  0  0  0  0  0
   10.1061  -16.2290   25.1081 C   0  0  1  0  0  0  0  0  0  0  0  0
    9.6907  -14.9127   25.6573 C   0  0  0  0  0  0  0  0  0  0  0  0
    8.2781  -14.6128   25.7666 C   0  0  0  0  0  0  0  0  0  0  0  0
    7.2549  -15.5127   25.5326 C   0  0  0  0  0  0  0  0  0  0  0  0
    6.0838  -14.8818   25.6979 N   0  0  0  0  0  0  0  0  0  0  0  0
    6.2786  -13.5944   26.0342 C   0  0  0  0  0  0  0  0  0  0  0  0
    5.4510  -12.5395   26.3253 C   0  0  0  0  0  0  0  0  0  0  0  0
    5.9104  -11.2876   26.6692 C   0  0  0  0  0  0  0  0  0  0  0  0
    7.2799  -11.1088   26.7168 C   0  0  0  0  0  0  0  0  0  0  0  0
    8.1090  -12.1574   26.4266 C   0  0  0  0  0  0  0  0  0  0  0  0
    7.6694  -13.4205   26.0789 C   0  0  0  0  0  0  0  0  0  0  0  0
    9.8702  -17.3660   25.9913 C   0  0  0  0  0  0  0  0  0  0  0  0
   10.5481  -17.5028   27.1826 O   0  0  0  0  0  0  0  0  0  0  0  0
    9.0399  -18.2480   25.6814 O   0  0  0  0  0  0  0  0  0  0  0  0
  2  1  1  1
  2  3  1  0
  4  2  1  0
  4  5  2  0
  7  6  1  6
  7  9  1  0
  8  7  1  0
  9 11  1  0
  9 10  1  6
 10  4  1  0
 11 13  1  0
 12 11  2  0
 13 14  1  0
 14 25  1  0
 14 15  1  1
 16 15  1  0
 16 17  2  0
 18 17  1  0
 19 18  1  0
 20 19  2  0
 21 20  1  0
 22 21  2  0
 22 23  1  0
 23 24  2  0
 24 19  1  0
 24 16  1  0
 25 27  2  0
 25 26  1  0
M  END
$$$$
