ATW.pdb
     RDKit          3D

 27 28  0  0  1  0  0  0  0  0999 V2000
    8.7776  -12.2642   19.0750 C   0  0  0  0  0  0  0  0  0  0  0  0
    8.6970  -13.6766   18.5703 C   0  0  2  0  0  0  0  0  0  0  0  0
    7.7631  -13.7194   17.4633 N   0  0  0  0  0  0  0  0  0  0  0  0
    8.2878  -14.6454   19.6229 C   0  0  0  0  0  0  0  0  0  0  0  0
    7.0914  -14.7793   19.9821 O   0  0  0  0  0  0  0  0  0  0  0  0
    8.3645  -17.8172   19.4053 C   0  0  0  0  0  0  0  0  0  0  0  0
    9.1880  -17.7716   20.7026 C   0  0  1  0  0  0  0  0  0  0  0  0
   10.5153  -17.9251   20.2809 O   0  0  0  0  0  0  0  0  0  0  0  0
    8.9537  -16.4202   21.2835 C   0  0  2  0  0  0  0  0  0  0  0  0
    9.2719  -15.4366   20.2362 N   0  0  0  0  0  0  0  0  0  0  0  0
    9.7121  -16.1248   22.5212 C   0  0  0  0  0  0  0  0  0  0  0  0
   10.7884  -15.4812   22.4579 O   0  0  0  0  0  0  0  0  0  0  0  0
    9.2841  -16.5371   23.8081 N   0  0  0  0  0  0  0  0  0  0  0  0
   10.0770  -16.2873   25.0355 C   0  0  1  0  0  0  0  0  0  0  0  0
    9.6401  -15.0189   25.6734 C   0  0  0  0  0  0  0  0  0  0  0  0
    8.2233  -14.7694   25.8399 C   0  0  0  0  0  0  0  0  0  0  0  0
    7.2298  -15.7237   25.7217 C   0  0  0  0  0  0  0  0  0  0  0  0
    6.0423  -15.1308   25.9090 N   0  0  0  0  0  0  0  0  0  0  0  0
    6.1975  -13.8167   26.1490 C   0  0  0  0  0  0  0  0  0  0  0  0
    5.3407  -12.7788   26.4152 C   0  0  0  0  0  0  0  0  0  0  0  0
    5.7619  -11.4890   26.6506 C   0  0  0  0  0  0  0  0  0  0  0  0
    7.1229  -11.2522   26.6115 C   0  0  0  0  0  0  0  0  0  0  0  0
    7.9810  -12.2838   26.3457 C   0  0  0  0  0  0  0  0  0  0  0  0
    7.5798  -13.5843   26.1062 C   0  0  0  0  0  0  0  0  0  0  0  0
    9.9223  -17.4778   25.8646 C   0  0  0  0  0  0  0  0  0  0  0  0
   10.6699  -17.6594   27.0072 O   0  0  0  0  0  0  0  0  0  0  0  0
    9.1000  -18.3660   25.5513 O   0  0  0  0  0  0  0  0  0  0  0  0
  2  1  1  1
  2  3  1  0
  4  2  1  0
  4  5  2  0
  7  6  1  6
  7  9  1  0
  8  7  1  0
  9 11  1  0
  9 10  1  6
 10  4  1  0
 11 13  1  0
 12 11  2  0
 13 14  1  0
 14 25  1  0
 14 15  1  1
 16 15  1  0
 16 17  2  0
 18 17  1  0
 19 18  1  0
 20 19  2  0
 21 20  1  0
 22 21  2  0
 22 23  1  0
 23 24  2  0
 24 19  1  0
 24 16  1  0
 25 27  2  0
 25 26  1  0
M  END
$$$$
