ATW.pdb
     RDKit          3D

 27 28  0  0  1  0  0  0  0  0999 V2000
   10.5986  -19.6986   21.2205 C   0  0  0  0  0  0  0  0  0  0  0  0
    9.8620  -18.8030   20.2660 C   0  0  2  0  0  0  0  0  0  0  0  0
   10.4487  -18.9485   18.9492 N   0  0  0  0  0  0  0  0  0  0  0  0
    9.8818  -17.3740   20.6800 C   0  0  0  0  0  0  0  0  0  0  0  0
   10.8920  -16.6439   20.5211 O   0  0  0  0  0  0  0  0  0  0  0  0
    7.1681  -14.7358   19.9811 C   0  0  0  0  0  0  0  0  0  0  0  0
    7.2888  -14.9416   21.4998 C   0  0  1  0  0  0  0  0  0  0  0  0
    6.3429  -15.9319   21.7958 O   0  0  0  0  0  0  0  0  0  0  0  0
    8.6774  -15.4270   21.7334 C   0  0  2  0  0  0  0  0  0  0  0  0
    8.7333  -16.8222   21.2689 N   0  0  0  0  0  0  0  0  0  0  0  0
    9.1547  -15.3257   23.1321 C   0  0  0  0  0  0  0  0  0  0  0  0
    9.4521  -14.2045   23.6129 O   0  0  0  0  0  0  0  0  0  0  0  0
    9.3007  -16.4496   23.9834 N   0  0  0  0  0  0  0  0  0  0  0  0
    9.9268  -16.3643   25.3245 C   0  0  1  0  0  0  0  0  0  0  0  0
    8.8860  -16.4716   26.3790 C   0  0  0  0  0  0  0  0  0  0  0  0
    7.7794  -15.5374   26.3696 C   0  0  0  0  0  0  0  0  0  0  0  0
    6.4710  -15.8596   26.0602 C   0  0  0  0  0  0  0  0  0  0  0  0
    5.7292  -14.7450   26.1235 N   0  0  0  0  0  0  0  0  0  0  0  0
    6.4860  -13.6867   26.4637 C   0  0  0  0  0  0  0  0  0  0  0  0
    6.2380  -12.3543   26.6770 C   0  0  0  0  0  0  0  0  0  0  0  0
    7.2100  -11.4515   27.0468 C   0  0  0  0  0  0  0  0  0  0  0  0
    8.4945  -11.9363   27.2050 C   0  0  0  0  0  0  0  0  0  0  0  0
    8.7468  -13.2639   26.9926 C   0  0  0  0  0  0  0  0  0  0  0  0
    7.7871  -14.1860   26.6208 C   0  0  0  0  0  0  0  0  0  0  0  0
   10.9476  -17.4060   25.3597 C   0  0  0  0  0  0  0  0  0  0  0  0
   11.1581  -18.2420   24.2852 O   0  0  0  0  0  0  0  0  0  0  0  0
   11.6587  -17.5627   26.3760 O   0  0  0  0  0  0  0  0  0  0  0  0
  2  1  1  1
  2  3  1  0
  4  2  1  0
  4  5  2  0
  7  6  1  6
  7  9  1  0
  8  7  1  0
  9 11  1  0
  9 10  1  1
 10  4  1  0
 11 13  1  0
 12 11  2  0
 13 14  1  0
 14 25  1  0
 14 15  1  1
 16 15  1  0
 16 17  2  0
 18 17  1  0
 19 18  1  0
 20 19  2  0
 21 20  1  0
 22 21  2  0
 22 23  1  0
 23 24  2  0
 24 19  1  0
 24 16  1  0
 25 27  2  0
 25 26  1  0
M  END
$$$$
