ATW.pdb
     RDKit          3D

 27 28  0  0  1  0  0  0  0  0999 V2000
    4.9596  -18.3978   22.7090 C   0  0  0  0  0  0  0  0  0  0  0  0
    5.2159  -17.9749   21.2907 C   0  0  2  0  0  0  0  0  0  0  0  0
    4.9886  -19.1114   20.4211 N   0  0  0  0  0  0  0  0  0  0  0  0
    6.5889  -17.4397   21.0851 C   0  0  0  0  0  0  0  0  0  0  0  0
    7.5846  -18.1900   20.9298 O   0  0  0  0  0  0  0  0  0  0  0  0
    7.2112  -13.2022   20.7123 C   0  0  0  0  0  0  0  0  0  0  0  0
    7.9490  -14.3061   19.9375 C   0  0  1  0  0  0  0  0  0  0  0  0
    9.1864  -13.7368   19.6090 O   0  0  0  0  0  0  0  0  0  0  0  0
    8.1061  -15.4365   20.8945 C   0  0  2  0  0  0  0  0  0  0  0  0
    6.7789  -16.0491   21.0643 N   0  0  0  0  0  0  0  0  0  0  0  0
    8.6833  -15.0746   22.2099 C   0  0  0  0  0  0  0  0  0  0  0  0
    8.6095  -13.8907   22.6220 O   0  0  0  0  0  0  0  0  0  0  0  0
    9.3324  -16.0101   23.0541 N   0  0  0  0  0  0  0  0  0  0  0  0
   10.0139  -15.6185   24.3110 C   0  0  1  0  0  0  0  0  0  0  0  0
    9.1848  -16.0067   25.4809 C   0  0  0  0  0  0  0  0  0  0  0  0
    7.9326  -15.3170   25.7126 C   0  0  0  0  0  0  0  0  0  0  0  0
    6.6775  -15.8708   25.5407 C   0  0  0  0  0  0  0  0  0  0  0  0
    5.7562  -14.9371   25.8166 N   0  0  0  0  0  0  0  0  0  0  0  0
    6.3413  -13.7783   26.1678 C   0  0  0  0  0  0  0  0  0  0  0  0
    5.8803  -12.5444   26.5516 C   0  0  0  0  0  0  0  0  0  0  0  0
    6.7081  -11.4964   26.8878 C   0  0  0  0  0  0  0  0  0  0  0  0
    8.0700  -11.7233   26.8279 C   0  0  0  0  0  0  0  0  0  0  0  0
    8.5344  -12.9517   26.4450 C   0  0  0  0  0  0  0  0  0  0  0  0
    7.7219  -14.0160   26.1031 C   0  0  0  0  0  0  0  0  0  0  0  0
   11.3353  -16.2351   24.2621 C   0  0  0  0  0  0  0  0  0  0  0  0
   12.2676  -16.0152   25.2521 O   0  0  0  0  0  0  0  0  0  0  0  0
   11.6513  -16.9825   23.3109 O   0  0  0  0  0  0  0  0  0  0  0  0
  2  1  1  1
  2  3  1  0
  4  2  1  0
  4  5  2  0
  7  6  1  1
  7  9  1  0
  8  7  1  0
  9 11  1  0
  9 10  1  1
 10  4  1  0
 11 13  1  0
 12 11  2  0
 13 14  1  0
 14 25  1  0
 14 15  1  1
 16 15  1  0
 16 17  2  0
 18 17  1  0
 19 18  1  0
 20 19  2  0
 21 20  1  0
 22 21  2  0
 22 23  1  0
 23 24  2  0
 24 19  1  0
 24 16  1  0
 25 27  2  0
 25 26  1  0
M  END
$$$$
