ATW.pdb
     RDKit          3D

 27 28  0  0  1  0  0  0  0  0999 V2000
    8.3644  -12.3873   19.2818 C   0  0  0  0  0  0  0  0  0  0  0  0
    8.5748  -13.7522   18.6914 C   0  0  2  0  0  0  0  0  0  0  0  0
    7.7246  -13.8881   17.5260 N   0  0  0  0  0  0  0  0  0  0  0  0
    8.2985  -14.8499   19.6572 C   0  0  0  0  0  0  0  0  0  0  0  0
    7.1323  -15.1493   20.0161 O   0  0  0  0  0  0  0  0  0  0  0  0
    9.0331  -18.0762   19.3091 C   0  0  0  0  0  0  0  0  0  0  0  0
    9.7384  -17.8824   20.6613 C   0  0  1  0  0  0  0  0  0  0  0  0
   11.0962  -17.7675   20.3352 O   0  0  0  0  0  0  0  0  0  0  0  0
    9.2022  -16.6094   21.2187 C   0  0  2  0  0  0  0  0  0  0  0  0
    9.3774  -15.5757   20.1861 N   0  0  0  0  0  0  0  0  0  0  0  0
    9.8104  -16.1745   22.4975 C   0  0  0  0  0  0  0  0  0  0  0  0
   10.7139  -15.3025   22.4969 O   0  0  0  0  0  0  0  0  0  0  0  0
    9.4233  -16.6986   23.7563 N   0  0  0  0  0  0  0  0  0  0  0  0
   10.1124  -16.3428   25.0197 C   0  0  1  0  0  0  0  0  0  0  0  0
    9.7089  -14.9801   25.4523 C   0  0  0  0  0  0  0  0  0  0  0  0
    8.3375  -14.7502   25.8569 C   0  0  0  0  0  0  0  0  0  0  0  0
    7.3540  -15.7201   25.9162 C   0  0  0  0  0  0  0  0  0  0  0  0
    6.2065  -15.1432   26.2999 N   0  0  0  0  0  0  0  0  0  0  0  0
    6.3791  -13.8249   26.5015 C   0  0  0  0  0  0  0  0  0  0  0  0
    5.5637  -12.7974   26.9035 C   0  0  0  0  0  0  0  0  0  0  0  0
    5.9980  -11.4994   27.0553 C   0  0  0  0  0  0  0  0  0  0  0  0
    7.3283  -11.2428   26.7827 C   0  0  0  0  0  0  0  0  0  0  0  0
    8.1451  -12.2639   26.3808 C   0  0  0  0  0  0  0  0  0  0  0  0
    7.7299  -13.5723   26.2216 C   0  0  0  0  0  0  0  0  0  0  0  0
    9.7953  -17.4073   25.9655 C   0  0  0  0  0  0  0  0  0  0  0  0
   10.3758  -17.4555   27.2138 O   0  0  0  0  0  0  0  0  0  0  0  0
    8.9824  -18.3065   25.6589 O   0  0  0  0  0  0  0  0  0  0  0  0
  2  1  1  1
  2  3  1  0
  4  2  1  0
  4  5  2  0
  7  6  1  6
  7  9  1  0
  8  7  1  0
  9 11  1  0
  9 10  1  6
 10  4  1  0
 11 13  1  0
 12 11  2  0
 13 14  1  0
 14 25  1  0
 14 15  1  1
 16 15  1  0
 16 17  2  0
 18 17  1  0
 19 18  1  0
 20 19  2  0
 21 20  1  0
 22 21  2  0
 22 23  1  0
 23 24  2  0
 24 19  1  0
 24 16  1  0
 25 27  2  0
 25 26  1  0
M  END
$$$$
