ATW.pdb
     RDKit          3D

 27 28  0  0  1  0  0  0  0  0999 V2000
    8.4414  -12.2669   19.3730 C   0  0  0  0  0  0  0  0  0  0  0  0
    8.5382  -13.6462   18.7865 C   0  0  2  0  0  0  0  0  0  0  0  0
    7.5658  -13.7639   17.7188 N   0  0  0  0  0  0  0  0  0  0  0  0
    8.3248  -14.7202   19.7939 C   0  0  0  0  0  0  0  0  0  0  0  0
    7.1883  -14.9882   20.2576 O   0  0  0  0  0  0  0  0  0  0  0  0
    9.2892  -17.9237   19.2777 C   0  0  0  0  0  0  0  0  0  0  0  0
    9.9307  -17.7504   20.6640 C   0  0  1  0  0  0  0  0  0  0  0  0
   11.2928  -17.5578   20.3984 O   0  0  0  0  0  0  0  0  0  0  0  0
    9.3109  -16.5278   21.2468 C   0  0  2  0  0  0  0  0  0  0  0  0
    9.4308  -15.4594   20.2421 N   0  0  0  0  0  0  0  0  0  0  0  0
    9.8787  -16.0885   22.5426 C   0  0  0  0  0  0  0  0  0  0  0  0
   10.6818  -15.1240   22.5799 O   0  0  0  0  0  0  0  0  0  0  0  0
    9.5615  -16.7093   23.7768 N   0  0  0  0  0  0  0  0  0  0  0  0
   10.1553  -16.2814   25.0660 C   0  0  1  0  0  0  0  0  0  0  0  0
    9.7030  -14.9071   25.4026 C   0  0  0  0  0  0  0  0  0  0  0  0
    8.3056  -14.6846   25.7111 C   0  0  0  0  0  0  0  0  0  0  0  0
    7.3054  -15.6315   25.5905 C   0  0  0  0  0  0  0  0  0  0  0  0
    6.1384  -15.0673   25.9317 N   0  0  0  0  0  0  0  0  0  0  0  0
    6.3138  -13.7795   26.2772 C   0  0  0  0  0  0  0  0  0  0  0  0
    5.4831  -12.7768   26.7093 C   0  0  0  0  0  0  0  0  0  0  0  0
    5.9231  -11.5108   27.0256 C   0  0  0  0  0  0  0  0  0  0  0  0
    7.2760  -11.2611   26.8929 C   0  0  0  0  0  0  0  0  0  0  0  0
    8.1080  -12.2576   26.4616 C   0  0  0  0  0  0  0  0  0  0  0  0
    7.6875  -13.5337   26.1387 C   0  0  0  0  0  0  0  0  0  0  0  0
    9.7882  -17.3052   26.0384 C   0  0  0  0  0  0  0  0  0  0  0  0
   10.2787  -17.2821   27.3255 O   0  0  0  0  0  0  0  0  0  0  0  0
    9.0135  -18.2334   25.7199 O   0  0  0  0  0  0  0  0  0  0  0  0
  2  1  1  1
  2  3  1  0
  4  2  1  0
  4  5  2  0
  7  6  1  6
  7  9  1  0
  8  7  1  0
  9 11  1  0
  9 10  1  6
 10  4  1  0
 11 13  1  0
 12 11  2  0
 13 14  1  0
 14 25  1  0
 14 15  1  1
 16 15  1  0
 16 17  2  0
 18 17  1  0
 19 18  1  0
 20 19  2  0
 21 20  1  0
 22 21  2  0
 22 23  1  0
 23 24  2  0
 24 19  1  0
 24 16  1  0
 25 27  2  0
 25 26  1  0
M  END
$$$$
