ATW.pdb
     RDKit          3D

 27 28  0  0  1  0  0  0  0  0999 V2000
    8.1045  -12.3940   19.3416 C   0  0  0  0  0  0  0  0  0  0  0  0
    8.3703  -13.7094   18.6670 C   0  0  2  0  0  0  0  0  0  0  0  0
    7.5232  -13.8078   17.4956 N   0  0  0  0  0  0  0  0  0  0  0  0
    8.1430  -14.8758   19.5624 C   0  0  0  0  0  0  0  0  0  0  0  0
    6.9906  -15.2836   19.8526 O   0  0  0  0  0  0  0  0  0  0  0  0
    9.0506  -18.0089   19.1424 C   0  0  0  0  0  0  0  0  0  0  0  0
    9.7125  -17.8438   20.5201 C   0  0  1  0  0  0  0  0  0  0  0  0
   11.0743  -17.6753   20.2369 O   0  0  0  0  0  0  0  0  0  0  0  0
    9.1213  -16.6094   21.1078 C   0  0  2  0  0  0  0  0  0  0  0  0
    9.2536  -15.5435   20.1020 N   0  0  0  0  0  0  0  0  0  0  0  0
    9.7082  -16.1812   22.3988 C   0  0  0  0  0  0  0  0  0  0  0  0
   10.4073  -15.1396   22.4543 O   0  0  0  0  0  0  0  0  0  0  0  0
    9.5234  -16.8968   23.6083 N   0  0  0  0  0  0  0  0  0  0  0  0
   10.1062  -16.4562   24.8982 C   0  0  1  0  0  0  0  0  0  0  0  0
    9.7506  -15.0375   25.1584 C   0  0  0  0  0  0  0  0  0  0  0  0
    8.3754  -14.7046   25.4671 C   0  0  0  0  0  0  0  0  0  0  0  0
    7.3140  -15.5892   25.4177 C   0  0  0  0  0  0  0  0  0  0  0  0
    6.1914  -14.9290   25.7349 N   0  0  0  0  0  0  0  0  0  0  0  0
    6.4554  -13.6365   25.9962 C   0  0  0  0  0  0  0  0  0  0  0  0
    5.6983  -12.5562   26.3727 C   0  0  0  0  0  0  0  0  0  0  0  0
    6.2244  -11.3046   26.6032 C   0  0  0  0  0  0  0  0  0  0  0  0
    7.5885  -11.1534   26.4403 C   0  0  0  0  0  0  0  0  0  0  0  0
    8.3474  -12.2276   26.0642 C   0  0  0  0  0  0  0  0  0  0  0  0
    7.8400  -13.4909   25.8274 C   0  0  0  0  0  0  0  0  0  0  0  0
    9.6295  -17.4033   25.9003 C   0  0  0  0  0  0  0  0  0  0  0  0
   10.1011  -17.3779   27.1944 O   0  0  0  0  0  0  0  0  0  0  0  0
    8.7752  -18.2660   25.6016 O   0  0  0  0  0  0  0  0  0  0  0  0
  2  1  1  1
  2  3  1  0
  4  2  1  0
  4  5  2  0
  7  6  1  6
  7  9  1  0
  8  7  1  0
  9 11  1  0
  9 10  1  6
 10  4  1  0
 11 13  1  0
 12 11  2  0
 13 14  1  0
 14 25  1  0
 14 15  1  1
 16 15  1  0
 16 17  2  0
 18 17  1  0
 19 18  1  0
 20 19  2  0
 21 20  1  0
 22 21  2  0
 22 23  1  0
 23 24  2  0
 24 19  1  0
 24 16  1  0
 25 27  2  0
 25 26  1  0
M  END
$$$$
