ATW.pdb
     RDKit          3D

 27 28  0  0  1  0  0  0  0  0999 V2000
    8.5253  -12.2328   19.0214 C   0  0  0  0  0  0  0  0  0  0  0  0
    8.5793  -13.6131   18.4318 C   0  0  2  0  0  0  0  0  0  0  0  0
    7.6680  -13.6713   17.3068 N   0  0  0  0  0  0  0  0  0  0  0  0
    8.2449  -14.6772   19.4167 C   0  0  0  0  0  0  0  0  0  0  0  0
    7.0612  -14.9326   19.7517 O   0  0  0  0  0  0  0  0  0  0  0  0
    8.8435  -17.8489   19.0852 C   0  0  0  0  0  0  0  0  0  0  0  0
    9.4936  -17.7450   20.4744 C   0  0  1  0  0  0  0  0  0  0  0  0
   10.8711  -17.7548   20.2186 O   0  0  0  0  0  0  0  0  0  0  0  0
    9.0520  -16.4359   21.0310 C   0  0  2  0  0  0  0  0  0  0  0  0
    9.2872  -15.4209   19.9919 N   0  0  0  0  0  0  0  0  0  0  0  0
    9.7016  -16.0387   22.3017 C   0  0  0  0  0  0  0  0  0  0  0  0
   10.4446  -15.0270   22.3359 O   0  0  0  0  0  0  0  0  0  0  0  0
    9.5306  -16.7523   23.5144 N   0  0  0  0  0  0  0  0  0  0  0  0
   10.1523  -16.3256   24.7908 C   0  0  1  0  0  0  0  0  0  0  0  0
    9.7294  -14.9412   25.1244 C   0  0  0  0  0  0  0  0  0  0  0  0
    8.3626  -14.7070   25.5421 C   0  0  0  0  0  0  0  0  0  0  0  0
    7.3531  -15.6514   25.5209 C   0  0  0  0  0  0  0  0  0  0  0  0
    6.2196  -15.0759   25.9462 N   0  0  0  0  0  0  0  0  0  0  0  0
    6.4267  -13.7831   26.2531 C   0  0  0  0  0  0  0  0  0  0  0  0
    5.6372  -12.7691   26.7336 C   0  0  0  0  0  0  0  0  0  0  0  0
    6.1056  -11.4997   26.9899 C   0  0  0  0  0  0  0  0  0  0  0  0
    7.4437  -11.2586   26.7425 C   0  0  0  0  0  0  0  0  0  0  0  0
    8.2346  -12.2662   26.2625 C   0  0  0  0  0  0  0  0  0  0  0  0
    7.7852  -13.5459   25.9981 C   0  0  0  0  0  0  0  0  0  0  0  0
    9.7831  -17.3358   25.7765 C   0  0  0  0  0  0  0  0  0  0  0  0
   10.2937  -17.3116   27.0557 O   0  0  0  0  0  0  0  0  0  0  0  0
    8.9882  -18.2532   25.4769 O   0  0  0  0  0  0  0  0  0  0  0  0
  2  1  1  1
  2  3  1  0
  4  2  1  0
  4  5  2  0
  7  6  1  6
  7  9  1  0
  8  7  1  0
  9 11  1  0
  9 10  1  6
 10  4  1  0
 11 13  1  0
 12 11  2  0
 13 14  1  0
 14 25  1  0
 14 15  1  1
 16 15  1  0
 16 17  2  0
 18 17  1  0
 19 18  1  0
 20 19  2  0
 21 20  1  0
 22 21  2  0
 22 23  1  0
 23 24  2  0
 24 19  1  0
 24 16  1  0
 25 27  2  0
 25 26  1  0
M  END
$$$$
