ATW.pdb
     RDKit          3D

 27 28  0  0  1  0  0  0  0  0999 V2000
    8.0917  -12.2762   19.4445 C   0  0  0  0  0  0  0  0  0  0  0  0
    8.3991  -13.5894   18.7836 C   0  0  2  0  0  0  0  0  0  0  0  0
    7.5914  -13.7048   17.5862 N   0  0  0  0  0  0  0  0  0  0  0  0
    8.1614  -14.7564   19.6756 C   0  0  0  0  0  0  0  0  0  0  0  0
    7.0053  -15.1531   19.9668 O   0  0  0  0  0  0  0  0  0  0  0  0
    8.9755  -17.8994   19.2262 C   0  0  0  0  0  0  0  0  0  0  0  0
    9.6818  -17.7536   20.5839 C   0  0  1  0  0  0  0  0  0  0  0  0
   11.0360  -17.5981   20.2597 O   0  0  0  0  0  0  0  0  0  0  0  0
    9.1235  -16.5176   21.1998 C   0  0  2  0  0  0  0  0  0  0  0  0
    9.2660  -15.4374   20.2108 N   0  0  0  0  0  0  0  0  0  0  0  0
    9.7344  -16.1241   22.4906 C   0  0  0  0  0  0  0  0  0  0  0  0
   10.5609  -15.1796   22.5304 O   0  0  0  0  0  0  0  0  0  0  0  0
    9.4343  -16.7681   23.7172 N   0  0  0  0  0  0  0  0  0  0  0  0
   10.1268  -16.4397   24.9862 C   0  0  1  0  0  0  0  0  0  0  0  0
    9.7862  -15.0566   25.4078 C   0  0  0  0  0  0  0  0  0  0  0  0
    8.4009  -14.7238   25.6674 C   0  0  0  0  0  0  0  0  0  0  0  0
    7.3376  -15.5990   25.5447 C   0  0  0  0  0  0  0  0  0  0  0  0
    6.2061  -14.9411   25.8338 N   0  0  0  0  0  0  0  0  0  0  0  0
    6.4659  -13.6592   26.1465 C   0  0  0  0  0  0  0  0  0  0  0  0
    5.6993  -12.5858   26.5238 C   0  0  0  0  0  0  0  0  0  0  0  0
    6.2222  -11.3457   26.8158 C   0  0  0  0  0  0  0  0  0  0  0  0
    7.5928  -11.1991   26.7167 C   0  0  0  0  0  0  0  0  0  0  0  0
    8.3612  -12.2664   26.3401 C   0  0  0  0  0  0  0  0  0  0  0  0
    7.8573  -13.5182   26.0422 C   0  0  0  0  0  0  0  0  0  0  0  0
    9.7479  -17.4824   25.9336 C   0  0  0  0  0  0  0  0  0  0  0  0
    8.9210  -18.5210   25.5660 O   0  0  0  0  0  0  0  0  0  0  0  0
   10.1701  -17.4538   27.1102 O   0  0  0  0  0  0  0  0  0  0  0  0
  2  1  1  1
  2  3  1  0
  4  2  1  0
  4  5  2  0
  7  6  1  6
  7  9  1  0
  8  7  1  0
  9 11  1  0
  9 10  1  6
 10  4  1  0
 11 13  1  0
 12 11  2  0
 13 14  1  0
 14 25  1  0
 14 15  1  1
 16 15  1  0
 16 17  2  0
 18 17  1  0
 19 18  1  0
 20 19  2  0
 21 20  1  0
 22 21  2  0
 22 23  1  0
 23 24  2  0
 24 19  1  0
 24 16  1  0
 25 27  2  0
 25 26  1  0
M  END
$$$$
