ATW.pdb
     RDKit          3D

 27 28  0  0  1  0  0  0  0  0999 V2000
    8.2259  -12.2249   19.4498 C   0  0  0  0  0  0  0  0  0  0  0  0
    8.3597  -13.5813   18.8187 C   0  0  2  0  0  0  0  0  0  0  0  0
    7.4227  -13.6733   17.7173 N   0  0  0  0  0  0  0  0  0  0  0  0
    8.1294  -14.6929   19.7807 C   0  0  0  0  0  0  0  0  0  0  0  0
    6.9764  -15.0483   20.1310 O   0  0  0  0  0  0  0  0  0  0  0  0
    9.0790  -17.7889   19.2928 C   0  0  0  0  0  0  0  0  0  0  0  0
    9.6971  -17.6745   20.6957 C   0  0  1  0  0  0  0  0  0  0  0  0
   11.0694  -17.5148   20.4622 O   0  0  0  0  0  0  0  0  0  0  0  0
    9.1015  -16.4512   21.3019 C   0  0  2  0  0  0  0  0  0  0  0  0
    9.2380  -15.3676   20.3157 N   0  0  0  0  0  0  0  0  0  0  0  0
    9.6811  -16.0453   22.6033 C   0  0  0  0  0  0  0  0  0  0  0  0
   10.3637  -14.9944   22.6846 O   0  0  0  0  0  0  0  0  0  0  0  0
    9.5071  -16.7928   23.7949 N   0  0  0  0  0  0  0  0  0  0  0  0
   10.1597  -16.4262   25.0745 C   0  0  1  0  0  0  0  0  0  0  0  0
    9.8037  -15.0325   25.4456 C   0  0  0  0  0  0  0  0  0  0  0  0
    8.4151  -14.7067   25.6967 C   0  0  0  0  0  0  0  0  0  0  0  0
    7.3598  -15.5936   25.5904 C   0  0  0  0  0  0  0  0  0  0  0  0
    6.2221  -14.9400   25.8648 N   0  0  0  0  0  0  0  0  0  0  0  0
    6.4702  -13.6498   26.1518 C   0  0  0  0  0  0  0  0  0  0  0  0
    5.6937  -12.5757   26.5063 C   0  0  0  0  0  0  0  0  0  0  0  0
    6.2051  -11.3254   26.7738 C   0  0  0  0  0  0  0  0  0  0  0  0
    7.5746  -11.1688   26.6733 C   0  0  0  0  0  0  0  0  0  0  0  0
    8.3528  -12.2367   26.3194 C   0  0  0  0  0  0  0  0  0  0  0  0
    7.8604  -13.4986   26.0463 C   0  0  0  0  0  0  0  0  0  0  0  0
    9.7541  -17.4423   26.0396 C   0  0  0  0  0  0  0  0  0  0  0  0
   10.2495  -17.4506   27.3249 O   0  0  0  0  0  0  0  0  0  0  0  0
    8.9407  -18.3351   25.7161 O   0  0  0  0  0  0  0  0  0  0  0  0
  2  1  1  1
  2  3  1  0
  4  2  1  0
  4  5  2  0
  7  6  1  6
  7  9  1  0
  8  7  1  0
  9 11  1  0
  9 10  1  6
 10  4  1  0
 11 13  1  0
 12 11  2  0
 13 14  1  0
 14 25  1  0
 14 15  1  1
 16 15  1  0
 16 17  2  0
 18 17  1  0
 19 18  1  0
 20 19  2  0
 21 20  1  0
 22 21  2  0
 22 23  1  0
 23 24  2  0
 24 19  1  0
 24 16  1  0
 25 27  2  0
 25 26  1  0
M  END
$$$$
