LPK.pdb
     RDKit          3D

 25 25  0  0  1  0  0  0  0  0999 V2000
   22.3741  -19.9079  -16.0696 C   0  0  0  0  0  0  0  0  0  0  0  0
   23.5669  -20.0362  -15.1870 C   0  0  2  0  0  0  0  0  0  0  0  0
   24.3193  -18.7185  -15.0460 C   0  0  0  0  0  0  0  0  0  0  0  0
   24.4445  -21.1721  -15.5063 C   0  0  0  0  0  0  0  0  0  0  0  0
   25.2497  -21.8111  -14.4362 C   0  0  2  0  0  0  0  0  0  0  0  0
   26.1359  -22.8615  -14.8114 N   0  0  0  0  0  0  0  0  0  0  0  0
   24.3184  -22.1768  -13.3523 C   0  0  0  0  0  0  0  0  0  0  0  0
   23.4530  -23.0564  -13.6490 O   0  0  0  0  0  0  0  0  0  0  0  0
   24.2916  -21.6544  -12.0229 N   0  0  0  0  0  0  0  0  0  0  0  0
   25.1599  -20.6934  -11.4109 C   0  0  0  0  0  0  0  0  0  0  0  0
   24.2938  -20.1007  -10.3096 C   0  0  0  0  0  0  0  0  0  0  0  0
   23.5629  -21.3549   -9.7965 C   0  0  0  0  0  0  0  0  0  0  0  0
   23.3017  -22.0795  -11.0699 C   0  0  1  0  0  0  0  0  0  0  0  0
   21.9139  -21.8399  -11.5733 C   0  0  0  0  0  0  0  0  0  0  0  0
   21.7025  -20.7779  -12.2035 O   0  0  0  0  0  0  0  0  0  0  0  0
   20.8583  -22.7490  -11.3672 N   0  0  0  0  0  0  0  0  0  0  0  0
   19.5085  -22.5859  -11.9218 C   0  0  1  0  0  0  0  0  0  0  0  0
   19.0737  -23.7879  -12.6730 C   0  0  0  0  0  0  0  0  0  0  0  0
   17.7081  -23.7994  -13.2317 C   0  0  0  0  0  0  0  0  0  0  0  0
   17.2292  -25.0037  -13.9350 C   0  0  0  0  0  0  0  0  0  0  0  0
   15.8496  -24.9632  -14.4921 C   0  0  0  0  0  0  0  0  0  0  0  0
   15.4911  -26.1930  -15.1871 N   0  0  0  0  0  0  0  0  0  0  0  0
   18.6130  -22.0562  -10.8982 C   0  0  0  0  0  0  0  0  0  0  0  0
   18.8953  -22.2230   -9.5666 O   0  0  0  0  0  0  0  0  0  0  0  0
   17.5346  -21.4229  -11.1876 O   0  0  0  0  0  0  0  0  0  0  0  0
  2  1  1  6
  3  2  1  0
  4  2  1  0
  5  4  1  0
  5  6  1  6
  7  5  1  0
  7  8  2  0
  9 10  1  0
  9  7  1  0
 11 10  1  0
 12 11  1  0
 12 13  1  0
 13  9  1  0
 14 15  2  0
 13 14  1  6
 16 14  1  0
 17 18  1  1
 17 16  1  0
 19 18  1  0
 19 20  1  0
 20 21  1  0
 21 22  1  0
 23 17  1  0
 24 23  1  0
 25 23  2  0
M  END
$$$$
