LPK.pdb
     RDKit          3D

 25 25  0  0  1  0  0  0  0  0999 V2000
   18.7395   -8.1096  -18.1925 C   0  0  0  0  0  0  0  0  0  0  0  0
   17.6987   -8.8270  -17.4047 C   0  0  2  0  0  0  0  0  0  0  0  0
   16.2894   -8.3918  -17.7876 C   0  0  0  0  0  0  0  0  0  0  0  0
   17.9276   -8.8334  -15.9521 C   0  0  0  0  0  0  0  0  0  0  0  0
   19.2020   -9.3600  -15.4042 C   0  0  2  0  0  0  0  0  0  0  0  0
   19.4750  -10.7474  -15.5780 N   0  0  0  0  0  0  0  0  0  0  0  0
   19.2922   -8.9066  -14.0035 C   0  0  0  0  0  0  0  0  0  0  0  0
   18.5373   -9.5129  -13.1831 O   0  0  0  0  0  0  0  0  0  0  0  0
   20.1303   -7.8739  -13.4816 N   0  0  0  0  0  0  0  0  0  0  0  0
   21.1034   -7.0699  -14.1588 C   0  0  0  0  0  0  0  0  0  0  0  0
   21.1670   -5.8142  -13.3022 C   0  0  0  0  0  0  0  0  0  0  0  0
   21.0792   -6.4133  -11.8867 C   0  0  0  0  0  0  0  0  0  0  0  0
   20.0843   -7.5007  -12.0933 C   0  0  1  0  0  0  0  0  0  0  0  0
   18.7087   -7.0837  -11.6804 C   0  0  0  0  0  0  0  0  0  0  0  0
   18.0487   -6.3879  -12.4866 O   0  0  0  0  0  0  0  0  0  0  0  0
   18.1416   -7.4393  -10.4414 N   0  0  0  0  0  0  0  0  0  0  0  0
   16.7922   -7.0530  -10.0100 C   0  0  1  0  0  0  0  0  0  0  0  0
   15.9471   -8.2367   -9.7220 C   0  0  0  0  0  0  0  0  0  0  0  0
   14.5513   -8.0059   -9.3027 C   0  0  0  0  0  0  0  0  0  0  0  0
   13.6977   -9.1634   -8.9774 C   0  0  0  0  0  0  0  0  0  0  0  0
   12.2615   -8.8923   -8.6958 C   0  0  0  0  0  0  0  0  0  0  0  0
   11.5076  -10.1078   -8.4161 N   0  0  0  0  0  0  0  0  0  0  0  0
   16.8768   -6.0077   -8.9949 C   0  0  0  0  0  0  0  0  0  0  0  0
   15.9573   -4.9911   -8.9585 O   0  0  0  0  0  0  0  0  0  0  0  0
   17.8010   -5.9862   -8.1043 O   0  0  0  0  0  0  0  0  0  0  0  0
  2  1  1  6
  3  2  1  0
  4  2  1  0
  5  4  1  0
  5  6  1  1
  7  5  1  0
  7  8  2  0
  9 10  1  0
  9  7  1  0
 11 10  1  0
 12 11  1  0
 12 13  1  0
 13  9  1  0
 14 15  2  0
 13 14  1  6
 16 14  1  0
 17 18  1  1
 17 16  1  0
 19 18  1  0
 19 20  1  0
 20 21  1  0
 21 22  1  0
 23 17  1  0
 24 23  1  0
 25 23  2  0
M  END
$$$$
