LPK.pdb
     RDKit          3D

 25 25  0  0  1  0  0  0  0  0999 V2000
   18.6232  -14.3286    1.7799 C   0  0  0  0  0  0  0  0  0  0  0  0
   17.9595  -13.6870    2.9487 C   0  0  2  0  0  0  0  0  0  0  0  0
   18.8579  -12.6574    3.6233 C   0  0  0  0  0  0  0  0  0  0  0  0
   17.3462  -14.6291    3.8967 C   0  0  0  0  0  0  0  0  0  0  0  0
   16.1565  -15.4187    3.4930 C   0  0  2  0  0  0  0  0  0  0  0  0
   14.9321  -14.7180    3.2946 N   0  0  0  0  0  0  0  0  0  0  0  0
   16.0487  -16.5514    4.4318 C   0  0  0  0  0  0  0  0  0  0  0  0
   15.4777  -16.2938    5.5355 O   0  0  0  0  0  0  0  0  0  0  0  0
   16.5102  -17.8882    4.2299 N   0  0  0  0  0  0  0  0  0  0  0  0
   17.0104  -18.5020    3.0361 C   0  0  0  0  0  0  0  0  0  0  0  0
   17.8897  -19.6231    3.5692 C   0  0  0  0  0  0  0  0  0  0  0  0
   17.0449  -20.1283    4.7530 C   0  0  0  0  0  0  0  0  0  0  0  0
   16.5187  -18.8485    5.3007 C   0  0  1  0  0  0  0  0  0  0  0  0
   17.3241  -18.3674    6.4655 C   0  0  0  0  0  0  0  0  0  0  0  0
   18.3494  -17.6906    6.2197 O   0  0  0  0  0  0  0  0  0  0  0  0
   16.9761  -18.6435    7.8018 N   0  0  0  0  0  0  0  0  0  0  0  0
   17.6828  -18.0991    8.9681 C   0  0  1  0  0  0  0  0  0  0  0  0
   17.2211  -16.7300    9.3011 C   0  0  0  0  0  0  0  0  0  0  0  0
   17.8463  -16.0485   10.4508 C   0  0  0  0  0  0  0  0  0  0  0  0
   17.3991  -14.6905   10.8116 C   0  0  0  0  0  0  0  0  0  0  0  0
   18.1288  -14.0034   11.9120 C   0  0  0  0  0  0  0  0  0  0  0  0
   17.5707  -12.6927   12.2198 N   0  0  0  0  0  0  0  0  0  0  0  0
   17.7119  -19.0918   10.0377 C   0  0  0  0  0  0  0  0  0  0  0  0
   18.4986  -18.9048   11.1452 O   0  0  0  0  0  0  0  0  0  0  0  0
   17.0183  -20.1710    9.9943 O   0  0  0  0  0  0  0  0  0  0  0  0
  2  1  1  6
  3  2  1  0
  4  2  1  0
  5  4  1  0
  5  6  1  1
  7  5  1  0
  7  8  2  0
  9 10  1  0
  9  7  1  0
 11 10  1  0
 12 11  1  0
 12 13  1  0
 13  9  1  0
 14 15  2  0
 13 14  1  1
 16 14  1  0
 17 18  1  1
 17 16  1  0
 19 18  1  0
 19 20  1  0
 20 21  1  0
 21 22  1  0
 23 17  1  0
 24 23  1  0
 25 23  2  0
M  END
$$$$
