LPK.pdb
     RDKit          3D

 25 25  0  0  1  0  0  0  0  0999 V2000
   13.6614  -24.0297  -10.4643 C   0  0  0  0  0  0  0  0  0  0  0  0
   14.7504  -24.7805  -11.1490 C   0  0  2  0  0  0  0  0  0  0  0  0
   14.4616  -24.9835  -12.6314 C   0  0  0  0  0  0  0  0  0  0  0  0
   15.1649  -26.0151  -10.4661 C   0  0  0  0  0  0  0  0  0  0  0  0
   16.6067  -26.3336  -10.3197 C   0  0  2  0  0  0  0  0  0  0  0  0
   17.0975  -27.5000  -10.9739 N   0  0  0  0  0  0  0  0  0  0  0  0
   16.9177  -26.2840   -8.8786 C   0  0  0  0  0  0  0  0  0  0  0  0
   16.2871  -27.1140   -8.1546 O   0  0  0  0  0  0  0  0  0  0  0  0
   17.8429  -25.4147   -8.2234 N   0  0  0  0  0  0  0  0  0  0  0  0
   18.6798  -24.3962   -8.7841 C   0  0  0  0  0  0  0  0  0  0  0  0
   18.9063  -23.4541   -7.6112 C   0  0  0  0  0  0  0  0  0  0  0  0
   19.0761  -24.4541   -6.4531 C   0  0  0  0  0  0  0  0  0  0  0  0
   18.0542  -25.4783   -6.8021 C   0  0  1  0  0  0  0  0  0  0  0  0
   16.7800  -25.2747   -6.0462 C   0  0  0  0  0  0  0  0  0  0  0  0
   15.8672  -24.6308   -6.6137 O   0  0  0  0  0  0  0  0  0  0  0  0
   16.5753  -25.7722   -4.7447 N   0  0  0  0  0  0  0  0  0  0  0  0
   15.3230  -25.6246   -3.9922 C   0  0  1  0  0  0  0  0  0  0  0  0
   14.5962  -26.9117   -3.8764 C   0  0  0  0  0  0  0  0  0  0  0  0
   13.2689  -26.9023   -3.2319 C   0  0  0  0  0  0  0  0  0  0  0  0
   12.4855  -28.1505   -3.1813 C   0  0  0  0  0  0  0  0  0  0  0  0
   11.1201  -28.0738   -2.5938 C   0  0  0  0  0  0  0  0  0  0  0  0
   10.3995  -29.3372   -2.6873 N   0  0  0  0  0  0  0  0  0  0  0  0
   15.5654  -24.8621   -2.7716 C   0  0  0  0  0  0  0  0  0  0  0  0
   14.7386  -23.8273   -2.4167 O   0  0  0  0  0  0  0  0  0  0  0  0
   16.5485  -25.1148   -1.9857 O   0  0  0  0  0  0  0  0  0  0  0  0
  2  1  1  1
  3  2  1  0
  4  2  1  0
  5  4  1  0
  5  6  1  1
  7  5  1  0
  7  8  2  0
  9 10  1  0
  9  7  1  0
 11 10  1  0
 12 11  1  0
 12 13  1  0
 13  9  1  0
 14 15  2  0
 13 14  1  1
 16 14  1  0
 17 18  1  1
 17 16  1  0
 19 18  1  0
 19 20  1  0
 20 21  1  0
 21 22  1  0
 23 17  1  0
 24 23  1  0
 25 23  2  0
M  END
$$$$
