LPK.pdb
     RDKit          3D

 25 25  0  0  1  0  0  0  0  0999 V2000
   27.4497  -21.7206  -10.7228 C   0  0  0  0  0  0  0  0  0  0  0  0
   26.2655  -20.8174  -10.7119 C   0  0  2  0  0  0  0  0  0  0  0  0
   25.5980  -20.7648   -9.3430 C   0  0  0  0  0  0  0  0  0  0  0  0
   25.3146  -21.0424  -11.8108 C   0  0  0  0  0  0  0  0  0  0  0  0
   25.7991  -21.0929  -13.2123 C   0  0  2  0  0  0  0  0  0  0  0  0
   26.5174  -19.9661  -13.7062 N   0  0  0  0  0  0  0  0  0  0  0  0
   24.6523  -21.4832  -14.0540 C   0  0  0  0  0  0  0  0  0  0  0  0
   23.8285  -20.5551  -14.3197 O   0  0  0  0  0  0  0  0  0  0  0  0
   24.3782  -22.7765  -14.5955 N   0  0  0  0  0  0  0  0  0  0  0  0
   25.1848  -23.9599  -14.5641 C   0  0  0  0  0  0  0  0  0  0  0  0
   24.1606  -25.0770  -14.6962 C   0  0  0  0  0  0  0  0  0  0  0  0
   23.1932  -24.4745  -15.7313 C   0  0  0  0  0  0  0  0  0  0  0  0
   23.1530  -23.0516  -15.2968 C   0  0  1  0  0  0  0  0  0  0  0  0
   21.9558  -22.7611  -14.4489 C   0  0  0  0  0  0  0  0  0  0  0  0
   22.1511  -22.2044  -13.3436 O   0  0  0  0  0  0  0  0  0  0  0  0
   20.6431  -23.0853  -14.8426 N   0  0  0  0  0  0  0  0  0  0  0  0
   19.4895  -22.1907  -14.6851 C   0  0  1  0  0  0  0  0  0  0  0  0
   19.7775  -20.8276  -15.1922 C   0  0  0  0  0  0  0  0  0  0  0  0
   18.7172  -19.8077  -15.0786 C   0  0  0  0  0  0  0  0  0  0  0  0
   18.4728  -18.8956  -16.2111 C   0  0  0  0  0  0  0  0  0  0  0  0
   17.4174  -17.8606  -16.0360 C   0  0  0  0  0  0  0  0  0  0  0  0
   17.1196  -17.1511  -17.2737 N   0  0  0  0  0  0  0  0  0  0  0  0
   18.2788  -22.8558  -15.1564 C   0  0  0  0  0  0  0  0  0  0  0  0
   18.1482  -23.2230  -16.4711 O   0  0  0  0  0  0  0  0  0  0  0  0
   17.2925  -23.1221  -14.3790 O   0  0  0  0  0  0  0  0  0  0  0  0
  2  1  1  1
  3  2  1  0
  4  2  1  0
  5  4  1  0
  5  6  1  6
  7  5  1  0
  7  8  2  0
  9 10  1  0
  9  7  1  0
 11 10  1  0
 12 11  1  0
 12 13  1  0
 13  9  1  0
 14 15  2  0
 13 14  1  1
 16 14  1  0
 17 18  1  6
 17 16  1  0
 19 18  1  0
 19 20  1  0
 20 21  1  0
 21 22  1  0
 23 17  1  0
 24 23  1  0
 25 23  2  0
M  END
$$$$
