LPK.pdb
     RDKit          3D

 25 25  0  0  1  0  0  0  0  0999 V2000
   24.7978  -21.3607  -17.9067 C   0  0  0  0  0  0  0  0  0  0  0  0
   23.5190  -20.6449  -18.1726 C   0  0  2  0  0  0  0  0  0  0  0  0
   23.2071  -20.5637  -19.6620 C   0  0  0  0  0  0  0  0  0  0  0  0
   23.3865  -19.3531  -17.4826 C   0  0  0  0  0  0  0  0  0  0  0  0
   23.3860  -19.3007  -15.9997 C   0  0  2  0  0  0  0  0  0  0  0  0
   22.3578  -20.0072  -15.3120 N   0  0  0  0  0  0  0  0  0  0  0  0
   23.4914  -17.8804  -15.6158 C   0  0  0  0  0  0  0  0  0  0  0  0
   22.3916  -17.2519  -15.5393 O   0  0  0  0  0  0  0  0  0  0  0  0
   24.6841  -17.1506  -15.3225 N   0  0  0  0  0  0  0  0  0  0  0  0
   26.0251  -17.6315  -15.1725 C   0  0  0  0  0  0  0  0  0  0  0  0
   26.8673  -16.4101  -15.5093 C   0  0  0  0  0  0  0  0  0  0  0  0
   26.0550  -15.2911  -14.8322 C   0  0  0  0  0  0  0  0  0  0  0  0
   24.6622  -15.7260  -15.1250 C   0  0  1  0  0  0  0  0  0  0  0  0
   24.0934  -15.0143  -16.3110 C   0  0  0  0  0  0  0  0  0  0  0  0
   24.3081  -15.5105  -17.4412 O   0  0  0  0  0  0  0  0  0  0  0  0
   23.3400  -13.8294  -16.2027 N   0  0  0  0  0  0  0  0  0  0  0  0
   22.6947  -13.1552  -17.3363 C   0  0  1  0  0  0  0  0  0  0  0  0
   21.3444  -12.6553  -16.9826 C   0  0  0  0  0  0  0  0  0  0  0  0
   20.3949  -13.6015  -16.3657 C   0  0  0  0  0  0  0  0  0  0  0  0
   19.0749  -13.1121  -15.9272 C   0  0  0  0  0  0  0  0  0  0  0  0
   17.8881  -13.5698  -16.7001 C   0  0  0  0  0  0  0  0  0  0  0  0
   16.6328  -13.1019  -16.1262 N   0  0  0  0  0  0  0  0  0  0  0  0
   23.6305  -12.2220  -17.9558 C   0  0  0  0  0  0  0  0  0  0  0  0
   24.7797  -11.8489  -17.3072 O   0  0  0  0  0  0  0  0  0  0  0  0
   23.4267  -11.7106  -19.1154 O   0  0  0  0  0  0  0  0  0  0  0  0
  2  1  1  6
  3  2  1  0
  4  2  1  0
  5  4  1  0
  5  6  1  6
  7  5  1  0
  7  8  2  0
  9 10  1  0
  9  7  1  0
 11 10  1  0
 12 11  1  0
 12 13  1  0
 13  9  1  0
 14 15  2  0
 13 14  1  6
 16 14  1  0
 17 18  1  1
 17 16  1  0
 19 18  1  0
 19 20  1  0
 20 21  1  0
 21 22  1  0
 23 17  1  0
 24 23  1  0
 25 23  2  0
M  END
$$$$
