LPK.pdb
     RDKit          3D

 25 25  0  0  1  0  0  0  0  0999 V2000
   25.4507  -20.2858   -9.7202 C   0  0  0  0  0  0  0  0  0  0  0  0
   26.0944  -20.8805  -10.9245 C   0  0  2  0  0  0  0  0  0  0  0  0
   27.5941  -20.6126  -10.9634 C   0  0  0  0  0  0  0  0  0  0  0  0
   25.4188  -20.5727  -12.1938 C   0  0  0  0  0  0  0  0  0  0  0  0
   25.9214  -21.1561  -13.4622 C   0  0  2  0  0  0  0  0  0  0  0  0
   26.9722  -20.4701  -14.1366 N   0  0  0  0  0  0  0  0  0  0  0  0
   24.7458  -21.4262  -14.3113 C   0  0  0  0  0  0  0  0  0  0  0  0
   24.2097  -20.4061  -14.8429 O   0  0  0  0  0  0  0  0  0  0  0  0
   24.1589  -22.6972  -14.5959 N   0  0  0  0  0  0  0  0  0  0  0  0
   24.6447  -24.0082  -14.2839 C   0  0  0  0  0  0  0  0  0  0  0  0
   23.3743  -24.8443  -14.2439 C   0  0  0  0  0  0  0  0  0  0  0  0
   22.5901  -24.2533  -15.4295 C   0  0  0  0  0  0  0  0  0  0  0  0
   22.9052  -22.8052  -15.2927 C   0  0  1  0  0  0  0  0  0  0  0  0
   21.8166  -22.0619  -14.5862 C   0  0  0  0  0  0  0  0  0  0  0  0
   22.0913  -21.5513  -13.4756 O   0  0  0  0  0  0  0  0  0  0  0  0
   20.5197  -21.9193  -15.1163 N   0  0  0  0  0  0  0  0  0  0  0  0
   19.6011  -20.8280  -14.7679 C   0  0  1  0  0  0  0  0  0  0  0  0
   20.2417  -19.4998  -14.9220 C   0  0  0  0  0  0  0  0  0  0  0  0
   20.3461  -18.9344  -16.2809 C   0  0  0  0  0  0  0  0  0  0  0  0
   20.9856  -17.6185  -16.4648 C   0  0  0  0  0  0  0  0  0  0  0  0
   21.0588  -17.0853  -17.8526 C   0  0  0  0  0  0  0  0  0  0  0  0
   21.7152  -15.7856  -17.9181 N   0  0  0  0  0  0  0  0  0  0  0  0
   18.3086  -21.0443  -15.4104 C   0  0  0  0  0  0  0  0  0  0  0  0
   17.1496  -20.6224  -14.8111 O   0  0  0  0  0  0  0  0  0  0  0  0
   18.1938  -21.6324  -16.5456 O   0  0  0  0  0  0  0  0  0  0  0  0
  2  1  1  1
  3  2  1  0
  4  2  1  0
  5  4  1  0
  5  6  1  6
  7  5  1  0
  7  8  2  0
  9 10  1  0
  9  7  1  0
 11 10  1  0
 12 11  1  0
 12 13  1  0
 13  9  1  0
 14 15  2  0
 13 14  1  1
 16 14  1  0
 17 18  1  6
 17 16  1  0
 19 18  1  0
 19 20  1  0
 20 21  1  0
 21 22  1  0
 23 17  1  0
 24 23  1  0
 25 23  2  0
M  END
$$$$
