LPK.pdb
     RDKit          3D

 25 25  0  0  1  0  0  0  0  0999 V2000
   18.8603  -23.8750   -8.2440 C   0  0  0  0  0  0  0  0  0  0  0  0
   18.5444  -23.9876   -9.6952 C   0  0  2  0  0  0  0  0  0  0  0  0
   18.6343  -25.4258  -10.1908 C   0  0  0  0  0  0  0  0  0  0  0  0
   19.2633  -23.0340  -10.5532 C   0  0  0  0  0  0  0  0  0  0  0  0
   19.1113  -21.5749  -10.3303 C   0  0  2  0  0  0  0  0  0  0  0  0
   17.8258  -21.0014  -10.5494 N   0  0  0  0  0  0  0  0  0  0  0  0
   20.1957  -20.9072  -11.0747 C   0  0  0  0  0  0  0  0  0  0  0  0
   19.8601  -20.3932  -12.1855 O   0  0  0  0  0  0  0  0  0  0  0  0
   21.5627  -20.7779  -10.6802 N   0  0  0  0  0  0  0  0  0  0  0  0
   22.1951  -21.1868   -9.4616 C   0  0  0  0  0  0  0  0  0  0  0  0
   23.6469  -21.3759   -9.8751 C   0  0  0  0  0  0  0  0  0  0  0  0
   23.8435  -20.1837  -10.8292 C   0  0  0  0  0  0  0  0  0  0  0  0
   22.5371  -20.1641  -11.5418 C   0  0  1  0  0  0  0  0  0  0  0  0
   22.6140  -20.8546  -12.8662 C   0  0  0  0  0  0  0  0  0  0  0  0
   22.6738  -22.1061  -12.8635 O   0  0  0  0  0  0  0  0  0  0  0  0
   22.6211  -20.1601  -14.0913 N   0  0  0  0  0  0  0  0  0  0  0  0
   22.5474  -20.8072  -15.4073 C   0  0  1  0  0  0  0  0  0  0  0  0
   21.4201  -21.7670  -15.4858 C   0  0  0  0  0  0  0  0  0  0  0  0
   21.1263  -22.3853  -16.7929 C   0  0  0  0  0  0  0  0  0  0  0  0
   19.9706  -23.2929  -16.9153 C   0  0  0  0  0  0  0  0  0  0  0  0
   19.7496  -23.9391  -18.2379 C   0  0  0  0  0  0  0  0  0  0  0  0
   18.5530  -24.7707  -18.2607 N   0  0  0  0  0  0  0  0  0  0  0  0
   22.6679  -19.8037  -16.4603 C   0  0  0  0  0  0  0  0  0  0  0  0
   22.3502  -18.4921  -16.2170 O   0  0  0  0  0  0  0  0  0  0  0  0
   23.0663  -20.0939  -17.6455 O   0  0  0  0  0  0  0  0  0  0  0  0
  2  1  1  1
  3  2  1  0
  4  2  1  0
  5  4  1  0
  5  6  1  6
  7  5  1  0
  7  8  2  0
  9 10  1  0
  9  7  1  0
 11 10  1  0
 12 11  1  0
 12 13  1  0
 13  9  1  0
 14 15  2  0
 13 14  1  6
 16 14  1  0
 17 18  1  6
 17 16  1  0
 19 18  1  0
 19 20  1  0
 20 21  1  0
 21 22  1  0
 23 17  1  0
 24 23  1  0
 25 23  2  0
M  END
$$$$
