LPK.pdb
     RDKit          3D

 25 25  0  0  1  0  0  0  0  0999 V2000
   26.7651  -17.3806  -15.2939 C   0  0  0  0  0  0  0  0  0  0  0  0
   27.3491  -18.6016  -14.6722 C   0  0  2  0  0  0  0  0  0  0  0  0
   28.8692  -18.5318  -14.5913 C   0  0  0  0  0  0  0  0  0  0  0  0
   26.8572  -19.8686  -15.2335 C   0  0  0  0  0  0  0  0  0  0  0  0
   26.9299  -21.1138  -14.4299 C   0  0  2  0  0  0  0  0  0  0  0  0
   27.2886  -22.3170  -15.1030 N   0  0  0  0  0  0  0  0  0  0  0  0
   25.6716  -21.2114  -13.6663 C   0  0  0  0  0  0  0  0  0  0  0  0
   24.6189  -21.3437  -14.3625 O   0  0  0  0  0  0  0  0  0  0  0  0
   25.5173  -21.1762  -12.2465 N   0  0  0  0  0  0  0  0  0  0  0  0
   26.5191  -21.0484  -11.2305 C   0  0  0  0  0  0  0  0  0  0  0  0
   25.7496  -20.4483  -10.0634 C   0  0  0  0  0  0  0  0  0  0  0  0
   24.4187  -21.2166  -10.1563 C   0  0  0  0  0  0  0  0  0  0  0  0
   24.2217  -21.2783  -11.6302 C   0  0  1  0  0  0  0  0  0  0  0  0
   23.2956  -20.2084  -12.1143 C   0  0  0  0  0  0  0  0  0  0  0  0
   23.7858  -19.2923  -12.8143 O   0  0  0  0  0  0  0  0  0  0  0  0
   21.9193  -20.1961  -11.8161 N   0  0  0  0  0  0  0  0  0  0  0  0
   20.8555  -20.2108  -12.8281 C   0  0  1  0  0  0  0  0  0  0  0  0
   21.1460  -21.1738  -13.9174 C   0  0  0  0  0  0  0  0  0  0  0  0
   20.2038  -21.2427  -15.0508 C   0  0  0  0  0  0  0  0  0  0  0  0
   20.4526  -22.2111  -16.1346 C   0  0  0  0  0  0  0  0  0  0  0  0
   19.4608  -22.2615  -17.2433 C   0  0  0  0  0  0  0  0  0  0  0  0
   19.7275  -23.3431  -18.1831 N   0  0  0  0  0  0  0  0  0  0  0  0
   19.5521  -20.2866  -12.1757 C   0  0  0  0  0  0  0  0  0  0  0  0
   19.2343  -21.3480  -11.3677 O   0  0  0  0  0  0  0  0  0  0  0  0
   18.6535  -19.3823  -12.3257 O   0  0  0  0  0  0  0  0  0  0  0  0
  2  1  1  6
  3  2  1  0
  4  2  1  0
  5  4  1  0
  5  6  1  6
  7  5  1  0
  7  8  2  0
  9 10  1  0
  9  7  1  0
 11 10  1  0
 12 11  1  0
 12 13  1  0
 13  9  1  0
 14 15  2  0
 13 14  1  6
 16 14  1  0
 17 18  1  6
 17 16  1  0
 19 18  1  0
 19 20  1  0
 20 21  1  0
 21 22  1  0
 23 17  1  0
 24 23  1  0
 25 23  2  0
M  END
$$$$
