LPK.pdb
     RDKit          3D

 25 25  0  0  1  0  0  0  0  0999 V2000
   25.3857  -13.8923  -20.9332 C   0  0  0  0  0  0  0  0  0  0  0  0
   24.0351  -13.2846  -20.7757 C   0  0  2  0  0  0  0  0  0  0  0  0
   23.6631  -12.4006  -21.9599 C   0  0  0  0  0  0  0  0  0  0  0  0
   23.8036  -12.6376  -19.4756 C   0  0  0  0  0  0  0  0  0  0  0  0
   24.0444  -13.3896  -18.2193 C   0  0  2  0  0  0  0  0  0  0  0  0
   23.2864  -14.5759  -18.0014 N   0  0  0  0  0  0  0  0  0  0  0  0
   23.9637  -12.4197  -17.1109 C   0  0  0  0  0  0  0  0  0  0  0  0
   22.8116  -12.2674  -16.6009 O   0  0  0  0  0  0  0  0  0  0  0  0
   25.0314  -11.6481  -16.5581 N   0  0  0  0  0  0  0  0  0  0  0  0
   26.4327  -11.7030  -16.8502 C   0  0  0  0  0  0  0  0  0  0  0  0
   26.9157  -10.3093  -16.4777 C   0  0  0  0  0  0  0  0  0  0  0  0
   26.1044  -10.0444  -15.1964 C   0  0  0  0  0  0  0  0  0  0  0  0
   24.7910  -10.6453  -15.5553 C   0  0  1  0  0  0  0  0  0  0  0  0
   23.8171   -9.6143  -16.0298 C   0  0  0  0  0  0  0  0  0  0  0  0
   23.8841   -9.2647  -17.2310 O   0  0  0  0  0  0  0  0  0  0  0  0
   22.8468   -9.0351  -15.1893 N   0  0  0  0  0  0  0  0  0  0  0  0
   21.8088   -8.1029  -15.6472 C   0  0  1  0  0  0  0  0  0  0  0  0
   20.5220   -8.7942  -15.9008 C   0  0  0  0  0  0  0  0  0  0  0  0
   19.3911   -7.9907  -16.4037 C   0  0  0  0  0  0  0  0  0  0  0  0
   18.1020   -8.6538  -16.6734 C   0  0  0  0  0  0  0  0  0  0  0  0
   17.0233   -7.8247  -17.2773 C   0  0  0  0  0  0  0  0  0  0  0  0
   15.8596   -8.6141  -17.6601 N   0  0  0  0  0  0  0  0  0  0  0  0
   21.7944   -6.9192  -14.7934 C   0  0  0  0  0  0  0  0  0  0  0  0
   21.4347   -5.6961  -15.2984 O   0  0  0  0  0  0  0  0  0  0  0  0
   22.1152   -6.9624  -13.5512 O   0  0  0  0  0  0  0  0  0  0  0  0
  2  1  1  6
  3  2  1  0
  4  2  1  0
  5  4  1  0
  5  6  1  1
  7  5  1  0
  7  8  2  0
  9 10  1  0
  9  7  1  0
 11 10  1  0
 12 11  1  0
 12 13  1  0
 13  9  1  0
 14 15  2  0
 13 14  1  6
 16 14  1  0
 17 18  1  1
 17 16  1  0
 19 18  1  0
 19 20  1  0
 20 21  1  0
 21 22  1  0
 23 17  1  0
 24 23  1  0
 25 23  2  0
M  END
$$$$
