LPK.pdb
     RDKit          3D

 25 25  0  0  1  0  0  0  0  0999 V2000
   17.3598  -14.7848    3.5214 C   0  0  0  0  0  0  0  0  0  0  0  0
   18.1015  -15.9570    2.9790 C   0  0  2  0  0  0  0  0  0  0  0  0
   19.2704  -15.5366    2.0964 C   0  0  0  0  0  0  0  0  0  0  0  0
   17.2516  -16.9862    2.3619 C   0  0  0  0  0  0  0  0  0  0  0  0
   17.6313  -18.4174    2.4579 C   0  0  2  0  0  0  0  0  0  0  0  0
   16.8635  -19.3582    1.7131 N   0  0  0  0  0  0  0  0  0  0  0  0
   17.7412  -18.7417    3.8927 C   0  0  0  0  0  0  0  0  0  0  0  0
   16.6412  -18.8245    4.5200 O   0  0  0  0  0  0  0  0  0  0  0  0
   18.9384  -18.9719    4.6375 N   0  0  0  0  0  0  0  0  0  0  0  0
   20.3002  -18.9376    4.1944 C   0  0  0  0  0  0  0  0  0  0  0  0
   21.0682  -18.6239    5.4697 C   0  0  0  0  0  0  0  0  0  0  0  0
   20.3035  -19.4786    6.4968 C   0  0  0  0  0  0  0  0  0  0  0  0
   18.8995  -19.2959    6.0383 C   0  0  1  0  0  0  0  0  0  0  0  0
   18.1877  -18.2436    6.8274 C   0  0  0  0  0  0  0  0  0  0  0  0
   17.6062  -17.3359    6.1888 O   0  0  0  0  0  0  0  0  0  0  0  0
   18.1494  -18.2385    8.2352 N   0  0  0  0  0  0  0  0  0  0  0  0
   17.1796  -17.4761    9.0317 C   0  0  1  0  0  0  0  0  0  0  0  0
   15.8028  -17.6116    8.4986 C   0  0  0  0  0  0  0  0  0  0  0  0
   14.7208  -16.8738    9.1785 C   0  0  0  0  0  0  0  0  0  0  0  0
   13.3224  -17.2897    8.9647 C   0  0  0  0  0  0  0  0  0  0  0  0
   12.2595  -16.4376    9.5644 C   0  0  0  0  0  0  0  0  0  0  0  0
   10.9205  -16.8471    9.1602 N   0  0  0  0  0  0  0  0  0  0  0  0
   17.3932  -17.7344   10.4522 C   0  0  0  0  0  0  0  0  0  0  0  0
   17.3080  -16.7182   11.3691 O   0  0  0  0  0  0  0  0  0  0  0  0
   17.6699  -18.9031   10.9055 O   0  0  0  0  0  0  0  0  0  0  0  0
  2  1  1  6
  3  2  1  0
  4  2  1  0
  5  4  1  0
  5  6  1  1
  7  5  1  0
  7  8  2  0
  9 10  1  0
  9  7  1  0
 11 10  1  0
 12 11  1  0
 12 13  1  0
 13  9  1  0
 14 15  2  0
 13 14  1  1
 16 14  1  0
 17 18  1  6
 17 16  1  0
 19 18  1  0
 19 20  1  0
 20 21  1  0
 21 22  1  0
 23 17  1  0
 24 23  1  0
 25 23  2  0
M  END
$$$$
