LPK.pdb
     RDKit          3D

 25 25  0  0  1  0  0  0  0  0999 V2000
   22.7070  -13.7256  -21.3957 C   0  0  0  0  0  0  0  0  0  0  0  0
   23.8940  -13.4276  -20.5468 C   0  0  2  0  0  0  0  0  0  0  0  0
   24.8312  -14.6238  -20.4327 C   0  0  0  0  0  0  0  0  0  0  0  0
   23.5785  -12.8141  -19.2482 C   0  0  0  0  0  0  0  0  0  0  0  0
   23.9357  -13.5151  -17.9901 C   0  0  2  0  0  0  0  0  0  0  0  0
   23.2131  -14.6983  -17.6626 N   0  0  0  0  0  0  0  0  0  0  0  0
   23.9401  -12.5039  -16.9162 C   0  0  0  0  0  0  0  0  0  0  0  0
   22.8260  -12.3158  -16.3383 O   0  0  0  0  0  0  0  0  0  0  0  0
   25.0514  -11.7284  -16.4638 N   0  0  0  0  0  0  0  0  0  0  0  0
   26.4352  -11.8386  -16.8173 C   0  0  0  0  0  0  0  0  0  0  0  0
   26.9685  -10.4379  -16.5563 C   0  0  0  0  0  0  0  0  0  0  0  0
   26.2268  -10.0729  -15.2575 C   0  0  0  0  0  0  0  0  0  0  0  0
   24.8837  -10.6597  -15.5159 C   0  0  1  0  0  0  0  0  0  0  0  0
   23.9126   -9.6343  -16.0080 C   0  0  0  0  0  0  0  0  0  0  0  0
   24.0364   -9.2411  -17.1911 O   0  0  0  0  0  0  0  0  0  0  0  0
   22.8845   -9.1067  -15.2031 N   0  0  0  0  0  0  0  0  0  0  0  0
   21.8812   -8.1427  -15.6725 C   0  0  1  0  0  0  0  0  0  0  0  0
   20.8167   -8.8003  -16.4678 C   0  0  0  0  0  0  0  0  0  0  0  0
   19.7667   -9.5405  -15.7419 C   0  0  0  0  0  0  0  0  0  0  0  0
   18.6877  -10.1928  -16.5065 C   0  0  0  0  0  0  0  0  0  0  0  0
   17.7300  -11.0402  -15.7448 C   0  0  0  0  0  0  0  0  0  0  0  0
   16.7033  -11.6272  -16.5965 N   0  0  0  0  0  0  0  0  0  0  0  0
   21.4768   -7.2732  -14.5722 C   0  0  0  0  0  0  0  0  0  0  0  0
   21.8046   -7.5839  -13.2774 O   0  0  0  0  0  0  0  0  0  0  0  0
   20.8034   -6.1962  -14.7576 O   0  0  0  0  0  0  0  0  0  0  0  0
  2  1  1  1
  3  2  1  0
  4  2  1  0
  5  4  1  0
  5  6  1  1
  7  5  1  0
  7  8  2  0
  9 10  1  0
  9  7  1  0
 11 10  1  0
 12 11  1  0
 12 13  1  0
 13  9  1  0
 14 15  2  0
 13 14  1  6
 16 14  1  0
 17 18  1  1
 17 16  1  0
 19 18  1  0
 19 20  1  0
 20 21  1  0
 21 22  1  0
 23 17  1  0
 24 23  1  0
 25 23  2  0
M  END
$$$$
