LPK.pdb
     RDKit          3D

 25 25  0  0  1  0  0  0  0  0999 V2000
   25.0747  -19.8879  -16.6790 C   0  0  0  0  0  0  0  0  0  0  0  0
   24.1923  -21.0875  -16.7059 C   0  0  2  0  0  0  0  0  0  0  0  0
   23.0257  -20.9188  -17.6718 C   0  0  0  0  0  0  0  0  0  0  0  0
   23.7803  -21.5734  -15.3806 C   0  0  0  0  0  0  0  0  0  0  0  0
   24.8053  -21.9815  -14.3884 C   0  0  2  0  0  0  0  0  0  0  0  0
   25.6701  -23.0595  -14.7342 N   0  0  0  0  0  0  0  0  0  0  0  0
   24.1125  -22.1643  -13.0991 C   0  0  0  0  0  0  0  0  0  0  0  0
   23.5742  -23.3002  -12.9242 O   0  0  0  0  0  0  0  0  0  0  0  0
   23.9890  -21.2117  -12.0416 N   0  0  0  0  0  0  0  0  0  0  0  0
   24.4876  -19.8707  -11.9692 C   0  0  0  0  0  0  0  0  0  0  0  0
   23.5432  -19.2064  -10.9786 C   0  0  0  0  0  0  0  0  0  0  0  0
   23.3568  -20.3308   -9.9436 C   0  0  0  0  0  0  0  0  0  0  0  0
   23.2903  -21.5282  -10.8249 C   0  0  1  0  0  0  0  0  0  0  0  0
   21.8794  -21.9458  -11.0927 C   0  0  0  0  0  0  0  0  0  0  0  0
   21.4310  -21.7615  -12.2480 O   0  0  0  0  0  0  0  0  0  0  0  0
   21.0547  -22.5274  -10.1105 N   0  0  0  0  0  0  0  0  0  0  0  0
   19.6537  -22.9089  -10.3293 C   0  0  1  0  0  0  0  0  0  0  0  0
   19.1291  -23.7369   -9.2169 C   0  0  0  0  0  0  0  0  0  0  0  0
   17.7257  -24.1866   -9.2900 C   0  0  0  0  0  0  0  0  0  0  0  0
   17.1799  -25.0188   -8.2020 C   0  0  0  0  0  0  0  0  0  0  0  0
   16.9514  -26.4599   -8.4964 C   0  0  0  0  0  0  0  0  0  0  0  0
   16.5498  -27.2147   -7.3162 N   0  0  0  0  0  0  0  0  0  0  0  0
   18.8801  -21.7407  -10.7382 C   0  0  0  0  0  0  0  0  0  0  0  0
   17.8967  -21.8496  -11.6876 O   0  0  0  0  0  0  0  0  0  0  0  0
   19.0804  -20.5741  -10.2415 O   0  0  0  0  0  0  0  0  0  0  0  0
  2  1  1  1
  3  2  1  0
  4  2  1  0
  5  4  1  0
  5  6  1  6
  7  5  1  0
  7  8  2  0
  9 10  1  0
  9  7  1  0
 11 10  1  0
 12 11  1  0
 12 13  1  0
 13  9  1  0
 14 15  2  0
 13 14  1  6
 16 14  1  0
 17 18  1  1
 17 16  1  0
 19 18  1  0
 19 20  1  0
 20 21  1  0
 21 22  1  0
 23 17  1  0
 24 23  1  0
 25 23  2  0
M  END
$$$$
