LPK.pdb
     RDKit          3D

 25 25  0  0  1  0  0  0  0  0999 V2000
   20.6709  -22.9362  -12.6725 C   0  0  0  0  0  0  0  0  0  0  0  0
   21.6863  -22.4534  -11.6956 C   0  0  2  0  0  0  0  0  0  0  0  0
   21.0994  -22.2749  -10.3007 C   0  0  0  0  0  0  0  0  0  0  0  0
   22.4661  -21.2917  -12.1481 C   0  0  0  0  0  0  0  0  0  0  0  0
   23.5779  -20.7737  -11.3129 C   0  0  2  0  0  0  0  0  0  0  0  0
   23.2414  -20.1229  -10.0911 N   0  0  0  0  0  0  0  0  0  0  0  0
   24.4458  -19.9712  -12.1953 C   0  0  0  0  0  0  0  0  0  0  0  0
   23.9897  -18.8330  -12.5223 O   0  0  0  0  0  0  0  0  0  0  0  0
   25.7280  -20.3349  -12.7097 N   0  0  0  0  0  0  0  0  0  0  0  0
   26.5880  -21.4112  -12.3173 C   0  0  0  0  0  0  0  0  0  0  0  0
   27.4165  -21.6620  -13.5684 C   0  0  0  0  0  0  0  0  0  0  0  0
   27.6656  -20.2229  -14.0553 C   0  0  0  0  0  0  0  0  0  0  0  0
   26.3498  -19.5885  -13.7703 C   0  0  1  0  0  0  0  0  0  0  0  0
   25.4821  -19.5335  -14.9872 C   0  0  0  0  0  0  0  0  0  0  0  0
   24.7281  -20.5102  -15.2046 O   0  0  0  0  0  0  0  0  0  0  0  0
   25.4837  -18.4433  -15.8787 N   0  0  0  0  0  0  0  0  0  0  0  0
   24.5641  -18.3051  -17.0150 C   0  0  1  0  0  0  0  0  0  0  0  0
   23.8287  -17.0184  -16.9739 C   0  0  0  0  0  0  0  0  0  0  0  0
   22.9029  -16.7137  -18.0818 C   0  0  0  0  0  0  0  0  0  0  0  0
   22.1628  -15.4385  -18.0701 C   0  0  0  0  0  0  0  0  0  0  0  0
   21.2229  -15.1865  -19.1964 C   0  0  0  0  0  0  0  0  0  0  0  0
   20.5466  -13.9005  -19.0831 N   0  0  0  0  0  0  0  0  0  0  0  0
   25.2489  -18.6640  -18.2530 C   0  0  0  0  0  0  0  0  0  0  0  0
   26.5788  -18.3775  -18.4258 O   0  0  0  0  0  0  0  0  0  0  0  0
   24.6509  -19.2514  -19.2252 O   0  0  0  0  0  0  0  0  0  0  0  0
  2  1  1  6
  3  2  1  0
  4  2  1  0
  5  4  1  0
  5  6  1  1
  7  5  1  0
  7  8  2  0
  9 10  1  0
  9  7  1  0
 11 10  1  0
 12 11  1  0
 12 13  1  0
 13  9  1  0
 14 15  2  0
 13 14  1  6
 16 14  1  0
 17 18  1  6
 17 16  1  0
 19 18  1  0
 19 20  1  0
 20 21  1  0
 21 22  1  0
 23 17  1  0
 24 23  1  0
 25 23  2  0
M  END
$$$$
