FNR.pdb
     RDKit          3D

 31 31  0  0  1  0  0  0  0  0999 V2000
   28.8244  -20.6195  -16.6656 N   0  0  0  0  0  0  0  0  0  0  0  0
   28.0236  -19.6792  -15.8665 C   0  0  1  0  0  0  0  0  0  0  0  0
   27.2583  -18.8439  -16.8393 C   0  0  0  0  0  0  0  0  0  0  0  0
   28.0491  -17.8130  -17.5312 C   0  0  0  0  0  0  0  0  0  0  0  0
   28.3898  -16.6543  -16.8606 C   0  0  0  0  0  0  0  0  0  0  0  0
   29.1334  -15.7181  -17.5473 C   0  0  0  0  0  0  0  0  0  0  0  0
   29.5156  -15.9440  -18.8551 C   0  0  0  0  0  0  0  0  0  0  0  0
   29.1781  -17.0976  -19.5272 C   0  0  0  0  0  0  0  0  0  0  0  0
   28.4341  -18.0332  -18.8383 C   0  0  0  0  0  0  0  0  0  0  0  0
   27.1766  -20.4230  -14.9021 C   0  0  0  0  0  0  0  0  0  0  0  0
   26.9367  -21.6406  -15.1684 O   0  0  0  0  0  0  0  0  0  0  0  0
   25.9984  -21.5852   -9.5257 N   0  0  0  0  0  0  0  0  0  0  0  0
   25.3530  -20.6256  -10.3367 C   0  0  0  0  0  0  0  0  0  0  0  0
   24.1150  -20.4457  -10.0997 O   0  0  0  0  0  0  0  0  0  0  0  0
   26.0138  -19.8594  -11.3934 C   0  0  0  0  0  0  0  0  0  0  0  0
   25.9845  -20.4742  -12.7501 C   0  0  2  0  0  0  0  0  0  0  0  0
   26.6883  -19.7677  -13.7653 N   0  0  0  0  0  0  0  0  0  0  0  0
   24.5726  -20.7659  -13.1141 C   0  0  0  0  0  0  0  0  0  0  0  0
   23.8956  -19.7759  -13.5362 O   0  0  0  0  0  0  0  0  0  0  0  0
   20.3470  -28.4509  -13.7640 N   0  0  0  0  0  0  0  0  0  0  0  0
   21.3517  -27.6582  -14.4296 C   0  0  0  0  0  0  0  0  0  0  0  0
   22.2195  -28.2300  -15.2215 N   0  0  0  0  0  0  0  0  0  0  0  0
   21.4296  -26.2574  -14.2503 N   0  0  0  0  0  0  0  0  0  0  0  0
   20.5577  -25.5458  -13.3471 C   0  0  0  0  0  0  0  0  0  0  0  0
   20.8328  -24.0317  -13.4205 C   0  0  0  0  0  0  0  0  0  0  0  0
   22.2592  -23.7311  -13.1245 C   0  0  0  0  0  0  0  0  0  0  0  0
   22.5836  -22.2674  -13.3028 C   0  0  2  0  0  0  0  0  0  0  0  0
   24.0004  -22.0403  -13.0077 N   0  0  0  0  0  0  0  0  0  0  0  0
   21.7336  -21.3563  -12.5242 C   0  0  0  0  0  0  0  0  0  0  0  0
   20.7099  -20.5954  -13.1319 O   0  0  0  0  0  0  0  0  0  0  0  0
   21.8384  -21.1789  -11.2896 O   0  0  0  0  0  0  0  0  0  0  0  0
  2  1  1  6
  3  2  1  0
  4  3  1  0
  4  5  2  0
  6  5  1  0
  7  6  2  0
  8  9  2  0
  8  7  1  0
  9  4  1  0
 10  2  1  0
 11 10  2  0
 13 12  1  0
 14 13  2  0
 15 13  1  0
 16 17  1  0
 16 15  1  1
 17 10  1  0
 18 16  1  0
 19 18  2  0
 20 21  1  0
 21 22  2  0
 21 23  1  0
 23 24  1  0
 25 26  1  0
 25 24  1  0
 27 26  1  1
 27 28  1  0
 28 18  1  0
 29 30  1  0
 29 27  1  0
 31 29  2  0
M  END
$$$$
