FNR.pdb
     RDKit          3D

 31 31  0  0  1  0  0  0  0  0999 V2000
   26.8625  -21.6274   -8.5135 N   0  0  0  0  0  0  0  0  0  0  0  0
   26.0930  -20.3927   -8.2956 C   0  0  1  0  0  0  0  0  0  0  0  0
   27.0635  -19.3727   -7.7982 C   0  0  0  0  0  0  0  0  0  0  0  0
   27.6528  -19.6648   -6.4813 C   0  0  0  0  0  0  0  0  0  0  0  0
   27.0948  -19.1051   -5.3483 C   0  0  0  0  0  0  0  0  0  0  0  0
   27.6782  -19.4087   -4.1364 C   0  0  0  0  0  0  0  0  0  0  0  0
   28.7778  -20.2420   -4.0735 C   0  0  0  0  0  0  0  0  0  0  0  0
   29.3370  -20.8019   -5.2005 C   0  0  0  0  0  0  0  0  0  0  0  0
   28.7518  -20.4969   -6.4121 C   0  0  0  0  0  0  0  0  0  0  0  0
   25.3864  -20.0063   -9.5415 C   0  0  0  0  0  0  0  0  0  0  0  0
   25.1692  -18.7683   -9.7182 O   0  0  0  0  0  0  0  0  0  0  0  0
   27.0106  -22.0154  -11.7326 N   0  0  0  0  0  0  0  0  0  0  0  0
   26.6416  -21.1350  -12.7736 C   0  0  0  0  0  0  0  0  0  0  0  0
   27.4720  -21.0367  -13.7337 O   0  0  0  0  0  0  0  0  0  0  0  0
   25.3998  -20.3619  -12.7994 C   0  0  0  0  0  0  0  0  0  0  0  0
   24.4291  -20.6648  -11.7106 C   0  0  2  0  0  0  0  0  0  0  0  0
   24.9976  -20.9986  -10.4494 N   0  0  0  0  0  0  0  0  0  0  0  0
   23.4599  -21.6804  -12.2008 C   0  0  0  0  0  0  0  0  0  0  0  0
   23.8121  -22.8937  -12.0578 O   0  0  0  0  0  0  0  0  0  0  0  0
   19.5194  -24.4414   -6.8120 N   0  0  0  0  0  0  0  0  0  0  0  0
   18.4782  -24.0531   -7.7319 C   0  0  0  0  0  0  0  0  0  0  0  0
   17.3769  -24.7519   -7.8083 N   0  0  0  0  0  0  0  0  0  0  0  0
   18.6127  -22.9207   -8.5686 N   0  0  0  0  0  0  0  0  0  0  0  0
   19.8689  -22.5573   -9.1787 C   0  0  0  0  0  0  0  0  0  0  0  0
   19.7119  -21.2586   -9.9925 C   0  0  0  0  0  0  0  0  0  0  0  0
   20.9486  -20.9548  -10.7612 C   0  0  0  0  0  0  0  0  0  0  0  0
   20.9627  -21.6307  -12.1112 C   0  0  2  0  0  0  0  0  0  0  0  0
   22.2314  -21.3485  -12.7870 N   0  0  0  0  0  0  0  0  0  0  0  0
   19.8228  -21.2914  -12.9739 C   0  0  0  0  0  0  0  0  0  0  0  0
   18.7673  -22.2027  -13.2013 O   0  0  0  0  0  0  0  0  0  0  0  0
   19.6900  -20.1968  -13.5663 O   0  0  0  0  0  0  0  0  0  0  0  0
  2  1  1  6
  3  2  1  0
  4  3  1  0
  4  5  2  0
  6  5  1  0
  7  6  2  0
  8  9  2  0
  8  7  1  0
  9  4  1  0
 10  2  1  0
 11 10  2  0
 13 12  1  0
 14 13  2  0
 15 13  1  0
 16 17  1  0
 16 15  1  6
 17 10  1  0
 18 16  1  0
 19 18  2  0
 20 21  1  0
 21 22  2  0
 21 23  1  0
 23 24  1  0
 25 26  1  0
 25 24  1  0
 27 26  1  1
 27 28  1  0
 28 18  1  0
 29 30  1  0
 29 27  1  0
 31 29  2  0
M  END
$$$$
