FNR.pdb
     RDKit          3D

 31 31  0  0  1  0  0  0  0  0999 V2000
   28.8093  -22.1384   -9.0252 N   0  0  0  0  0  0  0  0  0  0  0  0
   27.6974  -21.2543   -8.6428 C   0  0  1  0  0  0  0  0  0  0  0  0
   28.3143  -19.9723   -8.1892 C   0  0  0  0  0  0  0  0  0  0  0  0
   28.5338  -19.8668   -6.7374 C   0  0  0  0  0  0  0  0  0  0  0  0
   29.4358  -20.7140   -6.1236 C   0  0  0  0  0  0  0  0  0  0  0  0
   29.6110  -20.5773   -4.7628 C   0  0  0  0  0  0  0  0  0  0  0  0
   28.9047  -19.6254   -4.0541 C   0  0  0  0  0  0  0  0  0  0  0  0
   28.0045  -18.7790   -4.6622 C   0  0  0  0  0  0  0  0  0  0  0  0
   27.8307  -18.9173   -6.0239 C   0  0  0  0  0  0  0  0  0  0  0  0
   26.7498  -21.1086   -9.7748 C   0  0  0  0  0  0  0  0  0  0  0  0
   27.1738  -21.4384  -10.9248 O   0  0  0  0  0  0  0  0  0  0  0  0
   21.0510  -19.7711  -11.2975 N   0  0  0  0  0  0  0  0  0  0  0  0
   21.9323  -20.7933  -10.8813 C   0  0  0  0  0  0  0  0  0  0  0  0
   21.7319  -21.9393  -11.3987 O   0  0  0  0  0  0  0  0  0  0  0  0
   23.0211  -20.6046   -9.9224 C   0  0  0  0  0  0  0  0  0  0  0  0
   24.3898  -20.8905  -10.4366 C   0  0  2  0  0  0  0  0  0  0  0  0
   25.4580  -20.6252   -9.5344 N   0  0  0  0  0  0  0  0  0  0  0  0
   24.5576  -20.2194  -11.7529 C   0  0  0  0  0  0  0  0  0  0  0  0
   24.7612  -18.9650  -11.7109 O   0  0  0  0  0  0  0  0  0  0  0  0
   24.9935  -20.7390  -20.0887 N   0  0  0  0  0  0  0  0  0  0  0  0
   26.1527  -21.4917  -19.6758 C   0  0  0  0  0  0  0  0  0  0  0  0
   27.1594  -21.6465  -20.4942 N   0  0  0  0  0  0  0  0  0  0  0  0
   26.2371  -22.0777  -18.3913 N   0  0  0  0  0  0  0  0  0  0  0  0
   25.1497  -22.0203  -17.4445 C   0  0  0  0  0  0  0  0  0  0  0  0
   25.2335  -20.7264  -16.6123 C   0  0  0  0  0  0  0  0  0  0  0  0
   25.5089  -21.0261  -15.1816 C   0  0  0  0  0  0  0  0  0  0  0  0
   24.6569  -20.1980  -14.2500 C   0  0  2  0  0  0  0  0  0  0  0  0
   24.4990  -20.9018  -12.9750 N   0  0  0  0  0  0  0  0  0  0  0  0
   23.3505  -19.8124  -14.8010 C   0  0  0  0  0  0  0  0  0  0  0  0
   23.1431  -18.5529  -15.4066 O   0  0  0  0  0  0  0  0  0  0  0  0
   22.3354  -20.5445  -14.7829 O   0  0  0  0  0  0  0  0  0  0  0  0
  2  1  1  6
  3  2  1  0
  4  3  1  0
  4  5  2  0
  6  5  1  0
  7  6  2  0
  8  9  2  0
  8  7  1  0
  9  4  1  0
 10  2  1  0
 11 10  2  0
 13 12  1  0
 14 13  2  0
 15 13  1  0
 16 17  1  0
 16 15  1  1
 17 10  1  0
 18 16  1  0
 19 18  2  0
 20 21  1  0
 21 22  2  0
 21 23  1  0
 23 24  1  0
 25 26  1  0
 25 24  1  0
 27 26  1  6
 27 28  1  0
 28 18  1  0
 29 30  1  0
 29 27  1  0
 31 29  2  0
M  END
$$$$
