FNR.pdb
     RDKit          3D

 31 31  0  0  1  0  0  0  0  0999 V2000
   24.6153  -20.7937  -16.2572 N   0  0  0  0  0  0  0  0  0  0  0  0
   23.4018  -19.9761  -16.1052 C   0  0  1  0  0  0  0  0  0  0  0  0
   22.6593  -20.0786  -17.3967 C   0  0  0  0  0  0  0  0  0  0  0  0
   23.3226  -19.4444  -18.5477 C   0  0  0  0  0  0  0  0  0  0  0  0
   23.9851  -20.2324  -19.4688 C   0  0  0  0  0  0  0  0  0  0  0  0
   24.5892  -19.5954  -20.5319 C   0  0  0  0  0  0  0  0  0  0  0  0
   24.5259  -18.2216  -20.6579 C   0  0  0  0  0  0  0  0  0  0  0  0
   23.8664  -17.4324  -19.7420 C   0  0  0  0  0  0  0  0  0  0  0  0
   23.2626  -18.0717  -18.6789 C   0  0  0  0  0  0  0  0  0  0  0  0
   22.6303  -20.4250  -14.9204 C   0  0  0  0  0  0  0  0  0  0  0  0
   22.8602  -21.5990  -14.4963 O   0  0  0  0  0  0  0  0  0  0  0  0
   19.6651  -18.5960   -9.9139 N   0  0  0  0  0  0  0  0  0  0  0  0
   20.3285  -19.4580  -10.8149 C   0  0  0  0  0  0  0  0  0  0  0  0
   20.2966  -20.6960  -10.5192 O   0  0  0  0  0  0  0  0  0  0  0  0
   21.0223  -19.0129  -12.0236 C   0  0  0  0  0  0  0  0  0  0  0  0
   20.9528  -19.9420  -13.1861 C   0  0  2  0  0  0  0  0  0  0  0  0
   21.7026  -19.5566  -14.3325 N   0  0  0  0  0  0  0  0  0  0  0  0
   19.5247  -20.2234  -13.4905 C   0  0  0  0  0  0  0  0  0  0  0  0
   18.8970  -19.2985  -14.0964 O   0  0  0  0  0  0  0  0  0  0  0  0
   19.2790  -26.0987  -10.1546 N   0  0  0  0  0  0  0  0  0  0  0  0
   19.7162  -26.5590  -11.4499 C   0  0  0  0  0  0  0  0  0  0  0  0
   20.7826  -27.3067  -11.5544 N   0  0  0  0  0  0  0  0  0  0  0  0
   19.0158  -26.2218  -12.6316 N   0  0  0  0  0  0  0  0  0  0  0  0
   17.8563  -25.3630  -12.6224 C   0  0  0  0  0  0  0  0  0  0  0  0
   18.2597  -23.9167  -12.9680 C   0  0  0  0  0  0  0  0  0  0  0  0
   17.0683  -23.0284  -13.0309 C   0  0  0  0  0  0  0  0  0  0  0  0
   17.4412  -21.5905  -13.3008 C   0  0  2  0  0  0  0  0  0  0  0  0
   18.8877  -21.4217  -13.1426 N   0  0  0  0  0  0  0  0  0  0  0  0
   16.7074  -20.6088  -12.4904 C   0  0  0  0  0  0  0  0  0  0  0  0
   15.3103  -20.4391  -12.6157 O   0  0  0  0  0  0  0  0  0  0  0  0
   17.2398  -19.8580  -11.6421 O   0  0  0  0  0  0  0  0  0  0  0  0
  2  1  1  6
  3  2  1  0
  4  3  1  0
  4  5  2  0
  6  5  1  0
  7  6  2  0
  8  9  2  0
  8  7  1  0
  9  4  1  0
 10  2  1  0
 11 10  2  0
 13 12  1  0
 14 13  2  0
 15 13  1  0
 16 17  1  0
 16 15  1  1
 17 10  1  0
 18 16  1  0
 19 18  2  0
 20 21  1  0
 21 22  2  0
 21 23  1  0
 23 24  1  0
 25 26  1  0
 25 24  1  0
 27 26  1  1
 27 28  1  0
 28 18  1  0
 29 30  1  0
 29 27  1  0
 31 29  2  0
M  END
$$$$
