FNR.pdb
     RDKit          3D

 31 31  0  0  1  0  0  0  0  0999 V2000
   28.0417  -17.9611  -16.8844 N   0  0  0  0  0  0  0  0  0  0  0  0
   27.3460  -17.6146  -15.6354 C   0  0  1  0  0  0  0  0  0  0  0  0
   26.3677  -16.5407  -15.9810 C   0  0  0  0  0  0  0  0  0  0  0  0
   26.9599  -15.2159  -16.2285 C   0  0  0  0  0  0  0  0  0  0  0  0
   27.3403  -14.4311  -15.1573 C   0  0  0  0  0  0  0  0  0  0  0  0
   27.8928  -13.1991  -15.4368 C   0  0  0  0  0  0  0  0  0  0  0  0
   28.0534  -12.7795  -16.7427 C   0  0  0  0  0  0  0  0  0  0  0  0
   27.6755  -13.5588  -17.8134 C   0  0  0  0  0  0  0  0  0  0  0  0
   27.1230  -14.7911  -17.5316 C   0  0  0  0  0  0  0  0  0  0  0  0
   26.7349  -18.8278  -15.0392 C   0  0  0  0  0  0  0  0  0  0  0  0
   26.6161  -19.8412  -15.7941 O   0  0  0  0  0  0  0  0  0  0  0  0
   25.3159  -21.5527   -9.7367 N   0  0  0  0  0  0  0  0  0  0  0  0
   25.6459  -21.4697  -11.1076 C   0  0  0  0  0  0  0  0  0  0  0  0
   25.3740  -22.5003  -11.8040 O   0  0  0  0  0  0  0  0  0  0  0  0
   26.2606  -20.3020  -11.7393 C   0  0  0  0  0  0  0  0  0  0  0  0
   25.7379  -19.9493  -13.0890 C   0  0  2  0  0  0  0  0  0  0  0  0
   26.3244  -18.8061  -13.7009 N   0  0  0  0  0  0  0  0  0  0  0  0
   24.2539  -19.8803  -13.0257 C   0  0  0  0  0  0  0  0  0  0  0  0
   23.7750  -19.0702  -12.1707 O   0  0  0  0  0  0  0  0  0  0  0  0
   17.8573  -23.6205  -13.8769 N   0  0  0  0  0  0  0  0  0  0  0  0
   17.1111  -22.7721  -14.7737 C   0  0  0  0  0  0  0  0  0  0  0  0
   15.8172  -22.6514  -14.6376 N   0  0  0  0  0  0  0  0  0  0  0  0
   17.7453  -22.0535  -15.8139 N   0  0  0  0  0  0  0  0  0  0  0  0
   19.1803  -22.0138  -15.9602 C   0  0  0  0  0  0  0  0  0  0  0  0
   19.8282  -21.3926  -14.7080 C   0  0  0  0  0  0  0  0  0  0  0  0
   21.3056  -21.3039  -14.8569 C   0  0  0  0  0  0  0  0  0  0  0  0
   21.9593  -20.6275  -13.6760 C   0  0  2  0  0  0  0  0  0  0  0  0
   23.4144  -20.6478  -13.8436 N   0  0  0  0  0  0  0  0  0  0  0  0
   21.5747  -21.1784  -12.3692 C   0  0  0  0  0  0  0  0  0  0  0  0
   22.0616  -22.4254  -11.9173 O   0  0  0  0  0  0  0  0  0  0  0  0
   20.8041  -20.6082  -11.5645 O   0  0  0  0  0  0  0  0  0  0  0  0
  2  1  1  6
  3  2  1  0
  4  3  1  0
  4  5  2  0
  6  5  1  0
  7  6  2  0
  8  9  2  0
  8  7  1  0
  9  4  1  0
 10  2  1  0
 11 10  2  0
 13 12  1  0
 14 13  2  0
 15 13  1  0
 16 17  1  0
 16 15  1  1
 17 10  1  0
 18 16  1  0
 19 18  2  0
 20 21  1  0
 21 22  2  0
 21 23  1  0
 23 24  1  0
 25 26  1  0
 25 24  1  0
 27 26  1  6
 27 28  1  0
 28 18  1  0
 29 30  1  0
 29 27  1  0
 31 29  2  0
M  END
$$$$
