FNR.pdb
     RDKit          3D

 31 31  0  0  1  0  0  0  0  0999 V2000
   28.8179  -23.5775  -11.0850 N   0  0  0  0  0  0  0  0  0  0  0  0
   28.5293  -22.1802  -10.7266 C   0  0  1  0  0  0  0  0  0  0  0  0
   29.6066  -21.3539  -11.3482 C   0  0  0  0  0  0  0  0  0  0  0  0
   30.9519  -21.5621  -10.7880 C   0  0  0  0  0  0  0  0  0  0  0  0
   31.9493  -22.0801  -11.5912 C   0  0  0  0  0  0  0  0  0  0  0  0
   33.1941  -22.2554  -11.0248 C   0  0  0  0  0  0  0  0  0  0  0  0
   33.4200  -21.9214   -9.7039 C   0  0  0  0  0  0  0  0  0  0  0  0
   32.4284  -21.4049   -8.8999 C   0  0  0  0  0  0  0  0  0  0  0  0
   31.1836  -21.2301   -9.4686 C   0  0  0  0  0  0  0  0  0  0  0  0
   27.1567  -21.8172  -11.1567 C   0  0  0  0  0  0  0  0  0  0  0  0
   26.6350  -22.5261  -12.0711 O   0  0  0  0  0  0  0  0  0  0  0  0
   25.8445  -19.1755   -7.5592 N   0  0  0  0  0  0  0  0  0  0  0  0
   24.8842  -19.9410   -8.2570 C   0  0  0  0  0  0  0  0  0  0  0  0
   24.3692  -20.9065   -7.6062 O   0  0  0  0  0  0  0  0  0  0  0  0
   24.4699  -19.6864   -9.6368 C   0  0  0  0  0  0  0  0  0  0  0  0
   25.1020  -20.5536  -10.6701 C   0  0  2  0  0  0  0  0  0  0  0  0
   26.5086  -20.7339  -10.5511 N   0  0  0  0  0  0  0  0  0  0  0  0
   24.6868  -20.0766  -12.0160 C   0  0  0  0  0  0  0  0  0  0  0  0
   25.3048  -19.0557  -12.4546 O   0  0  0  0  0  0  0  0  0  0  0  0
   26.7309  -24.6493  -15.5055 N   0  0  0  0  0  0  0  0  0  0  0  0
   26.2737  -23.8672  -16.6281 C   0  0  0  0  0  0  0  0  0  0  0  0
   25.8349  -24.4614  -17.7058 N   0  0  0  0  0  0  0  0  0  0  0  0
   26.2849  -22.4531  -16.5999 N   0  0  0  0  0  0  0  0  0  0  0  0
   26.7018  -21.7081  -15.4365 C   0  0  0  0  0  0  0  0  0  0  0  0
   25.5087  -21.4882  -14.4868 C   0  0  0  0  0  0  0  0  0  0  0  0
   24.5923  -20.4404  -15.0111 C   0  0  0  0  0  0  0  0  0  0  0  0
   23.3758  -20.2553  -14.1362 C   0  0  2  0  0  0  0  0  0  0  0  0
   23.6820  -20.6938  -12.7725 N   0  0  0  0  0  0  0  0  0  0  0  0
   22.1602  -20.9114  -14.6370 C   0  0  0  0  0  0  0  0  0  0  0  0
   21.5405  -21.9653  -13.9289 O   0  0  0  0  0  0  0  0  0  0  0  0
   21.5833  -20.6035  -15.7043 O   0  0  0  0  0  0  0  0  0  0  0  0
  2  1  1  6
  3  2  1  0
  4  3  1  0
  4  5  2  0
  6  5  1  0
  7  6  2  0
  8  9  2  0
  8  7  1  0
  9  4  1  0
 10  2  1  0
 11 10  2  0
 13 12  1  0
 14 13  2  0
 15 13  1  0
 16 17  1  0
 16 15  1  1
 17 10  1  0
 18 16  1  0
 19 18  2  0
 20 21  1  0
 21 22  2  0
 21 23  1  0
 23 24  1  0
 25 26  1  0
 25 24  1  0
 27 26  1  6
 27 28  1  0
 28 18  1  0
 29 30  1  0
 29 27  1  0
 31 29  2  0
M  END
$$$$
