FNR.pdb
     RDKit          3D

 31 31  0  0  1  0  0  0  0  0999 V2000
   28.5207  -20.8622  -16.0818 N   0  0  0  0  0  0  0  0  0  0  0  0
   27.7429  -19.8851  -15.3044 C   0  0  1  0  0  0  0  0  0  0  0  0
   26.9653  -19.0813  -16.2938 C   0  0  0  0  0  0  0  0  0  0  0  0
   27.7419  -18.0566  -17.0107 C   0  0  0  0  0  0  0  0  0  0  0  0
   28.0184  -18.2295  -18.3530 C   0  0  0  0  0  0  0  0  0  0  0  0
   28.7462  -17.2430  -18.9839 C   0  0  0  0  0  0  0  0  0  0  0  0
   29.1755  -16.1303  -18.2875 C   0  0  0  0  0  0  0  0  0  0  0  0
   28.9019  -15.9541  -16.9493 C   0  0  0  0  0  0  0  0  0  0  0  0
   28.1735  -16.9423  -16.3199 C   0  0  0  0  0  0  0  0  0  0  0  0
   26.9092  -20.5841  -14.2959 C   0  0  0  0  0  0  0  0  0  0  0  0
   26.3788  -21.6814  -14.6503 O   0  0  0  0  0  0  0  0  0  0  0  0
   24.1516  -21.7472  -10.0224 N   0  0  0  0  0  0  0  0  0  0  0  0
   25.1031  -20.7531   -9.7040 C   0  0  0  0  0  0  0  0  0  0  0  0
   25.1593  -20.4156   -8.4776 O   0  0  0  0  0  0  0  0  0  0  0  0
   25.9914  -20.1187  -10.6780 C   0  0  0  0  0  0  0  0  0  0  0  0
   25.8171  -20.5574  -12.0910 C   0  0  2  0  0  0  0  0  0  0  0  0
   26.7455  -20.0189  -13.0256 N   0  0  0  0  0  0  0  0  0  0  0  0
   24.3999  -20.3446  -12.4879 C   0  0  0  0  0  0  0  0  0  0  0  0
   24.0444  -19.1329  -12.6365 O   0  0  0  0  0  0  0  0  0  0  0  0
   22.0285  -27.0377  -16.5581 N   0  0  0  0  0  0  0  0  0  0  0  0
   23.3344  -26.5008  -16.2627 C   0  0  0  0  0  0  0  0  0  0  0  0
   24.4080  -27.1486  -16.6299 N   0  0  0  0  0  0  0  0  0  0  0  0
   23.4937  -25.2742  -15.5766 N   0  0  0  0  0  0  0  0  0  0  0  0
   22.3690  -24.4732  -15.1574 C   0  0  0  0  0  0  0  0  0  0  0  0
   22.8567  -23.2116  -14.4198 C   0  0  0  0  0  0  0  0  0  0  0  0
   21.7166  -22.3265  -14.0602 C   0  0  0  0  0  0  0  0  0  0  0  0
   22.1499  -21.1498  -13.2193 C   0  0  2  0  0  0  0  0  0  0  0  0
   23.4941  -21.3939  -12.6909 N   0  0  0  0  0  0  0  0  0  0  0  0
   21.2182  -20.7976  -12.1391 C   0  0  0  0  0  0  0  0  0  0  0  0
   20.0098  -20.1119  -12.3956 O   0  0  0  0  0  0  0  0  0  0  0  0
   21.4074  -21.0661  -10.9313 O   0  0  0  0  0  0  0  0  0  0  0  0
  2  1  1  6
  3  2  1  0
  4  3  1  0
  4  5  2  0
  6  5  1  0
  7  6  2  0
  8  9  2  0
  8  7  1  0
  9  4  1  0
 10  2  1  0
 11 10  2  0
 13 12  1  0
 14 13  2  0
 15 13  1  0
 16 17  1  0
 16 15  1  1
 17 10  1  0
 18 16  1  0
 19 18  2  0
 20 21  1  0
 21 22  2  0
 21 23  1  0
 23 24  1  0
 25 26  1  0
 25 24  1  0
 27 26  1  1
 27 28  1  0
 28 18  1  0
 29 30  1  0
 29 27  1  0
 31 29  2  0
M  END
$$$$
