FNR.pdb
     RDKit          3D

 31 31  0  0  1  0  0  0  0  0999 V2000
   28.0004  -18.4599  -19.6606 N   0  0  0  0  0  0  0  0  0  0  0  0
   28.2348  -19.1850  -18.4022 C   0  0  1  0  0  0  0  0  0  0  0  0
   28.1874  -18.1654  -17.3123 C   0  0  0  0  0  0  0  0  0  0  0  0
   29.1748  -17.0802  -17.4323 C   0  0  0  0  0  0  0  0  0  0  0  0
   28.7483  -15.7668  -17.3960 C   0  0  0  0  0  0  0  0  0  0  0  0
   29.7083  -14.7837  -17.5092 C   0  0  0  0  0  0  0  0  0  0  0  0
   31.0415  -15.1147  -17.6528 C   0  0  0  0  0  0  0  0  0  0  0  0
   31.4708  -16.4227  -17.6895 C   0  0  0  0  0  0  0  0  0  0  0  0
   30.5086  -17.4049  -17.5759 C   0  0  0  0  0  0  0  0  0  0  0  0
   27.2471  -20.2821  -18.2549 C   0  0  0  0  0  0  0  0  0  0  0  0
   26.1078  -20.1043  -18.7853 O   0  0  0  0  0  0  0  0  0  0  0  0
   29.7274  -24.5761  -17.2845 N   0  0  0  0  0  0  0  0  0  0  0  0
   28.4554  -24.2716  -17.8178 C   0  0  0  0  0  0  0  0  0  0  0  0
   28.3402  -24.4015  -19.0791 O   0  0  0  0  0  0  0  0  0  0  0  0
   27.3100  -23.8320  -17.0207 C   0  0  0  0  0  0  0  0  0  0  0  0
   26.7017  -22.5343  -17.4272 C   0  0  2  0  0  0  0  0  0  0  0  0
   27.6033  -21.4406  -17.5541 N   0  0  0  0  0  0  0  0  0  0  0  0
   25.5521  -22.2417  -16.5307 C   0  0  0  0  0  0  0  0  0  0  0  0
   25.6451  -21.1757  -15.8439 O   0  0  0  0  0  0  0  0  0  0  0  0
   18.9050  -18.4969  -15.1687 N   0  0  0  0  0  0  0  0  0  0  0  0
   19.0923  -19.5069  -14.1559 C   0  0  0  0  0  0  0  0  0  0  0  0
   18.0628  -19.9863  -13.5098 N   0  0  0  0  0  0  0  0  0  0  0  0
   20.3766  -20.0045  -13.8338 N   0  0  0  0  0  0  0  0  0  0  0  0
   21.5562  -19.6338  -14.5777 C   0  0  0  0  0  0  0  0  0  0  0  0
   21.7477  -20.5771  -15.7807 C   0  0  0  0  0  0  0  0  0  0  0  0
   23.1404  -21.0962  -15.8384 C   0  0  0  0  0  0  0  0  0  0  0  0
   23.1901  -22.6047  -15.7989 C   0  0  2  0  0  0  0  0  0  0  0  0
   24.4272  -23.0708  -16.4298 N   0  0  0  0  0  0  0  0  0  0  0  0
   22.0191  -23.2680  -16.3885 C   0  0  0  0  0  0  0  0  0  0  0  0
   20.9170  -23.6672  -15.5996 O   0  0  0  0  0  0  0  0  0  0  0  0
   21.8981  -23.5304  -17.6063 O   0  0  0  0  0  0  0  0  0  0  0  0
  2  1  1  6
  3  2  1  0
  4  3  1  0
  4  5  2  0
  6  5  1  0
  7  6  2  0
  8  9  2  0
  8  7  1  0
  9  4  1  0
 10  2  1  0
 11 10  2  0
 13 12  1  0
 14 13  2  0
 15 13  1  0
 16 17  1  0
 16 15  1  1
 17 10  1  0
 18 16  1  0
 19 18  2  0
 20 21  1  0
 21 22  2  0
 21 23  1  0
 23 24  1  0
 25 26  1  0
 25 24  1  0
 27 26  1  6
 27 28  1  0
 28 18  1  0
 29 30  1  0
 29 27  1  0
 31 29  2  0
M  END
$$$$
