CRH.pdb
     RDKit          3D

 28 28  0  0  1  0  0  0  0  0999 V2000
    9.4700  -20.9075   16.1855 N   0  0  0  0  0  0  0  0  0  0  0  0
    8.7753  -20.8462   17.4407 C   0  0  1  0  0  0  0  0  0  0  0  0
    8.7787  -22.1984   18.1331 C   0  0  0  0  0  0  0  0  0  0  0  0
   10.3343  -22.4906   18.9882 S   0  0  0  0  0  0  0  0  0  0  0  0
    9.3507  -19.8036   18.3435 C   0  0  0  0  0  0  0  0  0  0  0  0
   10.5339  -19.4053   18.1962 O   0  0  0  0  0  0  0  0  0  0  0  0
    7.6938  -11.4371   22.4325 N   0  0  0  0  0  0  0  0  0  0  0  0
    7.6882  -12.3190   21.3081 C   0  0  0  0  0  0  0  0  0  0  0  0
    7.1767  -11.9777   20.1964 N   0  0  0  0  0  0  0  0  0  0  0  0
    8.2765  -13.6073   21.4602 N   0  0  0  0  0  0  0  0  0  0  0  0
    7.7089  -14.7331   20.7863 C   0  0  0  0  0  0  0  0  0  0  0  0
    8.4574  -15.9842   21.1924 C   0  0  0  0  0  0  0  0  0  0  0  0
    7.9172  -17.1180   20.3479 C   0  0  0  0  0  0  0  0  0  0  0  0
    8.9991  -18.1934   20.2596 C   0  0  2  0  0  0  0  0  0  0  0  0
    8.5511  -19.2457   19.3925 N   0  0  0  0  0  0  0  0  0  0  0  0
    9.1351  -18.7386   21.6483 C   0  0  0  0  0  0  0  0  0  0  0  0
    8.7152  -19.8920   21.9080 O   0  0  0  0  0  0  0  0  0  0  0  0
    7.0922  -12.6417   19.4117 N   0  0  0  0  0  0  0  0  0  0  0  0
    9.7254  -17.9985   22.6962 C   0  0  2  0  0  0  0  0  0  0  0  0
   10.6977  -18.6295   23.5454 C   0  0  0  0  0  0  0  0  0  0  0  0
   11.9524  -19.0169   22.7824 C   0  0  0  0  0  0  0  0  0  0  0  0
   12.8580  -19.6779   23.7336 C   0  0  0  0  0  0  0  0  0  0  0  0
   13.7554  -19.0503   24.5492 N   0  0  0  0  0  0  0  0  0  0  0  0
   14.4069  -19.9922   25.2793 C   0  0  0  0  0  0  0  0  0  0  0  0
   13.9024  -21.1842   24.9037 N   0  0  0  0  0  0  0  0  0  0  0  0
   12.9498  -20.9875   23.9526 C   0  0  0  0  0  0  0  0  0  0  0  0
   11.1176  -17.7447   24.6695 O   0  0  0  0  0  0  0  0  0  0  0  0
   11.1007  -16.5156   24.4988 O   0  0  0  0  0  0  0  0  0  0  0  0
  2  1  1  6
  3  2  1  0
  3  4  1  0
  5  2  1  0
  5  6  2  0
  7  8  1  0
  8  9  2  0
 10  8  1  0
 10 11  1  0
 11 12  1  0
 14 13  1  1
 13 12  1  0
 14 15  1  0
 15  5  1  0
 16 14  1  0
 17 16  2  0
 18 16  1  0
 19 20  1  6
 19 18  1  0
 21 22  2  0
 21 20  1  0
 23 22  1  0
 24 25  2  0
 24 23  1  0
 25 21  1  0
 26 19  1  0
 27 26  2  0
 28 26  1  0
M  END
$$$$
