CRH.pdb
     RDKit          3D

 28 28  0  0  1  0  0  0  0  0999 V2000
    7.8729  -14.3852   17.5240 N   0  0  0  0  0  0  0  0  0  0  0  0
    8.5763  -14.0655   18.7344 C   0  0  1  0  0  0  0  0  0  0  0  0
    8.1406  -12.7157   19.2785 C   0  0  0  0  0  0  0  0  0  0  0  0
    9.1300  -11.3820   18.5862 S   0  0  0  0  0  0  0  0  0  0  0  0
    8.3988  -15.1225   19.7757 C   0  0  0  0  0  0  0  0  0  0  0  0
    7.2871  -15.6864   19.9387 O   0  0  0  0  0  0  0  0  0  0  0  0
   12.9438  -21.9464   22.5508 N   0  0  0  0  0  0  0  0  0  0  0  0
   11.6524  -22.0068   23.1596 C   0  0  0  0  0  0  0  0  0  0  0  0
   11.1987  -23.0857   23.6537 N   0  0  0  0  0  0  0  0  0  0  0  0
   10.8722  -20.8158   23.2029 N   0  0  0  0  0  0  0  0  0  0  0  0
   11.0968  -19.7826   22.2407 C   0  0  0  0  0  0  0  0  0  0  0  0
   10.1732  -18.6204   22.5352 C   0  0  0  0  0  0  0  0  0  0  0  0
   10.3152  -17.6399   21.3912 C   0  0  0  0  0  0  0  0  0  0  0  0
    9.4025  -16.4487   21.6787 C   0  0  2  0  0  0  0  0  0  0  0  0
    9.5038  -15.5040   20.6029 N   0  0  0  0  0  0  0  0  0  0  0  0
    9.9467  -15.8198   22.9248 C   0  0  0  0  0  0  0  0  0  0  0  0
   10.7429  -14.8542   22.8379 O   0  0  0  0  0  0  0  0  0  0  0  0
   10.2705  -23.1290   24.1011 N   0  0  0  0  0  0  0  0  0  0  0  0
    9.5965  -16.2740   24.2153 C   0  0  2  0  0  0  0  0  0  0  0  0
    9.0789  -15.3394   25.1761 C   0  0  0  0  0  0  0  0  0  0  0  0
    7.8448  -14.6196   24.6609 C   0  0  0  0  0  0  0  0  0  0  0  0
    7.4676  -13.6184   25.6694 C   0  0  0  0  0  0  0  0  0  0  0  0
    8.1609  -13.3348   26.8110 N   0  0  0  0  0  0  0  0  0  0  0  0
    7.5011  -12.3572   27.4846 C   0  0  0  0  0  0  0  0  0  0  0  0
    6.4130  -12.0533   26.7498 N   0  0  0  0  0  0  0  0  0  0  0  0
    6.3951  -12.8308   25.6336 C   0  0  0  0  0  0  0  0  0  0  0  0
    8.7025  -16.0036   26.4567 O   0  0  0  0  0  0  0  0  0  0  0  0
    8.1593  -17.1186   26.4127 O   0  0  0  0  0  0  0  0  0  0  0  0
  2  1  1  6
  3  2  1  0
  3  4  1  0
  5  2  1  0
  5  6  2  0
  7  8  1  0
  8  9  2  0
 10  8  1  0
 10 11  1  0
 11 12  1  0
 14 13  1  6
 13 12  1  0
 14 15  1  0
 15  5  1  0
 16 14  1  0
 17 16  2  0
 18 16  1  0
 19 20  1  6
 19 18  1  0
 21 22  2  0
 21 20  1  0
 23 22  1  0
 24 25  2  0
 24 23  1  0
 25 21  1  0
 26 19  1  0
 27 26  2  0
 28 26  1  0
M  END
$$$$
