CRH.pdb
     RDKit          3D

 28 28  0  0  1  0  0  0  0  0999 V2000
    5.1228  -14.1259   27.0058 N   0  0  0  0  0  0  0  0  0  0  0  0
    6.0038  -13.2972   26.2317 C   0  0  1  0  0  0  0  0  0  0  0  0
    6.9545  -12.5236   27.1293 C   0  0  0  0  0  0  0  0  0  0  0  0
    6.1868  -11.0208   27.7527 S   0  0  0  0  0  0  0  0  0  0  0  0
    6.7746  -14.0919   25.2280 C   0  0  0  0  0  0  0  0  0  0  0  0
    7.1398  -15.2681   25.4801 O   0  0  0  0  0  0  0  0  0  0  0  0
    8.2347  -13.3253   17.1465 N   0  0  0  0  0  0  0  0  0  0  0  0
    8.4514  -14.7232   17.3495 C   0  0  0  0  0  0  0  0  0  0  0  0
    9.1559  -15.4115   16.5471 N   0  0  0  0  0  0  0  0  0  0  0  0
    7.8536  -15.3389   18.4865 N   0  0  0  0  0  0  0  0  0  0  0  0
    7.3028  -14.5284   19.5274 C   0  0  0  0  0  0  0  0  0  0  0  0
    8.3889  -14.2010   20.5292 C   0  0  0  0  0  0  0  0  0  0  0  0
    7.7447  -13.3898   21.6325 C   0  0  0  0  0  0  0  0  0  0  0  0
    7.7649  -14.2325   22.9069 C   0  0  2  0  0  0  0  0  0  0  0  0
    7.1059  -13.5140   23.9602 N   0  0  0  0  0  0  0  0  0  0  0  0
    9.2123  -14.3867   23.2613 C   0  0  0  0  0  0  0  0  0  0  0  0
    9.7407  -13.5949   24.0784 O   0  0  0  0  0  0  0  0  0  0  0  0
    9.2883  -16.4262   16.6752 N   0  0  0  0  0  0  0  0  0  0  0  0
   10.0221  -15.4018   22.7063 C   0  0  2  0  0  0  0  0  0  0  0  0
   10.9217  -16.1311   23.5569 C   0  0  0  0  0  0  0  0  0  0  0  0
   10.1803  -16.9474   24.6011 C   0  0  0  0  0  0  0  0  0  0  0  0
   10.3203  -16.2471   25.8864 C   0  0  0  0  0  0  0  0  0  0  0  0
   10.7367  -14.9573   26.0514 N   0  0  0  0  0  0  0  0  0  0  0  0
   10.7366  -14.6707   27.3791 C   0  0  0  0  0  0  0  0  0  0  0  0
   10.3210  -15.7859   28.0115 N   0  0  0  0  0  0  0  0  0  0  0  0
   10.0656  -16.7540   27.0905 C   0  0  0  0  0  0  0  0  0  0  0  0
   11.7813  -17.0737   22.7854 O   0  0  0  0  0  0  0  0  0  0  0  0
   11.4322  -17.3966   21.6391 O   0  0  0  0  0  0  0  0  0  0  0  0
  2  1  1  1
  3  2  1  0
  3  4  1  0
  5  2  1  0
  5  6  2  0
  7  8  1  0
  8  9  2  0
 10  8  1  0
 10 11  1  0
 11 12  1  0
 14 13  1  6
 13 12  1  0
 14 15  1  0
 15  5  1  0
 16 14  1  0
 17 16  2  0
 18 16  1  0
 19 20  1  1
 19 18  1  0
 21 22  2  0
 21 20  1  0
 23 22  1  0
 24 25  2  0
 24 23  1  0
 25 21  1  0
 26 19  1  0
 27 26  2  0
 28 26  1  0
M  END
$$$$
